data_PCOD9409091
_publ_section_title
;
Structure prediction by ZEFSAII (Michael W. Deem and Ramdas Pophale) SiO2 
 PCOD9409091
Probable space group: P N N A
;
_chemical_formula_sum "Si O2"
_cell_formula_units_Z 28
_cell_length_a 8.306288
_cell_length_b 6.143606
_cell_length_c 24.845302
_cell_angle_alpha 90.000000
_cell_angle_beta 90.000000
_cell_angle_gamma 90.000000
_cell_volume 1267.869694
_symmetry_space_group_name_H-M "P N N A"
_symmetry_group_IT_number 52
_symmetry_cell_setting 'orthorhombic'
loop_
_space_group_symop_operation_xyz
x,y,z
1/2-x,-y,z
x,1/2-y,1/2-z
1/2-x,1/2+y,1/2-z
-x,-y,-z
1/2+x,y,-z
-x,1/2+y,1/2+z
1/2+x,1/2-y,1/2+z
loop_
_atom_site_type_symbol
_atom_site_label
_atom_site_fract_x
_atom_site_fract_y
_atom_site_fract_z
Si Si1 0.250000 0.000000 0.642201
Si Si2 0.085832 0.609026 0.672094
Si Si3 0.552507 0.160523 0.071416
Si Si4 0.750000 0.500000 0.526451
Si Si5 0.250000 0.000000 0.225268
O O1 0.375459 0.137918 0.677464
O O2 0.136004 0.150516 0.605345
O O3 0.250000 0.500000 0.693174
O O4 0.079406 0.554583 0.608034
O O5 0.920188 0.521818 0.694565
O O6 0.362101 0.159664 0.060944
O O7 0.637118 0.137019 0.013797
O O8 0.260586 0.250000 0.250000
#
# Coordination Sequence:
#
# PCOD9409091 Si02
#       5
#     4   8   8   4   4
#     4  10  20  40  72  94 132 194 236 270 368 412
#     4  10  23  47  72  99 143 189 227 292 368 432
#     4  10  20  38  59  94 136 188 230 292 336 413
#     4  10  19  36  56  93 144 180 243 290 329 396
#     4  12  31  50  78 117 140 176 241 304 369 454
#
# _framework density 22.084288999999998
#
# number of rings (size 3 to 8) (size 9 to 14) (size 15 to 20)
#    0.000    1.714    4.286    0.857    8.000    2.286 
#    0.000    0.000    0.000    0.000    0.000    0.000 
#    0.000    0.000    0.000    0.000    0.000    0.000 
#
# Total GULP energy -155932.191899 kJ/mol
# GULP energy per Si atom -5569.006854 kJ/mol
# Density = 2.203402 g / cm^3
# Si number density = 22.084289 Si / 1000 Ang^3
#
#
#
# Elastic Constant Matrix: (Units=GPa)
#
#
# Indices 1 2 3 4 5 6 
#
# 1 202.5215 45.3964 47.7311 0.0000 0.0000 0.0000
# 2 45.3964 93.6710 23.7584 0.0000 0.0000 0.0000
# 3 47.7311 23.7584 43.6502 0.0000 0.0000 0.0000
# 4 0.0000 0.0000 0.0000 4.0078 0.0000 0.0000
# 5 0.0000 0.0000 0.0000 0.0000 9.8352 0.0000
# 6 0.0000 0.0000 0.0000 0.0000 0.0000 31.1266
#
#
#
# Elastic Compliance Matrix: (Units=1/GPa)
#
#
# Indices 1 2 3 4 5 6 
#
# 1 0.006865 -0.001651 -0.006609 0.000000 0.000000 0.000000
# 2 -0.001651 0.012783 -0.005152 0.000000 0.000000 0.000000
# 3 -0.006609 -0.005152 0.032940 0.000000 0.000000 0.000000
# 4 0.000000 0.000000 0.000000 0.249514 0.000000 0.000000
# 5 0.000000 0.000000 0.000000 0.000000 0.101675 0.000000
# 6 0.000000 0.000000 0.000000 0.000000 0.000000 0.032127
#
#
# Mechanical properties :
#
#
# Convention : Reuss Voigt Hill
#
# Bulk Modulus (GPa) = 38.81287 63.73495 51.27391
# Shear Modulus (GPa) = 10.60859 23.85771 17.23315
#
# Velocity S-wave (km/s) = 2.19411 3.29036 2.79648
# Velocity P-wave (km/s) = 4.90223 6.58466 5.80472
#
# Compressibility (1/GPa) = 0.02576465
#
# Stress axis : x y z
#
# Youngs Moduli (GPa) = 145.65850 78.23159 30.35819
#
# Poissons Ratio (x) = 0.12916 0.20062
# Poissons Ratio (y) = 0.24049 0.15641
# Poissons Ratio (z) = 0.96260 0.40305
#
# Static dielectric constant tensor:
#      x y z
#    x 1.847480 0.000000 0.000000 
#    y 0.000000 1.939690 0.000000 
#    z 0.000000 0.000000 1.837040 
# 
# From -- ./inp_files/41979.got.cif
#   From: 2010.05.17/outbox.cif.g08.bks.cpg/sg52_21_cif.got.tgz:41979.got - 2010.06.03 12:15:38.
