data_PCOD9409491
_publ_section_title
;
Structure prediction by ZEFSAII (Michael W. Deem and Ramdas Pophale) SiO2 
 PCOD9409491
Probable space group: P N N A
;
_chemical_formula_sum "Si O2"
_cell_formula_units_Z 40
_cell_length_a 8.777710
_cell_length_b 15.301004
_cell_length_c 15.120985
_cell_angle_alpha 90.000000
_cell_angle_beta 90.000000
_cell_angle_gamma 90.000000
_cell_volume 2030.865864
_symmetry_space_group_name_H-M "P N N A"
_symmetry_group_IT_number 52
_symmetry_cell_setting 'orthorhombic'
loop_
_space_group_symop_operation_xyz
x,y,z
1/2-x,-y,z
x,1/2-y,1/2-z
1/2-x,1/2+y,1/2-z
-x,-y,-z
1/2+x,y,-z
-x,1/2+y,1/2+z
1/2+x,1/2-y,1/2+z
loop_
_atom_site_type_symbol
_atom_site_label
_atom_site_fract_x
_atom_site_fract_y
_atom_site_fract_z
Si Si1 0.330560 0.336939 0.448886
Si Si2 0.655095 0.086568 0.089279
Si Si3 0.597544 0.028853 0.283088
Si Si4 0.606252 0.815594 0.672515
Si Si5 0.156150 0.090089 0.216093
O O1 0.479720 0.399356 0.440648
O O2 0.255845 0.338416 0.544744
O O3 0.380995 0.242713 0.413976
O O4 0.199148 0.369431 0.379390
O O5 0.646564 0.080735 0.194304
O O6 0.750000 0.000000 0.059951
O O7 0.492403 0.096825 0.334784
O O8 0.750000 0.000000 0.331640
O O9 0.508528 0.944071 0.244592
O O10 0.546264 0.750000 0.750000
O O11 0.768948 0.847132 0.711047
O O12 0.250000 0.000000 0.216668
#
# Coordination Sequence:
#
# PCOD9409491 Si02
#       5
#     8   8   8   8   8
#     4  11  21  33  52  79 119 153 176 226 285 342
#     4  11  22  31  51  83 118 149 177 218 285 353
#     4  10  20  33  55  83 106 141 193 239 272 329
#     4   9  17  36  52  71 112 150 186 225 273 336
#     4   9  16  32  52  73 102 146 183 215 272 329
#
# _framework density 19.696031999999999
#
# number of rings (size 3 to 8) (size 9 to 14) (size 15 to 20)
#    0.000    2.000    6.000    1.200    5.600    0.000 
#    0.000    5.000    0.000    0.000    0.000   18.200 
#    0.000    0.000    0.000    0.000    0.000    0.000 
#
# Total GULP energy -222710.464521 kJ/mol
# GULP energy per Si atom -5567.761613 kJ/mol
# Density = 1.965120 g / cm^3
# Si number density = 19.696032 Si / 1000 Ang^3
#
#
#
# Elastic Constant Matrix: (Units=GPa)
#
#
# Indices 1 2 3 4 5 6 
#
# 1 91.0842 44.1431 11.5018 0.0000 0.0000 0.0000
# 2 44.1431 81.5741 24.6570 0.0000 0.0000 0.0000
# 3 11.5018 24.6570 33.1306 0.0000 0.0000 0.0000
# 4 0.0000 0.0000 0.0000 16.1481 0.0000 0.0000
# 5 0.0000 0.0000 0.0000 0.0000 9.3558 0.0000
# 6 0.0000 0.0000 0.0000 0.0000 0.0000 19.0752
#
#
#
# Elastic Compliance Matrix: (Units=1/GPa)
#
#
# Indices 1 2 3 4 5 6 
#
# 1 0.014911 -0.008392 0.001069 0.000000 0.000000 0.000000
# 2 -0.008392 0.020540 -0.012373 0.000000 0.000000 0.000000
# 3 0.001069 -0.012373 0.039021 0.000000 0.000000 0.000000
# 4 0.000000 0.000000 0.000000 0.061927 0.000000 0.000000
# 5 0.000000 0.000000 0.000000 0.000000 0.106885 0.000000
# 6 0.000000 0.000000 0.000000 0.000000 0.000000 0.052424
#
#
# Mechanical properties :
#
#
# Convention : Reuss Voigt Hill
#
# Bulk Modulus (GPa) = 28.50653 40.71030 34.60841
# Shear Modulus (GPa) = 14.41779 17.28163 15.84971
#
# Velocity S-wave (km/s) = 2.70851 2.96534 2.83983
# Velocity P-wave (km/s) = 4.92809 5.69548 5.32562
#
# Compressibility (1/GPa) = 0.03507969
#
# Stress axis : x y z
#
# Youngs Moduli (GPa) = 67.06461 48.68525 25.62721
#
# Poissons Ratio (x) = 0.40857 -0.02740
# Poissons Ratio (y) = 0.56281 0.31709
# Poissons Ratio (z) = -0.07170 0.60239
#
# Static dielectric constant tensor:
#      x y z
#    x 1.790190 0.000000 0.000000 
#    y 0.000000 1.736190 0.000000 
#    z 0.000000 0.000000 1.681650 
# 
# From -- ./inp_files/24397.got.cif
#   From: 2010.05.17/outbox.cif.g08.bks.cpg/sg52_13_cif.got.tgz:24397.got - 2010.06.03 12:15:38.
