data_PCOD9409779
_publ_section_title
;
Structure prediction by ZEFSAII (Michael W. Deem and Ramdas Pophale) SiO2 
 PCOD9409779
Probable space group: P N N A
;
_chemical_formula_sum "Si O2"
_cell_formula_units_Z 60
_cell_length_a 11.640534
_cell_length_b 27.908337
_cell_length_c 8.931767
_cell_angle_alpha 90.000000
_cell_angle_beta 90.000000
_cell_angle_gamma 90.000000
_cell_volume 2901.644797
_symmetry_space_group_name_H-M "P N N A"
_symmetry_group_IT_number 52
_symmetry_cell_setting 'orthorhombic'
loop_
_space_group_symop_operation_xyz
x,y,z
1/2-x,-y,z
x,1/2-y,1/2-z
1/2-x,1/2+y,1/2-z
-x,-y,-z
1/2+x,y,-z
-x,1/2+y,1/2+z
1/2+x,1/2-y,1/2+z
loop_
_atom_site_type_symbol
_atom_site_label
_atom_site_fract_x
_atom_site_fract_y
_atom_site_fract_z
Si Si1 0.203143 0.196677 0.818163
Si Si2 0.750000 0.500000 0.273204
Si Si3 0.700642 0.638549 0.589992
Si Si4 0.568855 0.571866 0.375198
Si Si5 0.356618 0.570195 0.954829
Si Si6 0.863659 0.364587 0.113656
Si Si7 0.481431 0.348732 0.165844
Si Si8 0.334612 0.955068 0.201889
O O1 0.206036 0.250000 0.750000
O O2 0.301803 0.169774 0.728249
O O3 0.081687 0.176227 0.759350
O O4 0.232366 0.178342 0.988639
O O5 0.679143 0.537938 0.367138
O O6 0.665555 0.471549 0.163795
O O7 0.599172 0.612290 0.495198
O O8 0.632575 0.655903 0.735189
O O9 0.781927 0.595343 0.645253
O O10 0.563752 0.598921 0.214870
O O11 0.453132 0.542018 0.389901
O O12 0.242118 0.604438 0.956589
O O13 0.463498 0.599925 0.885052
O O14 0.362728 0.548830 0.120797
O O15 0.938629 0.333665 0.998817
O O16 0.250000 0.000000 0.182996
#
# Coordination Sequence:
#
# PCOD9409779 Si02
#       8
#     8   4   8   8   8   8   8   8
#     4  10  24  45  67  98 133 162 216 281 351 424
#     4  10  22  36  60  86 130 176 232 280 320 378
#     4  11  25  44  64  95 134 183 215 286 350 405
#     4  10  23  40  58  88 132 175 228 278 339 382
#     4  10  20  36  59  93 123 172 225 277 318 382
#     4   9  19  39  64  90 122 168 211 271 330 399
#     4  11  21  40  73  91 127 174 220 272 348 406
#     4  12  24  37  62  95 135 181 239 283 327 397
#
# _framework density 20.677928000000001
#
# number of rings (size 3 to 8) (size 9 to 14) (size 15 to 20)
#    0.000    1.600    3.333    1.600    2.800    2.133 
#    0.000    0.000    0.000    0.000    0.000    0.000 
#    0.000    0.000    0.000    0.000    0.000    0.000 
#
# Total GULP energy -334322.584556 kJ/mol
# GULP energy per Si atom -5572.043076 kJ/mol
# Density = 2.063086 g / cm^3
# Si number density = 20.677928 Si / 1000 Ang^3
#
#
#
# Elastic Constant Matrix: (Units=GPa)
#
#
# Indices 1 2 3 4 5 6 
#
# 1 40.8223 -1.3504 12.1438 0.0000 0.0000 0.0000
# 2 -1.3504 63.2516 12.3443 0.0000 0.0000 0.0000
# 3 12.1438 12.3443 59.3557 0.0000 0.0000 0.0000
# 4 0.0000 0.0000 0.0000 -46.9486 0.0000 0.0000
# 5 0.0000 0.0000 0.0000 0.0000 29.3383 0.0000
# 6 0.0000 0.0000 0.0000 0.0000 0.0000 4.7768
#
#
#
# Elastic Compliance Matrix: (Units=1/GPa)
#
#
# Indices 1 2 3 4 5 6 
#
# 1 0.026253 0.001677 -0.005720 0.000000 0.000000 0.000000
# 2 0.001677 0.016586 -0.003792 0.000000 0.000000 0.000000
# 3 -0.005720 -0.003792 0.018807 0.000000 0.000000 0.000000
# 4 0.000000 0.000000 0.000000 -0.021300 0.000000 0.000000
# 5 0.000000 0.000000 0.000000 0.000000 0.034085 0.000000
# 6 0.000000 0.000000 0.000000 0.000000 0.000000 0.209343
#
#
# Mechanical properties :
#
#
# Convention : Reuss Voigt Hill
#
# Bulk Modulus (GPa) = 21.75116 23.30057 22.52587
# Shear Modulus (GPa) = 15.88458 6.78610 11.33534
#
# Velocity S-wave (km/s) = 2.77463 1.81354 2.34388
# Velocity P-wave (km/s) = 4.56143 3.95955 4.27110
#
# Compressibility (1/GPa) = 0.04597455
#
# Stress axis : x y z
#
# Youngs Moduli (GPa) = 38.09027 60.29252 53.17292
#
# Poissons Ratio (x) = -0.10110 0.30415
# Poissons Ratio (y) = -0.06387 0.20166
# Poissons Ratio (z) = 0.21788 0.22866
#
# Static dielectric constant tensor:
#      x y z
#    x 1.776450 0.000000 0.000000 
#    y 0.000000 1.786190 0.000000 
#    z 0.000000 0.000000 1.763220 
# 
# From -- ./inp_files/9089.got.cif
#   From: 2010.05.17/outbox.cif.g08.bks.cpg/sg52_5_cif.got.tgz:9089.got - 2010.06.03 12:15:38.
