data_PCOD9409322
_publ_section_title
;
Structure prediction by ZEFSAII (Michael W. Deem and Ramdas Pophale) SiO2 
 PCOD9409322
Probable space group: P N N A
;
_chemical_formula_sum "Si O2"
_cell_formula_units_Z 56
_cell_length_a 15.482242
_cell_length_b 18.312139
_cell_length_c 9.124549
_cell_angle_alpha 90.000000
_cell_angle_beta 90.000000
_cell_angle_gamma 90.000000
_cell_volume 2586.927964
_symmetry_space_group_name_H-M "P N N A"
_symmetry_group_IT_number 52
_symmetry_cell_setting 'orthorhombic'
loop_
_space_group_symop_operation_xyz
x,y,z
1/2-x,-y,z
x,1/2-y,1/2-z
1/2-x,1/2+y,1/2-z
-x,-y,-z
1/2+x,y,-z
-x,1/2+y,1/2+z
1/2+x,1/2-y,1/2+z
loop_
_atom_site_type_symbol
_atom_site_label
_atom_site_fract_x
_atom_site_fract_y
_atom_site_fract_z
Si Si1 0.591273 0.503693 0.575084
Si Si2 0.788833 0.639935 0.077222
Si Si3 0.805777 0.569702 0.792309
Si Si4 0.683323 0.653737 0.595186
Si Si5 0.888725 0.282100 0.082273
Si Si6 0.660969 0.120058 0.097205
Si Si7 0.583610 0.250123 0.925889
O O1 0.500000 0.500000 0.500000
O O2 0.603948 0.450824 0.716667
O O3 0.616265 0.587066 0.606371
O O4 0.650865 0.462714 0.456267
O O5 0.686178 0.656315 0.084781
O O6 0.836449 0.629345 0.230533
O O7 0.807232 0.575144 0.964675
O O8 0.837828 0.707049 0.999998
O O9 0.750000 0.500000 0.744689
O O10 0.752791 0.638678 0.725575
O O11 0.638266 0.729091 0.553907
O O12 0.744193 0.642770 0.454851
O O13 0.884779 0.250000 0.250000
O O14 0.991433 0.290957 0.053777
O O15 0.592326 0.171582 0.008887
O O16 0.595236 0.250000 0.750000
#
# Coordination Sequence:
#
# PCOD9409322 Si02
#       7
#     8   8   8   8   8   8   8
#     4  10  21  40  65  94 123 169 222 267 316 388
#     4  12  23  42  62  92 136 165 207 271 337 381
#     4   9  22  41  63  89 122 167 218 263 317 388
#     4  10  19  39  64  86 119 169 218 252 312 383
#     4  11  22  40  64  97 125 166 216 265 320 392
#     4  11  21  40  63  91 130 167 213 267 325 383
#     4  11  23  39  64  93 127 171 219 265 321 387
#
# _framework density 21.647297999999999
#
# number of rings (size 3 to 8) (size 9 to 14) (size 15 to 20)
#    0.000    1.429    2.857    4.286    0.000    2.286 
#   10.286    0.714    0.000    0.000    0.000    0.000 
#    0.000    0.000    0.000    0.000    0.000    0.000 
#
# Total GULP energy -311897.766571 kJ/mol
# GULP energy per Si atom -5569.602974 kJ/mol
# Density = 2.159803 g / cm^3
# Si number density = 21.647298 Si / 1000 Ang^3
#
#
#
# Elastic Constant Matrix: (Units=GPa)
#
#
# Indices 1 2 3 4 5 6 
#
# 1 86.5894 3.4423 15.6380 0.0000 0.0000 0.0000
# 2 3.4423 41.1339 17.0285 0.0000 0.0000 0.0000
# 3 15.6380 17.0285 144.5055 0.0000 0.0000 0.0000
# 4 0.0000 0.0000 0.0000 16.9658 0.0000 0.0000
# 5 0.0000 0.0000 0.0000 0.0000 17.9893 0.0000
# 6 0.0000 0.0000 0.0000 0.0000 0.0000 20.5169
#
#
#
# Elastic Compliance Matrix: (Units=1/GPa)
#
#
# Indices 1 2 3 4 5 6 
#
# 1 0.011788 -0.000482 -0.001219 0.000000 0.000000 0.000000
# 2 -0.000482 0.025577 -0.002962 0.000000 0.000000 0.000000
# 3 -0.001219 -0.002962 0.007401 0.000000 0.000000 0.000000
# 4 0.000000 0.000000 0.000000 0.058942 0.000000 0.000000
# 5 0.000000 0.000000 0.000000 0.000000 0.055589 0.000000
# 6 0.000000 0.000000 0.000000 0.000000 0.000000 0.048740
#
#
# Mechanical properties :
#
#
# Convention : Reuss Voigt Hill
#
# Bulk Modulus (GPa) = 28.21580 38.27182 33.24381
# Shear Modulus (GPa) = 21.81724 26.83573 24.32649
#
# Velocity S-wave (km/s) = 3.17811 3.52473 3.35590
# Velocity P-wave (km/s) = 5.15071 5.85517 5.51420
#
# Compressibility (1/GPa) = 0.03544114
#
# Stress axis : x y z
#
# Youngs Moduli (GPa) = 84.83175 39.09712 135.11532
#
# Poissons Ratio (x) = 0.01884 0.16469
# Poissons Ratio (y) = 0.04088 0.40020
# Poissons Ratio (z) = 0.10340 0.11580
#
# Static dielectric constant tensor:
#      x y z
#    x 2.029820 0.000000 0.000000 
#    y 0.000000 1.489910 0.000000 
#    z 0.000000 0.000000 1.820170 
# 
# From -- ./inp_files/10795.got.cif
#   From: 2010.05.17/outbox.cif.g08.bks.cpg/sg52_6_cif.got.tgz:10795.got - 2010.06.03 12:15:38.
