data_PCOD9409901
_publ_section_title
;
Structure prediction by ZEFSAII (Michael W. Deem and Ramdas Pophale) SiO2 
 PCOD9409901
Probable space group: P N N A
;
_chemical_formula_sum "Si O2"
_cell_formula_units_Z 48
_cell_length_a 5.061776
_cell_length_b 26.758753
_cell_length_c 16.053315
_cell_angle_alpha 90.000000
_cell_angle_beta 90.000000
_cell_angle_gamma 90.000000
_cell_volume 2174.370366
_symmetry_space_group_name_H-M "P N N A"
_symmetry_group_IT_number 52
_symmetry_cell_setting 'orthorhombic'
loop_
_space_group_symop_operation_xyz
x,y,z
1/2-x,-y,z
x,1/2-y,1/2-z
1/2-x,1/2+y,1/2-z
-x,-y,-z
1/2+x,y,-z
-x,1/2+y,1/2+z
1/2+x,1/2-y,1/2+z
loop_
_atom_site_type_symbol
_atom_site_label
_atom_site_fract_x
_atom_site_fract_y
_atom_site_fract_z
Si Si1 0.240997 0.101074 0.263994
Si Si2 0.234666 0.058754 0.827955
Si Si3 0.204272 0.354526 0.554379
Si Si4 0.576777 0.117104 0.553692
Si Si5 0.401010 0.293894 0.307767
Si Si6 0.921613 0.736481 0.944580
O O1 0.509662 0.073284 0.238799
O O2 0.156804 0.093033 0.359135
O O3 0.283465 0.160044 0.244888
O O4 0.010349 0.080593 0.205179
O O5 0.170123 0.089317 0.911526
O O6 0.250000 0.000000 0.840018
O O7 0.499247 0.347167 0.521161
O O8 0.110794 0.320501 0.631470
O O9 0.788641 0.105250 0.481720
O O10 0.588921 0.176933 0.569371
O O11 0.517390 0.250000 0.250000
O O12 0.181958 0.266006 0.364432
O O13 0.209731 0.746761 0.981839
#
# Coordination Sequence:
#
# PCOD9409901 Si02
#       6
#     8   8   8   8   8   8
#     4  11  23  42  66  99 131 171 222 278 332 403
#     4  11  25  45  72  99 128 170 220 283 351 399
#     4  11  24  44  66  96 134 172 220 273 323 391
#     4  10  20  37  60  89 127 171 214 259 313 383
#     4  11  22  40  61  95 134 178 217 266 323 387
#     4  10  21  37  56  84 124 172 214 253 305 375
#
# _framework density 22.075357
#
# number of rings (size 3 to 8) (size 9 to 14) (size 15 to 20)
#    0.000    1.333    1.667    4.500    0.000    3.333 
#    0.000    8.333    0.000   10.000    0.000    0.000 
#    0.000    0.000    0.000    0.000    0.000    0.000 
#
# Total GULP energy -268776.154452 kJ/mol
# GULP energy per Si atom -5599.503218 kJ/mol
# Density = 2.202511 g / cm^3
# Si number density = 22.075357 Si / 1000 Ang^3
#
#
#
# Elastic Constant Matrix: (Units=GPa)
#
#
# Indices 1 2 3 4 5 6 
#
# 1 72.2864 30.4169 -7.8317 0.0000 0.0000 0.0000
# 2 30.4169 103.7220 30.1070 0.0000 0.0000 0.0000
# 3 -7.8317 30.1070 75.3297 0.0000 0.0000 0.0000
# 4 0.0000 0.0000 0.0000 18.3818 0.0000 0.0000
# 5 0.0000 0.0000 0.0000 0.0000 21.1406 0.0000
# 6 0.0000 0.0000 0.0000 0.0000 0.0000 8.6009
#
#
#
# Elastic Compliance Matrix: (Units=1/GPa)
#
#
# Indices 1 2 3 4 5 6 
#
# 1 0.016892 -0.006181 0.004226 0.000000 0.000000 0.000000
# 2 -0.006181 0.013168 -0.005905 0.000000 0.000000 0.000000
# 3 0.004226 -0.005905 0.016075 0.000000 0.000000 0.000000
# 4 0.000000 0.000000 0.000000 0.054401 0.000000 0.000000
# 5 0.000000 0.000000 0.000000 0.000000 0.047302 0.000000
# 6 0.000000 0.000000 0.000000 0.000000 0.000000 0.116267
#
#
# Mechanical properties :
#
#
# Convention : Reuss Voigt Hill
#
# Bulk Modulus (GPa) = 32.87766 39.63585 36.25675
# Shear Modulus (GPa) = 17.24359 22.86773 20.05566
#
# Velocity S-wave (km/s) = 2.79789 3.22202 3.01742
# Velocity P-wave (km/s) = 5.03620 5.64231 5.34785
#
# Compressibility (1/GPa) = 0.03041579
#
# Stress axis : x y z
#
# Youngs Moduli (GPa) = 59.19807 75.94311 62.21017
#
# Poissons Ratio (x) = 0.46937 -0.26293
# Poissons Ratio (y) = 0.36588 0.36737
# Poissons Ratio (z) = -0.25020 0.44847
#
# Static dielectric constant tensor:
#      x y z
#    x 1.793530 0.000000 0.000000 
#    y 0.000000 1.824980 0.000000 
#    z 0.000000 0.000000 1.842740 
# 
# From -- ./inp_files/23707.got.cif
#   From: 2010.05.17/outbox.cif.g08.bks.cpg/sg52_12_cif.got.tgz:23707.got - 2010.06.03 12:15:38.
