data_PCOD9409373
_publ_section_title
;
Structure prediction by ZEFSAII (Michael W. Deem and Ramdas Pophale) SiO2 
 PCOD9409373
Probable space group: P N N A
;
_chemical_formula_sum "Si O2"
_cell_formula_units_Z 56
_cell_length_a 15.642612
_cell_length_b 21.158941
_cell_length_c 8.735947
_cell_angle_alpha 90.000000
_cell_angle_beta 90.000000
_cell_angle_gamma 90.000000
_cell_volume 2891.433386
_symmetry_space_group_name_H-M "P N N A"
_symmetry_group_IT_number 52
_symmetry_cell_setting 'orthorhombic'
loop_
_space_group_symop_operation_xyz
x,y,z
1/2-x,-y,z
x,1/2-y,1/2-z
1/2-x,1/2+y,1/2-z
-x,-y,-z
1/2+x,y,-z
-x,1/2+y,1/2+z
1/2+x,1/2-y,1/2+z
loop_
_atom_site_type_symbol
_atom_site_label
_atom_site_fract_x
_atom_site_fract_y
_atom_site_fract_z
Si Si1 0.705957 0.437665 0.710862
Si Si2 0.959501 0.739033 0.067030
Si Si3 0.365104 0.259957 0.566264
Si Si4 0.898740 0.502434 0.999453
Si Si5 0.309949 0.127487 0.457099
Si Si6 0.312130 0.670341 0.520424
Si Si7 0.637979 0.375192 0.143331
O O1 0.750000 0.500000 0.639908
O O2 0.668343 0.387735 0.592525
O O3 0.643903 0.465369 0.845968
O O4 0.780227 0.396359 0.792003
O O5 0.968049 0.750000 0.250000
O O6 0.940229 0.663460 0.065274
O O7 0.873473 0.769613 0.996335
O O8 0.037471 0.773877 0.981764
O O9 0.359207 0.250000 0.750000
O O10 0.355554 0.193850 0.474197
O O11 0.286904 0.306423 0.521692
O O12 0.860815 0.432798 0.021110
O O13 0.874962 0.550292 0.134438
O O14 0.000000 0.500000 0.000000
O O15 0.222997 0.137991 0.548674
O O16 0.340881 0.648317 0.688501
#
# Coordination Sequence:
#
# PCOD9409373 Si02
#       7
#     8   8   8   8   8   8   8
#     4   9  22  40  62  88 120 160 213 254 309 377
#     4  10  23  39  60  90 128 164 204 259 320 376
#     4  12  23  40  63  96 124 163 216 257 308 382
#     4  10  21  39  62  92 123 165 217 258 307 380
#     4  10  20  38  62  85 119 167 207 249 305 371
#     4  11  22  42  62  89 132 162 202 264 328 364
#     4  10  19  41  62  86 126 166 205 260 314 369
#
# _framework density 19.367557000000001
#
# number of rings (size 3 to 8) (size 9 to 14) (size 15 to 20)
#    0.000    1.714    2.857    2.571    2.000    4.571 
#    2.571    0.714    0.000    0.000    0.000    0.000 
#    0.000    0.000    0.000    0.000    0.000    0.000 
#
# Total GULP energy -311785.843952 kJ/mol
# GULP energy per Si atom -5567.604356 kJ/mol
# Density = 1.932348 g / cm^3
# Si number density = 19.367557 Si / 1000 Ang^3
#
#
#
# Elastic Constant Matrix: (Units=GPa)
#
#
# Indices 1 2 3 4 5 6 
#
# 1 93.7374 13.5994 10.5394 0.0000 0.0000 0.0000
# 2 13.5994 84.1620 33.4018 0.0000 0.0000 0.0000
# 3 10.5394 33.4018 31.5861 0.0000 0.0000 0.0000
# 4 0.0000 0.0000 0.0000 19.5208 0.0000 0.0000
# 5 0.0000 0.0000 0.0000 0.0000 18.2707 0.0000
# 6 0.0000 0.0000 0.0000 0.0000 0.0000 22.4752
#
#
#
# Elastic Compliance Matrix: (Units=1/GPa)
#
#
# Indices 1 2 3 4 5 6 
#
# 1 0.011099 -0.000558 -0.003114 0.000000 0.000000 0.000000
# 2 -0.000558 0.020503 -0.021495 0.000000 0.000000 0.000000
# 3 -0.003114 -0.021495 0.055430 0.000000 0.000000 0.000000
# 4 0.000000 0.000000 0.000000 0.051227 0.000000 0.000000
# 5 0.000000 0.000000 0.000000 0.000000 0.054733 0.000000
# 6 0.000000 0.000000 0.000000 0.000000 0.000000 0.044493
#
#
# Mechanical properties :
#
#
# Convention : Reuss Voigt Hill
#
# Bulk Modulus (GPa) = 27.24949 36.06296 31.65623
# Shear Modulus (GPa) = 16.66382 22.18301 19.42341
#
# Velocity S-wave (km/s) = 2.93644 3.38800 3.17027
# Velocity P-wave (km/s) = 5.05936 5.82799 5.45722
#
# Compressibility (1/GPa) = 0.03669794
#
# Stress axis : x y z
#
# Youngs Moduli (GPa) = 90.09737 48.77340 18.04091
#
# Poissons Ratio (x) = 0.02720 0.05617
# Poissons Ratio (y) = 0.05025 0.38780
# Poissons Ratio (z) = 0.28053 1.04841
#
# Static dielectric constant tensor:
#      x y z
#    x 1.803250 0.000000 0.000000 
#    y 0.000000 1.767000 0.000000 
#    z 0.000000 0.000000 1.491360 
# 
# From -- ./inp_files/10794.got.cif
#   From: 2010.05.17/outbox.cif.g08.bks.cpg/sg52_6_cif.got.tgz:10794.got - 2010.06.03 12:15:38.
