data_PCOD9409509
_publ_section_title
;
Structure prediction by ZEFSAII (Michael W. Deem and Ramdas Pophale) SiO2 
 PCOD9409509
Probable space group: P N N A
;
_chemical_formula_sum "Si O2"
_cell_formula_units_Z 48
_cell_length_a 15.030217
_cell_length_b 7.292331
_cell_length_c 23.182978
_cell_angle_alpha 90.000000
_cell_angle_beta 90.000000
_cell_angle_gamma 90.000000
_cell_volume 2540.977661
_symmetry_space_group_name_H-M "P N N A"
_symmetry_group_IT_number 52
_symmetry_cell_setting 'orthorhombic'
loop_
_space_group_symop_operation_xyz
x,y,z
1/2-x,-y,z
x,1/2-y,1/2-z
1/2-x,1/2+y,1/2-z
-x,-y,-z
1/2+x,y,-z
-x,1/2+y,1/2+z
1/2+x,1/2-y,1/2+z
loop_
_atom_site_type_symbol
_atom_site_label
_atom_site_fract_x
_atom_site_fract_y
_atom_site_fract_z
Si Si1 0.874473 0.343877 0.991804
Si Si2 0.969739 0.911640 0.863747
Si Si3 0.684306 0.826870 0.874732
Si Si4 0.153375 0.550985 0.580370
Si Si5 0.897448 0.750000 0.750000
Si Si6 0.750000 0.500000 0.794037
Si Si7 0.578894 0.243970 0.989607
O O1 0.822867 0.258511 0.938213
O O2 0.871000 0.562657 0.991835
O O3 0.978827 0.283497 0.987092
O O4 0.842325 0.249886 0.050372
O O5 0.951710 0.784355 0.808531
O O6 0.933197 0.820763 0.923448
O O7 0.912360 0.096313 0.857539
O O8 0.073087 0.949835 0.874568
O O9 0.718995 0.669946 0.832718
O O10 0.750000 0.000000 0.874589
O O11 0.250000 0.500000 0.602945
O O12 0.124735 0.410498 0.528798
O O13 0.832410 0.575858 0.757780
#
# Coordination Sequence:
#
# PCOD9409509 Si02
#       7
#     8   8   8   8   4   4   8
#     4  10  20  33  61  89 125 161 190 243 305 368
#     4  11  22  42  60  86 126 164 200 254 309 364
#     4  12  22  38  60  90 128 159 195 240 304 380
#     4  11  22  39  62  90 123 161 210 255 305 364
#     4  12  24  42  62  86 122 160 206 256 308 368
#     4  12  26  40  62  94 120 158 206 244 304 386
#     4  10  20  38  58  91 123 160 201 241 309 376
#
# _framework density 18.890367999999999
#
# number of rings (size 3 to 8) (size 9 to 14) (size 15 to 20)
#    0.000    1.000    5.000    3.500    0.000    0.667 
#    0.000    0.000    0.000    2.000    0.000    0.000 
#    0.000    0.000    0.000    0.000    0.000    0.000 
#
# Total GULP energy -268522.871831 kJ/mol
# GULP energy per Si atom -5594.226496 kJ/mol
# Density = 1.884737 g / cm^3
# Si number density = 18.890368 Si / 1000 Ang^3
#
#
#
# Elastic Constant Matrix: (Units=GPa)
#
#
# Indices 1 2 3 4 5 6 
#
# 1 124.9085 42.6741 53.5289 0.0000 0.0000 0.0000
# 2 42.6741 116.5126 35.5792 0.0000 0.0000 0.0000
# 3 53.5289 35.5792 98.7778 0.0000 0.0000 0.0000
# 4 0.0000 0.0000 0.0000 16.1611 0.0000 0.0000
# 5 0.0000 0.0000 0.0000 0.0000 27.9657 0.0000
# 6 0.0000 0.0000 0.0000 0.0000 0.0000 23.2178
#
#
#
# Elastic Compliance Matrix: (Units=1/GPa)
#
#
# Indices 1 2 3 4 5 6 
#
# 1 0.011035 -0.002489 -0.005083 0.000000 0.000000 0.000000
# 2 -0.002489 0.010205 -0.002327 0.000000 0.000000 0.000000
# 3 -0.005083 -0.002327 0.013716 0.000000 0.000000 0.000000
# 4 0.000000 0.000000 0.000000 0.061877 0.000000 0.000000
# 5 0.000000 0.000000 0.000000 0.000000 0.035758 0.000000
# 6 0.000000 0.000000 0.000000 0.000000 0.000000 0.043070
#
#
# Mechanical properties :
#
#
# Convention : Reuss Voigt Hill
#
# Bulk Modulus (GPa) = 65.97371 67.08485 66.52928
# Shear Modulus (GPa) = 24.93605 27.36337 26.14971
#
# Velocity S-wave (km/s) = 3.63718 3.81009 3.72464
# Velocity P-wave (km/s) = 7.25528 7.41253 7.33433
#
# Compressibility (1/GPa) = 0.01515755
#
# Stress axis : x y z
#
# Youngs Moduli (GPa) = 90.62317 97.99080 72.90498
#
# Poissons Ratio (x) = 0.24393 0.37059
# Poissons Ratio (y) = 0.22559 0.16963
# Poissons Ratio (z) = 0.46066 0.22800
#
# Static dielectric constant tensor:
#      x y z
#    x 1.691730 0.000000 0.000000 
#    y 0.000000 1.659270 0.000000 
#    z 0.000000 0.000000 1.643000 
# 
# From -- ./inp_files/37220.got.cif
#   From: 2010.05.17/outbox.cif.g08.bks.cpg/sg52_19_cif.got.tgz:37220.got - 2010.06.03 12:15:38.
