data_PCOD9409731
_publ_section_title
;
Structure prediction by ZEFSAII (Michael W. Deem and Ramdas Pophale) SiO2 
 PCOD9409731
Probable space group: P N N A
;
_chemical_formula_sum "Si O2"
_cell_formula_units_Z 48
_cell_length_a 24.067729
_cell_length_b 14.782428
_cell_length_c 6.333817
_cell_angle_alpha 90.000000
_cell_angle_beta 90.000000
_cell_angle_gamma 90.000000
_cell_volume 2253.442062
_symmetry_space_group_name_H-M "P N N A"
_symmetry_group_IT_number 52
_symmetry_cell_setting 'orthorhombic'
loop_
_space_group_symop_operation_xyz
x,y,z
1/2-x,-y,z
x,1/2-y,1/2-z
1/2-x,1/2+y,1/2-z
-x,-y,-z
1/2+x,y,-z
-x,1/2+y,1/2+z
1/2+x,1/2-y,1/2+z
loop_
_atom_site_type_symbol
_atom_site_label
_atom_site_fract_x
_atom_site_fract_y
_atom_site_fract_z
Si Si1 0.961002 0.882707 0.576706
Si Si2 0.415429 0.750000 0.750000
Si Si3 0.581851 0.927086 0.411336
Si Si4 0.641863 0.166832 0.863439
Si Si5 0.250000 0.500000 0.937514
Si Si6 0.164141 0.988487 0.928523
Si Si7 0.684249 0.643607 0.797578
O O1 0.951959 0.824113 0.367261
O O2 0.916050 0.846148 0.740663
O O3 0.025135 0.873894 0.637581
O O4 0.940683 0.985100 0.536635
O O5 0.374962 0.699557 0.592047
O O6 0.607308 0.961770 0.189796
O O7 0.628359 0.877494 0.558392
O O8 0.672907 0.250000 0.750000
O O9 0.666543 0.068518 0.899497
O O10 0.200430 0.481682 0.772785
O O11 0.268472 0.412732 0.073700
O O12 0.181779 0.902578 0.066359
O O13 0.690661 0.750000 0.750000
#
# Coordination Sequence:
#
# PCOD9409731 Si02
#       7
#     8   4   8   8   4   8   8
#     4  10  20  37  58 100 134 182 230 265 321 393
#     4  10  20  36  56  90 142 174 224 276 306 384
#     4  10  22  37  66  95 134 180 225 265 331 400
#     4  10  21  37  63  94 137 175 222 269 325 389
#     4  10  26  46  74  94 124 166 224 280 344 408
#     4  11  22  46  68  91 131 172 215 283 338 394
#     4  11  25  48  71  98 134 170 223 279 342 411
#
# _framework density 21.300747000000001
#
# number of rings (size 3 to 8) (size 9 to 14) (size 15 to 20)
#    0.000    1.667    3.333    0.500    1.167    4.667 
#    6.000    8.333    0.000    0.000    0.000    0.000 
#    0.000    0.000    0.000    0.000    0.000    0.000 
#
# Total GULP energy -267660.077816 kJ/mol
# GULP energy per Si atom -5576.251621 kJ/mol
# Density = 2.125227 g / cm^3
# Si number density = 21.300747 Si / 1000 Ang^3
#
#
#
# Elastic Constant Matrix: (Units=GPa)
#
#
# Indices 1 2 3 4 5 6 
#
# 1 77.2268 52.4371 36.0792 0.0000 0.0000 0.0000
# 2 52.4371 164.9023 43.8772 0.0000 0.0000 0.0000
# 3 36.0792 43.8772 85.6111 0.0000 0.0000 0.0000
# 4 0.0000 0.0000 0.0000 22.0022 0.0000 0.0000
# 5 0.0000 0.0000 0.0000 0.0000 -6.4192 0.0000
# 6 0.0000 0.0000 0.0000 0.0000 0.0000 30.5506
#
#
#
# Elastic Compliance Matrix: (Units=1/GPa)
#
#
# Indices 1 2 3 4 5 6 
#
# 1 0.018542 -0.004420 -0.005549 0.000000 0.000000 0.000000
# 2 -0.004420 0.008075 -0.002276 0.000000 0.000000 0.000000
# 3 -0.005549 -0.002276 0.015186 0.000000 0.000000 0.000000
# 4 0.000000 0.000000 0.000000 0.045450 0.000000 0.000000
# 5 0.000000 0.000000 0.000000 0.000000 -0.155782 0.000000
# 6 0.000000 0.000000 0.000000 0.000000 0.000000 0.032733
#
#
# Mechanical properties :
#
#
# Convention : Reuss Voigt Hill
#
# Bulk Modulus (GPa) = 57.75834 65.83634 61.79734
# Shear Modulus (GPa) = -903.44455 22.24982 -440.59737
#
# Velocity S-wave (km/s) = -20.61694 3.23547 -14.39774
# Velocity P-wave (km/s) = 23.22864 6.70319 15.72636
#
# Compressibility (1/GPa) = 0.01731352
#
# Stress axis : x y z
#
# Youngs Moduli (GPa) = 53.93056 123.83521 65.85081
#
# Poissons Ratio (x) = 0.54732 0.36541
# Poissons Ratio (y) = 0.23836 0.14988
# Poissons Ratio (z) = 0.29927 0.28186
#
# Static dielectric constant tensor:
#      x y z
#    x 1.881860 0.000000 0.000000 
#    y 0.000000 1.915110 0.000000 
#    z 0.000000 0.000000 1.764270 
# 
# From -- ./inp_files/5851.got.cif
#   From: 2010.05.17/outbox.cif.g08.bks.cpg/sg52_3_cif.got.tgz:5851.got - 2010.06.03 12:15:38.
