data_PCOD9409959
_publ_section_title
;
Structure prediction by ZEFSAII (Michael W. Deem and Ramdas Pophale) SiO2 
 PCOD9409959
Probable space group: P N N A
;
_chemical_formula_sum "Si O2"
_cell_formula_units_Z 48
_cell_length_a 8.550362
_cell_length_b 10.276307
_cell_length_c 28.988094
_cell_angle_alpha 90.000000
_cell_angle_beta 90.000000
_cell_angle_gamma 90.000000
_cell_volume 2547.072067
_symmetry_space_group_name_H-M "P N N A"
_symmetry_group_IT_number 52
_symmetry_cell_setting 'orthorhombic'
loop_
_space_group_symop_operation_xyz
x,y,z
1/2-x,-y,z
x,1/2-y,1/2-z
1/2-x,1/2+y,1/2-z
-x,-y,-z
1/2+x,y,-z
-x,1/2+y,1/2+z
1/2+x,1/2-y,1/2+z
loop_
_atom_site_type_symbol
_atom_site_label
_atom_site_fract_x
_atom_site_fract_y
_atom_site_fract_z
Si Si1 0.896132 0.402252 0.199330
Si Si2 0.103919 0.598622 0.698979
Si Si3 0.427666 0.739159 0.041851
Si Si4 0.062759 0.523507 0.599845
Si Si5 0.062916 0.006647 0.392206
Si Si6 0.056307 0.755037 0.060262
O O1 0.750000 0.500000 0.198201
O O2 0.972698 0.414462 0.250384
O O3 0.847935 0.250455 0.194554
O O4 0.001853 0.441570 0.156374
O O5 0.250000 0.500000 0.700153
O O6 0.015147 0.561674 0.652139
O O7 0.482374 0.608030 0.067611
O O8 0.241492 0.748787 0.049803
O O9 0.512655 0.860346 0.066199
O O10 0.467400 0.739756 0.988120
O O11 0.250000 0.500000 0.598464
O O12 0.982870 0.391685 0.583350
O O13 0.250000 0.000000 0.390469
O O14 0.007879 0.863066 0.406236
#
# Coordination Sequence:
#
# PCOD9409959 Si02
#       6
#     8   8   8   8   8   8
#     4  10  20  37  65  88 117 154 194 241 290 341
#     4   9  20  37  60  91 120 148 193 242 287 340
#     4  11  22  42  59  85 116 156 192 244 289 347
#     4  11  22  38  60  87 118 153 194 238 287 347
#     4  10  23  40  59  86 120 152 192 241 293 346
#     4  11  24  38  61  84 118 152 197 239 292 344
#
# _framework density 18.845167
#
# number of rings (size 3 to 8) (size 9 to 14) (size 15 to 20)
#    0.000    1.667    1.667    2.500    4.667    1.333 
#    0.000    1.667    0.000    0.000    0.000    0.000 
#    0.000    0.000    0.000    0.000    0.000    0.000 
#
# Total GULP energy -267887.939493 kJ/mol
# GULP energy per Si atom -5580.998739 kJ/mol
# Density = 1.880227 g / cm^3
# Si number density = 18.845167 Si / 1000 Ang^3
#
#
#
# Elastic Constant Matrix: (Units=GPa)
#
#
# Indices 1 2 3 4 5 6 
#
# 1 30.3930 19.4482 14.9569 0.0000 0.0000 0.0000
# 2 19.4482 107.1469 47.7118 0.0000 0.0000 0.0000
# 3 14.9569 47.7118 133.1553 0.0000 0.0000 0.0000
# 4 0.0000 0.0000 0.0000 27.6723 0.0000 0.0000
# 5 0.0000 0.0000 0.0000 0.0000 -77.3892 0.0000
# 6 0.0000 0.0000 0.0000 0.0000 0.0000 1.3329
#
#
#
# Elastic Compliance Matrix: (Units=1/GPa)
#
#
# Indices 1 2 3 4 5 6 
#
# 1 0.037724 -0.005902 -0.002123 0.000000 0.000000 0.000000
# 2 -0.005902 0.012028 -0.003647 0.000000 0.000000 0.000000
# 3 -0.002123 -0.003647 0.009055 0.000000 0.000000 0.000000
# 4 0.000000 0.000000 0.000000 0.036137 0.000000 0.000000
# 5 0.000000 0.000000 0.000000 0.000000 -0.012922 0.000000
# 6 0.000000 0.000000 0.000000 0.000000 0.000000 0.750263
#
#
# Mechanical properties :
#
#
# Convention : Reuss Voigt Hill
#
# Bulk Modulus (GPa) = 28.19772 48.32545 38.26159
# Shear Modulus (GPa) = 5.76402 2.89508 4.32955
#
# Velocity S-wave (km/s) = 1.75079 1.24080 1.51737
# Velocity P-wave (km/s) = 4.36833 5.26800 4.83912
#
# Compressibility (1/GPa) = 0.03546386
#
# Stress axis : x y z
#
# Youngs Moduli (GPa) = 26.50867 83.13783 110.43359
#
# Poissons Ratio (x) = 0.49068 0.23440
# Poissons Ratio (y) = 0.15645 0.40275
# Poissons Ratio (z) = 0.05627 0.30320
#
# Static dielectric constant tensor:
#      x y z
#    x 1.636060 0.000000 0.000000 
#    y 0.000000 1.639640 0.000000 
#    z 0.000000 0.000000 1.665620 
# 
# From -- ./inp_files/44364.got.cif
#   From: 2010.05.17/outbox.cif.g08.bks.cpg/sg52_23_cif.got.tgz:44364.got - 2010.06.03 12:15:38.
