data_PCOD9409886
_publ_section_title
;
Structure prediction by ZEFSAII (Michael W. Deem and Ramdas Pophale) SiO2 
 PCOD9409886
Probable space group: P N N A
;
_chemical_formula_sum "Si O2"
_cell_formula_units_Z 52
_cell_length_a 11.816300
_cell_length_b 7.927715
_cell_length_c 28.056346
_cell_angle_alpha 90.000000
_cell_angle_beta 90.000000
_cell_angle_gamma 90.000000
_cell_volume 2628.213528
_symmetry_space_group_name_H-M "P N N A"
_symmetry_group_IT_number 52
_symmetry_cell_setting 'orthorhombic'
loop_
_space_group_symop_operation_xyz
x,y,z
1/2-x,-y,z
x,1/2-y,1/2-z
1/2-x,1/2+y,1/2-z
-x,-y,-z
1/2+x,y,-z
-x,1/2+y,1/2+z
1/2+x,1/2-y,1/2+z
loop_
_atom_site_type_symbol
_atom_site_label
_atom_site_fract_x
_atom_site_fract_y
_atom_site_fract_z
Si Si1 0.124274 0.567454 0.559650
Si Si2 0.503824 0.747612 0.141874
Si Si3 0.080905 0.482515 0.780001
Si Si4 0.755426 0.250000 0.250000
Si Si5 0.875694 0.929870 0.776979
Si Si6 0.498560 0.749496 0.521609
Si Si7 0.376165 0.933155 0.440837
O O1 0.250000 0.500000 0.558740
O O2 0.095164 0.665699 0.607779
O O3 0.041076 0.407840 0.552669
O O4 0.096210 0.688047 0.514768
O O5 0.558895 0.602134 0.174826
O O6 0.439726 0.884293 0.174309
O O7 0.412665 0.663201 0.106642
O O8 0.155346 0.597937 0.743256
O O9 0.164262 0.323818 0.788160
O O10 0.959874 0.455653 0.755170
O O11 0.868049 0.750000 0.750000
O O12 0.750000 0.000000 0.783052
O O13 0.399131 0.812391 0.486207
O O14 0.541130 0.907378 0.551641
O O15 0.250000 0.000000 0.439008
#
# Coordination Sequence:
#
# PCOD9409886 Si02
#       7
#     8   8   8   4   8   8   8
#     4  10  20  37  60  85 119 154 190 242 292 348
#     4  10  22  39  53  91 123 138 196 250 286 347
#     4  10  21  42  60  88 112 158 195 239 301 354
#     4  10  20  40  68  78 114 158 190 240 296 368
#     4  10  22  41  60  82 120 155 197 243 289 355
#     4   9  20  38  58  85 112 155 202 227 282 360
#     4  10  20  37  59  81 118 154 189 241 286 338
#
# _framework density 19.785304
#
# number of rings (size 3 to 8) (size 9 to 14) (size 15 to 20)
#    0.000    2.154    2.308    0.923    1.077    4.923 
#    8.308    1.538    0.000    0.000    0.000    0.000 
#    0.000    0.000    0.000    0.000    0.000    0.000 
#
# Total GULP energy -289877.249987 kJ/mol
# GULP energy per Si atom -5574.562500 kJ/mol
# Density = 1.974027 g / cm^3
# Si number density = 19.785304 Si / 1000 Ang^3
#
#
#
# Elastic Constant Matrix: (Units=GPa)
#
#
# Indices 1 2 3 4 5 6 
#
# 1 124.7469 9.3002 36.4783 0.0000 0.0000 0.0000
# 2 9.3002 42.8307 21.3313 0.0000 0.0000 0.0000
# 3 36.4783 21.3313 78.6624 0.0000 0.0000 0.0000
# 4 0.0000 0.0000 0.0000 18.4860 0.0000 0.0000
# 5 0.0000 0.0000 0.0000 0.0000 4.0230 0.0000
# 6 0.0000 0.0000 0.0000 0.0000 0.0000 49.7865
#
#
#
# Elastic Compliance Matrix: (Units=1/GPa)
#
#
# Indices 1 2 3 4 5 6 
#
# 1 0.009275 0.000148 -0.004341 0.000000 0.000000 0.000000
# 2 0.000148 0.026996 -0.007389 0.000000 0.000000 0.000000
# 3 -0.004341 -0.007389 0.016729 0.000000 0.000000 0.000000
# 4 0.000000 0.000000 0.000000 0.054095 0.000000 0.000000
# 5 0.000000 0.000000 0.000000 0.000000 0.248570 0.000000
# 6 0.000000 0.000000 0.000000 0.000000 0.000000 0.020086
#
#
# Mechanical properties :
#
#
# Convention : Reuss Voigt Hill
#
# Bulk Modulus (GPa) = 33.51734 42.27329 37.89531
# Shear Modulus (GPa) = 12.22911 26.40112 19.31512
#
# Velocity S-wave (km/s) = 2.48884 3.65688 3.12787
# Velocity P-wave (km/s) = 5.02358 6.26440 5.67799
#
# Compressibility (1/GPa) = 0.02983531
#
# Stress axis : x y z
#
# Youngs Moduli (GPa) = 107.82136 37.04292 59.77482
#
# Poissons Ratio (x) = -0.00549 0.25949
# Poissons Ratio (y) = -0.01598 0.44169
# Poissons Ratio (z) = 0.46806 0.27372
#
# Static dielectric constant tensor:
#      x y z
#    x 1.686750 0.000000 0.000000 
#    y 0.000000 1.751590 0.000000 
#    z 0.000000 0.000000 1.684930 
# 
# From -- ./inp_files/42734.got.cif
#   From: 2010.05.17/outbox.cif.g08.bks.cpg/sg52_22_cif.got.tgz:42734.got - 2010.06.03 12:15:38.
