data_PCOD9409754
_publ_section_title
;
Structure prediction by ZEFSAII (Michael W. Deem and Ramdas Pophale) SiO2 
 PCOD9409754
Probable space group: P N N A
;
_chemical_formula_sum "Si O2"
_cell_formula_units_Z 48
_cell_length_a 10.250081
_cell_length_b 8.313123
_cell_length_c 25.584846
_cell_angle_alpha 90.000000
_cell_angle_beta 90.000000
_cell_angle_gamma 90.000000
_cell_volume 2180.089438
_symmetry_space_group_name_H-M "P N N A"
_symmetry_group_IT_number 52
_symmetry_cell_setting 'orthorhombic'
loop_
_space_group_symop_operation_xyz
x,y,z
1/2-x,-y,z
x,1/2-y,1/2-z
1/2-x,1/2+y,1/2-z
-x,-y,-z
1/2+x,y,-z
-x,1/2+y,1/2+z
1/2+x,1/2-y,1/2+z
loop_
_atom_site_type_symbol
_atom_site_label
_atom_site_fract_x
_atom_site_fract_y
_atom_site_fract_z
Si Si1 0.059698 0.076331 0.218703
Si Si2 0.697323 0.327772 0.084785
Si Si3 0.799219 0.179480 0.175960
Si Si4 0.750000 0.000000 0.874538
Si Si5 0.588668 0.250000 0.250000
Si Si6 0.750000 0.000000 0.692611
Si Si7 0.250000 0.500000 0.016438
Si Si8 0.604888 0.811922 0.601294
O O1 0.939970 0.189988 0.201544
O O2 0.142050 0.065184 0.165681
O O3 0.155118 0.098009 0.268517
O O4 0.998609 0.899535 0.231970
O O5 0.750000 0.500000 0.104902
O O6 0.793003 0.205887 0.114026
O O7 0.549834 0.288994 0.101013
O O8 0.707350 0.356433 0.022634
O O9 0.691037 0.291348 0.203643
O O10 0.750000 0.000000 0.186823
O O11 0.816451 0.145629 0.905696
O O12 0.838845 0.109812 0.654701
O O13 0.361486 0.434917 0.054616
#
# Coordination Sequence:
#
# PCOD9409754 Si02
#       8
#     8   8   8   4   4   4   4   8
#     4  10  21  38  57  95 129 173 220 258 324 405
#     4  10  23  43  69  92 130 173 217 281 337 397
#     4  10  21  37  61  94 131 172 216 271 334 398
#     4  11  24  39  64  90 138 171 208 281 338 396
#     4  10  20  36  58  84 136 168 208 264 318 390
#     4  10  22  38  66  86 128 176 220 266 312 394
#     4   9  24  45  72  98 124 173 232 285 340 402
#     4  11  22  44  66  98 128 173 226 275 340 403
#
# _framework density 22.017444000000001
#
# number of rings (size 3 to 8) (size 9 to 14) (size 15 to 20)
#    0.500    1.333    0.000    4.500    0.000    9.333 
#    1.500    0.833    0.000    0.000    0.000    0.000 
#    0.000    0.000    0.000    0.000    0.000    0.000 
#
# Total GULP energy -267862.106837 kJ/mol
# GULP energy per Si atom -5580.460559 kJ/mol
# Density = 2.196733 g / cm^3
# Si number density = 22.017444 Si / 1000 Ang^3
#
#
#
# Elastic Constant Matrix: (Units=GPa)
#
#
# Indices 1 2 3 4 5 6 
#
# 1 124.1818 21.9705 52.8289 0.0000 0.0000 0.0000
# 2 21.9705 41.4988 22.1183 0.0000 0.0000 0.0000
# 3 52.8289 22.1183 128.0353 0.0000 0.0000 0.0000
# 4 0.0000 0.0000 0.0000 35.1898 0.0000 0.0000
# 5 0.0000 0.0000 0.0000 0.0000 3.5833 0.0000
# 6 0.0000 0.0000 0.0000 0.0000 0.0000 31.8234
#
#
#
# Elastic Compliance Matrix: (Units=1/GPa)
#
#
# Indices 1 2 3 4 5 6 
#
# 1 0.010204 -0.003478 -0.003609 0.000000 0.000000 0.000000
# 2 -0.003478 0.027727 -0.003355 0.000000 0.000000 0.000000
# 3 -0.003609 -0.003355 0.009879 0.000000 0.000000 0.000000
# 4 0.000000 0.000000 0.000000 0.028417 0.000000 0.000000
# 5 0.000000 0.000000 0.000000 0.000000 0.279071 0.000000
# 6 0.000000 0.000000 0.000000 0.000000 0.000000 0.031423
#
#
# Mechanical properties :
#
#
# Convention : Reuss Voigt Hill
#
# Bulk Modulus (GPa) = 37.14041 54.17237 45.65639
# Shear Modulus (GPa) = 12.00250 27.23918 19.62084
#
# Velocity S-wave (km/s) = 2.33735 3.52115 2.98845
# Velocity P-wave (km/s) = 4.91828 6.41787 5.71745
#
# Compressibility (1/GPa) = 0.02692485
#
# Stress axis : x y z
#
# Youngs Moduli (GPa) = 98.00543 36.06650 101.22412
#
# Poissons Ratio (x) = 0.12545 0.36534
# Poissons Ratio (y) = 0.34089 0.33957
# Poissons Ratio (z) = 0.35372 0.12099
#
# Static dielectric constant tensor:
#      x y z
#    x 1.824020 0.000000 0.000000 
#    y 0.000000 2.165400 0.000000 
#    z 0.000000 0.000000 1.828310 
# 
# From -- ./inp_files/44486.got.cif
#   From: 2010.05.17/outbox.cif.g08.bks.cpg/sg52_23_cif.got.tgz:44486.got - 2010.06.03 12:15:38.
