data_PCOD9409778
_publ_section_title
;
Structure prediction by ZEFSAII (Michael W. Deem and Ramdas Pophale) SiO2 
 PCOD9409778
Probable space group: P N N A
;
_chemical_formula_sum "Si O2"
_cell_formula_units_Z 60
_cell_length_a 25.138909
_cell_length_b 18.004406
_cell_length_c 6.350251
_cell_angle_alpha 90.000000
_cell_angle_beta 90.000000
_cell_angle_gamma 90.000000
_cell_volume 2874.194243
_symmetry_space_group_name_H-M "P N N A"
_symmetry_group_IT_number 52
_symmetry_cell_setting 'orthorhombic'
loop_
_space_group_symop_operation_xyz
x,y,z
1/2-x,-y,z
x,1/2-y,1/2-z
1/2-x,1/2+y,1/2-z
-x,-y,-z
1/2+x,y,-z
-x,1/2+y,1/2+z
1/2+x,1/2-y,1/2+z
loop_
_atom_site_type_symbol
_atom_site_label
_atom_site_fract_x
_atom_site_fract_y
_atom_site_fract_z
Si Si1 0.508985 0.171662 0.356391
Si Si2 0.129586 0.321099 0.905964
Si Si3 0.152873 0.540489 0.016770
Si Si4 0.324671 0.938259 0.861197
Si Si5 0.599507 0.405606 0.736967
Si Si6 0.750000 0.500000 0.687875
Si Si7 0.986738 0.084758 0.045324
Si Si8 0.088040 0.669437 0.836994
O O1 0.517365 0.250000 0.250000
O O2 0.569243 0.145131 0.394185
O O3 0.466185 0.185286 0.535806
O O4 0.483932 0.119200 0.184161
O O5 0.130211 0.250000 0.750000
O O6 0.174961 0.372432 0.807259
O O7 0.131342 0.335106 0.159446
O O8 0.169550 0.510199 0.785936
O O9 0.127818 0.621638 0.982489
O O10 0.112109 0.479491 0.121254
O O11 0.204269 0.535537 0.167459
O O12 0.375498 0.924310 0.009315
O O13 0.277395 0.942662 0.027230
O O14 0.538126 0.388762 0.681852
O O15 0.933421 0.110719 0.162418
O O16 0.000000 0.000000 0.000000
O O17 0.106699 0.750000 0.750000
#
# Coordination Sequence:
#
# PCOD9409778 Si02
#       8
#     8   8   8   8   8   4   8   8
#     4  11  22  39  56  90 140 188 218 249 309 392
#     4  10  21  35  60  92 136 175 215 258 309 390
#     4  10  23  41  67  96 120 164 222 282 337 401
#     4  10  20  40  66  97 120 162 211 278 334 391
#     4  10  20  36  59  92 127 166 221 259 318 377
#     4  10  22  44  74  90 116 156 220 294 356 398
#     4  12  23  35  60  91 131 183 227 262 304 383
#     4  12  25  41  62  93 142 183 217 264 328 404
#
# _framework density 20.875415
#
# number of rings (size 3 to 8) (size 9 to 14) (size 15 to 20)
#    0.000    1.333    4.000    2.000    1.867    2.667 
#    0.000    0.000    0.000   19.200    0.000    0.000 
#    0.000    0.000    0.000    0.000    0.000    0.000 
#
# Total GULP energy -334005.948855 kJ/mol
# GULP energy per Si atom -5566.765814 kJ/mol
# Density = 2.082790 g / cm^3
# Si number density = 20.875415 Si / 1000 Ang^3
#
#
#
# Elastic Constant Matrix: (Units=GPa)
#
#
# Indices 1 2 3 4 5 6 
#
# 1 58.1524 5.5998 -0.0439 0.0000 0.0000 0.0000
# 2 5.5998 83.3191 6.1345 0.0000 0.0000 0.0000
# 3 -0.0439 6.1345 56.8799 0.0000 0.0000 0.0000
# 4 0.0000 0.0000 0.0000 24.3614 0.0000 0.0000
# 5 0.0000 0.0000 0.0000 0.0000 38.7222 0.0000
# 6 0.0000 0.0000 0.0000 0.0000 0.0000 39.6954
#
#
#
# Elastic Compliance Matrix: (Units=1/GPa)
#
#
# Indices 1 2 3 4 5 6 
#
# 1 0.017309 -0.001174 0.000140 0.000000 0.000000 0.000000
# 2 -0.001174 0.012178 -0.001314 0.000000 0.000000 0.000000
# 3 0.000140 -0.001314 0.017723 0.000000 0.000000 0.000000
# 4 0.000000 0.000000 0.000000 0.041049 0.000000 0.000000
# 5 0.000000 0.000000 0.000000 0.000000 0.025825 0.000000
# 6 0.000000 0.000000 0.000000 0.000000 0.000000 0.025192
#
#
# Mechanical properties :
#
#
# Convention : Reuss Voigt Hill
#
# Bulk Modulus (GPa) = 23.52179 24.63692 24.07936
# Shear Modulus (GPa) = 31.61707 32.99986 32.30847
#
# Velocity S-wave (km/s) = 3.89596 3.98024 3.93832
# Velocity P-wave (km/s) = 5.61517 5.74026 5.67806
#
# Compressibility (1/GPa) = 0.04251378
#
# Stress axis : x y z
#
# Youngs Moduli (GPa) = 57.77238 82.11733 56.42463
#
# Poissons Ratio (x) = 0.09638 -0.00790
# Poissons Ratio (y) = 0.06780 0.07416
# Poissons Ratio (z) = -0.00808 0.10792
#
# Static dielectric constant tensor:
#      x y z
#    x 1.764690 0.000000 0.000000 
#    y 0.000000 1.813770 0.000000 
#    z 0.000000 0.000000 1.882970 
# 
# From -- ./inp_files/5949.got.cif
#   From: 2010.05.17/outbox.cif.g08.bks.cpg/sg52_3_cif.got.tgz:5949.got - 2010.06.03 12:15:38.
