data_PCOD9409072
_publ_section_title
;
Structure prediction by ZEFSAII (Michael W. Deem and Ramdas Pophale) SiO2 
 PCOD9409072
Probable space group: P N N A
;
_chemical_formula_sum "Si O2"
_cell_formula_units_Z 56
_cell_length_a 13.780244
_cell_length_b 12.027271
_cell_length_c 13.790958
_cell_angle_alpha 90.000000
_cell_angle_beta 90.000000
_cell_angle_gamma 90.000000
_cell_volume 2285.695851
_symmetry_space_group_name_H-M "P N N A"
_symmetry_group_IT_number 52
_symmetry_cell_setting 'orthorhombic'
loop_
_space_group_symop_operation_xyz
x,y,z
1/2-x,-y,z
x,1/2-y,1/2-z
1/2-x,1/2+y,1/2-z
-x,-y,-z
1/2+x,y,-z
-x,1/2+y,1/2+z
1/2+x,1/2-y,1/2+z
loop_
_atom_site_type_symbol
_atom_site_label
_atom_site_fract_x
_atom_site_fract_y
_atom_site_fract_z
Si Si1 0.212607 0.148337 0.113574
Si Si2 0.952063 0.975402 0.349199
Si Si3 0.801060 0.683953 0.167240
Si Si4 0.228121 0.872564 0.455150
Si Si5 0.587287 0.533845 0.677086
Si Si6 0.019758 0.662599 0.981079
Si Si7 0.920514 0.635757 0.443681
O O1 0.214636 0.281320 0.106831
O O2 0.320525 0.108214 0.143677
O O3 0.134882 0.088114 0.181403
O O4 0.174103 0.104292 0.007260
O O5 0.854112 0.929887 0.300758
O O6 0.039493 0.940338 0.280063
O O7 0.947654 0.914923 0.454986
O O8 0.962733 0.103017 0.379216
O O9 0.743245 0.750000 0.250000
O O10 0.882753 0.777140 0.138037
O O11 0.748659 0.653563 0.068282
O O12 0.115401 0.843961 0.453550
O O13 0.250000 0.000000 0.431218
O O14 0.496628 0.550551 0.603203
O O15 0.981306 0.786389 0.982358
#
# Coordination Sequence:
#
# PCOD9409072 Si02
#       7
#     8   8   8   8   8   8   8
#     4  10  24  40  62 104 134 183 238 283 346 427
#     4  10  21  38  65  98 126 182 228 284 346 413
#     4  10  19  35  63  94 123 167 237 286 338 415
#     4  11  21  40  67  96 134 182 234 289 348 413
#     4  11  21  43  67  96 141 180 237 283 348 427
#     4  10  21  40  66  96 135 177 230 284 360 407
#     4  10  20  39  69  92 135 183 225 291 351 421
#
# _framework density 24.500195000000001
#
# number of rings (size 3 to 8) (size 9 to 14) (size 15 to 20)
#    0.000    1.714    4.286    0.429    2.000    0.000 
#    2.571    3.571   18.857    0.000    0.000    0.000 
#    0.000    0.000    0.000    0.000    0.000    0.000 
#
# Total GULP energy -312355.554733 kJ/mol
# GULP energy per Si atom -5577.777763 kJ/mol
# Density = 2.444443 g / cm^3
# Si number density = 24.500195 Si / 1000 Ang^3
#
#
#
# Elastic Constant Matrix: (Units=GPa)
#
#
# Indices 1 2 3 4 5 6 
#
# 1 96.1048 29.1454 29.2821 0.0000 0.0000 0.0000
# 2 29.1454 119.0852 40.0455 0.0000 0.0000 0.0000
# 3 29.2821 40.0455 82.3666 0.0000 0.0000 0.0000
# 4 0.0000 0.0000 0.0000 31.6688 0.0000 0.0000
# 5 0.0000 0.0000 0.0000 0.0000 35.1973 0.0000
# 6 0.0000 0.0000 0.0000 0.0000 0.0000 29.6517
#
#
#
# Elastic Compliance Matrix: (Units=1/GPa)
#
#
# Indices 1 2 3 4 5 6 
#
# 1 0.011981 -0.001793 -0.003388 0.000000 0.000000 0.000000
# 2 -0.001793 0.010307 -0.004374 0.000000 0.000000 0.000000
# 3 -0.003388 -0.004374 0.015472 0.000000 0.000000 0.000000
# 4 0.000000 0.000000 0.000000 0.031577 0.000000 0.000000
# 5 0.000000 0.000000 0.000000 0.000000 0.028411 0.000000
# 6 0.000000 0.000000 0.000000 0.000000 0.000000 0.033725
#
#
# Mechanical properties :
#
#
# Convention : Reuss Voigt Hill
#
# Bulk Modulus (GPa) = 53.61651 54.94474 54.28062
# Shear Modulus (GPa) = 31.88802 32.57579 32.23190
#
# Velocity S-wave (km/s) = 3.61160 3.65034 3.63102
# Velocity P-wave (km/s) = 6.27082 6.34363 6.30733
#
# Compressibility (1/GPa) = 0.01865097
#
# Stress axis : x y z
#
# Youngs Moduli (GPa) = 83.46343 97.02181 64.63466
#
# Poissons Ratio (x) = 0.17398 0.21896
# Poissons Ratio (y) = 0.14966 0.28269
# Poissons Ratio (z) = 0.28274 0.42434
#
# Static dielectric constant tensor:
#      x y z
#    x 2.009330 0.000000 0.000000 
#    y 0.000000 2.008910 0.000000 
#    z 0.000000 0.000000 2.024410 
# 
# From -- ./inp_files/27274.got.cif
#   From: 2010.05.17/outbox.cif.g08.bks.cpg/sg52_14_cif.got.tgz:27274.got - 2010.06.03 12:15:38.
