data_PCOD9409718
_publ_section_title
;
Structure prediction by ZEFSAII (Michael W. Deem and Ramdas Pophale) SiO2 
 PCOD9409718
Probable space group: P N N A
;
_chemical_formula_sum "Si O2"
_cell_formula_units_Z 60
_cell_length_a 9.514128
_cell_length_b 26.250069
_cell_length_c 11.214988
_cell_angle_alpha 90.000000
_cell_angle_beta 90.000000
_cell_angle_gamma 90.000000
_cell_volume 2800.904185
_symmetry_space_group_name_H-M "P N N A"
_symmetry_group_IT_number 52
_symmetry_cell_setting 'orthorhombic'
loop_
_space_group_symop_operation_xyz
x,y,z
1/2-x,-y,z
x,1/2-y,1/2-z
1/2-x,1/2+y,1/2-z
-x,-y,-z
1/2+x,y,-z
-x,1/2+y,1/2+z
1/2+x,1/2-y,1/2+z
loop_
_atom_site_type_symbol
_atom_site_label
_atom_site_fract_x
_atom_site_fract_y
_atom_site_fract_z
Si Si1 0.464178 0.353152 0.751207
Si Si2 0.147360 0.250000 0.250000
Si Si3 0.306524 0.612315 0.403389
Si Si4 0.304733 0.685260 0.627791
Si Si5 0.716515 0.781003 0.506639
Si Si6 0.621092 0.029625 0.074712
Si Si7 0.466202 0.649280 0.991637
Si Si8 0.473564 0.118367 0.231367
O O1 0.550205 0.299926 0.741932
O O2 0.538302 0.387294 0.652022
O O3 0.306223 0.340623 0.716865
O O4 0.490276 0.374910 0.882497
O O5 0.240268 0.242960 0.367494
O O6 0.292880 0.656571 0.501107
O O7 0.291156 0.560778 0.475454
O O8 0.189594 0.618511 0.302944
O O9 0.260832 0.742801 0.598818
O O10 0.455988 0.670387 0.679641
O O11 0.555063 0.797466 0.507078
O O12 0.805434 0.832940 0.494143
O O13 0.547835 0.071329 0.162009
O O14 0.750000 0.000000 0.138631
O O15 0.500000 0.000000 0.000000
O O16 0.502482 0.619156 0.872525
#
# Coordination Sequence:
#
# PCOD9409718 Si02
#       8
#     8   4   8   8   8   8   8   8
#     4  11  22  39  58  85 128 173 218 262 312 377
#     4  10  20  36  56  80 126 174 218 268 316 364
#     4  11  23  39  66  95 125 163 203 268 336 379
#     4  11  22  36  60  92 120 167 228 273 310 355
#     4  11  23  37  56  86 127 176 226 268 307 362
#     4  11  23  45  73 104 124 148 200 273 342 392
#     4  11  25  39  56  86 126 184 216 259 314 376
#     4  11  24  40  63  94 128 161 211 262 323 398
#
# _framework density 21.421652999999999
#
# number of rings (size 3 to 8) (size 9 to 14) (size 15 to 20)
#    0.000    1.067    2.667    5.600    3.733    1.600 
#    0.000    0.000    0.000    1.600    0.000    0.000 
#    0.000    0.000    0.000    0.000    0.000    0.000 
#
# Total GULP energy -335448.550339 kJ/mol
# GULP energy per Si atom -5590.809172 kJ/mol
# Density = 2.137290 g / cm^3
# Si number density = 21.421653 Si / 1000 Ang^3
#
#
#
# Elastic Constant Matrix: (Units=GPa)
#
#
# Indices 1 2 3 4 5 6 
#
# 1 66.3514 0.9827 3.8542 0.0000 0.0000 0.0000
# 2 0.9827 33.3504 10.2922 0.0000 0.0000 0.0000
# 3 3.8542 10.2922 118.5475 0.0000 0.0000 0.0000
# 4 0.0000 0.0000 0.0000 20.5117 0.0000 0.0000
# 5 0.0000 0.0000 0.0000 0.0000 34.5101 0.0000
# 6 0.0000 0.0000 0.0000 0.0000 0.0000 23.4325
#
#
#
# Elastic Compliance Matrix: (Units=1/GPa)
#
#
# Indices 1 2 3 4 5 6 
#
# 1 0.015103 -0.000302 -0.000465 0.000000 0.000000 0.000000
# 2 -0.000302 0.030816 -0.002666 0.000000 0.000000 0.000000
# 3 -0.000465 -0.002666 0.008682 0.000000 0.000000 0.000000
# 4 0.000000 0.000000 0.000000 0.048753 0.000000 0.000000
# 5 0.000000 0.000000 0.000000 0.000000 0.028977 0.000000
# 6 0.000000 0.000000 0.000000 0.000000 0.000000 0.042676
#
#
# Mechanical properties :
#
#
# Convention : Reuss Voigt Hill
#
# Bulk Modulus (GPa) = 20.94821 27.61196 24.28008
# Shear Modulus (GPa) = 25.28027 29.23221 27.25624
#
# Velocity S-wave (km/s) = 3.43902 3.69807 3.57090
# Velocity P-wave (km/s) = 5.05662 5.58140 5.32548
#
# Compressibility (1/GPa) = 0.04773678
#
# Stress axis : x y z
#
# Youngs Moduli (GPa) = 66.21315 32.45053 115.18118
#
# Poissons Ratio (x) = 0.00979 0.05354
# Poissons Ratio (y) = 0.01997 0.30703
# Poissons Ratio (z) = 0.03078 0.08650
#
# Static dielectric constant tensor:
#      x y z
#    x 1.761370 0.000000 0.000000 
#    y 0.000000 1.828740 0.000000 
#    z 0.000000 0.000000 1.787570 
# 
# From -- ./inp_files/17134.got.cif
#   From: 2010.05.17/outbox.cif.g08.bks.cpg/sg52_9_cif.got.tgz:17134.got - 2010.06.03 12:15:38.
