data_PCOD9409907
_publ_section_title
;
Structure prediction by ZEFSAII (Michael W. Deem and Ramdas Pophale) SiO2 
 PCOD9409907
Probable space group: P N N A
;
_chemical_formula_sum "Si O2"
_cell_formula_units_Z 64
_cell_length_a 18.781263
_cell_length_b 21.055735
_cell_length_c 8.762624
_cell_angle_alpha 90.000000
_cell_angle_beta 90.000000
_cell_angle_gamma 90.000000
_cell_volume 3465.208548
_symmetry_space_group_name_H-M "P N N A"
_symmetry_group_IT_number 52
_symmetry_cell_setting 'orthorhombic'
loop_
_space_group_symop_operation_xyz
x,y,z
1/2-x,-y,z
x,1/2-y,1/2-z
1/2-x,1/2+y,1/2-z
-x,-y,-z
1/2+x,y,-z
-x,1/2+y,1/2+z
1/2+x,1/2-y,1/2+z
loop_
_atom_site_type_symbol
_atom_site_label
_atom_site_fract_x
_atom_site_fract_y
_atom_site_fract_z
Si Si1 0.044380 0.062700 0.317131
Si Si2 0.040400 0.681282 0.316824
Si Si3 0.705987 0.682001 0.316506
Si Si4 0.205987 0.682001 0.316506
Si Si5 0.540400 0.818718 0.183176
Si Si6 0.455620 0.562700 0.817131
Si Si7 0.201960 0.439219 0.315587
Si Si8 0.701960 0.439219 0.315588
O O1 0.043586 0.067192 0.500000
O O2 0.124669 0.057049 0.257941
O O3 0.007409 0.124908 0.247536
O O4 0.000000 1.000000 0.271620
O O5 0.019941 0.750000 0.250000
O O6 0.123428 0.670102 0.273101
O O7 0.035812 0.682863 0.500000
O O8 0.992591 0.624908 0.252464
O O9 0.727583 0.750000 0.250000
O O10 0.708121 0.685370 0.500000
O O11 0.623428 0.670102 0.273101
O O12 0.756455 0.624532 0.267775
O O13 0.227583 0.750000 0.250000
O O14 0.256455 0.624532 0.267775
O O15 0.519941 0.750000 0.250000
O O16 0.375331 0.557049 0.757941
O O17 0.250000 0.500000 0.275852
O O18 0.194473 0.438256 0.500000
O O19 0.750000 0.500000 0.275852
#
# Coordination Sequence:
#
# PCOD9409907 Si02
#       8
#     8   8   8   8   8   8   8   8
#     4  11  24  39  56  82 115 150 190 235 282 333
#     4  10  20  37  61  86 114 148 186 229 279 334
#     4   9  19  35  57  84 111 142 180 224 274 330
#     4   9  19  35  57  84 111 142 180 224 274 330
#     4  10  20  37  61  86 114 148 186 229 279 334
#     4  11  24  39  56  82 115 150 190 235 282 333
#     4  10  21  38  59  82 109 144 188 234 281 334
#     4  10  21  38  59  82 109 144 188 234 281 334
#
# _framework density 18.469306
#
# number of rings (size 3 to 8) (size 9 to 14) (size 15 to 20)
#    0.000    2.000    0.000    3.000    0.000    7.500 
#    0.000    2.500    0.000    0.000    0.000    0.000 
#    0.000    0.000    0.000    0.000    0.000    0.000 
#
# Total GULP energy -357584.376361 kJ/mol
# GULP energy per Si atom -5587.255881 kJ/mol
# Density = 1.842727 g / cm^3
# Si number density = 18.469306 Si / 1000 Ang^3
#
#
#
# Elastic Constant Matrix: (Units=GPa)
#
#
# Indices 1 2 3 4 5 6 
#
# 1 149.4430 132.7114 51.0465 0.0000 0.0000 0.0000
# 2 132.7114 200.2094 60.1039 0.0000 0.0000 0.0000
# 3 51.0465 60.1039 38.5464 0.0000 0.0000 0.0000
# 4 0.0000 0.0000 0.0000 29.7909 0.0000 0.0000
# 5 0.0000 0.0000 0.0000 0.0000 32.9418 0.0000
# 6 0.0000 0.0000 0.0000 0.0000 0.0000 41.9871
#
#
#
# Elastic Compliance Matrix: (Units=1/GPa)
#
#
# Indices 1 2 3 4 5 6 
#
# 1 0.018067 -0.009012 -0.009875 0.000000 0.000000 0.000000
# 2 -0.009012 0.013885 -0.009717 0.000000 0.000000 0.000000
# 3 -0.009875 -0.009717 0.054170 0.000000 0.000000 0.000000
# 4 0.000000 0.000000 0.000000 0.033567 0.000000 0.000000
# 5 0.000000 0.000000 0.000000 0.000000 0.030357 0.000000
# 6 0.000000 0.000000 0.000000 0.000000 0.000000 0.023817
#
#
# Mechanical properties :
#
#
# Convention : Reuss Voigt Hill
#
# Bulk Modulus (GPa) = 34.58180 97.32469 65.95324
# Shear Modulus (GPa) = 20.77201 30.56645 25.66923
#
# Velocity S-wave (km/s) = 3.35726 4.07257 3.73209
# Velocity P-wave (km/s) = 5.81316 8.65587 7.37282
#
# Compressibility (1/GPa) = 0.02891695
#
# Stress axis : x y z
#
# Youngs Moduli (GPa) = 55.34905 72.01875 18.46024
#
# Poissons Ratio (x) = 0.64901 0.18229
# Poissons Ratio (y) = 0.49879 0.17937
# Poissons Ratio (z) = 0.54655 0.69979
#
# Static dielectric constant tensor:
#      x y z
#    x 1.609570 0.000000 0.000000 
#    y 0.000000 1.609690 0.000000 
#    z 0.000000 0.000000 1.621220 
# 
# From -- ./inp_files/13607.got.cif
#   From: 2010.05.17/outbox.cif.g08.bks.cpg/sg52_7_cif.got.tgz:13607.got - 2010.06.03 12:15:38.
