data_PCOD9409764
_publ_section_title
;
Structure prediction by ZEFSAII (Michael W. Deem and Ramdas Pophale) SiO2 
 PCOD9409764
Probable space group: P N N A
;
_chemical_formula_sum "Si O2"
_cell_formula_units_Z 40
_cell_length_a 22.611557
_cell_length_b 8.381173
_cell_length_c 11.142259
_cell_angle_alpha 90.000000
_cell_angle_beta 90.000000
_cell_angle_gamma 90.000000
_cell_volume 2111.584779
_symmetry_space_group_name_H-M "P N N A"
_symmetry_group_IT_number 52
_symmetry_cell_setting 'orthorhombic'
loop_
_space_group_symop_operation_xyz
x,y,z
1/2-x,-y,z
x,1/2-y,1/2-z
1/2-x,1/2+y,1/2-z
-x,-y,-z
1/2+x,y,-z
-x,1/2+y,1/2+z
1/2+x,1/2-y,1/2+z
loop_
_atom_site_type_symbol
_atom_site_label
_atom_site_fract_x
_atom_site_fract_y
_atom_site_fract_z
Si Si1 0.921954 0.939168 0.481278
Si Si2 0.555856 0.081654 0.932553
Si Si3 0.184997 0.561817 0.105191
Si Si4 0.988008 0.072529 0.698639
Si Si5 0.181875 0.557793 0.387053
O O1 0.940270 0.763599 0.525424
O O2 0.945760 0.962766 0.347202
O O3 0.854486 0.970932 0.508685
O O4 0.952058 0.061788 0.574773
O O5 0.538122 0.050085 0.794193
O O6 0.622738 0.012483 0.950348
O O7 0.500000 0.000000 0.000000
O O8 0.250000 0.500000 0.086919
O O9 0.170983 0.522372 0.244986
O O10 0.180782 0.752144 0.094957
O O11 0.983309 0.250000 0.750000
O O12 0.250000 0.500000 0.414409
#
# Coordination Sequence:
#
# PCOD9409764 Si02
#       5
#     8   8   8   8   8
#     4  11  23  36  61  86 121 161 197 247 306 354
#     4  12  23  37  61  89 125 160 196 248 298 357
#     4  10  20  36  59  84 118 157 198 247 300 358
#     4  11  22  39  55  86 122 157 199 244 298 357
#     4  10  21  36  57  85 123 156 195 248 301 357
#
# _framework density 18.943118999999999
#
# number of rings (size 3 to 8) (size 9 to 14) (size 15 to 20)
#    0.000    1.200    4.000    3.000    2.800    1.600 
#    0.000    0.000    0.000    1.200    0.000    0.000 
#    0.000    0.000    0.000    0.000    0.000    0.000 
#
# Total GULP energy -223010.953310 kJ/mol
# GULP energy per Si atom -5575.273833 kJ/mol
# Density = 1.890000 g / cm^3
# Si number density = 18.943119 Si / 1000 Ang^3
#
#
#
# Elastic Constant Matrix: (Units=GPa)
#
#
# Indices 1 2 3 4 5 6 
#
# 1 151.6613 60.1532 35.9346 0.0000 0.0000 0.0000
# 2 60.1532 71.6845 25.9933 0.0000 0.0000 0.0000
# 3 35.9346 25.9933 33.7436 0.0000 0.0000 0.0000
# 4 0.0000 0.0000 0.0000 20.7243 0.0000 0.0000
# 5 0.0000 0.0000 0.0000 0.0000 34.6202 0.0000
# 6 0.0000 0.0000 0.0000 0.0000 0.0000 37.8046
#
#
#
# Elastic Compliance Matrix: (Units=1/GPa)
#
#
# Indices 1 2 3 4 5 6 
#
# 1 0.010755 -0.006760 -0.006246 0.000000 0.000000 0.000000
# 2 -0.006760 0.023606 -0.010985 0.000000 0.000000 0.000000
# 3 -0.006246 -0.010985 0.044749 0.000000 0.000000 0.000000
# 4 0.000000 0.000000 0.000000 0.048252 0.000000 0.000000
# 5 0.000000 0.000000 0.000000 0.000000 0.028885 0.000000
# 6 0.000000 0.000000 0.000000 0.000000 0.000000 0.026452
#
#
# Mechanical properties :
#
#
# Convention : Reuss Voigt Hill
#
# Bulk Modulus (GPa) = 32.12590 55.69463 43.91026
# Shear Modulus (GPa) = 20.74211 27.63038 24.18625
#
# Velocity S-wave (km/s) = 3.31262 3.82330 3.57709
# Velocity P-wave (km/s) = 5.62381 6.99678 6.34753
#
# Compressibility (1/GPa) = 0.03112753
#
# Stress axis : x y z
#
# Youngs Moduli (GPa) = 92.98283 42.36249 22.34707
#
# Poissons Ratio (x) = 0.28637 0.13957
# Poissons Ratio (y) = 0.62856 0.24549
# Poissons Ratio (z) = 0.58074 0.46536
#
# Static dielectric constant tensor:
#      x y z
#    x 1.781810 0.000000 0.000000 
#    y 0.000000 1.641820 0.000000 
#    z 0.000000 0.000000 1.693950 
# 
# From -- ./inp_files/21449.got.cif
#   From: 2010.05.17/outbox.cif.g08.bks.cpg/sg52_11_cif.got.tgz:21449.got - 2010.06.03 12:15:38.
