data_PCOD9409609
_publ_section_title
;
Structure prediction by ZEFSAII (Michael W. Deem and Ramdas Pophale) SiO2 
 PCOD9409609
Probable space group: P N N A
;
_chemical_formula_sum "Si O2"
_cell_formula_units_Z 36
_cell_length_a 9.986413
_cell_length_b 5.417658
_cell_length_c 29.345927
_cell_angle_alpha 90.000000
_cell_angle_beta 90.000000
_cell_angle_gamma 90.000000
_cell_volume 1587.701816
_symmetry_space_group_name_H-M "P N N A"
_symmetry_group_IT_number 52
_symmetry_cell_setting 'orthorhombic'
loop_
_space_group_symop_operation_xyz
x,y,z
1/2-x,-y,z
x,1/2-y,1/2-z
1/2-x,1/2+y,1/2-z
-x,-y,-z
1/2+x,y,-z
-x,1/2+y,1/2+z
1/2+x,1/2-y,1/2+z
loop_
_atom_site_type_symbol
_atom_site_label
_atom_site_fract_x
_atom_site_fract_y
_atom_site_fract_z
Si Si1 0.163863 0.754236 0.059538
Si Si2 0.250000 0.500000 0.596958
Si Si3 0.411964 0.001011 0.723207
Si Si4 0.032874 0.149110 0.625789
Si Si5 0.609209 0.850201 0.461681
O O1 0.250000 0.500000 0.064396
O O2 0.091029 0.809622 0.107719
O O3 0.250000 0.000000 0.048128
O O4 0.071600 0.704131 0.013889
O O5 0.173294 0.298911 0.626821
O O6 0.360824 0.410118 0.561678
O O7 0.448432 0.250000 0.750000
O O8 0.250000 0.000000 0.718519
O O9 0.447825 0.750000 0.750000
O O10 0.477489 0.987218 0.673306
O O11 0.038499 0.972628 0.581815
O O12 0.750000 0.000000 0.465291
#
# Coordination Sequence:
#
# PCOD9409609 Si02
#       5
#     8   4   8   8   8
#     4  11  25  43  61  93 134 181 223 260 309 380
#     4  10  20  34  64  92 130 164 216 264 330 376
#     4  10  23  40  63  94 129 155 199 266 335 392
#     4  11  24  38  67  93 130 172 216 269 328 391
#     4   9  19  37  57  92 130 172 217 263 318 380
#
# _framework density 22.674282000000002
#
# number of rings (size 3 to 8) (size 9 to 14) (size 15 to 20)
#    0.000    1.778    1.111    2.667   10.889    0.889 
#    0.000    0.000    0.000    2.667    0.000    0.000 
#    0.000    0.000    0.000    0.000    0.000    0.000 
#
# Total GULP energy -200602.410265 kJ/mol
# GULP energy per Si atom -5572.289174 kJ/mol
# Density = 2.262267 g / cm^3
# Si number density = 22.674282 Si / 1000 Ang^3
#
#
#
# Elastic Constant Matrix: (Units=GPa)
#
#
# Indices 1 2 3 4 5 6 
#
# 1 28.0584 17.1140 39.8646 0.0000 0.0000 0.0000
# 2 17.1140 122.6934 73.0572 0.0000 0.0000 0.0000
# 3 39.8646 73.0572 194.9739 0.0000 0.0000 0.0000
# 4 0.0000 0.0000 0.0000 35.4387 0.0000 0.0000
# 5 0.0000 0.0000 0.0000 0.0000 18.3189 0.0000
# 6 0.0000 0.0000 0.0000 0.0000 0.0000 15.2078
#
#
#
# Elastic Compliance Matrix: (Units=1/GPa)
#
#
# Indices 1 2 3 4 5 6 
#
# 1 0.050358 -0.001150 -0.009865 0.000000 0.000000 0.000000
# 2 -0.001150 0.010517 -0.003706 0.000000 0.000000 0.000000
# 3 -0.009865 -0.003706 0.008535 0.000000 0.000000 0.000000
# 4 0.000000 0.000000 0.000000 0.028218 0.000000 0.000000
# 5 0.000000 0.000000 0.000000 0.000000 0.054588 0.000000
# 6 0.000000 0.000000 0.000000 0.000000 0.000000 0.065756
#
#
# Mechanical properties :
#
#
# Convention : Reuss Voigt Hill
#
# Bulk Modulus (GPa) = 25.02027 67.31081 46.16554
# Shear Modulus (GPa) = 19.17647 28.17240 23.67444
#
# Velocity S-wave (km/s) = 2.91131 3.52871 3.23477
# Velocity P-wave (km/s) = 4.72859 6.80829 5.86142
#
# Compressibility (1/GPa) = 0.03996759
#
# Stress axis : x y z
#
# Youngs Moduli (GPa) = 19.85792 95.08075 117.17110
#
# Poissons Ratio (x) = 0.10934 1.15593
# Poissons Ratio (y) = 0.02284 0.43421
# Poissons Ratio (z) = 0.19590 0.35235
#
# Static dielectric constant tensor:
#      x y z
#    x 2.678610 0.000000 0.000000 
#    y 0.000000 2.217980 0.000000 
#    z 0.000000 0.000000 1.792480 
# 
# From -- ./inp_files/39934.got.cif
#   From: 2010.05.17/outbox.cif.g08.bks.cpg/sg52_20_cif.got.tgz:39934.got - 2010.06.03 12:15:38.
