data_PCOD9409542
_publ_section_title
;
Structure prediction by ZEFSAII (Michael W. Deem and Ramdas Pophale) SiO2 
 PCOD9409542
Probable space group: P N N A
;
_chemical_formula_sum "Si O2"
_cell_formula_units_Z 36
_cell_length_a 21.261275
_cell_length_b 7.950068
_cell_length_c 10.347117
_cell_angle_alpha 90.000000
_cell_angle_beta 90.000000
_cell_angle_gamma 90.000000
_cell_volume 1748.958514
_symmetry_space_group_name_H-M "P N N A"
_symmetry_group_IT_number 52
_symmetry_cell_setting 'orthorhombic'
loop_
_space_group_symop_operation_xyz
x,y,z
1/2-x,-y,z
x,1/2-y,1/2-z
1/2-x,1/2+y,1/2-z
-x,-y,-z
1/2+x,y,-z
-x,1/2+y,1/2+z
1/2+x,1/2-y,1/2+z
loop_
_atom_site_type_symbol
_atom_site_label
_atom_site_fract_x
_atom_site_fract_y
_atom_site_fract_z
Si Si1 0.320921 0.544952 0.905590
Si Si2 0.319593 0.550889 0.609597
Si Si3 0.438021 0.969681 0.413321
Si Si4 0.004107 0.750000 0.250000
Si Si5 0.560123 0.116047 0.001216
O O1 0.250000 0.500000 0.946558
O O2 0.329660 0.485580 0.756490
O O3 0.321907 0.746900 0.896150
O O4 0.375436 0.486300 0.003439
O O5 0.250000 0.500000 0.568468
O O6 0.377500 0.504709 0.517602
O O7 0.434855 0.766645 0.398115
O O8 0.500000 0.000000 0.500000
O O9 0.452141 0.091793 0.292129
O O10 0.955653 0.790281 0.135774
O O11 0.500000 0.000000 0.000000
#
# Coordination Sequence:
#
# PCOD9409542 Si02
#       5
#     8   8   8   4   8
#     4   9  17  31  52  77 105 138 172 215 270 322
#     4   9  17  30  49  78 110 133 167 219 271 322
#     4   9  18  33  53  76 105 141 179 221 268 324
#     4  10  20  36  54  74 108 142 178 224 270 322
#     4  10  20  34  54  80 108 140 178 223 273 327
#
# _framework density 20.583680000000001
#
# number of rings (size 3 to 8) (size 9 to 14) (size 15 to 20)
#    0.000    2.667    0.000    4.000    0.000    4.444 
#    0.000    4.444    0.000    6.667    0.000    0.000 
#    0.000    0.000    0.000    0.000    0.000    0.000 
#
# Total GULP energy -200461.954421 kJ/mol
# GULP energy per Si atom -5568.387623 kJ/mol
# Density = 2.053683 g / cm^3
# Si number density = 20.583680 Si / 1000 Ang^3
#
#
#
# Elastic Constant Matrix: (Units=GPa)
#
#
# Indices 1 2 3 4 5 6 
#
# 1 205.6580 45.9149 37.2476 0.0000 0.0000 0.0000
# 2 45.9149 59.3488 27.1697 0.0000 0.0000 0.0000
# 3 37.2476 27.1697 58.9965 0.0000 0.0000 0.0000
# 4 0.0000 0.0000 0.0000 30.4443 0.0000 0.0000
# 5 0.0000 0.0000 0.0000 0.0000 39.2842 0.0000
# 6 0.0000 0.0000 0.0000 0.0000 0.0000 35.1523
#
#
#
# Elastic Compliance Matrix: (Units=1/GPa)
#
#
# Indices 1 2 3 4 5 6 
#
# 1 0.006080 -0.003733 -0.002119 0.000000 0.000000 0.000000
# 2 -0.003733 0.023644 -0.008531 0.000000 0.000000 0.000000
# 3 -0.002119 -0.008531 0.022217 0.000000 0.000000 0.000000
# 4 0.000000 0.000000 0.000000 0.032847 0.000000 0.000000
# 5 0.000000 0.000000 0.000000 0.000000 0.025456 0.000000
# 6 0.000000 0.000000 0.000000 0.000000 0.000000 0.028448
#
#
# Mechanical properties :
#
#
# Convention : Reuss Voigt Hill
#
# Bulk Modulus (GPa) = 43.15490 60.51864 51.83677
# Shear Modulus (GPa) = 28.54163 35.22089 31.88126
#
# Velocity S-wave (km/s) = 3.72777 4.14104 3.93983
# Velocity P-wave (km/s) = 6.28804 7.23391 6.77749
#
# Compressibility (1/GPa) = 0.02317234
#
# Stress axis : x y z
#
# Youngs Moduli (GPa) = 164.47993 42.29473 45.01044
#
# Poissons Ratio (x) = 0.15791 0.09538
# Poissons Ratio (y) = 0.61408 0.38401
# Poissons Ratio (z) = 0.34855 0.36084
#
# Static dielectric constant tensor:
#      x y z
#    x 1.809620 0.000000 0.000000 
#    y 0.000000 2.249500 0.000000 
#    z 0.000000 0.000000 1.822930 
# 
# From -- ./inp_files/12963.got.cif
#   From: 2010.05.17/outbox.cif.g08.bks.cpg/sg52_7_cif.got.tgz:12963.got - 2010.06.03 12:15:38.
