data_PCOD9409441
_publ_section_title
;
Structure prediction by ZEFSAII (Michael W. Deem and Ramdas Pophale) SiO2 
 PCOD9409441
Probable space group: P N N A
;
_chemical_formula_sum "Si O2"
_cell_formula_units_Z 32
_cell_length_a 14.706357
_cell_length_b 5.125452
_cell_length_c 18.843670
_cell_angle_alpha 90.000000
_cell_angle_beta 90.000000
_cell_angle_gamma 90.000000
_cell_volume 1420.374167
_symmetry_space_group_name_H-M "P N N A"
_symmetry_group_IT_number 52
_symmetry_cell_setting 'orthorhombic'
loop_
_space_group_symop_operation_xyz
x,y,z
1/2-x,-y,z
x,1/2-y,1/2-z
1/2-x,1/2+y,1/2-z
-x,-y,-z
1/2+x,y,-z
-x,1/2+y,1/2+z
1/2+x,1/2-y,1/2+z
loop_
_atom_site_type_symbol
_atom_site_label
_atom_site_fract_x
_atom_site_fract_y
_atom_site_fract_z
Si Si1 0.826445 0.183519 0.172114
Si Si2 0.647393 0.477347 0.039455
Si Si3 0.529002 0.742163 0.922372
Si Si4 0.032166 0.212776 0.170997
O O1 0.791015 0.250000 0.250000
O O2 0.840462 0.420714 0.119351
O O3 0.929996 0.093117 0.183713
O O4 0.750000 0.000000 0.138522
O O5 0.750000 0.500000 0.009727
O O6 0.576446 0.236823 0.050095
O O7 0.588065 0.668232 0.990626
O O8 0.532710 0.489876 0.869642
O O9 0.568832 0.992357 0.882015
O O10 0.071685 0.250000 0.250000
#
# Coordination Sequence:
#
# PCOD9409441 Si02
#       4
#     8   8   8   8
#     4  10  20  32  53  85 122 156 190 230 286 359
#     4  10  21  36  58  86 121 159 196 243 295 351
#     4  10  22  38  59  89 119 154 200 242 293 357
#     4  10  21  38  60  84 116 156 196 245 298 347
#
# _framework density 22.529275999999999
#
# number of rings (size 3 to 8) (size 9 to 14) (size 15 to 20)
#    0.000    2.000    0.000    3.000    0.000   15.000 
#    0.000    0.000    0.000    3.000    0.000    0.000 
#    0.000    2.000    0.000    0.000    0.000    0.000 
#
# Total GULP energy -178280.502209 kJ/mol
# GULP energy per Si atom -5571.265694 kJ/mol
# Density = 2.247800 g / cm^3
# Si number density = 22.529276 Si / 1000 Ang^3
#
#
#
# Elastic Constant Matrix: (Units=GPa)
#
#
# Indices 1 2 3 4 5 6 
#
# 1 84.2849 -6.3800 19.4629 0.0000 0.0000 0.0000
# 2 -6.3800 86.9004 34.1348 0.0000 0.0000 0.0000
# 3 19.4629 34.1348 115.0484 0.0000 0.0000 0.0000
# 4 0.0000 0.0000 0.0000 37.5227 0.0000 0.0000
# 5 0.0000 0.0000 0.0000 0.0000 -26.6759 0.0000
# 6 0.0000 0.0000 0.0000 0.0000 0.0000 7.5318
#
#
#
# Elastic Compliance Matrix: (Units=1/GPa)
#
#
# Indices 1 2 3 4 5 6 
#
# 1 0.012647 0.002002 -0.002734 0.000000 0.000000 0.000000
# 2 0.002002 0.013342 -0.004297 0.000000 0.000000 0.000000
# 3 -0.002734 -0.004297 0.010429 0.000000 0.000000 0.000000
# 4 0.000000 0.000000 0.000000 0.026651 0.000000 0.000000
# 5 0.000000 0.000000 0.000000 0.000000 -0.037487 0.000000
# 6 0.000000 0.000000 0.000000 0.000000 0.000000 0.132771
#
#
# Mechanical properties :
#
#
# Convention : Reuss Voigt Hill
#
# Bulk Modulus (GPa) = 37.93373 42.29657 40.11515
# Shear Modulus (GPa) = 28.21700 19.61012 23.91356
#
# Velocity S-wave (km/s) = 3.54285 2.95350 3.26152
# Velocity P-wave (km/s) = 5.79739 5.51776 5.65931
#
# Compressibility (1/GPa) = 0.02636176
#
# Stress axis : x y z
#
# Youngs Moduli (GPa) = 79.06806 74.94857 95.88195
#
# Poissons Ratio (x) = -0.15007 0.26211
# Poissons Ratio (y) = -0.15832 0.41205
# Poissons Ratio (z) = 0.21614 0.32209
#
# Static dielectric constant tensor:
#      x y z
#    x 1.903360 0.000000 0.000000 
#    y 0.000000 1.963490 0.000000 
#    z 0.000000 0.000000 1.859250 
# 
# From -- ./inp_files/32582.got.cif
#   From: 2010.05.17/outbox.cif.g08.bks.cpg/sg52_17_cif.got.tgz:32582.got - 2010.06.03 12:15:38.
