data_PCOD9409192
_publ_section_title
;
Structure prediction by ZEFSAII (Michael W. Deem and Ramdas Pophale) SiO2 
 PCOD9409192
Probable space group: P N N A
;
_chemical_formula_sum "Si O2"
_cell_formula_units_Z 56
_cell_length_a 18.988767
_cell_length_b 5.883736
_cell_length_c 21.851722
_cell_angle_alpha 90.000000
_cell_angle_beta 90.000000
_cell_angle_gamma 90.000000
_cell_volume 2441.381280
_symmetry_space_group_name_H-M "P N N A"
_symmetry_group_IT_number 52
_symmetry_cell_setting 'orthorhombic'
loop_
_space_group_symop_operation_xyz
x,y,z
1/2-x,-y,z
x,1/2-y,1/2-z
1/2-x,1/2+y,1/2-z
-x,-y,-z
1/2+x,y,-z
-x,1/2+y,1/2+z
1/2+x,1/2-y,1/2+z
loop_
_atom_site_type_symbol
_atom_site_label
_atom_site_fract_x
_atom_site_fract_y
_atom_site_fract_z
Si Si1 0.028951 0.654209 0.577676
Si Si2 0.333748 0.242802 0.322974
Si Si3 0.696543 0.675731 0.313970
Si Si4 0.936832 0.617789 0.307907
Si Si5 0.872446 0.972692 0.390943
Si Si6 0.828195 0.762438 0.867528
Si Si7 0.115326 0.162841 0.004130
O O1 0.018967 0.478008 0.634124
O O2 0.094350 0.559869 0.536116
O O3 0.960298 0.696029 0.537504
O O4 0.054405 0.890696 0.604048
O O5 0.339729 0.250000 0.250000
O O6 0.251330 0.249494 0.342404
O O7 0.360642 0.497030 0.342715
O O8 0.359322 0.992000 0.349530
O O9 0.750000 0.500000 0.342271
O O10 0.730255 0.750000 0.250000
O O11 0.619461 0.580415 0.294913
O O12 0.684747 0.857288 0.366282
O O13 0.970659 0.750000 0.250000
O O14 0.884406 0.799539 0.336781
O O15 0.863043 0.847738 0.454438
O O16 0.830824 0.811798 0.940120
#
# Coordination Sequence:
#
# PCOD9409192 Si02
#       7
#     8   8   8   8   8   8   8
#     4   9  21  38  61  85 116 164 203 256 304 377
#     4  10  20  40  66  90 125 168 202 244 325 387
#     4  11  22  35  59  85 115 155 207 255 312 378
#     4  10  19  37  60  85 115 160 202 248 315 374
#     4  10  21  38  61  81 117 164 198 255 305 374
#     4  10  20  35  65  92 121 162 206 258 300 383
#     4  10  21  39  61  88 120 157 214 246 317 368
#
# _framework density 22.937833000000001
#
# number of rings (size 3 to 8) (size 9 to 14) (size 15 to 20)
#    0.000    2.000    1.429    3.000    2.000    0.000 
#    0.000    9.286    6.286    0.000    0.000    0.000 
#    0.000    0.000    0.000    0.000    0.000    0.000 
#
# Total GULP energy -311790.180348 kJ/mol
# GULP energy per Si atom -5567.681792 kJ/mol
# Density = 2.288563 g / cm^3
# Si number density = 22.937833 Si / 1000 Ang^3
#
#
#
# Elastic Constant Matrix: (Units=GPa)
#
#
# Indices 1 2 3 4 5 6 
#
# 1 38.5652 15.7260 7.0587 0.0000 0.0000 0.0000
# 2 15.7260 136.0314 47.0565 0.0000 0.0000 0.0000
# 3 7.0587 47.0565 146.1673 0.0000 0.0000 0.0000
# 4 0.0000 0.0000 0.0000 866.6775 0.0000 0.0000
# 5 0.0000 0.0000 0.0000 0.0000 123.2587 0.0000
# 6 0.0000 0.0000 0.0000 0.0000 0.0000 85.2901
#
#
#
# Elastic Compliance Matrix: (Units=1/GPa)
#
#
# Indices 1 2 3 4 5 6 
#
# 1 0.027228 -0.003030 -0.000339 0.000000 0.000000 0.000000
# 2 -0.003030 0.008610 -0.002625 0.000000 0.000000 0.000000
# 3 -0.000339 -0.002625 0.007703 0.000000 0.000000 0.000000
# 4 0.000000 0.000000 0.000000 0.001154 0.000000 0.000000
# 5 0.000000 0.000000 0.000000 0.000000 0.008113 0.000000
# 6 0.000000 0.000000 0.000000 0.000000 0.000000 0.011725
#
#
# Mechanical properties :
#
#
# Convention : Reuss Voigt Hill
#
# Bulk Modulus (GPa) = 31.69515 51.16069 41.42792
# Shear Modulus (GPa) = 57.44529 231.77344 144.60937
#
# Velocity S-wave (km/s) = 5.00982 10.06298 7.94864
# Velocity P-wave (km/s) = 6.87839 12.54474 10.11639
#
# Compressibility (1/GPa) = 0.03155057
#
# Stress axis : x y z
#
# Youngs Moduli (GPa) = 36.72705 116.14703 129.81803
#
# Poissons Ratio (x) = 0.35196 0.04405
# Poissons Ratio (y) = 0.11129 0.34083
# Poissons Ratio (z) = 0.01246 0.30494
#
# Static dielectric constant tensor:
#      x y z
#    x 1.888390 0.000000 0.000000 
#    y 0.000000 1.918140 0.000000 
#    z 0.000000 0.000000 1.870480 
# 
# From -- ./inp_files/38146.got.cif
#   From: 2010.05.17/outbox.cif.g08.bks.cpg/sg52_20_cif.got.tgz:38146.got - 2010.06.03 12:15:38.
