data_PCOD9409947
_publ_section_title
;
Structure prediction by ZEFSAII (Michael W. Deem and Ramdas Pophale) SiO2 
 PCOD9409947
Probable space group: P N N A
;
_chemical_formula_sum "Si O2"
_cell_formula_units_Z 64
_cell_length_a 19.413643
_cell_length_b 18.945202
_cell_length_c 8.877280
_cell_angle_alpha 90.000000
_cell_angle_beta 90.000000
_cell_angle_gamma 90.000000
_cell_volume 3265.022644
_symmetry_space_group_name_H-M "P N N A"
_symmetry_group_IT_number 52
_symmetry_cell_setting 'orthorhombic'
loop_
_space_group_symop_operation_xyz
x,y,z
1/2-x,-y,z
x,1/2-y,1/2-z
1/2-x,1/2+y,1/2-z
-x,-y,-z
1/2+x,y,-z
-x,1/2+y,1/2+z
1/2+x,1/2-y,1/2+z
loop_
_atom_site_type_symbol
_atom_site_label
_atom_site_fract_x
_atom_site_fract_y
_atom_site_fract_z
Si Si1 0.450252 0.431666 0.468560
Si Si2 0.161179 0.170098 0.604702
Si Si3 0.459496 0.823186 0.144739
Si Si4 0.415243 0.442220 0.117157
Si Si5 0.797339 0.429718 0.391488
Si Si6 0.780714 0.422421 0.040822
Si Si7 0.545483 0.099152 0.557583
Si Si8 0.677116 0.331042 0.441858
O O1 0.500000 0.500000 0.500000
O O2 0.484815 0.356764 0.524967
O O3 0.436296 0.434462 0.289815
O O4 0.374252 0.439395 0.544408
O O5 0.216654 0.127063 0.512297
O O6 0.088903 0.158803 0.525886
O O7 0.187150 0.249167 0.593749
O O8 0.154808 0.140648 0.775344
O O9 0.468241 0.750000 0.250000
O O10 0.461541 0.882914 0.270221
O O11 0.385141 0.829936 0.061633
O O12 0.418591 0.522677 0.053677
O O13 0.340820 0.413167 0.077684
O O14 0.472171 0.403486 0.019078
O O15 0.750000 0.500000 0.400733
O O16 0.804581 0.410204 0.214002
O O17 0.748673 0.371214 0.473464
O O18 0.750000 0.500000 0.033682
#
# Coordination Sequence:
#
# PCOD9409947 Si02
#       8
#     8   8   8   8   8   8   8   8
#     4  12  25  43  65  99 134 174 221 285 341 398
#     4  10  20  40  65  93 127 168 220 266 326 410
#     4  12  24  43  68  97 132 177 220 274 339 407
#     4  11  24  39  64  94 130 168 223 278 333 390
#     4  10  23  41  65  96 130 170 219 274 335 401
#     4  10  20  37  63  94 125 169 214 268 329 396
#     4  11  22  39  64  94 123 170 218 272 325 399
#     4  10  22  41  65  94 127 174 215 269 338 404
#
# _framework density 19.601702
#
# number of rings (size 3 to 8) (size 9 to 14) (size 15 to 20)
#    0.000    1.250    3.750    2.250    1.750    1.500 
#    6.750    0.000    0.000    0.000    0.000    0.000 
#    0.000    0.000    0.000    0.000    0.000    0.000 
#
# Total GULP energy -356444.558639 kJ/mol
# GULP energy per Si atom -5569.446229 kJ/mol
# Density = 1.955709 g / cm^3
# Si number density = 19.601702 Si / 1000 Ang^3
#
#
#
# Elastic Constant Matrix: (Units=GPa)
#
#
# Indices 1 2 3 4 5 6 
#
# 1 114.7282 40.9159 46.7369 0.0000 0.0000 0.0000
# 2 40.9159 68.7137 7.4890 0.0000 0.0000 0.0000
# 3 46.7369 7.4890 69.1654 0.0000 0.0000 0.0000
# 4 0.0000 0.0000 0.0000 28.3245 0.0000 0.0000
# 5 0.0000 0.0000 0.0000 0.0000 40.4216 0.0000
# 6 0.0000 0.0000 0.0000 0.0000 0.0000 30.3941
#
#
#
# Elastic Compliance Matrix: (Units=1/GPa)
#
#
# Indices 1 2 3 4 5 6 
#
# 1 0.015573 -0.008223 -0.009633 0.000000 0.000000 0.000000
# 2 -0.008223 0.019069 0.003492 0.000000 0.000000 0.000000
# 3 -0.009633 0.003492 0.020589 0.000000 0.000000 0.000000
# 4 0.000000 0.000000 0.000000 0.035305 0.000000 0.000000
# 5 0.000000 0.000000 0.000000 0.000000 0.024739 0.000000
# 6 0.000000 0.000000 0.000000 0.000000 0.000000 0.032901
#
#
# Mechanical properties :
#
#
# Convention : Reuss Voigt Hill
#
# Bulk Modulus (GPa) = 37.73134 49.21011 43.47072
# Shear Modulus (GPa) = 26.91950 30.32575 28.62262
#
# Velocity S-wave (km/s) = 3.70986 3.93758 3.82542
# Velocity P-wave (km/s) = 6.13527 6.76995 6.46041
#
# Compressibility (1/GPa) = 0.02650317
#
# Stress axis : x y z
#
# Youngs Moduli (GPa) = 64.21378 52.44091 48.56949
#
# Poissons Ratio (x) = 0.43123 0.46785
# Poissons Ratio (y) = 0.52804 -0.16960
# Poissons Ratio (z) = 0.61855 -0.18312
#
# Static dielectric constant tensor:
#      x y z
#    x 1.655330 0.000000 0.000000 
#    y 0.000000 1.703020 0.000000 
#    z 0.000000 0.000000 1.749570 
# 
# From -- ./inp_files/12596.got.cif
#   From: 2010.05.17/outbox.cif.g08.bks.cpg/sg52_7_cif.got.tgz:12596.got - 2010.06.03 12:15:38.
