data_PCOD9409022
_publ_section_title
;
Structure prediction by ZEFSAII (Michael W. Deem and Ramdas Pophale) SiO2 
 PCOD9409022
Probable space group: P N N A
;
_chemical_formula_sum "Si O2"
_cell_formula_units_Z 64
_cell_length_a 8.601387
_cell_length_b 17.330647
_cell_length_c 19.538020
_cell_angle_alpha 90.000000
_cell_angle_beta 90.000000
_cell_angle_gamma 90.000000
_cell_volume 2912.485785
_symmetry_space_group_name_H-M "P N N A"
_symmetry_group_IT_number 52
_symmetry_cell_setting 'orthorhombic'
loop_
_space_group_symop_operation_xyz
x,y,z
1/2-x,-y,z
x,1/2-y,1/2-z
1/2-x,1/2+y,1/2-z
-x,-y,-z
1/2+x,y,-z
-x,1/2+y,1/2+z
1/2+x,1/2-y,1/2+z
loop_
_atom_site_type_symbol
_atom_site_label
_atom_site_fract_x
_atom_site_fract_y
_atom_site_fract_z
Si Si1 0.870060 0.688899 0.811688
Si Si2 0.655421 0.072598 0.320779
Si Si3 0.508075 0.726160 0.829838
Si Si4 0.952984 0.887296 0.093753
Si Si5 0.185178 0.606940 0.683509
Si Si6 0.246014 0.850768 0.029113
Si Si7 0.546790 0.772427 0.086496
Si Si8 0.414111 0.970879 0.236384
O O1 0.909525 0.750000 0.750000
O O2 0.691530 0.707326 0.831180
O O3 0.989134 0.695302 0.875701
O O4 0.876353 0.603739 0.781905
O O5 0.588043 0.150628 0.353922
O O6 0.774400 0.104902 0.263238
O O7 0.750000 0.000000 0.354076
O O8 0.507824 0.033448 0.281782
O O9 0.471602 0.750000 0.750000
O O10 0.476424 0.799769 0.877275
O O11 0.843339 0.924004 0.150592
O O12 0.127073 0.904329 0.070361
O O13 0.845031 0.894556 0.027713
O O14 0.148034 0.685391 0.644594
O O15 0.025671 0.560885 0.677380
O O16 0.378927 0.812341 0.074661
O O17 0.143153 0.788141 0.983793
O O18 0.250000 0.000000 0.210484
#
# Coordination Sequence:
#
# PCOD9409022 Si02
#       8
#     8   8   8   8   8   8   8   8
#     4  11  21  34  59  90 120 151 197 242 304 357
#     4  10  22  36  51  84 124 161 193 231 295 365
#     4  11  20  33  58  88 120 149 189 244 303 355
#     4  10  19  35  57  84 118 149 193 250 299 338
#     4  10  21  34  54  80 117 155 192 237 293 349
#     4   9  20  33  53  88 118 146 196 251 301 338
#     4  10  19  36  57  87 117 153 195 251 296 347
#     4  11  22  37  54  84 126 164 197 231 295 373
#
# _framework density 21.974356
#
# number of rings (size 3 to 8) (size 9 to 14) (size 15 to 20)
#    0.000    1.750    5.000    0.000    0.000    6.000 
#    0.000    0.000    0.000    0.000    0.000  199.500 
#    0.000    0.000    0.000    0.000    0.000    0.000 
#
# Total GULP energy -356554.519672 kJ/mol
# GULP energy per Si atom -5571.164370 kJ/mol
# Density = 2.192434 g / cm^3
# Si number density = 21.974356 Si / 1000 Ang^3
#
#
#
# Elastic Constant Matrix: (Units=GPa)
#
#
# Indices 1 2 3 4 5 6 
#
# 1 129.3613 25.2884 18.5355 0.0000 0.0000 0.0000
# 2 25.2884 51.9101 1.7396 0.0000 0.0000 0.0000
# 3 18.5355 1.7396 16.5529 0.0000 0.0000 0.0000
# 4 0.0000 0.0000 0.0000 6.7135 0.0000 0.0000
# 5 0.0000 0.0000 0.0000 0.0000 39.7938 0.0000
# 6 0.0000 0.0000 0.0000 0.0000 0.0000 39.3569
#
#
#
# Elastic Compliance Matrix: (Units=1/GPa)
#
#
# Indices 1 2 3 4 5 6 
#
# 1 0.010196 -0.004601 -0.010934 0.000000 0.000000 0.000000
# 2 -0.004601 0.021408 0.002902 0.000000 0.000000 0.000000
# 3 -0.010934 0.002902 0.072351 0.000000 0.000000 0.000000
# 4 0.000000 0.000000 0.000000 0.148953 0.000000 0.000000
# 5 0.000000 0.000000 0.000000 0.000000 0.025130 0.000000
# 6 0.000000 0.000000 0.000000 0.000000 0.000000 0.025409
#
#
# Mechanical properties :
#
#
# Convention : Reuss Voigt Hill
#
# Bulk Modulus (GPa) = 12.70816 32.10570 22.40693
# Shear Modulus (GPa) = 14.08682 27.32357 20.70519
#
# Velocity S-wave (km/s) = 2.53466 3.53006 3.07293
# Velocity P-wave (km/s) = 3.78969 5.59082 4.77593
#
# Compressibility (1/GPa) = 0.07868959
#
# Stress axis : x y z
#
# Youngs Moduli (GPa) = 98.07411 46.71114 13.82153
#
# Poissons Ratio (x) = 0.21491 0.15113
# Poissons Ratio (y) = 0.45122 -0.04011
# Poissons Ratio (z) = 1.07235 -0.13555
#
# Static dielectric constant tensor:
#      x y z
#    x 1.870340 0.000000 0.000000 
#    y 0.000000 1.864630 0.000000 
#    z 0.000000 0.000000 1.819670 
# 
# From -- ./inp_files/39746.got.cif
#   From: 2010.05.17/outbox.cif.g08.bks.cpg/sg52_20_cif.got.tgz:39746.got - 2010.06.03 12:15:38.
