data_PCOD9409613
_publ_section_title
;
Structure prediction by ZEFSAII (Michael W. Deem and Ramdas Pophale) SiO2 
 PCOD9409613
Probable space group: P N N A
;
_chemical_formula_sum "Si O2"
_cell_formula_units_Z 64
_cell_length_a 21.242735
_cell_length_b 9.595175
_cell_length_c 19.023823
_cell_angle_alpha 90.000000
_cell_angle_beta 90.000000
_cell_angle_gamma 90.000000
_cell_volume 3877.583225
_symmetry_space_group_name_H-M "P N N A"
_symmetry_group_IT_number 52
_symmetry_cell_setting 'orthorhombic'
loop_
_space_group_symop_operation_xyz
x,y,z
1/2-x,-y,z
x,1/2-y,1/2-z
1/2-x,1/2+y,1/2-z
-x,-y,-z
1/2+x,y,-z
-x,1/2+y,1/2+z
1/2+x,1/2-y,1/2+z
loop_
_atom_site_type_symbol
_atom_site_label
_atom_site_fract_x
_atom_site_fract_y
_atom_site_fract_z
Si Si1 0.690842 0.905822 0.480473
Si Si2 0.608547 0.479066 0.146232
Si Si3 0.071372 0.593375 0.069738
Si Si4 0.459081 0.470103 0.569336
Si Si5 0.810272 0.086872 0.233945
Si Si6 0.312018 0.412352 0.566833
Si Si7 0.480876 0.763354 0.834355
Si Si8 0.504629 0.662857 0.077935
O O1 0.642536 0.890051 0.545145
O O2 0.701291 0.748326 0.453344
O O3 0.750000 0.000000 0.500068
O O4 0.658223 0.987198 0.414984
O O5 0.633679 0.519580 0.222264
O O6 0.580971 0.325099 0.143587
O O7 0.551103 0.579876 0.128522
O O8 0.041816 0.685663 0.131764
O O9 0.058478 0.428342 0.080885
O O10 0.030883 0.642096 0.001384
O O11 0.500000 0.500000 0.500000
O O12 0.384711 0.453590 0.547437
O O13 0.471095 0.587682 0.628360
O O14 0.487027 0.323057 0.595905
O O15 0.804452 0.250000 0.250000
O O16 0.815579 0.072756 0.150978
O O17 0.750000 0.000000 0.258407
O O18 0.250000 0.500000 0.543006
O O19 0.484963 0.750000 0.750000
#
# Coordination Sequence:
#
# PCOD9409613 Si02
#       8
#     8   8   8   8   8   8   8   8
#     4  11  21  35  56  76 104 145 193 232 277 335
#     4  10  20  35  50  72 106 143 189 222 262 329
#     4   9  18  37  55  80 106 137 185 234 286 339
#     4  12  21  36  57  82 110 145 189 232 288 330
#     4  11  21  33  47  65 103 150 185 213 259 317
#     4  11  24  35  46  76 112 146 184 232 274 327
#     4  11  23  35  56  84 113 147 183 232 293 348
#     4   9  17  34  58  74 104 141 178 235 280 322
#
# _framework density 16.505126000000001
#
# number of rings (size 3 to 8) (size 9 to 14) (size 15 to 20)
#    0.000    1.500    5.000    1.875    1.750    1.500 
#    0.000    1.875    0.000    0.000    0.000    5.250 
#    0.000    0.000    0.000    0.000    0.000    0.000 
#
# Total GULP energy -356550.207939 kJ/mol
# GULP energy per Si atom -5571.096999 kJ/mol
# Density = 1.646756 g / cm^3
# Si number density = 16.505126 Si / 1000 Ang^3
#
#
#
# Elastic Constant Matrix: (Units=GPa)
#
#
# Indices 1 2 3 4 5 6 
#
# 1 60.0811 29.1459 33.9468 0.0000 0.0000 0.0000
# 2 29.1459 131.8441 40.0482 0.0000 0.0000 0.0000
# 3 33.9468 40.0482 58.7251 0.0000 0.0000 0.0000
# 4 0.0000 0.0000 0.0000 67.8884 0.0000 0.0000
# 5 0.0000 0.0000 0.0000 0.0000 -50.3753 0.0000
# 6 0.0000 0.0000 0.0000 0.0000 0.0000 21.9621
#
#
#
# Elastic Compliance Matrix: (Units=1/GPa)
#
#
# Indices 1 2 3 4 5 6 
#
# 1 0.024929 -0.001430 -0.013435 0.000000 0.000000 0.000000
# 2 -0.001430 0.009648 -0.005753 0.000000 0.000000 0.000000
# 3 -0.013435 -0.005753 0.028719 0.000000 0.000000 0.000000
# 4 0.000000 0.000000 0.000000 0.014730 0.000000 0.000000
# 5 0.000000 0.000000 0.000000 0.000000 -0.019851 0.000000
# 6 0.000000 0.000000 0.000000 0.000000 0.000000 0.045533
#
#
# Mechanical properties :
#
#
# Convention : Reuss Voigt Hill
#
# Bulk Modulus (GPa) = 45.33334 50.77023 48.05178
# Shear Modulus (GPa) = 32.83032 17.72900 25.27966
#
# Velocity S-wave (km/s) = 4.46477 3.28098 3.91784
# Velocity P-wave (km/s) = 7.35559 6.72162 7.04574
#
# Compressibility (1/GPa) = 0.02205882
#
# Stress axis : x y z
#
# Youngs Moduli (GPa) = 40.11385 103.64431 34.82066
#
# Poissons Ratio (x) = 0.14819 0.46783
# Poissons Ratio (y) = 0.05736 0.20033
# Poissons Ratio (z) = 0.53895 0.59630
#
# Static dielectric constant tensor:
#      x y z
#    x 1.604280 0.000000 0.000000 
#    y 0.000000 1.644190 0.000000 
#    z 0.000000 0.000000 1.568780 
# 
# From -- ./inp_files/34101.got.cif
#   From: 2010.05.17/outbox.cif.g08.bks.cpg/sg52_18_cif.got.tgz:34101.got - 2010.06.03 12:15:38.
