data_PCOD9409196
_publ_section_title
;
Structure prediction by ZEFSAII (Michael W. Deem and Ramdas Pophale) SiO2 
 PCOD9409196
Probable space group: P N N A
;
_chemical_formula_sum "Si O2"
_cell_formula_units_Z 36
_cell_length_a 14.667330
_cell_length_b 7.415812
_cell_length_c 14.211189
_cell_angle_alpha 90.000000
_cell_angle_beta 90.000000
_cell_angle_gamma 90.000000
_cell_volume 1545.753327
_symmetry_space_group_name_H-M "P N N A"
_symmetry_group_IT_number 52
_symmetry_cell_setting 'orthorhombic'
loop_
_space_group_symop_operation_xyz
x,y,z
1/2-x,-y,z
x,1/2-y,1/2-z
1/2-x,1/2+y,1/2-z
-x,-y,-z
1/2+x,y,-z
-x,1/2+y,1/2+z
1/2+x,1/2-y,1/2+z
loop_
_atom_site_type_symbol
_atom_site_label
_atom_site_fract_x
_atom_site_fract_y
_atom_site_fract_z
Si Si1 0.756102 0.793397 0.578858
Si Si2 0.030010 0.894704 0.638563
Si Si3 0.630016 0.250000 0.750000
Si Si4 0.926066 0.740416 0.047113
Si Si5 0.155606 0.605907 0.578310
O O1 0.805461 0.691101 0.664260
O O2 0.826811 0.806879 0.493421
O O3 0.673623 0.692135 0.526643
O O4 0.750000 0.000000 0.613369
O O5 0.117752 0.763362 0.645806
O O6 0.944268 0.887969 0.708417
O O7 0.990441 0.816219 0.539543
O O8 0.055726 0.101706 0.629610
O O9 0.920185 0.948569 0.073322
O O10 0.250000 0.500000 0.604697
#
# Coordination Sequence:
#
# PCOD9409196 Si02
#       5
#     8   8   4   8   8
#     4  10  19  37  60  93 123 165 212 272 328 379
#     4  10  19  38  57  83 125 168 209 254 318 392
#     4  10  24  36  60  90 140 170 200 276 352 370
#     4   9  19  34  62  86 114 163 216 252 307 394
#     4  10  20  34  65  87 113 157 227 258 304 387
#
# _framework density 23.289615999999999
#
# number of rings (size 3 to 8) (size 9 to 14) (size 15 to 20)
#    0.000    2.222    2.222    0.667    0.000    4.444 
#    0.000    1.111   24.444    0.000    0.000    0.000 
#    0.000    0.000    0.000    0.000    0.000    0.000 
#
# Total GULP energy -200510.526440 kJ/mol
# GULP energy per Si atom -5569.736846 kJ/mol
# Density = 2.323661 g / cm^3
# Si number density = 23.289616 Si / 1000 Ang^3
#
#
#
# Elastic Constant Matrix: (Units=GPa)
#
#
# Indices 1 2 3 4 5 6 
#
# 1 72.7754 44.7463 32.1875 0.0000 0.0000 0.0000
# 2 44.7463 148.6794 44.9624 0.0000 0.0000 0.0000
# 3 32.1875 44.9624 79.1732 0.0000 0.0000 0.0000
# 4 0.0000 0.0000 0.0000 -4.1066 0.0000 0.0000
# 5 0.0000 0.0000 0.0000 0.0000 18.6729 0.0000
# 6 0.0000 0.0000 0.0000 0.0000 0.0000 14.2066
#
#
#
# Elastic Compliance Matrix: (Units=1/GPa)
#
#
# Indices 1 2 3 4 5 6 
#
# 1 0.018518 -0.003980 -0.005268 0.000000 0.000000 0.000000
# 2 -0.003980 0.008976 -0.003479 0.000000 0.000000 0.000000
# 3 -0.005268 -0.003479 0.016748 0.000000 0.000000 0.000000
# 4 0.000000 0.000000 0.000000 -0.243510 0.000000 0.000000
# 5 0.000000 0.000000 0.000000 0.000000 0.053554 0.000000
# 6 0.000000 0.000000 0.000000 0.000000 0.000000 0.070390
#
#
# Mechanical properties :
#
#
# Convention : Reuss Voigt Hill
#
# Bulk Modulus (GPa) = 53.22804 60.49115 56.85959
# Shear Modulus (GPa) = -114.66207 17.67002 -48.49603
#
# Velocity S-wave (km/s) = -7.02424 2.75745 -4.56818
# Velocity P-wave (km/s) = 6.54845 6.01398 1.83226
#
# Compressibility (1/GPa) = 0.01878709
#
# Stress axis : x y z
#
# Youngs Moduli (GPa) = 54.00126 111.40944 59.70788
#
# Poissons Ratio (x) = 0.44341 0.31455
# Poissons Ratio (y) = 0.21493 0.20774
# Poissons Ratio (z) = 0.28449 0.38763
#
# Static dielectric constant tensor:
#      x y z
#    x 1.973470 0.000000 0.000000 
#    y 0.000000 2.014080 0.000000 
#    z 0.000000 0.000000 1.908790 
# 
# From -- ./inp_files/26763.got.cif
#   From: 2010.05.17/outbox.cif.g08.bks.cpg/sg52_14_cif.got.tgz:26763.got - 2010.06.03 12:15:38.
