data_PCOD9409851
_publ_section_title
;
Structure prediction by ZEFSAII (Michael W. Deem and Ramdas Pophale) SiO2 
 PCOD9409851
Probable space group: P N N A
;
_chemical_formula_sum "Si O2"
_cell_formula_units_Z 48
_cell_length_a 7.973459
_cell_length_b 14.595023
_cell_length_c 17.347108
_cell_angle_alpha 90.000000
_cell_angle_beta 90.000000
_cell_angle_gamma 90.000000
_cell_volume 2018.731833
_symmetry_space_group_name_H-M "P N N A"
_symmetry_group_IT_number 52
_symmetry_cell_setting 'orthorhombic'
loop_
_space_group_symop_operation_xyz
x,y,z
1/2-x,-y,z
x,1/2-y,1/2-z
1/2-x,1/2+y,1/2-z
-x,-y,-z
1/2+x,y,-z
-x,1/2+y,1/2+z
1/2+x,1/2-y,1/2+z
loop_
_atom_site_type_symbol
_atom_site_label
_atom_site_fract_x
_atom_site_fract_y
_atom_site_fract_z
Si Si1 0.682818 0.378164 0.965175
Si Si2 0.978333 0.952181 0.402121
Si Si3 0.837613 0.820374 0.960655
Si Si4 0.182020 0.653714 0.298049
Si Si5 0.338546 0.091894 0.909583
Si Si6 0.003322 0.972162 0.764924
O O1 0.858803 0.386080 0.919596
O O2 0.557961 0.455438 0.936023
O O3 0.594677 0.281765 0.954792
O O4 0.679353 0.405499 0.055749
O O5 0.944874 0.985618 0.316367
O O6 0.713763 0.824976 0.887829
O O7 0.975720 0.895975 0.942930
O O8 0.762661 0.830327 0.045661
O O9 0.151432 0.750000 0.250000
O O10 0.051498 0.568855 0.303766
O O11 0.344922 0.599376 0.261356
O O12 0.250000 0.000000 0.935880
O O13 0.364252 0.082401 0.817962
#
# Coordination Sequence:
#
# PCOD9409851 Si02
#       6
#     8   8   8   8   8   8
#     4  10  20  38  67 102 123 173 220 270 333 405
#     4  10  20  39  67  93 137 167 214 273 338 403
#     4  11  23  38  69  93 130 172 231 274 319 408
#     4  10  20  36  66  96 124 173 221 265 326 398
#     4  11  26  43  63  92 128 179 222 275 336 388
#     4  10  22  40  62  91 132 171 215 272 332 391
#
# _framework density 23.777304999999998
#
# number of rings (size 3 to 8) (size 9 to 14) (size 15 to 20)
#    0.000    1.667    0.000    5.500    7.000    0.000 
#    6.000    0.000   11.000    0.000    0.000    0.000 
#    0.000    0.000    0.000    0.000    0.000    0.000 
#
# Total GULP energy -267370.795518 kJ/mol
# GULP energy per Si atom -5570.224907 kJ/mol
# Density = 2.372319 g / cm^3
# Si number density = 23.777305 Si / 1000 Ang^3
#
#
#
# Elastic Constant Matrix: (Units=GPa)
#
#
# Indices 1 2 3 4 5 6 
#
# 1 70.8540 10.6599 28.4235 0.0000 0.0000 0.0000
# 2 10.6599 114.8493 32.3811 0.0000 0.0000 0.0000
# 3 28.4235 32.3811 123.2188 0.0000 0.0000 0.0000
# 4 0.0000 0.0000 0.0000 20.4663 0.0000 0.0000
# 5 0.0000 0.0000 0.0000 0.0000 17.5596 0.0000
# 6 0.0000 0.0000 0.0000 0.0000 0.0000 12.8144
#
#
#
# Elastic Compliance Matrix: (Units=1/GPa)
#
#
# Indices 1 2 3 4 5 6 
#
# 1 0.015576 -0.000467 -0.003470 0.000000 0.000000 0.000000
# 2 -0.000467 0.009418 -0.002367 0.000000 0.000000 0.000000
# 3 -0.003470 -0.002367 0.009538 0.000000 0.000000 0.000000
# 4 0.000000 0.000000 0.000000 0.048861 0.000000 0.000000
# 5 0.000000 0.000000 0.000000 0.000000 0.056949 0.000000
# 6 0.000000 0.000000 0.000000 0.000000 0.000000 0.078037
#
#
# Mechanical properties :
#
#
# Convention : Reuss Voigt Hill
#
# Bulk Modulus (GPa) = 45.61482 50.20569 47.91025
# Shear Modulus (GPa) = 20.98233 25.99857 23.49045
#
# Velocity S-wave (km/s) = 2.97383 3.31028 3.14655
# Velocity P-wave (km/s) = 5.56933 5.98092 5.77879
#
# Compressibility (1/GPa) = 0.02192270
#
# Stress axis : x y z
#
# Youngs Moduli (GPa) = 64.20170 106.18148 104.84160
#
# Poissons Ratio (x) = 0.04962 0.36382
# Poissons Ratio (y) = 0.03000 0.24818
# Poissons Ratio (z) = 0.22279 0.25135
#
# Static dielectric constant tensor:
#      x y z
#    x 1.999030 0.000000 0.000000 
#    y 0.000000 1.902620 0.000000 
#    z 0.000000 0.000000 2.175150 
# 
# From -- ./inp_files/31209.got.cif
#   From: 2010.05.17/outbox.cif.g08.bks.cpg/sg52_16_cif.got.tgz:31209.got - 2010.06.03 12:15:38.
