data_PCOD9409769
_publ_section_title
;
Structure prediction by ZEFSAII (Michael W. Deem and Ramdas Pophale) SiO2 
 PCOD9409769
Probable space group: P N N A
;
_chemical_formula_sum "Si O2"
_cell_formula_units_Z 48
_cell_length_a 29.135782
_cell_length_b 9.544617
_cell_length_c 9.345178
_cell_angle_alpha 90.000000
_cell_angle_beta 90.000000
_cell_angle_gamma 90.000000
_cell_volume 2598.799430
_symmetry_space_group_name_H-M "P N N A"
_symmetry_group_IT_number 52
_symmetry_cell_setting 'orthorhombic'
loop_
_space_group_symop_operation_xyz
x,y,z
1/2-x,-y,z
x,1/2-y,1/2-z
1/2-x,1/2+y,1/2-z
-x,-y,-z
1/2+x,y,-z
-x,1/2+y,1/2+z
1/2+x,1/2-y,1/2+z
loop_
_atom_site_type_symbol
_atom_site_label
_atom_site_fract_x
_atom_site_fract_y
_atom_site_fract_z
Si Si1 0.145046 0.536165 0.927899
Si Si2 0.317177 0.723999 0.082274
Si Si3 0.037892 0.578941 0.589113
Si Si4 0.765507 0.336133 0.106041
Si Si5 0.037635 0.901192 0.574238
Si Si6 0.877317 0.617876 0.348742
O O1 0.180129 0.665362 0.928125
O O2 0.090759 0.554669 0.944992
O O3 0.151089 0.467817 0.769995
O O4 0.162640 0.429059 0.046623
O O5 0.319861 0.750000 0.250000
O O6 0.265605 0.725090 0.020759
O O7 0.347235 0.824057 0.978963
O O8 0.038499 0.737839 0.531991
O O9 0.026780 0.589882 0.757253
O O10 0.084028 0.485551 0.589876
O O11 0.000000 0.500000 0.500000
O O12 0.750000 0.500000 0.121690
O O13 0.756052 0.250000 0.250000
O O14 0.000000 0.000000 0.500000
O O15 0.895384 0.750000 0.250000
#
# Coordination Sequence:
#
# PCOD9409769 Si02
#       6
#     8   8   8   8   8   8
#     4   9  20  38  62  82 119 155 203 249 285 353
#     4  10  20  36  59  88 123 159 192 241 304 362
#     4  10  23  37  61  91 118 154 202 247 298 359
#     4  10  20  37  63  90 114 153 203 245 293 348
#     4  10  23  41  61  87 121 158 196 248 304 350
#     4   9  19  37  61  87 118 159 205 247 295 351
#
# _framework density 18.470068000000001
#
# number of rings (size 3 to 8) (size 9 to 14) (size 15 to 20)
#    0.000    2.333    0.000    2.500   11.667    1.333 
#    0.000    7.500    3.667    0.000    0.000    0.000 
#    0.000    0.000    0.000    0.000    0.000    0.000 
#
# Total GULP energy -267428.231494 kJ/mol
# GULP energy per Si atom -5571.421489 kJ/mol
# Density = 1.842803 g / cm^3
# Si number density = 18.470068 Si / 1000 Ang^3
#
#
#
# Elastic Constant Matrix: (Units=GPa)
#
#
# Indices 1 2 3 4 5 6 
#
# 1 116.0828 58.1561 65.2476 0.0000 0.0000 0.0000
# 2 58.1561 89.3971 49.8294 0.0000 0.0000 0.0000
# 3 65.2476 49.8294 120.2068 0.0000 0.0000 0.0000
# 4 0.0000 0.0000 0.0000 20.1407 0.0000 0.0000
# 5 0.0000 0.0000 0.0000 0.0000 24.4306 0.0000
# 6 0.0000 0.0000 0.0000 0.0000 0.0000 26.3905
#
#
#
# Elastic Compliance Matrix: (Units=1/GPa)
#
#
# Indices 1 2 3 4 5 6 
#
# 1 0.015018 -0.006796 -0.005334 0.000000 0.000000 0.000000
# 2 -0.006796 0.017623 -0.003616 0.000000 0.000000 0.000000
# 3 -0.005334 -0.003616 0.012713 0.000000 0.000000 0.000000
# 4 0.000000 0.000000 0.000000 0.049651 0.000000 0.000000
# 5 0.000000 0.000000 0.000000 0.000000 0.040932 0.000000
# 6 0.000000 0.000000 0.000000 0.000000 0.000000 0.037892
#
#
# Mechanical properties :
#
#
# Convention : Reuss Voigt Hill
#
# Bulk Modulus (GPa) = 72.14749 74.68365 73.41557
# Shear Modulus (GPa) = 23.81597 24.35593 24.08595
#
# Velocity S-wave (km/s) = 3.59477 3.63529 3.61509
# Velocity P-wave (km/s) = 7.50842 7.62517 7.56702
#
# Compressibility (1/GPa) = 0.01386050
#
# Stress axis : x y z
#
# Youngs Moduli (GPa) = 66.58839 56.74423 78.65682
#
# Poissons Ratio (x) = 0.38565 0.41957
# Poissons Ratio (y) = 0.45255 0.28444
# Poissons Ratio (z) = 0.35520 0.20520
#
# Static dielectric constant tensor:
#      x y z
#    x 2.324400 0.000000 0.000000 
#    y 0.000000 1.735810 0.000000 
#    z 0.000000 0.000000 1.637690 
# 
# From -- ./inp_files/15542.got.cif
#   From: 2010.05.17/outbox.cif.g08.bks.cpg/sg52_8_cif.got.tgz:15542.got - 2010.06.03 12:15:38.
