data_PCOD9409865
_publ_section_title
;
Structure prediction by ZEFSAII (Michael W. Deem and Ramdas Pophale) SiO2 
 PCOD9409865
Probable space group: P N N A
;
_chemical_formula_sum "Si O2"
_cell_formula_units_Z 64
_cell_length_a 9.930652
_cell_length_b 14.097464
_cell_length_c 24.802221
_cell_angle_alpha 90.000000
_cell_angle_beta 90.000000
_cell_angle_gamma 90.000000
_cell_volume 3472.236758
_symmetry_space_group_name_H-M "P N N A"
_symmetry_group_IT_number 52
_symmetry_cell_setting 'orthorhombic'
loop_
_space_group_symop_operation_xyz
x,y,z
1/2-x,-y,z
x,1/2-y,1/2-z
1/2-x,1/2+y,1/2-z
-x,-y,-z
1/2+x,y,-z
-x,1/2+y,1/2+z
1/2+x,1/2-y,1/2+z
loop_
_atom_site_type_symbol
_atom_site_label
_atom_site_fract_x
_atom_site_fract_y
_atom_site_fract_z
Si Si1 0.687729 0.200639 0.883475
Si Si2 0.899691 0.531513 0.286093
Si Si3 0.238647 0.888961 0.342405
Si Si4 0.341981 0.672873 0.623688
Si Si5 0.931868 0.400274 0.430467
Si Si6 0.548183 0.179812 0.300795
Si Si7 0.560016 0.609628 0.556575
Si Si8 0.655657 0.408847 0.723136
O O1 0.703853 0.313587 0.884552
O O2 0.549604 0.167846 0.910203
O O3 0.809517 0.142597 0.910647
O O4 0.687151 0.170086 0.820674
O O5 0.750000 0.500000 0.295507
O O6 0.924054 0.604616 0.334802
O O7 0.902355 0.586354 0.229650
O O8 0.005016 0.446787 0.285138
O O9 0.314749 0.881928 0.284609
O O10 0.087270 0.851564 0.331036
O O11 0.250000 0.000000 0.357535
O O12 0.201868 0.625478 0.604292
O O13 0.345917 0.769453 0.658897
O O14 0.437920 0.680147 0.571827
O O15 0.902348 0.388164 0.493780
O O16 0.997707 0.506007 0.428673
O O17 0.517335 0.250000 0.250000
O O18 0.750000 0.500000 0.711973
#
# Coordination Sequence:
#
# PCOD9409865 Si02
#       8
#     8   8   8   8   8   8   8   8
#     4  12  22  36  61  88 116 156 200 245 298 349
#     4  11  21  34  55  85 123 158 191 234 290 355
#     4  11  22  38  59  85 115 153 204 255 288 346
#     4  11  21  37  58  82 123 164 192 231 292 373
#     4  11  24  38  57  93 121 152 197 243 295 362
#     4  10  20  37  57  83 116 163 198 231 299 360
#     4  11  22  39  61  85 124 157 189 241 303 362
#     4  11  20  33  57  87 118 151 194 240 287 356
#
# _framework density 18.431923000000001
#
# number of rings (size 3 to 8) (size 9 to 14) (size 15 to 20)
#    0.000    1.000    3.750    6.375    0.000    3.000 
#    0.000    2.500    0.000    0.750    0.000    0.000 
#    0.000    0.000    0.000    0.000    0.000    0.000 
#
# Total GULP energy -357026.318750 kJ/mol
# GULP energy per Si atom -5578.536230 kJ/mol
# Density = 1.838997 g / cm^3
# Si number density = 18.431923 Si / 1000 Ang^3
#
#
#
# Elastic Constant Matrix: (Units=GPa)
#
#
# Indices 1 2 3 4 5 6 
#
# 1 104.3418 25.1755 35.8991 0.0000 0.0000 0.0000
# 2 25.1755 77.6311 48.3740 0.0000 0.0000 0.0000
# 3 35.8991 48.3740 75.8883 0.0000 0.0000 0.0000
# 4 0.0000 0.0000 0.0000 25.9163 0.0000 0.0000
# 5 0.0000 0.0000 0.0000 0.0000 26.4398 0.0000
# 6 0.0000 0.0000 0.0000 0.0000 0.0000 15.6250
#
#
#
# Elastic Compliance Matrix: (Units=1/GPa)
#
#
# Indices 1 2 3 4 5 6 
#
# 1 0.011462 -0.000561 -0.005064 0.000000 0.000000 0.000000
# 2 -0.000561 0.021397 -0.013374 0.000000 0.000000 0.000000
# 3 -0.005064 -0.013374 0.024098 0.000000 0.000000 0.000000
# 4 0.000000 0.000000 0.000000 0.038586 0.000000 0.000000
# 5 0.000000 0.000000 0.000000 0.000000 0.037822 0.000000
# 6 0.000000 0.000000 0.000000 0.000000 0.000000 0.064000
#
#
# Mechanical properties :
#
#
# Convention : Reuss Voigt Hill
#
# Bulk Modulus (GPa) = 52.74809 52.97315 52.86062
# Shear Modulus (GPa) = 20.68838 23.49039 22.08938
#
# Velocity S-wave (km/s) = 3.35389 3.57380 3.46559
# Velocity P-wave (km/s) = 6.60893 6.76991 6.68991
#
# Compressibility (1/GPa) = 0.01895803
#
# Stress axis : x y z
#
# Youngs Moduli (GPa) = 87.24737 46.73557 41.49770
#
# Poissons Ratio (x) = 0.02624 0.21015
# Poissons Ratio (y) = 0.04898 0.55498
# Poissons Ratio (z) = 0.44183 0.62503
#
# Static dielectric constant tensor:
#      x y z
#    x 1.652750 0.000000 0.000000 
#    y 0.000000 1.629910 0.000000 
#    z 0.000000 0.000000 1.667390 
# 
# From -- ./inp_files/39690.got.cif
#   From: 2010.05.17/outbox.cif.g08.bks.cpg/sg52_20_cif.got.tgz:39690.got - 2010.06.03 12:15:38.
