data_PCOD9409114
_publ_section_title
;
Structure prediction by ZEFSAII (Michael W. Deem and Ramdas Pophale) SiO2 
 PCOD9409114
Probable space group: P N N A
;
_chemical_formula_sum "Si O2"
_cell_formula_units_Z 64
_cell_length_a 26.086725
_cell_length_b 26.429686
_cell_length_c 5.004417
_cell_angle_alpha 90.000000
_cell_angle_beta 90.000000
_cell_angle_gamma 90.000000
_cell_volume 3450.365115
_symmetry_space_group_name_H-M "P N N A"
_symmetry_group_IT_number 52
_symmetry_cell_setting 'orthorhombic'
loop_
_space_group_symop_operation_xyz
x,y,z
1/2-x,-y,z
x,1/2-y,1/2-z
1/2-x,1/2+y,1/2-z
-x,-y,-z
1/2+x,y,-z
-x,1/2+y,1/2+z
1/2+x,1/2-y,1/2+z
loop_
_atom_site_type_symbol
_atom_site_label
_atom_site_fract_x
_atom_site_fract_y
_atom_site_fract_z
Si Si1 0.773011 0.566214 0.367147
Si Si2 0.004378 0.939255 0.464283
Si Si3 0.221028 0.890305 0.388542
Si Si4 0.358333 0.003750 0.063060
Si Si5 0.145806 0.153017 0.873829
Si Si6 0.441972 0.914469 0.033129
Si Si7 0.301254 0.696453 0.111167
Si Si8 0.622036 0.931696 0.437820
O O1 0.737325 0.591860 0.593368
O O2 0.802916 0.518167 0.482945
O O3 0.820110 0.604222 0.298752
O O4 0.742431 0.566665 0.091439
O O5 0.062235 0.922242 0.518093
O O6 0.988006 0.927510 0.164206
O O7 0.000000 0.000000 0.500000
O O8 0.035292 0.086935 0.330641
O O9 0.250588 0.837499 0.439433
O O10 0.161202 0.888706 0.461742
O O11 0.370324 0.049949 0.864698
O O12 0.401206 0.960588 0.024507
O O13 0.362356 0.021634 0.367292
O O14 0.088073 0.134242 0.918331
O O15 0.163435 0.194024 0.654263
O O16 0.165720 0.168310 0.164035
O O17 0.289018 0.750000 0.250000
#
# Coordination Sequence:
#
# PCOD9409114 Si02
#       8
#     8   8   8   8   8   8   8   8
#     4   9  19  33  49  66 102 136 171 206 258 308
#     4  12  21  34  50  71  99 149 193 230 253 290
#     4  10  21  35  46  73 103 131 166 215 255 316
#     4  11  20  32  48  70  94 142 179 217 256 295
#     4   9  19  33  54  82 103 131 166 212 266 327
#     4  11  20  35  52  71 106 137 180 228 267 296
#     4  10  19  36  59  81 105 129 160 205 270 341
#     4  12  23  31  47  69 101 136 189 220 246 293
#
# _framework density 18.548760999999999
#
# number of rings (size 3 to 8) (size 9 to 14) (size 15 to 20)
#    0.000    1.500    2.500    3.750    0.000    7.000 
#    0.000    0.000    0.000    0.000    0.000    3.500 
#    0.000    0.000    0.000    0.000    0.000    0.000 
#
# Total GULP energy -357142.678552 kJ/mol
# GULP energy per Si atom -5580.354352 kJ/mol
# Density = 1.850654 g / cm^3
# Si number density = 18.548761 Si / 1000 Ang^3
#
#
#
# Elastic Constant Matrix: (Units=GPa)
#
#
# Indices 1 2 3 4 5 6 
#
# 1 98.5363 21.7893 3.3246 0.0000 0.0000 0.0000
# 2 21.7893 50.7390 -3.4032 0.0000 0.0000 0.0000
# 3 3.3246 -3.4032 64.9533 0.0000 0.0000 0.0000
# 4 0.0000 0.0000 0.0000 22.9256 0.0000 0.0000
# 5 0.0000 0.0000 0.0000 0.0000 26.5498 0.0000
# 6 0.0000 0.0000 0.0000 0.0000 0.0000 11.7703
#
#
#
# Elastic Compliance Matrix: (Units=1/GPa)
#
#
# Indices 1 2 3 4 5 6 
#
# 1 0.011258 -0.004890 -0.000832 0.000000 0.000000 0.000000
# 2 -0.004890 0.021903 0.001398 0.000000 0.000000 0.000000
# 3 -0.000832 0.001398 0.015512 0.000000 0.000000 0.000000
# 4 0.000000 0.000000 0.000000 0.043619 0.000000 0.000000
# 5 0.000000 0.000000 0.000000 0.000000 0.037665 0.000000
# 6 0.000000 0.000000 0.000000 0.000000 0.000000 0.084959
#
#
# Mechanical properties :
#
#
# Convention : Reuss Voigt Hill
#
# Bulk Modulus (GPa) = 24.98619 28.62777 26.80698
# Shear Modulus (GPa) = 21.10533 25.08366 23.09449
#
# Velocity S-wave (km/s) = 3.37683 3.68136 3.53238
# Velocity P-wave (km/s) = 5.35759 5.79113 5.57858
#
# Compressibility (1/GPa) = 0.04002211
#
# Stress axis : x y z
#
# Youngs Moduli (GPa) = 88.82528 45.65661 64.46817
#
# Poissons Ratio (x) = 0.22328 0.05367
# Poissons Ratio (y) = 0.43440 -0.09012
# Poissons Ratio (z) = 0.07394 -0.06382
#
# Static dielectric constant tensor:
#      x y z
#    x 1.684840 0.000000 0.000000 
#    y 0.000000 1.677020 0.000000 
#    z 0.000000 0.000000 1.634470 
# 
# From -- ./inp_files/5360.got.cif
#   From: 2010.05.17/outbox.cif.g08.bks.cpg/sg52_3_cif.got.tgz:5360.got - 2010.06.03 12:15:38.
