data_PCOD9409776
_publ_section_title
;
Structure prediction by ZEFSAII (Michael W. Deem and Ramdas Pophale) SiO2 
 PCOD9409776
Probable space group: P N N A
;
_chemical_formula_sum "Si O2"
_cell_formula_units_Z 36
_cell_length_a 5.079466
_cell_length_b 15.434662
_cell_length_c 21.344306
_cell_angle_alpha 90.000000
_cell_angle_beta 90.000000
_cell_angle_gamma 90.000000
_cell_volume 1673.390193
_symmetry_space_group_name_H-M "P N N A"
_symmetry_group_IT_number 52
_symmetry_cell_setting 'orthorhombic'
loop_
_space_group_symop_operation_xyz
x,y,z
1/2-x,-y,z
x,1/2-y,1/2-z
1/2-x,1/2+y,1/2-z
-x,-y,-z
1/2+x,y,-z
-x,1/2+y,1/2+z
1/2+x,1/2-y,1/2+z
loop_
_atom_site_type_symbol
_atom_site_label
_atom_site_fract_x
_atom_site_fract_y
_atom_site_fract_z
Si Si1 0.564415 0.586816 0.041466
Si Si2 0.369922 0.188691 0.307888
Si Si3 0.250000 0.500000 0.154372
Si Si4 0.777647 0.601233 0.459926
Si Si5 0.368136 0.256345 0.881868
O O1 0.466955 0.539682 0.105576
O O2 0.541888 0.688093 0.058509
O O3 0.857400 0.573070 0.014834
O O4 0.451583 0.250000 0.250000
O O5 0.597836 0.201114 0.358809
O O6 0.095580 0.229447 0.331425
O O7 0.334779 0.083883 0.304630
O O8 0.750000 0.500000 0.445246
O O9 0.572217 0.619135 0.516427
O O10 0.692178 0.659491 0.402041
#
# Coordination Sequence:
#
# PCOD9409776 Si02
#       5
#     8   8   4   8   8
#     4  11  21  35  60  96 130 159 190 233 310 397
#     4  11  25  45  63  86 120 163 216 269 311 356
#     4  10  24  42  64  92 128 168 202 264 312 370
#     4  10  20  36  59  91 129 165 200 248 307 372
#     4  11  22  40  62  90 125 162 208 257 307 374
#
# _framework density 21.513214000000001
#
# number of rings (size 3 to 8) (size 9 to 14) (size 15 to 20)
#    0.000    1.333    0.000    6.667    0.000    7.111 
#    4.000    0.000    0.000    0.000    0.000    0.000 
#    0.000    0.000    0.000    0.000    0.000    0.000 
#
# Total GULP energy -201047.605234 kJ/mol
# GULP energy per Si atom -5584.655701 kJ/mol
# Density = 2.146425 g / cm^3
# Si number density = 21.513214 Si / 1000 Ang^3
#
#
#
# Elastic Constant Matrix: (Units=GPa)
#
#
# Indices 1 2 3 4 5 6 
#
# 1 83.6334 18.6373 -2.9352 0.0000 0.0000 0.0000
# 2 18.6373 125.5219 45.4002 0.0000 0.0000 0.0000
# 3 -2.9352 45.4002 41.6975 0.0000 0.0000 0.0000
# 4 0.0000 0.0000 0.0000 26.9052 0.0000 0.0000
# 5 0.0000 0.0000 0.0000 0.0000 -40.1270 0.0000
# 6 0.0000 0.0000 0.0000 0.0000 0.0000 29.0908
#
#
#
# Elastic Compliance Matrix: (Units=1/GPa)
#
#
# Indices 1 2 3 4 5 6 
#
# 1 0.012960 -0.003719 0.004961 0.000000 0.000000 0.000000
# 2 -0.003719 0.014209 -0.015733 0.000000 0.000000 0.000000
# 3 0.004961 -0.015733 0.041461 0.000000 0.000000 0.000000
# 4 0.000000 0.000000 0.000000 0.037168 0.000000 0.000000
# 5 0.000000 0.000000 0.000000 0.000000 -0.024921 0.000000
# 6 0.000000 0.000000 0.000000 0.000000 0.000000 0.034375
#
#
# Mechanical properties :
#
#
# Convention : Reuss Voigt Hill
#
# Bulk Modulus (GPa) = 25.22084 41.45083 33.33584
# Shear Modulus (GPa) = 31.75616 15.82383 23.79000
#
# Velocity S-wave (km/s) = 3.84620 2.71503 3.32901
# Velocity P-wave (km/s) = 5.61010 5.39796 5.50505
#
# Compressibility (1/GPa) = 0.03964974
#
# Stress axis : x y z
#
# Youngs Moduli (GPa) = 77.16200 70.37629 24.11877
#
# Poissons Ratio (x) = 0.26170 -0.11966
# Poissons Ratio (y) = 0.28694 0.37946
# Poissons Ratio (z) = -0.38281 1.10722
#
# Static dielectric constant tensor:
#      x y z
#    x 1.782770 0.000000 0.000000 
#    y 0.000000 1.960960 0.000000 
#    z 0.000000 0.000000 1.747160 
# 
# From -- ./inp_files/34929.got.cif
#   From: 2010.05.17/outbox.cif.g08.bks.cpg/sg52_18_cif.got.tgz:34929.got - 2010.06.03 12:15:38.
