data_PCOD9409854
_publ_section_title
;
Structure prediction by ZEFSAII (Michael W. Deem and Ramdas Pophale) SiO2 
 PCOD9409854
Probable space group: P N N A
;
_chemical_formula_sum "Si O2"
_cell_formula_units_Z 60
_cell_length_a 8.936298
_cell_length_b 28.294532
_cell_length_c 11.834543
_cell_angle_alpha 90.000000
_cell_angle_beta 90.000000
_cell_angle_gamma 90.000000
_cell_volume 2992.344904
_symmetry_space_group_name_H-M "P N N A"
_symmetry_group_IT_number 52
_symmetry_cell_setting 'orthorhombic'
loop_
_space_group_symop_operation_xyz
x,y,z
1/2-x,-y,z
x,1/2-y,1/2-z
1/2-x,1/2+y,1/2-z
-x,-y,-z
1/2+x,y,-z
-x,1/2+y,1/2+z
1/2+x,1/2-y,1/2+z
loop_
_atom_site_type_symbol
_atom_site_label
_atom_site_fract_x
_atom_site_fract_y
_atom_site_fract_z
Si Si1 0.654496 0.356055 0.273767
Si Si2 0.969398 0.775512 0.092648
Si Si3 0.535074 0.834542 0.568835
Si Si4 0.110595 0.411496 0.516553
Si Si5 0.442494 0.079114 0.786830
Si Si6 0.366633 0.857325 0.346713
Si Si7 0.250000 0.500000 0.641831
Si Si8 0.793808 0.820591 0.893528
O O1 0.642863 0.302236 0.320155
O O2 0.576748 0.361245 0.153722
O O3 0.562494 0.385658 0.368147
O O4 0.817278 0.379879 0.273232
O O5 0.002734 0.720234 0.097975
O O6 0.130546 0.798795 0.111519
O O7 0.901734 0.788785 0.970692
O O8 0.486837 0.842202 0.440117
O O9 0.703338 0.851047 0.596826
O O10 0.177451 0.460519 0.560536
O O11 0.214130 0.371392 0.457088
O O12 0.994399 0.419861 0.417119
O O13 0.577747 0.092161 0.703149
O O14 0.364915 0.028367 0.778367
O O15 0.358080 0.826794 0.231781
#
# Coordination Sequence:
#
# PCOD9409854 Si02
#       8
#     8   8   8   8   8   8   4   8
#     4  10  22  36  63  87 132 173 213 268 324 376
#     4  11  23  38  64  93 130 170 224 267 328 379
#     4  12  24  42  63  91 124 181 232 273 303 391
#     4   9  21  36  65  97 135 163 205 264 344 405
#     4  10  22  42  62  96 130 168 210 270 342 396
#     4  11  25  43  64  88 130 172 222 271 333 381
#     4  10  20  36  68 104 132 158 212 274 334 432
#     4  10  23  40  63  91 135 175 205 271 336 390
#
# _framework density 20.051164
#
# number of rings (size 3 to 8) (size 9 to 14) (size 15 to 20)
#    0.000    1.600    1.333    2.400   16.800    1.600 
#    0.000    0.000    5.867    7.200    0.000   14.933 
#    0.000    0.000    0.000    0.000    0.000    0.000 
#
# Total GULP energy -334630.952751 kJ/mol
# GULP energy per Si atom -5577.182546 kJ/mol
# Density = 2.000553 g / cm^3
# Si number density = 20.051164 Si / 1000 Ang^3
#
#
#
# Elastic Constant Matrix: (Units=GPa)
#
#
# Indices 1 2 3 4 5 6 
#
# 1 80.0598 44.9339 38.5610 0.0000 0.0000 0.0000
# 2 44.9339 109.2134 39.5377 0.0000 0.0000 0.0000
# 3 38.5610 39.5377 107.7778 0.0000 0.0000 0.0000
# 4 0.0000 0.0000 0.0000 8.4993 0.0000 0.0000
# 5 0.0000 0.0000 0.0000 0.0000 27.8471 0.0000
# 6 0.0000 0.0000 0.0000 0.0000 0.0000 31.6229
#
#
#
# Elastic Compliance Matrix: (Units=1/GPa)
#
#
# Indices 1 2 3 4 5 6 
#
# 1 0.017776 -0.005779 -0.004240 0.000000 0.000000 0.000000
# 2 -0.005779 0.012437 -0.002495 0.000000 0.000000 0.000000
# 3 -0.004240 -0.002495 0.011711 0.000000 0.000000 0.000000
# 4 0.000000 0.000000 0.000000 0.117657 0.000000 0.000000
# 5 0.000000 0.000000 0.000000 0.000000 0.035910 0.000000
# 6 0.000000 0.000000 0.000000 0.000000 0.000000 0.031623
#
#
# Mechanical properties :
#
#
# Convention : Reuss Voigt Hill
#
# Bulk Modulus (GPa) = 59.18411 60.34625 59.76518
# Shear Modulus (GPa) = 19.39685 25.19508 22.29597
#
# Velocity S-wave (km/s) = 3.11363 3.54862 3.33821
# Velocity P-wave (km/s) = 6.51973 6.85213 6.68800
#
# Compressibility (1/GPa) = 0.01689643
#
# Stress axis : x y z
#
# Youngs Moduli (GPa) = 56.25479 80.40418 85.39221
#
# Poissons Ratio (x) = 0.46463 0.36208
# Poissons Ratio (y) = 0.32508 0.21305
# Poissons Ratio (z) = 0.23853 0.20061
#
# Static dielectric constant tensor:
#      x y z
#    x 1.762730 0.000000 0.000000 
#    y 0.000000 1.738940 0.000000 
#    z 0.000000 0.000000 1.721580 
# 
# From -- ./inp_files/17154.got.cif
#   From: 2010.05.17/outbox.cif.g08.bks.cpg/sg52_9_cif.got.tgz:17154.got - 2010.06.03 12:15:38.
