data_PCOD9409374
_publ_section_title
;
Structure prediction by ZEFSAII (Michael W. Deem and Ramdas Pophale) SiO2 
 PCOD9409374
Probable space group: P N N A
;
_chemical_formula_sum "Si O2"
_cell_formula_units_Z 36
_cell_length_a 14.917948
_cell_length_b 7.898285
_cell_length_c 12.750645
_cell_angle_alpha 90.000000
_cell_angle_beta 90.000000
_cell_angle_gamma 90.000000
_cell_volume 1502.360111
_symmetry_space_group_name_H-M "P N N A"
_symmetry_group_IT_number 52
_symmetry_cell_setting 'orthorhombic'
loop_
_space_group_symop_operation_xyz
x,y,z
1/2-x,-y,z
x,1/2-y,1/2-z
1/2-x,1/2+y,1/2-z
-x,-y,-z
1/2+x,y,-z
-x,1/2+y,1/2+z
1/2+x,1/2-y,1/2+z
loop_
_atom_site_type_symbol
_atom_site_label
_atom_site_fract_x
_atom_site_fract_y
_atom_site_fract_z
Si Si1 0.986199 0.318795 0.082350
Si Si2 0.862247 0.683164 0.449657
Si Si3 0.818453 0.197786 0.975055
Si Si4 0.656796 0.750000 0.750000
Si Si5 0.486686 0.977649 0.780188
O O1 0.963632 0.467230 0.162632
O O2 0.985918 0.147426 0.151107
O O3 0.908412 0.299744 0.997544
O O4 0.080300 0.306461 0.022993
O O5 0.846731 0.499231 0.507351
O O6 0.759608 0.741836 0.442186
O O7 0.918883 0.642284 0.345094
O O8 0.787872 0.245673 0.857524
O O9 0.586156 0.901993 0.769523
#
# Coordination Sequence:
#
# PCOD9409374 Si02
#       5
#     8   8   8   4   8
#     4  10  19  41  63  89 119 174 213 260 314 393
#     4  10  19  42  61  90 124 177 205 265 323 390
#     4  10  21  36  65  89 134 162 217 263 326 387
#     4  12  20  38  60 100 122 168 210 270 324 382
#     4  10  21  36  68  87 122 166 216 255 326 381
#
# _framework density 23.962299000000002
#
# number of rings (size 3 to 8) (size 9 to 14) (size 15 to 20)
#    0.000    1.778    4.444    1.333    0.000    2.667 
#    0.000    8.889    0.000    0.000    0.000    0.000 
#    0.000    0.000    0.000    0.000    0.000    0.000 
#
# Total GULP energy -201071.981001 kJ/mol
# GULP energy per Si atom -5585.332806 kJ/mol
# Density = 2.390776 g / cm^3
# Si number density = 23.962299 Si / 1000 Ang^3
#
#
#
# Elastic Constant Matrix: (Units=GPa)
#
#
# Indices 1 2 3 4 5 6 
#
# 1 95.7378 7.4123 13.5761 0.0000 0.0000 0.0000
# 2 7.4123 70.9790 39.0156 0.0000 0.0000 0.0000
# 3 13.5761 39.0156 104.1184 0.0000 0.0000 0.0000
# 4 0.0000 0.0000 0.0000 41.0212 0.0000 0.0000
# 5 0.0000 0.0000 0.0000 0.0000 23.2512 0.0000
# 6 0.0000 0.0000 0.0000 0.0000 0.0000 -1.8636
#
#
#
# Elastic Compliance Matrix: (Units=1/GPa)
#
#
# Indices 1 2 3 4 5 6 
#
# 1 0.010653 -0.000439 -0.001224 0.000000 0.000000 0.000000
# 2 -0.000439 0.017762 -0.006598 0.000000 0.000000 0.000000
# 3 -0.001224 -0.006598 0.012237 0.000000 0.000000 0.000000
# 4 0.000000 0.000000 0.000000 0.024378 0.000000 0.000000
# 5 0.000000 0.000000 0.000000 0.000000 0.043008 0.000000
# 6 0.000000 0.000000 0.000000 0.000000 0.000000 -0.536599
#
#
# Mechanical properties :
#
#
# Convention : Reuss Voigt Hill
#
# Bulk Modulus (GPa) = 41.44792 43.42702 42.43747
# Shear Modulus (GPa) = -12.37638 26.53718 7.08040
#
# Velocity S-wave (km/s) = -2.27512 3.33146 1.72082
# Velocity P-wave (km/s) = 3.23004 5.74113 4.65799
#
# Compressibility (1/GPa) = 0.02412667
#
# Stress axis : x y z
#
# Youngs Moduli (GPa) = 93.87167 56.30140 81.72160
#
# Poissons Ratio (x) = 0.02474 0.10006
# Poissons Ratio (y) = 0.04125 0.53923
# Poissons Ratio (z) = 0.11493 0.37150
#
# Static dielectric constant tensor:
#      x y z
#    x 1.859630 0.000000 0.000000 
#    y 0.000000 2.046600 0.000000 
#    z 0.000000 0.000000 1.910690 
# 
# From -- ./inp_files/26786.got.cif
#   From: 2010.05.17/outbox.cif.g08.bks.cpg/sg52_14_cif.got.tgz:26786.got - 2010.06.03 12:15:38.
