data_PCOD9409241
_publ_section_title
;
Structure prediction by ZEFSAII (Michael W. Deem and Ramdas Pophale) SiO2 
 PCOD9409241
Probable space group: P N N A
;
_chemical_formula_sum "Si O2"
_cell_formula_units_Z 48
_cell_length_a 22.431716
_cell_length_b 9.327859
_cell_length_c 10.126649
_cell_angle_alpha 90.000000
_cell_angle_beta 90.000000
_cell_angle_gamma 90.000000
_cell_volume 2118.898862
_symmetry_space_group_name_H-M "P N N A"
_symmetry_group_IT_number 52
_symmetry_cell_setting 'orthorhombic'
loop_
_space_group_symop_operation_xyz
x,y,z
1/2-x,-y,z
x,1/2-y,1/2-z
1/2-x,1/2+y,1/2-z
-x,-y,-z
1/2+x,y,-z
-x,1/2+y,1/2+z
1/2+x,1/2-y,1/2+z
loop_
_atom_site_type_symbol
_atom_site_label
_atom_site_fract_x
_atom_site_fract_y
_atom_site_fract_z
Si Si1 0.052084 0.326189 0.926183
Si Si2 0.431940 0.980841 0.035885
Si Si3 0.838140 0.336695 0.382990
Si Si4 0.667456 0.094860 0.290437
Si Si5 0.197540 0.582051 0.047901
Si Si6 0.931261 0.448686 0.841047
O O1 0.095826 0.393783 0.815469
O O2 0.984453 0.334958 0.871299
O O3 0.080688 0.175851 0.973219
O O4 0.054223 0.424517 0.056077
O O5 0.392728 0.105601 0.970345
O O6 0.429059 0.991996 0.193312
O O7 0.500000 0.000000 0.000000
O O8 0.857365 0.250000 0.250000
O O9 0.814242 0.482157 0.319811
O O10 0.796630 0.234259 0.471779
O O11 0.690044 0.250000 0.250000
O O12 0.688173 0.033937 0.430523
O O13 0.250000 0.500000 0.127220
O O14 0.135689 0.600480 0.125311
#
# Coordination Sequence:
#
# PCOD9409241 Si02
#       6
#     8   8   8   8   8   8
#     4  10  21  39  62  99 136 178 219 285 360 421
#     4  12  23  35  65  98 136 178 225 276 350 430
#     4  10  22  39  63  97 136 171 227 281 336 404
#     4  10  19  37  67  97 136 170 221 284 350 411
#     4  10  23  43  65  90 133 182 232 284 332 397
#     4  10  23  40  65  94 136 179 227 281 353 424
#
# _framework density 22.653274
#
# number of rings (size 3 to 8) (size 9 to 14) (size 15 to 20)
#    0.000    1.667    1.667    2.500    0.000    8.000 
#    0.000    0.000   14.667    1.000    0.000    0.000 
#    0.000    0.000    0.000    0.000    0.000    0.000 
#
# Total GULP energy -267993.978565 kJ/mol
# GULP energy per Si atom -5583.207887 kJ/mol
# Density = 2.260171 g / cm^3
# Si number density = 22.653274 Si / 1000 Ang^3
#
#
#
# Elastic Constant Matrix: (Units=GPa)
#
#
# Indices 1 2 3 4 5 6 
#
# 1 133.2412 35.2563 33.1353 0.0000 0.0000 0.0000
# 2 35.2563 154.0419 42.6424 0.0000 0.0000 0.0000
# 3 33.1353 42.6424 131.2210 0.0000 0.0000 0.0000
# 4 0.0000 0.0000 0.0000 33.0083 0.0000 0.0000
# 5 0.0000 0.0000 0.0000 0.0000 6.3595 0.0000
# 6 0.0000 0.0000 0.0000 0.0000 0.0000 34.1509
#
#
#
# Elastic Compliance Matrix: (Units=1/GPa)
#
#
# Indices 1 2 3 4 5 6 
#
# 1 0.008292 -0.001449 -0.001623 0.000000 0.000000 0.000000
# 2 -0.001449 0.007386 -0.002035 0.000000 0.000000 0.000000
# 3 -0.001623 -0.002035 0.008692 0.000000 0.000000 0.000000
# 4 0.000000 0.000000 0.000000 0.030295 0.000000 0.000000
# 5 0.000000 0.000000 0.000000 0.000000 0.157245 0.000000
# 6 0.000000 0.000000 0.000000 0.000000 0.000000 0.029282
#
#
# Mechanical properties :
#
#
# Convention : Reuss Voigt Hill
#
# Bulk Modulus (GPa) = 70.63222 71.17467 70.90344
# Shear Modulus (GPa) = 19.52172 35.20173 27.36172
#
# Velocity S-wave (km/s) = 2.93876 3.94628 3.47918
# Velocity P-wave (km/s) = 6.53930 7.22852 6.89253
#
# Compressibility (1/GPa) = 0.01415784
#
# Stress axis : x y z
#
# Youngs Moduli (GPa) = 120.59621 135.38222 115.05126
#
# Poissons Ratio (x) = 0.19611 0.18675
# Poissons Ratio (y) = 0.17469 0.23408
# Poissons Ratio (z) = 0.19575 0.27545
#
# Static dielectric constant tensor:
#      x y z
#    x 1.946520 0.000000 0.000000 
#    y 0.000000 1.942910 0.000000 
#    z 0.000000 0.000000 1.804190 
# 
# From -- ./inp_files/34005.got.cif
#   From: 2010.05.17/outbox.cif.g08.bks.cpg/sg52_18_cif.got.tgz:34005.got - 2010.06.03 12:15:38.
