data_PCOD9409180
_publ_section_title
;
Structure prediction by ZEFSAII (Michael W. Deem and Ramdas Pophale) SiO2 
 PCOD9409180
Probable space group: P N N A
;
_chemical_formula_sum "Si O2"
_cell_formula_units_Z 64
_cell_length_a 24.348799
_cell_length_b 11.565786
_cell_length_c 11.907233
_cell_angle_alpha 90.000000
_cell_angle_beta 90.000000
_cell_angle_gamma 90.000000
_cell_volume 3353.231590
_symmetry_space_group_name_H-M "P N N A"
_symmetry_group_IT_number 52
_symmetry_cell_setting 'orthorhombic'
loop_
_space_group_symop_operation_xyz
x,y,z
1/2-x,-y,z
x,1/2-y,1/2-z
1/2-x,1/2+y,1/2-z
-x,-y,-z
1/2+x,y,-z
-x,1/2+y,1/2+z
1/2+x,1/2-y,1/2+z
loop_
_atom_site_type_symbol
_atom_site_label
_atom_site_fract_x
_atom_site_fract_y
_atom_site_fract_z
Si Si1 0.314923 0.764783 0.615739
Si Si2 0.033979 0.538236 0.176823
Si Si3 0.592975 0.443375 0.161464
Si Si4 0.983312 0.724511 0.880656
Si Si5 0.695032 0.725454 0.381940
Si Si6 0.445830 0.967083 0.069052
Si Si7 0.092069 0.830685 0.507622
Si Si8 0.648970 0.014123 0.095597
O O1 0.312200 0.750000 0.750000
O O2 0.365372 0.853036 0.602719
O O3 0.251678 0.790034 0.586475
O O4 0.327156 0.639241 0.567197
O O5 0.034113 0.410584 0.116484
O O6 0.048320 0.516602 0.305913
O O7 0.076665 0.620811 0.114153
O O8 0.971673 0.588461 0.167939
O O9 0.615698 0.469393 0.286748
O O10 0.594617 0.559695 0.090708
O O11 0.995705 0.750000 0.750000
O O12 0.943292 0.826536 0.920595
O O13 0.038976 0.738940 0.950328
O O14 0.681860 0.750000 0.250000
O O15 0.647827 0.765946 0.466223
O O16 0.693718 0.586166 0.389631
O O17 0.394175 0.013959 0.001501
O O18 0.500000 0.000000 0.000000
#
# Coordination Sequence:
#
# PCOD9409180 Si02
#       8
#     8   8   8   8   8   8   8   8
#     4   9  22  36  58  87 118 150 191 253 306 348
#     4  10  22  37  55  87 124 159 194 235 293 361
#     4  10  19  37  56  89 121 150 187 242 300 353
#     4   9  19  34  55  79 116 160 193 224 283 358
#     4  11  21  39  58  84 118 157 200 241 304 363
#     4  11  21  36  55  85 121 161 195 236 291 354
#     4  11  21  33  60  84 122 153 191 239 290 356
#     4  11  21  36  58  86 119 153 200 242 294 355
#
# _framework density 19.086065000000001
#
# number of rings (size 3 to 8) (size 9 to 14) (size 15 to 20)
#    0.000    1.750    2.500    3.000    5.250    0.500 
#    0.000    2.500    0.000    0.000    9.750    0.000 
#    0.000    0.000    0.000    0.000    0.000    0.000 
#
# Total GULP energy -357005.474267 kJ/mol
# GULP energy per Si atom -5578.210535 kJ/mol
# Density = 1.904262 g / cm^3
# Si number density = 19.086065 Si / 1000 Ang^3
#
#
#
# Elastic Constant Matrix: (Units=GPa)
#
#
# Indices 1 2 3 4 5 6 
#
# 1 87.6432 39.3988 35.0516 0.0000 0.0000 0.0000
# 2 39.3988 73.3778 22.2633 0.0000 0.0000 0.0000
# 3 35.0516 22.2633 65.0667 0.0000 0.0000 0.0000
# 4 0.0000 0.0000 0.0000 17.7123 0.0000 0.0000
# 5 0.0000 0.0000 0.0000 0.0000 13.6836 0.0000
# 6 0.0000 0.0000 0.0000 0.0000 0.0000 28.2447
#
#
#
# Elastic Compliance Matrix: (Units=1/GPa)
#
#
# Indices 1 2 3 4 5 6 
#
# 1 0.017440 -0.007268 -0.006908 0.000000 0.000000 0.000000
# 2 -0.007268 0.018236 -0.002324 0.000000 0.000000 0.000000
# 3 -0.006908 -0.002324 0.019885 0.000000 0.000000 0.000000
# 4 0.000000 0.000000 0.000000 0.056458 0.000000 0.000000
# 5 0.000000 0.000000 0.000000 0.000000 0.073080 0.000000
# 6 0.000000 0.000000 0.000000 0.000000 0.000000 0.035405
#
#
# Mechanical properties :
#
#
# Convention : Reuss Voigt Hill
#
# Bulk Modulus (GPa) = 44.32547 46.61280 45.46914
# Shear Modulus (GPa) = 19.15524 20.55306 19.85415
#
# Velocity S-wave (km/s) = 3.17144 3.28512 3.22878
# Velocity P-wave (km/s) = 6.05682 6.23416 6.14613
#
# Compressibility (1/GPa) = 0.02256039
#
# Stress axis : x y z
#
# Youngs Moduli (GPa) = 57.33960 54.83739 50.28790
#
# Poissons Ratio (x) = 0.39856 0.34739
# Poissons Ratio (y) = 0.41675 0.11688
# Poissons Ratio (z) = 0.39611 0.12745
#
# Static dielectric constant tensor:
#      x y z
#    x 1.706910 0.000000 0.000000 
#    y 0.000000 1.738890 0.000000 
#    z 0.000000 0.000000 1.638500 
# 
# From -- ./inp_files/22498.got.cif
#   From: 2010.05.17/outbox.cif.g08.bks.cpg/sg52_12_cif.got.tgz:22498.got - 2010.06.03 12:15:38.
