data_PCOD9409410
_publ_section_title
;
Structure prediction by ZEFSAII (Michael W. Deem and Ramdas Pophale) SiO2 
 PCOD9409410
Probable space group: P N N A
;
_chemical_formula_sum "Si O2"
_cell_formula_units_Z 64
_cell_length_a 9.449186
_cell_length_b 16.118861
_cell_length_c 24.911778
_cell_angle_alpha 90.000000
_cell_angle_beta 90.000000
_cell_angle_gamma 90.000000
_cell_volume 3794.315789
_symmetry_space_group_name_H-M "P N N A"
_symmetry_group_IT_number 52
_symmetry_cell_setting 'orthorhombic'
loop_
_space_group_symop_operation_xyz
x,y,z
1/2-x,-y,z
x,1/2-y,1/2-z
1/2-x,1/2+y,1/2-z
-x,-y,-z
1/2+x,y,-z
-x,1/2+y,1/2+z
1/2+x,1/2-y,1/2+z
loop_
_atom_site_type_symbol
_atom_site_label
_atom_site_fract_x
_atom_site_fract_y
_atom_site_fract_z
Si Si1 0.114422 0.792717 0.608027
Si Si2 0.676027 0.686492 0.986021
Si Si3 0.133103 0.830307 0.210065
Si Si4 0.103500 0.513887 0.863197
Si Si5 0.416199 0.924261 0.526381
Si Si6 0.103478 0.605116 0.183282
Si Si7 0.790336 0.759415 0.622411
Si Si8 0.860552 0.754360 0.310871
O O1 0.158656 0.779133 0.546129
O O2 0.097142 0.891365 0.618567
O O3 0.236386 0.758116 0.646540
O O4 0.958816 0.759309 0.620617
O O5 0.523749 0.651919 0.969284
O O6 0.734392 0.743297 0.938607
O O7 0.783698 0.608455 0.992600
O O8 0.152068 0.750000 0.250000
O O9 0.148947 0.901183 0.254344
O O10 0.236101 0.814147 0.160852
O O11 0.974309 0.820654 0.186847
O O12 0.250000 0.500000 0.830309
O O13 0.123210 0.455079 0.915018
O O14 0.957143 0.481623 0.837870
O O15 0.500000 0.000000 0.500000
O O16 0.219144 0.655655 0.147864
O O17 0.962407 0.664788 0.182213
O O18 0.803451 0.750000 0.250000
#
# Coordination Sequence:
#
# PCOD9409410 Si02
#       8
#     8   8   8   8   8   8   8   8
#     4  12  22  28  43  69  88 117 152 195 233 253
#     4  12  21  29  40  60  86 118 157 189 220 261
#     4   7  16  32  50  58  72 113 154 192 228 270
#     4  12  19  28  45  62  90 120 153 188 215 265
#     4  12  20  31  39  54  88 129 157 180 216 257
#     4   9  17  33  47  59  80 114 154 186 228 274
#     4  10  20  31  42  60  82 113 156 195 224 261
#     4   8  16  30  46  59  77 109 151 184 224 268
#
# _framework density 16.867336999999999
#
# number of rings (size 3 to 8) (size 9 to 14) (size 15 to 20)
#    0.000    2.250    6.250    0.375    1.750    2.000 
#    0.000    0.000    0.000    0.000    0.000    0.000 
#    0.000    0.000    0.000    1.125    0.750   15.375 
#
# Total GULP energy -356361.207442 kJ/mol
# GULP energy per Si atom -5568.143866 kJ/mol
# Density = 1.682895 g / cm^3
# Si number density = 16.867337 Si / 1000 Ang^3
#
#
#
# Elastic Constant Matrix: (Units=GPa)
#
#
# Indices 1 2 3 4 5 6 
#
# 1 97.2188 2.3925 55.3701 0.0000 0.0000 0.0000
# 2 2.3925 6.7837 17.7920 0.0000 0.0000 0.0000
# 3 55.3701 17.7920 118.2478 0.0000 0.0000 0.0000
# 4 0.0000 0.0000 0.0000 7.1120 0.0000 0.0000
# 5 0.0000 0.0000 0.0000 0.0000 17.4434 0.0000
# 6 0.0000 0.0000 0.0000 0.0000 0.0000 13.1561
#
#
#
# Elastic Compliance Matrix: (Units=1/GPa)
#
#
# Indices 1 2 3 4 5 6 
#
# 1 0.015948 0.023062 -0.010938 0.000000 0.000000 0.000000
# 2 0.023062 0.276855 -0.052456 0.000000 0.000000 0.000000
# 3 -0.010938 -0.052456 0.021471 0.000000 0.000000 0.000000
# 4 0.000000 0.000000 0.000000 0.140607 0.000000 0.000000
# 5 0.000000 0.000000 0.000000 0.000000 0.057328 0.000000
# 6 0.000000 0.000000 0.000000 0.000000 0.000000 0.076010
#
#
# Mechanical properties :
#
#
# Convention : Reuss Voigt Hill
#
# Bulk Modulus (GPa) = 4.28061 41.48441 22.88251
# Shear Modulus (GPa) = 6.69566 17.32202 12.00884
#
# Velocity S-wave (km/s) = 1.99455 3.20809 2.67115
# Velocity P-wave (km/s) = 2.80136 6.19438 4.80718
#
# Compressibility (1/GPa) = 0.23361176
#
# Stress axis : x y z
#
# Youngs Moduli (GPa) = 62.70360 3.61200 46.57411
#
# Poissons Ratio (x) = -0.08330 0.50942
# Poissons Ratio (y) = -1.44609 2.44307
# Poissons Ratio (z) = 0.68584 0.18947
#
# Static dielectric constant tensor:
#      x y z
#    x 1.632160 0.000000 0.000000 
#    y 0.000000 1.603100 0.000000 
#    z 0.000000 0.000000 1.622510 
# 
# From -- ./inp_files/39761.got.cif
#   From: 2010.05.17/outbox.cif.g08.bks.cpg/sg52_20_cif.got.tgz:39761.got - 2010.06.03 12:15:38.
