data_PCOD9409858
_publ_section_title
;
Structure prediction by ZEFSAII (Michael W. Deem and Ramdas Pophale) SiO2 
 PCOD9409858
Probable space group: P N N A
;
_chemical_formula_sum "Si O2"
_cell_formula_units_Z 44
_cell_length_a 14.964613
_cell_length_b 25.900222
_cell_length_c 4.911016
_cell_angle_alpha 90.000000
_cell_angle_beta 90.000000
_cell_angle_gamma 90.000000
_cell_volume 1903.444971
_symmetry_space_group_name_H-M "P N N A"
_symmetry_group_IT_number 52
_symmetry_cell_setting 'orthorhombic'
loop_
_space_group_symop_operation_xyz
x,y,z
1/2-x,-y,z
x,1/2-y,1/2-z
1/2-x,1/2+y,1/2-z
-x,-y,-z
1/2+x,y,-z
-x,1/2+y,1/2+z
1/2+x,1/2-y,1/2+z
loop_
_atom_site_type_symbol
_atom_site_label
_atom_site_fract_x
_atom_site_fract_y
_atom_site_fract_z
Si Si1 0.427538 0.250000 0.750000
Si Si2 0.155221 0.914038 0.970220
Si Si3 0.650084 0.078417 0.924828
Si Si4 0.883532 0.149097 0.525618
Si Si5 0.941473 0.750000 0.250000
Si Si6 0.500000 0.000000 0.000000
Si Si7 0.903466 0.857573 0.443581
O O1 0.370241 0.205262 0.605765
O O2 0.494279 0.267071 0.502838
O O3 0.248374 0.939521 0.053367
O O4 0.140587 0.864535 0.166536
O O5 0.070902 0.951420 0.988890
O O6 0.162778 0.893014 0.664762
O O7 0.645156 0.125739 0.716136
O O8 0.619717 0.100385 0.216561
O O9 0.578071 0.035377 0.847642
O O10 0.990418 0.141484 0.502656
O O11 0.885955 0.799589 0.343270
#
# Coordination Sequence:
#
# PCOD9409858 Si02
#       7
#     4   8   8   8   4   4   8
#     4  10  20  36  71 106 135 190 236 272 339 432
#     4  12  26  44  70 102 138 177 233 290 346 411
#     4  12  26  44  70 102 138 177 233 290 346 411
#     4  11  21  44  68 102 140 182 226 282 342 414
#     4  10  20  36  71 106 135 190 236 272 339 432
#     4  12  26  50  72  96 136 190 234 286 360 410
#     4  11  21  44  68 102 140 182 226 282 342 414
#
# _framework density 23.115981000000001
#
# number of rings (size 3 to 8) (size 9 to 14) (size 15 to 20)
#    0.000    0.727    3.636    6.000    0.000    2.909 
#    0.000    9.091    0.000    0.000    0.000    0.000 
#    0.000    0.000    0.000    0.000    0.000    0.000 
#
# Total GULP energy -244992.529563 kJ/mol
# GULP energy per Si atom -5568.012036 kJ/mol
# Density = 2.306337 g / cm^3
# Si number density = 23.115981 Si / 1000 Ang^3
#
#
#
# Elastic Constant Matrix: (Units=GPa)
#
#
# Indices 1 2 3 4 5 6 
#
# 1 82.4975 3.2740 1.7793 0.0000 0.0000 0.0000
# 2 3.2740 64.5397 -6.4021 0.0000 0.0000 0.0000
# 3 1.7793 -6.4021 74.8018 0.0000 0.0000 0.0000
# 4 0.0000 0.0000 0.0000 -9.0620 0.0000 0.0000
# 5 0.0000 0.0000 0.0000 0.0000 24.8964 0.0000
# 6 0.0000 0.0000 0.0000 0.0000 0.0000 -12.1922
#
#
#
# Elastic Compliance Matrix: (Units=1/GPa)
#
#
# Indices 1 2 3 4 5 6 
#
# 1 0.012155 -0.000651 -0.000345 0.000000 0.000000 0.000000
# 2 -0.000651 0.015662 0.001356 0.000000 0.000000 0.000000
# 3 -0.000345 0.001356 0.013493 0.000000 0.000000 0.000000
# 4 0.000000 0.000000 0.000000 -0.110351 0.000000 0.000000
# 5 0.000000 0.000000 0.000000 0.000000 0.040167 0.000000
# 6 0.000000 0.000000 0.000000 0.000000 0.000000 -0.082019
#
#
# Mechanical properties :
#
#
# Convention : Reuss Voigt Hill
#
# Bulk Modulus (GPa) = 23.79242 24.34907 24.07075
# Shear Modulus (GPa) = -51.22713 15.60761 -17.80976
#
# Velocity S-wave (km/s) = -4.71265 2.60126 -2.77871
# Velocity P-wave (km/s) = 4.39284 4.42474 0.37502
#
# Compressibility (1/GPa) = 0.04203019
#
# Stress axis : x y z
#
# Youngs Moduli (GPa) = 82.27175 63.84943 74.11302
#
# Poissons Ratio (x) = 0.04155 0.02556
# Poissons Ratio (y) = 0.05354 -0.10049
# Poissons Ratio (z) = 0.02837 -0.08658
#
# Static dielectric constant tensor:
#      x y z
#    x 1.856520 0.000000 0.000000 
#    y 0.000000 1.887870 0.000000 
#    z 0.000000 0.000000 1.852090 
# 
# From -- ./inp_files/2560.got.cif
#   From: 2010.05.17/outbox.cif.g08.bks.cpg/sg52_2_cif.got.tgz:2560.got - 2010.06.03 12:15:38.
