data_PCOD9409176
_publ_section_title
;
Structure prediction by ZEFSAII (Michael W. Deem and Ramdas Pophale) SiO2 
 PCOD9409176
Probable space group: P N N A
;
_chemical_formula_sum "Si O2"
_cell_formula_units_Z 32
_cell_length_a 26.227033
_cell_length_b 7.823540
_cell_length_c 7.450239
_cell_angle_alpha 90.000000
_cell_angle_beta 90.000000
_cell_angle_gamma 90.000000
_cell_volume 1528.701441
_symmetry_space_group_name_H-M "P N N A"
_symmetry_group_IT_number 52
_symmetry_cell_setting 'orthorhombic'
loop_
_space_group_symop_operation_xyz
x,y,z
1/2-x,-y,z
x,1/2-y,1/2-z
1/2-x,1/2+y,1/2-z
-x,-y,-z
1/2+x,y,-z
-x,1/2+y,1/2+z
1/2+x,1/2-y,1/2+z
loop_
_atom_site_type_symbol
_atom_site_label
_atom_site_fract_x
_atom_site_fract_y
_atom_site_fract_z
Si Si1 0.588562 0.506275 0.643566
Si Si2 0.011816 0.750000 0.250000
Si Si3 0.667797 0.250000 0.250000
Si Si4 0.077166 0.135363 0.533980
Si Si5 0.197911 0.092726 0.112361
O O1 0.548444 0.655144 0.607584
O O2 0.576908 0.332723 0.536252
O O3 0.580580 0.473100 0.855304
O O4 0.648814 0.531821 0.617264
O O5 0.973039 0.881078 0.346583
O O6 0.628137 0.119380 0.346489
O O7 0.699546 0.332341 0.410653
O O8 0.187561 0.250000 0.250000
O O9 0.250000 0.000000 0.160757
#
# Coordination Sequence:
#
# PCOD9409176 Si02
#       5
#     8   4   4   8   8
#     4  10  19  37  54  83 120 154 190 243 291 343
#     4  11  20  28  58  90 112 150 204 233 280 356
#     4   9  18  40  60  84 110 154 194 233 292 356
#     4   9  18  36  57  76 118 160 184 230 300 349
#     4  11  23  41  65  86 118 159 197 248 303 348
#
# _framework density 20.932797000000001
#
# number of rings (size 3 to 8) (size 9 to 14) (size 15 to 20)
#    0.000    2.000    5.000    1.500    1.750    1.000 
#    0.000    0.000    0.000    0.000    0.000    0.000 
#    0.000    0.000    0.000    0.000    0.000    0.000 
#
# Total GULP energy -178467.077705 kJ/mol
# GULP energy per Si atom -5577.096178 kJ/mol
# Density = 2.088515 g / cm^3
# Si number density = 20.932797 Si / 1000 Ang^3
#
#
#
# Elastic Constant Matrix: (Units=GPa)
#
#
# Indices 1 2 3 4 5 6 
#
# 1 105.4794 5.6072 -9.7626 0.0000 0.0000 0.0000
# 2 5.6072 24.9464 -4.7970 0.0000 0.0000 0.0000
# 3 -9.7626 -4.7970 92.6125 0.0000 0.0000 0.0000
# 4 0.0000 0.0000 0.0000 14.7202 0.0000 0.0000
# 5 0.0000 0.0000 0.0000 0.0000 13.3105 0.0000
# 6 0.0000 0.0000 0.0000 0.0000 0.0000 25.8333
#
#
#
# Elastic Compliance Matrix: (Units=1/GPa)
#
#
# Indices 1 2 3 4 5 6 
#
# 1 0.009672 -0.001998 0.000916 0.000000 0.000000 0.000000
# 2 -0.001998 0.040902 0.001908 0.000000 0.000000 0.000000
# 3 0.000916 0.001908 0.010993 0.000000 0.000000 0.000000
# 4 0.000000 0.000000 0.000000 0.067934 0.000000 0.000000
# 5 0.000000 0.000000 0.000000 0.000000 0.075128 0.000000
# 6 0.000000 0.000000 0.000000 0.000000 0.000000 0.038710
#
#
# Mechanical properties :
#
#
# Convention : Reuss Voigt Hill
#
# Bulk Modulus (GPa) = 15.81804 22.79262 19.30533
# Shear Modulus (GPa) = 19.02885 26.23885 22.63385
#
# Velocity S-wave (km/s) = 3.01831 3.54429 3.29182
# Velocity P-wave (km/s) = 4.44071 5.25942 4.86731
#
# Compressibility (1/GPa) = 0.06321894
#
# Stress axis : x y z
#
# Youngs Moduli (GPa) = 103.39650 24.44880 90.96648
#
# Poissons Ratio (x) = 0.04884 -0.08333
# Poissons Ratio (y) = 0.20656 -0.17356
# Poissons Ratio (z) = -0.09471 -0.04665
#
# Static dielectric constant tensor:
#      x y z
#    x 1.771430 0.000000 0.000000 
#    y 0.000000 1.825780 0.000000 
#    z 0.000000 0.000000 1.776460 
# 
# From -- ./inp_files/13898.got.cif
#   From: 2010.05.17/outbox.cif.g08.bks.cpg/sg52_7_cif.got.tgz:13898.got - 2010.06.03 12:15:38.
