data_PCOD9409630
_publ_section_title
;
Structure prediction by ZEFSAII (Michael W. Deem and Ramdas Pophale) SiO2 
 PCOD9409630
Probable space group: P N N A
;
_chemical_formula_sum "Si O2"
_cell_formula_units_Z 40
_cell_length_a 14.899142
_cell_length_b 8.428881
_cell_length_c 19.731367
_cell_angle_alpha 90.000000
_cell_angle_beta 90.000000
_cell_angle_gamma 90.000000
_cell_volume 2477.926135
_symmetry_space_group_name_H-M "P N N A"
_symmetry_group_IT_number 52
_symmetry_cell_setting 'orthorhombic'
loop_
_space_group_symop_operation_xyz
x,y,z
1/2-x,-y,z
x,1/2-y,1/2-z
1/2-x,1/2+y,1/2-z
-x,-y,-z
1/2+x,y,-z
-x,1/2+y,1/2+z
1/2+x,1/2-y,1/2+z
loop_
_atom_site_type_symbol
_atom_site_label
_atom_site_fract_x
_atom_site_fract_y
_atom_site_fract_z
Si Si1 0.379494 0.634200 0.421636
Si Si2 0.822931 0.224277 0.937553
Si Si3 0.035628 0.656241 0.961949
Si Si4 0.020657 0.331058 0.184496
Si Si5 0.839926 0.097958 0.702394
O O1 0.283283 0.699068 0.445349
O O2 0.368047 0.445653 0.419710
O O3 0.459854 0.704674 0.467508
O O4 0.405210 0.710251 0.348641
O O5 0.835784 0.343206 0.875140
O O6 0.873024 0.290213 0.003200
O O7 0.040556 0.631430 0.880768
O O8 0.000000 0.500000 0.000000
O O9 0.977729 0.250000 0.250000
O O10 0.074421 0.485104 0.207774
O O11 0.845217 0.250000 0.750000
O O12 0.750000 0.000000 0.718626
#
# Coordination Sequence:
#
# PCOD9409630 Si02
#       5
#     8   8   8   8   8
#     4   9  21  32  55  77 109 138 184 221 282 328
#     4  11  19  35  53  78 108 147 179 227 271 335
#     4  10  20  35  54  76 110 143 185 228 268 333
#     4  10  20  36  49  77 108 143 180 223 274 334
#     4  12  22  30  49  76 114 150 179 214 274 341
#
# _framework density 16.142531999999999
#
# number of rings (size 3 to 8) (size 9 to 14) (size 15 to 20)
#    1.200    0.400    4.000    2.400    2.800    0.000 
#    0.000    0.000    0.000    0.000    0.000    7.000 
#    0.000    0.000    0.000    0.000    0.000    0.000 
#
# Total GULP energy -222797.523092 kJ/mol
# GULP energy per Si atom -5569.938077 kJ/mol
# Density = 1.610579 g / cm^3
# Si number density = 16.142532 Si / 1000 Ang^3
#
#
#
# Elastic Constant Matrix: (Units=GPa)
#
#
# Indices 1 2 3 4 5 6 
#
# 1 24.0149 -1.2844 22.3924 0.0000 0.0000 0.0000
# 2 -1.2844 53.6932 27.9868 0.0000 0.0000 0.0000
# 3 22.3924 27.9868 106.0106 0.0000 0.0000 0.0000
# 4 0.0000 0.0000 0.0000 33.4172 0.0000 0.0000
# 5 0.0000 0.0000 0.0000 0.0000 22.5623 0.0000
# 6 0.0000 0.0000 0.0000 0.0000 0.0000 19.5048
#
#
#
# Elastic Compliance Matrix: (Units=1/GPa)
#
#
# Indices 1 2 3 4 5 6 
#
# 1 0.055046 0.008554 -0.013886 0.000000 0.000000 0.000000
# 2 0.008554 0.022926 -0.007859 0.000000 0.000000 0.000000
# 3 -0.013886 -0.007859 0.014441 0.000000 0.000000 0.000000
# 4 0.000000 0.000000 0.000000 0.029925 0.000000 0.000000
# 5 0.000000 0.000000 0.000000 0.000000 0.044322 0.000000
# 6 0.000000 0.000000 0.000000 0.000000 0.000000 0.051269
#
#
# Mechanical properties :
#
#
# Convention : Reuss Voigt Hill
#
# Bulk Modulus (GPa) = 15.14430 31.32313 23.23372
# Shear Modulus (GPa) = 18.77444 24.07178 21.42311
#
# Velocity S-wave (km/s) = 3.41404 3.86580 3.64692
# Velocity P-wave (km/s) = 4.99428 6.27472 5.67076
#
# Compressibility (1/GPa) = 0.06603146
#
# Stress axis : x y z
#
# Youngs Moduli (GPa) = 18.16665 43.61953 69.24778
#
# Poissons Ratio (x) = -0.37314 0.96155
# Poissons Ratio (y) = -0.15541 0.54424
# Poissons Ratio (z) = 0.25226 0.34282
#
# Static dielectric constant tensor:
#      x y z
#    x 1.512890 0.000000 0.000000 
#    y 0.000000 1.576110 0.000000 
#    z 0.000000 0.000000 1.551410 
# 
# From -- ./inp_files/37119.got.cif
#   From: 2010.05.17/outbox.cif.g08.bks.cpg/sg52_19_cif.got.tgz:37119.got - 2010.06.03 12:15:38.
