data_PCOD9409690
_publ_section_title
;
Structure prediction by ZEFSAII (Michael W. Deem and Ramdas Pophale) SiO2 
 PCOD9409690
Probable space group: P N N A
;
_chemical_formula_sum "Si O2"
_cell_formula_units_Z 40
_cell_length_a 14.961832
_cell_length_b 8.088629
_cell_length_c 14.080687
_cell_angle_alpha 90.000000
_cell_angle_beta 90.000000
_cell_angle_gamma 90.000000
_cell_volume 1704.054713
_symmetry_space_group_name_H-M "P N N A"
_symmetry_group_IT_number 52
_symmetry_cell_setting 'orthorhombic'
loop_
_space_group_symop_operation_xyz
x,y,z
1/2-x,-y,z
x,1/2-y,1/2-z
1/2-x,1/2+y,1/2-z
-x,-y,-z
1/2+x,y,-z
-x,1/2+y,1/2+z
1/2+x,1/2-y,1/2+z
loop_
_atom_site_type_symbol
_atom_site_label
_atom_site_fract_x
_atom_site_fract_y
_atom_site_fract_z
Si Si1 0.519772 0.423500 0.698713
Si Si2 0.572800 0.256673 0.981719
Si Si3 0.321498 0.134524 0.831453
Si Si4 0.275247 0.188538 0.493308
Si Si5 0.932584 0.115428 0.626904
O O1 0.545089 0.250000 0.750000
O O2 0.542220 0.388820 0.589309
O O3 0.413173 0.438457 0.706529
O O4 0.559520 0.568792 0.762527
O O5 0.678666 0.226294 0.995067
O O6 0.565045 0.434845 0.927113
O O7 0.513173 0.281069 0.076932
O O8 0.282096 0.250000 0.750000
O O9 0.250000 0.000000 0.855643
O O10 0.338404 0.244305 0.923727
O O11 0.336316 0.192061 0.399953
O O12 0.250000 0.000000 0.514529
#
# Coordination Sequence:
#
# PCOD9409690 Si02
#       5
#     8   8   8   8   8
#     4   9  18  33  56  87 129 166 214 274 319 388
#     4   9  17  31  57  90 121 170 216 267 327 386
#     4  11  23  36  56  92 129 164 214 273 327 390
#     4  10  20  35  61  92 122 169 219 267 325 397
#     4   9  17  31  56  91 124 166 217 264 326 393
#
# _framework density 23.473424000000001
#
# number of rings (size 3 to 8) (size 9 to 14) (size 15 to 20)
#    0.000    2.400    2.000    0.600   11.200    0.000 
#    0.000    1.000    0.000   10.800   20.800    0.000 
#    0.000    0.000    0.000    0.000    0.000    0.000 
#
# Total GULP energy -223433.903006 kJ/mol
# GULP energy per Si atom -5585.847575 kJ/mol
# Density = 2.342000 g / cm^3
# Si number density = 23.473424 Si / 1000 Ang^3
#
#
#
# Elastic Constant Matrix: (Units=GPa)
#
#
# Indices 1 2 3 4 5 6 
#
# 1 96.1982 38.8597 38.9800 0.0000 0.0000 0.0000
# 2 38.8597 65.5244 44.9693 0.0000 0.0000 0.0000
# 3 38.9800 44.9693 105.5673 0.0000 0.0000 0.0000
# 4 0.0000 0.0000 0.0000 33.6063 0.0000 0.0000
# 5 0.0000 0.0000 0.0000 0.0000 16.7295 0.0000
# 6 0.0000 0.0000 0.0000 0.0000 0.0000 11.8287
#
#
#
# Elastic Compliance Matrix: (Units=1/GPa)
#
#
# Indices 1 2 3 4 5 6 
#
# 1 0.014060 -0.006748 -0.002317 0.000000 0.000000 0.000000
# 2 -0.006748 0.024805 -0.008075 0.000000 0.000000 0.000000
# 3 -0.002317 -0.008075 0.013768 0.000000 0.000000 0.000000
# 4 0.000000 0.000000 0.000000 0.029756 0.000000 0.000000
# 5 0.000000 0.000000 0.000000 0.000000 0.059774 0.000000
# 6 0.000000 0.000000 0.000000 0.000000 0.000000 0.084540
#
#
# Mechanical properties :
#
#
# Convention : Reuss Voigt Hill
#
# Bulk Modulus (GPa) = 54.48643 56.98974 55.73809
# Shear Modulus (GPa) = 18.71945 22.06496 20.39221
#
# Velocity S-wave (km/s) = 2.82702 3.06926 2.95063
# Velocity P-wave (km/s) = 5.82395 6.07385 5.95021
#
# Compressibility (1/GPa) = 0.01835319
#
# Stress axis : x y z
#
# Youngs Moduli (GPa) = 71.12353 40.31394 72.63316
#
# Poissons Ratio (x) = 0.27205 0.16829
# Poissons Ratio (y) = 0.47996 0.58650
# Poissons Ratio (z) = 0.16479 0.32553
#
# Static dielectric constant tensor:
#      x y z
#    x 1.861450 0.000000 0.000000 
#    y 0.000000 1.932410 0.000000 
#    z 0.000000 0.000000 1.972840 
# 
# From -- ./inp_files/26919.got.cif
#   From: 2010.05.17/outbox.cif.g08.bks.cpg/sg52_14_cif.got.tgz:26919.got - 2010.06.03 12:15:38.
