data_PCOD9409636
_publ_section_title
;
Structure prediction by ZEFSAII (Michael W. Deem and Ramdas Pophale) SiO2 
 PCOD9409636
Probable space group: P N N A
;
_chemical_formula_sum "Si O2"
_cell_formula_units_Z 40
_cell_length_a 9.552429
_cell_length_b 8.240368
_cell_length_c 26.245036
_cell_angle_alpha 90.000000
_cell_angle_beta 90.000000
_cell_angle_gamma 90.000000
_cell_volume 2065.891925
_symmetry_space_group_name_H-M "P N N A"
_symmetry_group_IT_number 52
_symmetry_cell_setting 'orthorhombic'
loop_
_space_group_symop_operation_xyz
x,y,z
1/2-x,-y,z
x,1/2-y,1/2-z
1/2-x,1/2+y,1/2-z
-x,-y,-z
1/2+x,y,-z
-x,1/2+y,1/2+z
1/2+x,1/2-y,1/2+z
loop_
_atom_site_type_symbol
_atom_site_label
_atom_site_fract_x
_atom_site_fract_y
_atom_site_fract_z
Si Si1 0.511730 0.300140 0.886932
Si Si2 0.801053 0.185214 0.914328
Si Si3 0.299747 0.313668 0.533456
Si Si4 0.701396 0.686082 0.307058
Si Si5 0.588308 0.329896 0.112616
O O1 0.677739 0.289211 0.889228
O O2 0.445507 0.213623 0.936982
O O3 0.441239 0.211510 0.838827
O O4 0.460228 0.485017 0.887086
O O5 0.951348 0.217801 0.890068
O O6 0.750000 0.000000 0.910293
O O7 0.811892 0.227296 0.974292
O O8 0.250000 0.500000 0.538352
O O9 0.185408 0.207849 0.563693
O O10 0.750000 0.500000 0.307913
O O11 0.688566 0.750000 0.250000
O O12 0.817224 0.787157 0.338735
#
# Coordination Sequence:
#
# PCOD9409636 Si02
#       5
#     8   8   8   8   8
#     4  11  22  36  56  84 114 146 187 231 276 326
#     4  11  22  36  54  80 116 154 188 227 277 327
#     4  10  20  35  55  79 112 155 194 226 269 327
#     4  11  22  41  65  85 108 141 182 227 277 332
#     4  11  22  36  56  84 114 146 187 231 276 326
#
# _framework density 19.362096000000001
#
# number of rings (size 3 to 8) (size 9 to 14) (size 15 to 20)
#    0.000    1.200    0.000   10.200    0.000    8.000 
#    0.000    1.000    0.000    0.000    0.000    0.000 
#    0.000    0.000    0.000    0.000    0.000    0.000 
#
# Total GULP energy -223819.860177 kJ/mol
# GULP energy per Si atom -5595.496504 kJ/mol
# Density = 1.931803 g / cm^3
# Si number density = 19.362096 Si / 1000 Ang^3
#
#
#
# Elastic Constant Matrix: (Units=GPa)
#
#
# Indices 1 2 3 4 5 6 
#
# 1 91.6977 -19.8058 24.4206 0.0000 0.0000 0.0000
# 2 -19.8058 54.0840 12.6065 0.0000 0.0000 0.0000
# 3 24.4206 12.6065 110.4692 0.0000 0.0000 0.0000
# 4 0.0000 0.0000 0.0000 16.8113 0.0000 0.0000
# 5 0.0000 0.0000 0.0000 0.0000 2.9180 0.0000
# 6 0.0000 0.0000 0.0000 0.0000 0.0000 37.3983
#
#
#
# Elastic Compliance Matrix: (Units=1/GPa)
#
#
# Indices 1 2 3 4 5 6 
#
# 1 0.013054 0.005602 -0.003525 0.000000 0.000000 0.000000
# 2 0.005602 0.021399 -0.003680 0.000000 0.000000 0.000000
# 3 -0.003525 -0.003680 0.010252 0.000000 0.000000 0.000000
# 4 0.000000 0.000000 0.000000 0.059484 0.000000 0.000000
# 5 0.000000 0.000000 0.000000 0.000000 0.342703 0.000000
# 6 0.000000 0.000000 0.000000 0.000000 0.000000 0.026739
#
#
# Mechanical properties :
#
#
# Convention : Reuss Voigt Hill
#
# Bulk Modulus (GPa) = 24.09742 32.29928 28.19835
# Shear Modulus (GPa) = 10.19014 27.36082 18.77548
#
# Velocity S-wave (km/s) = 2.29660 3.76322 3.11738
# Velocity P-wave (km/s) = 4.41646 5.96660 5.24907
#
# Compressibility (1/GPa) = 0.04149821
#
# Stress axis : x y z
#
# Youngs Moduli (GPa) = 76.60366 46.73071 97.54602
#
# Poissons Ratio (x) = -0.26179 0.34386
# Poissons Ratio (y) = -0.42915 0.35901
# Poissons Ratio (z) = 0.27004 0.17199
#
# Static dielectric constant tensor:
#      x y z
#    x 1.671140 0.000000 0.000000 
#    y 0.000000 1.693750 0.000000 
#    z 0.000000 0.000000 1.637480 
# 
# From -- ./inp_files/42102.got.cif
#   From: 2010.05.17/outbox.cif.g08.bks.cpg/sg52_22_cif.got.tgz:42102.got - 2010.06.03 12:15:38.
