data_PCOD9409916
_publ_section_title
;
Structure prediction by ZEFSAII (Michael W. Deem and Ramdas Pophale) SiO2 
 PCOD9409916
Probable space group: P N N A
;
_chemical_formula_sum "Si O2"
_cell_formula_units_Z 36
_cell_length_a 16.196676
_cell_length_b 7.811071
_cell_length_c 14.092457
_cell_angle_alpha 90.000000
_cell_angle_beta 90.000000
_cell_angle_gamma 90.000000
_cell_volume 1782.884455
_symmetry_space_group_name_H-M "P N N A"
_symmetry_group_IT_number 52
_symmetry_cell_setting 'orthorhombic'
loop_
_space_group_symop_operation_xyz
x,y,z
1/2-x,-y,z
x,1/2-y,1/2-z
1/2-x,1/2+y,1/2-z
-x,-y,-z
1/2+x,y,-z
-x,1/2+y,1/2+z
1/2+x,1/2-y,1/2+z
loop_
_atom_site_type_symbol
_atom_site_label
_atom_site_fract_x
_atom_site_fract_y
_atom_site_fract_z
Si Si1 0.677316 0.627576 0.162528
Si Si2 0.042013 0.059237 0.783401
Si Si3 0.261506 0.250000 0.250000
Si Si4 0.654384 0.950096 0.048461
Si Si5 0.132638 0.047094 0.166962
O O1 0.750000 0.500000 0.135033
O O2 0.706910 0.750000 0.250000
O O3 0.601237 0.523321 0.205120
O O4 0.648586 0.753183 0.080040
O O5 0.019543 0.250000 0.750000
O O6 0.961029 0.944198 0.799499
O O7 0.095538 0.056007 0.880564
O O8 0.322132 0.089023 0.237110
O O9 0.193182 0.287530 0.332379
O O10 0.750000 0.000000 0.063107
O O11 0.632293 0.976404 0.939453
#
# Coordination Sequence:
#
# PCOD9409916 Si02
#       5
#     8   8   4   8   8
#     4  10  20  37  61  92 125 164 200 245 310 364
#     4  11  22  39  62  91 129 162 201 249 303 368
#     4  10  22  44  68  84 112 166 200 254 310 352
#     4  11  22  40  63  91 124 161 203 252 306 360
#     4  11  23  44  66  89 117 160 212 252 305 359
#
# _framework density 20.191998999999999
#
# number of rings (size 3 to 8) (size 9 to 14) (size 15 to 20)
#    0.000    1.333    3.333    5.333    4.667    0.000 
#    4.000    1.111    0.000    0.000    0.000    0.000 
#    0.000    0.000    0.000    0.000    0.000    0.000 
#
# Total GULP energy -200736.217173 kJ/mol
# GULP energy per Si atom -5576.006033 kJ/mol
# Density = 2.014604 g / cm^3
# Si number density = 20.191999 Si / 1000 Ang^3
#
#
#
# Elastic Constant Matrix: (Units=GPa)
#
#
# Indices 1 2 3 4 5 6 
#
# 1 134.3249 9.7168 29.9749 0.0000 0.0000 0.0000
# 2 9.7168 57.5602 38.8734 0.0000 0.0000 0.0000
# 3 29.9749 38.8734 84.7049 0.0000 0.0000 0.0000
# 4 0.0000 0.0000 0.0000 11.8342 0.0000 0.0000
# 5 0.0000 0.0000 0.0000 0.0000 -9.0413 0.0000
# 6 0.0000 0.0000 0.0000 0.0000 0.0000 20.6829
#
#
#
# Elastic Compliance Matrix: (Units=1/GPa)
#
#
# Indices 1 2 3 4 5 6 
#
# 1 0.008110 0.000825 -0.003248 0.000000 0.000000 0.000000
# 2 0.000825 0.025260 -0.011884 0.000000 0.000000 0.000000
# 3 -0.003248 -0.011884 0.018409 0.000000 0.000000 0.000000
# 4 0.000000 0.000000 0.000000 0.084501 0.000000 0.000000
# 5 0.000000 0.000000 0.000000 0.000000 -0.110603 0.000000
# 6 0.000000 0.000000 0.000000 0.000000 0.000000 0.048349
#
#
# Mechanical properties :
#
#
# Convention : Reuss Voigt Hill
#
# Bulk Modulus (GPa) = 43.17198 48.19114 45.68156
# Shear Modulus (GPa) = 45.30493 17.89681 31.60087
#
# Velocity S-wave (km/s) = 4.74192 2.98036 3.96032
# Velocity P-wave (km/s) = 7.16995 5.98011 6.60189
#
# Compressibility (1/GPa) = 0.02316317
#
# Stress axis : x y z
#
# Youngs Moduli (GPa) = 123.30674 39.58825 54.32048
#
# Poissons Ratio (x) = -0.03265 0.17645
# Poissons Ratio (y) = -0.10170 0.64556
# Poissons Ratio (z) = 0.40055 0.47048
#
# Static dielectric constant tensor:
#      x y z
#    x 1.724940 0.000000 0.000000 
#    y 0.000000 1.781740 0.000000 
#    z 0.000000 0.000000 1.710170 
# 
# From -- ./inp_files/26770.got.cif
#   From: 2010.05.17/outbox.cif.g08.bks.cpg/sg52_14_cif.got.tgz:26770.got - 2010.06.03 12:15:38.
