data_PCOD9409075
_publ_section_title
;
Structure prediction by ZEFSAII (Michael W. Deem and Ramdas Pophale) SiO2 
 PCOD9409075
Probable space group: P N N A
;
_chemical_formula_sum "Si O2"
_cell_formula_units_Z 48
_cell_length_a 28.636359
_cell_length_b 14.146039
_cell_length_c 5.805868
_cell_angle_alpha 90.000000
_cell_angle_beta 90.000000
_cell_angle_gamma 90.000000
_cell_volume 2351.905171
_symmetry_space_group_name_H-M "P N N A"
_symmetry_group_IT_number 52
_symmetry_cell_setting 'orthorhombic'
loop_
_space_group_symop_operation_xyz
x,y,z
1/2-x,-y,z
x,1/2-y,1/2-z
1/2-x,1/2+y,1/2-z
-x,-y,-z
1/2+x,y,-z
-x,1/2+y,1/2+z
1/2+x,1/2-y,1/2+z
loop_
_atom_site_type_symbol
_atom_site_label
_atom_site_fract_x
_atom_site_fract_y
_atom_site_fract_z
Si Si1 0.058204 0.146071 0.873895
Si Si2 0.882965 0.504124 0.081148
Si Si3 0.869525 0.359076 0.698684
Si Si4 0.145999 0.352160 0.299306
Si Si5 0.804149 0.010251 0.061648
Si Si6 0.040909 0.805152 0.996589
O O1 0.059551 0.250000 0.750000
O O2 0.075449 0.056757 0.720281
O O3 0.096150 0.153889 0.074910
O O4 0.006299 0.135025 0.974350
O O5 0.893263 0.417850 0.907990
O O6 0.862723 0.589679 0.929443
O O7 0.838757 0.470533 0.228494
O O8 0.859084 0.250000 0.750000
O O9 0.822466 0.413039 0.624490
O O10 0.909699 0.359320 0.501557
O O11 0.164945 0.250000 0.250000
O O12 0.179663 0.410080 0.462446
O O13 0.750000 0.000000 0.112892
O O14 0.037678 0.750000 0.750000
O O15 0.042761 0.750000 0.250000
#
# Coordination Sequence:
#
# PCOD9409075 Si02
#       6
#     8   8   8   8   8   8
#     4  10  19  35  65  97 136 173 217 271 335 398
#     4  10  22  39  62  96 130 174 216 284 332 411
#     4  10  24  44  68  90 132 183 225 278 342 404
#     4  10  19  37  64  92 129 163 210 267 339 398
#     4  10  24  42  63  94 125 164 222 284 345 412
#     4  10  23  39  67 101 137 184 235 276 330 412
#
# _framework density 20.408985999999999
#
# number of rings (size 3 to 8) (size 9 to 14) (size 15 to 20)
#    0.000    2.000    1.667    0.500    7.000    4.000 
#    0.000    9.167    0.000    0.000    0.000    0.000 
#    0.000    0.000    0.000    0.000    0.000    0.000 
#
# Total GULP energy -267461.281147 kJ/mol
# GULP energy per Si atom -5572.110024 kJ/mol
# Density = 2.036253 g / cm^3
# Si number density = 20.408986 Si / 1000 Ang^3
#
#
#
# Elastic Constant Matrix: (Units=GPa)
#
#
# Indices 1 2 3 4 5 6 
#
# 1 138.9797 32.6054 33.0203 0.0000 0.0000 0.0000
# 2 32.6054 103.0614 21.2797 0.0000 0.0000 0.0000
# 3 33.0203 21.2797 81.7518 0.0000 0.0000 0.0000
# 4 0.0000 0.0000 0.0000 34.6144 0.0000 0.0000
# 5 0.0000 0.0000 0.0000 0.0000 -34.7539 0.0000
# 6 0.0000 0.0000 0.0000 0.0000 0.0000 74.8911
#
#
#
# Elastic Compliance Matrix: (Units=1/GPa)
#
#
# Indices 1 2 3 4 5 6 
#
# 1 0.008352 -0.002056 -0.002838 0.000000 0.000000 0.000000
# 2 -0.002056 0.010760 -0.001970 0.000000 0.000000 0.000000
# 3 -0.002838 -0.001970 0.013891 0.000000 0.000000 0.000000
# 4 0.000000 0.000000 0.000000 0.028890 0.000000 0.000000
# 5 0.000000 0.000000 0.000000 0.000000 -0.028774 0.000000
# 6 0.000000 0.000000 0.000000 0.000000 0.000000 0.013353
#
#
# Mechanical properties :
#
#
# Convention : Reuss Voigt Hill
#
# Bulk Modulus (GPa) = 51.88310 55.28930 53.58620
# Shear Modulus (GPa) = 75.04476 30.74281 52.89378
#
# Velocity S-wave (km/s) = 6.07044 3.88537 5.09639
# Velocity P-wave (km/s) = 8.63774 6.87587 7.80667
#
# Compressibility (1/GPa) = 0.01927410
#
# Stress axis : x y z
#
# Youngs Moduli (GPa) = 119.73104 92.93402 71.98696
#
# Poissons Ratio (x) = 0.19110 0.20432
# Poissons Ratio (y) = 0.24620 0.14184
# Poissons Ratio (z) = 0.33982 0.18311
#
# Static dielectric constant tensor:
#      x y z
#    x 1.724440 0.000000 0.000000 
#    y 0.000000 1.273850 0.000000 
#    z 0.000000 0.000000 1.573900 
# 
# From -- ./inp_files/5791.got.cif
#   From: 2010.05.17/outbox.cif.g08.bks.cpg/sg52_3_cif.got.tgz:5791.got - 2010.06.03 12:15:38.
