data_PCOD9409379
_publ_section_title
;
Structure prediction by ZEFSAII (Michael W. Deem and Ramdas Pophale) SiO2 
 PCOD9409379
Probable space group: P N N A
;
_chemical_formula_sum "Si O2"
_cell_formula_units_Z 64
_cell_length_a 23.690759
_cell_length_b 19.509508
_cell_length_c 5.712875
_cell_angle_alpha 90.000000
_cell_angle_beta 90.000000
_cell_angle_gamma 90.000000
_cell_volume 2640.462559
_symmetry_space_group_name_H-M "P N N A"
_symmetry_group_IT_number 52
_symmetry_cell_setting 'orthorhombic'
loop_
_space_group_symop_operation_xyz
x,y,z
1/2-x,-y,z
x,1/2-y,1/2-z
1/2-x,1/2+y,1/2-z
-x,-y,-z
1/2+x,y,-z
-x,1/2+y,1/2+z
1/2+x,1/2-y,1/2+z
loop_
_atom_site_type_symbol
_atom_site_label
_atom_site_fract_x
_atom_site_fract_y
_atom_site_fract_z
Si Si1 0.546232 0.235384 0.006545
Si Si2 0.942154 0.918000 0.941973
Si Si3 0.826515 0.716670 0.003111
Si Si4 0.344788 0.075133 0.330524
Si Si5 0.074504 0.934919 0.934399
Si Si6 0.334248 0.169426 0.713218
Si Si7 0.159165 0.427568 0.143343
Si Si8 0.252157 0.574007 0.550551
O O1 0.518814 0.250000 0.750000
O O2 0.605435 0.275384 0.997832
O O3 0.513710 0.250000 0.250000
O O4 0.565690 0.157222 0.039147
O O5 0.920877 0.982578 0.094903
O O6 0.906324 0.919442 0.705348
O O7 0.008856 0.922318 0.898229
O O8 0.806999 0.750000 0.750000
O O9 0.816904 0.634998 0.003411
O O10 0.808043 0.750000 0.250000
O O11 0.333122 0.147760 0.444088
O O12 0.295862 0.063632 0.145226
O O13 0.338184 0.003266 0.466310
O O14 0.405038 0.075158 0.202696
O O15 0.114494 0.880864 0.800922
O O16 0.341531 0.250000 0.750000
O O17 0.276813 0.137947 0.819676
O O18 0.190819 0.418268 0.398084
O O19 0.250000 0.500000 0.678393
#
# Coordination Sequence:
#
# PCOD9409379 Si02
#       8
#     8   8   8   8   8   8   8   8
#     4  10  20  37  58  90 138 182 223 274 352 437
#     4  10  19  42  63  97 135 180 235 299 369 444
#     4  10  20  38  56  94 141 184 224 272 351 445
#     4   9  21  44  67  94 125 178 242 292 351 426
#     4   9  22  42  68  92 130 178 242 300 360 430
#     4  11  24  46  68 101 133 186 243 302 359 435
#     4  10  19  41  68  96 138 180 227 295 369 452
#     4   9  21  43  69  96 133 177 231 295 361 437
#
# _framework density 24.238174999999998
#
# number of rings (size 3 to 8) (size 9 to 14) (size 15 to 20)
#    0.000    2.250    2.500    0.750    0.000    6.000 
#   13.500    3.750    0.000    0.000    0.000    0.000 
#    0.000    0.000    0.000    0.000    0.000    0.000 
#
# Total GULP energy -356567.263027 kJ/mol
# GULP energy per Si atom -5571.363485 kJ/mol
# Density = 2.418301 g / cm^3
# Si number density = 24.238175 Si / 1000 Ang^3
#
#
#
# Elastic Constant Matrix: (Units=GPa)
#
#
# Indices 1 2 3 4 5 6 
#
# 1 119.2188 40.1174 30.6647 0.0000 0.0000 0.0000
# 2 40.1174 166.1589 32.7008 0.0000 0.0000 0.0000
# 3 30.6647 32.7008 101.9472 0.0000 0.0000 0.0000
# 4 0.0000 0.0000 0.0000 15.3349 0.0000 0.0000
# 5 0.0000 0.0000 0.0000 0.0000 -21.8588 0.0000
# 6 0.0000 0.0000 0.0000 0.0000 0.0000 -30.0763
#
#
#
# Elastic Compliance Matrix: (Units=1/GPa)
#
#
# Indices 1 2 3 4 5 6 
#
# 1 0.009606 -0.001869 -0.002290 0.000000 0.000000 0.000000
# 2 -0.001869 0.006787 -0.001615 0.000000 0.000000 0.000000
# 3 -0.002290 -0.001615 0.011016 0.000000 0.000000 0.000000
# 4 0.000000 0.000000 0.000000 0.065211 0.000000 0.000000
# 5 0.000000 0.000000 0.000000 0.000000 -0.045748 0.000000
# 6 0.000000 0.000000 0.000000 0.000000 0.000000 -0.033249
#
#
# Mechanical properties :
#
#
# Convention : Reuss Voigt Hill
#
# Bulk Modulus (GPa) = 63.04466 66.03228 64.53847
# Shear Modulus (GPa) = 164.16496 11.60276 87.88386
#
# Velocity S-wave (km/s) = 8.23875 2.19029 6.02803
# Velocity P-wave (km/s) = 10.79674 5.80506 8.66800
#
# Compressibility (1/GPa) = 0.01586177
#
# Stress axis : x y z
#
# Youngs Moduli (GPa) = 104.10477 147.33345 90.77829
#
# Poissons Ratio (x) = 0.27530 0.20788
# Poissons Ratio (y) = 0.19452 0.14661
# Poissons Ratio (z) = 0.23839 0.23796
#
# Static dielectric constant tensor:
#      x y z
#    x 1.939560 0.000000 0.000000 
#    y 0.000000 1.975620 0.000000 
#    z 0.000000 0.000000 2.087010 
# 
# From -- ./inp_files/6007.got.cif
#   From: 2010.05.17/outbox.cif.g08.bks.cpg/sg52_4_cif.got.tgz:6007.got - 2010.06.03 12:15:38.
