data_PCOD9409498
_publ_section_title
;
Structure prediction by ZEFSAII (Michael W. Deem and Ramdas Pophale) SiO2 
 PCOD9409498
Probable space group: P N N A
;
_chemical_formula_sum "Si O2"
_cell_formula_units_Z 64
_cell_length_a 5.590171
_cell_length_b 27.666069
_cell_length_c 22.624156
_cell_angle_alpha 90.000000
_cell_angle_beta 90.000000
_cell_angle_gamma 90.000000
_cell_volume 3499.007999
_symmetry_space_group_name_H-M "P N N A"
_symmetry_group_IT_number 52
_symmetry_cell_setting 'orthorhombic'
loop_
_space_group_symop_operation_xyz
x,y,z
1/2-x,-y,z
x,1/2-y,1/2-z
1/2-x,1/2+y,1/2-z
-x,-y,-z
1/2+x,y,-z
-x,1/2+y,1/2+z
1/2+x,1/2-y,1/2+z
loop_
_atom_site_type_symbol
_atom_site_label
_atom_site_fract_x
_atom_site_fract_y
_atom_site_fract_z
Si Si1 0.496528 0.124419 0.754363
Si Si2 0.006871 0.973332 0.168828
Si Si3 0.876555 0.951849 0.296389
Si Si4 0.886126 0.693667 0.249787
Si Si5 0.288561 0.304483 0.464053
Si Si6 0.145575 0.870325 0.149712
Si Si7 0.880320 0.132980 0.651865
Si Si8 0.784486 0.191320 0.535614
O O1 0.304219 0.084613 0.736608
O O2 0.384979 0.177652 0.761116
O O3 0.618585 0.111797 0.815884
O O4 0.669626 0.126428 0.698772
O O5 0.996409 0.919395 0.141378
O O6 0.037947 0.966701 0.240258
O O7 0.250000 0.000000 0.147530
O O8 0.750000 0.000000 0.160310
O O9 0.995457 0.919485 0.347022
O O10 0.750000 0.000000 0.318629
O O11 0.929612 0.750000 0.250000
O O12 0.026793 0.665080 0.301270
O O13 0.949984 0.671244 0.185942
O O14 0.534913 0.311662 0.501742
O O15 0.303727 0.340277 0.408638
O O16 0.289175 0.247847 0.445281
O O17 0.800107 0.155124 0.590627
O O18 0.530401 0.184240 0.502014
#
# Coordination Sequence:
#
# PCOD9409498 Si02
#       8
#     8   8   8   8   8   8   8   8
#     4  10  20  35  54  89 117 158 191 238 305 362
#     4  11  22  35  60  89 123 157 194 240 297 366
#     4  10  20  33  56  86 124 151 193 239 298 364
#     4  10  21  33  52  86 121 154 187 239 307 368
#     4  10  24  41  62  87 112 158 208 249 290 344
#     4  11  21  38  59  83 122 154 199 246 303 357
#     4  10  21  36  56  84 117 152 197 244 300 353
#     4  10  23  42  62  84 114 159 208 246 289 346
#
# _framework density 18.290897999999999
#
# number of rings (size 3 to 8) (size 9 to 14) (size 15 to 20)
#    0.000    1.750    3.750    2.250    5.250    3.000 
#    0.000    0.000    0.000    3.000    0.000    0.000 
#    0.000    0.000    0.000    0.000    0.000    0.000 
#
# Total GULP energy -356608.756832 kJ/mol
# GULP energy per Si atom -5572.011826 kJ/mol
# Density = 1.824927 g / cm^3
# Si number density = 18.290898 Si / 1000 Ang^3
#
#
#
# Elastic Constant Matrix: (Units=GPa)
#
#
# Indices 1 2 3 4 5 6 
#
# 1 89.8740 36.9529 30.0734 0.0000 0.0000 0.0000
# 2 36.9529 102.8488 29.6833 0.0000 0.0000 0.0000
# 3 30.0734 29.6833 68.7723 0.0000 0.0000 0.0000
# 4 0.0000 0.0000 0.0000 29.8987 0.0000 0.0000
# 5 0.0000 0.0000 0.0000 0.0000 6.6924 0.0000
# 6 0.0000 0.0000 0.0000 0.0000 0.0000 21.8019
#
#
#
# Elastic Compliance Matrix: (Units=1/GPa)
#
#
# Indices 1 2 3 4 5 6 
#
# 1 0.014217 -0.003785 -0.004583 0.000000 0.000000 0.000000
# 2 -0.003785 0.012114 -0.003574 0.000000 0.000000 0.000000
# 3 -0.004583 -0.003574 0.018087 0.000000 0.000000 0.000000
# 4 0.000000 0.000000 0.000000 0.033446 0.000000 0.000000
# 5 0.000000 0.000000 0.000000 0.000000 0.149422 0.000000
# 6 0.000000 0.000000 0.000000 0.000000 0.000000 0.045868
#
#
# Mechanical properties :
#
#
# Convention : Reuss Voigt Hill
#
# Bulk Modulus (GPa) = 48.69807 50.54602 49.62204
# Shear Modulus (GPa) = 16.45371 22.66430 19.55900
#
# Velocity S-wave (km/s) = 3.00252 3.52391 3.27361
# Velocity P-wave (km/s) = 6.22110 6.65220 6.44026
#
# Compressibility (1/GPa) = 0.02053469
#
# Stress axis : x y z
#
# Youngs Moduli (GPa) = 70.34039 82.54656 55.28767
#
# Poissons Ratio (x) = 0.31246 0.25338
# Poissons Ratio (y) = 0.26625 0.19757
# Poissons Ratio (z) = 0.32237 0.29498
#
# Static dielectric constant tensor:
#      x y z
#    x 1.741950 0.000000 0.000000 
#    y 0.000000 1.661450 0.000000 
#    z 0.000000 0.000000 1.584280 
# 
# From -- ./inp_files/35315.got.cif
#   From: 2010.05.17/outbox.cif.g08.bks.cpg/sg52_18_cif.got.tgz:35315.got - 2010.06.03 12:15:38.
