data_PCOD9409528
_publ_section_title
;
Structure prediction by ZEFSAII (Michael W. Deem and Ramdas Pophale) SiO2 
 PCOD9409528
Probable space group: P N N A
;
_chemical_formula_sum "Si O2"
_cell_formula_units_Z 48
_cell_length_a 15.781267
_cell_length_b 7.651254
_cell_length_c 22.719104
_cell_angle_alpha 90.000000
_cell_angle_beta 90.000000
_cell_angle_gamma 90.000000
_cell_volume 2743.251888
_symmetry_space_group_name_H-M "P N N A"
_symmetry_group_IT_number 52
_symmetry_cell_setting 'orthorhombic'
loop_
_space_group_symop_operation_xyz
x,y,z
1/2-x,-y,z
x,1/2-y,1/2-z
1/2-x,1/2+y,1/2-z
-x,-y,-z
1/2+x,y,-z
-x,1/2+y,1/2+z
1/2+x,1/2-y,1/2+z
loop_
_atom_site_type_symbol
_atom_site_label
_atom_site_fract_x
_atom_site_fract_y
_atom_site_fract_z
Si Si1 0.031159 0.250000 0.750000
Si Si2 0.654151 0.934669 0.281799
Si Si3 0.311055 0.353887 0.449759
Si Si4 0.591894 0.956218 0.414719
Si Si5 0.250000 0.500000 0.000351
Si Si6 0.484439 0.212299 0.119517
Si Si7 0.065589 0.926886 0.952147
O O1 0.091000 0.419057 0.756773
O O2 0.979599 0.231933 0.810407
O O3 0.642393 0.750000 0.250000
O O4 0.634007 0.920869 0.351222
O O5 0.750000 0.000000 0.273690
O O6 0.250000 0.500000 0.423978
O O7 0.262558 0.173568 0.461327
O O8 0.393938 0.322753 0.410152
O O9 0.345269 0.423800 0.513426
O O10 0.666286 0.010340 0.459639
O O11 0.550351 0.774909 0.435986
O O12 0.524870 0.111477 0.407343
O O13 0.549761 0.055707 0.102380
O O14 0.000000 0.000000 0.000000
#
# Coordination Sequence:
#
# PCOD9409528 Si02
#       7
#     4   8   8   8   4   8   8
#     4  10  22  38  56  80 110 146 192 228 272 330
#     4  11  20  33  52  79 111 149 182 219 264 326
#     4  10  21  35  55  81 108 141 183 230 282 328
#     4  10  20  34  52  80 113 144 179 219 274 334
#     4  10  20  34  54  82 114 142 176 224 274 334
#     4  10  21  37  57  79 110 148 183 233 277 333
#     4   9  19  34  55  82 108 141 174 218 277 336
#
# _framework density 17.497482000000002
#
# number of rings (size 3 to 8) (size 9 to 14) (size 15 to 20)
#    0.000    2.000    1.667    2.000    0.000    8.667 
#    0.000    0.833    1.833    0.000    0.000    0.000 
#    0.000    0.000    0.000    0.000    0.000    0.000 
#
# Total GULP energy -267834.316060 kJ/mol
# GULP energy per Si atom -5579.881585 kJ/mol
# Density = 1.745766 g / cm^3
# Si number density = 17.497482 Si / 1000 Ang^3
#
#
#
# Elastic Constant Matrix: (Units=GPa)
#
#
# Indices 1 2 3 4 5 6 
#
# 1 80.2814 75.1049 45.8992 0.0000 0.0000 0.0000
# 2 75.1049 146.1410 59.0904 0.0000 0.0000 0.0000
# 3 45.8992 59.0904 92.0073 0.0000 0.0000 0.0000
# 4 0.0000 0.0000 0.0000 22.8410 0.0000 0.0000
# 5 0.0000 0.0000 0.0000 0.0000 -2.5479 0.0000
# 6 0.0000 0.0000 0.0000 0.0000 0.0000 27.7090
#
#
#
# Elastic Compliance Matrix: (Units=1/GPa)
#
#
# Indices 1 2 3 4 5 6 
#
# 1 0.026218 -0.011057 -0.005978 0.000000 0.000000 0.000000
# 2 -0.011057 0.013906 -0.003415 0.000000 0.000000 0.000000
# 3 -0.005978 -0.003415 0.016044 0.000000 0.000000 0.000000
# 4 0.000000 0.000000 0.000000 0.043781 0.000000 0.000000
# 5 0.000000 0.000000 0.000000 0.000000 -0.392479 0.000000
# 6 0.000000 0.000000 0.000000 0.000000 0.000000 0.036089
#
#
# Mechanical properties :
#
#
# Convention : Reuss Voigt Hill
#
# Bulk Modulus (GPa) = 65.49578 75.40208 70.44893
# Shear Modulus (GPa) = -23.75835 18.82276 -2.46780
#
# Velocity S-wave (km/s) = -3.68885 3.28341 -1.18888
# Velocity P-wave (km/s) = 4.40106 7.58690 6.20203
#
# Compressibility (1/GPa) = 0.01526816
#
# Stress axis : x y z
#
# Youngs Moduli (GPa) = 38.14202 71.91260 62.32769
#
# Poissons Ratio (x) = 0.79511 0.37260
# Poissons Ratio (y) = 0.42172 0.21285
# Poissons Ratio (z) = 0.22802 0.24558
#
# Static dielectric constant tensor:
#      x y z
#    x 1.574020 0.000000 0.000000 
#    y 0.000000 1.598460 0.000000 
#    z 0.000000 0.000000 1.612670 
# 
# From -- ./inp_files/37215.got.cif
#   From: 2010.05.17/outbox.cif.g08.bks.cpg/sg52_19_cif.got.tgz:37215.got - 2010.06.03 12:15:38.
