data_PCOD9409950
_publ_section_title
;
Structure prediction by ZEFSAII (Michael W. Deem and Ramdas Pophale) SiO2 
 PCOD9409950
Probable space group: P N N A
;
_chemical_formula_sum "Si O2"
_cell_formula_units_Z 36
_cell_length_a 9.408776
_cell_length_b 21.413469
_cell_length_c 7.453615
_cell_angle_alpha 90.000000
_cell_angle_beta 90.000000
_cell_angle_gamma 90.000000
_cell_volume 1501.713603
_symmetry_space_group_name_H-M "P N N A"
_symmetry_group_IT_number 52
_symmetry_cell_setting 'orthorhombic'
loop_
_space_group_symop_operation_xyz
x,y,z
1/2-x,-y,z
x,1/2-y,1/2-z
1/2-x,1/2+y,1/2-z
-x,-y,-z
1/2+x,y,-z
-x,1/2+y,1/2+z
1/2+x,1/2-y,1/2+z
loop_
_atom_site_type_symbol
_atom_site_label
_atom_site_fract_x
_atom_site_fract_y
_atom_site_fract_z
Si Si1 0.509398 0.928204 0.551788
Si Si2 0.147099 0.622755 0.393550
Si Si3 0.221663 0.881457 0.732566
Si Si4 0.406256 0.785275 0.906598
Si Si5 0.297849 0.750000 0.250000
O O1 0.609398 0.919508 0.725657
O O2 0.354632 0.905497 0.616624
O O3 0.583374 0.890437 0.389003
O O4 0.500000 0.000000 0.500000
O O5 0.205801 0.588005 0.569305
O O6 0.235364 0.682421 0.315532
O O7 0.001341 0.655986 0.461109
O O8 0.268362 0.812637 0.802837
O O9 0.490929 0.750000 0.750000
O O10 0.383520 0.738104 0.067621
#
# Coordination Sequence:
#
# PCOD9409950 Si02
#       5
#     8   8   8   8   4
#     4  11  24  45  71  98 135 182 235 290 349 408
#     4  10  22  41  65 100 136 175 228 282 347 411
#     4  10  24  42  68 102 134 180 231 287 344 412
#     4  10  20  37  63  97 133 178 220 276 344 418
#     4  10  20  38  62  94 136 178 214 278 342 420
#
# _framework density 23.972615000000001
#
# number of rings (size 3 to 8) (size 9 to 14) (size 15 to 20)
#    0.000    1.778    1.111    2.000    0.000    9.778 
#    8.000    2.222    0.000    0.000    0.000    0.000 
#    0.000    0.000    0.000    0.000    0.000    0.000 
#
# Total GULP energy -200686.677885 kJ/mol
# GULP energy per Si atom -5574.629941 kJ/mol
# Density = 2.391805 g / cm^3
# Si number density = 23.972615 Si / 1000 Ang^3
#
#
#
# Elastic Constant Matrix: (Units=GPa)
#
#
# Indices 1 2 3 4 5 6 
#
# 1 61.3714 40.7319 65.2882 0.0000 0.0000 0.0000
# 2 40.7319 90.6571 69.2352 0.0000 0.0000 0.0000
# 3 65.2882 69.2352 223.0086 0.0000 0.0000 0.0000
# 4 0.0000 0.0000 0.0000 32.8184 0.0000 0.0000
# 5 0.0000 0.0000 0.0000 0.0000 29.4870 0.0000
# 6 0.0000 0.0000 0.0000 0.0000 0.0000 12.9462
#
#
#
# Elastic Compliance Matrix: (Units=1/GPa)
#
#
# Indices 1 2 3 4 5 6 
#
# 1 0.027622 -0.008172 -0.005549 0.000000 0.000000 0.000000
# 2 -0.008172 0.016877 -0.002847 0.000000 0.000000 0.000000
# 3 -0.005549 -0.002847 0.006993 0.000000 0.000000 0.000000
# 4 0.000000 0.000000 0.000000 0.030471 0.000000 0.000000
# 5 0.000000 0.000000 0.000000 0.000000 0.033913 0.000000
# 6 0.000000 0.000000 0.000000 0.000000 0.000000 0.077243
#
#
# Mechanical properties :
#
#
# Convention : Reuss Voigt Hill
#
# Bulk Modulus (GPa) = 54.48498 80.61641 67.55069
# Shear Modulus (GPa) = 21.51715 28.36909 24.94312
#
# Velocity S-wave (km/s) = 2.99920 3.44378 3.22915
# Velocity P-wave (km/s) = 5.89669 7.03665 6.49174
#
# Compressibility (1/GPa) = 0.01835368
#
# Stress axis : x y z
#
# Youngs Moduli (GPa) = 36.20343 59.25360 143.00714
#
# Poissons Ratio (x) = 0.48423 0.79360
# Poissons Ratio (y) = 0.29586 0.40714
# Poissons Ratio (z) = 0.20091 0.16869
#
# Static dielectric constant tensor:
#      x y z
#    x 2.069550 0.000000 0.000000 
#    y 0.000000 1.925690 0.000000 
#    z 0.000000 0.000000 2.076490 
# 
# From -- ./inp_files/1229.got.cif
#   From: 2010.05.17/outbox.cif.g08.bks.cpg/sg52_1_cif.got.tgz:1229.got - 2010.06.03 12:15:38.
