data_PCOD9409495
_publ_section_title
;
Structure prediction by ZEFSAII (Michael W. Deem and Ramdas Pophale) SiO2 
 PCOD9409495
Probable space group: P N N A
;
_chemical_formula_sum "Si O2"
_cell_formula_units_Z 52
_cell_length_a 9.703804
_cell_length_b 19.372388
_cell_length_c 14.677478
_cell_angle_alpha 90.000000
_cell_angle_beta 90.000000
_cell_angle_gamma 90.000000
_cell_volume 2759.158268
_symmetry_space_group_name_H-M "P N N A"
_symmetry_group_IT_number 52
_symmetry_cell_setting 'orthorhombic'
loop_
_space_group_symop_operation_xyz
x,y,z
1/2-x,-y,z
x,1/2-y,1/2-z
1/2-x,1/2+y,1/2-z
-x,-y,-z
1/2+x,y,-z
-x,1/2+y,1/2+z
1/2+x,1/2-y,1/2+z
loop_
_atom_site_type_symbol
_atom_site_label
_atom_site_fract_x
_atom_site_fract_y
_atom_site_fract_z
Si Si1 0.311853 0.881301 0.410473
Si Si2 0.040767 0.859403 0.300394
Si Si3 0.520224 0.792683 0.889758
Si Si4 0.261461 0.251726 0.533078
Si Si5 0.752789 0.427145 0.207890
Si Si6 0.556505 0.685727 0.194070
Si Si7 0.750000 0.000000 0.465275
O O1 0.293214 0.814796 0.476408
O O2 0.433954 0.859784 0.344529
O O3 0.172301 0.891089 0.351497
O O4 0.336213 0.949440 0.470449
O O5 0.053317 0.844639 0.192501
O O6 0.022369 0.784390 0.346489
O O7 0.901355 0.902413 0.312464
O O8 0.635782 0.793113 0.967352
O O9 0.367212 0.796405 0.931660
O O10 0.349612 0.219636 0.615453
O O11 0.750000 0.500000 0.259710
O O12 0.840425 0.364984 0.248277
O O13 0.818592 0.448265 0.108887
O O14 0.499070 0.750000 0.250000
#
# Coordination Sequence:
#
# PCOD9409495 Si02
#       7
#     8   8   8   8   8   8   4
#     4  11  24  34  56  85 124 159 197 245 302 375
#     4  10  21  36  52  81 118 161 191 247 305 361
#     4  10  20  33  56  76 118 150 203 248 303 357
#     4  11  19  35  53  83 111 158 196 250 301 358
#     4  10  22  37  60  84 120 163 201 237 302 380
#     4  12  24  38  56  88 125 160 207 260 302 368
#     4  10  22  36  60  86 128 158 202 232 304 382
#
# _framework density 18.846326999999999
#
# number of rings (size 3 to 8) (size 9 to 14) (size 15 to 20)
#    0.462    0.923    4.615    0.923    8.615    1.231 
#    0.000    0.000    0.000    0.000    0.000    4.308 
#    2.308    0.000    0.000    0.000    0.000    0.000 
#
# Total GULP energy -289953.530117 kJ/mol
# GULP energy per Si atom -5576.029425 kJ/mol
# Density = 1.880343 g / cm^3
# Si number density = 18.846327 Si / 1000 Ang^3
#
#
#
# Elastic Constant Matrix: (Units=GPa)
#
#
# Indices 1 2 3 4 5 6 
#
# 1 46.2257 2.3277 -3.9134 0.0000 0.0000 0.0000
# 2 2.3277 53.8871 7.3412 0.0000 0.0000 0.0000
# 3 -3.9134 7.3412 28.6132 0.0000 0.0000 0.0000
# 4 0.0000 0.0000 0.0000 32.2532 0.0000 0.0000
# 5 0.0000 0.0000 0.0000 0.0000 13.6914 0.0000
# 6 0.0000 0.0000 0.0000 0.0000 0.0000 12.4661
#
#
#
# Elastic Compliance Matrix: (Units=1/GPa)
#
#
# Indices 1 2 3 4 5 6 
#
# 1 0.021989 -0.001409 0.003369 0.000000 0.000000 0.000000
# 2 -0.001409 0.019320 -0.005149 0.000000 0.000000 0.000000
# 3 0.003369 -0.005149 0.036731 0.000000 0.000000 0.000000
# 4 0.000000 0.000000 0.000000 0.031005 0.000000 0.000000
# 5 0.000000 0.000000 0.000000 0.000000 0.073039 0.000000
# 6 0.000000 0.000000 0.000000 0.000000 0.000000 0.080217
#
#
# Mechanical properties :
#
#
# Convention : Reuss Voigt Hill
#
# Bulk Modulus (GPa) = 13.95462 15.58189 14.76826
# Shear Modulus (GPa) = 17.09017 19.88019 18.48518
#
# Velocity S-wave (km/s) = 3.01461 3.25138 3.13523
# Velocity P-wave (km/s) = 4.42014 4.73087 4.57814
#
# Compressibility (1/GPa) = 0.07166084
#
# Stress axis : x y z
#
# Youngs Moduli (GPa) = 45.47706 51.76063 27.22512
#
# Poissons Ratio (x) = 0.07292 -0.09172
# Poissons Ratio (y) = 0.06407 0.14019
# Poissons Ratio (z) = -0.15321 0.26654
#
# Static dielectric constant tensor:
#      x y z
#    x 1.662360 0.000000 0.000000 
#    y 0.000000 1.668010 0.000000 
#    z 0.000000 0.000000 1.679350 
# 
# From -- ./inp_files/24915.got.cif
#   From: 2010.05.17/outbox.cif.g08.bks.cpg/sg52_13_cif.got.tgz:24915.got - 2010.06.03 12:15:38.
