data_PCOD9409967
_publ_section_title
;
Structure prediction by ZEFSAII (Michael W. Deem and Ramdas Pophale) SiO2 
 PCOD9409967
Probable space group: P N N A
;
_chemical_formula_sum "Si O2"
_cell_formula_units_Z 48
_cell_length_a 16.385193
_cell_length_b 10.127692
_cell_length_c 11.980222
_cell_angle_alpha 90.000000
_cell_angle_beta 90.000000
_cell_angle_gamma 90.000000
_cell_volume 1988.048213
_symmetry_space_group_name_H-M "P N N A"
_symmetry_group_IT_number 52
_symmetry_cell_setting 'orthorhombic'
loop_
_space_group_symop_operation_xyz
x,y,z
1/2-x,-y,z
x,1/2-y,1/2-z
1/2-x,1/2+y,1/2-z
-x,-y,-z
1/2+x,y,-z
-x,1/2+y,1/2+z
1/2+x,1/2-y,1/2+z
loop_
_atom_site_type_symbol
_atom_site_label
_atom_site_fract_x
_atom_site_fract_y
_atom_site_fract_z
Si Si1 0.502872 0.984949 0.206962
Si Si2 0.618552 0.705772 0.419757
Si Si3 0.294859 0.699413 0.935174
Si Si4 0.750000 0.000000 0.607671
Si Si5 0.413390 0.750000 0.750000
Si Si6 0.908031 0.352881 0.854505
Si Si7 0.664859 0.038583 0.929018
O O1 0.546642 0.126405 0.180144
O O2 0.470083 0.026070 0.330166
O O3 0.348823 0.076090 0.982255
O O4 0.582505 0.040461 0.857186
O O5 0.701552 0.784959 0.390166
O O6 0.579298 0.788565 0.523578
O O7 0.560307 0.638344 0.326242
O O8 0.355604 0.675010 0.835455
O O9 0.304224 0.585976 0.024806
O O10 0.319241 0.828570 0.004437
O O11 0.684937 0.900367 0.658810
O O12 0.918147 0.250000 0.750000
O O13 0.750000 0.000000 0.868161
#
# Coordination Sequence:
#
# PCOD9409967 Si02
#       7
#     8   8   8   4   4   8   8
#     4  12  23  37  72 109 142 179 247 299 350 449
#     4  10  21  41  65 102 140 180 238 300 353 421
#     4  10  24  43  69  96 140 191 232 295 364 426
#     4  10  26  48  66  98 148 182 232 302 362 418
#     4  12  24  40  74 106 128 190 244 282 366 434
#     4  11  23  40  71 102 135 190 235 293 361 435
#     4  10  20  37  66 101 134 181 227 292 356 417
#
# _framework density 24.144282
#
# number of rings (size 3 to 8) (size 9 to 14) (size 15 to 20)
#    0.000    1.333    4.167    0.500    3.500    1.333 
#    0.000    0.833   11.000    0.000    0.000    0.000 
#    0.000    0.000    0.000    0.000    0.000    0.000 
#
# Total GULP energy -267388.817205 kJ/mol
# GULP energy per Si atom -5570.600358 kJ/mol
# Density = 2.408933 g / cm^3
# Si number density = 24.144282 Si / 1000 Ang^3
#
#
#
# Elastic Constant Matrix: (Units=GPa)
#
#
# Indices 1 2 3 4 5 6 
#
# 1 120.6191 41.6250 42.1695 0.0000 0.0000 0.0000
# 2 41.6250 73.2309 45.9007 0.0000 0.0000 0.0000
# 3 42.1695 45.9007 57.4078 0.0000 0.0000 0.0000
# 4 0.0000 0.0000 0.0000 16.4761 0.0000 0.0000
# 5 0.0000 0.0000 0.0000 0.0000 17.2889 0.0000
# 6 0.0000 0.0000 0.0000 0.0000 0.0000 -112.1330
#
#
#
# Elastic Compliance Matrix: (Units=1/GPa)
#
#
# Indices 1 2 3 4 5 6 
#
# 1 0.011373 -0.002462 -0.006385 0.000000 0.000000 0.000000
# 2 -0.002462 0.027907 -0.020505 0.000000 0.000000 0.000000
# 3 -0.006385 -0.020505 0.038504 0.000000 0.000000 0.000000
# 4 0.000000 0.000000 0.000000 0.060694 0.000000 0.000000
# 5 0.000000 0.000000 0.000000 0.000000 0.057841 0.000000
# 6 0.000000 0.000000 0.000000 0.000000 0.000000 -0.008918
#
#
# Mechanical properties :
#
#
# Convention : Reuss Voigt Hill
#
# Bulk Modulus (GPa) = 52.41144 56.73869 54.57506
# Shear Modulus (GPa) = 19.80474 -7.56942 6.11766
#
# Velocity S-wave (km/s) = 2.86714 -1.77254 1.59352
# Velocity P-wave (km/s) = 5.71973 4.40019 5.10279
#
# Compressibility (1/GPa) = 0.01907980
#
# Stress axis : x y z
#
# Youngs Moduli (GPa) = 87.93120 35.83316 25.97105
#
# Poissons Ratio (x) = 0.08822 0.16583
# Poissons Ratio (y) = 0.21648 0.53253
# Poissons Ratio (z) = 0.56147 0.73475
#
# Static dielectric constant tensor:
#      x y z
#    x 2.134440 0.000000 0.000000 
#    y 0.000000 1.818540 0.000000 
#    z 0.000000 0.000000 1.980050 
# 
# From -- ./inp_files/20677.got.cif
#   From: 2010.05.17/outbox.cif.g08.bks.cpg/sg52_11_cif.got.tgz:20677.got - 2010.06.03 12:15:38.
