data_PCOD9409166
_publ_section_title
;
Structure prediction by ZEFSAII (Michael W. Deem and Ramdas Pophale) SiO2 
 PCOD9409166
Probable space group: P N N A
;
_chemical_formula_sum "Si O2"
_cell_formula_units_Z 64
_cell_length_a 22.286954
_cell_length_b 15.007348
_cell_length_c 8.712633
_cell_angle_alpha 90.000000
_cell_angle_beta 90.000000
_cell_angle_gamma 90.000000
_cell_volume 2914.097584
_symmetry_space_group_name_H-M "P N N A"
_symmetry_group_IT_number 52
_symmetry_cell_setting 'orthorhombic'
loop_
_space_group_symop_operation_xyz
x,y,z
1/2-x,-y,z
x,1/2-y,1/2-z
1/2-x,1/2+y,1/2-z
-x,-y,-z
1/2+x,y,-z
-x,1/2+y,1/2+z
1/2+x,1/2-y,1/2+z
loop_
_atom_site_type_symbol
_atom_site_label
_atom_site_fract_x
_atom_site_fract_y
_atom_site_fract_z
Si Si1 0.818978 0.795369 0.101765
Si Si2 0.641183 0.579953 0.782520
Si Si3 0.375343 0.899353 0.166128
Si Si4 0.598936 0.795493 0.963846
Si Si5 0.800043 0.149085 0.187553
Si Si6 0.897488 0.408684 0.095805
Si Si7 0.735695 0.330866 0.858137
Si Si8 0.490018 0.422695 0.630771
O O1 0.847281 0.750000 0.250000
O O2 0.768569 0.868612 0.146597
O O3 0.863240 0.841882 0.985157
O O4 0.782312 0.716073 0.015976
O O5 0.640602 0.503327 0.655446
O O6 0.606937 0.664485 0.708299
O O7 0.707883 0.603713 0.843450
O O8 0.607023 0.541732 0.933277
O O9 0.326536 0.865667 0.288450
O O10 0.445589 0.894809 0.196620
O O11 0.658250 0.839629 0.039921
O O12 0.596913 0.694127 0.030818
O O13 0.541815 0.843048 0.039109
O O14 0.799831 0.250000 0.250000
O O15 0.834897 0.089455 0.310112
O O16 0.946932 0.438617 0.220491
O O17 0.756132 0.250000 0.750000
O O18 0.500000 0.500000 0.500000
#
# Coordination Sequence:
#
# PCOD9409166 Si02
#       8
#     8   8   8   8   8   8   8   8
#     4  10  20  40  66  94 128 176 224 273 329 411
#     4  12  21  39  64 100 136 165 222 286 348 397
#     4  11  25  41  62  91 136 178 212 271 350 405
#     4  10  19  36  65  94 120 168 225 279 326 391
#     4   8  15  32  59  91 118 154 215 275 319 365
#     4  10  22  37  69  97 125 175 231 283 329 394
#     4  10  21  38  65  95 134 175 217 264 333 414
#     4  11  23  46  62  87 132 179 224 280 340 394
#
# _framework density 21.962199999999999
#
# number of rings (size 3 to 8) (size 9 to 14) (size 15 to 20)
#    0.000    1.750    1.250    6.375    0.000    3.500 
#    2.250    1.250    0.000    0.000    0.000    0.000 
#    0.000    0.000    0.000    0.000    0.000    0.000 
#
# Total GULP energy -356590.051982 kJ/mol
# GULP energy per Si atom -5571.719562 kJ/mol
# Density = 2.191221 g / cm^3
# Si number density = 21.962200 Si / 1000 Ang^3
#
#
#
# Elastic Constant Matrix: (Units=GPa)
#
#
# Indices 1 2 3 4 5 6 
#
# 1 112.6273 11.8486 30.8210 0.0000 0.0000 0.0000
# 2 11.8486 54.7055 15.2928 0.0000 0.0000 0.0000
# 3 30.8210 15.2928 110.1745 0.0000 0.0000 0.0000
# 4 0.0000 0.0000 0.0000 19.6965 0.0000 0.0000
# 5 0.0000 0.0000 0.0000 0.0000 7.9203 0.0000
# 6 0.0000 0.0000 0.0000 0.0000 0.0000 15.9634
#
#
#
# Elastic Compliance Matrix: (Units=1/GPa)
#
#
# Indices 1 2 3 4 5 6 
#
# 1 0.009717 -0.001399 -0.002524 0.000000 0.000000 0.000000
# 2 -0.001399 0.019219 -0.002276 0.000000 0.000000 0.000000
# 3 -0.002524 -0.002276 0.010099 0.000000 0.000000 0.000000
# 4 0.000000 0.000000 0.000000 0.050770 0.000000 0.000000
# 5 0.000000 0.000000 0.000000 0.000000 0.126257 0.000000
# 6 0.000000 0.000000 0.000000 0.000000 0.000000 0.062643
#
#
# Mechanical properties :
#
#
# Convention : Reuss Voigt Hill
#
# Bulk Modulus (GPa) = 37.54364 43.71466 40.62915
# Shear Modulus (GPa) = 16.66763 23.35237 20.01000
#
# Velocity S-wave (km/s) = 2.75785 3.26436 3.02174
# Velocity P-wave (km/s) = 5.22233 5.84430 5.54204
#
# Compressibility (1/GPa) = 0.02663567
#
# Stress axis : x y z
#
# Youngs Moduli (GPa) = 102.91529 52.03169 99.02385
#
# Poissons Ratio (x) = 0.07279 0.24994
# Poissons Ratio (y) = 0.14397 0.22541
# Poissons Ratio (z) = 0.25976 0.11844
#
# Static dielectric constant tensor:
#      x y z
#    x 1.809520 0.000000 0.000000 
#    y 0.000000 1.885020 0.000000 
#    z 0.000000 0.000000 1.912790 
# 
# From -- ./inp_files/14523.got.cif
#   From: 2010.05.17/outbox.cif.g08.bks.cpg/sg52_8_cif.got.tgz:14523.got - 2010.06.03 12:15:38.
