data_PCOD9409743
_publ_section_title
;
Structure prediction by ZEFSAII (Michael W. Deem and Ramdas Pophale) SiO2 
 PCOD9409743
Probable space group: P N N A
;
_chemical_formula_sum "Si O2"
_cell_formula_units_Z 60
_cell_length_a 5.449243
_cell_length_b 23.320189
_cell_length_c 23.217023
_cell_angle_alpha 90.000000
_cell_angle_beta 90.000000
_cell_angle_gamma 90.000000
_cell_volume 2950.358377
_symmetry_space_group_name_H-M "P N N A"
_symmetry_group_IT_number 52
_symmetry_cell_setting 'orthorhombic'
loop_
_space_group_symop_operation_xyz
x,y,z
1/2-x,-y,z
x,1/2-y,1/2-z
1/2-x,1/2+y,1/2-z
-x,-y,-z
1/2+x,y,-z
-x,1/2+y,1/2+z
1/2+x,1/2-y,1/2+z
loop_
_atom_site_type_symbol
_atom_site_label
_atom_site_fract_x
_atom_site_fract_y
_atom_site_fract_z
Si Si1 0.658040 0.692960 0.024300
Si Si2 0.097763 0.347391 0.746881
Si Si3 0.797731 0.564161 0.857882
Si Si4 0.267058 0.936533 0.222993
Si Si5 0.274585 0.868750 0.633743
Si Si6 0.727999 0.250000 0.750000
Si Si7 0.972293 0.171476 0.161173
Si Si8 0.087955 0.827362 0.974456
O O1 0.752692 0.682972 0.088974
O O2 0.621808 0.759994 0.010816
O O3 0.384767 0.668485 0.013229
O O4 0.277493 0.348628 0.800830
O O5 0.200393 0.324623 0.687175
O O6 0.002718 0.410320 0.732639
O O7 0.887466 0.304769 0.767766
O O8 0.750000 0.500000 0.879534
O O9 0.856029 0.558747 0.789053
O O10 0.545548 0.601403 0.865949
O O11 0.048815 0.589950 0.882927
O O12 0.411968 0.887690 0.187350
O O13 0.250000 0.000000 0.197339
O O14 0.594785 0.225291 0.806399
O O15 0.975244 0.170182 0.093049
O O16 0.355560 0.852235 0.990578
#
# Coordination Sequence:
#
# PCOD9409743 Si02
#       8
#     8   8   8   8   8   4   8   8
#     4  10  22  39  57  82 111 158 206 248 293 354
#     4  10  22  35  56  94 123 164 195 249 320 373
#     4  10  20  36  57  87 122 154 193 245 310 372
#     4   9  20  37  58  89 125 158 201 250 310 378
#     4  11  21  36  60  84 117 154 204 246 302 364
#     4  10  24  34  56  92 134 160 192 254 322 380
#     4  11  22  39  61  91 127 162 206 255 316 368
#     4  10  25  42  63  86 120 168 211 248 298 369
#
# _framework density 20.336511000000002
#
# number of rings (size 3 to 8) (size 9 to 14) (size 15 to 20)
#    0.000    1.867    1.333    1.600    7.467    2.667 
#    0.000    0.000    0.000    8.800    0.000    0.000 
#    0.000    0.000    0.000    0.000    0.000    0.000 
#
# Total GULP energy -334166.280332 kJ/mol
# GULP energy per Si atom -5569.438006 kJ/mol
# Density = 2.029022 g / cm^3
# Si number density = 20.336511 Si / 1000 Ang^3
#
#
#
# Elastic Constant Matrix: (Units=GPa)
#
#
# Indices 1 2 3 4 5 6 
#
# 1 96.6425 35.3351 30.2830 0.0000 0.0000 0.0000
# 2 35.3351 56.5699 3.8193 0.0000 0.0000 0.0000
# 3 30.2830 3.8193 76.1214 0.0000 0.0000 0.0000
# 4 0.0000 0.0000 0.0000 14.4684 0.0000 0.0000
# 5 0.0000 0.0000 0.0000 0.0000 15.8661 0.0000
# 6 0.0000 0.0000 0.0000 0.0000 0.0000 15.8451
#
#
#
# Elastic Compliance Matrix: (Units=1/GPa)
#
#
# Indices 1 2 3 4 5 6 
#
# 1 0.015549 -0.009326 -0.005718 0.000000 0.000000 0.000000
# 2 -0.009326 0.023331 0.002540 0.000000 0.000000 0.000000
# 3 -0.005718 0.002540 0.015284 0.000000 0.000000 0.000000
# 4 0.000000 0.000000 0.000000 0.069116 0.000000 0.000000
# 5 0.000000 0.000000 0.000000 0.000000 0.063028 0.000000
# 6 0.000000 0.000000 0.000000 0.000000 0.000000 0.063111
#
#
# Mechanical properties :
#
#
# Convention : Reuss Voigt Hill
#
# Bulk Modulus (GPa) = 34.29899 40.91209 37.60554
# Shear Modulus (GPa) = 17.59654 19.89568 18.74611
#
# Velocity S-wave (km/s) = 2.94474 3.13121 3.03940
# Velocity P-wave (km/s) = 5.33519 5.76488 5.55419
#
# Compressibility (1/GPa) = 0.02915538
#
# Stress axis : x y z
#
# Youngs Moduli (GPa) = 64.31252 42.86092 65.42704
#
# Poissons Ratio (x) = 0.39974 0.37410
# Poissons Ratio (y) = 0.59980 -0.16616
# Poissons Ratio (z) = 0.36773 -0.10885
#
# Static dielectric constant tensor:
#      x y z
#    x 1.848460 0.000000 0.000000 
#    y 0.000000 1.767550 0.000000 
#    z 0.000000 0.000000 1.719610 
# 
# From -- ./inp_files/35283.got.cif
#   From: 2010.05.17/outbox.cif.g08.bks.cpg/sg52_18_cif.got.tgz:35283.got - 2010.06.03 12:15:38.
