data_PCOD9409019
_publ_section_title
;
Structure prediction by ZEFSAII (Michael W. Deem and Ramdas Pophale) SiO2 
 PCOD9409019
Probable space group: P N N A
;
_chemical_formula_sum "Si O2"
_cell_formula_units_Z 56
_cell_length_a 15.727547
_cell_length_b 6.239616
_cell_length_c 29.835052
_cell_angle_alpha 90.000000
_cell_angle_beta 90.000000
_cell_angle_gamma 90.000000
_cell_volume 2927.828634
_symmetry_space_group_name_H-M "P N N A"
_symmetry_group_IT_number 52
_symmetry_cell_setting 'orthorhombic'
loop_
_space_group_symop_operation_xyz
x,y,z
1/2-x,-y,z
x,1/2-y,1/2-z
1/2-x,1/2+y,1/2-z
-x,-y,-z
1/2+x,y,-z
-x,1/2+y,1/2+z
1/2+x,1/2-y,1/2+z
loop_
_atom_site_type_symbol
_atom_site_label
_atom_site_fract_x
_atom_site_fract_y
_atom_site_fract_z
Si Si1 0.511077 0.798187 0.467872
Si Si2 0.341205 0.982504 0.679532
Si Si3 0.429973 0.898156 0.205588
Si Si4 0.250000 0.500000 0.272523
Si Si5 0.334776 0.854515 0.900063
Si Si6 0.045732 0.785822 0.871364
Si Si7 0.958092 0.750000 0.250000
Si Si8 0.849646 0.949880 0.001299
O O1 0.529184 0.851059 0.415907
O O2 0.593896 0.659319 0.484115
O O3 0.420415 0.669142 0.470393
O O4 0.500000 0.000000 0.500000
O O5 0.379419 0.199111 0.660124
O O6 0.250000 0.000000 0.701408
O O7 0.330449 0.833402 0.635758
O O8 0.403073 0.890791 0.716549
O O9 0.433532 0.750000 0.250000
O O10 0.334801 0.975296 0.199723
O O11 0.465523 0.791695 0.161060
O O12 0.486549 0.100293 0.218316
O O13 0.242479 0.750000 0.250000
O O14 0.250000 0.000000 0.894970
O O15 0.420332 0.986517 0.888600
O O16 0.338915 0.808555 0.953116
O O17 0.750000 0.000000 0.987108
#
# Coordination Sequence:
#
# PCOD9409019 Si02
#       8
#     8   8   8   4   8   8   4   8
#     4  10  21  39  61  89 125 155 203 258 309 373
#     4  12  24  35  56  88 122 162 207 248 300 367
#     4  11  22  41  62  87 120 157 208 261 323 383
#     4  10  22  40  70  94 120 164 218 276 336 402
#     4  10  19  35  57  83 119 158 203 244 288 366
#     4  11  22  37  61  87 118 163 201 248 315 375
#     4  12  24  38  58  82 124 168 198 262 310 366
#     4   9  20  38  61  87 118 163 198 245 309 369
#
# _framework density 19.126802000000001
#
# number of rings (size 3 to 8) (size 9 to 14) (size 15 to 20)
#    0.000    1.429    5.000    0.857    0.000    2.286 
#    1.286    0.000    0.000    1.714    0.000    0.000 
#    0.000    0.000    0.000    0.000    0.000    0.000 
#
# Total GULP energy -311749.156163 kJ/mol
# GULP energy per Si atom -5566.949217 kJ/mol
# Density = 1.908327 g / cm^3
# Si number density = 19.126802 Si / 1000 Ang^3
#
#
#
# Elastic Constant Matrix: (Units=GPa)
#
#
# Indices 1 2 3 4 5 6 
#
# 1 146.8547 12.6818 25.0302 0.0000 0.0000 0.0000
# 2 12.6818 29.5301 1.3917 0.0000 0.0000 0.0000
# 3 25.0302 1.3917 54.2788 0.0000 0.0000 0.0000
# 4 0.0000 0.0000 0.0000 23.2558 0.0000 0.0000
# 5 0.0000 0.0000 0.0000 0.0000 34.0955 0.0000
# 6 0.0000 0.0000 0.0000 0.0000 0.0000 29.8684
#
#
#
# Elastic Compliance Matrix: (Units=1/GPa)
#
#
# Indices 1 2 3 4 5 6 
#
# 1 0.007669 -0.003131 -0.003456 0.000000 0.000000 0.000000
# 2 -0.003131 0.035183 0.000542 0.000000 0.000000 0.000000
# 3 -0.003456 0.000542 0.020003 0.000000 0.000000 0.000000
# 4 0.000000 0.000000 0.000000 0.043000 0.000000 0.000000
# 5 0.000000 0.000000 0.000000 0.000000 0.029329 0.000000
# 6 0.000000 0.000000 0.000000 0.000000 0.000000 0.033480
#
#
# Mechanical properties :
#
#
# Convention : Reuss Voigt Hill
#
# Bulk Modulus (GPa) = 19.69883 34.31899 27.00891
# Shear Modulus (GPa) = 25.29389 30.21460 27.75425
#
# Velocity S-wave (km/s) = 3.64047 3.97886 3.81342
# Velocity P-wave (km/s) = 5.29076 6.25222 5.79147
#
# Compressibility (1/GPa) = 0.05076444
#
# Stress axis : x y z
#
# Youngs Moduli (GPa) = 130.39737 28.42312 49.99179
#
# Poissons Ratio (x) = 0.08898 0.17278
# Poissons Ratio (y) = 0.40821 -0.02707
# Poissons Ratio (z) = 0.45067 -0.01539
#
# Static dielectric constant tensor:
#      x y z
#    x 1.683970 0.000000 0.000000 
#    y 0.000000 1.803730 0.000000 
#    z 0.000000 0.000000 1.643110 
# 
# From -- ./inp_files/45042.got.cif
#   From: 2010.05.17/outbox.cif.g08.bks.cpg/sg52_23_cif.got.tgz:45042.got - 2010.06.03 12:15:38.
