data_PCOD9409097
_publ_section_title
;
Structure prediction by ZEFSAII (Michael W. Deem and Ramdas Pophale) SiO2 
 PCOD9409097
Probable space group: P N N A
;
_chemical_formula_sum "Si O2"
_cell_formula_units_Z 28
_cell_length_a 12.650311
_cell_length_b 7.935154
_cell_length_c 10.952620
_cell_angle_alpha 90.000000
_cell_angle_beta 90.000000
_cell_angle_gamma 90.000000
_cell_volume 1099.447718
_symmetry_space_group_name_H-M "P N N A"
_symmetry_group_IT_number 52
_symmetry_cell_setting 'orthorhombic'
loop_
_space_group_symop_operation_xyz
x,y,z
1/2-x,-y,z
x,1/2-y,1/2-z
1/2-x,1/2+y,1/2-z
-x,-y,-z
1/2+x,y,-z
-x,1/2+y,1/2+z
1/2+x,1/2-y,1/2+z
loop_
_atom_site_type_symbol
_atom_site_label
_atom_site_fract_x
_atom_site_fract_y
_atom_site_fract_z
Si Si1 0.111093 0.250000 0.750000
Si Si2 0.644324 0.058565 0.711649
Si Si3 0.901297 0.395380 0.149569
Si Si4 0.936470 0.148766 0.934809
O O1 0.153247 0.432367 0.798206
O O2 0.035000 0.220964 0.863000
O O3 0.660287 0.250000 0.750000
O O4 0.528519 0.063429 0.649868
O O5 0.750000 0.000000 0.642571
O O6 0.635639 0.936700 0.830507
O O7 0.883539 0.250000 0.250000
O O8 0.884271 0.286977 0.024362
O O9 0.000000 0.000000 0.000000
#
# Coordination Sequence:
#
# PCOD9409097 Si02
#       4
#     4   8   8   8
#     4  10  20  30  56  84 112 154 194 254 304 352
#     4  10  21  34  57  87 126 162 203 263 327 368
#     4  10  19  36  57  86 122 154 206 257 308 376
#     4  11  19  37  57  84 120 162 206 256 309 378
#
# _framework density 25.467331000000001
#
# number of rings (size 3 to 8) (size 9 to 14) (size 15 to 20)
#    0.000    1.714    8.571    0.857    8.000    0.000 
#    0.000    0.000    0.000    0.000    3.714    2.000 
#    0.000    0.000    0.000    0.000    0.000    0.000 
#
# Total GULP energy -155877.700644 kJ/mol
# GULP energy per Si atom -5567.060737 kJ/mol
# Density = 2.540937 g / cm^3
# Si number density = 25.467331 Si / 1000 Ang^3
#
#
#
# Elastic Constant Matrix: (Units=GPa)
#
#
# Indices 1 2 3 4 5 6 
#
# 1 96.5370 58.8050 10.5092 0.0000 0.0000 0.0000
# 2 58.8050 245.3457 73.8526 0.0000 0.0000 0.0000
# 3 10.5092 73.8526 121.2401 0.0000 0.0000 0.0000
# 4 0.0000 0.0000 0.0000 90.0913 0.0000 0.0000
# 5 0.0000 0.0000 0.0000 0.0000 4.5776 0.0000
# 6 0.0000 0.0000 0.0000 0.0000 0.0000 46.8617
#
#
#
# Elastic Compliance Matrix: (Units=1/GPa)
#
#
# Indices 1 2 3 4 5 6 
#
# 1 0.012207 -0.003193 0.000887 0.000000 0.000000 0.000000
# 2 -0.003193 0.005826 -0.003272 0.000000 0.000000 0.000000
# 3 0.000887 -0.003272 0.010164 0.000000 0.000000 0.000000
# 4 0.000000 0.000000 0.000000 0.011100 0.000000 0.000000
# 5 0.000000 0.000000 0.000000 0.000000 0.218455 0.000000
# 6 0.000000 0.000000 0.000000 0.000000 0.000000 0.021339
#
#
# Mechanical properties :
#
#
# Convention : Reuss Voigt Hill
#
# Bulk Modulus (GPa) = 58.68134 83.27294 70.97714
# Shear Modulus (GPa) = 16.89598 49.63652 33.26625
#
# Velocity S-wave (km/s) = 2.57852 4.41957 3.61810
# Velocity P-wave (km/s) = 5.65304 7.66892 6.73681
#
# Compressibility (1/GPa) = 0.01704119
#
# Stress axis : x y z
#
# Youngs Moduli (GPa) = 81.92004 171.64165 98.38204
#
# Poissons Ratio (x) = 0.54800 -0.08724
# Poissons Ratio (y) = 0.26155 0.32192
# Poissons Ratio (z) = -0.07264 0.56164
#
# Static dielectric constant tensor:
#      x y z
#    x 1.974100 0.000000 0.000000 
#    y 0.000000 2.176630 0.000000 
#    z 0.000000 0.000000 2.026770 
# 
# From -- ./inp_files/18732.got.cif
#   From: 2010.05.17/outbox.cif.g08.bks.cpg/sg52_10_cif.got.tgz:18732.got - 2010.06.03 12:15:38.
