data_PCOD9409468
_publ_section_title
;
Structure prediction by ZEFSAII (Michael W. Deem and Ramdas Pophale) SiO2 
 PCOD9409468
Probable space group: P N N A
;
_chemical_formula_sum "Si O2"
_cell_formula_units_Z 56
_cell_length_a 24.300089
_cell_length_b 7.707864
_cell_length_c 16.136315
_cell_angle_alpha 90.000000
_cell_angle_beta 90.000000
_cell_angle_gamma 90.000000
_cell_volume 3022.360542
_symmetry_space_group_name_H-M "P N N A"
_symmetry_group_IT_number 52
_symmetry_cell_setting 'orthorhombic'
loop_
_space_group_symop_operation_xyz
x,y,z
1/2-x,-y,z
x,1/2-y,1/2-z
1/2-x,1/2+y,1/2-z
-x,-y,-z
1/2+x,y,-z
-x,1/2+y,1/2+z
1/2+x,1/2-y,1/2+z
loop_
_atom_site_type_symbol
_atom_site_label
_atom_site_fract_x
_atom_site_fract_y
_atom_site_fract_z
Si Si1 0.687261 0.427189 0.130629
Si Si2 0.048519 0.992765 0.068681
Si Si3 0.916578 0.485873 0.029948
Si Si4 0.011833 0.573719 0.710199
Si Si5 0.813872 0.527862 0.311174
Si Si6 0.099944 0.906099 0.918985
Si Si7 0.478357 0.112940 0.375980
O O1 0.750000 0.500000 0.117629
O O2 0.644891 0.464552 0.056541
O O3 0.663733 0.502181 0.218189
O O4 0.682919 0.222337 0.152277
O O5 0.043176 0.809025 0.115692
O O6 0.035636 0.121594 0.143191
O O7 0.099935 0.004154 0.007339
O O8 0.000000 0.000000 0.000000
O O9 0.922623 0.284835 0.059658
O O10 0.962468 0.595602 0.078668
O O11 0.935155 0.491372 0.934148
O O12 0.033205 0.750000 0.750000
O O13 0.989270 0.455241 0.783846
O O14 0.061249 0.505389 0.651375
O O15 0.750000 0.500000 0.301148
O O16 0.841283 0.400587 0.376669
#
# Coordination Sequence:
#
# PCOD9409468 Si02
#       7
#     8   8   8   8   8   8   8
#     4  10  21  34  50  75  99 134 177 217 254 304
#     4   9  21  34  48  69 103 136 172 208 251 309
#     4  10  20  33  51  72 104 135 173 211 255 304
#     4  11  20  32  50  76 100 136 173 211 253 305
#     4  10  21  34  51  71 100 135 173 215 256 302
#     4  10  20  35  49  73 103 140 170 210 261 302
#     4  10  20  33  50  73 102 139 170 209 259 306
#
# _framework density 18.528565
#
# number of rings (size 3 to 8) (size 9 to 14) (size 15 to 20)
#    0.000    2.000    1.429    2.143    6.000    1.143 
#    0.000    0.000    0.000    0.000    0.000    1.000 
#    0.000    0.000    0.000    0.000    0.000    0.000 
#
# Total GULP energy -311911.002396 kJ/mol
# GULP energy per Si atom -5569.839329 kJ/mol
# Density = 1.848639 g / cm^3
# Si number density = 18.528565 Si / 1000 Ang^3
#
#
#
# Elastic Constant Matrix: (Units=GPa)
#
#
# Indices 1 2 3 4 5 6 
#
# 1 54.9797 5.5807 24.4642 0.0000 0.0000 0.0000
# 2 5.5807 33.0834 13.6753 0.0000 0.0000 0.0000
# 3 24.4642 13.6753 104.4422 0.0000 0.0000 0.0000
# 4 0.0000 0.0000 0.0000 24.6516 0.0000 0.0000
# 5 0.0000 0.0000 0.0000 0.0000 31.6353 0.0000
# 6 0.0000 0.0000 0.0000 0.0000 0.0000 22.9404
#
#
#
# Elastic Compliance Matrix: (Units=1/GPa)
#
#
# Indices 1 2 3 4 5 6 
#
# 1 0.020380 -0.001548 -0.004571 0.000000 0.000000 0.000000
# 2 -0.001548 0.032074 -0.003837 0.000000 0.000000 0.000000
# 3 -0.004571 -0.003837 0.011148 0.000000 0.000000 0.000000
# 4 0.000000 0.000000 0.000000 0.040565 0.000000 0.000000
# 5 0.000000 0.000000 0.000000 0.000000 0.031610 0.000000
# 6 0.000000 0.000000 0.000000 0.000000 0.000000 0.043591
#
#
# Mechanical properties :
#
#
# Convention : Reuss Voigt Hill
#
# Bulk Modulus (GPa) = 22.88918 31.10510 26.99714
# Shear Modulus (GPa) = 23.38160 25.76446 24.57303
#
# Velocity S-wave (km/s) = 3.55621 3.73302 3.64569
# Velocity P-wave (km/s) = 5.40763 5.95018 5.68538
#
# Compressibility (1/GPa) = 0.04368876
#
# Stress axis : x y z
#
# Youngs Moduli (GPa) = 49.06866 31.17804 89.70423
#
# Poissons Ratio (x) = 0.04827 0.41003
# Poissons Ratio (y) = 0.07598 0.34419
# Poissons Ratio (z) = 0.22429 0.11963
#
# Static dielectric constant tensor:
#      x y z
#    x 1.687480 0.000000 0.000000 
#    y 0.000000 1.785970 0.000000 
#    z 0.000000 0.000000 1.701120 
# 
# From -- ./inp_files/34065.got.cif
#   From: 2010.05.17/outbox.cif.g08.bks.cpg/sg52_18_cif.got.tgz:34065.got - 2010.06.03 12:15:38.
