data_PCOD9409988
_publ_section_title
;
Structure prediction by ZEFSAII (Michael W. Deem and Ramdas Pophale) SiO2 
 PCOD9409988
Probable space group: P N N A
;
_chemical_formula_sum "Si O2"
_cell_formula_units_Z 48
_cell_length_a 10.201214
_cell_length_b 20.795389
_cell_length_c 10.298622
_cell_angle_alpha 90.000000
_cell_angle_beta 90.000000
_cell_angle_gamma 90.000000
_cell_volume 2184.731272
_symmetry_space_group_name_H-M "P N N A"
_symmetry_group_IT_number 52
_symmetry_cell_setting 'orthorhombic'
loop_
_space_group_symop_operation_xyz
x,y,z
1/2-x,-y,z
x,1/2-y,1/2-z
1/2-x,1/2+y,1/2-z
-x,-y,-z
1/2+x,y,-z
-x,1/2+y,1/2+z
1/2+x,1/2-y,1/2+z
loop_
_atom_site_type_symbol
_atom_site_label
_atom_site_fract_x
_atom_site_fract_y
_atom_site_fract_z
Si Si1 0.318834 0.599107 0.877812
Si Si2 0.134320 0.446801 0.602848
Si Si3 0.824074 0.751666 0.398446
Si Si4 0.969975 0.091344 0.426217
Si Si5 0.888476 0.532958 0.679457
Si Si6 0.029597 0.745150 0.898316
O O1 0.333321 0.599715 0.722199
O O2 0.312589 0.672197 0.927013
O O3 0.179762 0.567667 0.914773
O O4 0.446964 0.570301 0.947856
O O5 0.250000 0.500000 0.606805
O O6 0.129609 0.425718 0.452979
O O7 0.995902 0.479442 0.639197
O O8 0.870548 0.750000 0.250000
O O9 0.929111 0.725292 0.499199
O O10 0.675908 0.725404 0.406768
O O11 0.051635 0.071144 0.299538
O O12 0.959623 0.168923 0.426277
O O13 0.750000 0.500000 0.711895
O O14 0.983804 0.750000 0.750000
#
# Coordination Sequence:
#
# PCOD9409988 Si02
#       6
#     8   8   8   8   8   8
#     4  10  21  36  56  79 108 140 177 220 263 314
#     4  10  20  38  55  75 106 143 177 219 264 305
#     4   9  19  36  56  80 108 139 175 217 264 314
#     4  10  21  37  54  80 109 140 177 218 263 314
#     4  10  22  36  55  78 107 141 180 222 262 313
#     4   9  19  36  57  79 108 140 174 217 264 314
#
# _framework density 21.970665
#
# number of rings (size 3 to 8) (size 9 to 14) (size 15 to 20)
#    0.000    2.333    1.667    0.000    2.333    3.333 
#    0.000    0.000    0.000    0.000    0.000    0.000 
#    0.000    0.000    0.000    0.000    0.000    0.000 
#
# Total GULP energy -267933.934319 kJ/mol
# GULP energy per Si atom -5581.956965 kJ/mol
# Density = 2.192066 g / cm^3
# Si number density = 21.970665 Si / 1000 Ang^3
#
#
#
# Elastic Constant Matrix: (Units=GPa)
#
#
# Indices 1 2 3 4 5 6 
#
# 1 145.5784 8.7242 63.4947 0.0000 0.0000 0.0000
# 2 8.7242 32.9293 -12.6334 0.0000 0.0000 0.0000
# 3 63.4947 -12.6334 137.5351 0.0000 0.0000 0.0000
# 4 0.0000 0.0000 0.0000 24.0901 0.0000 0.0000
# 5 0.0000 0.0000 0.0000 0.0000 -39.8578 0.0000
# 6 0.0000 0.0000 0.0000 0.0000 0.0000 -1.3859
#
#
#
# Elastic Compliance Matrix: (Units=1/GPa)
#
#
# Indices 1 2 3 4 5 6 
#
# 1 0.009124 -0.004181 -0.004596 0.000000 0.000000 0.000000
# 2 -0.004181 0.033393 0.004997 0.000000 0.000000 0.000000
# 3 -0.004596 0.004997 0.009852 0.000000 0.000000 0.000000
# 4 0.000000 0.000000 0.000000 0.041511 0.000000 0.000000
# 5 0.000000 0.000000 0.000000 0.000000 -0.025089 0.000000
# 6 0.000000 0.000000 0.000000 0.000000 0.000000 -0.721546
#
#
# Mechanical properties :
#
#
# Convention : Reuss Voigt Hill
#
# Bulk Modulus (GPa) = 22.31653 48.35710 35.33681
# Shear Modulus (GPa) = -7.93325 13.66644 2.86659
#
# Velocity S-wave (km/s) = -1.90228 2.49676 1.14349
# Velocity P-wave (km/s) = 2.31399 5.51084 4.22634
#
# Compressibility (1/GPa) = 0.04480983
#
# Stress axis : x y z
#
# Youngs Moduli (GPa) = 109.59543 29.94631 101.50302
#
# Poissons Ratio (x) = 0.12520 0.46655
# Poissons Ratio (y) = 0.45820 -0.50726
# Poissons Ratio (z) = 0.50375 -0.14966
#
# Static dielectric constant tensor:
#      x y z
#    x 1.825120 0.000000 0.000000 
#    y 0.000000 1.848420 0.000000 
#    z 0.000000 0.000000 1.790300 
# 
# From -- ./inp_files/7689.got.cif
#   From: 2010.05.17/outbox.cif.g08.bks.cpg/sg52_4_cif.got.tgz:7689.got - 2010.06.03 12:15:38.
