data_PCOD9409600
_publ_section_title
;
Structure prediction by ZEFSAII (Michael W. Deem and Ramdas Pophale) SiO2 
 PCOD9409600
Probable space group: P N N A
;
_chemical_formula_sum "Si O2"
_cell_formula_units_Z 40
_cell_length_a 14.639016
_cell_length_b 15.741443
_cell_length_c 7.644920
_cell_angle_alpha 90.000000
_cell_angle_beta 90.000000
_cell_angle_gamma 90.000000
_cell_volume 1761.689524
_symmetry_space_group_name_H-M "P N N A"
_symmetry_group_IT_number 52
_symmetry_cell_setting 'orthorhombic'
loop_
_space_group_symop_operation_xyz
x,y,z
1/2-x,-y,z
x,1/2-y,1/2-z
1/2-x,1/2+y,1/2-z
-x,-y,-z
1/2+x,y,-z
-x,1/2+y,1/2+z
1/2+x,1/2-y,1/2+z
loop_
_atom_site_type_symbol
_atom_site_label
_atom_site_fract_x
_atom_site_fract_y
_atom_site_fract_z
Si Si1 0.708765 0.793218 0.934836
Si Si2 0.859980 0.844701 0.202263
Si Si3 0.179846 0.620167 0.914466
Si Si4 0.526678 0.993445 0.293646
Si Si5 0.656992 0.959731 0.798055
O O1 0.733362 0.750000 0.750000
O O2 0.643195 0.871914 0.898786
O O3 0.799828 0.827208 0.029239
O O4 0.661914 0.719082 0.046594
O O5 0.894993 0.750000 0.250000
O O6 0.781539 0.877879 0.337271
O O7 0.934799 0.917707 0.219096
O O8 0.106217 0.576215 0.789225
O O9 0.175910 0.569906 0.097756
O O10 0.500000 0.000000 0.500000
O O11 0.430106 0.979563 0.198688
O O12 0.750000 0.000000 0.866152
#
# Coordination Sequence:
#
# PCOD9409600 Si02
#       5
#     8   8   8   8   8
#     4   9  20  38  58  83 125 172 206 253 317 377
#     4  10  20  36  61  90 119 158 208 261 315 377
#     4   9  18  36  60  87 119 158 206 259 314 375
#     4  10  20  34  61  94 121 159 210 263 317 379
#     4  10  20  36  57  84 121 163 204 254 317 378
#
# _framework density 22.705476999999998
#
# number of rings (size 3 to 8) (size 9 to 14) (size 15 to 20)
#    0.000    2.400    0.000    3.000    0.000    5.600 
#    0.000    4.000    0.000   21.600    0.000    0.000 
#    0.000    0.000    0.000    0.000    0.000    0.000 
#
# Total GULP energy -223310.986982 kJ/mol
# GULP energy per Si atom -5582.774675 kJ/mol
# Density = 2.265380 g / cm^3
# Si number density = 22.705477 Si / 1000 Ang^3
#
#
#
# Elastic Constant Matrix: (Units=GPa)
#
#
# Indices 1 2 3 4 5 6 
#
# 1 90.2756 66.5325 -4.4424 0.0000 0.0000 0.0000
# 2 66.5325 122.1272 32.8302 0.0000 0.0000 0.0000
# 3 -4.4424 32.8302 74.2907 0.0000 0.0000 0.0000
# 4 0.0000 0.0000 0.0000 29.2468 0.0000 0.0000
# 5 0.0000 0.0000 0.0000 0.0000 9.0312 0.0000
# 6 0.0000 0.0000 0.0000 0.0000 0.0000 28.9458
#
#
#
# Elastic Compliance Matrix: (Units=1/GPa)
#
#
# Indices 1 2 3 4 5 6 
#
# 1 0.021545 -0.013713 0.007348 0.000000 0.000000 0.000000
# 2 -0.013713 0.018020 -0.008783 0.000000 0.000000 0.000000
# 3 0.007348 -0.008783 0.017781 0.000000 0.000000 0.000000
# 4 0.000000 0.000000 0.000000 0.034192 0.000000 0.000000
# 5 0.000000 0.000000 0.000000 0.000000 0.110728 0.000000
# 6 0.000000 0.000000 0.000000 0.000000 0.000000 0.034547
#
#
# Mechanical properties :
#
#
# Convention : Reuss Voigt Hill
#
# Bulk Modulus (GPa) = 36.96746 52.94823 44.95785
# Shear Modulus (GPa) = 18.10775 26.22961 22.16868
#
# Velocity S-wave (km/s) = 2.82708 3.40253 3.12806
# Velocity P-wave (km/s) = 5.19357 6.22948 5.73496
#
# Compressibility (1/GPa) = 0.02705081
#
# Stress axis : x y z
#
# Youngs Moduli (GPa) = 46.41479 55.49514 56.23839
#
# Poissons Ratio (x) = 0.76098 -0.41325
# Poissons Ratio (y) = 0.63647 0.49395
# Poissons Ratio (z) = -0.34106 0.48742
#
# Static dielectric constant tensor:
#      x y z
#    x 1.820370 0.000000 0.000000 
#    y 0.000000 1.868180 0.000000 
#    z 0.000000 0.000000 1.907830 
# 
# From -- ./inp_files/8520.got.cif
#   From: 2010.05.17/outbox.cif.g08.bks.cpg/sg52_5_cif.got.tgz:8520.got - 2010.06.03 12:15:38.
