data_PCOD9409087
_publ_section_title
;
Structure prediction by ZEFSAII (Michael W. Deem and Ramdas Pophale) SiO2 
 PCOD9409087
Probable space group: P N N A
;
_chemical_formula_sum "Si O2"
_cell_formula_units_Z 44
_cell_length_a 16.429679
_cell_length_b 8.944787
_cell_length_c 16.050863
_cell_angle_alpha 90.000000
_cell_angle_beta 90.000000
_cell_angle_gamma 90.000000
_cell_volume 2358.834492
_symmetry_space_group_name_H-M "P N N A"
_symmetry_group_IT_number 52
_symmetry_cell_setting 'orthorhombic'
loop_
_space_group_symop_operation_xyz
x,y,z
1/2-x,-y,z
x,1/2-y,1/2-z
1/2-x,1/2+y,1/2-z
-x,-y,-z
1/2+x,y,-z
-x,1/2+y,1/2+z
1/2+x,1/2-y,1/2+z
loop_
_atom_site_type_symbol
_atom_site_label
_atom_site_fract_x
_atom_site_fract_y
_atom_site_fract_z
Si Si1 0.951538 0.248258 0.340924
Si Si2 0.211974 0.220668 0.394086
Si Si3 0.630113 0.715724 0.516794
Si Si4 0.668444 0.750000 0.750000
Si Si5 0.906235 0.515102 0.643922
Si Si6 0.439838 0.991272 0.420793
O O1 0.911628 0.250000 0.250000
O O2 0.012123 0.390714 0.343705
O O3 0.007582 0.099028 0.352579
O O4 0.894576 0.256554 0.421830
O O5 0.273785 0.268593 0.467131
O O6 0.271539 0.176519 0.318701
O O7 0.165053 0.363146 0.357517
O O8 0.143901 0.104558 0.425439
O O9 0.597535 0.560373 0.552732
O O10 0.588247 0.837928 0.578419
O O11 0.616131 0.615143 0.709517
O O12 0.500000 0.000000 0.500000
#
# Coordination Sequence:
#
# PCOD9409087 Si02
#       6
#     8   8   8   4   8   8
#     4  10  22  36  55  79 116 147 188 235 284 329
#     4  10  21  34  55  82 117 145 187 234 285 345
#     4  10  19  36  56  79 109 152 192 224 280 340
#     4  10  20  30  52  86 118 138 192 226 304 334
#     4  10  22  35  53  83 113 152 183 231 288 352
#     4   9  20  35  54  81 110 149 183 229 282 342
#
# _framework density 18.653279999999999
#
# number of rings (size 3 to 8) (size 9 to 14) (size 15 to 20)
#    0.000    2.182    0.000    3.273   10.182    2.909 
#    0.000    0.000    0.000    8.727    0.000    0.000 
#    0.000    0.000    0.000    0.000    0.000    0.000 
#
# Total GULP energy -245063.078216 kJ/mol
# GULP energy per Si atom -5569.615414 kJ/mol
# Density = 1.861082 g / cm^3
# Si number density = 18.653280 Si / 1000 Ang^3
#
#
#
# Elastic Constant Matrix: (Units=GPa)
#
#
# Indices 1 2 3 4 5 6 
#
# 1 64.7444 2.7005 37.3722 0.0000 0.0000 0.0000
# 2 2.7005 65.6388 17.3147 0.0000 0.0000 0.0000
# 3 37.3722 17.3147 118.8310 0.0000 0.0000 0.0000
# 4 0.0000 0.0000 0.0000 27.6522 0.0000 0.0000
# 5 0.0000 0.0000 0.0000 0.0000 20.2238 0.0000
# 6 0.0000 0.0000 0.0000 0.0000 0.0000 18.0577
#
#
#
# Elastic Compliance Matrix: (Units=1/GPa)
#
#
# Indices 1 2 3 4 5 6 
#
# 1 0.018914 0.000823 -0.006068 0.000000 0.000000 0.000000
# 2 0.000823 0.015880 -0.002572 0.000000 0.000000 0.000000
# 3 -0.006068 -0.002572 0.010699 0.000000 0.000000 0.000000
# 4 0.000000 0.000000 0.000000 0.036163 0.000000 0.000000
# 5 0.000000 0.000000 0.000000 0.000000 0.049447 0.000000
# 6 0.000000 0.000000 0.000000 0.000000 0.000000 0.055378
#
#
# Mechanical properties :
#
#
# Convention : Reuss Voigt Hill
#
# Bulk Modulus (GPa) = 33.49441 40.44323 36.96882
# Shear Modulus (GPa) = 23.57729 25.97519 24.77624
#
# Velocity S-wave (km/s) = 3.55910 3.73571 3.64847
# Velocity P-wave (km/s) = 5.90634 6.35106 6.13273
#
# Compressibility (1/GPa) = 0.02985573
#
# Stress axis : x y z
#
# Youngs Moduli (GPa) = 52.87151 62.97370 93.47021
#
# Poissons Ratio (x) = -0.05180 0.56720
# Poissons Ratio (y) = -0.04349 0.24045
# Poissons Ratio (z) = 0.32084 0.16200
#
# Static dielectric constant tensor:
#      x y z
#    x 1.653450 0.000000 0.000000 
#    y 0.000000 1.705890 0.000000 
#    z 0.000000 0.000000 1.692890 
# 
# From -- ./inp_files/27966.got.cif
#   From: 2010.05.17/outbox.cif.g08.bks.cpg/sg52_14_cif.got.tgz:27966.got - 2010.06.03 12:15:38.
