data_PCOD9409730
_publ_section_title
;
Structure prediction by ZEFSAII (Michael W. Deem and Ramdas Pophale) SiO2 
 PCOD9409730
Probable space group: P N N A
;
_chemical_formula_sum "Si O2"
_cell_formula_units_Z 44
_cell_length_a 10.784645
_cell_length_b 12.919164
_cell_length_c 13.740201
_cell_angle_alpha 90.000000
_cell_angle_beta 90.000000
_cell_angle_gamma 90.000000
_cell_volume 1914.402934
_symmetry_space_group_name_H-M "P N N A"
_symmetry_group_IT_number 52
_symmetry_cell_setting 'orthorhombic'
loop_
_space_group_symop_operation_xyz
x,y,z
1/2-x,-y,z
x,1/2-y,1/2-z
1/2-x,1/2+y,1/2-z
-x,-y,-z
1/2+x,y,-z
-x,1/2+y,1/2+z
1/2+x,1/2-y,1/2+z
loop_
_atom_site_type_symbol
_atom_site_label
_atom_site_fract_x
_atom_site_fract_y
_atom_site_fract_z
Si Si1 0.250000 0.000000 0.203891
Si Si2 0.401108 0.166902 0.324892
Si Si3 0.103965 0.461700 0.925322
Si Si4 0.037872 0.089227 0.075806
Si Si5 0.652208 0.303333 0.922420
Si Si6 0.071100 0.863530 0.723560
O O1 0.167885 0.927934 0.272331
O O2 0.336439 0.937465 0.131554
O O3 0.444044 0.250000 0.250000
O O4 0.525529 0.122465 0.368127
O O5 0.290408 0.221515 0.385496
O O6 0.135782 0.556163 0.851366
O O7 0.184993 0.394037 0.000163
O O8 0.000000 0.500000 0.000000
O O9 0.070639 0.205792 0.037625
O O10 0.944741 0.090413 0.168302
O O11 0.000000 0.000000 0.000000
O O12 0.562302 0.341499 0.832456
O O13 0.125116 0.750000 0.750000
#
# Coordination Sequence:
#
# PCOD9409730 Si02
#       6
#     4   8   8   8   8   8
#     4  12  20  38  60  86 116 158 206 260 310 368
#     4  12  21  37  64  92 122 161 211 262 314 380
#     4  10  21  34  58  93 123 156 203 261 321 380
#     4  11  22  34  56  86 122 160 201 265 314 370
#     4  10  20  36  56  90 126 158 200 263 320 375
#     4   9  17  35  54  79 115 155 195 245 314 368
#
# _framework density 22.983667000000001
#
# number of rings (size 3 to 8) (size 9 to 14) (size 15 to 20)
#    0.000    1.455    5.455    1.636    2.545    0.000 
#    0.000    0.000    0.000    4.364    0.000   12.727 
#    0.000    0.000    0.000    0.000    0.000    0.000 
#
# Total GULP energy -245094.685048 kJ/mol
# GULP energy per Si atom -5570.333751 kJ/mol
# Density = 2.293136 g / cm^3
# Si number density = 22.983667 Si / 1000 Ang^3
#
#
#
# Elastic Constant Matrix: (Units=GPa)
#
#
# Indices 1 2 3 4 5 6 
#
# 1 17.4194 -3.2866 1.8120 0.0000 0.0000 0.0000
# 2 -3.2866 131.4584 77.0353 0.0000 0.0000 0.0000
# 3 1.8120 77.0353 121.0943 0.0000 0.0000 0.0000
# 4 0.0000 0.0000 0.0000 73.8898 0.0000 0.0000
# 5 0.0000 0.0000 0.0000 0.0000 34.5752 0.0000
# 6 0.0000 0.0000 0.0000 0.0000 0.0000 29.5060
#
#
#
# Elastic Compliance Matrix: (Units=1/GPa)
#
#
# Indices 1 2 3 4 5 6 
#
# 1 0.058298 0.003139 -0.002869 0.000000 0.000000 0.000000
# 2 0.003139 0.012297 -0.007870 0.000000 0.000000 0.000000
# 3 -0.002869 -0.007870 0.013308 0.000000 0.000000 0.000000
# 4 0.000000 0.000000 0.000000 0.013534 0.000000 0.000000
# 5 0.000000 0.000000 0.000000 0.000000 0.028922 0.000000
# 6 0.000000 0.000000 0.000000 0.000000 0.000000 0.033891
#
#
# Mechanical properties :
#
#
# Convention : Reuss Voigt Hill
#
# Bulk Modulus (GPa) = 14.55562 46.78818 30.67190
# Shear Modulus (GPa) = 25.20777 40.55496 32.88137
#
# Velocity S-wave (km/s) = 3.31534 4.20517 3.78648
# Velocity P-wave (km/s) = 4.58281 6.63168 5.70006
#
# Compressibility (1/GPa) = 0.06870197
#
# Stress axis : x y z
#
# Youngs Moduli (GPa) = 17.15332 81.31859 75.14534
#
# Poissons Ratio (x) = -0.25524 0.21560
# Poissons Ratio (y) = -0.05384 0.59140
# Poissons Ratio (z) = 0.04921 0.63998
#
# Static dielectric constant tensor:
#      x y z
#    x 1.930050 0.000000 0.000000 
#    y 0.000000 1.982700 0.000000 
#    z 0.000000 0.000000 1.852740 
# 
# From -- ./inp_files/27099.got.cif
#   From: 2010.05.17/outbox.cif.g08.bks.cpg/sg52_14_cif.got.tgz:27099.got - 2010.06.03 12:15:38.
