data_PCOD9409303
_publ_section_title
;
Structure prediction by ZEFSAII (Michael W. Deem and Ramdas Pophale) SiO2 
 PCOD9409303
Probable space group: P N N A
;
_chemical_formula_sum "Si O2"
_cell_formula_units_Z 64
_cell_length_a 14.589077
_cell_length_b 12.006053
_cell_length_c 17.878256
_cell_angle_alpha 90.000000
_cell_angle_beta 90.000000
_cell_angle_gamma 90.000000
_cell_volume 3131.505828
_symmetry_space_group_name_H-M "P N N A"
_symmetry_group_IT_number 52
_symmetry_cell_setting 'orthorhombic'
loop_
_space_group_symop_operation_xyz
x,y,z
1/2-x,-y,z
x,1/2-y,1/2-z
1/2-x,1/2+y,1/2-z
-x,-y,-z
1/2+x,y,-z
-x,1/2+y,1/2+z
1/2+x,1/2-y,1/2+z
loop_
_atom_site_type_symbol
_atom_site_label
_atom_site_fract_x
_atom_site_fract_y
_atom_site_fract_z
Si Si1 0.628618 0.911048 0.533767
Si Si2 0.794614 0.202880 0.050937
Si Si3 0.577068 0.766622 0.664153
Si Si4 0.034925 0.544518 0.581212
Si Si5 0.571768 0.146932 0.526589
Si Si6 0.609998 0.305510 0.391965
Si Si7 0.771878 0.122511 0.892124
Si Si8 0.408474 0.785618 0.165635
O O1 0.687202 0.824272 0.485089
O O2 0.622107 0.870735 0.620229
O O3 0.525950 0.889199 0.504448
O O4 0.641372 0.042648 0.524362
O O5 0.888537 0.140944 0.071754
O O6 0.719353 0.206318 0.116622
O O7 0.756494 0.131105 0.980851
O O8 0.600479 0.750000 0.750000
O O9 0.467084 0.761644 0.654429
O O10 0.624639 0.662852 0.621376
O O11 0.081995 0.434144 0.614706
O O12 0.000000 0.500000 0.500000
O O13 0.957710 0.602521 0.633331
O O14 0.597855 0.251407 0.474788
O O15 0.561175 0.187292 0.610635
O O16 0.700065 0.200605 0.849468
O O17 0.750000 0.000000 0.865561
O O18 0.427964 0.750000 0.250000
#
# Coordination Sequence:
#
# PCOD9409303 Si02
#       8
#     8   8   8   8   8   8   8   8
#     4   9  20  36  63  83 121 165 208 264 313 381
#     4  11  20  36  62  98 120 159 219 270 313 384
#     4  10  22  40  57  86 122 168 213 255 323 398
#     4  12  20  38  64  92 128 164 212 273 318 387
#     4  10  19  39  56  88 123 163 212 256 320 382
#     4  11  21  36  63  89 116 165 215 264 314 376
#     4  11  21  36  60  91 124 161 210 268 329 395
#     4  12  24  38  59  95 133 167 207 275 349 397
#
# _framework density 20.437452
#
# number of rings (size 3 to 8) (size 9 to 14) (size 15 to 20)
#    0.000    1.250    3.750    4.500    0.000    2.500 
#    0.000    0.625    0.000    0.000    0.000    0.000 
#    0.000    0.000    0.000    0.000    0.000    0.000 
#
# Total GULP energy -356887.118144 kJ/mol
# GULP energy per Si atom -5576.361221 kJ/mol
# Density = 2.039094 g / cm^3
# Si number density = 20.437452 Si / 1000 Ang^3
#
#
#
# Elastic Constant Matrix: (Units=GPa)
#
#
# Indices 1 2 3 4 5 6 
#
# 1 90.0353 16.4792 4.3067 0.0000 0.0000 0.0000
# 2 16.4792 97.3938 10.7141 0.0000 0.0000 0.0000
# 3 4.3067 10.7141 60.9780 0.0000 0.0000 0.0000
# 4 0.0000 0.0000 0.0000 11.5245 0.0000 0.0000
# 5 0.0000 0.0000 0.0000 0.0000 22.8704 0.0000
# 6 0.0000 0.0000 0.0000 0.0000 0.0000 29.8280
#
#
#
# Elastic Compliance Matrix: (Units=1/GPa)
#
#
# Indices 1 2 3 4 5 6 
#
# 1 0.011475 -0.001889 -0.000479 0.000000 0.000000 0.000000
# 2 -0.001889 0.010781 -0.001761 0.000000 0.000000 0.000000
# 3 -0.000479 -0.001761 0.016743 0.000000 0.000000 0.000000
# 4 0.000000 0.000000 0.000000 0.086772 0.000000 0.000000
# 5 0.000000 0.000000 0.000000 0.000000 0.043725 0.000000
# 6 0.000000 0.000000 0.000000 0.000000 0.000000 0.033526
#
#
# Mechanical properties :
#
#
# Convention : Reuss Voigt Hill
#
# Bulk Modulus (GPa) = 32.52876 34.60079 33.56478
# Shear Modulus (GPa) = 22.57080 27.30504 24.93792
#
# Velocity S-wave (km/s) = 3.32683 3.65914 3.49694
# Velocity P-wave (km/s) = 5.54147 5.90078 5.72395
#
# Compressibility (1/GPa) = 0.03074203
#
# Stress axis : x y z
#
# Youngs Moduli (GPa) = 87.14301 92.75637 59.72807
#
# Poissons Ratio (x) = 0.17522 0.02858
# Poissons Ratio (y) = 0.16461 0.10517
# Poissons Ratio (z) = 0.04170 0.16333
#
# Static dielectric constant tensor:
#      x y z
#    x 1.826950 0.000000 0.000000 
#    y 0.000000 1.782430 0.000000 
#    z 0.000000 0.000000 1.703130 
# 
# From -- ./inp_files/33293.got.cif
#   From: 2010.05.17/outbox.cif.g08.bks.cpg/sg52_17_cif.got.tgz:33293.got - 2010.06.03 12:15:38.
