data_PCOD9409993
_publ_section_title
;
Structure prediction by ZEFSAII (Michael W. Deem and Ramdas Pophale) SiO2 
 PCOD9409993
Probable space group: P N N A
;
_chemical_formula_sum "Si O2"
_cell_formula_units_Z 24
_cell_length_a 14.432755
_cell_length_b 5.091689
_cell_length_c 12.806952
_cell_angle_alpha 90.000000
_cell_angle_beta 90.000000
_cell_angle_gamma 90.000000
_cell_volume 941.145761
_symmetry_space_group_name_H-M "P N N A"
_symmetry_group_IT_number 52
_symmetry_cell_setting 'orthorhombic'
loop_
_space_group_symop_operation_xyz
x,y,z
1/2-x,-y,z
x,1/2-y,1/2-z
1/2-x,1/2+y,1/2-z
-x,-y,-z
1/2+x,y,-z
-x,1/2+y,1/2+z
1/2+x,1/2-y,1/2+z
loop_
_atom_site_type_symbol
_atom_site_label
_atom_site_fract_x
_atom_site_fract_y
_atom_site_fract_z
Si Si1 0.633218 0.314152 0.851707
Si Si2 0.807949 0.749959 0.412184
Si Si3 0.985122 0.158535 0.891119
O O1 0.696493 0.250000 0.750000
O O2 0.583084 0.590877 0.882410
O O3 0.559640 0.077966 0.827648
O O4 0.683723 0.246893 0.960741
O O5 0.750000 0.500000 0.379130
O O6 0.911730 0.754247 0.368411
O O7 0.750000 0.000000 0.381237
O O8 0.000000 0.000000 0.000000
#
# Coordination Sequence:
#
# PCOD9409993 Si02
#       3
#     8   8   8
#     4  11  22  37  59  85 115 150 189 237 291 346
#     4  11  21  35  58  85 113 145 185 236 288 341
#     4  10  20  38  58  80 111 155 200 227 269 349
#
# _framework density 25.500831000000002
#
# number of rings (size 3 to 8) (size 9 to 14) (size 15 to 20)
#    0.000    1.333    0.000   11.000    0.000    1.333 
#    0.000    0.000    0.000   20.000    0.000    0.000 
#    0.000    0.000    0.000    0.000    0.000    0.000 
#
# Total GULP energy -133967.181141 kJ/mol
# GULP energy per Si atom -5581.965881 kJ/mol
# Density = 2.544279 g / cm^3
# Si number density = 25.500831 Si / 1000 Ang^3
#
#
#
# Elastic Constant Matrix: (Units=GPa)
#
#
# Indices 1 2 3 4 5 6 
#
# 1 111.2539 87.2208 -14.8578 0.0000 0.0000 0.0000
# 2 87.2208 240.2246 5.1673 0.0000 0.0000 0.0000
# 3 -14.8578 5.1673 118.8809 0.0000 0.0000 0.0000
# 4 0.0000 0.0000 0.0000 26.6905 0.0000 0.0000
# 5 0.0000 0.0000 0.0000 0.0000 -11.8931 0.0000
# 6 0.0000 0.0000 0.0000 0.0000 0.0000 73.2749
#
#
#
# Elastic Compliance Matrix: (Units=1/GPa)
#
#
# Indices 1 2 3 4 5 6 
#
# 1 0.012949 -0.004741 0.001824 0.000000 0.000000 0.000000
# 2 -0.004741 0.005902 -0.000849 0.000000 0.000000 0.000000
# 3 0.001824 -0.000849 0.008677 0.000000 0.000000 0.000000
# 4 0.000000 0.000000 0.000000 0.037466 0.000000 0.000000
# 5 0.000000 0.000000 0.000000 0.000000 -0.084082 0.000000
# 6 0.000000 0.000000 0.000000 0.000000 0.000000 0.013647
#
#
# Mechanical properties :
#
#
# Convention : Reuss Voigt Hill
#
# Bulk Modulus (GPa) = 50.00743 69.49112 59.74928
# Shear Modulus (GPa) = 571.07987 43.80307 307.44147
#
# Velocity S-wave (km/s) = 14.98105 4.14902 10.99196
# Velocity P-wave (km/s) = 17.85763 7.08959 13.58597
#
# Compressibility (1/GPa) = 0.01999703
#
# Stress axis : x y z
#
# Youngs Moduli (GPa) = 77.22809 169.42637 115.25125
#
# Poissons Ratio (x) = 0.80319 -0.21026
# Poissons Ratio (y) = 0.36611 0.09785
# Poissons Ratio (z) = -0.14089 0.14385
#
# Static dielectric constant tensor:
#      x y z
#    x 2.060080 0.000000 0.000000 
#    y 0.000000 2.024250 0.000000 
#    z 0.000000 0.000000 2.503940 
# 
# From -- ./inp_files/26453.got.cif
#   From: 2010.05.17/outbox.cif.g08.bks.cpg/sg52_14_cif.got.tgz:26453.got - 2010.06.03 12:15:38.
