data_PCOD9409766
_publ_section_title
;
Structure prediction by ZEFSAII (Michael W. Deem and Ramdas Pophale) SiO2 
 PCOD9409766
Probable space group: P N N A
;
_chemical_formula_sum "Si O2"
_cell_formula_units_Z 40
_cell_length_a 25.929079
_cell_length_b 11.843183
_cell_length_c 6.123491
_cell_angle_alpha 90.000000
_cell_angle_beta 90.000000
_cell_angle_gamma 90.000000
_cell_volume 1880.418931
_symmetry_space_group_name_H-M "P N N A"
_symmetry_group_IT_number 52
_symmetry_cell_setting 'orthorhombic'
loop_
_space_group_symop_operation_xyz
x,y,z
1/2-x,-y,z
x,1/2-y,1/2-z
1/2-x,1/2+y,1/2-z
-x,-y,-z
1/2+x,y,-z
-x,1/2+y,1/2+z
1/2+x,1/2-y,1/2+z
loop_
_atom_site_type_symbol
_atom_site_label
_atom_site_fract_x
_atom_site_fract_y
_atom_site_fract_z
Si Si1 0.092430 0.250000 0.250000
Si Si2 0.323833 0.372769 0.696613
Si Si3 0.532391 0.360858 0.386368
Si Si4 0.417782 0.066738 0.039385
Si Si5 0.654427 0.048408 0.593696
Si Si6 0.750000 0.500000 0.636442
O O1 0.053163 0.331364 0.374508
O O2 0.127461 0.172746 0.411621
O O3 0.302285 0.250000 0.750000
O O4 0.378971 0.350347 0.581206
O O5 0.285316 0.425718 0.520887
O O6 0.333637 0.466000 0.888009
O O7 0.543895 0.250000 0.250000
O O8 0.471954 0.385912 0.377672
O O9 0.565143 0.474569 0.353012
O O10 0.383681 0.017517 0.238252
O O11 0.709531 0.065523 0.711485
#
# Coordination Sequence:
#
# PCOD9409766 Si02
#       6
#     4   8   8   8   8   4
#     4  10  22  38  64  90 118 168 212 246 314 380
#     4  11  24  40  65  92 123 163 211 266 326 392
#     4  10  20  36  59  86 126 165 205 255 304 374
#     4   9  22  37  55  92 124 160 209 253 312 380
#     4  10  22  41  61  87 124 158 205 267 317 384
#     4  10  24  42  60  90 118 156 210 260 332 384
#
# _framework density 21.271854999999999
#
# number of rings (size 3 to 8) (size 9 to 14) (size 15 to 20)
#    0.000    2.000    0.000    1.800    4.200    5.600 
#    0.000    8.000    0.000    0.000    0.000    0.000 
#    0.000    0.000    0.000    0.000    0.000    0.000 
#
# Total GULP energy -222670.393344 kJ/mol
# GULP energy per Si atom -5566.759834 kJ/mol
# Density = 2.122344 g / cm^3
# Si number density = 21.271855 Si / 1000 Ang^3
#
#
#
# Elastic Constant Matrix: (Units=GPa)
#
#
# Indices 1 2 3 4 5 6 
#
# 1 133.5252 7.7972 27.6743 0.0000 0.0000 0.0000
# 2 7.7972 43.4500 -0.7109 0.0000 0.0000 0.0000
# 3 27.6743 -0.7109 36.8914 0.0000 0.0000 0.0000
# 4 0.0000 0.0000 0.0000 20.9966 0.0000 0.0000
# 5 0.0000 0.0000 0.0000 0.0000 -42.4471 0.0000
# 6 0.0000 0.0000 0.0000 0.0000 0.0000 -39.4939
#
#
#
# Elastic Compliance Matrix: (Units=1/GPa)
#
#
# Indices 1 2 3 4 5 6 
#
# 1 0.008995 -0.001725 -0.006781 0.000000 0.000000 0.000000
# 2 -0.001725 0.023353 0.001744 0.000000 0.000000 0.000000
# 3 -0.006781 0.001744 0.032227 0.000000 0.000000 0.000000
# 4 0.000000 0.000000 0.000000 0.047627 0.000000 0.000000
# 5 0.000000 0.000000 0.000000 0.000000 -0.023559 0.000000
# 6 0.000000 0.000000 0.000000 0.000000 0.000000 -0.025320
#
#
# Mechanical properties :
#
#
# Convention : Reuss Voigt Hill
#
# Bulk Modulus (GPa) = 19.58816 31.48754 25.53785
# Shear Modulus (GPa) = 53.26794 -0.24850 26.50972
#
# Velocity S-wave (km/s) = 5.00958 -0.34216 3.53403
# Velocity P-wave (km/s) = 6.53373 3.83125 5.35575
#
# Compressibility (1/GPa) = 0.05105123
#
# Stress axis : x y z
#
# Youngs Moduli (GPa) = 111.16744 42.82092 31.02966
#
# Poissons Ratio (x) = 0.07387 0.21042
# Poissons Ratio (y) = 0.19179 -0.05412
# Poissons Ratio (z) = 0.75385 -0.07469
#
# Static dielectric constant tensor:
#      x y z
#    x 1.729080 0.000000 0.000000 
#    y 0.000000 1.884490 0.000000 
#    z 0.000000 0.000000 1.791760 
# 
# From -- ./inp_files/5606.got.cif
#   From: 2010.05.17/outbox.cif.g08.bks.cpg/sg52_3_cif.got.tgz:5606.got - 2010.06.03 12:15:38.
