data_PCOD9409153
_publ_section_title
;
Structure prediction by ZEFSAII (Michael W. Deem and Ramdas Pophale) SiO2 
 PCOD9409153
Probable space group: P N N A
;
_chemical_formula_sum "Si O2"
_cell_formula_units_Z 24
_cell_length_a 11.392750
_cell_length_b 7.334108
_cell_length_c 12.391568
_cell_angle_alpha 90.000000
_cell_angle_beta 90.000000
_cell_angle_gamma 90.000000
_cell_volume 1035.385629
_symmetry_space_group_name_H-M "P N N A"
_symmetry_group_IT_number 52
_symmetry_cell_setting 'orthorhombic'
loop_
_space_group_symop_operation_xyz
x,y,z
1/2-x,-y,z
x,1/2-y,1/2-z
1/2-x,1/2+y,1/2-z
-x,-y,-z
1/2+x,y,-z
-x,1/2+y,1/2+z
1/2+x,1/2-y,1/2+z
loop_
_atom_site_type_symbol
_atom_site_label
_atom_site_fract_x
_atom_site_fract_y
_atom_site_fract_z
Si Si1 0.439622 0.474802 0.616394
Si Si2 0.222087 0.203889 0.589507
Si Si3 0.321891 0.826272 0.142347
O O1 0.500000 0.500000 0.500000
O O2 0.340293 0.320726 0.607407
O O3 0.378369 0.667459 0.641435
O O4 0.551511 0.402300 0.680655
O O5 0.183022 0.196106 0.462252
O O6 0.250000 0.000000 0.628440
O O7 0.262803 0.750000 0.250000
O O8 0.250000 0.000000 0.102296
#
# Coordination Sequence:
#
# PCOD9409153 Si02
#       3
#     8   8   8
#     4   9  18  37  58  83 119 150 192 244 280 352
#     4  10  19  36  64  87 111 156 203 236 288 353
#     4  11  21  37  56  89 125 152 191 252 299 340
#
# _framework density 23.179769
#
# number of rings (size 3 to 8) (size 9 to 14) (size 15 to 20)
#    0.000    2.000    6.667    1.000    0.000    5.333 
#    6.000    0.000    7.333    0.000    0.000    0.000 
#    0.000    0.000    0.000    0.000    0.000    0.000 
#
# Total GULP energy -133828.517357 kJ/mol
# GULP energy per Si atom -5576.188223 kJ/mol
# Density = 2.312701 g / cm^3
# Si number density = 23.179769 Si / 1000 Ang^3
#
#
#
# Elastic Constant Matrix: (Units=GPa)
#
#
# Indices 1 2 3 4 5 6 
#
# 1 130.8414 56.9651 -7.7720 0.0000 0.0000 0.0000
# 2 56.9651 180.2943 22.5822 0.0000 0.0000 0.0000
# 3 -7.7720 22.5822 59.5768 0.0000 0.0000 0.0000
# 4 0.0000 0.0000 0.0000 31.5933 0.0000 0.0000
# 5 0.0000 0.0000 0.0000 0.0000 -0.4430 0.0000
# 6 0.0000 0.0000 0.0000 0.0000 0.0000 22.4941
#
#
#
# Elastic Compliance Matrix: (Units=1/GPa)
#
#
# Indices 1 2 3 4 5 6 
#
# 1 0.009180 -0.003203 0.002412 0.000000 0.000000 0.000000
# 2 -0.003203 0.006940 -0.003048 0.000000 0.000000 0.000000
# 3 0.002412 -0.003048 0.018255 0.000000 0.000000 0.000000
# 4 0.000000 0.000000 0.000000 0.031652 0.000000 0.000000
# 5 0.000000 0.000000 0.000000 0.000000 -2.257129 0.000000
# 6 0.000000 0.000000 0.000000 0.000000 0.000000 0.044456
#
#
# Mechanical properties :
#
#
# Convention : Reuss Voigt Hill
#
# Bulk Modulus (GPa) = 37.45778 57.14035 47.29907
# Shear Modulus (GPa) = -2.34734 30.65802 14.15534
#
# Velocity S-wave (km/s) = -1.00741 3.64073 2.47387
# Velocity P-wave (km/s) = 3.85248 6.50981 5.34880
#
# Compressibility (1/GPa) = 0.02669672
#
# Stress axis : x y z
#
# Youngs Moduli (GPa) = 108.92716 144.08780 54.77905
#
# Poissons Ratio (x) = 0.46147 -0.13210
# Poissons Ratio (y) = 0.34886 0.16699
# Poissons Ratio (z) = -0.26269 0.43924
#
# Static dielectric constant tensor:
#      x y z
#    x 1.940160 0.000000 0.000000 
#    y 0.000000 1.170250 0.000000 
#    z 0.000000 0.000000 1.880410 
# 
# From -- ./inp_files/31728.got.cif
#   From: 2010.05.17/outbox.cif.g08.bks.cpg/sg52_16_cif.got.tgz:31728.got - 2010.06.03 12:15:38.
