data_PCOD9409763
_publ_section_title
;
Structure prediction by ZEFSAII (Michael W. Deem and Ramdas Pophale) SiO2 
 PCOD9409763
Probable space group: P N N A
;
_chemical_formula_sum "Si O2"
_cell_formula_units_Z 48
_cell_length_a 20.042844
_cell_length_b 15.302433
_cell_length_c 8.189178
_cell_angle_alpha 90.000000
_cell_angle_beta 90.000000
_cell_angle_gamma 90.000000
_cell_volume 2511.655921
_symmetry_space_group_name_H-M "P N N A"
_symmetry_group_IT_number 52
_symmetry_cell_setting 'orthorhombic'
loop_
_space_group_symop_operation_xyz
x,y,z
1/2-x,-y,z
x,1/2-y,1/2-z
1/2-x,1/2+y,1/2-z
-x,-y,-z
1/2+x,y,-z
-x,1/2+y,1/2+z
1/2+x,1/2-y,1/2+z
loop_
_atom_site_type_symbol
_atom_site_label
_atom_site_fract_x
_atom_site_fract_y
_atom_site_fract_z
Si Si1 0.825756 0.494107 0.888088
Si Si2 0.308902 0.335400 0.362243
Si Si3 0.467346 0.593522 0.558740
Si Si4 0.557588 0.506991 0.134694
Si Si5 0.652417 0.342082 0.666348
Si Si6 0.078672 0.669444 0.627545
O O1 0.750000 0.500000 0.945371
O O2 0.827658 0.418987 0.749590
O O3 0.845688 0.584738 0.805433
O O4 0.874498 0.481053 0.036822
O O5 0.322204 0.250000 0.250000
O O6 0.229127 0.336110 0.396633
O O7 0.352303 0.337883 0.527149
O O8 0.500000 0.500000 0.500000
O O9 0.449763 0.576432 0.746825
O O10 0.400804 0.622313 0.463543
O O11 0.522425 0.666077 0.514058
O O12 0.557558 0.590016 0.254250
O O13 0.500000 0.500000 0.000000
O O14 0.633885 0.250000 0.750000
O O15 0.079651 0.750000 0.750000
#
# Coordination Sequence:
#
# PCOD9409763 Si02
#       6
#     8   8   8   8   8   8
#     4  10  20  36  59  84 115 156 198 244 301 362
#     4  10  21  39  63  89 119 157 203 256 313 370
#     4  10  21  37  58  83 115 156 201 247 296 355
#     4  11  22  37  56  83 120 155 196 248 298 357
#     4  10  21  40  62  86 121 162 204 252 310 371
#     4  11  22  37  61  87 116 154 200 253 304 363
#
# _framework density 19.110897999999999
#
# number of rings (size 3 to 8) (size 9 to 14) (size 15 to 20)
#    0.000    1.667    0.000    6.500    0.000    1.333 
#    0.000    2.500    0.000    0.000    0.000    0.000 
#    0.000    0.000    0.000    0.000    0.000    0.000 
#
# Total GULP energy -267667.904732 kJ/mol
# GULP energy per Si atom -5576.414682 kJ/mol
# Density = 1.906740 g / cm^3
# Si number density = 19.110898 Si / 1000 Ang^3
#
#
#
# Elastic Constant Matrix: (Units=GPa)
#
#
# Indices 1 2 3 4 5 6 
#
# 1 85.5981 44.9935 82.3194 0.0000 0.0000 0.0000
# 2 44.9935 104.8983 51.1217 0.0000 0.0000 0.0000
# 3 82.3194 51.1217 113.7901 0.0000 0.0000 0.0000
# 4 0.0000 0.0000 0.0000 29.0692 0.0000 0.0000
# 5 0.0000 0.0000 0.0000 0.0000 -82.5207 0.0000
# 6 0.0000 0.0000 0.0000 0.0000 0.0000 12.5005
#
#
#
# Elastic Compliance Matrix: (Units=1/GPa)
#
#
# Indices 1 2 3 4 5 6 
#
# 1 0.039584 -0.003870 -0.026898 0.000000 0.000000 0.000000
# 2 -0.003870 0.012584 -0.002854 0.000000 0.000000 0.000000
# 3 -0.026898 -0.002854 0.029529 0.000000 0.000000 0.000000
# 4 0.000000 0.000000 0.000000 0.034401 0.000000 0.000000
# 5 0.000000 0.000000 0.000000 0.000000 -0.012118 0.000000
# 6 0.000000 0.000000 0.000000 0.000000 0.000000 0.079997
#
#
# Mechanical properties :
#
#
# Convention : Reuss Voigt Hill
#
# Bulk Modulus (GPa) = 69.18629 73.46176 71.32403
# Shear Modulus (GPa) = 19.52838 0.19994 9.86416
#
# Velocity S-wave (km/s) = 3.20010 0.32380 2.27437
# Velocity P-wave (km/s) = 7.06649 6.21796 6.65576
#
# Compressibility (1/GPa) = 0.01445373
#
# Stress axis : x y z
#
# Youngs Moduli (GPa) = 25.26243 79.46753 33.86503
#
# Poissons Ratio (x) = 0.30755 0.91090
# Poissons Ratio (y) = 0.09777 0.09664
# Poissons Ratio (z) = 0.67951 0.22677
#
# Static dielectric constant tensor:
#      x y z
#    x 1.832830 0.000000 0.000000 
#    y 0.000000 1.715520 0.000000 
#    z 0.000000 0.000000 1.577050 
# 
# From -- ./inp_files/12114.got.cif
#   From: 2010.05.17/outbox.cif.g08.bks.cpg/sg52_7_cif.got.tgz:12114.got - 2010.06.03 12:15:38.
