data_PCOD9409161
_publ_section_title
;
Structure prediction by ZEFSAII (Michael W. Deem and Ramdas Pophale) SiO2 
 PCOD9409161
Probable space group: P N N A
;
_chemical_formula_sum "Si O2"
_cell_formula_units_Z 24
_cell_length_a 7.751813
_cell_length_b 8.213163
_cell_length_c 14.103664
_cell_angle_alpha 90.000000
_cell_angle_beta 90.000000
_cell_angle_gamma 90.000000
_cell_volume 897.936618
_symmetry_space_group_name_H-M "P N N A"
_symmetry_group_IT_number 52
_symmetry_cell_setting 'orthorhombic'
loop_
_space_group_symop_operation_xyz
x,y,z
1/2-x,-y,z
x,1/2-y,1/2-z
1/2-x,1/2+y,1/2-z
-x,-y,-z
1/2+x,y,-z
-x,1/2+y,1/2+z
1/2+x,1/2-y,1/2+z
loop_
_atom_site_type_symbol
_atom_site_label
_atom_site_fract_x
_atom_site_fract_y
_atom_site_fract_z
Si Si1 0.806824 0.814347 0.966904
Si Si2 0.910878 0.107951 0.675914
Si Si3 0.359163 0.199854 0.642033
O O1 0.799248 0.754923 0.075562
O O2 0.750000 0.000000 0.962140
O O3 0.675352 0.691627 0.915194
O O4 0.983995 0.795841 0.909812
O O5 0.951576 0.250000 0.750000
O O6 0.750000 0.000000 0.717600
O O7 0.062789 0.982424 0.650120
O O8 0.335842 0.250000 0.750000
#
# Coordination Sequence:
#
# PCOD9409161 Si02
#       3
#     8   8   8
#     4  11  22  41  68  98 134 179 229 287 348 411
#     4  10  19  36  64  97 133 180 231 283 344 412
#     4  11  24  43  66  99 137 179 230 286 346 413
#
# _framework density 26.727945999999999
#
# number of rings (size 3 to 8) (size 9 to 14) (size 15 to 20)
#    0.000    1.333    0.000    9.000    0.000    0.000 
#    0.000   11.667    0.000    0.000    0.000    2.333 
#    0.000    0.000    0.000    0.000    0.000    0.000 
#
# Total GULP energy -134688.218470 kJ/mol
# GULP energy per Si atom -5612.009103 kJ/mol
# Density = 2.666711 g / cm^3
# Si number density = 26.727946 Si / 1000 Ang^3
#
#
#
# Elastic Constant Matrix: (Units=GPa)
#
#
# Indices 1 2 3 4 5 6 
#
# 1 134.6925 16.0720 28.3484 0.0000 0.0000 0.0000
# 2 16.0720 197.3144 47.1255 0.0000 0.0000 0.0000
# 3 28.3484 47.1255 215.1011 0.0000 0.0000 0.0000
# 4 0.0000 0.0000 0.0000 65.4562 0.0000 0.0000
# 5 0.0000 0.0000 0.0000 0.0000 75.0131 0.0000
# 6 0.0000 0.0000 0.0000 0.0000 0.0000 25.9419
#
#
#
# Elastic Compliance Matrix: (Units=1/GPa)
#
#
# Indices 1 2 3 4 5 6 
#
# 1 0.007667 -0.000404 -0.000922 0.000000 0.000000 0.000000
# 2 -0.000404 0.005369 -0.001123 0.000000 0.000000 0.000000
# 3 -0.000922 -0.001123 0.005017 0.000000 0.000000 0.000000
# 4 0.000000 0.000000 0.000000 0.015277 0.000000 0.000000
# 5 0.000000 0.000000 0.000000 0.000000 0.013331 0.000000
# 6 0.000000 0.000000 0.000000 0.000000 0.000000 0.038548
#
#
# Mechanical properties :
#
#
# Convention : Reuss Voigt Hill
#
# Bulk Modulus (GPa) = 76.02258 81.13329 78.57794
# Shear Modulus (GPa) = 52.91494 63.65305 58.28399
#
# Velocity S-wave (km/s) = 4.45428 4.88537 4.67480
# Velocity P-wave (km/s) = 7.41343 7.88946 7.65515
#
# Compressibility (1/GPa) = 0.01315399
#
# Stress axis : x y z
#
# Youngs Moduli (GPa) = 130.43636 186.24730 199.34206
#
# Poissons Ratio (x) = 0.07530 0.18375
# Poissons Ratio (y) = 0.05274 0.22387
# Poissons Ratio (z) = 0.12024 0.20916
#
# Static dielectric constant tensor:
#      x y z
#    x 2.249730 0.000000 0.000000 
#    y 0.000000 2.051530 0.000000 
#    z 0.000000 0.000000 2.025480 
# 
# From -- ./inp_files/17403.got.cif
#   From: 2010.05.17/outbox.cif.g08.bks.cpg/sg52_9_cif.got.tgz:17403.got - 2010.06.03 12:15:38.
