data_PCOD9409890
_publ_section_title
;
Structure prediction by ZEFSAII (Michael W. Deem and Ramdas Pophale) SiO2 
 PCOD9409890
Probable space group: P N N A
;
_chemical_formula_sum "Si O2"
_cell_formula_units_Z 32
_cell_length_a 15.883932
_cell_length_b 11.064007
_cell_length_c 8.743395
_cell_angle_alpha 90.000000
_cell_angle_beta 90.000000
_cell_angle_gamma 90.000000
_cell_volume 1536.563668
_symmetry_space_group_name_H-M "P N N A"
_symmetry_group_IT_number 52
_symmetry_cell_setting 'orthorhombic'
loop_
_space_group_symop_operation_xyz
x,y,z
1/2-x,-y,z
x,1/2-y,1/2-z
1/2-x,1/2+y,1/2-z
-x,-y,-z
1/2+x,y,-z
-x,1/2+y,1/2+z
1/2+x,1/2-y,1/2+z
loop_
_atom_site_type_symbol
_atom_site_label
_atom_site_fract_x
_atom_site_fract_y
_atom_site_fract_z
Si Si1 0.654571 0.492680 0.395360
Si Si2 0.097780 0.756017 0.933271
Si Si3 0.404590 0.996157 0.560761
Si Si4 0.103900 0.245991 0.069462
O O1 0.750000 0.500000 0.338047
O O2 0.635377 0.616737 0.486034
O O3 0.596025 0.489721 0.245087
O O4 0.642252 0.372510 0.492860
O O5 0.112584 0.750000 0.750000
O O6 0.131851 0.626577 0.990112
O O7 0.997262 0.760692 0.958060
O O8 0.364788 0.872407 0.501180
O O9 0.500000 0.000000 0.500000
O O10 0.117404 0.250000 0.250000
#
# Coordination Sequence:
#
# PCOD9409890 Si02
#       4
#     8   8   8   8
#     4  11  22  37  59  89 121 158 199 245 303 360
#     4   8  17  34  56  82 113 148 194 244 287 343
#     4   9  19  36  58  85 114 152 200 247 296 354
#     4  10  20  37  59  84 117 158 201 244 290 351
#
# _framework density 20.825690999999999
#
# number of rings (size 3 to 8) (size 9 to 14) (size 15 to 20)
#    0.000    2.500    0.000    3.000    0.000    6.000 
#    0.000    7.500    0.000    0.000    0.000    0.000 
#    0.000    0.000    0.000    0.000    0.000    0.000 
#
# Total GULP energy -178401.305884 kJ/mol
# GULP energy per Si atom -5575.040809 kJ/mol
# Density = 2.077829 g / cm^3
# Si number density = 20.825691 Si / 1000 Ang^3
#
#
#
# Elastic Constant Matrix: (Units=GPa)
#
#
# Indices 1 2 3 4 5 6 
#
# 1 36.9884 30.6653 20.2746 0.0000 0.0000 0.0000
# 2 30.6653 241.0312 50.3036 0.0000 0.0000 0.0000
# 3 20.2746 50.3036 48.3718 0.0000 0.0000 0.0000
# 4 0.0000 0.0000 0.0000 8.5129 0.0000 0.0000
# 5 0.0000 0.0000 0.0000 0.0000 2.9990 0.0000
# 6 0.0000 0.0000 0.0000 0.0000 0.0000 -13.5552
#
#
#
# Elastic Compliance Matrix: (Units=1/GPa)
#
#
# Indices 1 2 3 4 5 6 
#
# 1 0.035709 -0.001813 -0.013082 0.000000 0.000000 0.000000
# 2 -0.001813 0.005391 -0.004846 0.000000 0.000000 0.000000
# 3 -0.013082 -0.004846 0.031196 0.000000 0.000000 0.000000
# 4 0.000000 0.000000 0.000000 0.117469 0.000000 0.000000
# 5 0.000000 0.000000 0.000000 0.000000 0.333441 0.000000
# 6 0.000000 0.000000 0.000000 0.000000 0.000000 -0.073772
#
#
# Mechanical properties :
#
#
# Convention : Reuss Voigt Hill
#
# Bulk Modulus (GPa) = 30.47474 58.76427 44.61950
# Shear Modulus (GPa) = 10.00292 14.60120 12.30206
#
# Velocity S-wave (km/s) = 2.19399 2.65073 2.43310
# Velocity P-wave (km/s) = 4.59164 6.13571 5.41895
#
# Compressibility (1/GPa) = 0.03281406
#
# Stress axis : x y z
#
# Youngs Moduli (GPa) = 28.00407 185.49677 32.05520
#
# Poissons Ratio (x) = 0.33629 0.41934
# Poissons Ratio (y) = 0.05077 0.15535
# Poissons Ratio (z) = 0.36634 0.89898
#
# Static dielectric constant tensor:
#      x y z
#    x 1.735840 0.000000 0.000000 
#    y 0.000000 1.830220 0.000000 
#    z 0.000000 0.000000 1.714070 
# 
# From -- ./inp_files/9564.got.cif
#   From: 2010.05.17/outbox.cif.g08.bks.cpg/sg52_5_cif.got.tgz:9564.got - 2010.06.03 12:15:38.
