data_PCOD9409032
_publ_section_title
;
Structure prediction by ZEFSAII (Michael W. Deem and Ramdas Pophale) SiO2 
 PCOD9409032
Probable space group: P N N A
;
_chemical_formula_sum "Si O2"
_cell_formula_units_Z 64
_cell_length_a 11.090411
_cell_length_b 7.583268
_cell_length_c 33.875542
_cell_angle_alpha 90.000000
_cell_angle_beta 90.000000
_cell_angle_gamma 90.000000
_cell_volume 2848.985889
_symmetry_space_group_name_H-M "P N N A"
_symmetry_group_IT_number 52
_symmetry_cell_setting 'orthorhombic'
loop_
_space_group_symop_operation_xyz
x,y,z
1/2-x,-y,z
x,1/2-y,1/2-z
1/2-x,1/2+y,1/2-z
-x,-y,-z
1/2+x,y,-z
-x,1/2+y,1/2+z
1/2+x,1/2-y,1/2+z
loop_
_atom_site_type_symbol
_atom_site_label
_atom_site_fract_x
_atom_site_fract_y
_atom_site_fract_z
Si Si1 0.769433 0.213032 0.155467
Si Si2 0.318307 0.179002 0.017212
Si Si3 0.228394 0.710716 0.564870
Si Si4 0.030868 0.288931 0.343192
Si Si5 0.010439 0.188554 0.565704
Si Si6 0.736709 0.711034 0.703943
Si Si7 0.001190 0.214902 0.842595
Si Si8 0.352657 0.623376 0.079647
O O1 0.793784 0.267724 0.109699
O O2 0.637083 0.273488 0.170186
O O3 0.898720 0.270332 0.172644
O O4 0.750000 0.000000 0.157167
O O5 0.438931 0.161562 0.042347
O O6 0.225109 0.278700 0.046274
O O7 0.250000 0.000000 0.009504
O O8 0.351256 0.247420 0.973464
O O9 0.250000 0.500000 0.569576
O O10 0.352940 0.803777 0.553843
O O11 0.139182 0.223186 0.315516
O O12 0.075403 0.232983 0.387248
O O13 0.013722 0.501690 0.343646
O O14 0.996064 0.222232 0.612255
O O15 0.945093 0.005791 0.557979
O O16 0.750000 0.500000 0.698560
O O17 0.730259 0.750000 0.750000
O O18 0.614221 0.774851 0.682538
O O19 0.250000 0.500000 0.100116
#
# Coordination Sequence:
#
# PCOD9409032 Si02
#       8
#     8   8   8   8   8   8   8   8
#     4   8  16  33  57  80 102 133 180 232 270 312
#     4  10  20  32  49  73 101 141 190 234 280 333
#     4   9  19  33  51  75 102 139 186 233 279 330
#     4  10  19  35  59  82 105 141 185 223 269 330
#     4  10  20  35  52  74 107 141 179 231 284 327
#     4  10  21  35  56  85 112 141 175 214 264 322
#     4   9  18  36  59  81 106 140 184 225 268 330
#     4  10  21  34  51  79 111 145 182 230 287 330
#
# _framework density 22.464134999999999
#
# number of rings (size 3 to 8) (size 9 to 14) (size 15 to 20)
#    0.000    2.500    0.000    3.000    0.000    6.000 
#    0.000    5.625    0.000    0.000    0.000    0.000 
#    0.000    0.000    0.000    0.000    0.000    0.000 
#
# Total GULP energy -356703.594914 kJ/mol
# GULP energy per Si atom -5573.493671 kJ/mol
# Density = 2.241301 g / cm^3
# Si number density = 22.464135 Si / 1000 Ang^3
#
#
#
# Elastic Constant Matrix: (Units=GPa)
#
#
# Indices 1 2 3 4 5 6 
#
# 1 163.2602 16.9654 40.0484 0.0000 0.0000 0.0000
# 2 16.9654 33.9174 -5.7371 0.0000 0.0000 0.0000
# 3 40.0484 -5.7371 63.5428 0.0000 0.0000 0.0000
# 4 0.0000 0.0000 0.0000 282.8755 0.0000 0.0000
# 5 0.0000 0.0000 0.0000 0.0000 4.5567 0.0000
# 6 0.0000 0.0000 0.0000 0.0000 0.0000 10.2659
#
#
#
# Elastic Compliance Matrix: (Units=1/GPa)
#
#
# Indices 1 2 3 4 5 6 
#
# 1 0.007978 -0.004916 -0.005472 0.000000 0.000000 0.000000
# 2 -0.004916 0.032970 0.006075 0.000000 0.000000 0.000000
# 3 -0.005472 0.006075 0.019735 0.000000 0.000000 0.000000
# 4 0.000000 0.000000 0.000000 0.003535 0.000000 0.000000
# 5 0.000000 0.000000 0.000000 0.000000 0.219458 0.000000
# 6 0.000000 0.000000 0.000000 0.000000 0.000000 0.097410
#
#
# Mechanical properties :
#
#
# Convention : Reuss Voigt Hill
#
# Bulk Modulus (GPa) = 19.20980 40.36376 29.78678
# Shear Modulus (GPa) = 12.28304 73.50253 42.89278
#
# Velocity S-wave (km/s) = 2.34088 5.72634 4.37440
# Velocity P-wave (km/s) = 3.98449 7.85674 6.22915
#
# Compressibility (1/GPa) = 0.05205676
#
# Stress axis : x y z
#
# Youngs Moduli (GPa) = 125.33689 30.33041 50.67145
#
# Poissons Ratio (x) = 0.14912 0.27729
# Poissons Ratio (y) = 0.61621 -0.30785
# Poissons Ratio (z) = 0.68589 -0.18427
#
# Static dielectric constant tensor:
#      x y z
#    x 1.912820 0.000000 0.000000 
#    y 0.000000 1.956740 0.000000 
#    z 0.000000 0.000000 1.811630 
# 
# From -- ./inp_files/44861.got.cif
#   From: 2010.05.17/outbox.cif.g08.bks.cpg/sg52_23_cif.got.tgz:44861.got - 2010.06.03 12:15:38.
