data_PCOD9409415
_publ_section_title
;
Structure prediction by ZEFSAII (Michael W. Deem and Ramdas Pophale) SiO2 
 PCOD9409415
Probable space group: P N N A
;
_chemical_formula_sum "Si O2"
_cell_formula_units_Z 56
_cell_length_a 18.190830
_cell_length_b 13.471457
_cell_length_c 13.141999
_cell_angle_alpha 90.000000
_cell_angle_beta 90.000000
_cell_angle_gamma 90.000000
_cell_volume 3220.538641
_symmetry_space_group_name_H-M "P N N A"
_symmetry_group_IT_number 52
_symmetry_cell_setting 'orthorhombic'
loop_
_space_group_symop_operation_xyz
x,y,z
1/2-x,-y,z
x,1/2-y,1/2-z
1/2-x,1/2+y,1/2-z
-x,-y,-z
1/2+x,y,-z
-x,1/2+y,1/2+z
1/2+x,1/2-y,1/2+z
loop_
_atom_site_type_symbol
_atom_site_label
_atom_site_fract_x
_atom_site_fract_y
_atom_site_fract_z
Si Si1 0.447413 0.829549 0.332063
Si Si2 0.630965 0.323952 0.047246
Si Si3 0.720216 0.766019 0.368950
Si Si4 0.929466 0.197997 0.067969
Si Si5 0.169082 0.979936 0.674156
Si Si6 0.524189 0.520766 0.307526
Si Si7 0.006584 0.706651 0.356685
O O1 0.417745 0.750000 0.250000
O O2 0.396773 0.836426 0.431673
O O3 0.525030 0.781957 0.370270
O O4 0.466996 0.931132 0.273498
O O5 0.706722 0.264014 0.063795
O O6 0.647775 0.430918 0.097873
O O7 0.566933 0.266169 0.108732
O O8 0.739785 0.750000 0.250000
O O9 0.654707 0.693109 0.398600
O O10 0.682203 0.874379 0.379342
O O11 0.970921 0.096819 0.098554
O O12 0.937643 0.219318 0.949527
O O13 0.103538 0.975892 0.753638
O O14 0.250000 0.000000 0.720744
O O15 0.508116 0.409497 0.339917
O O16 0.032530 0.750000 0.250000
#
# Coordination Sequence:
#
# PCOD9409415 Si02
#       7
#     8   8   8   8   8   8   8
#     4   9  19  37  58  76 103 144 186 215 263 323
#     4  10  22  35  54  82 110 140 178 228 271 324
#     4  11  19  35  57  80 108 139 177 224 276 324
#     4  10  20  35  54  80 106 142 181 221 267 327
#     4  10  20  31  53  83 112 135 174 219 279 318
#     4  11  19  34  54  79 110 146 175 226 270 324
#     4  11  22  34  51  81 114 142 181 225 273 314
#
# _framework density 17.388394999999999
#
# number of rings (size 3 to 8) (size 9 to 14) (size 15 to 20)
#    0.000    1.714    4.286    1.286    2.000    1.714 
#    0.000    0.714    0.000    0.000    0.000    0.000 
#    0.000    0.000    0.000    0.000    0.000    0.000 
#
# Total GULP energy -312214.736668 kJ/mol
# GULP energy per Si atom -5575.263155 kJ/mol
# Density = 1.734882 g / cm^3
# Si number density = 17.388395 Si / 1000 Ang^3
#
#
#
# Elastic Constant Matrix: (Units=GPa)
#
#
# Indices 1 2 3 4 5 6 
#
# 1 61.9552 -1.0444 29.1339 0.0000 0.0000 0.0000
# 2 -1.0444 72.6748 16.7605 0.0000 0.0000 0.0000
# 3 29.1339 16.7605 103.2447 0.0000 0.0000 0.0000
# 4 0.0000 0.0000 0.0000 19.6465 0.0000 0.0000
# 5 0.0000 0.0000 0.0000 0.0000 16.2800 0.0000
# 6 0.0000 0.0000 0.0000 0.0000 0.0000 17.2049
#
#
#
# Elastic Compliance Matrix: (Units=1/GPa)
#
#
# Indices 1 2 3 4 5 6 
#
# 1 0.018777 0.001550 -0.005550 0.000000 0.000000 0.000000
# 2 0.001550 0.014423 -0.002779 0.000000 0.000000 0.000000
# 3 -0.005550 -0.002779 0.011703 0.000000 0.000000 0.000000
# 4 0.000000 0.000000 0.000000 0.050900 0.000000 0.000000
# 5 0.000000 0.000000 0.000000 0.000000 0.061425 0.000000
# 6 0.000000 0.000000 0.000000 0.000000 0.000000 0.058123
#
#
# Mechanical properties :
#
#
# Convention : Reuss Voigt Hill
#
# Bulk Modulus (GPa) = 31.90329 36.39720 34.15025
# Shear Modulus (GPa) = 20.88934 23.49460 22.19197
#
# Velocity S-wave (km/s) = 3.46979 3.67981 3.57634
# Velocity P-wave (km/s) = 5.86855 6.24756 6.06102
#
# Compressibility (1/GPa) = 0.03134472
#
# Stress axis : x y z
#
# Youngs Moduli (GPa) = 53.25755 69.33347 85.44854
#
# Poissons Ratio (x) = -0.10745 0.47424
# Poissons Ratio (y) = -0.08254 0.23744
# Poissons Ratio (z) = 0.29558 0.19266
#
# Static dielectric constant tensor:
#      x y z
#    x 1.589140 0.000000 0.000000 
#    y 0.000000 1.636880 0.000000 
#    z 0.000000 0.000000 1.579090 
# 
# From -- ./inp_files/21710.got.cif
#   From: 2010.05.17/outbox.cif.g08.bks.cpg/sg52_11_cif.got.tgz:21710.got - 2010.06.03 12:15:38.
