data_PCOD9409820
_publ_section_title
;
Structure prediction by ZEFSAII (Michael W. Deem and Ramdas Pophale) SiO2 
 PCOD9409820
Probable space group: P N N A
;
_chemical_formula_sum "Si O2"
_cell_formula_units_Z 36
_cell_length_a 18.721290
_cell_length_b 7.475463
_cell_length_c 10.933175
_cell_angle_alpha 90.000000
_cell_angle_beta 90.000000
_cell_angle_gamma 90.000000
_cell_volume 1530.101238
_symmetry_space_group_name_H-M "P N N A"
_symmetry_group_IT_number 52
_symmetry_cell_setting 'orthorhombic'
loop_
_space_group_symop_operation_xyz
x,y,z
1/2-x,-y,z
x,1/2-y,1/2-z
1/2-x,1/2+y,1/2-z
-x,-y,-z
1/2+x,y,-z
-x,1/2+y,1/2+z
1/2+x,1/2-y,1/2+z
loop_
_atom_site_type_symbol
_atom_site_label
_atom_site_fract_x
_atom_site_fract_y
_atom_site_fract_z
Si Si1 0.481263 0.113179 0.651267
Si Si2 0.853000 0.833312 0.622075
Si Si3 0.367100 0.284291 0.043058
Si Si4 0.236265 0.287186 0.892639
Si Si5 0.536434 0.750000 0.750000
O O1 0.450582 0.250000 0.750000
O O2 0.561047 0.181361 0.622483
O O3 0.428203 0.125780 0.539446
O O4 0.489892 0.913481 0.701606
O O5 0.826626 0.750000 0.750000
O O6 0.823042 0.751528 0.496144
O O7 0.834910 0.045777 0.616497
O O8 0.308193 0.203020 0.953045
O O9 0.411374 0.174229 0.143109
O O10 0.250000 0.500000 0.893813
O O11 0.222007 0.250000 0.750000
#
# Coordination Sequence:
#
# PCOD9409820 Si02
#       5
#     8   8   8   8   4
#     4  10  21  41  63  98 132 165 215 268 322 383
#     4   9  19  38  63  87 124 164 212 266 312 375
#     4  10  21  40  61  91 133 162 212 273 318 383
#     4  10  22  43  59  89 127 168 207 265 327 382
#     4  10  20  36  62  94 122 174 210 256 334 366
#
# _framework density 23.527854999999999
#
# number of rings (size 3 to 8) (size 9 to 14) (size 15 to 20)
#    0.000    2.222    0.000    3.333    1.556    0.889 
#   30.000    2.222    0.000    0.000    0.000    0.000 
#    0.000    0.000    0.000    0.000    0.000    0.000 
#
# Total GULP energy -201001.539102 kJ/mol
# GULP energy per Si atom -5583.376086 kJ/mol
# Density = 2.347430 g / cm^3
# Si number density = 23.527855 Si / 1000 Ang^3
#
#
#
# Elastic Constant Matrix: (Units=GPa)
#
#
# Indices 1 2 3 4 5 6 
#
# 1 65.7967 13.0069 40.8228 0.0000 0.0000 0.0000
# 2 13.0069 49.5357 45.6300 0.0000 0.0000 0.0000
# 3 40.8228 45.6300 193.2559 0.0000 0.0000 0.0000
# 4 0.0000 0.0000 0.0000 42.3696 0.0000 0.0000
# 5 0.0000 0.0000 0.0000 0.0000 43.8206 0.0000
# 6 0.0000 0.0000 0.0000 0.0000 0.0000 12.9822
#
#
#
# Elastic Compliance Matrix: (Units=1/GPa)
#
#
# Indices 1 2 3 4 5 6 
#
# 1 0.017581 -0.001528 -0.003353 0.000000 0.000000 0.000000
# 2 -0.001528 0.025931 -0.005800 0.000000 0.000000 0.000000
# 3 -0.003353 -0.005800 0.007252 0.000000 0.000000 0.000000
# 4 0.000000 0.000000 0.000000 0.023602 0.000000 0.000000
# 5 0.000000 0.000000 0.000000 0.000000 0.022820 0.000000
# 6 0.000000 0.000000 0.000000 0.000000 0.000000 0.077029
#
#
# Mechanical properties :
#
#
# Convention : Reuss Voigt Hill
#
# Bulk Modulus (GPa) = 34.01026 56.38972 45.19999
# Shear Modulus (GPa) = 24.34547 33.77638 29.06092
#
# Velocity S-wave (km/s) = 3.22024 3.79303 3.51831
# Velocity P-wave (km/s) = 5.32103 6.57282 5.97977
#
# Compressibility (1/GPa) = 0.02940290
#
# Stress axis : x y z
#
# Youngs Moduli (GPa) = 56.88075 38.56351 137.88906
#
# Poissons Ratio (x) = 0.05891 0.46234
# Poissons Ratio (y) = 0.08689 0.79975
# Poissons Ratio (z) = 0.19072 0.22367
#
# Static dielectric constant tensor:
#      x y z
#    x 1.923660 0.000000 0.000000 
#    y 0.000000 1.909040 0.000000 
#    z 0.000000 0.000000 1.932510 
# 
# From -- ./inp_files/12927.got.cif
#   From: 2010.05.17/outbox.cif.g08.bks.cpg/sg52_7_cif.got.tgz:12927.got - 2010.06.03 12:15:38.
