data_PCOD9409793
_publ_section_title
;
Structure prediction by ZEFSAII (Michael W. Deem and Ramdas Pophale) SiO2 
 PCOD9409793
Probable space group: P N N A
;
_chemical_formula_sum "Si O2"
_cell_formula_units_Z 44
_cell_length_a 10.135407
_cell_length_b 12.441040
_cell_length_c 18.002352
_cell_angle_alpha 90.000000
_cell_angle_beta 90.000000
_cell_angle_gamma 90.000000
_cell_volume 2270.006646
_symmetry_space_group_name_H-M "P N N A"
_symmetry_group_IT_number 52
_symmetry_cell_setting 'orthorhombic'
loop_
_space_group_symop_operation_xyz
x,y,z
1/2-x,-y,z
x,1/2-y,1/2-z
1/2-x,1/2+y,1/2-z
-x,-y,-z
1/2+x,y,-z
-x,1/2+y,1/2+z
1/2+x,1/2-y,1/2+z
loop_
_atom_site_type_symbol
_atom_site_label
_atom_site_fract_x
_atom_site_fract_y
_atom_site_fract_z
Si Si1 0.948357 0.327188 0.854798
Si Si2 0.130994 0.928218 0.497914
Si Si3 0.654578 0.908326 0.189762
Si Si4 0.764679 0.322218 0.148232
Si Si5 0.888485 0.968077 0.751032
Si Si6 0.243830 0.250000 0.250000
O O1 0.920906 0.441781 0.811423
O O2 0.852213 0.240721 0.816038
O O3 0.105451 0.309628 0.850560
O O4 0.903414 0.336843 0.939322
O O5 0.180743 0.886616 0.577517
O O6 0.250000 0.000000 0.466688
O O7 0.000000 0.000000 0.500000
O O8 0.671109 0.795603 0.149054
O O9 0.694379 0.881601 0.275655
O O10 0.509027 0.955679 0.194007
O O11 0.750000 0.000000 0.160329
O O12 0.851661 0.847122 0.725179
O O13 0.750000 0.000000 0.787239
#
# Coordination Sequence:
#
# PCOD9409793 Si02
#       6
#     8   8   8   8   8   4
#     4  11  22  40  63  92 130 163 202 265 317 371
#     4  12  23  39  61  91 130 163 204 259 315 381
#     4  11  21  38  66  88 126 163 210 262 301 375
#     4  11  23  38  62  95 123 167 214 249 321 374
#     4  10  21  36  58  92 124 153 203 254 315 364
#     4  10  20  36  60  92 122 160 206 252 320 370
#
# _framework density 19.383203999999999
#
# number of rings (size 3 to 8) (size 9 to 14) (size 15 to 20)
#    0.000    1.091    3.636    5.455    2.545    1.455 
#    0.000    0.000    0.000    4.364    0.000    0.000 
#    0.000    0.000    0.000    0.000    0.000    0.000 
#
# Total GULP energy -245407.249462 kJ/mol
# GULP energy per Si atom -5577.437488 kJ/mol
# Density = 1.933909 g / cm^3
# Si number density = 19.383204 Si / 1000 Ang^3
#
#
#
# Elastic Constant Matrix: (Units=GPa)
#
#
# Indices 1 2 3 4 5 6 
#
# 1 136.2465 8.6715 1.7828 0.0000 0.0000 0.0000
# 2 8.6715 70.1129 -0.1270 0.0000 0.0000 0.0000
# 3 1.7828 -0.1270 50.3205 0.0000 0.0000 0.0000
# 4 0.0000 0.0000 0.0000 26.8331 0.0000 0.0000
# 5 0.0000 0.0000 0.0000 0.0000 42.1747 0.0000
# 6 0.0000 0.0000 0.0000 0.0000 0.0000 23.1856
#
#
#
# Elastic Compliance Matrix: (Units=1/GPa)
#
#
# Indices 1 2 3 4 5 6 
#
# 1 0.007401 -0.000916 -0.000265 0.000000 0.000000 0.000000
# 2 -0.000916 0.014376 0.000069 0.000000 0.000000 0.000000
# 3 -0.000265 0.000069 0.019882 0.000000 0.000000 0.000000
# 4 0.000000 0.000000 0.000000 0.037267 0.000000 0.000000
# 5 0.000000 0.000000 0.000000 0.000000 0.023711 0.000000
# 6 0.000000 0.000000 0.000000 0.000000 0.000000 0.043130
#
#
# Mechanical properties :
#
#
# Convention : Reuss Voigt Hill
#
# Bulk Modulus (GPa) = 25.35736 30.81496 28.08616
# Shear Modulus (GPa) = 31.02951 34.86220 32.94586
#
# Velocity S-wave (km/s) = 4.00540 4.24556 4.12723
# Velocity P-wave (km/s) = 5.87380 6.32182 6.10192
#
# Compressibility (1/GPa) = 0.03943627
#
# Stress axis : x y z
#
# Youngs Moduli (GPa) = 135.10974 69.55982 50.29638
#
# Poissons Ratio (x) = 0.06371 0.01331
# Poissons Ratio (y) = 0.12374 -0.00346
# Poissons Ratio (z) = 0.03574 -0.00478
#
# Static dielectric constant tensor:
#      x y z
#    x 1.693710 0.000000 0.000000 
#    y 0.000000 1.778590 0.000000 
#    z 0.000000 0.000000 1.721960 
# 
# From -- ./inp_files/31134.got.cif
#   From: 2010.05.17/outbox.cif.g08.bks.cpg/sg52_16_cif.got.tgz:31134.got - 2010.06.03 12:15:38.
