data_PCOD9409724
_publ_section_title
;
Structure prediction by ZEFSAII (Michael W. Deem and Ramdas Pophale) SiO2 
 PCOD9409724
Probable space group: P N N A
;
_chemical_formula_sum "Si O2"
_cell_formula_units_Z 48
_cell_length_a 15.146607
_cell_length_b 7.768850
_cell_length_c 22.305682
_cell_angle_alpha 90.000000
_cell_angle_beta 90.000000
_cell_angle_gamma 90.000000
_cell_volume 2624.747917
_symmetry_space_group_name_H-M "P N N A"
_symmetry_group_IT_number 52
_symmetry_cell_setting 'orthorhombic'
loop_
_space_group_symop_operation_xyz
x,y,z
1/2-x,-y,z
x,1/2-y,1/2-z
1/2-x,1/2+y,1/2-z
-x,-y,-z
1/2+x,y,-z
-x,1/2+y,1/2+z
1/2+x,1/2-y,1/2+z
loop_
_atom_site_type_symbol
_atom_site_label
_atom_site_fract_x
_atom_site_fract_y
_atom_site_fract_z
Si Si1 0.068452 0.647566 0.019964
Si Si2 0.590854 0.780403 0.113554
Si Si3 0.777438 0.823764 0.076698
Si Si4 0.524820 0.356584 0.375731
Si Si5 0.750000 0.000000 0.508198
Si Si6 0.052141 0.250000 0.750000
Si Si7 0.344672 0.075355 0.710699
O O1 0.160944 0.562050 0.040508
O O2 0.029883 0.774370 0.069955
O O3 0.084425 0.744549 0.956901
O O4 0.000000 0.500000 0.000000
O O5 0.695626 0.820852 0.122905
O O6 0.587057 0.615655 0.156254
O O7 0.525226 0.935298 0.128255
O O8 0.871813 0.824616 0.108176
O O9 0.750000 0.000000 0.042067
O O10 0.776491 0.659176 0.034334
O O11 0.501182 0.271181 0.312479
O O12 0.112536 0.420083 0.752197
O O13 0.338124 0.250000 0.750000
O O14 0.250000 0.000000 0.690382
#
# Coordination Sequence:
#
# PCOD9409724 Si02
#       7
#     8   8   8   8   4   4   8
#     4  11  21  36  60  85 116 153 197 253 304 356
#     4  10  22  36  56  81 118 158 204 248 291 360
#     4   9  19  32  51  77 116 153 191 234 285 353
#     4  11  21  38  54  83 116 160 200 246 304 354
#     4  10  20  36  56  86 110 154 188 240 302 356
#     4  12  24  34  54  76 116 156 200 246 296 364
#     4  12  23  35  51  81 119 167 207 239 290 362
#
# _framework density 18.287471
#
# number of rings (size 3 to 8) (size 9 to 14) (size 15 to 20)
#    0.000    1.333    4.167    2.500    7.000    0.000 
#    0.000    0.000    0.000    0.000    0.000    2.333 
#    0.000    0.000    0.000    0.000    0.000    0.000 
#
# Total GULP energy -267515.731571 kJ/mol
# GULP energy per Si atom -5573.244408 kJ/mol
# Density = 1.824585 g / cm^3
# Si number density = 18.287471 Si / 1000 Ang^3
#
#
#
# Elastic Constant Matrix: (Units=GPa)
#
#
# Indices 1 2 3 4 5 6 
#
# 1 59.7631 15.2148 29.7666 0.0000 0.0000 0.0000
# 2 15.2148 112.8853 42.0076 0.0000 0.0000 0.0000
# 3 29.7666 42.0076 117.4603 0.0000 0.0000 0.0000
# 4 0.0000 0.0000 0.0000 12.4925 0.0000 0.0000
# 5 0.0000 0.0000 0.0000 0.0000 36.5719 0.0000
# 6 0.0000 0.0000 0.0000 0.0000 0.0000 23.5206
#
#
#
# Elastic Compliance Matrix: (Units=1/GPa)
#
#
# Indices 1 2 3 4 5 6 
#
# 1 0.019228 -0.000898 -0.004552 0.000000 0.000000 0.000000
# 2 -0.000898 0.010260 -0.003442 0.000000 0.000000 0.000000
# 3 -0.004552 -0.003442 0.010898 0.000000 0.000000 0.000000
# 4 0.000000 0.000000 0.000000 0.080048 0.000000 0.000000
# 5 0.000000 0.000000 0.000000 0.000000 0.027343 0.000000
# 6 0.000000 0.000000 0.000000 0.000000 0.000000 0.042516
#
#
# Mechanical properties :
#
#
# Convention : Reuss Voigt Hill
#
# Bulk Modulus (GPa) = 44.24034 51.56519 47.90276
# Shear Modulus (GPa) = 23.18982 28.05832 25.62407
#
# Velocity S-wave (km/s) = 3.56486 3.92125 3.74730
# Velocity P-wave (km/s) = 6.41782 6.98283 6.70628
#
# Compressibility (1/GPa) = 0.02260381
#
# Stress axis : x y z
#
# Youngs Moduli (GPa) = 52.00635 97.46219 91.76028
#
# Poissons Ratio (x) = 0.08750 0.41767
# Poissons Ratio (y) = 0.04669 0.31583
# Poissons Ratio (z) = 0.23672 0.33546
#
# Static dielectric constant tensor:
#      x y z
#    x 1.647550 0.000000 0.000000 
#    y 0.000000 1.728780 0.000000 
#    z 0.000000 0.000000 1.694670 
# 
# From -- ./inp_files/37235.got.cif
#   From: 2010.05.17/outbox.cif.g08.bks.cpg/sg52_19_cif.got.tgz:37235.got - 2010.06.03 12:15:38.
