data_PCOD9409810
_publ_section_title
;
Structure prediction by ZEFSAII (Michael W. Deem and Ramdas Pophale) SiO2 
 PCOD9409810
Probable space group: P N N A
;
_chemical_formula_sum "Si O2"
_cell_formula_units_Z 56
_cell_length_a 9.655317
_cell_length_b 24.177114
_cell_length_c 9.730101
_cell_angle_alpha 90.000000
_cell_angle_beta 90.000000
_cell_angle_gamma 90.000000
_cell_volume 2271.372396
_symmetry_space_group_name_H-M "P N N A"
_symmetry_group_IT_number 52
_symmetry_cell_setting 'orthorhombic'
loop_
_space_group_symop_operation_xyz
x,y,z
1/2-x,-y,z
x,1/2-y,1/2-z
1/2-x,1/2+y,1/2-z
-x,-y,-z
1/2+x,y,-z
-x,1/2+y,1/2+z
1/2+x,1/2-y,1/2+z
loop_
_atom_site_type_symbol
_atom_site_label
_atom_site_fract_x
_atom_site_fract_y
_atom_site_fract_z
Si Si1 0.357098 0.301902 0.812481
Si Si2 0.084155 0.834511 0.151057
Si Si3 0.309567 0.938511 0.528658
Si Si4 0.073444 0.873126 0.443701
Si Si5 0.980529 0.565777 0.498876
Si Si6 0.300032 0.790977 0.951941
Si Si7 0.720859 0.933272 0.168143
O O1 0.442657 0.250000 0.750000
O O2 0.236086 0.417590 0.820404
O O3 0.439579 0.338959 0.916207
O O4 0.240192 0.271454 0.907864
O O5 0.960580 0.804458 0.066308
O O6 0.066510 0.899646 0.114101
O O7 0.053140 0.666273 0.187476
O O8 0.225417 0.808949 0.092151
O O9 0.227176 0.898220 0.427599
O O10 0.471559 0.925583 0.535161
O O11 0.250000 0.000000 0.508604
O O12 0.824998 0.581178 0.457639
O O13 0.000000 0.500000 0.500000
O O14 0.060709 0.580351 0.638285
O O15 0.220686 0.823023 0.824940
O O16 0.750000 0.000000 0.173457
#
# Coordination Sequence:
#
# PCOD9409810 Si02
#       7
#     8   8   8   8   8   8   8
#     4   8  23  48  70 103 141 187 222 304 369 430
#     4  12  23  41  69 106 134 187 233 298 356 433
#     4  11  25  47  67 101 147 199 243 303 357 429
#     4  12  25  44  76 104 143 191 249 293 367 435
#     4  10  20  36  61  97 136 181 230 287 350 421
#     4   9  24  45  69  97 142 172 234 289 374 426
#     4   9  19  38  62  88 135 185 234 288 350 403
#
# _framework density 24.654698
#
# number of rings (size 3 to 8) (size 9 to 14) (size 15 to 20)
#    0.857    0.857    1.429    2.143    2.000    5.143 
#    2.571    0.714    0.000    0.000    0.000    0.000 
#    0.000    0.000    0.000    0.000    0.000    0.000 
#
# Total GULP energy -312154.777031 kJ/mol
# GULP energy per Si atom -5574.192447 kJ/mol
# Density = 2.459858 g / cm^3
# Si number density = 24.654698 Si / 1000 Ang^3
#
#
#
# Elastic Constant Matrix: (Units=GPa)
#
#
# Indices 1 2 3 4 5 6 
#
# 1 95.3801 19.8960 29.3557 0.0000 0.0000 0.0000
# 2 19.8960 55.2096 27.1540 0.0000 0.0000 0.0000
# 3 29.3557 27.1540 78.4870 0.0000 0.0000 0.0000
# 4 0.0000 0.0000 0.0000 32.6871 0.0000 0.0000
# 5 0.0000 0.0000 0.0000 0.0000 26.6152 0.0000
# 6 0.0000 0.0000 0.0000 0.0000 0.0000 25.9000
#
#
#
# Elastic Compliance Matrix: (Units=1/GPa)
#
#
# Indices 1 2 3 4 5 6 
#
# 1 0.012146 -0.002582 -0.003650 0.000000 0.000000 0.000000
# 2 -0.002582 0.022376 -0.006776 0.000000 0.000000 0.000000
# 3 -0.003650 -0.006776 0.016450 0.000000 0.000000 0.000000
# 4 0.000000 0.000000 0.000000 0.030593 0.000000 0.000000
# 5 0.000000 0.000000 0.000000 0.000000 0.037573 0.000000
# 6 0.000000 0.000000 0.000000 0.000000 0.000000 0.038610
#
#
# Mechanical properties :
#
#
# Convention : Reuss Voigt Hill
#
# Bulk Modulus (GPa) = 40.06805 42.43203 41.25004
# Shear Modulus (GPa) = 26.03061 27.21852 26.62457
#
# Velocity S-wave (km/s) = 3.25284 3.32624 3.28975
# Velocity P-wave (km/s) = 5.51316 5.65683 5.58546
#
# Compressibility (1/GPa) = 0.02495754
#
# Stress axis : x y z
#
# Youngs Moduli (GPa) = 82.32981 44.69122 60.78991
#
# Poissons Ratio (x) = 0.11540 0.22186
# Poissons Ratio (y) = 0.21259 0.41188
# Poissons Ratio (z) = 0.30047 0.30281
#
# Static dielectric constant tensor:
#      x y z
#    x 1.997240 0.000000 0.000000 
#    y 0.000000 2.211760 0.000000 
#    z 0.000000 0.000000 1.958060 
# 
# From -- ./inp_files/31539.got.cif
#   From: 2010.05.17/outbox.cif.g08.bks.cpg/sg52_16_cif.got.tgz:31539.got - 2010.06.03 12:15:38.
