data_PCOD9409978
_publ_section_title
;
Structure prediction by ZEFSAII (Michael W. Deem and Ramdas Pophale) SiO2 
 PCOD9409978
Probable space group: P N N A
;
_chemical_formula_sum "Si O2"
_cell_formula_units_Z 48
_cell_length_a 16.135278
_cell_length_b 9.467715
_cell_length_c 16.488325
_cell_angle_alpha 90.000000
_cell_angle_beta 90.000000
_cell_angle_gamma 90.000000
_cell_volume 2518.826001
_symmetry_space_group_name_H-M "P N N A"
_symmetry_group_IT_number 52
_symmetry_cell_setting 'orthorhombic'
loop_
_space_group_symop_operation_xyz
x,y,z
1/2-x,-y,z
x,1/2-y,1/2-z
1/2-x,1/2+y,1/2-z
-x,-y,-z
1/2+x,y,-z
-x,1/2+y,1/2+z
1/2+x,1/2-y,1/2+z
loop_
_atom_site_type_symbol
_atom_site_label
_atom_site_fract_x
_atom_site_fract_y
_atom_site_fract_z
Si Si1 0.250000 0.500000 0.585388
Si Si2 0.160742 0.228315 0.026818
Si Si3 0.494628 0.207586 0.059923
Si Si4 0.922878 0.403739 0.400872
Si Si5 0.895767 0.124432 0.695961
Si Si6 0.576987 0.365656 0.688798
Si Si7 0.250000 0.500000 0.089332
O O1 0.208368 0.380582 0.530052
O O2 0.170251 0.569334 0.628673
O O3 0.133970 0.143960 0.108626
O O4 0.216729 0.364344 0.041597
O O5 0.074152 0.274259 0.984992
O O6 0.459855 0.302460 0.132831
O O7 0.530054 0.055152 0.088660
O O8 0.427385 0.170507 0.989626
O O9 0.984962 0.323181 0.341316
O O10 0.859095 0.250000 0.750000
O O11 0.928561 0.009932 0.760490
O O12 0.825942 0.049838 0.644051
O O13 0.611181 0.250000 0.750000
#
# Coordination Sequence:
#
# PCOD9409978 Si02
#       7
#     4   8   8   8   8   8   4
#     4  10  20  37  68  85 112 152 202 254 278 349
#     4  10  23  40  61  88 121 156 202 241 300 352
#     4   9  19  39  61  86 111 163 200 237 280 370
#     4   9  18  37  63  86 113 151 208 238 292 347
#     4  12  25  38  61  87 121 159 199 242 301 363
#     4  11  22  41  58  87 121 161 193 243 297 368
#     4  12  26  37  54  95 126 150 188 254 308 339
#
# _framework density 19.056495000000002
#
# number of rings (size 3 to 8) (size 9 to 14) (size 15 to 20)
#    0.000    1.667    3.333    2.000    4.667    0.667 
#    3.000    0.000    7.333    0.000    0.000    0.000 
#    0.000    0.000    0.000    0.000    0.000    0.000 
#
# Total GULP energy -267597.720826 kJ/mol
# GULP energy per Si atom -5574.952517 kJ/mol
# Density = 1.901312 g / cm^3
# Si number density = 19.056495 Si / 1000 Ang^3
#
#
#
# Elastic Constant Matrix: (Units=GPa)
#
#
# Indices 1 2 3 4 5 6 
#
# 1 67.1384 4.8812 -1.2970 0.0000 0.0000 0.0000
# 2 4.8812 67.5119 23.7922 0.0000 0.0000 0.0000
# 3 -1.2970 23.7922 40.2000 0.0000 0.0000 0.0000
# 4 0.0000 0.0000 0.0000 -1.9118 0.0000 0.0000
# 5 0.0000 0.0000 0.0000 0.0000 29.4837 0.0000
# 6 0.0000 0.0000 0.0000 0.0000 0.0000 30.3831
#
#
#
# Elastic Compliance Matrix: (Units=1/GPa)
#
#
# Indices 1 2 3 4 5 6 
#
# 1 0.015038 -0.001590 0.001426 0.000000 0.000000 0.000000
# 2 -0.001590 0.018884 -0.011228 0.000000 0.000000 0.000000
# 3 0.001426 -0.011228 0.031567 0.000000 0.000000 0.000000
# 4 0.000000 0.000000 0.000000 -0.523057 0.000000 0.000000
# 5 0.000000 0.000000 0.000000 0.000000 0.033917 0.000000
# 6 0.000000 0.000000 0.000000 0.000000 0.000000 0.032913
#
#
# Mechanical properties :
#
#
# Convention : Reuss Voigt Hill
#
# Bulk Modulus (GPa) = 23.41614 25.51144 24.46379
# Shear Modulus (GPa) = -14.13544 21.42259 3.64357
#
# Velocity S-wave (km/s) = -2.72649 3.35649 1.38425
# Velocity P-wave (km/s) = 1.55008 5.33270 3.92686
#
# Compressibility (1/GPa) = 0.04270559
#
# Stress axis : x y z
#
# Youngs Moduli (GPa) = 66.49932 52.95493 31.67890
#
# Poissons Ratio (x) = 0.08419 -0.04518
# Poissons Ratio (y) = 0.10572 0.35568
# Poissons Ratio (z) = -0.09483 0.59456
#
# Static dielectric constant tensor:
#      x y z
#    x 1.683970 0.000000 0.000000 
#    y 0.000000 1.775830 0.000000 
#    z 0.000000 0.000000 1.674550 
# 
# From -- ./inp_files/33090.got.cif
#   From: 2010.05.17/outbox.cif.g08.bks.cpg/sg52_17_cif.got.tgz:33090.got - 2010.06.03 12:15:38.
