data_PCOD9409214
_publ_section_title
;
Structure prediction by ZEFSAII (Michael W. Deem and Ramdas Pophale) SiO2 
 PCOD9409214
Probable space group: P N N A
;
_chemical_formula_sum "Si O2"
_cell_formula_units_Z 56
_cell_length_a 24.089365
_cell_length_b 14.278270
_cell_length_c 8.507529
_cell_angle_alpha 90.000000
_cell_angle_beta 90.000000
_cell_angle_gamma 90.000000
_cell_volume 2926.202523
_symmetry_space_group_name_H-M "P N N A"
_symmetry_group_IT_number 52
_symmetry_cell_setting 'orthorhombic'
loop_
_space_group_symop_operation_xyz
x,y,z
1/2-x,-y,z
x,1/2-y,1/2-z
1/2-x,1/2+y,1/2-z
-x,-y,-z
1/2+x,y,-z
-x,1/2+y,1/2+z
1/2+x,1/2-y,1/2+z
loop_
_atom_site_type_symbol
_atom_site_label
_atom_site_fract_x
_atom_site_fract_y
_atom_site_fract_z
Si Si1 0.407100 0.540201 0.428090
Si Si2 0.203383 0.738497 0.561317
Si Si3 0.464542 0.786318 0.929611
Si Si4 0.382194 0.665196 0.144726
Si Si5 0.912354 0.185886 0.908311
Si Si6 0.279082 0.900930 0.548438
Si Si7 0.709312 0.412585 0.407881
O O1 0.445265 0.605379 0.542459
O O2 0.411419 0.591677 0.260213
O O3 0.415799 0.428736 0.403601
O O4 0.345576 0.559734 0.498848
O O5 0.200198 0.750000 0.750000
O O6 0.143679 0.708712 0.501411
O O7 0.228381 0.834411 0.499647
O O8 0.252339 0.666715 0.517534
O O9 0.461034 0.750000 0.750000
O O10 0.528844 0.782018 0.981129
O O11 0.425011 0.718034 0.029870
O O12 0.358646 0.750000 0.250000
O O13 0.332227 0.614065 0.058314
O O14 0.908196 0.250000 0.750000
O O15 0.300578 0.881661 0.727060
O O16 0.250000 0.000000 0.544788
O O17 0.750000 0.500000 0.397974
#
# Coordination Sequence:
#
# PCOD9409214 Si02
#       7
#     8   8   8   8   8   8   8
#     4  11  22  39  67  92 123 157 208 256 313 364
#     4  10  21  38  59  88 124 162 202 249 301 362
#     4  10  22  44  65  87 117 164 211 256 305 371
#     4  10  22  39  61  92 119 156 202 257 309 360
#     4  11  25  41  60  90 126 163 203 254 314 368
#     4  10  22  37  60  91 125 158 205 244 301 371
#     4  10  19  37  62  91 120 161 200 241 296 372
#
# _framework density 19.137432
#
# number of rings (size 3 to 8) (size 9 to 14) (size 15 to 20)
#    0.000    1.714    1.429    3.000    2.000    5.143 
#    0.000    2.857    0.000    0.000    0.000    0.000 
#    0.000    0.000    0.000    0.000    0.000    0.000 
#
# Total GULP energy -312058.963954 kJ/mol
# GULP energy per Si atom -5572.481499 kJ/mol
# Density = 1.909387 g / cm^3
# Si number density = 19.137432 Si / 1000 Ang^3
#
#
#
# Elastic Constant Matrix: (Units=GPa)
#
#
# Indices 1 2 3 4 5 6 
#
# 1 113.0646 36.7796 33.6285 0.0000 0.0000 0.0000
# 2 36.7796 126.5910 29.9172 0.0000 0.0000 0.0000
# 3 33.6285 29.9172 55.8177 0.0000 0.0000 0.0000
# 4 0.0000 0.0000 0.0000 26.9653 0.0000 0.0000
# 5 0.0000 0.0000 0.0000 0.0000 -138.6231 0.0000
# 6 0.0000 0.0000 0.0000 0.0000 0.0000 37.3655
#
#
#
# Elastic Compliance Matrix: (Units=1/GPa)
#
#
# Indices 1 2 3 4 5 6 
#
# 1 0.011158 -0.001893 -0.005708 0.000000 0.000000 0.000000
# 2 -0.001893 0.009366 -0.003880 0.000000 0.000000 0.000000
# 3 -0.005708 -0.003880 0.023434 0.000000 0.000000 0.000000
# 4 0.000000 0.000000 0.000000 0.037085 0.000000 0.000000
# 5 0.000000 0.000000 0.000000 0.000000 -0.007214 0.000000
# 6 0.000000 0.000000 0.000000 0.000000 0.000000 0.026763
#
#
# Mechanical properties :
#
#
# Convention : Reuss Voigt Hill
#
# Bulk Modulus (GPa) = 47.62558 55.12487 51.37523
# Shear Modulus (GPa) = 38.29911 -1.84859 18.22526
#
# Velocity S-wave (km/s) = 4.47841 -0.98390 3.08934
# Velocity P-wave (km/s) = 7.18899 5.25134 6.29516
#
# Compressibility (1/GPa) = 0.02099712
#
# Stress axis : x y z
#
# Youngs Moduli (GPa) = 89.62267 106.76554 42.67357
#
# Poissons Ratio (x) = 0.20210 0.24357
# Poissons Ratio (y) = 0.16965 0.16556
# Poissons Ratio (z) = 0.51154 0.41422
#
# Static dielectric constant tensor:
#      x y z
#    x 1.631870 0.000000 0.000000 
#    y 0.000000 -0.720360 0.000000 
#    z 0.000000 0.000000 1.702560 
# 
# From -- ./inp_files/13453.got.cif
#   From: 2010.05.17/outbox.cif.g08.bks.cpg/sg52_7_cif.got.tgz:13453.got - 2010.06.03 12:15:38.
