data_PCOD9409507
_publ_section_title
;
Structure prediction by ZEFSAII (Michael W. Deem and Ramdas Pophale) SiO2 
 PCOD9409507
Probable space group: P N N A
;
_chemical_formula_sum "Si O2"
_cell_formula_units_Z 32
_cell_length_a 13.729296
_cell_length_b 14.137418
_cell_length_c 5.822594
_cell_angle_alpha 90.000000
_cell_angle_beta 90.000000
_cell_angle_gamma 90.000000
_cell_volume 1130.146842
_symmetry_space_group_name_H-M "P N N A"
_symmetry_group_IT_number 52
_symmetry_cell_setting 'orthorhombic'
loop_
_space_group_symop_operation_xyz
x,y,z
1/2-x,-y,z
x,1/2-y,1/2-z
1/2-x,1/2+y,1/2-z
-x,-y,-z
1/2+x,y,-z
-x,1/2+y,1/2+z
1/2+x,1/2-y,1/2+z
loop_
_atom_site_type_symbol
_atom_site_label
_atom_site_fract_x
_atom_site_fract_y
_atom_site_fract_z
Si Si1 0.244157 0.112253 0.291170
Si Si2 0.515229 0.341792 0.898905
Si Si3 0.447302 0.538621 0.720589
Si Si4 0.256365 0.852123 0.790249
O O1 0.129236 0.142063 0.316773
O O2 0.290715 0.139444 0.536535
O O3 0.250000 0.000000 0.281413
O O4 0.286829 0.149913 0.049176
O O5 0.482606 0.250000 0.750000
O O6 0.460007 0.440310 0.851897
O O7 0.515176 0.361260 0.174734
O O8 0.500000 0.500000 0.500000
O O9 0.334737 0.564027 0.690777
O O10 0.304944 0.750000 0.750000
#
# Coordination Sequence:
#
# PCOD9409507 Si02
#       4
#     8   8   8   8
#     4  11  22  37  60  89 118 164 212 260 301 366
#     4  10  21  38  60  88 127 165 209 257 321 385
#     4  10  20  33  60  95 119 158 206 261 317 380
#     4  11  22  40  66  92 126 163 210 258 319 380
#
# _framework density 28.314905
#
# number of rings (size 3 to 8) (size 9 to 14) (size 15 to 20)
#    0.000    1.500    2.500    4.500    0.000    0.000 
#    0.000    0.000    0.000   46.500    0.000    0.000 
#    0.000    0.000    0.000    0.000    0.000    0.000 
#
# Total GULP energy -178146.347646 kJ/mol
# GULP energy per Si atom -5567.073364 kJ/mol
# Density = 2.825046 g / cm^3
# Si number density = 28.314905 Si / 1000 Ang^3
#
#
#
# Elastic Constant Matrix: (Units=GPa)
#
#
# Indices 1 2 3 4 5 6 
#
# 1 60.7743 48.6487 27.2353 0.0000 0.0000 0.0000
# 2 48.6487 222.7244 94.0772 0.0000 0.0000 0.0000
# 3 27.2353 94.0772 269.4965 0.0000 0.0000 0.0000
# 4 0.0000 0.0000 0.0000 63.8006 0.0000 0.0000
# 5 0.0000 0.0000 0.0000 0.0000 17.3924 0.0000
# 6 0.0000 0.0000 0.0000 0.0000 0.0000 52.8962
#
#
#
# Elastic Compliance Matrix: (Units=1/GPa)
#
#
# Indices 1 2 3 4 5 6 
#
# 1 0.020019 -0.004126 -0.000583 0.000000 0.000000 0.000000
# 2 -0.004126 0.006117 -0.001718 0.000000 0.000000 0.000000
# 3 -0.000583 -0.001718 0.004369 0.000000 0.000000 0.000000
# 4 0.000000 0.000000 0.000000 0.015674 0.000000 0.000000
# 5 0.000000 0.000000 0.000000 0.000000 0.057496 0.000000
# 6 0.000000 0.000000 0.000000 0.000000 0.000000 0.018905
#
#
# Mechanical properties :
#
#
# Convention : Reuss Voigt Hill
#
# Bulk Modulus (GPa) = 56.65686 99.21307 77.93497
# Shear Modulus (GPa) = 35.38111 52.35343 43.86727
#
# Velocity S-wave (km/s) = 3.53874 4.30463 3.94034
# Velocity P-wave (km/s) = 6.06217 7.73445 6.94880
#
# Compressibility (1/GPa) = 0.01765011
#
# Stress axis : x y z
#
# Youngs Moduli (GPa) = 49.95359 163.47897 228.86749
#
# Poissons Ratio (x) = 0.67460 0.13333
# Poissons Ratio (y) = 0.20613 0.39327
# Poissons Ratio (z) = 0.02910 0.28091
#
# Static dielectric constant tensor:
#      x y z
#    x 2.217420 0.000000 0.000000 
#    y 0.000000 2.124450 0.000000 
#    z 0.000000 0.000000 1.173470 
# 
# From -- ./inp_files/2997.got.cif
#   From: 2010.05.17/outbox.cif.g08.bks.cpg/sg52_2_cif.got.tgz:2997.got - 2010.06.03 12:15:38.
