data_PCOD9409758
_publ_section_title
;
Structure prediction by ZEFSAII (Michael W. Deem and Ramdas Pophale) SiO2 
 PCOD9409758
Probable space group: P N N A
;
_chemical_formula_sum "Si O2"
_cell_formula_units_Z 40
_cell_length_a 9.039208
_cell_length_b 24.424539
_cell_length_c 8.539562
_cell_angle_alpha 90.000000
_cell_angle_beta 90.000000
_cell_angle_gamma 90.000000
_cell_volume 1885.351589
_symmetry_space_group_name_H-M "P N N A"
_symmetry_group_IT_number 52
_symmetry_cell_setting 'orthorhombic'
loop_
_space_group_symop_operation_xyz
x,y,z
1/2-x,-y,z
x,1/2-y,1/2-z
1/2-x,1/2+y,1/2-z
-x,-y,-z
1/2+x,y,-z
-x,1/2+y,1/2+z
1/2+x,1/2-y,1/2+z
loop_
_atom_site_type_symbol
_atom_site_label
_atom_site_fract_x
_atom_site_fract_y
_atom_site_fract_z
Si Si1 0.573597 0.639276 0.059272
Si Si2 0.497356 0.456428 0.139801
Si Si3 0.710027 0.188888 0.693911
Si Si4 0.239524 0.420996 0.359731
Si Si5 0.894121 0.049994 0.183037
O O1 0.460942 0.678684 0.148817
O O2 0.640923 0.594260 0.179884
O O3 0.474944 0.601797 0.940440
O O4 0.690512 0.672029 0.955522
O O5 0.339516 0.447550 0.222808
O O6 0.605040 0.486173 0.262484
O O7 0.500000 0.500000 0.000000
O O8 0.737771 0.250000 0.750000
O O9 0.745761 0.143911 0.827119
O O10 0.312281 0.436867 0.522961
O O11 0.070348 0.439362 0.346882
#
# Coordination Sequence:
#
# PCOD9409758 Si02
#       5
#     8   8   8   8   8
#     4   9  21  40  61  86 115 154 199 239 292 358
#     4   9  18  35  57  81 116 158 193 235 290 348
#     4  10  22  41  62  85 117 153 197 249 294 345
#     4  10  21  36  55  88 122 156 201 245 291 350
#     4  10  20  36  58  86 123 155 192 244 293 351
#
# _framework density 21.216200000000001
#
# number of rings (size 3 to 8) (size 9 to 14) (size 15 to 20)
#    0.000    2.400    0.000    1.200    0.000    8.000 
#    0.000   16.000    0.000    0.000    0.000    0.000 
#    0.000    0.000    0.000    0.000    0.000    0.000 
#
# Total GULP energy -223530.254124 kJ/mol
# GULP energy per Si atom -5588.256353 kJ/mol
# Density = 2.116791 g / cm^3
# Si number density = 21.216200 Si / 1000 Ang^3
#
#
#
# Elastic Constant Matrix: (Units=GPa)
#
#
# Indices 1 2 3 4 5 6 
#
# 1 48.5368 17.1086 30.9226 0.0000 0.0000 0.0000
# 2 17.1086 145.1887 46.8656 0.0000 0.0000 0.0000
# 3 30.9226 46.8656 122.1078 0.0000 0.0000 0.0000
# 4 0.0000 0.0000 0.0000 30.2371 0.0000 0.0000
# 5 0.0000 0.0000 0.0000 0.0000 33.9665 0.0000
# 6 0.0000 0.0000 0.0000 0.0000 0.0000 27.4336
#
#
#
# Elastic Compliance Matrix: (Units=1/GPa)
#
#
# Indices 1 2 3 4 5 6 
#
# 1 0.024697 -0.001017 -0.005864 0.000000 0.000000 0.000000
# 2 -0.001017 0.007903 -0.002776 0.000000 0.000000 0.000000
# 3 -0.005864 -0.002776 0.010740 0.000000 0.000000 0.000000
# 4 0.000000 0.000000 0.000000 0.033072 0.000000 0.000000
# 5 0.000000 0.000000 0.000000 0.000000 0.029441 0.000000
# 6 0.000000 0.000000 0.000000 0.000000 0.000000 0.036452
#
#
# Mechanical properties :
#
#
# Convention : Reuss Voigt Hill
#
# Bulk Modulus (GPa) = 41.62061 56.18075 48.90068
# Shear Modulus (GPa) = 29.47626 33.05654 31.26640
#
# Velocity S-wave (km/s) = 3.73141 3.95153 3.84305
# Velocity P-wave (km/s) = 6.18260 6.88165 6.54147
#
# Compressibility (1/GPa) = 0.02402656
#
# Stress axis : x y z
#
# Youngs Moduli (GPa) = 40.49002 126.52682 93.11169
#
# Poissons Ratio (x) = 0.12874 0.54600
# Poissons Ratio (y) = 0.04120 0.25845
# Poissons Ratio (z) = 0.23743 0.35120
#
# Static dielectric constant tensor:
#      x y z
#    x 1.828430 0.000000 0.000000 
#    y 0.000000 1.751820 0.000000 
#    z 0.000000 0.000000 1.784510 
# 
# From -- ./inp_files/7394.got.cif
#   From: 2010.05.17/outbox.cif.g08.bks.cpg/sg52_4_cif.got.tgz:7394.got - 2010.06.03 12:15:38.
