data_PCOD9409353
_publ_section_title
;
Structure prediction by ZEFSAII (Michael W. Deem and Ramdas Pophale) SiO2 
 PCOD9409353
Probable space group: P N N A
;
_chemical_formula_sum "Si O2"
_cell_formula_units_Z 48
_cell_length_a 14.175466
_cell_length_b 17.187898
_cell_length_c 9.519026
_cell_angle_alpha 90.000000
_cell_angle_beta 90.000000
_cell_angle_gamma 90.000000
_cell_volume 2319.277023
_symmetry_space_group_name_H-M "P N N A"
_symmetry_group_IT_number 52
_symmetry_cell_setting 'orthorhombic'
loop_
_space_group_symop_operation_xyz
x,y,z
1/2-x,-y,z
x,1/2-y,1/2-z
1/2-x,1/2+y,1/2-z
-x,-y,-z
1/2+x,y,-z
-x,1/2+y,1/2+z
1/2+x,1/2-y,1/2+z
loop_
_atom_site_type_symbol
_atom_site_label
_atom_site_fract_x
_atom_site_fract_y
_atom_site_fract_z
Si Si1 0.875028 0.884975 0.711927
Si Si2 0.115172 0.194855 0.986054
Si Si3 0.251811 0.159236 0.530855
Si Si4 0.515790 0.527711 0.840262
Si Si5 0.469603 0.180917 0.491955
Si Si6 0.326899 0.556847 0.714847
O O1 0.780479 0.873821 0.620844
O O2 0.959404 0.850082 0.613804
O O3 0.901270 0.976118 0.725265
O O4 0.874863 0.836970 0.855338
O O5 0.138260 0.123827 0.886471
O O6 0.013428 0.234799 0.960472
O O7 0.190571 0.262630 0.953343
O O8 0.361785 0.178098 0.539749
O O9 0.218923 0.097113 0.647267
O O10 0.525203 0.620470 0.861306
O O11 0.419477 0.510133 0.760061
O O12 0.500000 0.500000 0.000000
O O13 0.250000 0.500000 0.649904
#
# Coordination Sequence:
#
# PCOD9409353 Si02
#       6
#     8   8   8   8   8   8
#     4  10  22  43  65  96 138 170 223 287 341 406
#     4  11  25  45  62 100 147 172 222 291 347 409
#     4  11  22  41  74  97 127 180 236 275 332 416
#     4  10  19  40  65  94 125 170 223 278 329 393
#     4  10  21  40  72  96 126 181 229 278 336 408
#     4  12  24  41  69  99 137 179 230 280 340 411
#
# _framework density 20.696103999999998
#
# number of rings (size 3 to 8) (size 9 to 14) (size 15 to 20)
#    0.000    1.333    5.000    4.500    0.000    4.667 
#    9.000    0.000    0.000    0.000    0.000    0.000 
#    0.000    0.000    0.000    0.000    0.000    0.000 
#
# Total GULP energy -268065.921357 kJ/mol
# GULP energy per Si atom -5584.706695 kJ/mol
# Density = 2.064900 g / cm^3
# Si number density = 20.696104 Si / 1000 Ang^3
#
#
#
# Elastic Constant Matrix: (Units=GPa)
#
#
# Indices 1 2 3 4 5 6 
#
# 1 84.5556 8.2291 23.9236 0.0000 0.0000 0.0000
# 2 8.2291 88.5045 34.5426 0.0000 0.0000 0.0000
# 3 23.9236 34.5426 34.1022 0.0000 0.0000 0.0000
# 4 0.0000 0.0000 0.0000 26.2382 0.0000 0.0000
# 5 0.0000 0.0000 0.0000 0.0000 9.8892 0.0000
# 6 0.0000 0.0000 0.0000 0.0000 0.0000 39.0785
#
#
#
# Elastic Compliance Matrix: (Units=1/GPa)
#
#
# Indices 1 2 3 4 5 6 
#
# 1 0.015876 0.004748 -0.015947 0.000000 0.000000 0.000000
# 2 0.004748 0.020106 -0.023696 0.000000 0.000000 0.000000
# 3 -0.015947 -0.023696 0.064513 0.000000 0.000000 0.000000
# 4 0.000000 0.000000 0.000000 0.038112 0.000000 0.000000
# 5 0.000000 0.000000 0.000000 0.000000 0.101121 0.000000
# 6 0.000000 0.000000 0.000000 0.000000 0.000000 0.025590
#
#
# Mechanical properties :
#
#
# Convention : Reuss Voigt Hill
#
# Bulk Modulus (GPa) = 32.56827 37.83922 35.20374
# Shear Modulus (GPa) = 14.47837 24.40562 19.44200
#
# Velocity S-wave (km/s) = 2.64781 3.43773 3.06829
# Velocity P-wave (km/s) = 5.01183 5.83783 5.44053
#
# Compressibility (1/GPa) = 0.03070473
#
# Stress axis : x y z
#
# Youngs Moduli (GPa) = 62.98680 49.73685 15.50081
#
# Poissons Ratio (x) = -0.23613 0.24719
# Poissons Ratio (y) = -0.29904 0.36731
# Poissons Ratio (z) = 1.00443 1.17857
#
# Static dielectric constant tensor:
#      x y z
#    x 1.727310 0.000000 0.000000 
#    y 0.000000 1.814640 0.000000 
#    z 0.000000 0.000000 1.733330 
# 
# From -- ./inp_files/10437.got.cif
#   From: 2010.05.17/outbox.cif.g08.bks.cpg/sg52_6_cif.got.tgz:10437.got - 2010.06.03 12:15:38.
