data_PCOD9409475
_publ_section_title
;
Structure prediction by ZEFSAII (Michael W. Deem and Ramdas Pophale) SiO2 
 PCOD9409475
Probable space group: P N N A
;
_chemical_formula_sum "Si O2"
_cell_formula_units_Z 64
_cell_length_a 18.920194
_cell_length_b 8.827478
_cell_length_c 22.052640
_cell_angle_alpha 90.000000
_cell_angle_beta 90.000000
_cell_angle_gamma 90.000000
_cell_volume 3683.178925
_symmetry_space_group_name_H-M "P N N A"
_symmetry_group_IT_number 52
_symmetry_cell_setting 'orthorhombic'
loop_
_space_group_symop_operation_xyz
x,y,z
1/2-x,-y,z
x,1/2-y,1/2-z
1/2-x,1/2+y,1/2-z
-x,-y,-z
1/2+x,y,-z
-x,1/2+y,1/2+z
1/2+x,1/2-y,1/2+z
loop_
_atom_site_type_symbol
_atom_site_label
_atom_site_fract_x
_atom_site_fract_y
_atom_site_fract_z
Si Si1 0.620520 0.920402 0.016146
Si Si2 0.679056 0.904650 0.503850
Si Si3 0.471892 0.547067 0.689933
Si Si4 0.044477 0.469165 0.061653
Si Si5 0.824985 0.431727 0.353740
Si Si6 0.534761 0.092039 0.322260
Si Si7 0.465199 0.619265 0.425164
Si Si8 0.674039 0.930823 0.361939
O O1 0.669529 0.778727 0.996028
O O2 0.596094 0.033270 0.962971
O O3 0.658677 0.984229 0.076516
O O4 0.541973 0.874035 0.040610
O O5 0.660940 0.948646 0.434178
O O6 0.750000 0.000000 0.516662
O O7 0.619956 0.959965 0.549362
O O8 0.392316 0.484474 0.684136
O O9 0.465608 0.726457 0.678524
O O10 0.497189 0.530931 0.759096
O O11 0.518043 0.464356 0.638287
O O12 0.053781 0.293957 0.077703
O O13 0.006158 0.543381 0.118165
O O14 0.000000 0.500000 0.000000
O O15 0.750000 0.500000 0.334629
O O16 0.824704 0.249359 0.351400
O O17 0.612570 0.020134 0.328154
O O18 0.750000 0.000000 0.347254
#
# Coordination Sequence:
#
# PCOD9409475 Si02
#       8
#     8   8   8   8   8   8   8   8
#     4   9  18  32  51  78 111 147 183 235 280 331
#     4  10  20  34  52  82 116 147 185 228 288 344
#     4  10  23  37  54  78 109 147 190 235 282 333
#     4  12  21  34  58  85 109 145 187 234 291 337
#     4  10  20  33  51  77 111 152 190 228 277 334
#     4  11  22  38  56  78 109 148 192 235 280 346
#     4  10  20  33  55  83 108 145 187 237 287 327
#     4  10  20  33  52  76 109 150 188 234 275 327
#
# _framework density 17.376294000000001
#
# number of rings (size 3 to 8) (size 9 to 14) (size 15 to 20)
#    0.000    1.750    2.500    3.000    3.500    5.500 
#    0.000    0.000    0.000    0.000    0.000    7.875 
#    0.000    0.000    0.000    0.000    0.000    0.000 
#
# Total GULP energy -356798.302530 kJ/mol
# GULP energy per Si atom -5574.973477 kJ/mol
# Density = 1.733675 g / cm^3
# Si number density = 17.376294 Si / 1000 Ang^3
#
#
#
# Elastic Constant Matrix: (Units=GPa)
#
#
# Indices 1 2 3 4 5 6 
#
# 1 37.7566 18.2907 31.1325 0.0000 0.0000 0.0000
# 2 18.2907 69.4214 54.9939 0.0000 0.0000 0.0000
# 3 31.1325 54.9939 104.1218 0.0000 0.0000 0.0000
# 4 0.0000 0.0000 0.0000 19.1821 0.0000 0.0000
# 5 0.0000 0.0000 0.0000 0.0000 28.9702 0.0000
# 6 0.0000 0.0000 0.0000 0.0000 0.0000 31.4592
#
#
#
# Elastic Compliance Matrix: (Units=1/GPa)
#
#
# Indices 1 2 3 4 5 6 
#
# 1 0.035257 -0.001613 -0.009690 0.000000 0.000000 0.000000
# 2 -0.001613 0.024841 -0.012638 0.000000 0.000000 0.000000
# 3 -0.009690 -0.012638 0.019176 0.000000 0.000000 0.000000
# 4 0.000000 0.000000 0.000000 0.052132 0.000000 0.000000
# 5 0.000000 0.000000 0.000000 0.000000 0.034518 0.000000
# 6 0.000000 0.000000 0.000000 0.000000 0.000000 0.031787
#
#
# Mechanical properties :
#
#
# Convention : Reuss Voigt Hill
#
# Bulk Modulus (GPa) = 31.85486 46.68155 39.26821
# Shear Modulus (GPa) = 19.52683 23.04783 21.28733
#
# Velocity S-wave (km/s) = 3.35589 3.64592 3.50391
# Velocity P-wave (km/s) = 5.77825 6.68185 6.24641
#
# Compressibility (1/GPa) = 0.03139238
#
# Stress axis : x y z
#
# Youngs Moduli (GPa) = 28.36348 40.25530 52.14739
#
# Poissons Ratio (x) = 0.06494 0.50529
# Poissons Ratio (y) = 0.04576 0.65905
# Poissons Ratio (z) = 0.27483 0.50875
#
# Static dielectric constant tensor:
#      x y z
#    x 1.537990 0.000000 0.000000 
#    y 0.000000 1.644160 0.000000 
#    z 0.000000 0.000000 1.616440 
# 
# From -- ./inp_files/34115.got.cif
#   From: 2010.05.17/outbox.cif.g08.bks.cpg/sg52_18_cif.got.tgz:34115.got - 2010.06.03 12:15:38.
