data_PCOD9409377
_publ_section_title
;
Structure prediction by ZEFSAII (Michael W. Deem and Ramdas Pophale) SiO2 
 PCOD9409377
Probable space group: P N N A
;
_chemical_formula_sum "Si O2"
_cell_formula_units_Z 36
_cell_length_a 14.198641
_cell_length_b 17.033446
_cell_length_c 6.890236
_cell_angle_alpha 90.000000
_cell_angle_beta 90.000000
_cell_angle_gamma 90.000000
_cell_volume 1666.415874
_symmetry_space_group_name_H-M "P N N A"
_symmetry_group_IT_number 52
_symmetry_cell_setting 'orthorhombic'
loop_
_space_group_symop_operation_xyz
x,y,z
1/2-x,-y,z
x,1/2-y,1/2-z
1/2-x,1/2+y,1/2-z
-x,-y,-z
1/2+x,y,-z
-x,1/2+y,1/2+z
1/2+x,1/2-y,1/2+z
loop_
_atom_site_type_symbol
_atom_site_label
_atom_site_fract_x
_atom_site_fract_y
_atom_site_fract_z
Si Si1 0.638370 0.855879 0.234879
Si Si2 0.692826 0.330446 0.985530
Si Si3 0.207522 0.921583 0.150615
Si Si4 0.043370 0.250000 0.250000
Si Si5 0.109813 0.003465 0.519512
O O1 0.716627 0.814099 0.376650
O O2 0.532766 0.820949 0.249459
O O3 0.639645 0.943454 0.316892
O O4 0.662263 0.865914 0.009725
O O5 0.727423 0.363192 0.776397
O O6 0.613382 0.265803 0.933579
O O7 0.643592 0.409171 0.066363
O O8 0.148009 0.965525 0.319169
O O9 0.250000 0.000000 0.051954
O O10 0.000000 0.000000 0.500000
#
# Coordination Sequence:
#
# PCOD9409377 Si02
#       5
#     8   8   8   4   8
#     4  11  23  43  67  93 130 176 224 268 342 404
#     4  10  23  44  64  89 138 169 216 282 329 396
#     4   9  20  40  68  94 121 167 221 272 321 396
#     4  12  26  42  62 100 132 174 226 270 338 434
#     4  10  19  41  67  97 128 170 221 281 334 394
#
# _framework density 21.603252999999999
#
# number of rings (size 3 to 8) (size 9 to 14) (size 15 to 20)
#    0.000    1.778    2.222    3.333    3.111    0.889 
#    4.000    4.444    0.000    0.000    0.000    0.000 
#    0.000    0.000    0.000    0.000    0.000    0.000 
#
# Total GULP energy -200452.439418 kJ/mol
# GULP energy per Si atom -5568.123317 kJ/mol
# Density = 2.155408 g / cm^3
# Si number density = 21.603253 Si / 1000 Ang^3
#
#
#
# Elastic Constant Matrix: (Units=GPa)
#
#
# Indices 1 2 3 4 5 6 
#
# 1 125.2536 32.2066 18.7235 0.0000 0.0000 0.0000
# 2 32.2066 81.7429 31.4106 0.0000 0.0000 0.0000
# 3 18.7235 31.4106 52.9872 0.0000 0.0000 0.0000
# 4 0.0000 0.0000 0.0000 25.3186 0.0000 0.0000
# 5 0.0000 0.0000 0.0000 0.0000 -27.3623 0.0000
# 6 0.0000 0.0000 0.0000 0.0000 0.0000 36.6312
#
#
#
# Elastic Compliance Matrix: (Units=1/GPa)
#
#
# Indices 1 2 3 4 5 6 
#
# 1 0.008962 -0.002997 -0.001390 0.000000 0.000000 0.000000
# 2 -0.002997 0.016844 -0.008926 0.000000 0.000000 0.000000
# 3 -0.001390 -0.008926 0.024655 0.000000 0.000000 0.000000
# 4 0.000000 0.000000 0.000000 0.039497 0.000000 0.000000
# 5 0.000000 0.000000 0.000000 0.000000 -0.036547 0.000000
# 6 0.000000 0.000000 0.000000 0.000000 0.000000 0.027299
#
#
# Mechanical properties :
#
#
# Convention : Reuss Voigt Hill
#
# Bulk Modulus (GPa) = 41.95548 47.18501 44.57024
# Shear Modulus (GPa) = 43.37160 18.76035 31.06597
#
# Velocity S-wave (km/s) = 4.48553 2.95007 3.79624
# Velocity P-wave (km/s) = 6.80366 5.78730 6.31596
#
# Compressibility (1/GPa) = 0.02383479
#
# Stress axis : x y z
#
# Youngs Moduli (GPa) = 111.57948 59.36751 40.55934
#
# Poissons Ratio (x) = 0.17791 0.05639
# Poissons Ratio (y) = 0.33439 0.36204
# Poissons Ratio (z) = 0.15514 0.52993
#
# Static dielectric constant tensor:
#      x y z
#    x 0.442340 0.000000 0.000000 
#    y 0.000000 1.833320 0.000000 
#    z 0.000000 0.000000 1.767810 
# 
# From -- ./inp_files/2121.got.cif
#   From: 2010.05.17/outbox.cif.g08.bks.cpg/sg52_2_cif.got.tgz:2121.got - 2010.06.03 12:15:38.
