data_PCOD9409380
_publ_section_title
;
Structure prediction by ZEFSAII (Michael W. Deem and Ramdas Pophale) SiO2 
 PCOD9409380
Probable space group: P N N A
;
_chemical_formula_sum "Si O2"
_cell_formula_units_Z 48
_cell_length_a 10.025706
_cell_length_b 20.143523
_cell_length_c 9.507497
_cell_angle_alpha 90.000000
_cell_angle_beta 90.000000
_cell_angle_gamma 90.000000
_cell_volume 1920.067916
_symmetry_space_group_name_H-M "P N N A"
_symmetry_group_IT_number 52
_symmetry_cell_setting 'orthorhombic'
loop_
_space_group_symop_operation_xyz
x,y,z
1/2-x,-y,z
x,1/2-y,1/2-z
1/2-x,1/2+y,1/2-z
-x,-y,-z
1/2+x,y,-z
-x,1/2+y,1/2+z
1/2+x,1/2-y,1/2+z
loop_
_atom_site_type_symbol
_atom_site_label
_atom_site_fract_x
_atom_site_fract_y
_atom_site_fract_z
Si Si1 0.380139 0.105023 0.061003
Si Si2 0.902312 0.236410 0.545854
Si Si3 0.324617 0.898702 0.831219
Si Si4 0.637549 0.250000 0.250000
Si Si5 0.696713 0.357317 0.790433
Si Si6 0.501848 0.750000 0.250000
Si Si7 0.373034 0.545145 0.980204
O O1 0.375496 0.185607 0.062117
O O2 0.534938 0.088073 0.086663
O O3 0.283076 0.093136 0.194386
O O4 0.304046 0.079344 0.922388
O O5 0.795900 0.191413 0.624699
O O6 0.913778 0.224542 0.380831
O O7 0.042047 0.224918 0.623434
O O8 0.305038 0.819154 0.808635
O O9 0.344474 0.930287 0.678040
O O10 0.593994 0.310814 0.704352
O O11 0.616543 0.395540 0.909552
O O12 0.250000 0.500000 0.022679
O O13 0.500000 0.500000 0.000000
#
# Coordination Sequence:
#
# PCOD9409380 Si02
#       7
#     8   8   8   4   8   4   8
#     4  11  23  43  70 112 147 190 232 322 394 455
#     4  11  22  38  64 110 154 186 231 295 397 463
#     4  11  25  46  74 109 155 191 261 313 391 459
#     4  10  19  41  72 104 156 194 230 318 396 452
#     4  12  23  46  72 106 157 196 251 317 389 460
#     4  12  25  37  70 112 152 194 238 312 398 452
#     4  12  31  53  79 107 150 216 273 309 374 466
#
# _framework density 24.999115
#
# number of rings (size 3 to 8) (size 9 to 14) (size 15 to 20)
#    0.000    0.667    5.000    4.000    7.000    1.333 
#    0.000    4.167    0.000    0.000    0.000    0.000 
#    0.000    0.000    0.000    0.000    0.000    0.000 
#
# Total GULP energy -268907.105549 kJ/mol
# GULP energy per Si atom -5602.231366 kJ/mol
# Density = 2.494222 g / cm^3
# Si number density = 24.999115 Si / 1000 Ang^3
#
#
#
# Elastic Constant Matrix: (Units=GPa)
#
#
# Indices 1 2 3 4 5 6 
#
# 1 80.1789 18.3107 25.8240 0.0000 0.0000 0.0000
# 2 18.3107 54.1825 2.9156 0.0000 0.0000 0.0000
# 3 25.8240 2.9156 116.1134 0.0000 0.0000 0.0000
# 4 0.0000 0.0000 0.0000 33.7243 0.0000 0.0000
# 5 0.0000 0.0000 0.0000 0.0000 66.4190 0.0000
# 6 0.0000 0.0000 0.0000 0.0000 0.0000 31.1476
#
#
#
# Elastic Compliance Matrix: (Units=1/GPa)
#
#
# Indices 1 2 3 4 5 6 
#
# 1 0.014562 -0.004753 -0.003119 0.000000 0.000000 0.000000
# 2 -0.004753 0.020033 0.000554 0.000000 0.000000 0.000000
# 3 -0.003119 0.000554 0.009292 0.000000 0.000000 0.000000
# 4 0.000000 0.000000 0.000000 0.029652 0.000000 0.000000
# 5 0.000000 0.000000 0.000000 0.000000 0.015056 0.000000
# 6 0.000000 0.000000 0.000000 0.000000 0.000000 0.032105
#
#
# Mechanical properties :
#
#
# Convention : Reuss Voigt Hill
#
# Bulk Modulus (GPa) = 34.18808 38.28613 36.23711
# Shear Modulus (GPa) = 34.46192 39.81981 37.14086
#
# Velocity S-wave (km/s) = 3.71688 3.99538 3.85864
# Velocity P-wave (km/s) = 5.66795 6.05247 5.86336
#
# Compressibility (1/GPa) = 0.02924996
#
# Stress axis : x y z
#
# Youngs Moduli (GPa) = 68.67028 49.91832 107.61815
#
# Poissons Ratio (x) = 0.23728 0.33570
# Poissons Ratio (y) = 0.32642 -0.05964
# Poissons Ratio (z) = 0.21421 -0.02766
#
# Static dielectric constant tensor:
#      x y z
#    x 2.039040 0.000000 0.000000 
#    y 0.000000 1.967070 0.000000 
#    z 0.000000 0.000000 2.032470 
# 
# From -- ./inp_files/8890.got.cif
#   From: 2010.05.17/outbox.cif.g08.bks.cpg/sg52_5_cif.got.tgz:8890.got - 2010.06.03 12:15:38.
