data_PCOD9409185
_publ_section_title
;
Structure prediction by ZEFSAII (Michael W. Deem and Ramdas Pophale) SiO2 
 PCOD9409185
Probable space group: P N N A
;
_chemical_formula_sum "Si O2"
_cell_formula_units_Z 56
_cell_length_a 19.780915
_cell_length_b 9.281197
_cell_length_c 16.222295
_cell_angle_alpha 90.000000
_cell_angle_beta 90.000000
_cell_angle_gamma 90.000000
_cell_volume 2978.260369
_symmetry_space_group_name_H-M "P N N A"
_symmetry_group_IT_number 52
_symmetry_cell_setting 'orthorhombic'
loop_
_space_group_symop_operation_xyz
x,y,z
1/2-x,-y,z
x,1/2-y,1/2-z
1/2-x,1/2+y,1/2-z
-x,-y,-z
1/2+x,y,-z
-x,1/2+y,1/2+z
1/2+x,1/2-y,1/2+z
loop_
_atom_site_type_symbol
_atom_site_label
_atom_site_fract_x
_atom_site_fract_y
_atom_site_fract_z
Si Si1 0.602383 0.825055 0.976767
Si Si2 0.688989 0.594536 0.288811
Si Si3 0.500217 0.829070 0.837460
Si Si4 0.038738 0.920872 0.744626
Si Si5 0.894645 0.829354 0.016313
Si Si6 0.259937 0.345228 0.525601
Si Si7 0.998428 0.871082 0.565368
O O1 0.565313 0.791207 0.891306
O O2 0.679196 0.768861 0.978918
O O3 0.559463 0.740747 0.046108
O O4 0.599663 0.999098 0.993423
O O5 0.750000 0.500000 0.255017
O O6 0.691571 0.750000 0.250000
O O7 0.615873 0.532192 0.265218
O O8 0.705437 0.618116 0.385614
O O9 0.492485 0.750000 0.750000
O O10 0.437464 0.808283 0.899684
O O11 0.504486 0.996785 0.812322
O O12 0.036767 0.750000 0.750000
O O13 0.011437 0.945833 0.653011
O O14 0.816075 0.787720 0.031132
O O15 0.931389 0.725588 0.949939
O O16 0.250000 0.500000 0.482693
O O17 0.000000 0.000000 0.500000
#
# Coordination Sequence:
#
# PCOD9409185 Si02
#       7
#     8   8   8   8   8   8   8
#     4  10  19  37  58  77 104 143 185 218 259 319
#     4  10  20  31  47  75 108 137 167 211 267 319
#     4  11  21  33  54  82 109 137 173 221 268 311
#     4  11  20  33  51  76 107 138 176 221 265 311
#     4  10  20  37  60  80 103 143 186 219 258 319
#     4   9  18  34  57  80 101 133 181 225 258 309
#     4  11  22  35  51  78 113 145 179 217 261 318
#
# _framework density 18.802921999999999
#
# number of rings (size 3 to 8) (size 9 to 14) (size 15 to 20)
#    0.000    1.714    0.000    9.429    0.000    3.429 
#    0.000    0.714    0.000    6.000    0.000    0.000 
#    0.000    0.000    0.000    0.000    0.000    0.000 
#
# Total GULP energy -312077.096538 kJ/mol
# GULP energy per Si atom -5572.805295 kJ/mol
# Density = 1.876013 g / cm^3
# Si number density = 18.802922 Si / 1000 Ang^3
#
#
#
# Elastic Constant Matrix: (Units=GPa)
#
#
# Indices 1 2 3 4 5 6 
#
# 1 145.8702 16.2083 57.2545 0.0000 0.0000 0.0000
# 2 16.2083 38.3034 0.1369 0.0000 0.0000 0.0000
# 3 57.2545 0.1369 76.2068 0.0000 0.0000 0.0000
# 4 0.0000 0.0000 0.0000 36.0123 0.0000 0.0000
# 5 0.0000 0.0000 0.0000 0.0000 2.3543 0.0000
# 6 0.0000 0.0000 0.0000 0.0000 0.0000 16.5961
#
#
#
# Elastic Compliance Matrix: (Units=1/GPa)
#
#
# Indices 1 2 3 4 5 6 
#
# 1 0.010408 -0.004376 -0.007811 0.000000 0.000000 0.000000
# 2 -0.004376 0.027948 0.003238 0.000000 0.000000 0.000000
# 3 -0.007811 0.003238 0.018985 0.000000 0.000000 0.000000
# 4 0.000000 0.000000 0.000000 0.027768 0.000000 0.000000
# 5 0.000000 0.000000 0.000000 0.000000 0.424754 0.000000
# 6 0.000000 0.000000 0.000000 0.000000 0.000000 0.060255
#
#
# Mechanical properties :
#
#
# Convention : Reuss Voigt Hill
#
# Bulk Modulus (GPa) = 25.35471 45.28662 35.32067
# Shear Modulus (GPa) = 8.31720 23.44460 15.88090
#
# Velocity S-wave (km/s) = 2.10546 3.53492 2.90935
# Velocity P-wave (km/s) = 4.40730 6.38734 5.48737
#
# Compressibility (1/GPa) = 0.03944040
#
# Stress axis : x y z
#
# Youngs Moduli (GPa) = 96.08272 35.78134 52.67263
#
# Poissons Ratio (x) = 0.15658 0.41145
# Poissons Ratio (y) = 0.42047 -0.17053
# Poissons Ratio (z) = 0.75055 -0.11585
#
# Static dielectric constant tensor:
#      x y z
#    x 1.709430 0.000000 0.000000 
#    y 0.000000 1.712580 0.000000 
#    z 0.000000 0.000000 1.714130 
# 
# From -- ./inp_files/34052.got.cif
#   From: 2010.05.17/outbox.cif.g08.bks.cpg/sg52_18_cif.got.tgz:34052.got - 2010.06.03 12:15:38.
