data_PCOD9409905
_publ_section_title
;
Structure prediction by ZEFSAII (Michael W. Deem and Ramdas Pophale) SiO2 
 PCOD9409905
Probable space group: P N N A
;
_chemical_formula_sum "Si O2"
_cell_formula_units_Z 60
_cell_length_a 10.215173
_cell_length_b 24.908250
_cell_length_c 13.761146
_cell_angle_alpha 90.000000
_cell_angle_beta 90.000000
_cell_angle_gamma 90.000000
_cell_volume 3501.414651
_symmetry_space_group_name_H-M "P N N A"
_symmetry_group_IT_number 52
_symmetry_cell_setting 'orthorhombic'
loop_
_space_group_symop_operation_xyz
x,y,z
1/2-x,-y,z
x,1/2-y,1/2-z
1/2-x,1/2+y,1/2-z
-x,-y,-z
1/2+x,y,-z
-x,1/2+y,1/2+z
1/2+x,1/2-y,1/2+z
loop_
_atom_site_type_symbol
_atom_site_label
_atom_site_fract_x
_atom_site_fract_y
_atom_site_fract_z
Si Si1 0.238849 0.562852 0.795676
Si Si2 0.483813 0.877536 0.597876
Si Si3 0.376283 0.462498 0.986680
Si Si4 0.937198 0.250000 0.250000
Si Si5 0.323886 0.287389 0.461230
Si Si6 0.981114 0.190269 0.783884
Si Si7 0.263368 0.157053 0.850110
Si Si8 0.061494 0.281927 0.048424
O O1 0.250000 0.500000 0.768003
O O2 0.365701 0.587116 0.854128
O O3 0.210750 0.601406 0.705377
O O4 0.129155 0.562440 0.879102
O O5 0.600770 0.914569 0.560502
O O6 0.536791 0.842095 0.685575
O O7 0.436418 0.838954 0.509021
O O8 0.250000 0.500000 0.999765
O O9 0.500000 0.500000 0.000000
O O10 0.843981 0.203973 0.204957
O O11 0.020213 0.277373 0.162300
O O12 0.357484 0.308608 0.354604
O O13 0.301969 0.335229 0.538042
O O14 0.199189 0.248332 0.463876
O O15 0.449352 0.252839 0.494538
O O16 0.013116 0.250000 0.750000
O O17 0.108778 0.167844 0.838485
#
# Coordination Sequence:
#
# PCOD9409905 Si02
#       8
#     8   8   8   4   8   8   8   8
#     4  10  21  37  60  85 111 154 205 238 290 364
#     4  11  22  36  62  87 115 164 193 240 306 356
#     4  11  21  39  57  86 121 146 195 251 295 349
#     4  10  22  36  54  88 120 150 196 230 300 360
#     4  11  22  39  54  88 122 152 195 243 296 349
#     4  11  20  36  59  84 119 152 198 233 298 363
#     4  10  20  37  61  80 116 157 195 242 294 360
#     4  11  24  35  58  85 125 152 195 239 293 369
#
# _framework density 17.135930999999999
#
# number of rings (size 3 to 8) (size 9 to 14) (size 15 to 20)
#    0.000    1.333    6.000    0.800    8.400    0.000 
#    0.000    1.333    0.000    4.000    0.000    0.000 
#    0.000    0.000    0.000    0.000    0.000    0.000 
#
# Total GULP energy -334534.180136 kJ/mol
# GULP energy per Si atom -5575.569669 kJ/mol
# Density = 1.709693 g / cm^3
# Si number density = 17.135931 Si / 1000 Ang^3
#
#
#
# Elastic Constant Matrix: (Units=GPa)
#
#
# Indices 1 2 3 4 5 6 
#
# 1 84.9888 29.4141 26.6499 0.0000 0.0000 0.0000
# 2 29.4141 102.6659 38.2984 0.0000 0.0000 0.0000
# 3 26.6499 38.2984 71.3949 0.0000 0.0000 0.0000
# 4 0.0000 0.0000 0.0000 39.9662 0.0000 0.0000
# 5 0.0000 0.0000 0.0000 0.0000 20.7812 0.0000
# 6 0.0000 0.0000 0.0000 0.0000 0.0000 24.7344
#
#
#
# Elastic Compliance Matrix: (Units=1/GPa)
#
#
# Indices 1 2 3 4 5 6 
#
# 1 0.013839 -0.002548 -0.003799 0.000000 0.000000 0.000000
# 2 -0.002548 0.012646 -0.005833 0.000000 0.000000 0.000000
# 3 -0.003799 -0.005833 0.018554 0.000000 0.000000 0.000000
# 4 0.000000 0.000000 0.000000 0.025021 0.000000 0.000000
# 5 0.000000 0.000000 0.000000 0.000000 0.048120 0.000000
# 6 0.000000 0.000000 0.000000 0.000000 0.000000 0.040429
#
#
# Mechanical properties :
#
#
# Convention : Reuss Voigt Hill
#
# Bulk Modulus (GPa) = 48.35664 49.75270 49.05467
# Shear Modulus (GPa) = 26.33482 28.07551 27.20516
#
# Velocity S-wave (km/s) = 3.92448 4.05211 3.98880
# Velocity P-wave (km/s) = 6.98685 7.14072 7.06421
#
# Compressibility (1/GPa) = 0.02067968
#
# Stress axis : x y z
#
# Youngs Moduli (GPa) = 72.25788 79.07565 53.89789
#
# Poissons Ratio (x) = 0.20147 0.20477
# Poissons Ratio (y) = 0.18410 0.31437
# Poissons Ratio (z) = 0.27452 0.46123
#
# Static dielectric constant tensor:
#      x y z
#    x 1.573830 0.000000 0.000000 
#    y 0.000000 1.601880 0.000000 
#    z 0.000000 0.000000 1.654610 
# 
# From -- ./inp_files/25095.got.cif
#   From: 2010.05.17/outbox.cif.g08.bks.cpg/sg52_13_cif.got.tgz:25095.got - 2010.06.03 12:15:38.
