data_PCOD9409836
_publ_section_title
;
Structure prediction by ZEFSAII (Michael W. Deem and Ramdas Pophale) SiO2 
 PCOD9409836
Probable space group: P N N A
;
_chemical_formula_sum "Si O2"
_cell_formula_units_Z 48
_cell_length_a 16.897741
_cell_length_b 5.386050
_cell_length_c 24.288617
_cell_angle_alpha 90.000000
_cell_angle_beta 90.000000
_cell_angle_gamma 90.000000
_cell_volume 2210.557503
_symmetry_space_group_name_H-M "P N N A"
_symmetry_group_IT_number 52
_symmetry_cell_setting 'orthorhombic'
loop_
_space_group_symop_operation_xyz
x,y,z
1/2-x,-y,z
x,1/2-y,1/2-z
1/2-x,1/2+y,1/2-z
-x,-y,-z
1/2+x,y,-z
-x,1/2+y,1/2+z
1/2+x,1/2-y,1/2+z
loop_
_atom_site_type_symbol
_atom_site_label
_atom_site_fract_x
_atom_site_fract_y
_atom_site_fract_z
Si Si1 0.638110 0.625144 0.669436
Si Si2 0.658705 0.980860 0.031265
Si Si3 0.340527 0.519822 0.897945
Si Si4 0.250000 0.500000 0.108021
Si Si5 0.498048 0.993755 0.349044
Si Si6 0.607161 0.234568 0.929535
Si Si7 0.090423 0.250000 0.250000
O O1 0.706005 0.812588 0.650189
O O2 0.638678 0.418455 0.622463
O O3 0.641004 0.482281 0.727565
O O4 0.552951 0.759224 0.662065
O O5 0.649505 0.213437 0.072681
O O6 0.750000 0.000000 0.010834
O O7 0.648018 0.716090 0.060774
O O8 0.602007 0.050424 0.980507
O O9 0.250000 0.500000 0.878096
O O10 0.408477 0.511720 0.852111
O O11 0.320654 0.572906 0.066031
O O12 0.468917 0.880358 0.407658
O O13 0.465623 0.822452 0.300381
#
# Coordination Sequence:
#
# PCOD9409836 Si02
#       7
#     8   8   8   4   8   8   4
#     4  10  21  39  64  93 122 172 209 270 317 380
#     4  10  22  38  62  97 135 175 209 258 322 380
#     4  10  24  42  65  97 134 168 212 270 326 391
#     4  10  20  36  64  92 130 172 216 260 304 382
#     4  10  23  41  67  88 123 170 212 271 330 383
#     4  10  22  36  64  90 133 173 218 251 311 380
#     4  10  22  42  68  84 120 166 216 270 338 378
#
# _framework density 21.713978000000001
#
# number of rings (size 3 to 8) (size 9 to 14) (size 15 to 20)
#    0.000    2.000    0.000    2.000   12.833    1.333 
#    0.000    0.000  135.667    0.000    0.000    0.000 
#    0.000    0.000    0.000    0.000    0.000    0.000 
#
# Total GULP energy -267881.830344 kJ/mol
# GULP energy per Si atom -5580.871466 kJ/mol
# Density = 2.166456 g / cm^3
# Si number density = 21.713978 Si / 1000 Ang^3
#
#
#
# Elastic Constant Matrix: (Units=GPa)
#
#
# Indices 1 2 3 4 5 6 
#
# 1 89.7352 20.6802 9.5251 0.0000 0.0000 0.0000
# 2 20.6802 75.0804 1.5976 0.0000 0.0000 0.0000
# 3 9.5251 1.5976 18.8345 0.0000 0.0000 0.0000
# 4 0.0000 0.0000 0.0000 6.0061 0.0000 0.0000
# 5 0.0000 0.0000 0.0000 0.0000 6.9401 0.0000
# 6 0.0000 0.0000 0.0000 0.0000 0.0000 12.6171
#
#
#
# Elastic Compliance Matrix: (Units=1/GPa)
#
#
# Indices 1 2 3 4 5 6 
#
# 1 0.012555 -0.003329 -0.006067 0.000000 0.000000 0.000000
# 2 -0.003329 0.014226 0.000477 0.000000 0.000000 0.000000
# 3 -0.006067 0.000477 0.056122 0.000000 0.000000 0.000000
# 4 0.000000 0.000000 0.000000 0.166497 0.000000 0.000000
# 5 0.000000 0.000000 0.000000 0.000000 0.144090 0.000000
# 6 0.000000 0.000000 0.000000 0.000000 0.000000 0.079257
#
#
# Mechanical properties :
#
#
# Convention : Reuss Voigt Hill
#
# Bulk Modulus (GPa) = 15.36939 27.47288 21.42113
# Shear Modulus (GPa) = 9.76040 15.23581 12.49811
#
# Velocity S-wave (km/s) = 2.12244 2.65176 2.40173
# Velocity P-wave (km/s) = 3.61936 4.69632 4.19256
#
# Compressibility (1/GPa) = 0.06506438
#
# Stress axis : x y z
#
# Youngs Moduli (GPa) = 79.64879 70.29448 17.81836
#
# Poissons Ratio (x) = 0.23402 0.10811
# Poissons Ratio (y) = 0.26516 -0.00850
# Poissons Ratio (z) = 0.48323 -0.03352
#
# Static dielectric constant tensor:
#      x y z
#    x 1.792310 0.000000 0.000000 
#    y 0.000000 1.986630 0.000000 
#    z 0.000000 0.000000 1.799290 
# 
# From -- ./inp_files/40831.got.cif
#   From: 2010.05.17/outbox.cif.g08.bks.cpg/sg52_21_cif.got.tgz:40831.got - 2010.06.03 12:15:38.
