data_PCOD9409669
_publ_section_title
;
Structure prediction by ZEFSAII (Michael W. Deem and Ramdas Pophale) SiO2 
 PCOD9409669
Probable space group: P N N A
;
_chemical_formula_sum "Si O2"
_cell_formula_units_Z 48
_cell_length_a 20.727075
_cell_length_b 14.699185
_cell_length_c 9.055527
_cell_angle_alpha 90.000000
_cell_angle_beta 90.000000
_cell_angle_gamma 90.000000
_cell_volume 2758.957462
_symmetry_space_group_name_H-M "P N N A"
_symmetry_group_IT_number 52
_symmetry_cell_setting 'orthorhombic'
loop_
_space_group_symop_operation_xyz
x,y,z
1/2-x,-y,z
x,1/2-y,1/2-z
1/2-x,1/2+y,1/2-z
-x,-y,-z
1/2+x,y,-z
-x,1/2+y,1/2+z
1/2+x,1/2-y,1/2+z
loop_
_atom_site_type_symbol
_atom_site_label
_atom_site_fract_x
_atom_site_fract_y
_atom_site_fract_z
Si Si1 0.010924 0.582748 0.887268
Si Si2 0.861966 0.737658 0.420769
Si Si3 0.683669 0.447823 0.553024
Si Si4 0.439507 0.444473 0.566580
Si Si5 0.516945 0.760062 0.925370
Si Si6 0.868672 0.648497 0.820937
O O1 0.941414 0.611906 0.822161
O O2 0.053861 0.558507 0.744707
O O3 0.000000 0.500000 0.000000
O O4 0.033428 0.668651 0.984735
O O5 0.850807 0.750000 0.250000
O O6 0.822956 0.650354 0.475352
O O7 0.846585 0.828556 0.513616
O O8 0.939461 0.722778 0.442788
O O9 0.750000 0.500000 0.530764
O O10 0.625042 0.507597 0.489842
O O11 0.672309 0.421062 0.724493
O O12 0.500000 0.500000 0.500000
O O13 0.446363 0.343942 0.498837
O O14 0.529241 0.750000 0.750000
O O15 0.868519 0.750000 0.750000
#
# Coordination Sequence:
#
# PCOD9409669 Si02
#       6
#     8   8   8   8   8   8
#     4  11  21  32  59  93 119 146 195 246 299 352
#     4   9  18  35  62  85 114 154 202 238 290 360
#     4  11  23  38  58  86 118 158 202 241 296 354
#     4  12  20  36  59  86 119 150 192 250 299 346
#     4  10  20  35  57  93 121 150 191 248 301 353
#     4   9  18  36  59  82 113 155 196 233 290 356
#
# _framework density 17.397876
#
# number of rings (size 3 to 8) (size 9 to 14) (size 15 to 20)
#    0.000    1.667    3.333    3.500    4.667    0.000 
#    0.000    5.000    0.000    0.000    0.000    0.000 
#    0.000    0.000    0.000    0.000    0.000    0.000 
#
# Total GULP energy -267749.854378 kJ/mol
# GULP energy per Si atom -5578.121966 kJ/mol
# Density = 1.735828 g / cm^3
# Si number density = 17.397876 Si / 1000 Ang^3
#
#
#
# Elastic Constant Matrix: (Units=GPa)
#
#
# Indices 1 2 3 4 5 6 
#
# 1 87.0632 44.4933 43.3893 0.0000 0.0000 0.0000
# 2 44.4933 107.4621 51.0899 0.0000 0.0000 0.0000
# 3 43.3893 51.0899 146.7994 0.0000 0.0000 0.0000
# 4 0.0000 0.0000 0.0000 26.3633 0.0000 0.0000
# 5 0.0000 0.0000 0.0000 0.0000 8.7446 0.0000
# 6 0.0000 0.0000 0.0000 0.0000 0.0000 22.3083
#
#
#
# Elastic Compliance Matrix: (Units=1/GPa)
#
#
# Indices 1 2 3 4 5 6 
#
# 1 0.015479 -0.005073 -0.002809 0.000000 0.000000 0.000000
# 2 -0.005073 0.012813 -0.002960 0.000000 0.000000 0.000000
# 3 -0.002809 -0.002960 0.008673 0.000000 0.000000 0.000000
# 4 0.000000 0.000000 0.000000 0.037931 0.000000 0.000000
# 5 0.000000 0.000000 0.000000 0.000000 0.114357 0.000000
# 6 0.000000 0.000000 0.000000 0.000000 0.000000 0.044826
#
#
# Mechanical properties :
#
#
# Convention : Reuss Voigt Hill
#
# Bulk Modulus (GPa) = 65.44679 68.80775 67.12727
# Shear Modulus (GPa) = 19.16759 24.97338 22.07049
#
# Velocity S-wave (km/s) = 3.32282 3.79281 3.56557
# Velocity P-wave (km/s) = 7.24022 7.66916 7.45777
#
# Compressibility (1/GPa) = 0.01527959
#
# Stress axis : x y z
#
# Youngs Moduli (GPa) = 64.60531 78.04428 115.30674
#
# Poissons Ratio (x) = 0.39592 0.32395
# Poissons Ratio (y) = 0.32775 0.34130
# Poissons Ratio (z) = 0.18150 0.23100
#
# Static dielectric constant tensor:
#      x y z
#    x 1.560600 0.000000 0.000000 
#    y 0.000000 1.597210 0.000000 
#    z 0.000000 0.000000 1.648600 
# 
# From -- ./inp_files/12072.got.cif
#   From: 2010.05.17/outbox.cif.g08.bks.cpg/sg52_7_cif.got.tgz:12072.got - 2010.06.03 12:15:38.
