data_PCOD9409366
_publ_section_title
;
Structure prediction by ZEFSAII (Michael W. Deem and Ramdas Pophale) SiO2 
 PCOD9409366
Probable space group: P N N A
;
_chemical_formula_sum "Si O2"
_cell_formula_units_Z 40
_cell_length_a 9.625060
_cell_length_b 11.612152
_cell_length_c 14.594227
_cell_angle_alpha 90.000000
_cell_angle_beta 90.000000
_cell_angle_gamma 90.000000
_cell_volume 1631.162597
_symmetry_space_group_name_H-M "P N N A"
_symmetry_group_IT_number 52
_symmetry_cell_setting 'orthorhombic'
loop_
_space_group_symop_operation_xyz
x,y,z
1/2-x,-y,z
x,1/2-y,1/2-z
1/2-x,1/2+y,1/2-z
-x,-y,-z
1/2+x,y,-z
-x,1/2+y,1/2+z
1/2+x,1/2-y,1/2+z
loop_
_atom_site_type_symbol
_atom_site_label
_atom_site_fract_x
_atom_site_fract_y
_atom_site_fract_z
Si Si1 0.352275 0.347152 0.883004
Si Si2 0.476821 0.662256 0.666263
Si Si3 0.896100 0.821255 0.495356
Si Si4 0.794977 0.820192 0.840475
Si Si5 0.908948 0.410500 0.326243
O O1 0.206544 0.384658 0.925910
O O2 0.382324 0.389677 0.781243
O O3 0.349957 0.205111 0.875883
O O4 0.480863 0.379922 0.948191
O O5 0.438340 0.750000 0.750000
O O6 0.464878 0.726569 0.570109
O O7 0.640766 0.635506 0.678649
O O8 0.384353 0.547115 0.660537
O O9 0.798220 0.763798 0.572387
O O10 0.835092 0.750000 0.750000
O O11 0.926938 0.901625 0.853302
#
# Coordination Sequence:
#
# PCOD9409366 Si02
#       5
#     8   8   8   8   8
#     4  10  22  41  71  94 132 172 217 277 334 393
#     4  11  25  40  65  96 133 176 224 271 321 401
#     4  11  21  42  66 100 131 166 224 274 326 396
#     4  10  19  40  69  94 129 172 217 272 333 393
#     4  10  21  43  66  94 134 175 213 273 344 383
#
# _framework density 24.522389
#
# number of rings (size 3 to 8) (size 9 to 14) (size 15 to 20)
#    0.000    1.600    6.000    0.600    2.800    4.000 
#    7.200    1.000    8.800    0.000    0.000    0.000 
#    0.000    0.000    0.000    0.000    0.000    0.000 
#
# Total GULP energy -223512.405538 kJ/mol
# GULP energy per Si atom -5587.810138 kJ/mol
# Density = 2.446657 g / cm^3
# Si number density = 24.522389 Si / 1000 Ang^3
#
#
#
# Elastic Constant Matrix: (Units=GPa)
#
#
# Indices 1 2 3 4 5 6 
#
# 1 99.5657 3.1405 5.7890 0.0000 0.0000 0.0000
# 2 3.1405 80.1753 -2.7063 0.0000 0.0000 0.0000
# 3 5.7890 -2.7063 110.5393 0.0000 0.0000 0.0000
# 4 0.0000 0.0000 0.0000 9.6061 0.0000 0.0000
# 5 0.0000 0.0000 0.0000 0.0000 61.0757 0.0000
# 6 0.0000 0.0000 0.0000 0.0000 0.0000 21.9438
#
#
#
# Elastic Compliance Matrix: (Units=1/GPa)
#
#
# Indices 1 2 3 4 5 6 
#
# 1 0.010088 -0.000413 -0.000538 0.000000 0.000000 0.000000
# 2 -0.000413 0.012500 0.000328 0.000000 0.000000 0.000000
# 3 -0.000538 0.000328 0.009083 0.000000 0.000000 0.000000
# 4 0.000000 0.000000 0.000000 0.104100 0.000000 0.000000
# 5 0.000000 0.000000 0.000000 0.000000 0.016373 0.000000
# 6 0.000000 0.000000 0.000000 0.000000 0.000000 0.045571
#
#
# Mechanical properties :
#
#
# Convention : Reuss Voigt Hill
#
# Bulk Modulus (GPa) = 32.87041 33.63630 33.25335
# Shear Modulus (GPa) = 23.91152 37.46225 30.68689
#
# Velocity S-wave (km/s) = 3.12603 3.91279 3.54133
# Velocity P-wave (km/s) = 5.14420 5.84462 5.50556
#
# Compressibility (1/GPa) = 0.03042250
#
# Stress axis : x y z
#
# Youngs Moduli (GPa) = 99.12807 80.00054 110.09845
#
# Poissons Ratio (x) = 0.03307 0.05928
# Poissons Ratio (y) = 0.04097 -0.03608
# Poissons Ratio (z) = 0.05337 -0.02621
#
# Static dielectric constant tensor:
#      x y z
#    x 2.018790 0.000000 0.000000 
#    y 0.000000 2.043420 0.000000 
#    z 0.000000 0.000000 1.855840 
# 
# From -- ./inp_files/25839.got.cif
#   From: 2010.05.17/outbox.cif.g08.bks.cpg/sg52_13_cif.got.tgz:25839.got - 2010.06.03 12:15:38.
