data_PCOD9409573
_publ_section_title
;
Structure prediction by ZEFSAII (Michael W. Deem and Ramdas Pophale) SiO2 
 PCOD9409573
Probable space group: P N N A
;
_chemical_formula_sum "Si O2"
_cell_formula_units_Z 60
_cell_length_a 9.495626
_cell_length_b 17.880872
_cell_length_c 18.575911
_cell_angle_alpha 90.000000
_cell_angle_beta 90.000000
_cell_angle_gamma 90.000000
_cell_volume 3154.005286
_symmetry_space_group_name_H-M "P N N A"
_symmetry_group_IT_number 52
_symmetry_cell_setting 'orthorhombic'
loop_
_space_group_symop_operation_xyz
x,y,z
1/2-x,-y,z
x,1/2-y,1/2-z
1/2-x,1/2+y,1/2-z
-x,-y,-z
1/2+x,y,-z
-x,1/2+y,1/2+z
1/2+x,1/2-y,1/2+z
loop_
_atom_site_type_symbol
_atom_site_label
_atom_site_fract_x
_atom_site_fract_y
_atom_site_fract_z
Si Si1 0.364949 0.939037 0.072906
Si Si2 0.978745 0.577125 0.956449
Si Si3 0.175717 0.677025 0.375154
Si Si4 0.180253 0.885824 0.274675
Si Si5 0.750000 0.000000 0.205414
Si Si6 0.819763 0.340882 0.936890
Si Si7 0.976200 0.541517 0.789188
Si Si8 0.923832 0.934186 0.087453
O O1 0.324610 0.865152 0.114373
O O2 0.250000 0.000000 0.096291
O O3 0.510235 0.981762 0.084499
O O4 0.348291 0.923079 0.988435
O O5 0.824148 0.614634 0.954742
O O6 0.006896 0.553701 0.873852
O O7 0.000000 0.500000 0.000000
O O8 0.076654 0.636241 0.998634
O O9 0.148886 0.672806 0.289031
O O10 0.187544 0.752631 0.420613
O O11 0.049354 0.625515 0.406286
O O12 0.136808 0.867249 0.356435
O O13 0.348950 0.900443 0.274080
O O14 0.097189 0.963642 0.263682
O O15 0.626375 0.960544 0.250474
O O16 0.821170 0.937377 0.154587
#
# Coordination Sequence:
#
# PCOD9409573 Si02
#       8
#     8   8   8   8   4   8   8   8
#     4   9  19  35  55  81 120 169 207 248 295 382
#     4  11  23  44  66  94 123 166 220 279 318 392
#     4  11  22  37  62  89 128 164 211 265 320 404
#     4  10  20  42  60  91 121 171 214 263 320 404
#     4  12  20  34  58 104 120 156 204 278 322 362
#     4  11  25  40  66  93 126 168 212 270 345 383
#     4  10  22  35  65  94 125 160 221 266 324 371
#     4  10  20  34  56  90 126 164 212 251 316 381
#
# _framework density 19.023430000000001
#
# number of rings (size 3 to 8) (size 9 to 14) (size 15 to 20)
#    0.000    1.600    3.333    1.600    7.467    0.000 
#    0.000    0.000    0.000    0.000    3.467    0.000 
#    0.000    0.000    0.000    0.000    0.000    0.000 
#
# Total GULP energy -334098.530867 kJ/mol
# GULP energy per Si atom -5568.308848 kJ/mol
# Density = 1.898013 g / cm^3
# Si number density = 19.023430 Si / 1000 Ang^3
#
#
#
# Elastic Constant Matrix: (Units=GPa)
#
#
# Indices 1 2 3 4 5 6 
#
# 1 48.2562 7.7629 35.7483 0.0000 0.0000 0.0000
# 2 7.7629 82.2002 32.7701 0.0000 0.0000 0.0000
# 3 35.7483 32.7701 125.9882 0.0000 0.0000 0.0000
# 4 0.0000 0.0000 0.0000 20.0679 0.0000 0.0000
# 5 0.0000 0.0000 0.0000 0.0000 35.9609 0.0000
# 6 0.0000 0.0000 0.0000 0.0000 0.0000 13.1771
#
#
#
# Elastic Compliance Matrix: (Units=1/GPa)
#
#
# Indices 1 2 3 4 5 6 
#
# 1 0.026260 0.000547 -0.007593 0.000000 0.000000 0.000000
# 2 0.000547 0.013584 -0.003689 0.000000 0.000000 0.000000
# 3 -0.007593 -0.003689 0.011051 0.000000 0.000000 0.000000
# 4 0.000000 0.000000 0.000000 0.049831 0.000000 0.000000
# 5 0.000000 0.000000 0.000000 0.000000 0.027808 0.000000
# 6 0.000000 0.000000 0.000000 0.000000 0.000000 0.075889
#
#
# Mechanical properties :
#
#
# Convention : Reuss Voigt Hill
#
# Bulk Modulus (GPa) = 33.98367 45.44523 39.71445
# Shear Modulus (GPa) = 21.21326 25.85207 23.53267
#
# Velocity S-wave (km/s) = 3.34295 3.69041 3.52097
# Velocity P-wave (km/s) = 5.72742 6.48843 6.11977
#
# Compressibility (1/GPa) = 0.02942590
#
# Stress axis : x y z
#
# Youngs Moduli (GPa) = 38.08083 73.61469 90.48745
#
# Poissons Ratio (x) = -0.04029 0.68711
# Poissons Ratio (y) = -0.02084 0.33377
# Poissons Ratio (z) = 0.28916 0.27154
#
# Static dielectric constant tensor:
#      x y z
#    x 1.703010 0.000000 0.000000 
#    y 0.000000 1.794500 0.000000 
#    z 0.000000 0.000000 1.712990 
# 
# From -- ./inp_files/31490.got.cif
#   From: 2010.05.17/outbox.cif.g08.bks.cpg/sg52_16_cif.got.tgz:31490.got - 2010.06.03 12:15:38.
