data_PCOD9409937
_publ_section_title
;
Structure prediction by ZEFSAII (Michael W. Deem and Ramdas Pophale) SiO2 
 PCOD9409937
Probable space group: P N N A
;
_chemical_formula_sum "Si O2"
_cell_formula_units_Z 48
_cell_length_a 7.431243
_cell_length_b 17.828608
_cell_length_c 16.932591
_cell_angle_alpha 90.000000
_cell_angle_beta 90.000000
_cell_angle_gamma 90.000000
_cell_volume 2243.377281
_symmetry_space_group_name_H-M "P N N A"
_symmetry_group_IT_number 52
_symmetry_cell_setting 'orthorhombic'
loop_
_space_group_symop_operation_xyz
x,y,z
1/2-x,-y,z
x,1/2-y,1/2-z
1/2-x,1/2+y,1/2-z
-x,-y,-z
1/2+x,y,-z
-x,1/2+y,1/2+z
1/2+x,1/2-y,1/2+z
loop_
_atom_site_type_symbol
_atom_site_label
_atom_site_fract_x
_atom_site_fract_y
_atom_site_fract_z
Si Si1 0.537592 0.109939 0.119545
Si Si2 0.528442 0.717731 0.883497
Si Si3 0.628673 0.173063 0.700915
Si Si4 0.064118 0.614387 0.550983
Si Si5 0.112683 0.785245 0.561402
Si Si6 0.560315 0.032099 0.803707
O O1 0.461531 0.192846 0.138227
O O2 0.739195 0.113755 0.088006
O O3 0.547001 0.045811 0.185896
O O4 0.434451 0.088080 0.038826
O O5 0.656744 0.674734 0.820722
O O6 0.312204 0.708708 0.898926
O O7 0.614290 0.696348 0.968699
O O8 0.592738 0.250000 0.750000
O O9 0.521551 0.172288 0.618734
O O10 0.540905 0.104402 0.749119
O O11 0.021189 0.702187 0.555642
O O12 0.941816 0.566814 0.608640
O O13 0.750000 0.000000 0.779458
#
# Coordination Sequence:
#
# PCOD9409937 Si02
#       6
#     8   8   8   8   8   8
#     4  10  21  36  63  94 131 171 218 258 325 408
#     4  10  21  40  70 100 124 174 226 274 336 402
#     4  12  24  41  64  94 139 173 219 286 335 384
#     4  10  20  37  62  93 131 174 210 264 321 406
#     4  10  20  40  70  99 129 169 228 278 334 396
#     4  12  24  39  56  86 134 175 210 258 330 386
#
# _framework density 21.396311000000001
#
# number of rings (size 3 to 8) (size 9 to 14) (size 15 to 20)
#    0.000    1.333    3.333    3.000    2.333    0.667 
#    6.000    0.000    0.000    1.000    0.000    0.000 
#    0.000    0.000    0.000    0.000    0.000    0.000 
#
# Total GULP energy -267273.801442 kJ/mol
# GULP energy per Si atom -5568.204197 kJ/mol
# Density = 2.134761 g / cm^3
# Si number density = 21.396311 Si / 1000 Ang^3
#
#
#
# Elastic Constant Matrix: (Units=GPa)
#
#
# Indices 1 2 3 4 5 6 
#
# 1 77.1258 4.9363 10.2754 0.0000 0.0000 0.0000
# 2 4.9363 74.6179 45.3977 0.0000 0.0000 0.0000
# 3 10.2754 45.3977 80.8000 0.0000 0.0000 0.0000
# 4 0.0000 0.0000 0.0000 37.7006 0.0000 0.0000
# 5 0.0000 0.0000 0.0000 0.0000 23.7973 0.0000
# 6 0.0000 0.0000 0.0000 0.0000 0.0000 27.2631
#
#
#
# Elastic Compliance Matrix: (Units=1/GPa)
#
#
# Indices 1 2 3 4 5 6 
#
# 1 0.013192 0.000225 -0.001804 0.000000 0.000000 0.000000
# 2 0.000225 0.020366 -0.011471 0.000000 0.000000 0.000000
# 3 -0.001804 -0.011471 0.019051 0.000000 0.000000 0.000000
# 4 0.000000 0.000000 0.000000 0.026525 0.000000 0.000000
# 5 0.000000 0.000000 0.000000 0.000000 0.042022 0.000000
# 6 0.000000 0.000000 0.000000 0.000000 0.000000 0.036680
#
#
# Mechanical properties :
#
#
# Convention : Reuss Voigt Hill
#
# Bulk Modulus (GPa) = 37.72475 39.30692 38.51583
# Shear Modulus (GPa) = 25.93753 29.21448 27.57601
#
# Velocity S-wave (km/s) = 3.48551 3.69914 3.59391
# Velocity P-wave (km/s) = 5.81962 6.05439 5.93817
#
# Compressibility (1/GPa) = 0.02650780
#
# Stress axis : x y z
#
# Youngs Moduli (GPa) = 75.80477 49.10184 52.49133
#
# Poissons Ratio (x) = -0.01104 0.09469
# Poissons Ratio (y) = -0.01704 0.60214
# Poissons Ratio (z) = 0.13675 0.56326
#
# Static dielectric constant tensor:
#      x y z
#    x 1.876970 0.000000 0.000000 
#    y 0.000000 1.725810 0.000000 
#    z 0.000000 0.000000 1.803090 
# 
# From -- ./inp_files/31348.got.cif
#   From: 2010.05.17/outbox.cif.g08.bks.cpg/sg52_16_cif.got.tgz:31348.got - 2010.06.03 12:15:38.
