data_PCOD9409658
_publ_section_title
;
Structure prediction by ZEFSAII (Michael W. Deem and Ramdas Pophale) SiO2 
 PCOD9409658
Probable space group: P N N A
;
_chemical_formula_sum "Si O2"
_cell_formula_units_Z 40
_cell_length_a 8.875989
_cell_length_b 17.349624
_cell_length_c 13.811858
_cell_angle_alpha 90.000000
_cell_angle_beta 90.000000
_cell_angle_gamma 90.000000
_cell_volume 2126.958064
_symmetry_space_group_name_H-M "P N N A"
_symmetry_group_IT_number 52
_symmetry_cell_setting 'orthorhombic'
loop_
_space_group_symop_operation_xyz
x,y,z
1/2-x,-y,z
x,1/2-y,1/2-z
1/2-x,1/2+y,1/2-z
-x,-y,-z
1/2+x,y,-z
-x,1/2+y,1/2+z
1/2+x,1/2-y,1/2+z
loop_
_atom_site_type_symbol
_atom_site_label
_atom_site_fract_x
_atom_site_fract_y
_atom_site_fract_z
Si Si1 0.651465 0.920728 0.257732
Si Si2 0.990975 0.319429 0.603843
Si Si3 0.287258 0.089236 0.957672
Si Si4 0.942604 0.839769 0.322749
Si Si5 0.429771 0.499645 0.106122
O O1 0.617121 0.910313 0.143349
O O2 0.764907 0.854888 0.298560
O O3 0.750000 0.000000 0.261474
O O4 0.507253 0.935795 0.325162
O O5 0.133920 0.369645 0.572882
O O6 0.027356 0.228085 0.599994
O O7 0.977775 0.327418 0.719169
O O8 0.860269 0.358368 0.541003
O O9 0.250000 0.000000 0.984581
O O10 0.014077 0.918174 0.356371
O O11 0.250000 0.500000 0.104438
O O12 0.500000 0.500000 0.000000
#
# Coordination Sequence:
#
# PCOD9409658 Si02
#       5
#     8   8   8   8   8
#     4   8  17  36  57  79 111 147 185 226 271 327
#     4  10  21  36  58  81 112 148 180 231 283 329
#     4  10  20  35  57  84 110 144 186 229 280 334
#     4   9  20  39  55  79 114 148 185 224 277 332
#     4  11  22  36  59  84 109 147 187 229 271 323
#
# _framework density 18.806201000000001
#
# number of rings (size 3 to 8) (size 9 to 14) (size 15 to 20)
#    0.000    2.400    0.000    3.600    0.000    5.600 
#    0.000    0.000    0.000    4.800    0.000    0.000 
#    0.000    0.000    0.000    0.000    0.000    0.000 
#
# Total GULP energy -222678.635871 kJ/mol
# GULP energy per Si atom -5566.965897 kJ/mol
# Density = 1.876340 g / cm^3
# Si number density = 18.806201 Si / 1000 Ang^3
#
#
#
# Elastic Constant Matrix: (Units=GPa)
#
#
# Indices 1 2 3 4 5 6 
#
# 1 52.8744 22.5724 41.9029 0.0000 0.0000 0.0000
# 2 22.5724 102.2623 37.5519 0.0000 0.0000 0.0000
# 3 41.9029 37.5519 80.1147 0.0000 0.0000 0.0000
# 4 0.0000 0.0000 0.0000 115.4666 0.0000 0.0000
# 5 0.0000 0.0000 0.0000 0.0000 20.7289 0.0000
# 6 0.0000 0.0000 0.0000 0.0000 0.0000 11.5788
#
#
#
# Elastic Compliance Matrix: (Units=1/GPa)
#
#
# Indices 1 2 3 4 5 6 
#
# 1 0.032408 -0.001122 -0.016425 0.000000 0.000000 0.000000
# 2 -0.001122 0.011851 -0.004968 0.000000 0.000000 0.000000
# 3 -0.016425 -0.004968 0.023401 0.000000 0.000000 0.000000
# 4 0.000000 0.000000 0.000000 0.008661 0.000000 0.000000
# 5 0.000000 0.000000 0.000000 0.000000 0.048242 0.000000
# 6 0.000000 0.000000 0.000000 0.000000 0.000000 0.086365
#
#
# Mechanical properties :
#
#
# Convention : Reuss Voigt Hill
#
# Bulk Modulus (GPa) = 44.18716 48.81176 46.49946
# Shear Modulus (GPa) = 18.97528 38.43648 28.70588
#
# Velocity S-wave (km/s) = 3.17991 4.52577 3.91116
# Velocity P-wave (km/s) = 6.08519 7.30216 6.72127
#
# Compressibility (1/GPa) = 0.02263101
#
# Stress axis : x y z
#
# Youngs Moduli (GPa) = 30.85617 84.38317 42.73247
#
# Poissons Ratio (x) = 0.09469 0.70187
# Poissons Ratio (y) = 0.03463 0.21229
# Poissons Ratio (z) = 0.50681 0.41920
#
# Static dielectric constant tensor:
#      x y z
#    x 1.658050 0.000000 0.000000 
#    y 0.000000 2.407890 0.000000 
#    z 0.000000 0.000000 1.646030 
# 
# From -- ./inp_files/16656.got.cif
#   From: 2010.05.17/outbox.cif.g08.bks.cpg/sg52_9_cif.got.tgz:16656.got - 2010.06.03 12:15:38.
