data_PCOD9409059
_publ_section_title
;
Structure prediction by ZEFSAII (Michael W. Deem and Ramdas Pophale) SiO2 
 PCOD9409059
Probable space group: P N N A
;
_chemical_formula_sum "Si O2"
_cell_formula_units_Z 40
_cell_length_a 22.287034
_cell_length_b 5.989567
_cell_length_c 13.308452
_cell_angle_alpha 90.000000
_cell_angle_beta 90.000000
_cell_angle_gamma 90.000000
_cell_volume 1776.541044
_symmetry_space_group_name_H-M "P N N A"
_symmetry_group_IT_number 52
_symmetry_cell_setting 'orthorhombic'
loop_
_space_group_symop_operation_xyz
x,y,z
1/2-x,-y,z
x,1/2-y,1/2-z
1/2-x,1/2+y,1/2-z
-x,-y,-z
1/2+x,y,-z
-x,1/2+y,1/2+z
1/2+x,1/2-y,1/2+z
loop_
_atom_site_type_symbol
_atom_site_label
_atom_site_fract_x
_atom_site_fract_y
_atom_site_fract_z
Si Si1 0.634317 0.772492 0.407245
Si Si2 0.750000 0.500000 0.097826
Si Si3 0.992023 0.400033 0.387556
Si Si4 0.903920 0.569375 0.909189
Si Si5 0.438308 0.250000 0.250000
Si Si6 0.194199 0.112466 0.043481
O O1 0.576204 0.657941 0.359021
O O2 0.662863 0.575299 0.474996
O O3 0.690689 0.891309 0.350894
O O4 0.606629 0.961107 0.481784
O O5 0.776935 0.696572 0.028097
O O6 0.000000 0.500000 0.500000
O O7 0.031062 0.175102 0.392500
O O8 0.020866 0.575655 0.311229
O O9 0.897265 0.375309 0.829640
O O10 0.856539 0.766284 0.893423
O O11 0.250000 0.000000 0.099418
#
# Coordination Sequence:
#
# PCOD9409059 Si02
#       6
#     8   4   8   8   4   8
#     4  10  19  35  61  90 124 159 207 262 320 387
#     4   8  18  30  56  92 122 152 208 258 304 378
#     4  12  23  39  61  92 128 165 209 267 335 392
#     4  11  21  38  58  92 129 163 206 265 321 386
#     4  12  26  36  56  94 128 170 212 258 336 404
#     4   9  17  33  57  93 118 162 212 251 305 374
#
# _framework density 22.515664999999998
#
# number of rings (size 3 to 8) (size 9 to 14) (size 15 to 20)
#    0.000    1.600    4.000    1.200    0.000    0.000 
#    0.000    0.000    0.000    0.000  418.600    0.000 
#  135.000    0.000    0.000    0.000    0.000    0.000 
#
# Total GULP energy -223354.905930 kJ/mol
# GULP energy per Si atom -5583.872648 kJ/mol
# Density = 2.246442 g / cm^3
# Si number density = 22.515665 Si / 1000 Ang^3
#
#
#
# Elastic Constant Matrix: (Units=GPa)
#
#
# Indices 1 2 3 4 5 6 
#
# 1 146.6208 37.5435 -1.6046 0.0000 0.0000 0.0000
# 2 37.5435 88.3273 6.1672 0.0000 0.0000 0.0000
# 3 -1.6046 6.1672 47.9769 0.0000 0.0000 0.0000
# 4 0.0000 0.0000 0.0000 30.3451 0.0000 0.0000
# 5 0.0000 0.0000 0.0000 0.0000 -4.2823 0.0000
# 6 0.0000 0.0000 0.0000 0.0000 0.0000 50.9364
#
#
#
# Elastic Compliance Matrix: (Units=1/GPa)
#
#
# Indices 1 2 3 4 5 6 
#
# 1 0.007675 -0.003310 0.000682 0.000000 0.000000 0.000000
# 2 -0.003310 0.012852 -0.001763 0.000000 0.000000 0.000000
# 3 0.000682 -0.001763 0.021093 0.000000 0.000000 0.000000
# 4 0.000000 0.000000 0.000000 0.032954 0.000000 0.000000
# 5 0.000000 0.000000 0.000000 0.000000 -0.233517 0.000000
# 6 0.000000 0.000000 0.000000 0.000000 0.000000 0.019632
#
#
# Mechanical properties :
#
#
# Convention : Reuss Voigt Hill
#
# Bulk Modulus (GPa) = 30.45203 40.79304 35.62253
# Shear Modulus (GPa) = -41.81185 31.45443 -5.17871
#
# Velocity S-wave (km/s) = -4.31398 3.74170 -1.51824
# Velocity P-wave (km/s) = 3.35555 6.06829 3.57522
#
# Compressibility (1/GPa) = 0.03283854
#
# Stress axis : x y z
#
# Youngs Moduli (GPa) = 130.28733 77.81171 47.40958
#
# Poissons Ratio (x) = 0.25756 -0.03234
# Poissons Ratio (y) = 0.43126 0.08357
# Poissons Ratio (z) = -0.08888 0.13716
#
# Static dielectric constant tensor:
#      x y z
#    x 1.879360 0.000000 0.000000 
#    y 0.000000 1.844900 0.000000 
#    z 0.000000 0.000000 1.807710 
# 
# From -- ./inp_files/29052.got.cif
#   From: 2010.05.17/outbox.cif.g08.bks.cpg/sg52_15_cif.got.tgz:29052.got - 2010.06.03 12:15:38.
