data_PCOD9409211
_publ_section_title
;
Structure prediction by ZEFSAII (Michael W. Deem and Ramdas Pophale) SiO2 
 PCOD9409211
Probable space group: P N N A
;
_chemical_formula_sum "Si O2"
_cell_formula_units_Z 48
_cell_length_a 5.151605
_cell_length_b 26.022461
_cell_length_c 14.587991
_cell_angle_alpha 90.000000
_cell_angle_beta 90.000000
_cell_angle_gamma 90.000000
_cell_volume 1955.628731
_symmetry_space_group_name_H-M "P N N A"
_symmetry_group_IT_number 52
_symmetry_cell_setting 'orthorhombic'
loop_
_space_group_symop_operation_xyz
x,y,z
1/2-x,-y,z
x,1/2-y,1/2-z
1/2-x,1/2+y,1/2-z
-x,-y,-z
1/2+x,y,-z
-x,1/2+y,1/2+z
1/2+x,1/2-y,1/2+z
loop_
_atom_site_type_symbol
_atom_site_label
_atom_site_fract_x
_atom_site_fract_y
_atom_site_fract_z
Si Si1 0.746892 0.115817 0.530578
Si Si2 0.222992 0.250000 0.750000
Si Si3 0.513209 0.645070 0.690599
Si Si4 0.750000 0.500000 0.700111
Si Si5 0.148215 0.768310 0.545981
Si Si6 0.503615 0.599195 0.226114
Si Si7 0.068618 0.433865 0.554734
O O1 0.530535 0.090594 0.465311
O O2 0.816784 0.173012 0.493101
O O3 0.605061 0.114806 0.627367
O O4 0.047321 0.297213 0.717589
O O5 0.372234 0.233890 0.656193
O O6 0.813235 0.631789 0.707578
O O7 0.449461 0.624492 0.589783
O O8 0.300632 0.613541 0.753038
O O9 0.576170 0.459679 0.756272
O O10 0.945587 0.467025 0.636747
O O11 0.409391 0.743881 0.506913
O O12 0.864785 0.443629 0.472769
#
# Coordination Sequence:
#
# PCOD9409211 Si02
#       7
#     8   4   8   4   8   8   8
#     4  10  19  37  62  87 123 166 208 264 330 393
#     4  12  26  44  72 102 138 190 240 288 348 418
#     4  11  25  41  64  96 135 178 224 279 338 405
#     4  10  24  42  72 100 130 182 230 282 356 430
#     4  10  22  39  62  92 127 174 225 276 336 403
#     4  11  23  44  66  97 132 169 224 281 341 417
#     4  11  23  42  66  98 138 177 225 288 353 422
#
# _framework density 24.544537999999999
#
# number of rings (size 3 to 8) (size 9 to 14) (size 15 to 20)
#    0.000    1.333    0.000    7.500    0.000    9.333 
#    0.000    0.833    0.000    0.000    0.000    0.000 
#    0.000    0.000    0.000    0.000    0.000    0.000 
#
# Total GULP energy -268177.333344 kJ/mol
# GULP energy per Si atom -5587.027778 kJ/mol
# Density = 2.448867 g / cm^3
# Si number density = 24.544538 Si / 1000 Ang^3
#
#
#
# Elastic Constant Matrix: (Units=GPa)
#
#
# Indices 1 2 3 4 5 6 
#
# 1 137.2105 1.0792 11.8239 0.0000 0.0000 0.0000
# 2 1.0792 120.2775 23.9977 0.0000 0.0000 0.0000
# 3 11.8239 23.9977 91.9243 0.0000 0.0000 0.0000
# 4 0.0000 0.0000 0.0000 48.3990 0.0000 0.0000
# 5 0.0000 0.0000 0.0000 0.0000 30.7570 0.0000
# 6 0.0000 0.0000 0.0000 0.0000 0.0000 -7.7747
#
#
#
# Elastic Compliance Matrix: (Units=1/GPa)
#
#
# Indices 1 2 3 4 5 6 
#
# 1 0.007372 0.000130 -0.000982 0.000000 0.000000 0.000000
# 2 0.000130 0.008773 -0.002307 0.000000 0.000000 0.000000
# 3 -0.000982 -0.002307 0.011607 0.000000 0.000000 0.000000
# 4 0.000000 0.000000 0.000000 0.020662 0.000000 0.000000
# 5 0.000000 0.000000 0.000000 0.000000 0.032513 0.000000
# 6 0.000000 0.000000 0.000000 0.000000 0.000000 -0.128622
#
#
# Mechanical properties :
#
#
# Convention : Reuss Voigt Hill
#
# Bulk Modulus (GPa) = 46.65612 47.02376 46.83994
# Shear Modulus (GPa) = -146.05977 35.11039 -55.47469
#
# Velocity S-wave (km/s) = -7.72252 3.78627 -4.75928
# Velocity P-wave (km/s) = 7.77601 6.18988 3.32804
#
# Compressibility (1/GPa) = 0.02143341
#
# Stress axis : x y z
#
# Youngs Moduli (GPa) = 135.65433 113.98301 86.15414
#
# Poissons Ratio (x) = -0.01480 0.08461
# Poissons Ratio (y) = -0.01761 0.19876
# Poissons Ratio (z) = 0.13322 0.26296
#
# Static dielectric constant tensor:
#      x y z
#    x 2.121070 0.000000 0.000000 
#    y 0.000000 2.086760 0.000000 
#    z 0.000000 0.000000 2.040840 
# 
# From -- ./inp_files/23719.got.cif
#   From: 2010.05.17/outbox.cif.g08.bks.cpg/sg52_12_cif.got.tgz:23719.got - 2010.06.03 12:15:38.
