data_PCOD9409364
_publ_section_title
;
Structure prediction by ZEFSAII (Michael W. Deem and Ramdas Pophale) SiO2 
 PCOD9409364
Probable space group: P N N A
;
_chemical_formula_sum "Si O2"
_cell_formula_units_Z 48
_cell_length_a 16.214922
_cell_length_b 7.303583
_cell_length_c 16.110280
_cell_angle_alpha 90.000000
_cell_angle_beta 90.000000
_cell_angle_gamma 90.000000
_cell_volume 1907.892591
_symmetry_space_group_name_H-M "P N N A"
_symmetry_group_IT_number 52
_symmetry_cell_setting 'orthorhombic'
loop_
_space_group_symop_operation_xyz
x,y,z
1/2-x,-y,z
x,1/2-y,1/2-z
1/2-x,1/2+y,1/2-z
-x,-y,-z
1/2+x,y,-z
-x,1/2+y,1/2+z
1/2+x,1/2-y,1/2+z
loop_
_atom_site_type_symbol
_atom_site_label
_atom_site_fract_x
_atom_site_fract_y
_atom_site_fract_z
Si Si1 0.636725 0.167016 0.407521
Si Si2 0.214234 0.710323 0.157514
Si Si3 0.311587 0.257275 0.848388
Si Si4 0.537748 0.859716 0.065517
Si Si5 0.616433 0.274133 0.893520
Si Si6 0.950225 0.163623 0.590652
O O1 0.716071 0.270298 0.370387
O O2 0.636234 0.203304 0.507254
O O3 0.542535 0.209451 0.377655
O O4 0.659477 0.957971 0.381479
O O5 0.250000 0.500000 0.142708
O O6 0.186450 0.750000 0.250000
O O7 0.301662 0.808338 0.144901
O O8 0.137078 0.770490 0.101561
O O9 0.322096 0.250000 0.750000
O O10 0.374740 0.119787 0.893558
O O11 0.463044 0.845608 0.128923
O O12 0.539600 0.675379 0.009024
O O13 0.500000 0.000000 0.000000
O O14 0.581919 0.475085 0.869918
#
# Coordination Sequence:
#
# PCOD9409364 Si02
#       6
#     8   8   8   8   8   8
#     4  10  20  41  68  84 120 176 225 248 298 417
#     4  10  23  38  61  93 128 162 210 265 319 376
#     4  11  23  40  62  94 132 168 209 271 336 379
#     4  11  22  40  64  99 124 159 214 277 320 373
#     4  10  19  40  69  87 118 176 222 251 309 395
#     4  10  19  41  66  88 115 174 228 247 305 397
#
# _framework density 25.158649
#
# number of rings (size 3 to 8) (size 9 to 14) (size 15 to 20)
#    0.000    1.667    3.333    2.000    4.667    2.667 
#   15.000    3.333    0.000    0.000    0.000    0.000 
#    0.000    0.000    0.000    0.000    0.000    0.000 
#
# Total GULP energy -267428.252906 kJ/mol
# GULP energy per Si atom -5571.421936 kJ/mol
# Density = 2.510139 g / cm^3
# Si number density = 25.158649 Si / 1000 Ang^3
#
#
#
# Elastic Constant Matrix: (Units=GPa)
#
#
# Indices 1 2 3 4 5 6 
#
# 1 289.1903 34.4707 38.3656 0.0000 0.0000 0.0000
# 2 34.4707 59.6416 -6.8710 0.0000 0.0000 0.0000
# 3 38.3656 -6.8710 66.3432 0.0000 0.0000 0.0000
# 4 0.0000 0.0000 0.0000 7.9136 0.0000 0.0000
# 5 0.0000 0.0000 0.0000 0.0000 -46.1562 0.0000
# 6 0.0000 0.0000 0.0000 0.0000 0.0000 36.8771
#
#
#
# Elastic Compliance Matrix: (Units=1/GPa)
#
#
# Indices 1 2 3 4 5 6 
#
# 1 0.004134 -0.002697 -0.002670 0.000000 0.000000 0.000000
# 2 -0.002697 0.018728 0.003499 0.000000 0.000000 0.000000
# 3 -0.002670 0.003499 0.016979 0.000000 0.000000 0.000000
# 4 0.000000 0.000000 0.000000 0.126365 0.000000 0.000000
# 5 0.000000 0.000000 0.000000 0.000000 -0.021666 0.000000
# 6 0.000000 0.000000 0.000000 0.000000 0.000000 0.027117
#
#
# Mechanical properties :
#
#
# Convention : Reuss Voigt Hill
#
# Bulk Modulus (GPa) = 27.69544 60.78950 44.24247
# Shear Modulus (GPa) = 26.67685 23.00754 24.84220
#
# Velocity S-wave (km/s) = 3.25983 3.02735 3.14574
# Velocity P-wave (km/s) = 5.02004 6.03612 5.55138
#
# Compressibility (1/GPa) = 0.03610703
#
# Stress axis : x y z
#
# Youngs Moduli (GPa) = 241.92413 53.39464 58.89505
#
# Poissons Ratio (x) = 0.14398 0.15723
# Poissons Ratio (y) = 0.65237 -0.20608
# Poissons Ratio (z) = 0.64585 -0.18683
#
# Static dielectric constant tensor:
#      x y z
#    x 2.118150 0.000000 0.000000 
#    y 0.000000 2.288910 0.000000 
#    z 0.000000 0.000000 1.916940 
# 
# From -- ./inp_files/33068.got.cif
#   From: 2010.05.17/outbox.cif.g08.bks.cpg/sg52_17_cif.got.tgz:33068.got - 2010.06.03 12:15:38.
