data_PCOD9409681
_publ_section_title
;
Structure prediction by ZEFSAII (Michael W. Deem and Ramdas Pophale) SiO2 
 PCOD9409681
Probable space group: P N N A
;
_chemical_formula_sum "Si O2"
_cell_formula_units_Z 48
_cell_length_a 16.262751
_cell_length_b 16.669826
_cell_length_c 8.067953
_cell_angle_alpha 90.000000
_cell_angle_beta 90.000000
_cell_angle_gamma 90.000000
_cell_volume 2187.199706
_symmetry_space_group_name_H-M "P N N A"
_symmetry_group_IT_number 52
_symmetry_cell_setting 'orthorhombic'
loop_
_space_group_symop_operation_xyz
x,y,z
1/2-x,-y,z
x,1/2-y,1/2-z
1/2-x,1/2+y,1/2-z
-x,-y,-z
1/2+x,y,-z
-x,1/2+y,1/2+z
1/2+x,1/2-y,1/2+z
loop_
_atom_site_type_symbol
_atom_site_label
_atom_site_fract_x
_atom_site_fract_y
_atom_site_fract_z
Si Si1 0.066977 0.428279 0.004072
Si Si2 0.146507 0.841128 0.887541
Si Si3 0.190876 0.077249 0.805816
Si Si4 0.678506 0.068170 0.821894
Si Si5 0.583280 0.659962 0.058757
Si Si6 0.828637 0.343449 0.742413
O O1 0.113604 0.438830 0.177304
O O2 0.010547 0.348254 0.006892
O O3 0.129456 0.421698 0.849133
O O4 0.000000 0.500000 0.000000
O O5 0.241308 0.851280 0.828271
O O6 0.117270 0.749713 0.913939
O O7 0.094815 0.879325 0.739095
O O8 0.136327 0.878633 0.070191
O O9 0.250000 0.000000 0.787456
O O10 0.149240 0.071351 0.987900
O O11 0.731686 0.147348 0.778670
O O12 0.750000 0.000000 0.808597
O O13 0.638447 0.621550 0.913933
O O14 0.851504 0.250000 0.750000
#
# Coordination Sequence:
#
# PCOD9409681 Si02
#       6
#     8   8   8   8   8   8
#     4  12  24  36  58  96 130 161 203 274 331 377
#     4   9  19  38  62  82 114 168 207 247 311 387
#     4  10  21  39  65  91 117 164 222 260 311 388
#     4  10  21  38  60  88 119 164 211 258 306 383
#     4  10  20  35  60  86 121 163 199 258 326 371
#     4   9  18  36  62  82 109 159 212 252 298 371
#
# _framework density 21.945868999999998
#
# number of rings (size 3 to 8) (size 9 to 14) (size 15 to 20)
#    0.000    2.000    0.000    3.500    0.000    2.000 
#    3.000    0.000   29.333    0.000    0.000    0.000 
#    0.000    0.000    0.000    0.000    0.000    0.000 
#
# Total GULP energy -267481.431644 kJ/mol
# GULP energy per Si atom -5572.529826 kJ/mol
# Density = 2.189592 g / cm^3
# Si number density = 21.945869 Si / 1000 Ang^3
#
#
#
# Elastic Constant Matrix: (Units=GPa)
#
#
# Indices 1 2 3 4 5 6 
#
# 1 102.8526 30.2786 104.0730 0.0000 0.0000 0.0000
# 2 30.2786 63.9865 22.7858 0.0000 0.0000 0.0000
# 3 104.0730 22.7858 242.5289 0.0000 0.0000 0.0000
# 4 0.0000 0.0000 0.0000 12.5997 0.0000 0.0000
# 5 0.0000 0.0000 0.0000 0.0000 -21.0596 0.0000
# 6 0.0000 0.0000 0.0000 0.0000 0.0000 29.2774
#
#
#
# Elastic Compliance Matrix: (Units=1/GPa)
#
#
# Indices 1 2 3 4 5 6 
#
# 1 0.019456 -0.006449 -0.007743 0.000000 0.000000 0.000000
# 2 -0.006449 0.018307 0.001048 0.000000 0.000000 0.000000
# 3 -0.007743 0.001048 0.007347 0.000000 0.000000 0.000000
# 4 0.000000 0.000000 0.000000 0.079367 0.000000 0.000000
# 5 0.000000 0.000000 0.000000 0.000000 -0.047484 0.000000
# 6 0.000000 0.000000 0.000000 0.000000 0.000000 0.034156
#
#
# Mechanical properties :
#
#
# Convention : Reuss Voigt Hill
#
# Bulk Modulus (GPa) = 53.13202 80.40476 66.76839
# Shear Modulus (GPa) = 34.79155 20.97887 27.88521
#
# Velocity S-wave (km/s) = 3.98595 3.09518 3.56847
# Velocity P-wave (km/s) = 6.74142 7.03497 6.88976
#
# Compressibility (1/GPa) = 0.01882104
#
# Stress axis : x y z
#
# Youngs Moduli (GPa) = 51.39751 54.62352 136.10147
#
# Poissons Ratio (x) = 0.35229 1.05384
# Poissons Ratio (y) = 0.33148 -0.14258
# Poissons Ratio (z) = 0.39797 -0.05722
#
# Static dielectric constant tensor:
#      x y z
#    x 1.786220 0.000000 0.000000 
#    y 0.000000 1.999320 0.000000 
#    z 0.000000 0.000000 1.887820 
# 
# From -- ./inp_files/10635.got.cif
#   From: 2010.05.17/outbox.cif.g08.bks.cpg/sg52_6_cif.got.tgz:10635.got - 2010.06.03 12:15:38.
