data_PCOD9409160
_publ_section_title
;
Structure prediction by ZEFSAII (Michael W. Deem and Ramdas Pophale) SiO2 
 PCOD9409160
Probable space group: P N N A
;
_chemical_formula_sum "Si O2"
_cell_formula_units_Z 64
_cell_length_a 15.108123
_cell_length_b 20.566741
_cell_length_c 9.591566
_cell_angle_alpha 90.000000
_cell_angle_beta 90.000000
_cell_angle_gamma 90.000000
_cell_volume 2980.337933
_symmetry_space_group_name_H-M "P N N A"
_symmetry_group_IT_number 52
_symmetry_cell_setting 'orthorhombic'
loop_
_space_group_symop_operation_xyz
x,y,z
1/2-x,-y,z
x,1/2-y,1/2-z
1/2-x,1/2+y,1/2-z
-x,-y,-z
1/2+x,y,-z
-x,1/2+y,1/2+z
1/2+x,1/2-y,1/2+z
loop_
_atom_site_type_symbol
_atom_site_label
_atom_site_fract_x
_atom_site_fract_y
_atom_site_fract_z
Si Si1 0.398756 0.883020 0.481374
Si Si2 0.118485 0.628336 0.266723
Si Si3 0.913858 0.630229 0.567507
Si Si4 0.453876 0.326783 0.771503
Si Si5 0.300826 0.168853 0.525404
Si Si6 0.752867 0.709731 0.609971
Si Si7 0.938232 0.675519 0.273064
Si Si8 0.144870 0.014598 0.263973
O O1 0.466468 0.844467 0.380079
O O2 0.297199 0.858776 0.496100
O O3 0.432742 0.868171 0.635540
O O4 0.389971 0.953314 0.408275
O O5 0.200088 0.643515 0.368125
O O6 0.096851 0.552606 0.271873
O O7 0.041834 0.677709 0.308961
O O8 0.144344 0.644052 0.107697
O O9 0.012476 0.640101 0.628347
O O10 0.855682 0.693060 0.611102
O O11 0.900106 0.635368 0.402497
O O12 0.875376 0.567405 0.644638
O O13 0.450260 0.250000 0.750000
O O14 0.360042 0.347616 0.840057
O O15 0.283702 0.246432 0.514374
O O16 0.734271 0.750000 0.750000
O O17 0.905518 0.750000 0.250000
O O18 0.250000 0.000000 0.276335
#
# Coordination Sequence:
#
# PCOD9409160 Si02
#       8
#     8   8   8   8   8   8   8   8
#     4  11  24  43  69  99 130 183 229 283 341 397
#     4  11  22  39  69  91 128 182 224 270 338 400
#     4  11  24  41  68  98 136 182 219 277 345 409
#     4  11  22  39  64  98 134 177 221 278 338 412
#     4  11  21  37  65 101 132 169 233 286 340 403
#     4  10  19  36  64  97 126 173 227 272 338 401
#     4  12  25  43  65 102 144 172 214 290 361 401
#     4  11  21  46  72  94 130 181 244 275 318 416
#
# _framework density 21.474073000000001
#
# number of rings (size 3 to 8) (size 9 to 14) (size 15 to 20)
#    0.000    1.000    3.750    6.000    1.750    2.500 
#    0.000    0.625    0.000    0.000    0.000    0.000 
#    0.000    0.000    0.000    0.000    0.000    0.000 
#
# Total GULP energy -356869.034360 kJ/mol
# GULP energy per Si atom -5576.078662 kJ/mol
# Density = 2.142520 g / cm^3
# Si number density = 21.474073 Si / 1000 Ang^3
#
#
#
# Elastic Constant Matrix: (Units=GPa)
#
#
# Indices 1 2 3 4 5 6 
#
# 1 56.0988 1.7036 -1.7467 0.0000 0.0000 0.0000
# 2 1.7036 88.9113 15.7397 0.0000 0.0000 0.0000
# 3 -1.7467 15.7397 89.6940 0.0000 0.0000 0.0000
# 4 0.0000 0.0000 0.0000 12.6437 0.0000 0.0000
# 5 0.0000 0.0000 0.0000 0.0000 15.4577 0.0000
# 6 0.0000 0.0000 0.0000 0.0000 0.0000 23.7499
#
#
#
# Elastic Compliance Matrix: (Units=1/GPa)
#
#
# Indices 1 2 3 4 5 6 
#
# 1 0.017851 -0.000417 0.000421 0.000000 0.000000 0.000000
# 2 -0.000417 0.011617 -0.002047 0.000000 0.000000 0.000000
# 3 0.000421 -0.002047 0.011516 0.000000 0.000000 0.000000
# 4 0.000000 0.000000 0.000000 0.079091 0.000000 0.000000
# 5 0.000000 0.000000 0.000000 0.000000 0.064693 0.000000
# 6 0.000000 0.000000 0.000000 0.000000 0.000000 0.042105
#
#
# Mechanical properties :
#
#
# Convention : Reuss Voigt Hill
#
# Bulk Modulus (GPa) = 27.10014 29.56636 28.33325
# Shear Modulus (GPa) = 20.55420 24.97075 22.76247
#
# Velocity S-wave (km/s) = 3.09716 3.41373 3.25929
# Velocity P-wave (km/s) = 5.04353 5.41631 5.23324
#
# Compressibility (1/GPa) = 0.03690018
#
# Stress axis : x y z
#
# Youngs Moduli (GPa) = 56.01786 86.07717 86.83278
#
# Poissons Ratio (x) = 0.03585 -0.03653
# Poissons Ratio (y) = 0.02333 0.17773
# Poissons Ratio (z) = -0.02357 0.17618
#
# Static dielectric constant tensor:
#      x y z
#    x 1.912480 0.000000 0.000000 
#    y 0.000000 1.780060 0.000000 
#    z 0.000000 0.000000 1.864180 
# 
# From -- ./inp_files/12602.got.cif
#   From: 2010.05.17/outbox.cif.g08.bks.cpg/sg52_7_cif.got.tgz:12602.got - 2010.06.03 12:15:38.
