data_PCOD9409389
_publ_section_title
;
Structure prediction by ZEFSAII (Michael W. Deem and Ramdas Pophale) SiO2 
 PCOD9409389
Probable space group: P N N A
;
_chemical_formula_sum "Si O2"
_cell_formula_units_Z 40
_cell_length_a 14.348965
_cell_length_b 8.704379
_cell_length_c 15.142332
_cell_angle_alpha 90.000000
_cell_angle_beta 90.000000
_cell_angle_gamma 90.000000
_cell_volume 1891.259544
_symmetry_space_group_name_H-M "P N N A"
_symmetry_group_IT_number 52
_symmetry_cell_setting 'orthorhombic'
loop_
_space_group_symop_operation_xyz
x,y,z
1/2-x,-y,z
x,1/2-y,1/2-z
1/2-x,1/2+y,1/2-z
-x,-y,-z
1/2+x,y,-z
-x,1/2+y,1/2+z
1/2+x,1/2-y,1/2+z
loop_
_atom_site_type_symbol
_atom_site_label
_atom_site_fract_x
_atom_site_fract_y
_atom_site_fract_z
Si Si1 0.829664 0.377056 0.677631
Si Si2 0.487922 0.560920 0.600532
Si Si3 0.533188 0.326186 0.988648
Si Si4 0.740937 0.188229 0.999007
Si Si5 0.880006 0.203509 0.148389
O O1 0.750000 0.500000 0.699530
O O2 0.843810 0.250000 0.750000
O O3 0.922513 0.472941 0.658231
O O4 0.802274 0.287247 0.588004
O O5 0.500000 0.500000 0.500000
O O6 0.487449 0.741192 0.582102
O O7 0.398333 0.480546 0.641256
O O8 0.641386 0.269012 0.980274
O O9 0.500000 0.500000 0.000000
O O10 0.470393 0.267983 0.905435
O O11 0.791484 0.245998 0.087674
O O12 0.750000 0.000000 0.003485
O O13 0.874454 0.250000 0.250000
#
# Coordination Sequence:
#
# PCOD9409389 Si02
#       5
#     8   8   8   8   8
#     4  11  23  38  67 101 134 177 234 295 360 447
#     4  10  19  43  67  89 133 189 231 278 371 444
#     4  11  24  42  68 101 141 185 233 310 374 431
#     4  11  21  45  75  94 141 198 239 294 377 463
#     4  11  23  45  73 103 135 189 254 295 362 465
#
# _framework density 21.149927999999999
#
# number of rings (size 3 to 8) (size 9 to 14) (size 15 to 20)
#    0.000    1.200    6.000    3.600    0.000    7.200 
#    3.600    1.000    0.000    0.000    0.000    0.000 
#    0.000    0.000    0.000    0.000    0.000    0.000 
#
# Total GULP energy -222732.979833 kJ/mol
# GULP energy per Si atom -5568.324496 kJ/mol
# Density = 2.110179 g / cm^3
# Si number density = 21.149928 Si / 1000 Ang^3
#
#
#
# Elastic Constant Matrix: (Units=GPa)
#
#
# Indices 1 2 3 4 5 6 
#
# 1 121.7087 19.5848 42.5268 0.0000 0.0000 0.0000
# 2 19.5848 102.8470 37.8866 0.0000 0.0000 0.0000
# 3 42.5268 37.8866 146.4078 0.0000 0.0000 0.0000
# 4 0.0000 0.0000 0.0000 37.6897 0.0000 0.0000
# 5 0.0000 0.0000 0.0000 0.0000 21.8032 0.0000
# 6 0.0000 0.0000 0.0000 0.0000 0.0000 23.8176
#
#
#
# Elastic Compliance Matrix: (Units=1/GPa)
#
#
# Indices 1 2 3 4 5 6 
#
# 1 0.009211 -0.000849 -0.002456 0.000000 0.000000 0.000000
# 2 -0.000849 0.010826 -0.002555 0.000000 0.000000 0.000000
# 3 -0.002456 -0.002555 0.008205 0.000000 0.000000 0.000000
# 4 0.000000 0.000000 0.000000 0.026532 0.000000 0.000000
# 5 0.000000 0.000000 0.000000 0.000000 0.045865 0.000000
# 6 0.000000 0.000000 0.000000 0.000000 0.000000 0.041986
#
#
# Mechanical properties :
#
#
# Convention : Reuss Voigt Hill
#
# Bulk Modulus (GPa) = 60.52540 63.43998 61.98269
# Shear Modulus (GPa) = 31.27894 34.72645 33.00269
#
# Velocity S-wave (km/s) = 3.84984 4.05645 3.95450
# Velocity P-wave (km/s) = 6.95996 7.21112 7.08665
#
# Compressibility (1/GPa) = 0.01652199
#
# Stress axis : x y z
#
# Youngs Moduli (GPa) = 108.56479 92.36970 121.88193
#
# Poissons Ratio (x) = 0.07846 0.29931
# Poissons Ratio (y) = 0.09222 0.31138
# Poissons Ratio (z) = 0.26661 0.23598
#
# Static dielectric constant tensor:
#      x y z
#    x 1.646070 0.000000 0.000000 
#    y 0.000000 1.920150 0.000000 
#    z 0.000000 0.000000 1.753650 
# 
# From -- ./inp_files/26896.got.cif
#   From: 2010.05.17/outbox.cif.g08.bks.cpg/sg52_14_cif.got.tgz:26896.got - 2010.06.03 12:15:38.
