data_PCOD9409047
_publ_section_title
;
Structure prediction by ZEFSAII (Michael W. Deem and Ramdas Pophale) SiO2 
 PCOD9409047
Probable space group: P N N A
;
_chemical_formula_sum "Si O2"
_cell_formula_units_Z 48
_cell_length_a 10.083169
_cell_length_b 19.572217
_cell_length_c 12.823201
_cell_angle_alpha 90.000000
_cell_angle_beta 90.000000
_cell_angle_gamma 90.000000
_cell_volume 2530.658355
_symmetry_space_group_name_H-M "P N N A"
_symmetry_group_IT_number 52
_symmetry_cell_setting 'orthorhombic'
loop_
_space_group_symop_operation_xyz
x,y,z
1/2-x,-y,z
x,1/2-y,1/2-z
1/2-x,1/2+y,1/2-z
-x,-y,-z
1/2+x,y,-z
-x,1/2+y,1/2+z
1/2+x,1/2-y,1/2+z
loop_
_atom_site_type_symbol
_atom_site_label
_atom_site_fract_x
_atom_site_fract_y
_atom_site_fract_z
Si Si1 0.056643 0.054019 0.364300
Si Si2 0.510745 0.382851 0.460003
Si Si3 0.397417 0.512343 0.365746
Si Si4 0.318141 0.341665 0.828643
Si Si5 0.641369 0.443433 0.082189
Si Si6 0.710058 0.690368 0.411413
O O1 0.940164 0.110710 0.364945
O O2 0.111687 0.044359 0.249111
O O3 0.152712 0.071995 0.459341
O O4 0.996551 0.979612 0.393507
O O5 0.473055 0.439405 0.371951
O O6 0.536970 0.432242 0.559050
O O7 0.641155 0.337968 0.434063
O O8 0.387052 0.336805 0.497648
O O9 0.250000 0.500000 0.407614
O O10 0.179084 0.378621 0.851441
O O11 0.330996 0.335613 0.704155
O O12 0.308962 0.271285 0.892510
O O13 0.750000 0.500000 0.110771
#
# Coordination Sequence:
#
# PCOD9409047 Si02
#       6
#     8   8   8   8   8   8
#     4  10  19  35  60  86 120 152 208 252 313 353
#     4  11  23  39  61  91 123 162 203 252 314 369
#     4  11  21  36  61  93 123 155 200 266 311 361
#     4  10  22  38  61  83 119 166 205 249 299 372
#     4   9  19  35  55  87 112 157 201 256 300 357
#     4  11  23  41  61  89 124 164 209 244 307 377
#
# _framework density 18.967396999999998
#
# number of rings (size 3 to 8) (size 9 to 14) (size 15 to 20)
#    0.000    1.667    3.333    1.500    2.333    0.000 
#    0.000    0.000    0.000    4.000    0.000    0.000 
#    0.000    0.000    0.000    0.000    0.000    0.000 
#
# Total GULP energy -267394.518078 kJ/mol
# GULP energy per Si atom -5570.719127 kJ/mol
# Density = 1.892423 g / cm^3
# Si number density = 18.967397 Si / 1000 Ang^3
#
#
#
# Elastic Constant Matrix: (Units=GPa)
#
#
# Indices 1 2 3 4 5 6 
#
# 1 57.3011 27.9957 -21.3349 0.0000 0.0000 0.0000
# 2 27.9957 97.5620 16.2498 0.0000 0.0000 0.0000
# 3 -21.3349 16.2498 30.0069 0.0000 0.0000 0.0000
# 4 0.0000 0.0000 0.0000 10.1697 0.0000 0.0000
# 5 0.0000 0.0000 0.0000 0.0000 30.9098 0.0000
# 6 0.0000 0.0000 0.0000 0.0000 0.0000 19.7918
#
#
#
# Elastic Compliance Matrix: (Units=1/GPa)
#
#
# Indices 1 2 3 4 5 6 
#
# 1 0.040799 -0.018179 0.038853 0.000000 0.000000 0.000000
# 2 -0.018179 0.019366 -0.023412 0.000000 0.000000 0.000000
# 3 0.038853 -0.023412 0.073628 0.000000 0.000000 0.000000
# 4 0.000000 0.000000 0.000000 0.098331 0.000000 0.000000
# 5 0.000000 0.000000 0.000000 0.000000 0.032352 0.000000
# 6 0.000000 0.000000 0.000000 0.000000 0.000000 0.050526
#
#
# Mechanical properties :
#
#
# Convention : Reuss Voigt Hill
#
# Bulk Modulus (GPa) = 7.79323 25.63236 16.71279
# Shear Modulus (GPa) = 13.76457 22.97156 18.36806
#
# Velocity S-wave (km/s) = 2.69680 3.48387 3.11529
# Velocity P-wave (km/s) = 3.71680 5.45219 4.66589
#
# Compressibility (1/GPa) = 0.12831651
#
# Stress axis : x y z
#
# Youngs Moduli (GPa) = 24.51030 51.63738 13.58174
#
# Poissons Ratio (x) = 0.93870 -0.52768
# Poissons Ratio (y) = 0.44556 0.31798
# Poissons Ratio (z) = -0.95229 1.20895
#
# Static dielectric constant tensor:
#      x y z
#    x 1.696200 0.000000 0.000000 
#    y 0.000000 1.683360 0.000000 
#    z 0.000000 0.000000 1.690980 
# 
# From -- ./inp_files/18195.got.cif
#   From: 2010.05.17/outbox.cif.g08.bks.cpg/sg52_10_cif.got.tgz:18195.got - 2010.06.03 12:15:38.
