data_PCOD9409390
_publ_section_title
;
Structure prediction by ZEFSAII (Michael W. Deem and Ramdas Pophale) SiO2 
 PCOD9409390
Probable space group: P N N A
;
_chemical_formula_sum "Si O2"
_cell_formula_units_Z 44
_cell_length_a 10.590788
_cell_length_b 18.337881
_cell_length_c 9.287076
_cell_angle_alpha 90.000000
_cell_angle_beta 90.000000
_cell_angle_gamma 90.000000
_cell_volume 1803.667270
_symmetry_space_group_name_H-M "P N N A"
_symmetry_group_IT_number 52
_symmetry_cell_setting 'orthorhombic'
loop_
_space_group_symop_operation_xyz
x,y,z
1/2-x,-y,z
x,1/2-y,1/2-z
1/2-x,1/2+y,1/2-z
-x,-y,-z
1/2+x,y,-z
-x,1/2+y,1/2+z
1/2+x,1/2-y,1/2+z
loop_
_atom_site_type_symbol
_atom_site_label
_atom_site_fract_x
_atom_site_fract_y
_atom_site_fract_z
Si Si1 0.817086 0.251301 0.045233
Si Si2 0.387353 0.872472 0.615549
Si Si3 0.551264 0.250000 0.750000
Si Si4 0.569013 0.750000 0.750000
Si Si5 0.558444 0.090971 0.702408
Si Si6 0.250000 0.000000 0.116000
Si Si7 0.715917 0.598043 0.344791
O O1 0.729767 0.321585 0.061489
O O2 0.756151 0.183487 0.127333
O O3 0.955711 0.258458 0.115182
O O4 0.843945 0.230100 0.883412
O O5 0.487324 0.818398 0.691320
O O6 0.437293 0.911400 0.471323
O O7 0.328587 0.925176 0.737747
O O8 0.612865 0.170680 0.751124
O O9 0.417253 0.090848 0.765126
O O10 0.639941 0.029642 0.781434
O O11 0.290430 0.061309 0.000267
#
# Coordination Sequence:
#
# PCOD9409390 Si02
#       7
#     8   8   4   4   8   4   8
#     4  11  22  40  70 113 145 175 237 303 357 426
#     4  12  22  43  73 110 142 188 232 296 373 418
#     4  10  19  43  70 100 146 172 227 315 340 406
#     4  12  23  37  70 114 142 182 225 307 368 418
#     4  11  26  47  72 105 146 188 242 300 354 436
#     4  12  30  48  74 102 144 208 238 292 372 428
#     4  11  25  49  69 106 148 188 247 295 351 443
#
# _framework density 24.394742999999998
#
# number of rings (size 3 to 8) (size 9 to 14) (size 15 to 20)
#    0.000    0.727    7.273    0.545   10.182    0.727 
#    0.000    1.818    0.000    0.000    0.000    0.000 
#    0.000    0.000    0.000    0.000    0.000    0.000 
#
# Total GULP energy -246259.538358 kJ/mol
# GULP energy per Si atom -5596.807690 kJ/mol
# Density = 2.433922 g / cm^3
# Si number density = 24.394743 Si / 1000 Ang^3
#
#
#
# Elastic Constant Matrix: (Units=GPa)
#
#
# Indices 1 2 3 4 5 6 
#
# 1 34.3784 -1.8344 33.8660 0.0000 0.0000 0.0000
# 2 -1.8344 68.2308 7.7755 0.0000 0.0000 0.0000
# 3 33.8660 7.7755 180.3384 0.0000 0.0000 0.0000
# 4 0.0000 0.0000 0.0000 43.7150 0.0000 0.0000
# 5 0.0000 0.0000 0.0000 0.0000 38.8545 0.0000
# 6 0.0000 0.0000 0.0000 0.0000 0.0000 37.4102
#
#
#
# Elastic Compliance Matrix: (Units=1/GPa)
#
#
# Indices 1 2 3 4 5 6 
#
# 1 0.035895 0.001742 -0.006816 0.000000 0.000000 0.000000
# 2 0.001742 0.014813 -0.000966 0.000000 0.000000 0.000000
# 3 -0.006816 -0.000966 0.006867 0.000000 0.000000 0.000000
# 4 0.000000 0.000000 0.000000 0.022875 0.000000 0.000000
# 5 0.000000 0.000000 0.000000 0.000000 0.025737 0.000000
# 6 0.000000 0.000000 0.000000 0.000000 0.000000 0.026731
#
#
# Mechanical properties :
#
#
# Convention : Reuss Voigt Hill
#
# Bulk Modulus (GPa) = 21.98031 40.28464 31.13247
# Shear Modulus (GPa) = 31.21818 40.20532 35.71175
#
# Velocity S-wave (km/s) = 3.58118 4.06410 3.83026
# Velocity P-wave (km/s) = 5.11172 6.21064 5.68778
#
# Compressibility (1/GPa) = 0.04549527
#
# Stress axis : x y z
#
# Youngs Moduli (GPa) = 27.85881 67.50812 145.62945
#
# Poissons Ratio (x) = -0.11759 0.99260
# Poissons Ratio (y) = -0.04852 0.14065
# Poissons Ratio (z) = 0.18988 0.06520
#
# Static dielectric constant tensor:
#      x y z
#    x 1.928240 0.000000 0.000000 
#    y 0.000000 2.016430 0.000000 
#    z 0.000000 0.000000 1.971750 
# 
# From -- ./inp_files/8834.got.cif
#   From: 2010.05.17/outbox.cif.g08.bks.cpg/sg52_5_cif.got.tgz:8834.got - 2010.06.03 12:15:38.
