data_PCOD9409920
_publ_section_title
;
Structure prediction by ZEFSAII (Michael W. Deem and Ramdas Pophale) SiO2 
 PCOD9409920
Probable space group: P N N A
;
_chemical_formula_sum "Si O2"
_cell_formula_units_Z 44
_cell_length_a 16.718441
_cell_length_b 12.764075
_cell_length_c 9.474700
_cell_angle_alpha 90.000000
_cell_angle_beta 90.000000
_cell_angle_gamma 90.000000
_cell_volume 2021.857726
_symmetry_space_group_name_H-M "P N N A"
_symmetry_group_IT_number 52
_symmetry_cell_setting 'orthorhombic'
loop_
_space_group_symop_operation_xyz
x,y,z
1/2-x,-y,z
x,1/2-y,1/2-z
1/2-x,1/2+y,1/2-z
-x,-y,-z
1/2+x,y,-z
-x,1/2+y,1/2+z
1/2+x,1/2-y,1/2+z
loop_
_atom_site_type_symbol
_atom_site_label
_atom_site_fract_x
_atom_site_fract_y
_atom_site_fract_z
Si Si1 0.138744 0.750000 0.750000
Si Si2 0.463489 0.063433 0.698170
Si Si3 0.189723 0.750000 0.250000
Si Si4 0.895453 0.895918 0.503891
Si Si5 0.250000 0.500000 0.512098
Si Si6 0.375852 0.027874 0.234346
Si Si7 0.729267 0.226544 0.043190
O O1 0.197464 0.719386 0.876599
O O2 0.084024 0.849618 0.783029
O O3 0.407756 0.980627 0.618629
O O4 0.531433 0.001889 0.784193
O O5 0.516742 0.120508 0.574562
O O6 0.136989 0.647546 0.220415
O O7 0.246404 0.722945 0.380335
O O8 0.648982 0.206606 0.449046
O O9 0.849280 0.951144 0.636320
O O10 0.325490 0.488643 0.406658
O O11 0.268158 0.606484 0.595743
#
# Coordination Sequence:
#
# PCOD9409920 Si02
#       7
#     4   8   4   8   4   8   8
#     4  12  26  41  63  98 140 164 216 276 348 383
#     4   9  22  38  63  95 126 171 222 275 323 389
#     4  10  20  37  61  96 124 164 224 264 318 381
#     4   9  19  40  66  89 119 179 235 254 315 397
#     4  10  22  38  58  98 128 164 216 262 354 380
#     4   9  18  35  62  93 123 163 218 274 308 390
#     4  11  24  39  66  93 130 176 211 278 320 412
#
# _framework density 21.762165
#
# number of rings (size 3 to 8) (size 9 to 14) (size 15 to 20)
#    1.091    1.091    0.000    3.273    2.545    3.636 
#    0.000    6.364    0.000    0.000    0.000    0.000 
#    0.000    0.000    0.000    0.000    0.000    0.000 
#
# Total GULP energy -245383.744993 kJ/mol
# GULP energy per Si atom -5576.903295 kJ/mol
# Density = 2.171263 g / cm^3
# Si number density = 21.762165 Si / 1000 Ang^3
#
#
#
# Elastic Constant Matrix: (Units=GPa)
#
#
# Indices 1 2 3 4 5 6 
#
# 1 76.6542 58.1312 11.7267 0.0000 0.0000 0.0000
# 2 58.1312 124.2955 3.1499 0.0000 0.0000 0.0000
# 3 11.7267 3.1499 29.5331 0.0000 0.0000 0.0000
# 4 0.0000 0.0000 0.0000 21.7396 0.0000 0.0000
# 5 0.0000 0.0000 0.0000 0.0000 10.1054 0.0000
# 6 0.0000 0.0000 0.0000 0.0000 0.0000 39.9452
#
#
#
# Elastic Compliance Matrix: (Units=1/GPa)
#
#
# Indices 1 2 3 4 5 6 
#
# 1 0.021788 -0.009998 -0.007585 0.000000 0.000000 0.000000
# 2 -0.009998 0.012655 0.002620 0.000000 0.000000 0.000000
# 3 -0.007585 0.002620 0.036593 0.000000 0.000000 0.000000
# 4 0.000000 0.000000 0.000000 0.045999 0.000000 0.000000
# 5 0.000000 0.000000 0.000000 0.000000 0.098957 0.000000
# 6 0.000000 0.000000 0.000000 0.000000 0.000000 0.025034
#
#
# Mechanical properties :
#
#
# Convention : Reuss Voigt Hill
#
# Bulk Modulus (GPa) = 24.32494 41.83315 33.07904
# Shear Modulus (GPa) = 17.56521 24.85637 21.21079
#
# Velocity S-wave (km/s) = 2.84411 3.38329 3.12535
# Velocity P-wave (km/s) = 4.68905 5.87595 5.31573
#
# Compressibility (1/GPa) = 0.04111008
#
# Stress axis : x y z
#
# Youngs Moduli (GPa) = 45.89746 79.02220 27.32789
#
# Poissons Ratio (x) = 0.79003 0.20728
# Poissons Ratio (y) = 0.45886 -0.07160
# Poissons Ratio (z) = 0.34813 -0.20704
#
# Static dielectric constant tensor:
#      x y z
#    x 1.786940 0.000000 0.000000 
#    y 0.000000 1.839530 0.000000 
#    z 0.000000 0.000000 1.800260 
# 
# From -- ./inp_files/22404.got.cif
#   From: 2010.05.17/outbox.cif.g08.bks.cpg/sg52_12_cif.got.tgz:22404.got - 2010.06.03 12:15:38.
