data_PCOD9409837
_publ_section_title
;
Structure prediction by ZEFSAII (Michael W. Deem and Ramdas Pophale) SiO2 
 PCOD9409837
Probable space group: P N N A
;
_chemical_formula_sum "Si O2"
_cell_formula_units_Z 28
_cell_length_a 13.591577
_cell_length_b 5.076468
_cell_length_c 19.312906
_cell_angle_alpha 90.000000
_cell_angle_beta 90.000000
_cell_angle_gamma 90.000000
_cell_volume 1332.536548
_symmetry_space_group_name_H-M "P N N A"
_symmetry_group_IT_number 52
_symmetry_cell_setting 'orthorhombic'
loop_
_space_group_symop_operation_xyz
x,y,z
1/2-x,-y,z
x,1/2-y,1/2-z
1/2-x,1/2+y,1/2-z
-x,-y,-z
1/2+x,y,-z
-x,1/2+y,1/2+z
1/2+x,1/2-y,1/2+z
loop_
_atom_site_type_symbol
_atom_site_label
_atom_site_fract_x
_atom_site_fract_y
_atom_site_fract_z
Si Si1 0.750000 0.000000 0.628267
Si Si2 0.360113 0.250000 0.250000
Si Si3 0.311840 0.750000 0.750000
Si Si4 0.038788 0.489794 0.077615
Si Si5 0.984926 0.503006 0.335791
O O1 0.792235 0.207570 0.683717
O O2 0.655140 0.078576 0.583800
O O3 0.436131 0.478103 0.272887
O O4 0.250000 0.500000 0.778559
O O5 0.382131 0.606276 0.694276
O O6 0.021305 0.775933 0.110391
O O7 0.984410 0.274320 0.125574
O O8 0.000000 0.500000 0.000000
#
# Coordination Sequence:
#
# PCOD9409837 Si02
#       5
#     4   4   4   8   8
#     4  10  20  36  64  96 122 162 214 258 338 384
#     4   9  18  34  65  94 120 152 207 284 331 368
#     4  11  22  40  65  98 128 168 225 274 339 404
#     4  11  23  41  60  89 132 173 214 260 319 402
#     4  10  22  40  63  90 128 163 212 281 330 376
#
# _framework density 21.012556
#
# number of rings (size 3 to 8) (size 9 to 14) (size 15 to 20)
#    0.000    1.714    0.000    4.286    0.000   11.429 
#    7.714    0.000    0.000    0.000    0.000    0.000 
#    0.000    0.000    0.000    0.000    0.000    0.000 
#
# Total GULP energy -156266.025441 kJ/mol
# GULP energy per Si atom -5580.929480 kJ/mol
# Density = 2.096473 g / cm^3
# Si number density = 21.012556 Si / 1000 Ang^3
#
#
#
# Elastic Constant Matrix: (Units=GPa)
#
#
# Indices 1 2 3 4 5 6 
#
# 1 135.0599 18.7295 57.2734 0.0000 0.0000 0.0000
# 2 18.7295 91.5505 30.3433 0.0000 0.0000 0.0000
# 3 57.2734 30.3433 125.2098 0.0000 0.0000 0.0000
# 4 0.0000 0.0000 0.0000 32.6247 0.0000 0.0000
# 5 0.0000 0.0000 0.0000 0.0000 45.0576 0.0000
# 6 0.0000 0.0000 0.0000 0.0000 0.0000 19.0684
#
#
#
# Elastic Compliance Matrix: (Units=1/GPa)
#
#
# Indices 1 2 3 4 5 6 
#
# 1 0.009210 -0.000530 -0.004084 0.000000 0.000000 0.000000
# 2 -0.000530 0.011907 -0.002643 0.000000 0.000000 0.000000
# 3 -0.004084 -0.002643 0.010495 0.000000 0.000000 0.000000
# 4 0.000000 0.000000 0.000000 0.030652 0.000000 0.000000
# 5 0.000000 0.000000 0.000000 0.000000 0.022194 0.000000
# 6 0.000000 0.000000 0.000000 0.000000 0.000000 0.052443
#
#
# Mechanical properties :
#
#
# Convention : Reuss Voigt Hill
#
# Bulk Modulus (GPa) = 58.48931 62.72362 60.60647
# Shear Modulus (GPa) = 31.82388 35.71507 33.76948
#
# Velocity S-wave (km/s) = 3.89590 4.12722 4.01323
# Velocity P-wave (km/s) = 6.93781 7.25446 7.09790
#
# Compressibility (1/GPa) = 0.01709714
#
# Stress axis : x y z
#
# Youngs Moduli (GPa) = 108.58255 83.98107 95.28139
#
# Poissons Ratio (x) = 0.04455 0.38914
# Poissons Ratio (y) = 0.05760 0.25183
# Poissons Ratio (z) = 0.44346 0.22196
#
# Static dielectric constant tensor:
#      x y z
#    x 1.826690 0.000000 0.000000 
#    y 0.000000 1.769650 0.000000 
#    z 0.000000 0.000000 1.745690 
# 
# From -- ./inp_files/32554.got.cif
#   From: 2010.05.17/outbox.cif.g08.bks.cpg/sg52_17_cif.got.tgz:32554.got - 2010.06.03 12:15:38.
