data_PCOD9409502
_publ_section_title
;
Structure prediction by ZEFSAII (Michael W. Deem and Ramdas Pophale) SiO2 
 PCOD9409502
Probable space group: P N N A
;
_chemical_formula_sum "Si O2"
_cell_formula_units_Z 60
_cell_length_a 9.489955
_cell_length_b 12.491249
_cell_length_c 26.534399
_cell_angle_alpha 90.000000
_cell_angle_beta 90.000000
_cell_angle_gamma 90.000000
_cell_volume 3145.424564
_symmetry_space_group_name_H-M "P N N A"
_symmetry_group_IT_number 52
_symmetry_cell_setting 'orthorhombic'
loop_
_space_group_symop_operation_xyz
x,y,z
1/2-x,-y,z
x,1/2-y,1/2-z
1/2-x,1/2+y,1/2-z
-x,-y,-z
1/2+x,y,-z
-x,1/2+y,1/2+z
1/2+x,1/2-y,1/2+z
loop_
_atom_site_type_symbol
_atom_site_label
_atom_site_fract_x
_atom_site_fract_y
_atom_site_fract_z
Si Si1 0.029357 0.594696 0.351446
Si Si2 0.750000 0.500000 0.868371
Si Si3 0.696820 0.609304 0.552368
Si Si4 0.270755 0.278185 0.191151
Si Si5 0.288691 0.214499 0.525724
Si Si6 0.432801 0.861056 0.137564
Si Si7 0.061491 0.083673 0.459863
Si Si8 0.747758 0.379150 0.394856
O O1 0.067458 0.586648 0.410736
O O2 0.114356 0.695765 0.331759
O O3 0.080466 0.476987 0.334245
O O4 0.863427 0.613019 0.349197
O O5 0.712710 0.602614 0.832630
O O6 0.873130 0.535550 0.908302
O O7 0.750000 0.500000 0.528237
O O8 0.654658 0.697158 0.512971
O O9 0.826805 0.642320 0.589384
O O10 0.278947 0.250000 0.250000
O O11 0.120274 0.234522 0.172014
O O12 0.186162 0.142405 0.491277
O O13 0.423613 0.156214 0.549576
O O14 0.207060 0.283390 0.567626
O O15 0.593595 0.855328 0.121803
O O16 0.000000 0.000000 0.500000
O O17 0.750000 0.500000 0.416311
#
# Coordination Sequence:
#
# PCOD9409502 Si02
#       8
#     8   4   8   8   8   8   8   8
#     4   9  19  36  60  84 123 150 201 245 321 365
#     4  12  26  44  64  92 132 154 222 268 308 380
#     4   9  17  31  53  85 115 160 194 258 282 353
#     4  11  24  41  69  92 112 155 205 273 329 372
#     4  12  21  34  58  78 128 164 219 236 299 350
#     4   9  19  37  59  85 124 150 203 245 323 358
#     4  12  25  40  55  86 123 180 213 251 293 368
#     4  10  20  33  56  93 118 164 193 251 297 378
#
# _framework density 19.075326
#
# number of rings (size 3 to 8) (size 9 to 14) (size 15 to 20)
#    0.000    1.600    1.333    5.600    3.733    0.000 
#    0.000    6.000    0.000    0.000    0.000    0.000 
#    0.000    0.000    0.000    0.000    0.000    0.000 
#
# Total GULP energy -334241.560511 kJ/mol
# GULP energy per Si atom -5570.692675 kJ/mol
# Density = 1.903191 g / cm^3
# Si number density = 19.075326 Si / 1000 Ang^3
#
#
#
# Elastic Constant Matrix: (Units=GPa)
#
#
# Indices 1 2 3 4 5 6 
#
# 1 85.2943 23.7847 17.5646 0.0000 0.0000 0.0000
# 2 23.7847 131.2873 54.2623 0.0000 0.0000 0.0000
# 3 17.5646 54.2623 76.4743 0.0000 0.0000 0.0000
# 4 0.0000 0.0000 0.0000 16.5485 0.0000 0.0000
# 5 0.0000 0.0000 0.0000 0.0000 5.4049 0.0000
# 6 0.0000 0.0000 0.0000 0.0000 0.0000 32.6497
#
#
#
# Elastic Compliance Matrix: (Units=1/GPa)
#
#
# Indices 1 2 3 4 5 6 
#
# 1 0.012519 -0.001528 -0.001791 0.000000 0.000000 0.000000
# 2 -0.001528 0.010964 -0.007429 0.000000 0.000000 0.000000
# 3 -0.001791 -0.007429 0.018759 0.000000 0.000000 0.000000
# 4 0.000000 0.000000 0.000000 0.060428 0.000000 0.000000
# 5 0.000000 0.000000 0.000000 0.000000 0.185017 0.000000
# 6 0.000000 0.000000 0.000000 0.000000 0.000000 0.030628
#
#
# Mechanical properties :
#
#
# Convention : Reuss Voigt Hill
#
# Bulk Modulus (GPa) = 48.20123 53.80879 51.00501
# Shear Modulus (GPa) = 14.42060 24.08358 19.25209
#
# Velocity S-wave (km/s) = 2.75250 3.55709 3.18034
# Velocity P-wave (km/s) = 5.95192 6.71866 6.34688
#
# Compressibility (1/GPa) = 0.02074636
#
# Stress axis : x y z
#
# Youngs Moduli (GPa) = 79.87853 91.20804 53.30853
#
# Poissons Ratio (x) = 0.13933 0.09550
# Poissons Ratio (y) = 0.12202 0.39601
# Poissons Ratio (z) = 0.14310 0.67755
#
# Static dielectric constant tensor:
#      x y z
#    x 1.719590 0.000000 0.000000 
#    y 0.000000 1.755790 0.000000 
#    z 0.000000 0.000000 1.688530 
# 
# From -- ./inp_files/44552.got.cif
#   From: 2010.05.17/outbox.cif.g08.bks.cpg/sg52_23_cif.got.tgz:44552.got - 2010.06.03 12:15:38.
