data_PCOD9409421
_publ_section_title
;
Structure prediction by ZEFSAII (Michael W. Deem and Ramdas Pophale) SiO2 
 PCOD9409421
Probable space group: P N N A
;
_chemical_formula_sum "Si O2"
_cell_formula_units_Z 48
_cell_length_a 30.785754
_cell_length_b 5.090448
_cell_length_c 21.644385
_cell_angle_alpha 90.000000
_cell_angle_beta 90.000000
_cell_angle_gamma 90.000000
_cell_volume 3391.962564
_symmetry_space_group_name_H-M "P N N A"
_symmetry_group_IT_number 52
_symmetry_cell_setting 'orthorhombic'
loop_
_space_group_symop_operation_xyz
x,y,z
1/2-x,-y,z
x,1/2-y,1/2-z
1/2-x,1/2+y,1/2-z
-x,-y,-z
1/2+x,y,-z
-x,1/2+y,1/2+z
1/2+x,1/2-y,1/2+z
loop_
_atom_site_type_symbol
_atom_site_label
_atom_site_fract_x
_atom_site_fract_y
_atom_site_fract_z
Si Si1 0.375631 0.261616 0.373616
Si Si2 0.988888 0.750000 0.750000
Si Si3 0.014400 0.902510 0.617920
Si Si4 0.571072 0.750000 0.750000
Si Si5 0.583125 0.277891 0.931577
Si Si6 0.461082 0.575302 0.547153
Si Si7 0.720068 0.750496 0.823397
O O1 0.399641 0.187557 0.309379
O O2 0.393581 0.543446 0.394825
O O3 0.324556 0.259521 0.360712
O O4 0.389984 0.043418 0.422899
O O5 0.015521 0.848492 0.690714
O O6 0.958548 0.500840 0.733808
O O7 0.045624 0.693672 0.584027
O O8 0.964766 0.837142 0.596900
O O9 0.024266 0.194694 0.593887
O O10 0.575726 0.185785 0.001887
O O11 0.500000 0.500000 0.500000
O O12 0.750000 0.500000 0.836186
O O13 0.709118 0.750000 0.750000
O O14 0.750000 0.000000 0.835749
#
# Coordination Sequence:
#
# PCOD9409421 Si02
#       7
#     8   4   8   4   8   8   8
#     4  12  20  32  48  64  83 110 145 190 225 270
#     4  12  22  30  46  63  90 112 144 186 230 267
#     4  11  19  32  44  63  87 112 142 180 224 267
#     4  12  20  32  40  65  90 106 142 192 236 255
#     4  11  20  31  46  65  81 110 144 184 226 257
#     4  10  20  32  45  60  85 114 141 176 223 268
#     4  10  21  34  46  61  84 113 140 174 226 276
#
# _framework density 14.151099
#
# number of rings (size 3 to 8) (size 9 to 14) (size 15 to 20)
#    0.000    1.000    4.167    7.000    0.000    0.000 
#    0.000    0.000    0.000    0.000    0.000    0.000 
#    0.000    0.000    0.000    0.000    0.000    0.000 
#
# Total GULP energy -267911.781439 kJ/mol
# GULP energy per Si atom -5581.495447 kJ/mol
# Density = 1.411889 g / cm^3
# Si number density = 14.151099 Si / 1000 Ang^3
#
#
#
# Elastic Constant Matrix: (Units=GPa)
#
#
# Indices 1 2 3 4 5 6 
#
# 1 39.2523 7.3054 7.8765 0.0000 0.0000 0.0000
# 2 7.3054 80.6585 -1.4979 0.0000 0.0000 0.0000
# 3 7.8765 -1.4979 49.4542 0.0000 0.0000 0.0000
# 4 0.0000 0.0000 0.0000 29.9442 0.0000 0.0000
# 5 0.0000 0.0000 0.0000 0.0000 9.5489 0.0000
# 6 0.0000 0.0000 0.0000 0.0000 0.0000 55.3631
#
#
#
# Elastic Compliance Matrix: (Units=1/GPa)
#
#
# Indices 1 2 3 4 5 6 
#
# 1 0.026816 -0.002509 -0.004347 0.000000 0.000000 0.000000
# 2 -0.002509 0.012640 0.000783 0.000000 0.000000 0.000000
# 3 -0.004347 0.000783 0.020937 0.000000 0.000000 0.000000
# 4 0.000000 0.000000 0.000000 0.033395 0.000000 0.000000
# 5 0.000000 0.000000 0.000000 0.000000 0.104724 0.000000
# 6 0.000000 0.000000 0.000000 0.000000 0.000000 0.018063
#
#
# Mechanical properties :
#
#
# Convention : Reuss Voigt Hill
#
# Bulk Modulus (GPa) = 20.72781 21.85924 21.29352
# Shear Modulus (GPa) = 20.42458 29.34998 24.88728
#
# Velocity S-wave (km/s) = 3.80323 4.55911 4.19821
# Velocity P-wave (km/s) = 5.82798 6.57225 6.21127
#
# Compressibility (1/GPa) = 0.04824436
#
# Stress axis : x y z
#
# Youngs Moduli (GPa) = 37.29186 79.11535 47.76285
#
# Poissons Ratio (x) = 0.19854 0.20762
# Poissons Ratio (y) = 0.09358 -0.03738
# Poissons Ratio (z) = 0.16210 -0.06191
#
# Static dielectric constant tensor:
#      x y z
#    x 1.440290 0.000000 0.000000 
#    y 0.000000 1.487140 0.000000 
#    z 0.000000 0.000000 1.498980 
# 
# From -- ./inp_files/38120.got.cif
#   From: 2010.05.17/outbox.cif.g08.bks.cpg/sg52_20_cif.got.tgz:38120.got - 2010.06.03 12:15:38.
