data_PCOD9409460
_publ_section_title
;
Structure prediction by ZEFSAII (Michael W. Deem and Ramdas Pophale) SiO2 
 PCOD9409460
Probable space group: P N N A
;
_chemical_formula_sum "Si O2"
_cell_formula_units_Z 64
_cell_length_a 19.308174
_cell_length_b 8.796350
_cell_length_c 19.033100
_cell_angle_alpha 90.000000
_cell_angle_beta 90.000000
_cell_angle_gamma 90.000000
_cell_volume 3232.609423
_symmetry_space_group_name_H-M "P N N A"
_symmetry_group_IT_number 52
_symmetry_cell_setting 'orthorhombic'
loop_
_space_group_symop_operation_xyz
x,y,z
1/2-x,-y,z
x,1/2-y,1/2-z
1/2-x,1/2+y,1/2-z
-x,-y,-z
1/2+x,y,-z
-x,1/2+y,1/2+z
1/2+x,1/2-y,1/2+z
loop_
_atom_site_type_symbol
_atom_site_label
_atom_site_fract_x
_atom_site_fract_y
_atom_site_fract_z
Si Si1 0.857942 0.179114 0.512345
Si Si2 0.527636 0.583950 0.670771
Si Si3 0.819814 0.551844 0.109257
Si Si4 0.550225 0.929705 0.058261
Si Si5 0.027636 0.416050 0.829229
Si Si6 0.142058 0.320886 0.512345
Si Si7 0.050225 0.429705 0.058261
Si Si8 0.819814 0.448156 0.609257
O O1 0.827515 0.082912 0.448121
O O2 0.917820 0.278801 0.474353
O O3 0.815875 0.296351 0.560713
O O4 0.887361 0.049927 0.563612
O O5 0.492169 0.444757 0.629305
O O6 0.500000 0.577801 0.750000
O O7 0.500000 0.750000 0.643174
O O8 0.609996 0.571617 0.655143
O O9 0.750000 0.500000 0.149032
O O10 0.890004 0.571616 0.155143
O O11 0.815875 0.703649 0.060713
O O12 0.612639 0.049927 0.063612
O O13 0.500000 0.000000 0.000000
O O14 0.992169 0.555243 0.870695
O O15 0.082180 0.221199 0.474353
O O16 0.172485 0.417088 0.448121
O O17 0.000000 0.500000 0.000000
O O18 0.750000 0.500000 0.649032
#
# Coordination Sequence:
#
# PCOD9409460 Si02
#       8
#     8   8   8   8   8   8   8   8
#     4  10  20  32  60  89 116 153 194 244 308 348
#     4  11  22  37  62  86 112 161 206 245 289 360
#     4  11  22  37  58  90 127 155 193 251 310 357
#     4  11  17  33  60  87 111 147 200 255 282 340
#     4  11  22  37  62  86 112 161 206 245 289 360
#     4  10  20  32  60  89 116 153 194 244 308 348
#     4  11  17  33  60  87 111 147 200 255 282 340
#     4  11  22  37  58  90 127 155 193 251 310 357
#
# _framework density 19.798247
#
# number of rings (size 3 to 8) (size 9 to 14) (size 15 to 20)
#    0.000    1.250    7.500    1.500    0.000    0.000 
#    0.000    2.500   11.000    0.000    0.000    0.000 
#    0.000    0.000    0.000    0.000    0.000    0.000 
#
# Total GULP energy -356387.572375 kJ/mol
# GULP energy per Si atom -5568.555818 kJ/mol
# Density = 1.975319 g / cm^3
# Si number density = 19.798247 Si / 1000 Ang^3
#
#
#
# Elastic Constant Matrix: (Units=GPa)
#
#
# Indices 1 2 3 4 5 6 
#
# 1 121.2994 28.7879 21.5991 0.0000 0.0000 0.0000
# 2 28.7879 88.7430 4.3308 0.0000 0.0000 0.0000
# 3 21.5991 4.3308 67.3128 0.0000 0.0000 0.0000
# 4 0.0000 0.0000 0.0000 24.1699 0.0000 0.0000
# 5 0.0000 0.0000 0.0000 0.0000 15.0867 0.0000
# 6 0.0000 0.0000 0.0000 0.0000 0.0000 12.9974
#
#
#
# Elastic Compliance Matrix: (Units=1/GPa)
#
#
# Indices 1 2 3 4 5 6 
#
# 1 0.009444 -0.002925 -0.002842 0.000000 0.000000 0.000000
# 2 -0.002925 0.012210 0.000153 0.000000 0.000000 0.000000
# 3 -0.002842 0.000153 0.015758 0.000000 0.000000 0.000000
# 4 0.000000 0.000000 0.000000 0.041374 0.000000 0.000000
# 5 0.000000 0.000000 0.000000 0.000000 0.066283 0.000000
# 6 0.000000 0.000000 0.000000 0.000000 0.000000 0.076939
#
#
# Mechanical properties :
#
#
# Convention : Reuss Voigt Hill
#
# Bulk Modulus (GPa) = 38.19144 42.97675 40.58410
# Shear Modulus (GPa) = 20.66416 25.29329 22.97873
#
# Velocity S-wave (km/s) = 3.23420 3.57816 3.41052
# Velocity P-wave (km/s) = 5.76879 6.23101 6.00435
#
# Compressibility (1/GPa) = 0.02618388
#
# Stress axis : x y z
#
# Youngs Moduli (GPa) = 105.88328 81.90081 63.45904
#
# Poissons Ratio (x) = 0.23956 0.18037
# Poissons Ratio (y) = 0.30971 -0.00971
# Poissons Ratio (z) = 0.30095 -0.01253
#
# Static dielectric constant tensor:
#      x y z
#    x 1.831480 0.000000 0.000000 
#    y 0.000000 1.767670 0.000000 
#    z 0.000000 0.000000 1.695620 
# 
# From -- ./inp_files/38040.got.cif
#   From: 2010.05.17/outbox.cif.g08.bks.cpg/sg52_20_cif.got.tgz:38040.got - 2010.06.03 12:15:38.
