data_PCOD9409948
_publ_section_title
;
Structure prediction by ZEFSAII (Michael W. Deem and Ramdas Pophale) SiO2 
 PCOD9409948
Probable space group: P N N A
;
_chemical_formula_sum "Si O2"
_cell_formula_units_Z 56
_cell_length_a 13.269369
_cell_length_b 14.204920
_cell_length_c 14.461823
_cell_angle_alpha 90.000000
_cell_angle_beta 90.000000
_cell_angle_gamma 90.000000
_cell_volume 2725.913719
_symmetry_space_group_name_H-M "P N N A"
_symmetry_group_IT_number 52
_symmetry_cell_setting 'orthorhombic'
loop_
_space_group_symop_operation_xyz
x,y,z
1/2-x,-y,z
x,1/2-y,1/2-z
1/2-x,1/2+y,1/2-z
-x,-y,-z
1/2+x,y,-z
-x,1/2+y,1/2+z
1/2+x,1/2-y,1/2+z
loop_
_atom_site_type_symbol
_atom_site_label
_atom_site_fract_x
_atom_site_fract_y
_atom_site_fract_z
Si Si1 0.581115 0.776147 0.950267
Si Si2 0.239739 0.888015 0.703505
Si Si3 0.467083 0.599350 0.041472
Si Si4 0.555100 0.946853 0.081640
Si Si5 0.889218 0.642554 0.361237
Si Si6 0.516095 0.857771 0.252126
Si Si7 0.724266 0.291074 0.012780
O O1 0.506197 0.822691 0.873602
O O2 0.695765 0.742625 0.936189
O O3 0.526722 0.683561 0.990386
O O4 0.593348 0.852117 0.033350
O O5 0.335549 0.849677 0.761392
O O6 0.137831 0.863363 0.758412
O O7 0.227980 0.839622 0.603869
O O8 0.250000 0.000000 0.691110
O O9 0.490176 0.598802 0.149968
O O10 0.352322 0.631218 0.026067
O O11 0.500000 0.500000 0.000000
O O12 0.480380 0.915331 0.163556
O O13 0.623596 0.031177 0.119364
O O14 0.500000 0.000000 0.000000
O O15 0.834252 0.702526 0.441356
O O16 0.483578 0.750000 0.250000
#
# Coordination Sequence:
#
# PCOD9409948 Si02
#       7
#     8   8   8   8   8   8   8
#     4  10  21  40  59  92 129 173 215 273 337 417
#     4  12  21  34  62  98 129 167 221 285 346 407
#     4  11  24  39  59  97 130 175 223 281 338 408
#     4  10  20  37  63  96 129 166 213 279 344 395
#     4  10  22  35  59  98 130 164 214 281 342 396
#     4  12  21  38  65  92 127 166 230 278 329 403
#     4  11  23  38  61  91 134 178 219 274 351 416
#
# _framework density 20.543571
#
# number of rings (size 3 to 8) (size 9 to 14) (size 15 to 20)
#    0.000    1.143    4.286    3.000    0.000    0.000 
#    0.000    0.000    0.000    3.429    7.429    0.000 
#    0.000    0.000    0.000    0.000    0.000    0.000 
#
# Total GULP energy -312290.307971 kJ/mol
# GULP energy per Si atom -5576.612642 kJ/mol
# Density = 2.049681 g / cm^3
# Si number density = 20.543571 Si / 1000 Ang^3
#
#
#
# Elastic Constant Matrix: (Units=GPa)
#
#
# Indices 1 2 3 4 5 6 
#
# 1 82.9790 20.7496 15.2324 0.0000 0.0000 0.0000
# 2 20.7496 147.7860 38.4483 0.0000 0.0000 0.0000
# 3 15.2324 38.4483 86.6332 0.0000 0.0000 0.0000
# 4 0.0000 0.0000 0.0000 30.8240 0.0000 0.0000
# 5 0.0000 0.0000 0.0000 0.0000 29.1171 0.0000
# 6 0.0000 0.0000 0.0000 0.0000 0.0000 19.1957
#
#
#
# Elastic Compliance Matrix: (Units=1/GPa)
#
#
# Indices 1 2 3 4 5 6 
#
# 1 0.012690 -0.001358 -0.001629 0.000000 0.000000 0.000000
# 2 -0.001358 0.007795 -0.003221 0.000000 0.000000 0.000000
# 3 -0.001629 -0.003221 0.013259 0.000000 0.000000 0.000000
# 4 0.000000 0.000000 0.000000 0.032442 0.000000 0.000000
# 5 0.000000 0.000000 0.000000 0.000000 0.034344 0.000000
# 6 0.000000 0.000000 0.000000 0.000000 0.000000 0.052095
#
#
# Mechanical properties :
#
#
# Convention : Reuss Voigt Hill
#
# Bulk Modulus (GPa) = 46.88448 51.80653 49.34551
# Shear Modulus (GPa) = 29.04460 32.02523 30.53491
#
# Velocity S-wave (km/s) = 3.76414 3.95257 3.85950
# Velocity P-wave (km/s) = 6.46244 6.78992 6.62820
#
# Compressibility (1/GPa) = 0.02132902
#
# Stress axis : x y z
#
# Youngs Moduli (GPa) = 78.80360 128.28532 75.42257
#
# Poissons Ratio (x) = 0.17421 0.12283
# Poissons Ratio (y) = 0.10702 0.24292
# Poissons Ratio (z) = 0.12833 0.41317
#
# Static dielectric constant tensor:
#      x y z
#    x 1.508220 0.000000 0.000000 
#    y 0.000000 1.788470 0.000000 
#    z 0.000000 0.000000 1.802230 
# 
# From -- ./inp_files/19625.got.cif
#   From: 2010.05.17/outbox.cif.g08.bks.cpg/sg52_10_cif.got.tgz:19625.got - 2010.06.03 12:15:38.
