data_PCOD9409503
_publ_section_title
;
Structure prediction by ZEFSAII (Michael W. Deem and Ramdas Pophale) SiO2 
 PCOD9409503
Probable space group: P N N A
;
_chemical_formula_sum "Si O2"
_cell_formula_units_Z 64
_cell_length_a 32.920898
_cell_length_b 15.660063
_cell_length_c 5.676184
_cell_angle_alpha 90.000000
_cell_angle_beta 90.000000
_cell_angle_gamma 90.000000
_cell_volume 2926.318839
_symmetry_space_group_name_H-M "P N N A"
_symmetry_group_IT_number 52
_symmetry_cell_setting 'orthorhombic'
loop_
_space_group_symop_operation_xyz
x,y,z
1/2-x,-y,z
x,1/2-y,1/2-z
1/2-x,1/2+y,1/2-z
-x,-y,-z
1/2+x,y,-z
-x,1/2+y,1/2+z
1/2+x,1/2-y,1/2+z
loop_
_atom_site_type_symbol
_atom_site_label
_atom_site_fract_x
_atom_site_fract_y
_atom_site_fract_z
Si Si1 0.739447 0.345502 0.647703
Si Si2 0.212360 0.019771 0.502927
Si Si3 0.830386 0.844436 0.190202
Si Si4 0.092123 0.084356 0.974767
Si Si5 0.514497 0.066591 0.800470
Si Si6 0.864010 0.058508 0.735494
Si Si7 0.325286 0.199292 0.994954
Si Si8 0.936715 0.451582 0.077218
O O1 0.734835 0.250000 0.750000
O O2 0.697640 0.369985 0.525925
O O3 0.779368 0.337826 0.486821
O O4 0.741941 0.420206 0.839442
O O5 0.181262 0.088374 0.612883
O O6 0.250000 0.000000 0.684399
O O7 0.179065 0.954694 0.395612
O O8 0.816760 0.750000 0.250000
O O9 0.877403 0.847296 0.129845
O O10 0.050397 0.120857 0.081178
O O11 0.118149 0.030313 0.165419
O O12 0.080997 0.015127 0.774465
O O13 0.472998 0.104200 0.693323
O O14 0.538666 0.011090 0.606751
O O15 0.500000 0.000000 0.000000
O O16 0.855826 0.121430 0.954633
O O17 0.899255 0.091403 0.559290
O O18 0.326961 0.250000 0.250000
O O19 0.332629 0.250000 0.750000
#
# Coordination Sequence:
#
# PCOD9409503 Si02
#       8
#     8   8   8   8   8   8   8   8
#     4  11  23  42  59  82 125 179 227 273 340 403
#     4  12  24  39  59  90 125 176 229 290 336 398
#     4  12  24  37  60  88 131 180 219 275 347 412
#     4  10  20  33  57  92 127 163 213 267 322 404
#     4   8  16  32  56  90 123 155 195 257 323 391
#     4  11  22  37  61  91 126 160 223 284 337 395
#     4  11  27  44  65  90 130 179 232 288 347 412
#     4   9  17  33  58  90 125 151 203 265 320 396
#
# _framework density 21.870481999999999
#
# number of rings (size 3 to 8) (size 9 to 14) (size 15 to 20)
#    0.000    1.500    5.000    0.375    3.500    1.500 
#    0.000    0.000    0.000    0.000    0.000   40.250 
#    0.000    0.000    0.000    0.000    0.000    0.000 
#
# Total GULP energy -356450.656536 kJ/mol
# GULP energy per Si atom -5569.541508 kJ/mol
# Density = 2.182070 g / cm^3
# Si number density = 21.870482 Si / 1000 Ang^3
#
#
#
# Elastic Constant Matrix: (Units=GPa)
#
#
# Indices 1 2 3 4 5 6 
#
# 1 172.2012 10.2902 51.8189 0.0000 0.0000 0.0000
# 2 10.2902 28.9986 1.5545 0.0000 0.0000 0.0000
# 3 51.8189 1.5545 60.1962 0.0000 0.0000 0.0000
# 4 0.0000 0.0000 0.0000 29.3054 0.0000 0.0000
# 5 0.0000 0.0000 0.0000 0.0000 42.4596 0.0000
# 6 0.0000 0.0000 0.0000 0.0000 0.0000 15.3215
#
#
#
# Elastic Compliance Matrix: (Units=1/GPa)
#
#
# Indices 1 2 3 4 5 6 
#
# 1 0.008011 -0.002477 -0.006832 0.000000 0.000000 0.000000
# 2 -0.002477 0.035298 0.001220 0.000000 0.000000 0.000000
# 3 -0.006832 0.001220 0.022462 0.000000 0.000000 0.000000
# 4 0.000000 0.000000 0.000000 0.034123 0.000000 0.000000
# 5 0.000000 0.000000 0.000000 0.000000 0.023552 0.000000
# 6 0.000000 0.000000 0.000000 0.000000 0.000000 0.065268
#
#
# Mechanical properties :
#
#
# Convention : Reuss Voigt Hill
#
# Bulk Modulus (GPa) = 20.16359 43.19145 31.67752
# Shear Modulus (GPa) = 22.58124 30.59946 26.59035
#
# Velocity S-wave (km/s) = 3.21674 3.74454 3.49063
# Velocity P-wave (km/s) = 4.79959 6.20379 5.54631
#
# Compressibility (1/GPa) = 0.04959434
#
# Stress axis : x y z
#
# Youngs Moduli (GPa) = 124.82645 28.33037 44.51907
#
# Poissons Ratio (x) = 0.07016 0.30417
# Poissons Ratio (y) = 0.30913 -0.05433
# Poissons Ratio (z) = 0.85285 -0.03457
#
# Static dielectric constant tensor:
#      x y z
#    x 1.852420 0.000000 0.000000 
#    y 0.000000 1.728540 0.000000 
#    z 0.000000 0.000000 2.376840 
# 
# From -- ./inp_files/6529.got.cif
#   From: 2010.05.17/outbox.cif.g08.bks.cpg/sg52_4_cif.got.tgz:6529.got - 2010.06.03 12:15:38.
