data_PCOD9409220
_publ_section_title
;
Structure prediction by ZEFSAII (Michael W. Deem and Ramdas Pophale) SiO2 
 PCOD9409220
Probable space group: P N N A
;
_chemical_formula_sum "Si O2"
_cell_formula_units_Z 56
_cell_length_a 9.519229
_cell_length_b 14.313806
_cell_length_c 20.212526
_cell_angle_alpha 90.000000
_cell_angle_beta 90.000000
_cell_angle_gamma 90.000000
_cell_volume 2754.085971
_symmetry_space_group_name_H-M "P N N A"
_symmetry_group_IT_number 52
_symmetry_cell_setting 'orthorhombic'
loop_
_space_group_symop_operation_xyz
x,y,z
1/2-x,-y,z
x,1/2-y,1/2-z
1/2-x,1/2+y,1/2-z
-x,-y,-z
1/2+x,y,-z
-x,1/2+y,1/2+z
1/2+x,1/2-y,1/2+z
loop_
_atom_site_type_symbol
_atom_site_label
_atom_site_fract_x
_atom_site_fract_y
_atom_site_fract_z
Si Si1 0.160479 0.410450 0.159168
Si Si2 0.457242 0.825114 0.808912
Si Si3 0.759017 0.611610 0.696397
Si Si4 0.901218 0.718816 0.588422
Si Si5 0.094129 0.466905 0.799462
Si Si6 0.338199 0.239241 0.505418
Si Si7 0.091909 0.184854 0.587584
O O1 0.250000 0.500000 0.134025
O O2 0.237624 0.371185 0.224695
O O3 0.127053 0.326961 0.109588
O O4 0.017272 0.451829 0.189344
O O5 0.441430 0.750000 0.750000
O O6 0.618869 0.838123 0.828403
O O7 0.416049 0.921033 0.773106
O O8 0.383812 0.782650 0.873128
O O9 0.750000 0.500000 0.688079
O O10 0.882793 0.655943 0.653464
O O11 0.775269 0.699610 0.535856
O O12 0.054030 0.710310 0.555602
O O13 0.250000 0.500000 0.809908
O O14 0.065025 0.390921 0.856238
O O15 0.233151 0.170146 0.545198
O O16 0.451621 0.191555 0.456486
#
# Coordination Sequence:
#
# PCOD9409220 Si02
#       7
#     8   8   8   8   8   8   8
#     4  11  21  36  61  93 116 151 195 239 297 361
#     4  10  19  37  63  85 119 159 187 241 312 354
#     4  11  21  37  64  92 113 148 201 249 305 353
#     4  11  22  40  61  83 121 153 197 248 287 350
#     4  11  22  37  58  94 128 148 191 250 302 361
#     4  10  22  39  61  84 114 166 206 238 285 349
#     4  10  21  40  62  84 119 165 200 240 298 346
#
# _framework density 20.333424999999998
#
# number of rings (size 3 to 8) (size 9 to 14) (size 15 to 20)
#    0.000    1.429    4.286    3.000    0.000    1.143 
#    0.000   17.857    0.000    0.000    0.000    0.000 
#    0.000    0.000    0.000    0.000    0.000    0.000 
#
# Total GULP energy -312380.296135 kJ/mol
# GULP energy per Si atom -5578.219574 kJ/mol
# Density = 2.028715 g / cm^3
# Si number density = 20.333425 Si / 1000 Ang^3
#
#
#
# Elastic Constant Matrix: (Units=GPa)
#
#
# Indices 1 2 3 4 5 6 
#
# 1 100.9444 13.3724 19.9982 0.0000 0.0000 0.0000
# 2 13.3724 30.6523 25.8892 0.0000 0.0000 0.0000
# 3 19.9982 25.8892 78.9612 0.0000 0.0000 0.0000
# 4 0.0000 0.0000 0.0000 46.0490 0.0000 0.0000
# 5 0.0000 0.0000 0.0000 0.0000 19.9999 0.0000
# 6 0.0000 0.0000 0.0000 0.0000 0.0000 17.8353
#
#
#
# Elastic Compliance Matrix: (Units=1/GPa)
#
#
# Indices 1 2 3 4 5 6 
#
# 1 0.010663 -0.003279 -0.001625 0.000000 0.000000 0.000000
# 2 -0.003279 0.046127 -0.014293 0.000000 0.000000 0.000000
# 3 -0.001625 -0.014293 0.017762 0.000000 0.000000 0.000000
# 4 0.000000 0.000000 0.000000 0.021716 0.000000 0.000000
# 5 0.000000 0.000000 0.000000 0.000000 0.050000 0.000000
# 6 0.000000 0.000000 0.000000 0.000000 0.000000 0.056069
#
#
# Mechanical properties :
#
#
# Convention : Reuss Voigt Hill
#
# Bulk Modulus (GPa) = 27.65732 36.56416 32.11074
# Shear Modulus (GPa) = 19.77971 26.86339 23.32155
#
# Velocity S-wave (km/s) = 3.12231 3.63870 3.39035
# Velocity P-wave (km/s) = 5.16041 5.97284 5.58143
#
# Compressibility (1/GPa) = 0.03615679
#
# Stress axis : x y z
#
# Youngs Moduli (GPa) = 93.78374 21.67942 56.29844
#
# Poissons Ratio (x) = 0.07108 0.09151
# Poissons Ratio (y) = 0.30751 0.80469
# Poissons Ratio (z) = 0.15244 0.30987
#
# Static dielectric constant tensor:
#      x y z
#    x 1.728080 0.000000 0.000000 
#    y 0.000000 1.783760 0.000000 
#    z 0.000000 0.000000 1.757890 
# 
# From -- ./inp_files/36055.got.cif
#   From: 2010.05.17/outbox.cif.g08.bks.cpg/sg52_19_cif.got.tgz:36055.got - 2010.06.03 12:15:38.
