data_PCOD9409550
_publ_section_title
;
Structure prediction by ZEFSAII (Michael W. Deem and Ramdas Pophale) SiO2 
 PCOD9409550
Probable space group: P N N A
;
_chemical_formula_sum "Si O2"
_cell_formula_units_Z 56
_cell_length_a 9.797179
_cell_length_b 20.517267
_cell_length_c 15.312715
_cell_angle_alpha 90.000000
_cell_angle_beta 90.000000
_cell_angle_gamma 90.000000
_cell_volume 3078.029321
_symmetry_space_group_name_H-M "P N N A"
_symmetry_group_IT_number 52
_symmetry_cell_setting 'orthorhombic'
loop_
_space_group_symop_operation_xyz
x,y,z
1/2-x,-y,z
x,1/2-y,1/2-z
1/2-x,1/2+y,1/2-z
-x,-y,-z
1/2+x,y,-z
-x,1/2+y,1/2+z
1/2+x,1/2-y,1/2+z
loop_
_atom_site_type_symbol
_atom_site_label
_atom_site_fract_x
_atom_site_fract_y
_atom_site_fract_z
Si Si1 0.132612 0.955243 0.512601
Si Si2 0.105345 0.295177 0.393735
Si Si3 0.539512 0.336821 0.792942
Si Si4 0.860331 0.264365 0.515882
Si Si5 0.730154 0.834748 0.374954
Si Si6 0.467432 0.312555 0.183982
Si Si7 0.765305 0.072200 0.681840
O O1 0.150677 0.890725 0.570041
O O2 0.174527 0.937390 0.414500
O O3 0.250000 0.000000 0.552623
O O4 0.000000 0.000000 0.500000
O O5 0.078534 0.336751 0.308224
O O6 0.102663 0.221897 0.351331
O O7 0.250472 0.309357 0.436407
O O8 0.986185 0.296583 0.465346
O O9 0.378441 0.325391 0.797918
O O10 0.612119 0.400810 0.828874
O O11 0.775088 0.225302 0.442166
O O12 0.914981 0.215897 0.591155
O O13 0.882261 0.842015 0.337768
O O14 0.474176 0.250000 0.250000
O O15 0.363256 0.369247 0.217529
O O16 0.750000 0.000000 0.723270
#
# Coordination Sequence:
#
# PCOD9409550 Si02
#       7
#     8   8   8   8   8   8   8
#     4  11  21  33  54  80 116 161 199 226 273 354
#     4  10  20  34  55  78 115 148 196 239 296 348
#     4  10  21  35  54  80 113 155 193 241 289 349
#     4  11  20  34  54  79 114 153 189 244 298 352
#     4  11  22  34  53  81 118 153 196 243 285 346
#     4  12  24  37  57  88 122 157 199 257 303 357
#     4  11  22  38  59  83 118 162 205 236 291 364
#
# _framework density 18.193459000000001
#
# number of rings (size 3 to 8) (size 9 to 14) (size 15 to 20)
#    0.000    1.143    4.286    3.429    6.000    0.000 
#    0.000    0.000    0.000    0.000    0.000    4.000 
#    0.000    0.000    0.000    0.000    0.000    0.000 
#
# Total GULP energy -311815.909747 kJ/mol
# GULP energy per Si atom -5568.141245 kJ/mol
# Density = 1.815205 g / cm^3
# Si number density = 18.193459 Si / 1000 Ang^3
#
#
#
# Elastic Constant Matrix: (Units=GPa)
#
#
# Indices 1 2 3 4 5 6 
#
# 1 124.9787 16.8072 42.9494 0.0000 0.0000 0.0000
# 2 16.8072 50.2213 11.2714 0.0000 0.0000 0.0000
# 3 42.9494 11.2714 74.7078 0.0000 0.0000 0.0000
# 4 0.0000 0.0000 0.0000 12.8397 0.0000 0.0000
# 5 0.0000 0.0000 0.0000 0.0000 16.5564 0.0000
# 6 0.0000 0.0000 0.0000 0.0000 0.0000 22.9690
#
#
#
# Elastic Compliance Matrix: (Units=1/GPa)
#
#
# Indices 1 2 3 4 5 6 
#
# 1 0.010195 -0.002170 -0.005534 0.000000 0.000000 0.000000
# 2 -0.002170 0.021072 -0.001932 0.000000 0.000000 0.000000
# 3 -0.005534 -0.001932 0.016858 0.000000 0.000000 0.000000
# 4 0.000000 0.000000 0.000000 0.077883 0.000000 0.000000
# 5 0.000000 0.000000 0.000000 0.000000 0.060400 0.000000
# 6 0.000000 0.000000 0.000000 0.000000 0.000000 0.043537
#
#
# Mechanical properties :
#
#
# Convention : Reuss Voigt Hill
#
# Bulk Modulus (GPa) = 34.65693 43.55153 39.10423
# Shear Modulus (GPa) = 19.31748 22.39834 20.85791
#
# Velocity S-wave (km/s) = 3.26203 3.51254 3.38960
# Velocity P-wave (km/s) = 5.76873 6.35929 6.07120
#
# Compressibility (1/GPa) = 0.02885425
#
# Stress axis : x y z
#
# Youngs Moduli (GPa) = 98.08909 47.45728 59.31833
#
# Poissons Ratio (x) = 0.10298 0.32824
# Poissons Ratio (y) = 0.21284 0.11458
# Poissons Ratio (z) = 0.54279 0.09167
#
# Static dielectric constant tensor:
#      x y z
#    x 1.672360 0.000000 0.000000 
#    y 0.000000 1.689850 0.000000 
#    z 0.000000 0.000000 1.638450 
# 
# From -- ./inp_files/24976.got.cif
#   From: 2010.05.17/outbox.cif.g08.bks.cpg/sg52_13_cif.got.tgz:24976.got - 2010.06.03 12:15:38.
