data_PCOD9409156
_publ_section_title
;
Structure prediction by ZEFSAII (Michael W. Deem and Ramdas Pophale) SiO2 
 PCOD9409156
Probable space group: P N N A
;
_chemical_formula_sum "Si O2"
_cell_formula_units_Z 56
_cell_length_a 19.878672
_cell_length_b 8.738299
_cell_length_c 13.671754
_cell_angle_alpha 90.000000
_cell_angle_beta 90.000000
_cell_angle_gamma 90.000000
_cell_volume 2374.862688
_symmetry_space_group_name_H-M "P N N A"
_symmetry_group_IT_number 52
_symmetry_cell_setting 'orthorhombic'
loop_
_space_group_symop_operation_xyz
x,y,z
1/2-x,-y,z
x,1/2-y,1/2-z
1/2-x,1/2+y,1/2-z
-x,-y,-z
1/2+x,y,-z
-x,1/2+y,1/2+z
1/2+x,1/2-y,1/2+z
loop_
_atom_site_type_symbol
_atom_site_label
_atom_site_fract_x
_atom_site_fract_y
_atom_site_fract_z
Si Si1 0.276771 0.747585 0.972729
Si Si2 0.417513 0.171193 0.937591
Si Si3 0.929527 0.750000 0.250000
Si Si4 0.972660 0.445128 0.631891
Si Si5 0.854939 0.043341 0.493367
Si Si6 0.250000 0.500000 0.362882
Si Si7 0.320764 0.974769 0.801352
Si Si8 0.629883 0.928194 0.723353
O O1 0.211220 0.641532 0.964465
O O2 0.340087 0.633972 0.978058
O O3 0.261395 0.854738 0.066229
O O4 0.293320 0.857481 0.883047
O O5 0.485888 0.090913 0.903828
O O6 0.359634 0.104953 0.864764
O O7 0.417564 0.107037 0.050469
O O8 0.412928 0.354112 0.943700
O O9 0.878409 0.893040 0.262032
O O10 0.976568 0.694409 0.340126
O O11 0.939227 0.490087 0.733749
O O12 0.861826 0.054302 0.609722
O O13 0.311906 0.498058 0.288767
O O14 0.250000 0.000000 0.744853
O O15 0.629303 0.750000 0.750000
#
# Coordination Sequence:
#
# PCOD9409156 Si02
#       8
#     8   8   4   8   8   4   8   8
#     4  11  21  35  58  85 125 165 208 263 332 398
#     4  10  19  36  65  91 122 169 225 272 321 402
#     4  10  22  38  64  94 126 160 224 276 324 386
#     4  10  19  36  64  92 123 174 222 272 325 402
#     4  11  21  34  55  90 123 163 211 270 327 390
#     4  12  22  36  56  90 132 170 214 272 346 400
#     4  11  21  40  62  93 127 168 223 277 335 396
#     4  12  21  34  58  92 128 164 215 278 331 394
#
# _framework density 23.580310000000001
#
# number of rings (size 3 to 8) (size 9 to 14) (size 15 to 20)
#    0.000    1.143    5.714    1.714    0.000    0.000 
#    2.571    0.000    0.000   27.429    0.000    0.000 
#    0.000    0.000    0.000    0.000    0.000    0.000 
#
# Total GULP energy -312718.918220 kJ/mol
# GULP energy per Si atom -5584.266397 kJ/mol
# Density = 2.352664 g / cm^3
# Si number density = 23.580310 Si / 1000 Ang^3
#
#
#
# Elastic Constant Matrix: (Units=GPa)
#
#
# Indices 1 2 3 4 5 6 
#
# 1 70.9886 13.4976 17.3877 0.0000 0.0000 0.0000
# 2 13.4976 89.6637 23.1156 0.0000 0.0000 0.0000
# 3 17.3877 23.1156 91.7312 0.0000 0.0000 0.0000
# 4 0.0000 0.0000 0.0000 31.9311 0.0000 0.0000
# 5 0.0000 0.0000 0.0000 0.0000 5.1401 0.0000
# 6 0.0000 0.0000 0.0000 0.0000 0.0000 36.7421
#
#
#
# Elastic Compliance Matrix: (Units=1/GPa)
#
#
# Indices 1 2 3 4 5 6 
#
# 1 0.014992 -0.001630 -0.002431 0.000000 0.000000 0.000000
# 2 -0.001630 0.012105 -0.002741 0.000000 0.000000 0.000000
# 3 -0.002431 -0.002741 0.012053 0.000000 0.000000 0.000000
# 4 0.000000 0.000000 0.000000 0.031317 0.000000 0.000000
# 5 0.000000 0.000000 0.000000 0.000000 0.194550 0.000000
# 6 0.000000 0.000000 0.000000 0.000000 0.000000 0.027217
#
#
# Mechanical properties :
#
#
# Convention : Reuss Voigt Hill
#
# Bulk Modulus (GPa) = 39.14641 40.04279 39.59460
# Shear Modulus (GPa) = 15.90561 27.98817 21.94689
#
# Velocity S-wave (km/s) = 2.59999 3.44892 3.05410
# Velocity P-wave (km/s) = 5.06464 5.73397 5.40967
#
# Compressibility (1/GPa) = 0.02554513
#
# Stress axis : x y z
#
# Youngs Moduli (GPa) = 66.70154 82.61114 82.96683
#
# Poissons Ratio (x) = 0.13467 0.20169
# Poissons Ratio (y) = 0.10873 0.22744
# Poissons Ratio (z) = 0.16215 0.22647
#
# Static dielectric constant tensor:
#      x y z
#    x 1.995560 0.000000 0.000000 
#    y 0.000000 1.958430 0.000000 
#    z 0.000000 0.000000 1.923920 
# 
# From -- ./inp_files/28835.got.cif
#   From: 2010.05.17/outbox.cif.g08.bks.cpg/sg52_15_cif.got.tgz:28835.got - 2010.06.03 12:15:38.
