data_PCOD9409962
_publ_section_title
;
Structure prediction by ZEFSAII (Michael W. Deem and Ramdas Pophale) SiO2 
 PCOD9409962
Probable space group: P N N A
;
_chemical_formula_sum "Si O2"
_cell_formula_units_Z 40
_cell_length_a 19.189111
_cell_length_b 13.322281
_cell_length_c 6.715775
_cell_angle_alpha 90.000000
_cell_angle_beta 90.000000
_cell_angle_gamma 90.000000
_cell_volume 1716.839048
_symmetry_space_group_name_H-M "P N N A"
_symmetry_group_IT_number 52
_symmetry_cell_setting 'orthorhombic'
loop_
_space_group_symop_operation_xyz
x,y,z
1/2-x,-y,z
x,1/2-y,1/2-z
1/2-x,1/2+y,1/2-z
-x,-y,-z
1/2+x,y,-z
-x,1/2+y,1/2+z
1/2+x,1/2-y,1/2+z
loop_
_atom_site_type_symbol
_atom_site_label
_atom_site_fract_x
_atom_site_fract_y
_atom_site_fract_z
Si Si1 0.719387 0.394311 0.166674
Si Si2 0.125781 0.647656 0.841446
Si Si3 0.883894 0.856515 0.672927
Si Si4 0.492820 0.391034 0.098982
Si Si5 0.596217 0.441111 0.409038
O O1 0.750000 0.500000 0.235785
O O2 0.791365 0.337761 0.131015
O O3 0.660245 0.370510 0.329393
O O4 0.674629 0.405226 0.966580
O O5 0.097404 0.750000 0.750000
O O6 0.108453 0.550847 0.697091
O O7 0.085742 0.637195 0.051182
O O8 0.857303 0.750000 0.750000
O O9 0.951005 0.831715 0.535894
O O10 0.902683 0.929965 0.854974
O O11 0.524372 0.398167 0.318213
O O12 0.500000 0.500000 0.000000
#
# Coordination Sequence:
#
# PCOD9409962 Si02
#       5
#     8   8   8   8   8
#     4   9  21  40  59  83 126 159 200 262 314 373
#     4  10  20  37  65  94 127 157 208 269 326 378
#     4  11  23  39  64  89 118 165 223 249 301 397
#     4   9  20  40  62  88 126 161 201 262 318 373
#     4   9  21  41  63  86 122 173 201 253 321 379
#
# _framework density 23.298629999999999
#
# number of rings (size 3 to 8) (size 9 to 14) (size 15 to 20)
#    0.000    2.400    0.000    1.800    2.800    8.000 
#    0.000    4.000    4.400    0.000    0.000    0.000 
#    0.000    0.000    0.000    0.000    0.000    0.000 
#
# Total GULP energy -223015.444739 kJ/mol
# GULP energy per Si atom -5575.386118 kJ/mol
# Density = 2.324560 g / cm^3
# Si number density = 23.298630 Si / 1000 Ang^3
#
#
#
# Elastic Constant Matrix: (Units=GPa)
#
#
# Indices 1 2 3 4 5 6 
#
# 1 123.9038 27.2553 28.5675 0.0000 0.0000 0.0000
# 2 27.2553 35.9396 18.8272 0.0000 0.0000 0.0000
# 3 28.5675 18.8272 107.3610 0.0000 0.0000 0.0000
# 4 0.0000 0.0000 0.0000 24.7588 0.0000 0.0000
# 5 0.0000 0.0000 0.0000 0.0000 20.9195 0.0000
# 6 0.0000 0.0000 0.0000 0.0000 0.0000 11.8710
#
#
#
# Elastic Compliance Matrix: (Units=1/GPa)
#
#
# Indices 1 2 3 4 5 6 
#
# 1 0.009887 -0.006739 -0.001449 0.000000 0.000000 0.000000
# 2 -0.006739 0.035232 -0.004385 0.000000 0.000000 0.000000
# 3 -0.001449 -0.004385 0.010469 0.000000 0.000000 0.000000
# 4 0.000000 0.000000 0.000000 0.040390 0.000000 0.000000
# 5 0.000000 0.000000 0.000000 0.000000 0.047802 0.000000
# 6 0.000000 0.000000 0.000000 0.000000 0.000000 0.084239
#
#
# Mechanical properties :
#
#
# Convention : Reuss Voigt Hill
#
# Bulk Modulus (GPa) = 32.84961 46.27828 39.56394
# Shear Modulus (GPa) = 18.98876 24.34682 21.66779
#
# Velocity S-wave (km/s) = 2.85795 3.23614 3.05290
# Velocity P-wave (km/s) = 5.00205 5.81976 5.42633
#
# Compressibility (1/GPa) = 0.03044176
#
# Stress axis : x y z
#
# Youngs Moduli (GPa) = 101.13990 28.38299 95.52036
#
# Poissons Ratio (x) = 0.19127 0.13842
# Poissons Ratio (y) = 0.68159 0.41888
# Poissons Ratio (z) = 0.14656 0.12447
#
# Static dielectric constant tensor:
#      x y z
#    x 1.962600 0.000000 0.000000 
#    y 0.000000 2.014880 0.000000 
#    z 0.000000 0.000000 1.857310 
# 
# From -- ./inp_files/4216.got.cif
#   From: 2010.05.17/outbox.cif.g08.bks.cpg/sg52_3_cif.got.tgz:4216.got - 2010.06.03 12:15:38.
