data_PCOD9409715
_publ_section_title
;
Structure prediction by ZEFSAII (Michael W. Deem and Ramdas Pophale) SiO2 
 PCOD9409715
Probable space group: P N N A
;
_chemical_formula_sum "Si O2"
_cell_formula_units_Z 48
_cell_length_a 5.477498
_cell_length_b 14.630043
_cell_length_c 26.744671
_cell_angle_alpha 90.000000
_cell_angle_beta 90.000000
_cell_angle_gamma 90.000000
_cell_volume 2143.211792
_symmetry_space_group_name_H-M "P N N A"
_symmetry_group_IT_number 52
_symmetry_cell_setting 'orthorhombic'
loop_
_space_group_symop_operation_xyz
x,y,z
1/2-x,-y,z
x,1/2-y,1/2-z
1/2-x,1/2+y,1/2-z
-x,-y,-z
1/2+x,y,-z
-x,1/2+y,1/2+z
1/2+x,1/2-y,1/2+z
loop_
_atom_site_type_symbol
_atom_site_label
_atom_site_fract_x
_atom_site_fract_y
_atom_site_fract_z
Si Si1 0.483152 0.760694 0.470260
Si Si2 0.317155 0.688010 0.136626
Si Si3 0.929734 0.083934 0.283488
Si Si4 0.932502 0.749148 0.197918
Si Si5 0.499755 0.051115 0.933239
Si Si6 0.540250 0.879436 0.175173
O O1 0.749835 0.779355 0.493804
O O2 0.422241 0.813476 0.418643
O O3 0.488204 0.652996 0.455696
O O4 0.388039 0.602720 0.171158
O O5 0.032641 0.704217 0.146897
O O6 0.407088 0.784457 0.161169
O O7 0.771282 0.176823 0.284625
O O8 0.040764 0.079466 0.227930
O O9 0.750000 0.000000 0.291256
O O10 0.089044 0.750000 0.250000
O O11 0.821259 0.846644 0.182896
O O12 0.490450 0.059246 0.872989
O O13 0.250000 0.000000 0.947840
O O14 0.750000 0.000000 0.945772
#
# Coordination Sequence:
#
# PCOD9409715 Si02
#       6
#     8   8   8   8   8   8
#     4  11  26  43  67  90 115 160 219 271 316 368
#     4  10  21  37  62  84 118 158 213 256 312 368
#     4  10  20  36  55  92 128 159 198 252 309 376
#     4   9  18  34  60  84 118 162 206 247 293 372
#     4  11  24  39  61  92 133 170 201 250 307 366
#     4   9  20  35  58  87 129 169 205 235 292 376
#
# _framework density 22.396294000000001
#
# number of rings (size 3 to 8) (size 9 to 14) (size 15 to 20)
#    0.000    2.000    0.000    4.000   11.667    2.667 
#    3.000    0.000    0.000    1.000    0.000    0.000 
#    0.000    0.000    0.000    0.000    0.000    0.000 
#
# Total GULP energy -267732.171015 kJ/mol
# GULP energy per Si atom -5577.753563 kJ/mol
# Density = 2.234532 g / cm^3
# Si number density = 22.396294 Si / 1000 Ang^3
#
#
#
# Elastic Constant Matrix: (Units=GPa)
#
#
# Indices 1 2 3 4 5 6 
#
# 1 81.4142 12.0400 41.6131 0.0000 0.0000 0.0000
# 2 12.0400 50.9852 23.7850 0.0000 0.0000 0.0000
# 3 41.6131 23.7850 149.1930 0.0000 0.0000 0.0000
# 4 0.0000 0.0000 0.0000 29.8840 0.0000 0.0000
# 5 0.0000 0.0000 0.0000 0.0000 35.7373 0.0000
# 6 0.0000 0.0000 0.0000 0.0000 0.0000 25.4635
#
#
#
# Elastic Compliance Matrix: (Units=1/GPa)
#
#
# Indices 1 2 3 4 5 6 
#
# 1 0.014453 -0.001656 -0.003767 0.000000 0.000000 0.000000
# 2 -0.001656 0.021379 -0.002947 0.000000 0.000000 0.000000
# 3 -0.003767 -0.002947 0.008223 0.000000 0.000000 0.000000
# 4 0.000000 0.000000 0.000000 0.033463 0.000000 0.000000
# 5 0.000000 0.000000 0.000000 0.000000 0.027982 0.000000
# 6 0.000000 0.000000 0.000000 0.000000 0.000000 0.039272
#
#
# Mechanical properties :
#
#
# Convention : Reuss Voigt Hill
#
# Bulk Modulus (GPa) = 36.60775 48.49651 42.55213
# Shear Modulus (GPa) = 29.30540 31.82724 30.56632
#
# Velocity S-wave (km/s) = 3.62123 3.77383 3.69832
# Velocity P-wave (km/s) = 5.81940 6.37886 6.10554
#
# Compressibility (1/GPa) = 0.02731662
#
# Stress axis : x y z
#
# Youngs Moduli (GPa) = 69.18817 46.77461 121.60572
#
# Poissons Ratio (x) = 0.07744 0.45814
# Poissons Ratio (y) = 0.11455 0.35832
# Poissons Ratio (z) = 0.26066 0.13783
#
# Static dielectric constant tensor:
#      x y z
#    x 2.101900 0.000000 0.000000 
#    y 0.000000 1.780420 0.000000 
#    z 0.000000 0.000000 1.911520 
# 
# From -- ./inp_files/41709.got.cif
#   From: 2010.05.17/outbox.cif.g08.bks.cpg/sg52_21_cif.got.tgz:41709.got - 2010.06.03 12:15:38.
