data_PCOD9409900
_publ_section_title
;
Structure prediction by ZEFSAII (Michael W. Deem and Ramdas Pophale) SiO2 
 PCOD9409900
Probable space group: P N N A
;
_chemical_formula_sum "Si O2"
_cell_formula_units_Z 24
_cell_length_a 7.754105
_cell_length_b 8.826600
_cell_length_c 13.140417
_cell_angle_alpha 90.000000
_cell_angle_beta 90.000000
_cell_angle_gamma 90.000000
_cell_volume 899.361456
_symmetry_space_group_name_H-M "P N N A"
_symmetry_group_IT_number 52
_symmetry_cell_setting 'orthorhombic'
loop_
_space_group_symop_operation_xyz
x,y,z
1/2-x,-y,z
x,1/2-y,1/2-z
1/2-x,1/2+y,1/2-z
-x,-y,-z
1/2+x,y,-z
-x,1/2+y,1/2+z
1/2+x,1/2-y,1/2+z
loop_
_atom_site_type_symbol
_atom_site_label
_atom_site_fract_x
_atom_site_fract_y
_atom_site_fract_z
Si Si1 0.437989 0.928951 0.390535
Si Si2 0.276399 0.321906 0.441701
Si Si3 0.135482 0.306476 0.853867
O O1 0.387863 0.753604 0.384539
O O2 0.250000 0.000000 0.369687
O O3 0.500000 0.000000 0.500000
O O4 0.573547 0.022694 0.326966
O O5 0.250000 0.500000 0.454819
O O6 0.456207 0.282212 0.385876
O O7 0.257844 0.231669 0.549982
O O8 0.212486 0.250000 0.750000
#
# Coordination Sequence:
#
# PCOD9409900 Si02
#       3
#     8   8   8
#     4   8  16  32  54  77 109 151 189 236 299 357
#     4  10  20  37  60  89 122 158 206 266 314 372
#     4  10  21  39  60  86 123 167 210 256 316 383
#
# _framework density 26.685599
#
# number of rings (size 3 to 8) (size 9 to 14) (size 15 to 20)
#    0.000    2.667    0.000    1.000    0.000    4.000 
#    0.000   18.333    0.000    0.000    0.000    0.000 
#    0.000    0.000    0.000    0.000    0.000    0.000 
#
# Total GULP energy -133862.344035 kJ/mol
# GULP energy per Si atom -5577.597668 kJ/mol
# Density = 2.662486 g / cm^3
# Si number density = 26.685599 Si / 1000 Ang^3
#
#
#
# Elastic Constant Matrix: (Units=GPa)
#
#
# Indices 1 2 3 4 5 6 
#
# 1 173.8434 31.0868 12.5230 0.0000 0.0000 0.0000
# 2 31.0868 218.6032 25.4473 0.0000 0.0000 0.0000
# 3 12.5230 25.4473 78.4097 0.0000 0.0000 0.0000
# 4 0.0000 0.0000 0.0000 29.2817 0.0000 0.0000
# 5 0.0000 0.0000 0.0000 0.0000 23.7253 0.0000
# 6 0.0000 0.0000 0.0000 0.0000 0.0000 35.0184
#
#
#
# Elastic Compliance Matrix: (Units=1/GPa)
#
#
# Indices 1 2 3 4 5 6 
#
# 1 0.005939 -0.000763 -0.000701 0.000000 0.000000 0.000000
# 2 -0.000763 0.004852 -0.001453 0.000000 0.000000 0.000000
# 3 -0.000701 -0.001453 0.013337 0.000000 0.000000 0.000000
# 4 0.000000 0.000000 0.000000 0.034151 0.000000 0.000000
# 5 0.000000 0.000000 0.000000 0.000000 0.042149 0.000000
# 6 0.000000 0.000000 0.000000 0.000000 0.000000 0.028556
#
#
# Mechanical properties :
#
#
# Convention : Reuss Voigt Hill
#
# Bulk Modulus (GPa) = 54.66051 67.66338 61.16194
# Shear Modulus (GPa) = 35.48194 44.39170 39.93682
#
# Velocity S-wave (km/s) = 3.65036 4.08304 3.87275
# Velocity P-wave (km/s) = 6.18825 6.90211 6.55490
#
# Compressibility (1/GPa) = 0.01829474
#
# Stress axis : x y z
#
# Youngs Moduli (GPa) = 168.37181 206.09508 74.97945
#
# Poissons Ratio (x) = 0.15725 0.05256
# Poissons Ratio (y) = 0.12847 0.10893
# Poissons Ratio (z) = 0.11802 0.29943
#
# Static dielectric constant tensor:
#      x y z
#    x 2.218110 0.000000 0.000000 
#    y 0.000000 2.710990 0.000000 
#    z 0.000000 0.000000 2.242860 
# 
# From -- ./inp_files/17393.got.cif
#   From: 2010.05.17/outbox.cif.g08.bks.cpg/sg52_9_cif.got.tgz:17393.got - 2010.06.03 12:15:38.
