data_PCOD9409125
_publ_section_title
;
Structure prediction by ZEFSAII (Michael W. Deem and Ramdas Pophale) SiO2 
 PCOD9409125
Probable space group: P N N A
;
_chemical_formula_sum "Si O2"
_cell_formula_units_Z 52
_cell_length_a 18.967829
_cell_length_b 8.893203
_cell_length_c 16.092667
_cell_angle_alpha 90.000000
_cell_angle_beta 90.000000
_cell_angle_gamma 90.000000
_cell_volume 2714.587570
_symmetry_space_group_name_H-M "P N N A"
_symmetry_group_IT_number 52
_symmetry_cell_setting 'orthorhombic'
loop_
_space_group_symop_operation_xyz
x,y,z
1/2-x,-y,z
x,1/2-y,1/2-z
1/2-x,1/2+y,1/2-z
-x,-y,-z
1/2+x,y,-z
-x,1/2+y,1/2+z
1/2+x,1/2-y,1/2+z
loop_
_atom_site_type_symbol
_atom_site_label
_atom_site_fract_x
_atom_site_fract_y
_atom_site_fract_z
Si Si1 0.390951 0.823419 0.503607
Si Si2 0.989517 0.374677 0.430446
Si Si3 0.478841 0.584726 0.251829
Si Si4 0.985650 0.813941 0.343408
Si Si5 0.740315 0.180326 0.920843
Si Si6 0.889023 0.182396 0.528850
Si Si7 0.161710 0.250000 0.250000
O O1 0.446768 0.745520 0.440273
O O2 0.420681 0.787556 0.595283
O O3 0.317552 0.742890 0.485237
O O4 0.389108 0.003415 0.489727
O O5 0.998803 0.462712 0.344092
O O6 0.919173 0.281236 0.451877
O O7 0.000000 0.500000 0.500000
O O8 0.510267 0.750000 0.250000
O O9 0.508901 0.490031 0.177708
O O10 0.394144 0.610237 0.244778
O O11 0.984962 0.750000 0.250000
O O12 0.055548 0.783448 0.397086
O O13 0.813564 0.260327 0.941748
O O14 0.709304 0.228455 0.830918
O O15 0.750000 0.000000 0.923615
#
# Coordination Sequence:
#
# PCOD9409125 Si02
#       7
#     8   8   8   8   8   8   4
#     4  11  22  44  59  89 132 174 217 263 323 391
#     4  11  20  37  62  90 123 163 219 265 313 378
#     4  10  19  36  60  88 123 161 202 262 319 363
#     4  11  23  36  65  97 123 160 216 274 318 374
#     4  12  26  42  63  92 129 176 211 263 320 406
#     4  11  24  38  64  91 128 175 211 259 327 395
#     4  10  24  38  62  90 138 158 202 260 326 392
#
# _framework density 19.155764000000001
#
# number of rings (size 3 to 8) (size 9 to 14) (size 15 to 20)
#    0.462    0.615    1.538    7.846    3.231    1.231 
#    0.000    0.000    0.000    6.462    0.000    0.000 
#    0.000    0.000    0.000    0.000    0.000    0.000 
#
# Total GULP energy -290162.548136 kJ/mol
# GULP energy per Si atom -5580.049003 kJ/mol
# Density = 1.911216 g / cm^3
# Si number density = 19.155764 Si / 1000 Ang^3
#
#
#
# Elastic Constant Matrix: (Units=GPa)
#
#
# Indices 1 2 3 4 5 6 
#
# 1 132.4590 42.4628 73.4743 0.0000 0.0000 0.0000
# 2 42.4628 73.7212 28.5479 0.0000 0.0000 0.0000
# 3 73.4743 28.5479 110.3407 0.0000 0.0000 0.0000
# 4 0.0000 0.0000 0.0000 39.2597 0.0000 0.0000
# 5 0.0000 0.0000 0.0000 0.0000 29.0529 0.0000
# 6 0.0000 0.0000 0.0000 0.0000 0.0000 23.9221
#
#
#
# Elastic Compliance Matrix: (Units=1/GPa)
#
#
# Indices 1 2 3 4 5 6 
#
# 1 0.013291 -0.004699 -0.007634 0.000000 0.000000 0.000000
# 2 -0.004699 0.016736 -0.001201 0.000000 0.000000 0.000000
# 3 -0.007634 -0.001201 0.014457 0.000000 0.000000 0.000000
# 4 0.000000 0.000000 0.000000 0.025471 0.000000 0.000000
# 5 0.000000 0.000000 0.000000 0.000000 0.034420 0.000000
# 6 0.000000 0.000000 0.000000 0.000000 0.000000 0.041802
#
#
# Mechanical properties :
#
#
# Convention : Reuss Voigt Hill
#
# Bulk Modulus (GPa) = 57.42071 67.27677 62.34874
# Shear Modulus (GPa) = 27.92491 29.91598 28.92045
#
# Velocity S-wave (km/s) = 3.82223 3.95615 3.88977
# Velocity P-wave (km/s) = 7.03705 7.48768 7.26586
#
# Compressibility (1/GPa) = 0.01741532
#
# Stress axis : x y z
#
# Youngs Moduli (GPa) = 75.24150 59.75032 69.16998
#
# Poissons Ratio (x) = 0.28076 0.52806
# Poissons Ratio (y) = 0.35356 0.08308
# Poissons Ratio (z) = 0.57441 0.07177
#
# Static dielectric constant tensor:
#      x y z
#    x 1.642440 0.000000 0.000000 
#    y 0.000000 1.796780 0.000000 
#    z 0.000000 0.000000 1.787540 
# 
# From -- ./inp_files/33715.got.cif
#   From: 2010.05.17/outbox.cif.g08.bks.cpg/sg52_17_cif.got.tgz:33715.got - 2010.06.03 12:15:38.
