data_PCOD9409640
_publ_section_title
;
Structure prediction by ZEFSAII (Michael W. Deem and Ramdas Pophale) SiO2 
 PCOD9409640
Probable space group: P N N A
;
_chemical_formula_sum "Si O2"
_cell_formula_units_Z 56
_cell_length_a 9.455285
_cell_length_b 14.825116
_cell_length_c 19.196569
_cell_angle_alpha 90.000000
_cell_angle_beta 90.000000
_cell_angle_gamma 90.000000
_cell_volume 2690.892438
_symmetry_space_group_name_H-M "P N N A"
_symmetry_group_IT_number 52
_symmetry_cell_setting 'orthorhombic'
loop_
_space_group_symop_operation_xyz
x,y,z
1/2-x,-y,z
x,1/2-y,1/2-z
1/2-x,1/2+y,1/2-z
-x,-y,-z
1/2+x,y,-z
-x,1/2+y,1/2+z
1/2+x,1/2-y,1/2+z
loop_
_atom_site_type_symbol
_atom_site_label
_atom_site_fract_x
_atom_site_fract_y
_atom_site_fract_z
Si Si1 0.086704 0.026724 0.430683
Si Si2 0.335132 0.407322 0.625927
Si Si3 0.863500 0.711143 0.983868
Si Si4 0.623726 0.348043 0.265715
Si Si5 0.850487 0.917829 0.382642
Si Si6 0.590329 0.975412 0.846178
Si Si7 0.883037 0.338201 0.525192
O O1 0.078517 0.135341 0.430348
O O2 0.250000 0.000000 0.433978
O O3 0.000000 0.000000 0.500000
O O4 0.005769 0.963563 0.376230
O O5 0.250000 0.500000 0.634978
O O6 0.250669 0.342112 0.677849
O O7 0.496952 0.434182 0.641924
O O8 0.323082 0.378052 0.546485
O O9 0.838256 0.656228 0.056281
O O10 0.724452 0.758524 0.953647
O O11 0.973065 0.788723 0.003746
O O12 0.562460 0.250000 0.250000
O O13 0.687583 0.383088 0.193393
O O14 0.501145 0.413499 0.294075
O O15 0.750000 0.000000 0.402267
O O16 0.750000 0.000000 0.825322
O O17 0.598498 0.915717 0.917403
#
# Coordination Sequence:
#
# PCOD9409640 Si02
#       7
#     8   8   8   8   8   8   8
#     4  10  20  35  55  83 122 162 201 242 293 358
#     4  10  21  40  62  86 115 158 206 244 295 368
#     4  11  21  34  57  92 121 152 197 250 299 351
#     4  11  24  43  65  89 118 158 209 258 304 362
#     4  11  21  39  61  84 119 164 202 246 302 366
#     4  11  23  40  59  86 121 157 197 247 306 372
#     4  12  21  35  59  88 120 153 194 253 305 345
#
# _framework density 20.810939000000001
#
# number of rings (size 3 to 8) (size 9 to 14) (size 15 to 20)
#    0.000    1.143    0.000   10.714    0.000    0.571 
#    0.000    0.714    0.000    0.000    0.000    0.000 
#    0.000    0.000    0.000    0.000    0.000    0.000 
#
# Total GULP energy -312670.039017 kJ/mol
# GULP energy per Si atom -5583.393554 kJ/mol
# Density = 2.076357 g / cm^3
# Si number density = 20.810939 Si / 1000 Ang^3
#
#
#
# Elastic Constant Matrix: (Units=GPa)
#
#
# Indices 1 2 3 4 5 6 
#
# 1 103.3811 18.0160 -11.3643 0.0000 0.0000 0.0000
# 2 18.0160 54.9145 7.8403 0.0000 0.0000 0.0000
# 3 -11.3643 7.8403 61.6185 0.0000 0.0000 0.0000
# 4 0.0000 0.0000 0.0000 7.5620 0.0000 0.0000
# 5 0.0000 0.0000 0.0000 0.0000 -17.0150 0.0000
# 6 0.0000 0.0000 0.0000 0.0000 0.0000 29.7458
#
#
#
# Elastic Compliance Matrix: (Units=1/GPa)
#
#
# Indices 1 2 3 4 5 6 
#
# 1 0.010609 -0.003829 0.002444 0.000000 0.000000 0.000000
# 2 -0.003829 0.019929 -0.003242 0.000000 0.000000 0.000000
# 3 0.002444 -0.003242 0.017092 0.000000 0.000000 0.000000
# 4 0.000000 0.000000 0.000000 0.132241 0.000000 0.000000
# 5 0.000000 0.000000 0.000000 0.000000 -0.058772 0.000000
# 6 0.000000 0.000000 0.000000 0.000000 0.000000 0.033618
#
#
# Mechanical properties :
#
#
# Convention : Reuss Voigt Hill
#
# Bulk Modulus (GPa) = 26.05852 27.65534 26.85693
# Shear Modulus (GPa) = 28.28619 17.75335 23.01977
#
# Velocity S-wave (km/s) = 3.69073 2.92392 3.32947
# Velocity P-wave (km/s) = 5.54173 4.97160 5.26438
#
# Compressibility (1/GPa) = 0.03837517
#
# Stress axis : x y z
#
# Youngs Moduli (GPa) = 94.26016 50.17731 58.50641
#
# Poissons Ratio (x) = 0.19215 -0.14298
# Poissons Ratio (y) = 0.36096 0.18968
# Poissons Ratio (z) = -0.23036 0.16268
#
# Static dielectric constant tensor:
#      x y z
#    x 1.798420 0.000000 0.000000 
#    y 0.000000 1.772290 0.000000 
#    z 0.000000 0.000000 1.756660 
# 
# From -- ./inp_files/36020.got.cif
#   From: 2010.05.17/outbox.cif.g08.bks.cpg/sg52_19_cif.got.tgz:36020.got - 2010.06.03 12:15:38.
