data_PCOD9409126
_publ_section_title
;
Structure prediction by ZEFSAII (Michael W. Deem and Ramdas Pophale) SiO2 
 PCOD9409126
Probable space group: P N N A
;
_chemical_formula_sum "Si O2"
_cell_formula_units_Z 60
_cell_length_a 18.171903
_cell_length_b 15.424807
_cell_length_c 8.835513
_cell_angle_alpha 90.000000
_cell_angle_beta 90.000000
_cell_angle_gamma 90.000000
_cell_volume 2476.577476
_symmetry_space_group_name_H-M "P N N A"
_symmetry_group_IT_number 52
_symmetry_cell_setting 'orthorhombic'
loop_
_space_group_symop_operation_xyz
x,y,z
1/2-x,-y,z
x,1/2-y,1/2-z
1/2-x,1/2+y,1/2-z
-x,-y,-z
1/2+x,y,-z
-x,1/2+y,1/2+z
1/2+x,1/2-y,1/2+z
loop_
_atom_site_type_symbol
_atom_site_label
_atom_site_fract_x
_atom_site_fract_y
_atom_site_fract_z
Si Si1 0.454974 0.994140 0.841006
Si Si2 0.739932 0.601361 0.191436
Si Si3 0.658118 0.281825 0.984012
Si Si4 0.774901 0.250000 0.750000
Si Si5 0.093389 0.067988 0.280950
Si Si6 0.184929 0.447758 0.513947
Si Si7 0.126993 0.885202 0.441964
Si Si8 0.020619 0.318882 0.849648
O O1 0.369703 0.008193 0.882766
O O2 0.454934 0.901937 0.750982
O O3 0.506157 0.055267 0.739397
O O4 0.500000 0.000000 0.000000
O O5 0.750000 0.500000 0.154620
O O6 0.770360 0.609576 0.363508
O O7 0.794740 0.662220 0.099840
O O8 0.663334 0.621646 0.107647
O O9 0.717442 0.227610 0.886456
O O10 0.619361 0.349335 0.871168
O O11 0.585518 0.258758 0.080409
O O12 0.824226 0.173515 0.675870
O O13 0.122872 0.981721 0.367848
O O14 0.129393 0.080024 0.115610
O O15 0.250000 0.500000 0.434452
O O16 0.043064 0.854556 0.455667
O O17 0.977160 0.250000 0.750000
#
# Coordination Sequence:
#
# PCOD9409126 Si02
#       8
#     8   8   8   4   8   8   8   8
#     4   9  20  40  60  93 128 168 220 280 333 394
#     4  10  19  36  60  94 131 156 218 286 335 386
#     4  11  23  39  64  98 128 173 228 280 336 404
#     4  10  24  40  62  94 134 178 222 278 338 422
#     4  10  22  38  67  91 128 174 229 278 337 403
#     4  10  21  34  58  97 129 163 206 279 342 385
#     4  10  21  41  68  94 132 182 232 275 341 420
#     4  11  23  42  66  97 137 188 230 280 352 422
#
# _framework density 24.226984999999999
#
# number of rings (size 3 to 8) (size 9 to 14) (size 15 to 20)
#    0.000    1.867    3.333    0.000    3.733    6.400 
#    0.000    0.000    0.000    1.600    0.000    0.000 
#    0.000    0.000    0.000    0.000    0.000    0.000 
#
# Total GULP energy -334191.200297 kJ/mol
# GULP energy per Si atom -5569.853338 kJ/mol
# Density = 2.417184 g / cm^3
# Si number density = 24.226985 Si / 1000 Ang^3
#
#
#
# Elastic Constant Matrix: (Units=GPa)
#
#
# Indices 1 2 3 4 5 6 
#
# 1 130.5328 9.4661 26.2234 0.0000 0.0000 0.0000
# 2 9.4661 28.0815 9.2727 0.0000 0.0000 0.0000
# 3 26.2234 9.2727 112.4198 0.0000 0.0000 0.0000
# 4 0.0000 0.0000 0.0000 34.4057 0.0000 0.0000
# 5 0.0000 0.0000 0.0000 0.0000 59.1484 0.0000
# 6 0.0000 0.0000 0.0000 0.0000 0.0000 24.0279
#
#
#
# Elastic Compliance Matrix: (Units=1/GPa)
#
#
# Indices 1 2 3 4 5 6 
#
# 1 0.008166 -0.002183 -0.001725 0.000000 0.000000 0.000000
# 2 -0.002183 0.037191 -0.002558 0.000000 0.000000 0.000000
# 3 -0.001725 -0.002558 0.009509 0.000000 0.000000 0.000000
# 4 0.000000 0.000000 0.000000 0.029065 0.000000 0.000000
# 5 0.000000 0.000000 0.000000 0.000000 0.016907 0.000000
# 6 0.000000 0.000000 0.000000 0.000000 0.000000 0.041618
#
#
# Mechanical properties :
#
#
# Convention : Reuss Voigt Hill
#
# Bulk Modulus (GPa) = 23.84745 40.10650 31.97698
# Shear Modulus (GPa) = 29.52191 38.58785 34.05488
#
# Velocity S-wave (km/s) = 3.49457 3.99527 3.75328
# Velocity P-wave (km/s) = 5.11345 6.15413 5.65777
#
# Compressibility (1/GPa) = 0.04193321
#
# Stress axis : x y z
#
# Youngs Moduli (GPa) = 122.46333 26.88796 105.16840
#
# Poissons Ratio (x) = 0.05870 0.18138
# Poissons Ratio (y) = 0.26735 0.26907
# Poissons Ratio (z) = 0.21121 0.06879
#
# Static dielectric constant tensor:
#      x y z
#    x 1.903900 0.000000 0.000000 
#    y 0.000000 2.016240 0.000000 
#    z 0.000000 0.000000 2.008450 
# 
# From -- ./inp_files/12428.got.cif
#   From: 2010.05.17/outbox.cif.g08.bks.cpg/sg52_7_cif.got.tgz:12428.got - 2010.06.03 12:15:38.
