data_PCOD9409133
_publ_section_title
;
Structure prediction by ZEFSAII (Michael W. Deem and Ramdas Pophale) SiO2 
 PCOD9409133
Probable space group: P N N A
;
_chemical_formula_sum "Si O2"
_cell_formula_units_Z 40
_cell_length_a 17.122770
_cell_length_b 17.841210
_cell_length_c 6.466355
_cell_angle_alpha 90.000000
_cell_angle_beta 90.000000
_cell_angle_gamma 90.000000
_cell_volume 1975.412837
_symmetry_space_group_name_H-M "P N N A"
_symmetry_group_IT_number 52
_symmetry_cell_setting 'orthorhombic'
loop_
_space_group_symop_operation_xyz
x,y,z
1/2-x,-y,z
x,1/2-y,1/2-z
1/2-x,1/2+y,1/2-z
-x,-y,-z
1/2+x,y,-z
-x,1/2+y,1/2+z
1/2+x,1/2-y,1/2+z
loop_
_atom_site_type_symbol
_atom_site_label
_atom_site_fract_x
_atom_site_fract_y
_atom_site_fract_z
Si Si1 0.580317 0.335592 0.666950
Si Si2 0.581332 0.438749 0.061367
Si Si3 0.802042 0.665476 0.315587
Si Si4 0.324397 0.053677 0.829954
Si Si5 0.534519 0.574671 0.602157
O O1 0.571990 0.250000 0.750000
O O2 0.578809 0.403431 0.833712
O O3 0.662688 0.341390 0.545979
O O4 0.510072 0.356009 0.507749
O O5 0.504976 0.567707 0.837170
O O6 0.635799 0.378847 0.178506
O O7 0.623614 0.514688 0.148919
O O8 0.803423 0.750000 0.250000
O O9 0.717657 0.630612 0.274254
O O10 0.250000 0.000000 0.873725
O O11 0.376336 0.069404 0.032628
O O12 0.500000 0.500000 0.500000
#
# Coordination Sequence:
#
# PCOD9409133 Si02
#       5
#     8   8   8   8   8
#     4  11  21  36  66  89 117 167 218 259 317 374
#     4   9  19  38  60  88 119 161 209 258 303 376
#     4  10  19  36  61  85 128 162 205 257 318 379
#     4   9  19  37  58  85 124 167 197 254 320 371
#     4   9  20  37  58  86 118 156 204 261 309 369
#
# _framework density 20.248933000000001
#
# number of rings (size 3 to 8) (size 9 to 14) (size 15 to 20)
#    0.000    2.400    2.000    1.200    0.000    4.000 
#    0.000   25.000    4.400    0.000    0.000    0.000 
#    0.000    0.000    0.000    0.000    0.000    0.000 
#
# Total GULP energy -222712.040270 kJ/mol
# GULP energy per Si atom -5567.801007 kJ/mol
# Density = 2.020285 g / cm^3
# Si number density = 20.248933 Si / 1000 Ang^3
#
#
#
# Elastic Constant Matrix: (Units=GPa)
#
#
# Indices 1 2 3 4 5 6 
#
# 1 112.0630 24.6392 45.3543 0.0000 0.0000 0.0000
# 2 24.6392 80.4251 30.2565 0.0000 0.0000 0.0000
# 3 45.3543 30.2565 109.7716 0.0000 0.0000 0.0000
# 4 0.0000 0.0000 0.0000 32.9656 0.0000 0.0000
# 5 0.0000 0.0000 0.0000 0.0000 -0.2936 0.0000
# 6 0.0000 0.0000 0.0000 0.0000 0.0000 4.9461
#
#
#
# Elastic Compliance Matrix: (Units=1/GPa)
#
#
# Indices 1 2 3 4 5 6 
#
# 1 0.010955 -0.001845 -0.004018 0.000000 0.000000 0.000000
# 2 -0.001845 0.014183 -0.003147 0.000000 0.000000 0.000000
# 3 -0.004018 -0.003147 0.011637 0.000000 0.000000 0.000000
# 4 0.000000 0.000000 0.000000 0.030335 0.000000 0.000000
# 5 0.000000 0.000000 0.000000 0.000000 -3.406407 0.000000
# 6 0.000000 0.000000 0.000000 0.000000 0.000000 0.202181
#
#
# Mechanical properties :
#
#
# Convention : Reuss Voigt Hill
#
# Bulk Modulus (GPa) = 53.31576 55.86218 54.58897
# Shear Modulus (GPa) = -1.60625 20.99093 9.69234
#
# Velocity S-wave (km/s) = -0.89161 3.22319 2.19020
# Velocity P-wave (km/s) = 5.03263 6.44201 5.78044
#
# Compressibility (1/GPa) = 0.01875618
#
# Stress axis : x y z
#
# Youngs Moduli (GPa) = 91.28007 70.50668 85.93016
#
# Poissons Ratio (x) = 0.13006 0.34526
# Poissons Ratio (y) = 0.16839 0.27043
# Poissons Ratio (z) = 0.36676 0.22189
#
# Static dielectric constant tensor:
#      x y z
#    x 1.763840 0.000000 0.000000 
#    y 0.000000 1.753600 0.000000 
#    z 0.000000 0.000000 1.844910 
# 
# From -- ./inp_files/3206.got.cif
#   From: 2010.05.17/outbox.cif.g08.bks.cpg/sg52_2_cif.got.tgz:3206.got - 2010.06.03 12:15:38.
