data_PCOD9409732
_publ_section_title
;
Structure prediction by ZEFSAII (Michael W. Deem and Ramdas Pophale) SiO2 
 PCOD9409732
Probable space group: P N N A
;
_chemical_formula_sum "Si O2"
_cell_formula_units_Z 52
_cell_length_a 8.092758
_cell_length_b 11.897970
_cell_length_c 20.067378
_cell_angle_alpha 90.000000
_cell_angle_beta 90.000000
_cell_angle_gamma 90.000000
_cell_volume 1932.235490
_symmetry_space_group_name_H-M "P N N A"
_symmetry_group_IT_number 52
_symmetry_cell_setting 'orthorhombic'
loop_
_space_group_symop_operation_xyz
x,y,z
1/2-x,-y,z
x,1/2-y,1/2-z
1/2-x,1/2+y,1/2-z
-x,-y,-z
1/2+x,y,-z
-x,1/2+y,1/2+z
1/2+x,1/2-y,1/2+z
loop_
_atom_site_type_symbol
_atom_site_label
_atom_site_fract_x
_atom_site_fract_y
_atom_site_fract_z
Si Si1 0.414813 0.079420 0.430609
Si Si2 0.484424 0.520189 0.399133
Si Si3 0.785475 0.781659 0.874367
Si Si4 0.921139 0.130677 0.418804
Si Si5 0.866376 0.750000 0.250000
Si Si6 0.380079 0.077359 0.238676
Si Si7 0.205709 0.322965 0.603821
O O1 0.350681 0.193876 0.398010
O O2 0.470170 0.117409 0.504108
O O3 0.250000 0.000000 0.436687
O O4 0.549430 0.997225 0.396128
O O5 0.331369 0.604156 0.416143
O O6 0.460999 0.499764 0.319394
O O7 0.642072 0.596611 0.414742
O O8 0.544087 0.394156 0.419163
O O9 0.723490 0.831792 0.804643
O O10 0.953114 0.708596 0.876702
O O11 0.750354 0.199438 0.421810
O O12 0.787170 0.697151 0.315921
O O13 0.979596 0.853637 0.274363
O O14 0.250000 0.000000 0.277579
#
# Coordination Sequence:
#
# PCOD9409732 Si02
#       7
#     8   8   8   8   4   8   8
#     4   9  18  35  57  81 117 156 197 239 299 360
#     4   8  16  33  57  77 107 155 178 236 299 339
#     4   9  17  34  58  78 105 154 198 229 283 358
#     4   9  18  35  55  81 113 160 186 240 304 354
#     4  10  20  36  56  92 106 150 194 242 298 360
#     4   9  18  36  59  77 114 153 187 235 300 340
#     4   9  17  34  59  82 118 143 192 241 304 359
#
# _framework density 26.911833999999999
#
# number of rings (size 3 to 8) (size 9 to 14) (size 15 to 20)
#    0.000    3.077    0.000    0.000    0.000    0.000 
#   16.615   16.154   16.923    0.000    0.000    0.000 
#    0.000    0.000    0.000    0.000    0.000    0.000 
#
# Total GULP energy -289927.832432 kJ/mol
# GULP energy per Si atom -5575.535239 kJ/mol
# Density = 2.685058 g / cm^3
# Si number density = 26.911834 Si / 1000 Ang^3
#
#
#
# Elastic Constant Matrix: (Units=GPa)
#
#
# Indices 1 2 3 4 5 6 
#
# 1 91.0666 84.9682 20.3593 0.0000 0.0000 0.0000
# 2 84.9682 228.1789 20.9764 0.0000 0.0000 0.0000
# 3 20.3593 20.9764 57.7594 0.0000 0.0000 0.0000
# 4 0.0000 0.0000 0.0000 1.6891 0.0000 0.0000
# 5 0.0000 0.0000 0.0000 0.0000 2.2338 0.0000
# 6 0.0000 0.0000 0.0000 0.0000 0.0000 81.8382
#
#
#
# Elastic Compliance Matrix: (Units=1/GPa)
#
#
# Indices 1 2 3 4 5 6 
#
# 1 0.017666 -0.006213 -0.003970 0.000000 0.000000 0.000000
# 2 -0.006213 0.006719 -0.000250 0.000000 0.000000 0.000000
# 3 -0.003970 -0.000250 0.018804 0.000000 0.000000 0.000000
# 4 0.000000 0.000000 0.000000 0.592041 0.000000 0.000000
# 5 0.000000 0.000000 0.000000 0.000000 0.447671 0.000000
# 6 0.000000 0.000000 0.000000 0.000000 0.000000 0.012219
#
#
# Mechanical properties :
#
#
# Convention : Reuss Voigt Hill
#
# Bulk Modulus (GPa) = 44.80117 69.95696 57.37906
# Shear Modulus (GPa) = 4.45066 33.86562 19.15814
#
# Velocity S-wave (km/s) = 1.28739 3.55123 2.67101
# Velocity P-wave (km/s) = 4.34665 6.54723 5.55696
#
# Compressibility (1/GPa) = 0.02232085
#
# Stress axis : x y z
#
# Youngs Moduli (GPa) = 56.60629 148.82697 53.18148
#
# Poissons Ratio (x) = 0.92471 0.21115
# Poissons Ratio (y) = 0.35171 0.01330
# Poissons Ratio (z) = 0.22475 0.03722
#
# Static dielectric constant tensor:
#      x y z
#    x 2.246370 0.000000 0.000000 
#    y 0.000000 2.153140 0.000000 
#    z 0.000000 0.000000 2.169520 
# 
# From -- ./inp_files/42271.got.cif
#   From: 2010.05.17/outbox.cif.g08.bks.cpg/sg52_22_cif.got.tgz:42271.got - 2010.06.03 12:15:38.
