data_PCOD9409005
_publ_section_title
;
Structure prediction by ZEFSAII (Michael W. Deem and Ramdas Pophale) SiO2 
 PCOD9409005
Probable space group: P N N A
;
_chemical_formula_sum "Si O2"
_cell_formula_units_Z 52
_cell_length_a 17.950861
_cell_length_b 23.465729
_cell_length_c 6.570505
_cell_angle_alpha 90.000000
_cell_angle_beta 90.000000
_cell_angle_gamma 90.000000
_cell_volume 2767.694081
_symmetry_space_group_name_H-M "P N N A"
_symmetry_group_IT_number 52
_symmetry_cell_setting 'orthorhombic'
loop_
_space_group_symop_operation_xyz
x,y,z
1/2-x,-y,z
x,1/2-y,1/2-z
1/2-x,1/2+y,1/2-z
-x,-y,-z
1/2+x,y,-z
-x,1/2+y,1/2+z
1/2+x,1/2-y,1/2+z
loop_
_atom_site_type_symbol
_atom_site_label
_atom_site_fract_x
_atom_site_fract_y
_atom_site_fract_z
Si Si1 0.769994 0.250000 0.750000
Si Si2 0.405872 0.587603 0.802078
Si Si3 0.800147 0.693475 0.123955
Si Si4 0.043888 0.918508 0.033842
Si Si5 0.185653 0.844668 0.952021
Si Si6 0.435515 0.971415 0.288158
Si Si7 0.701175 0.056083 0.955044
O O1 0.719390 0.211916 0.602765
O O2 0.816173 0.209584 0.900057
O O3 0.360645 0.643327 0.871509
O O4 0.474096 0.606883 0.658144
O O5 0.346903 0.553177 0.663068
O O6 0.438447 0.545795 0.975957
O O7 0.824610 0.750000 0.250000
O O8 0.723823 0.673232 0.238422
O O9 0.106562 0.875770 0.955978
O O10 0.076207 0.965362 0.193756
O O11 0.006516 0.949025 0.838689
O O12 0.245221 0.889992 0.038353
O O13 0.360866 0.938792 0.217114
O O14 0.750000 0.000000 0.929802
#
# Coordination Sequence:
#
# PCOD9409005 Si02
#       7
#     4   8   8   8   8   8   8
#     4  10  20  38  62  84 108 148 194 246 292 332
#     4  10  21  36  56  85 114 153 194 232 284 352
#     4   9  20  39  63  84 111 147 199 248 286 334
#     4  10  21  36  55  81 123 156 184 232 288 356
#     4  10  20  37  59  84 113 149 192 241 292 338
#     4  10  20  36  55  81 119 157 188 229 292 346
#     4  10  19  35  56  83 113 144 192 242 284 340
#
# _framework density 18.788202999999999
#
# number of rings (size 3 to 8) (size 9 to 14) (size 15 to 20)
#    0.000    2.154    1.538    1.385    0.000    3.077 
#    6.923    0.000    0.000    0.000    0.000    0.000 
#    0.000    0.000    0.000    0.000    0.000    0.000 
#
# Total GULP energy -289884.709978 kJ/mol
# GULP energy per Si atom -5574.705961 kJ/mol
# Density = 1.874544 g / cm^3
# Si number density = 18.788203 Si / 1000 Ang^3
#
#
#
# Elastic Constant Matrix: (Units=GPa)
#
#
# Indices 1 2 3 4 5 6 
#
# 1 91.3775 33.4688 30.1623 0.0000 0.0000 0.0000
# 2 33.4688 69.0851 29.7353 0.0000 0.0000 0.0000
# 3 30.1623 29.7353 82.6070 0.0000 0.0000 0.0000
# 4 0.0000 0.0000 0.0000 28.3014 0.0000 0.0000
# 5 0.0000 0.0000 0.0000 0.0000 8.7478 0.0000
# 6 0.0000 0.0000 0.0000 0.0000 0.0000 31.6590
#
#
#
# Elastic Compliance Matrix: (Units=1/GPa)
#
#
# Indices 1 2 3 4 5 6 
#
# 1 0.013965 -0.005409 -0.003152 0.000000 0.000000 0.000000
# 2 -0.005409 0.019224 -0.004945 0.000000 0.000000 0.000000
# 3 -0.003152 -0.004945 0.015036 0.000000 0.000000 0.000000
# 4 0.000000 0.000000 0.000000 0.035334 0.000000 0.000000
# 5 0.000000 0.000000 0.000000 0.000000 0.114315 0.000000
# 6 0.000000 0.000000 0.000000 0.000000 0.000000 0.031587
#
#
# Mechanical properties :
#
#
# Convention : Reuss Voigt Hill
#
# Bulk Modulus (GPa) = 47.13957 47.75582 47.44769
# Shear Modulus (GPa) = 18.97221 23.72185 21.34703
#
# Velocity S-wave (km/s) = 3.18117 3.55715 3.37440
# Velocity P-wave (km/s) = 6.21591 6.50725 6.36325
#
# Compressibility (1/GPa) = 0.02121360
#
# Stress axis : x y z
#
# Youngs Moduli (GPa) = 71.60673 52.01953 66.50528
#
# Poissons Ratio (x) = 0.28136 0.20963
# Poissons Ratio (y) = 0.38731 0.32886
# Poissons Ratio (z) = 0.22571 0.25723
#
# Static dielectric constant tensor:
#      x y z
#    x 1.638290 0.000000 0.000000 
#    y 0.000000 1.671380 0.000000 
#    z 0.000000 0.000000 1.674930 
# 
# From -- ./inp_files/3560.got.cif
#   From: 2010.05.17/outbox.cif.g08.bks.cpg/sg52_2_cif.got.tgz:3560.got - 2010.06.03 12:15:38.
