data_PCOD9409215
_publ_section_title
;
Structure prediction by ZEFSAII (Michael W. Deem and Ramdas Pophale) SiO2 
 PCOD9409215
Probable space group: P N N A
;
_chemical_formula_sum "Si O2"
_cell_formula_units_Z 48
_cell_length_a 18.886712
_cell_length_b 13.096662
_cell_length_c 8.921991
_cell_angle_alpha 90.000000
_cell_angle_beta 90.000000
_cell_angle_gamma 90.000000
_cell_volume 2206.880199
_symmetry_space_group_name_H-M "P N N A"
_symmetry_group_IT_number 52
_symmetry_cell_setting 'orthorhombic'
loop_
_space_group_symop_operation_xyz
x,y,z
1/2-x,-y,z
x,1/2-y,1/2-z
1/2-x,1/2+y,1/2-z
-x,-y,-z
1/2+x,y,-z
-x,1/2+y,1/2+z
1/2+x,1/2-y,1/2+z
loop_
_atom_site_type_symbol
_atom_site_label
_atom_site_fract_x
_atom_site_fract_y
_atom_site_fract_z
Si Si1 0.541272 0.604024 0.005526
Si Si2 0.414529 0.250000 0.250000
Si Si3 0.958383 0.250000 0.250000
Si Si4 0.669377 0.455463 0.598875
Si Si5 0.832389 0.970601 0.558665
Si Si6 0.155035 0.843657 0.969475
Si Si7 0.187649 0.246315 0.924043
O O1 0.541270 0.674232 0.856830
O O2 0.622350 0.561152 0.020740
O O3 0.500000 0.500000 0.000000
O O4 0.507507 0.666673 0.143285
O O5 0.363337 0.311559 0.360972
O O6 0.906509 0.196216 0.133741
O O7 0.750000 0.500000 0.613754
O O8 0.641764 0.464170 0.768198
O O9 0.645842 0.534756 0.471748
O O10 0.658163 0.343070 0.532258
O O11 0.831997 0.857315 0.488521
O O12 0.750000 0.000000 0.555523
O O13 0.229020 0.790164 0.926193
O O14 0.165560 0.250000 0.750000
#
# Coordination Sequence:
#
# PCOD9409215 Si02
#       7
#     8   4   4   8   8   8   8
#     4  11  25  47  69  96 130 173 223 270 336 398
#     4  10  20  42  70  88 120 172 222 258 314 406
#     4  10  22  40  68  92 122 168 216 264 314 394
#     4   9  20  34  56  88 129 170 212 257 322 390
#     4  11  22  40  67  94 128 169 217 269 321 396
#     4  10  19  37  62  91 125 170 219 254 314 394
#     4  11  23  33  54  97 140 169 203 276 335 374
#
# _framework density 21.750160999999999
#
# number of rings (size 3 to 8) (size 9 to 14) (size 15 to 20)
#    0.000    1.667    2.500    2.500    7.000    0.667 
#    4.500    3.333    0.000    0.000    0.000    0.000 
#    0.000    0.000    0.000    0.000    0.000    0.000 
#
# Total GULP energy -267426.478390 kJ/mol
# GULP energy per Si atom -5571.384966 kJ/mol
# Density = 2.170066 g / cm^3
# Si number density = 21.750161 Si / 1000 Ang^3
#
#
#
# Elastic Constant Matrix: (Units=GPa)
#
#
# Indices 1 2 3 4 5 6 
#
# 1 26.6272 2.0355 -1.9248 0.0000 0.0000 0.0000
# 2 2.0355 153.7717 49.8878 0.0000 0.0000 0.0000
# 3 -1.9248 49.8878 93.3495 0.0000 0.0000 0.0000
# 4 0.0000 0.0000 0.0000 18.4292 0.0000 0.0000
# 5 0.0000 0.0000 0.0000 0.0000 10.0498 0.0000
# 6 0.0000 0.0000 0.0000 0.0000 0.0000 27.9110
#
#
#
# Elastic Compliance Matrix: (Units=1/GPa)
#
#
# Indices 1 2 3 4 5 6 
#
# 1 0.037716 -0.000909 0.001264 0.000000 0.000000 0.000000
# 2 -0.000909 0.007889 -0.004235 0.000000 0.000000 0.000000
# 3 0.001264 -0.004235 0.013002 0.000000 0.000000 0.000000
# 4 0.000000 0.000000 0.000000 0.054262 0.000000 0.000000
# 5 0.000000 0.000000 0.000000 0.000000 0.099504 0.000000
# 6 0.000000 0.000000 0.000000 0.000000 0.000000 0.035828
#
#
# Mechanical properties :
#
#
# Convention : Reuss Voigt Hill
#
# Bulk Modulus (GPa) = 19.66712 41.52725 30.59718
# Shear Modulus (GPa) = 18.32099 26.19466 22.25783
#
# Velocity S-wave (km/s) = 2.90545 3.47413 3.20244
# Velocity P-wave (km/s) = 4.50749 5.93524 5.26994
#
# Compressibility (1/GPa) = 0.05084629
#
# Stress axis : x y z
#
# Youngs Moduli (GPa) = 26.51366 126.75753 76.91329
#
# Poissons Ratio (x) = 0.11525 -0.09719
# Poissons Ratio (y) = 0.02411 0.32571
# Poissons Ratio (z) = -0.03350 0.53680
#
# Static dielectric constant tensor:
#      x y z
#    x 1.934350 0.000000 0.000000 
#    y 0.000000 1.929810 0.000000 
#    z 0.000000 0.000000 1.825350 
# 
# From -- ./inp_files/14335.got.cif
#   From: 2010.05.17/outbox.cif.g08.bks.cpg/sg52_8_cif.got.tgz:14335.got - 2010.06.03 12:15:38.
