data_PCOD9409552
_publ_section_title
;
Structure prediction by ZEFSAII (Michael W. Deem and Ramdas Pophale) SiO2 
 PCOD9409552
Probable space group: P N N A
;
_chemical_formula_sum "Si O2"
_cell_formula_units_Z 56
_cell_length_a 8.775046
_cell_length_b 17.505900
_cell_length_c 17.117436
_cell_angle_alpha 90.000000
_cell_angle_beta 90.000000
_cell_angle_gamma 90.000000
_cell_volume 2629.496262
_symmetry_space_group_name_H-M "P N N A"
_symmetry_group_IT_number 52
_symmetry_cell_setting 'orthorhombic'
loop_
_space_group_symop_operation_xyz
x,y,z
1/2-x,-y,z
x,1/2-y,1/2-z
1/2-x,1/2+y,1/2-z
-x,-y,-z
1/2+x,y,-z
-x,1/2+y,1/2+z
1/2+x,1/2-y,1/2+z
loop_
_atom_site_type_symbol
_atom_site_label
_atom_site_fract_x
_atom_site_fract_y
_atom_site_fract_z
Si Si1 0.030989 0.627885 0.480231
Si Si2 0.822956 0.925370 0.772336
Si Si3 0.703938 0.280021 0.160684
Si Si4 0.152518 0.570710 0.788112
Si Si5 0.136053 0.812720 0.319776
Si Si6 0.821039 0.699560 0.599562
Si Si7 0.744676 0.888957 0.111607
O O1 0.936851 0.690855 0.529176
O O2 0.908554 0.589024 0.423798
O O3 0.161420 0.663162 0.427391
O O4 0.118939 0.583807 0.549261
O O5 0.688037 0.891076 0.719006
O O6 0.872008 0.856511 0.830291
O O7 0.973967 0.944526 0.723565
O O8 0.750000 0.000000 0.812831
O O9 0.700659 0.250000 0.250000
O O10 0.815083 0.352518 0.162591
O O11 0.531549 0.308359 0.143011
O O12 0.753409 0.204533 0.113789
O O13 0.250000 0.500000 0.819941
O O14 0.216948 0.584818 0.699561
O O15 0.131362 0.750000 0.250000
O O16 0.275105 0.783123 0.372958
#
# Coordination Sequence:
#
# PCOD9409552 Si02
#       7
#     8   8   8   8   8   8   8
#     4  10  20  34  55  80 109 144 180 216 256 316
#     4  11  23  36  54  78 109 143 179 224 272 320
#     4   9  18  33  56  79 104 135 173 225 274 312
#     4  11  23  36  54  78 109 143 179 224 272 320
#     4   9  18  33  56  79 104 135 173 225 274 312
#     4  10  20  36  56  80 110 139 181 220 262 313
#     4  10  20  36  56  80 110 139 181 220 262 313
#
# _framework density 21.296854
#
# number of rings (size 3 to 8) (size 9 to 14) (size 15 to 20)
#    0.000    2.000    2.857    0.857    6.000    1.714 
#    0.000    4.286    0.000    0.000    0.000    6.000 
#    0.000    0.000    0.000    0.000    0.000    0.000 
#
# Total GULP energy -312432.289261 kJ/mol
# GULP energy per Si atom -5579.148023 kJ/mol
# Density = 2.124838 g / cm^3
# Si number density = 21.296854 Si / 1000 Ang^3
#
#
#
# Elastic Constant Matrix: (Units=GPa)
#
#
# Indices 1 2 3 4 5 6 
#
# 1 95.6461 17.3090 1.1816 0.0000 0.0000 0.0000
# 2 17.3090 90.9683 11.4839 0.0000 0.0000 0.0000
# 3 1.1816 11.4839 19.8864 0.0000 0.0000 0.0000
# 4 0.0000 0.0000 0.0000 5.1782 0.0000 0.0000
# 5 0.0000 0.0000 0.0000 0.0000 23.0292 0.0000
# 6 0.0000 0.0000 0.0000 0.0000 0.0000 15.7123
#
#
#
# Elastic Compliance Matrix: (Units=1/GPa)
#
#
# Indices 1 2 3 4 5 6 
#
# 1 0.010834 -0.002136 0.000590 0.000000 0.000000 0.000000
# 2 -0.002136 0.012278 -0.006963 0.000000 0.000000 0.000000
# 3 0.000590 -0.006963 0.054272 0.000000 0.000000 0.000000
# 4 0.000000 0.000000 0.000000 0.193117 0.000000 0.000000
# 5 0.000000 0.000000 0.000000 0.000000 0.043423 0.000000
# 6 0.000000 0.000000 0.000000 0.000000 0.000000 0.063644
#
#
# Mechanical properties :
#
#
# Convention : Reuss Voigt Hill
#
# Bulk Modulus (GPa) = 16.56588 29.60551 23.08569
# Shear Modulus (GPa) = 12.05662 20.55238 16.30450
#
# Velocity S-wave (km/s) = 2.38191 3.10988 2.76992
# Velocity P-wave (km/s) = 3.91920 5.17945 4.59276
#
# Compressibility (1/GPa) = 0.06036505
#
# Stress axis : x y z
#
# Youngs Moduli (GPa) = 92.29804 81.44427 18.42581
#
# Poissons Ratio (x) = 0.17396 -0.01087
# Poissons Ratio (y) = 0.19715 0.12831
# Poissons Ratio (z) = -0.05443 0.56714
#
# Static dielectric constant tensor:
#      x y z
#    x 1.801890 0.000000 0.000000 
#    y 0.000000 1.819010 0.000000 
#    z 0.000000 0.000000 1.774930 
# 
# From -- ./inp_files/36126.got.cif
#   From: 2010.05.17/outbox.cif.g08.bks.cpg/sg52_19_cif.got.tgz:36126.got - 2010.06.03 12:15:38.
