data_PCOD9409216
_publ_section_title
;
Structure prediction by ZEFSAII (Michael W. Deem and Ramdas Pophale) SiO2 
 PCOD9409216
Probable space group: P N N A
;
_chemical_formula_sum "Si O2"
_cell_formula_units_Z 48
_cell_length_a 12.675650
_cell_length_b 20.631906
_cell_length_c 8.546012
_cell_angle_alpha 90.000000
_cell_angle_beta 90.000000
_cell_angle_gamma 90.000000
_cell_volume 2234.977152
_symmetry_space_group_name_H-M "P N N A"
_symmetry_group_IT_number 52
_symmetry_cell_setting 'orthorhombic'
loop_
_space_group_symop_operation_xyz
x,y,z
1/2-x,-y,z
x,1/2-y,1/2-z
1/2-x,1/2+y,1/2-z
-x,-y,-z
1/2+x,y,-z
-x,1/2+y,1/2+z
1/2+x,1/2-y,1/2+z
loop_
_atom_site_type_symbol
_atom_site_label
_atom_site_fract_x
_atom_site_fract_y
_atom_site_fract_z
Si Si1 0.881187 0.250000 0.250000
Si Si2 0.009447 0.060217 0.334717
Si Si3 0.352706 0.957881 0.624067
Si Si4 0.886864 0.168082 0.532361
Si Si5 0.736956 0.250000 0.750000
Si Si6 0.058592 0.333090 0.413990
Si Si7 0.403739 0.679028 0.770329
O O1 0.837385 0.204907 0.384360
O O2 0.956101 0.295497 0.354649
O O3 0.926872 0.100542 0.449185
O O4 0.107929 0.043754 0.445169
O O5 0.051546 0.102392 0.191097
O O6 0.947931 0.995191 0.287998
O O7 0.340442 0.883607 0.673091
O O8 0.250000 0.000000 0.647509
O O9 0.806551 0.192927 0.668139
O O10 0.999873 0.188841 0.607514
O O11 0.659106 0.288544 0.632245
O O12 0.055736 0.341506 0.598764
O O13 0.353841 0.750000 0.750000
#
# Coordination Sequence:
#
# PCOD9409216 Si02
#       7
#     4   8   8   8   4   8   8
#     4   9  16  36  58  85 126 166 209 260 330 381
#     4   9  22  42  65  89 124 181 215 273 327 390
#     4  10  23  43  66  91 126 173 229 265 335 410
#     4  10  19  37  62  92 125 171 214 263 328 385
#     4  11  22  34  58 103 132 164 219 268 322 395
#     4  10  21  36  59  93 129 169 210 265 326 388
#     4  11  21  41  66  93 132 166 207 278 337 383
#
# _framework density 21.47673
#
# number of rings (size 3 to 8) (size 9 to 14) (size 15 to 20)
#    0.000    2.000    2.500    0.000    4.667    0.667 
#   10.500    0.833    1.833    0.000    0.000    0.000 
#    0.000    0.000    0.000    0.000    0.000    0.000 
#
# Total GULP energy -267285.592849 kJ/mol
# GULP energy per Si atom -5568.449851 kJ/mol
# Density = 2.142785 g / cm^3
# Si number density = 21.476730 Si / 1000 Ang^3
#
#
#
# Elastic Constant Matrix: (Units=GPa)
#
#
# Indices 1 2 3 4 5 6 
#
# 1 45.0033 43.8985 22.8715 0.0000 0.0000 0.0000
# 2 43.8985 129.7864 37.6826 0.0000 0.0000 0.0000
# 3 22.8715 37.6826 90.1504 0.0000 0.0000 0.0000
# 4 0.0000 0.0000 0.0000 36.3908 0.0000 0.0000
# 5 0.0000 0.0000 0.0000 0.0000 10.7029 0.0000
# 6 0.0000 0.0000 0.0000 0.0000 0.0000 43.7720
#
#
#
# Elastic Compliance Matrix: (Units=1/GPa)
#
#
# Indices 1 2 3 4 5 6 
#
# 1 0.034649 -0.010434 -0.004429 0.000000 0.000000 0.000000
# 2 -0.010434 0.011911 -0.002332 0.000000 0.000000 0.000000
# 3 -0.004429 -0.002332 0.013191 0.000000 0.000000 0.000000
# 4 0.000000 0.000000 0.000000 0.027479 0.000000 0.000000
# 5 0.000000 0.000000 0.000000 0.000000 0.093433 0.000000
# 6 0.000000 0.000000 0.000000 0.000000 0.000000 0.022846
#
#
# Mechanical properties :
#
#
# Convention : Reuss Voigt Hill
#
# Bulk Modulus (GPa) = 39.42950 52.64944 46.03947
# Shear Modulus (GPa) = 20.29614 28.87231 24.58422
#
# Velocity S-wave (km/s) = 3.07747 3.67052 3.38700
# Velocity P-wave (km/s) = 5.57017 6.52162 6.06458
#
# Compressibility (1/GPa) = 0.02536172
#
# Stress axis : x y z
#
# Youngs Moduli (GPa) = 28.86077 83.95622 75.80935
#
# Poissons Ratio (x) = 0.87596 0.33579
# Poissons Ratio (y) = 0.30112 0.17677
# Poissons Ratio (z) = 0.12784 0.19576
#
# Static dielectric constant tensor:
#      x y z
#    x 1.843670 0.000000 0.000000 
#    y 0.000000 1.844410 0.000000 
#    z 0.000000 0.000000 1.758830 
# 
# From -- ./inp_files/8888.got.cif
#   From: 2010.05.17/outbox.cif.g08.bks.cpg/sg52_5_cif.got.tgz:8888.got - 2010.06.03 12:15:38.
