data_PCOD9409420
_publ_section_title
;
Structure prediction by ZEFSAII (Michael W. Deem and Ramdas Pophale) SiO2 
 PCOD9409420
Probable space group: P N N A
;
_chemical_formula_sum "Si O2"
_cell_formula_units_Z 48
_cell_length_a 21.752002
_cell_length_b 5.010670
_cell_length_c 31.681063
_cell_angle_alpha 90.000000
_cell_angle_beta 90.000000
_cell_angle_gamma 90.000000
_cell_volume 3452.985709
_symmetry_space_group_name_H-M "P N N A"
_symmetry_group_IT_number 52
_symmetry_cell_setting 'orthorhombic'
loop_
_space_group_symop_operation_xyz
x,y,z
1/2-x,-y,z
x,1/2-y,1/2-z
1/2-x,1/2+y,1/2-z
-x,-y,-z
1/2+x,y,-z
-x,1/2+y,1/2+z
1/2+x,1/2-y,1/2+z
loop_
_atom_site_type_symbol
_atom_site_label
_atom_site_fract_x
_atom_site_fract_y
_atom_site_fract_z
Si Si1 0.871257 0.349504 0.622078
Si Si2 0.250000 0.000000 0.069901
Si Si3 0.928730 0.680022 0.917402
Si Si4 0.044452 0.851952 0.966653
Si Si5 0.250000 0.500000 0.007547
Si Si6 0.205256 0.748884 0.201243
Si Si7 0.380973 0.831294 0.509878
O O1 0.808534 0.449445 0.599608
O O2 0.912704 0.611569 0.619167
O O3 0.849974 0.256056 0.668059
O O4 0.906276 0.112505 0.596951
O O5 0.245111 0.750282 0.038653
O O6 0.999208 0.739383 0.930469
O O7 0.889839 0.747590 0.960360
O O8 0.075670 0.588551 0.985196
O O9 0.096054 0.083539 0.961494
O O10 0.000000 0.000000 0.000000
O O11 0.312075 0.565622 0.982269
O O12 0.250000 0.500000 0.193429
O O13 0.184395 0.750000 0.250000
O O14 0.250000 0.000000 0.195533
#
# Coordination Sequence:
#
# PCOD9409420 Si02
#       7
#     8   4   8   8   4   8   8
#     4  12  20  30  46  62  81 106 138 182 217 260
#     4  12  20  30  40  61  90 100 136 182 228 249
#     4  11  20  31  44  63  78 106 138 175 217 252
#     4  10  20  32  44  57  81 110 136 168 214 260
#     4  12  22  30  44  63  84 108 136 180 222 259
#     4  10  21  34  46  61  84 113 139 170 221 272
#     4  11  19  32  43  60  83 107 136 173 216 261
#
# _framework density 13.901013000000001
#
# number of rings (size 3 to 8) (size 9 to 14) (size 15 to 20)
#    0.000    1.000    4.167    7.000    1.167    0.000 
#    0.000    0.000    0.000    0.000    0.000    0.000 
#    0.000    0.000    0.000    0.000    0.000    0.000 
#
# Total GULP energy -267409.908953 kJ/mol
# GULP energy per Si atom -5571.039770 kJ/mol
# Density = 1.386937 g / cm^3
# Si number density = 13.901013 Si / 1000 Ang^3
#
#
#
# Elastic Constant Matrix: (Units=GPa)
#
#
# Indices 1 2 3 4 5 6 
#
# 1 74.3385 20.9232 32.9471 0.0000 0.0000 0.0000
# 2 20.9232 88.1698 21.9530 0.0000 0.0000 0.0000
# 3 32.9471 21.9530 42.6119 0.0000 0.0000 0.0000
# 4 0.0000 0.0000 0.0000 17.9779 0.0000 0.0000
# 5 0.0000 0.0000 0.0000 0.0000 16.0426 0.0000
# 6 0.0000 0.0000 0.0000 0.0000 0.0000 25.1646
#
#
#
# Elastic Compliance Matrix: (Units=1/GPa)
#
#
# Indices 1 2 3 4 5 6 
#
# 1 0.020550 -0.001056 -0.015345 0.000000 0.000000 0.000000
# 2 -0.001056 0.013065 -0.005914 0.000000 0.000000 0.000000
# 3 -0.015345 -0.005914 0.038379 0.000000 0.000000 0.000000
# 4 0.000000 0.000000 0.000000 0.055624 0.000000 0.000000
# 5 0.000000 0.000000 0.000000 0.000000 0.062334 0.000000
# 6 0.000000 0.000000 0.000000 0.000000 0.000000 0.039738
#
#
# Mechanical properties :
#
#
# Convention : Reuss Voigt Hill
#
# Bulk Modulus (GPa) = 36.54516 39.64077 38.09297
# Shear Modulus (GPa) = 17.64024 20.45683 19.04853
#
# Velocity S-wave (km/s) = 3.56615 3.84031 3.70577
# Velocity P-wave (km/s) = 6.58052 6.94567 6.76556
#
# Compressibility (1/GPa) = 0.02736340
#
# Stress axis : x y z
#
# Youngs Moduli (GPa) = 48.66125 76.54072 26.05567
#
# Poissons Ratio (x) = 0.08082 0.39983
# Poissons Ratio (y) = 0.05138 0.15410
# Poissons Ratio (z) = 0.74672 0.45269
#
# Static dielectric constant tensor:
#      x y z
#    x 1.511070 0.000000 0.000000 
#    y 0.000000 1.487060 0.000000 
#    z 0.000000 0.000000 1.460560 
# 
# From -- ./inp_files/43266.got.cif
#   From: 2010.05.17/outbox.cif.g08.bks.cpg/sg52_22_cif.got.tgz:43266.got - 2010.06.03 12:15:38.
