data_PCOD9409375
_publ_section_title
;
Structure prediction by ZEFSAII (Michael W. Deem and Ramdas Pophale) SiO2 
 PCOD9409375
Probable space group: P N N A
;
_chemical_formula_sum "Si O2"
_cell_formula_units_Z 56
_cell_length_a 15.862287
_cell_length_b 13.589806
_cell_length_c 12.798930
_cell_angle_alpha 90.000000
_cell_angle_beta 90.000000
_cell_angle_gamma 90.000000
_cell_volume 2759.006504
_symmetry_space_group_name_H-M "P N N A"
_symmetry_group_IT_number 52
_symmetry_cell_setting 'orthorhombic'
loop_
_space_group_symop_operation_xyz
x,y,z
1/2-x,-y,z
x,1/2-y,1/2-z
1/2-x,1/2+y,1/2-z
-x,-y,-z
1/2+x,y,-z
-x,1/2+y,1/2+z
1/2+x,1/2-y,1/2+z
loop_
_atom_site_type_symbol
_atom_site_label
_atom_site_fract_x
_atom_site_fract_y
_atom_site_fract_z
Si Si1 0.705842 0.750000 0.750000
Si Si2 0.016368 0.442601 0.268795
Si Si3 0.789168 0.894523 0.123322
Si Si4 0.950789 0.362375 0.842357
Si Si5 0.486729 0.670794 0.049856
Si Si6 0.151706 0.326735 0.407608
Si Si7 0.404757 0.750000 0.750000
Si Si8 0.386849 0.185938 0.856051
O O1 0.640392 0.681715 0.815597
O O2 0.767383 0.698764 0.664684
O O3 0.032885 0.555505 0.245004
O O4 0.013182 0.390462 0.156541
O O5 0.088171 0.386917 0.333583
O O6 0.929717 0.418280 0.328155
O O7 0.848158 0.839614 0.207635
O O8 0.707812 0.824699 0.109052
O O9 0.750000 0.000000 0.153524
O O10 0.830798 0.892908 0.009256
O O11 0.027840 0.284404 0.836098
O O12 0.970700 0.395689 0.959693
O O13 0.395810 0.726876 0.052163
O O14 0.554078 0.759466 0.062042
O O15 0.388925 0.250000 0.750000
#
# Coordination Sequence:
#
# PCOD9409375 Si02
#       8
#     4   8   8   8   8   8   4   8
#     4  11  24  40  63  90 136 174 209 274 344 369
#     4  10  21  39  67  91 126 164 227 264 324 395
#     4  12  24  39  66  93 128 168 216 270 336 393
#     4  11  23  39  62  93 129 171 211 272 329 389
#     4  10  19  41  65  87 123 175 214 262 331 389
#     4  11  22  42  62  94 129 173 216 274 330 394
#     4  11  24  44  59  92 134 164 211 280 330 387
#     4   9  19  38  63  87 117 166 209 259 317 390
#
# _framework density 20.297160999999999
#
# number of rings (size 3 to 8) (size 9 to 14) (size 15 to 20)
#    0.000    1.429    3.571    3.000    2.000    0.000 
#    0.000    2.143    0.000    0.000    0.000    0.000 
#    0.000    0.000    0.000    0.000    0.000    0.000 
#
# Total GULP energy -312024.169005 kJ/mol
# GULP energy per Si atom -5571.860161 kJ/mol
# Density = 2.025096 g / cm^3
# Si number density = 20.297161 Si / 1000 Ang^3
#
#
#
# Elastic Constant Matrix: (Units=GPa)
#
#
# Indices 1 2 3 4 5 6 
#
# 1 115.8663 10.5289 22.9909 0.0000 0.0000 0.0000
# 2 10.5289 39.4012 -3.0634 0.0000 0.0000 0.0000
# 3 22.9909 -3.0634 74.7353 0.0000 0.0000 0.0000
# 4 0.0000 0.0000 0.0000 24.9825 0.0000 0.0000
# 5 0.0000 0.0000 0.0000 0.0000 18.8558 0.0000
# 6 0.0000 0.0000 0.0000 0.0000 0.0000 18.2888
#
#
#
# Elastic Compliance Matrix: (Units=1/GPa)
#
#
# Indices 1 2 3 4 5 6 
#
# 1 0.009484 -0.002770 -0.003031 0.000000 0.000000 0.000000
# 2 -0.002770 0.026270 0.001929 0.000000 0.000000 0.000000
# 3 -0.003031 0.001929 0.014392 0.000000 0.000000 0.000000
# 4 0.000000 0.000000 0.000000 0.040028 0.000000 0.000000
# 5 0.000000 0.000000 0.000000 0.000000 0.053034 0.000000
# 6 0.000000 0.000000 0.000000 0.000000 0.000000 0.054678
#
#
# Mechanical properties :
#
#
# Convention : Reuss Voigt Hill
#
# Bulk Modulus (GPa) = 23.58390 32.32396 27.95393
# Shear Modulus (GPa) = 22.75163 25.72850 24.24006
#
# Velocity S-wave (km/s) = 3.35166 3.56419 3.45955
# Velocity P-wave (km/s) = 5.15972 5.73566 5.45530
#
# Compressibility (1/GPa) = 0.04240180
#
# Stress axis : x y z
#
# Youngs Moduli (GPa) = 105.44321 38.06611 69.48271
#
# Poissons Ratio (x) = 0.10544 0.21060
# Poissons Ratio (y) = 0.29207 -0.13403
# Poissons Ratio (z) = 0.31960 -0.07343
#
# Static dielectric constant tensor:
#      x y z
#    x 1.709350 0.000000 0.000000 
#    y 0.000000 1.774830 0.000000 
#    z 0.000000 0.000000 1.949850 
# 
# From -- ./inp_files/27416.got.cif
#   From: 2010.05.17/outbox.cif.g08.bks.cpg/sg52_14_cif.got.tgz:27416.got - 2010.06.03 12:15:38.
