data_PCOD9409908
_publ_section_title
;
Structure prediction by ZEFSAII (Michael W. Deem and Ramdas Pophale) SiO2 
 PCOD9409908
Probable space group: P N N A
;
_chemical_formula_sum "Si O2"
_cell_formula_units_Z 44
_cell_length_a 12.914413
_cell_length_b 13.831629
_cell_length_c 11.104417
_cell_angle_alpha 90.000000
_cell_angle_beta 90.000000
_cell_angle_gamma 90.000000
_cell_volume 1983.552797
_symmetry_space_group_name_H-M "P N N A"
_symmetry_group_IT_number 52
_symmetry_cell_setting 'orthorhombic'
loop_
_space_group_symop_operation_xyz
x,y,z
1/2-x,-y,z
x,1/2-y,1/2-z
1/2-x,1/2+y,1/2-z
-x,-y,-z
1/2+x,y,-z
-x,1/2+y,1/2+z
1/2+x,1/2-y,1/2+z
loop_
_atom_site_type_symbol
_atom_site_label
_atom_site_fract_x
_atom_site_fract_y
_atom_site_fract_z
Si Si1 0.668565 0.087672 0.667388
Si Si2 0.156276 0.375224 0.437047
Si Si3 0.554695 0.317627 0.041552
Si Si4 0.250000 0.500000 0.612451
Si Si5 0.746530 0.390881 0.160115
Si Si6 0.675305 0.731778 0.945742
O O1 0.626812 0.095368 0.802541
O O2 0.579245 0.103604 0.565689
O O3 0.744845 0.176705 0.640508
O O4 0.750000 0.000000 0.658894
O O5 0.092467 0.284700 0.486891
O O6 0.156941 0.462336 0.530774
O O7 0.277641 0.338948 0.440271
O O8 0.629852 0.352181 0.148371
O O9 0.440038 0.297638 0.085752
O O10 0.221172 0.587368 0.704026
O O11 0.750000 0.500000 0.105491
O O12 0.809228 0.316364 0.078501
#
# Coordination Sequence:
#
# PCOD9409908 Si02
#       6
#     8   8   8   4   8   8
#     4  10  20  39  63  83 113 152 189 235 279 335
#     4  10  21  42  58  81 117 154 187 230 286 340
#     4  10  20  37  61  87 112 145 191 235 283 335
#     4  10  20  42  58  76 116 152 190 230 288 328
#     4   8  19  37  56  86 110 146 189 230 279 330
#     4  10  20  37  61  87 112 145 191 235 283 335
#
# _framework density 22.18242
#
# number of rings (size 3 to 8) (size 9 to 14) (size 15 to 20)
#    0.545    2.182    0.909    4.364    0.000    5.818 
#   13.091    0.909    0.000    0.000    0.000    0.000 
#    0.000    0.000    0.000    0.000    0.000    0.000 
#
# Total GULP energy -244995.359115 kJ/mol
# GULP energy per Si atom -5568.076344 kJ/mol
# Density = 2.213193 g / cm^3
# Si number density = 22.182420 Si / 1000 Ang^3
#
#
#
# Elastic Constant Matrix: (Units=GPa)
#
#
# Indices 1 2 3 4 5 6 
#
# 1 61.4102 -28.0253 -31.9349 0.0000 0.0000 0.0000
# 2 -28.0253 34.4818 2.5769 0.0000 0.0000 0.0000
# 3 -31.9349 2.5769 103.4663 0.0000 0.0000 0.0000
# 4 0.0000 0.0000 0.0000 35.0683 0.0000 0.0000
# 5 0.0000 0.0000 0.0000 0.0000 -127.5912 0.0000
# 6 0.0000 0.0000 0.0000 0.0000 0.0000 5.5265
#
#
#
# Elastic Compliance Matrix: (Units=1/GPa)
#
#
# Indices 1 2 3 4 5 6 
#
# 1 0.033322 0.026363 0.009628 0.000000 0.000000 0.000000
# 2 0.026363 0.049912 0.006894 0.000000 0.000000 0.000000
# 3 0.009628 0.006894 0.012465 0.000000 0.000000 0.000000
# 4 0.000000 0.000000 0.000000 0.028516 0.000000 0.000000
# 5 0.000000 0.000000 0.000000 0.000000 -0.007838 0.000000
# 6 0.000000 0.000000 0.000000 0.000000 0.000000 0.180946
#
#
# Mechanical properties :
#
#
# Convention : Reuss Voigt Hill
#
# Bulk Modulus (GPa) = 5.51055 9.39907 7.45481
# Shear Modulus (GPa) = 18.37945 -0.28317 9.04814
#
# Velocity S-wave (km/s) = 2.88159 -0.35767 2.02184
# Velocity P-wave (km/s) = 3.68253 2.01886 2.96958
#
# Compressibility (1/GPa) = 0.18147011
#
# Stress axis : x y z
#
# Youngs Moduli (GPa) = 30.01017 20.03511 80.22427
#
# Poissons Ratio (x) = -0.52819 -0.77242
# Poissons Ratio (y) = -0.79116 -0.55306
# Poissons Ratio (z) = -0.28895 -0.13812
#
# Static dielectric constant tensor:
#      x y z
#    x 1.829990 0.000000 0.000000 
#    y 0.000000 2.376090 0.000000 
#    z 0.000000 0.000000 1.902370 
# 
# From -- ./inp_files/19435.got.cif
#   From: 2010.05.17/outbox.cif.g08.bks.cpg/sg52_10_cif.got.tgz:19435.got - 2010.06.03 12:15:38.
