data_PCOD9409591
_publ_section_title
;
Structure prediction by ZEFSAII (Michael W. Deem and Ramdas Pophale) SiO2 
 PCOD9409591
Probable space group: P N N A
;
_chemical_formula_sum "Si O2"
_cell_formula_units_Z 48
_cell_length_a 15.428723
_cell_length_b 11.309373
_cell_length_c 10.433708
_cell_angle_alpha 90.000000
_cell_angle_beta 90.000000
_cell_angle_gamma 90.000000
_cell_volume 1820.569188
_symmetry_space_group_name_H-M "P N N A"
_symmetry_group_IT_number 52
_symmetry_cell_setting 'orthorhombic'
loop_
_space_group_symop_operation_xyz
x,y,z
1/2-x,-y,z
x,1/2-y,1/2-z
1/2-x,1/2+y,1/2-z
-x,-y,-z
1/2+x,y,-z
-x,1/2+y,1/2+z
1/2+x,1/2-y,1/2+z
loop_
_atom_site_type_symbol
_atom_site_label
_atom_site_fract_x
_atom_site_fract_y
_atom_site_fract_z
Si Si1 0.221195 0.661333 0.420731
Si Si2 0.067311 0.129073 0.800928
Si Si3 0.432149 0.821637 0.074355
Si Si4 0.266364 0.126823 0.802996
Si Si5 0.328025 0.417857 0.138583
Si Si6 0.511507 0.071007 0.656175
O O1 0.326053 0.679888 0.410301
O O2 0.195400 0.601963 0.555340
O O3 0.184888 0.599507 0.292822
O O4 0.181528 0.791219 0.423274
O O5 0.023759 0.250000 0.750000
O O6 0.166948 0.160986 0.827014
O O7 0.036244 0.113603 0.946000
O O8 0.063127 0.020657 0.701162
O O9 0.461481 0.883907 0.203163
O O10 0.476603 0.690995 0.075403
O O11 0.307745 0.250000 0.750000
O O12 0.250000 0.000000 0.734389
O O13 0.250000 0.500000 0.095097
O O14 0.416127 0.481657 0.104625
#
# Coordination Sequence:
#
# PCOD9409591 Si02
#       6
#     8   8   8   8   8   8
#     4  10  20  34  58  95 123 155 202 259 322 367
#     4  10  24  42  59  86 124 167 206 257 321 374
#     4  10  20  39  61  84 124 165 203 259 315 376
#     4  10  23  46  66  86 121 169 217 265 311 373
#     4  11  18  32  58  95 125 152 196 255 318 377
#     4  11  21  37  61  92 124 163 206 251 319 385
#
# _framework density 26.365382
#
# number of rings (size 3 to 8) (size 9 to 14) (size 15 to 20)
#    0.000    1.667    3.333    2.000    4.667    1.333 
#    6.000    0.000    0.000    0.000    0.000    0.000 
#    0.000    0.000    0.000    0.000    0.000    0.000 
#
# Total GULP energy -267909.097228 kJ/mol
# GULP energy per Si atom -5581.439526 kJ/mol
# Density = 2.630537 g / cm^3
# Si number density = 26.365382 Si / 1000 Ang^3
#
#
#
# Elastic Constant Matrix: (Units=GPa)
#
#
# Indices 1 2 3 4 5 6 
#
# 1 45.0688 -15.4401 -3.8996 0.0000 0.0000 0.0000
# 2 -15.4401 142.0720 16.5530 0.0000 0.0000 0.0000
# 3 -3.8996 16.5530 82.9766 0.0000 0.0000 0.0000
# 4 0.0000 0.0000 0.0000 18.7523 0.0000 0.0000
# 5 0.0000 0.0000 0.0000 0.0000 6.3075 0.0000
# 6 0.0000 0.0000 0.0000 0.0000 0.0000 11.3053
#
#
#
# Elastic Compliance Matrix: (Units=1/GPa)
#
#
# Indices 1 2 3 4 5 6 
#
# 1 0.023075 0.002438 0.000598 0.000000 0.000000 0.000000
# 2 0.002438 0.007464 -0.001374 0.000000 0.000000 0.000000
# 3 0.000598 -0.001374 0.012354 0.000000 0.000000 0.000000
# 4 0.000000 0.000000 0.000000 0.053327 0.000000 0.000000
# 5 0.000000 0.000000 0.000000 0.000000 0.158541 0.000000
# 6 0.000000 0.000000 0.000000 0.000000 0.000000 0.088454
#
#
# Mechanical properties :
#
#
# Convention : Reuss Voigt Hill
#
# Bulk Modulus (GPa) = 21.63724 29.39376 25.51550
# Shear Modulus (GPa) = 14.07274 25.46662 19.76968
#
# Velocity S-wave (km/s) = 2.31283 3.11128 2.74128
# Velocity P-wave (km/s) = 3.91877 4.90710 4.44051
#
# Compressibility (1/GPa) = 0.04621662
#
# Stress axis : x y z
#
# Youngs Moduli (GPa) = 43.33633 133.98030 80.94625
#
# Poissons Ratio (x) = -0.32666 -0.04841
# Poissons Ratio (y) = -0.10566 0.11125
# Poissons Ratio (z) = -0.02592 0.18414
#
# Static dielectric constant tensor:
#      x y z
#    x 2.100350 0.000000 0.000000 
#    y 0.000000 1.976920 0.000000 
#    z 0.000000 0.000000 2.116200 
# 
# From -- ./inp_files/20624.got.cif
#   From: 2010.05.17/outbox.cif.g08.bks.cpg/sg52_11_cif.got.tgz:20624.got - 2010.06.03 12:15:38.
