data_PCOD9409273
_publ_section_title
;
Structure prediction by ZEFSAII (Michael W. Deem and Ramdas Pophale) SiO2 
 PCOD9409273
Probable space group: P N N A
;
_chemical_formula_sum "Si O2"
_cell_formula_units_Z 60
_cell_length_a 11.601465
_cell_length_b 16.726104
_cell_length_c 13.959004
_cell_angle_alpha 90.000000
_cell_angle_beta 90.000000
_cell_angle_gamma 90.000000
_cell_volume 2708.707178
_symmetry_space_group_name_H-M "P N N A"
_symmetry_group_IT_number 52
_symmetry_cell_setting 'orthorhombic'
loop_
_space_group_symop_operation_xyz
x,y,z
1/2-x,-y,z
x,1/2-y,1/2-z
1/2-x,1/2+y,1/2-z
-x,-y,-z
1/2+x,y,-z
-x,1/2+y,1/2+z
1/2+x,1/2-y,1/2+z
loop_
_atom_site_type_symbol
_atom_site_label
_atom_site_fract_x
_atom_site_fract_y
_atom_site_fract_z
Si Si1 0.091416 0.049670 0.787914
Si Si2 0.317342 0.709669 0.655731
Si Si3 0.250000 0.500000 0.226474
Si Si4 0.650469 0.875157 0.865614
Si Si5 0.971334 0.281522 0.940815
Si Si6 0.574182 0.932056 0.054281
Si Si7 0.972857 0.464759 0.895646
Si Si8 0.453092 0.267196 0.641776
O O1 0.177325 0.117365 0.820564
O O2 0.968619 0.088349 0.822399
O O3 0.080260 0.027908 0.677366
O O4 0.113930 0.972801 0.849829
O O5 0.369224 0.750000 0.750000
O O6 0.403389 0.741931 0.576603
O O7 0.185696 0.731841 0.645386
O O8 0.259375 0.420283 0.295162
O O9 0.137676 0.496988 0.158137
O O10 0.619154 0.781557 0.889880
O O11 0.666603 0.907077 0.974220
O O12 0.952931 0.369110 0.899165
O O13 0.972491 0.293943 0.055654
O O14 0.511122 0.851860 0.092448
O O15 0.500000 0.000000 0.000000
O O16 0.000000 0.500000 0.000000
O O17 0.495617 0.250000 0.750000
#
# Coordination Sequence:
#
# PCOD9409273 Si02
#       8
#     8   8   4   8   8   8   8   8
#     4   9  18  34  60  85 120 168 212 256 325 395
#     4  10  19  38  63  91 122 168 227 261 328 418
#     4  10  22  40  62  98 132 168 224 288 332 404
#     4   8  18  36  63  90 120 165 213 273 330 403
#     4  10  21  41  69  88 130 180 217 274 349 410
#     4   9  18  36  60  91 127 166 211 273 352 397
#     4  11  24  40  63  95 135 184 227 269 334 417
#     4  10  23  38  62  97 132 165 223 289 331 410
#
# _framework density 22.150787999999999
#
# number of rings (size 3 to 8) (size 9 to 14) (size 15 to 20)
#    0.000    2.400    1.333    0.800    1.867    3.733 
#    0.000    5.333    0.000    6.400    0.000    0.000 
#    0.000    0.000    0.000    0.000    0.000    0.000 
#
# Total GULP energy -334068.540771 kJ/mol
# GULP energy per Si atom -5567.809013 kJ/mol
# Density = 2.210037 g / cm^3
# Si number density = 22.150788 Si / 1000 Ang^3
#
#
#
# Elastic Constant Matrix: (Units=GPa)
#
#
# Indices 1 2 3 4 5 6 
#
# 1 42.4165 23.5449 30.6901 0.0000 0.0000 0.0000
# 2 23.5449 107.4436 49.0251 0.0000 0.0000 0.0000
# 3 30.6901 49.0251 179.0317 0.0000 0.0000 0.0000
# 4 0.0000 0.0000 0.0000 34.6151 0.0000 0.0000
# 5 0.0000 0.0000 0.0000 0.0000 27.6626 0.0000
# 6 0.0000 0.0000 0.0000 0.0000 0.0000 18.5253
#
#
#
# Elastic Compliance Matrix: (Units=1/GPa)
#
#
# Indices 1 2 3 4 5 6 
#
# 1 0.028804 -0.004639 -0.003667 0.000000 0.000000 0.000000
# 2 -0.004639 0.011383 -0.002322 0.000000 0.000000 0.000000
# 3 -0.003667 -0.002322 0.006850 0.000000 0.000000 0.000000
# 4 0.000000 0.000000 0.000000 0.028889 0.000000 0.000000
# 5 0.000000 0.000000 0.000000 0.000000 0.036150 0.000000
# 6 0.000000 0.000000 0.000000 0.000000 0.000000 0.053980
#
#
# Mechanical properties :
#
#
# Convention : Reuss Voigt Hill
#
# Bulk Modulus (GPa) = 38.78771 59.49023 49.13897
# Shear Modulus (GPa) = 25.52236 31.20271 28.36253
#
# Velocity S-wave (km/s) = 3.39810 3.75727 3.58219
# Velocity P-wave (km/s) = 5.73977 6.76299 6.27228
#
# Compressibility (1/GPa) = 0.02578136
#
# Stress axis : x y z
#
# Youngs Moduli (GPa) = 34.71717 87.84892 145.98288
#
# Poissons Ratio (x) = 0.40750 0.53539
# Poissons Ratio (y) = 0.16104 0.33896
# Poissons Ratio (z) = 0.12732 0.20398
#
# Static dielectric constant tensor:
#      x y z
#    x 1.909250 0.000000 0.000000 
#    y 0.000000 2.621850 0.000000 
#    z 0.000000 0.000000 1.810810 
# 
# From -- ./inp_files/26318.got.cif
#   From: 2010.05.17/outbox.cif.g08.bks.cpg/sg52_14_cif.got.tgz:26318.got - 2010.06.03 12:15:38.
