data_PCOD9409285
_publ_section_title
;
Structure prediction by ZEFSAII (Michael W. Deem and Ramdas Pophale) SiO2 
 PCOD9409285
Probable space group: P N N A
;
_chemical_formula_sum "Si O2"
_cell_formula_units_Z 32
_cell_length_a 18.618783
_cell_length_b 5.814493
_cell_length_c 13.154332
_cell_angle_alpha 90.000000
_cell_angle_beta 90.000000
_cell_angle_gamma 90.000000
_cell_volume 1424.071979
_symmetry_space_group_name_H-M "P N N A"
_symmetry_group_IT_number 52
_symmetry_cell_setting 'orthorhombic'
loop_
_space_group_symop_operation_xyz
x,y,z
1/2-x,-y,z
x,1/2-y,1/2-z
1/2-x,1/2+y,1/2-z
-x,-y,-z
1/2+x,y,-z
-x,1/2+y,1/2+z
1/2+x,1/2-y,1/2+z
loop_
_atom_site_type_symbol
_atom_site_label
_atom_site_fract_x
_atom_site_fract_y
_atom_site_fract_z
Si Si1 0.038340 0.750000 0.750000
Si Si2 0.405515 0.628025 0.858108
Si Si3 0.964653 0.101640 0.899721
Si Si4 0.672192 0.395040 0.539531
Si Si5 0.788859 0.750000 0.750000
O O1 0.988331 0.568113 0.691412
O O2 0.092507 0.640288 0.833500
O O3 0.388245 0.750000 0.750000
O O4 0.490247 0.670384 0.881385
O O5 0.359683 0.746076 0.946395
O O6 0.881118 0.100352 0.924152
O O7 0.000000 0.000000 0.000000
O O8 0.750000 0.500000 0.515692
O O9 0.672869 0.238390 0.640811
O O10 0.750000 0.500000 0.742089
#
# Coordination Sequence:
#
# PCOD9409285 Si02
#       5
#     4   8   8   8   4
#     4  10  19  38  64  98 132 171 228 282 343 404
#     4   9  20  41  68  98 131 174 229 286 342 417
#     4   9  19  37  62  91 125 167 220 275 335 400
#     4  10  21  42  66  98 138 181 228 285 355 424
#     4  10  23  48  64  98 138 187 234 282 349 428
#
# _framework density 22.470773000000001
#
# number of rings (size 3 to 8) (size 9 to 14) (size 15 to 20)
#    0.000    2.500    0.000    0.750    0.000    4.000 
#   63.000    1.250   11.000    0.000    0.000    0.000 
#    0.000    0.000    0.000    0.000    0.000    0.000 
#
# Total GULP energy -178194.916507 kJ/mol
# GULP energy per Si atom -5568.591141 kJ/mol
# Density = 2.241963 g / cm^3
# Si number density = 22.470773 Si / 1000 Ang^3
#
#
#
# Elastic Constant Matrix: (Units=GPa)
#
#
# Indices 1 2 3 4 5 6 
#
# 1 134.0759 33.5017 58.1867 0.0000 0.0000 0.0000
# 2 33.5017 59.9592 33.3996 0.0000 0.0000 0.0000
# 3 58.1867 33.3996 172.2752 0.0000 0.0000 0.0000
# 4 0.0000 0.0000 0.0000 31.0255 0.0000 0.0000
# 5 0.0000 0.0000 0.0000 0.0000 21.4205 0.0000
# 6 0.0000 0.0000 0.0000 0.0000 0.0000 15.9065
#
#
#
# Elastic Compliance Matrix: (Units=1/GPa)
#
#
# Indices 1 2 3 4 5 6 
#
# 1 0.009507 -0.003950 -0.002445 0.000000 0.000000 0.000000
# 2 -0.003950 0.020338 -0.002609 0.000000 0.000000 0.000000
# 3 -0.002445 -0.002609 0.007136 0.000000 0.000000 0.000000
# 4 0.000000 0.000000 0.000000 0.032232 0.000000 0.000000
# 5 0.000000 0.000000 0.000000 0.000000 0.046684 0.000000
# 6 0.000000 0.000000 0.000000 0.000000 0.000000 0.062867
#
#
# Mechanical properties :
#
#
# Convention : Reuss Voigt Hill
#
# Bulk Modulus (GPa) = 52.70534 68.49848 60.60191
# Shear Modulus (GPa) = 24.61885 29.75197 27.18541
#
# Velocity S-wave (km/s) = 3.31357 3.64267 3.48201
# Velocity P-wave (km/s) = 6.17621 6.94562 6.57218
#
# Compressibility (1/GPa) = 0.01897341
#
# Stress axis : x y z
#
# Youngs Moduli (GPa) = 105.19104 49.16862 140.12780
#
# Poissons Ratio (x) = 0.19420 0.34263
# Poissons Ratio (y) = 0.41547 0.36560
# Poissons Ratio (z) = 0.25721 0.12828
#
# Static dielectric constant tensor:
#      x y z
#    x 1.910170 0.000000 0.000000 
#    y 0.000000 2.006610 0.000000 
#    z 0.000000 0.000000 1.876200 
# 
# From -- ./inp_files/27719.got.cif
#   From: 2010.05.17/outbox.cif.g08.bks.cpg/sg52_14_cif.got.tgz:27719.got - 2010.06.03 12:15:38.
