data_PCOD9409898
_publ_section_title
;
Structure prediction by ZEFSAII (Michael W. Deem and Ramdas Pophale) SiO2 
 PCOD9409898
Probable space group: P N N A
;
_chemical_formula_sum "Si O2"
_cell_formula_units_Z 48
_cell_length_a 16.922960
_cell_length_b 10.891656
_cell_length_c 14.196433
_cell_angle_alpha 90.000000
_cell_angle_beta 90.000000
_cell_angle_gamma 90.000000
_cell_volume 2616.673169
_symmetry_space_group_name_H-M "P N N A"
_symmetry_group_IT_number 52
_symmetry_cell_setting 'orthorhombic'
loop_
_space_group_symop_operation_xyz
x,y,z
1/2-x,-y,z
x,1/2-y,1/2-z
1/2-x,1/2+y,1/2-z
-x,-y,-z
1/2+x,y,-z
-x,1/2+y,1/2+z
1/2+x,1/2-y,1/2+z
loop_
_atom_site_type_symbol
_atom_site_label
_atom_site_fract_x
_atom_site_fract_y
_atom_site_fract_z
Si Si1 0.802047 0.616427 0.253621
Si Si2 0.907162 0.886322 0.427702
Si Si3 0.305714 0.382967 0.242089
Si Si4 0.667615 0.366892 0.473061
Si Si5 0.594293 0.877816 0.550543
Si Si6 0.347942 0.380429 0.450302
O O1 0.750000 0.500000 0.227557
O O2 0.760263 0.750000 0.250000
O O3 0.872184 0.879229 0.322408
O O4 0.826040 0.604414 0.362041
O O5 0.873557 0.765465 0.480961
O O6 0.001657 0.886025 0.427139
O O7 0.882569 0.011691 0.480626
O O8 0.250000 0.500000 0.246431
O O9 0.262920 0.250000 0.250000
O O10 0.355342 0.388829 0.146408
O O11 0.356855 0.382892 0.337433
O O12 0.625137 0.486440 0.514922
O O13 0.755132 0.365126 0.520179
O O14 0.610724 0.741465 0.511041
#
# Coordination Sequence:
#
# PCOD9409898 Si02
#       6
#     8   8   8   8   8   8
#     4  10  21  35  60  86 114 150 188 241 285 342
#     4  10  24  40  57  86 119 156 193 233 288 347
#     4  10  21  35  60  86 114 150 188 241 285 342
#     4  10  20  37  60  88 116 147 195 242 285 341
#     4  10  24  40  57  86 119 156 193 233 288 347
#     4  10  20  37  60  88 116 147 195 242 285 341
#
# _framework density 18.343903000000001
#
# number of rings (size 3 to 8) (size 9 to 14) (size 15 to 20)
#    0.000    2.000    3.333    0.000    9.333    6.667 
#    0.000    0.000    0.000    5.000    0.000    0.000 
#    0.000    0.000    0.000    0.000    0.000    0.000 
#
# Total GULP energy -267438.005572 kJ/mol
# GULP energy per Si atom -5571.625116 kJ/mol
# Density = 1.830215 g / cm^3
# Si number density = 18.343903 Si / 1000 Ang^3
#
#
#
# Elastic Constant Matrix: (Units=GPa)
#
#
# Indices 1 2 3 4 5 6 
#
# 1 25.1568 14.8627 -8.3319 0.0000 0.0000 0.0000
# 2 14.8627 112.4546 1.9732 0.0000 0.0000 0.0000
# 3 -8.3319 1.9732 47.9828 0.0000 0.0000 0.0000
# 4 0.0000 0.0000 0.0000 31.6556 0.0000 0.0000
# 5 0.0000 0.0000 0.0000 0.0000-1265.5842 0.0000
# 6 0.0000 0.0000 0.0000 0.0000 0.0000 20.9298
#
#
#
# Elastic Compliance Matrix: (Units=1/GPa)
#
#
# Indices 1 2 3 4 5 6 
#
# 1 0.046184 -0.006249 0.008276 0.000000 0.000000 0.000000
# 2 -0.006249 0.009744 -0.001486 0.000000 0.000000 0.000000
# 3 0.008276 -0.001486 0.022339 0.000000 0.000000 0.000000
# 4 0.000000 0.000000 0.000000 0.031590 0.000000 0.000000
# 5 0.000000 0.000000 0.000000 0.000000 -0.000790 0.000000
# 6 0.000000 0.000000 0.000000 0.000000 0.000000 0.047779
#
#
# Mechanical properties :
#
#
# Convention : Reuss Voigt Hill
#
# Bulk Modulus (GPa) = 12.60233 22.51135 17.55684
# Shear Modulus (GPa) = 27.44040 -230.79373 -101.67667
#
# Velocity S-wave (km/s) = 3.87187 -11.22890 -7.45308
# Velocity P-wave (km/s) = 5.18396 12.48275 8.02949
#
# Compressibility (1/GPa) = 0.07935038
#
# Stress axis : x y z
#
# Youngs Moduli (GPa) = 21.65259 102.62229 44.76461
#
# Poissons Ratio (x) = 0.64130 -0.37049
# Poissons Ratio (y) = 0.13531 0.06651
# Poissons Ratio (z) = -0.17921 0.15248
#
# Static dielectric constant tensor:
#      x y z
#    x 1.610600 0.000000 0.000000 
#    y 0.000000 1.691670 0.000000 
#    z 0.000000 0.000000 1.630850 
# 
# From -- ./inp_files/28603.got.cif
#   From: 2010.05.17/outbox.cif.g08.bks.cpg/sg52_15_cif.got.tgz:28603.got - 2010.06.03 12:15:38.
