data_PCOD9409310
_publ_section_title
;
Structure prediction by ZEFSAII (Michael W. Deem and Ramdas Pophale) SiO2 
 PCOD9409310
Probable space group: P N N A
;
_chemical_formula_sum "Si O2"
_cell_formula_units_Z 60
_cell_length_a 14.739397
_cell_length_b 22.672054
_cell_length_c 9.294689
_cell_angle_alpha 90.000000
_cell_angle_beta 90.000000
_cell_angle_gamma 90.000000
_cell_volume 3106.028574
_symmetry_space_group_name_H-M "P N N A"
_symmetry_group_IT_number 52
_symmetry_cell_setting 'orthorhombic'
loop_
_space_group_symop_operation_xyz
x,y,z
1/2-x,-y,z
x,1/2-y,1/2-z
1/2-x,1/2+y,1/2-z
-x,-y,-z
1/2+x,y,-z
-x,1/2+y,1/2+z
1/2+x,1/2-y,1/2+z
loop_
_atom_site_type_symbol
_atom_site_label
_atom_site_fract_x
_atom_site_fract_y
_atom_site_fract_z
Si Si1 0.839294 0.795052 0.635924
Si Si2 0.750000 0.000000 0.683693
Si Si3 0.348212 0.383895 0.496976
Si Si4 0.516424 0.569180 0.289975
Si Si5 0.330764 0.603839 0.365931
Si Si6 0.493514 0.351100 0.994492
Si Si7 0.073818 0.946027 0.290419
Si Si8 0.858017 0.250210 0.578498
O O1 0.884807 0.750000 0.750000
O O2 0.811270 0.847664 0.743247
O O3 0.748916 0.766102 0.571981
O O4 0.909644 0.818848 0.520063
O O5 0.697003 0.044181 0.786926
O O6 0.836565 0.033638 0.614975
O O7 0.390775 0.419909 0.627504
O O8 0.238863 0.385949 0.493537
O O9 0.384342 0.416018 0.352209
O O10 0.374688 0.314945 0.486964
O O11 0.437099 0.596664 0.392908
O O12 0.488243 0.502484 0.249477
O O13 0.514471 0.609200 0.148203
O O14 0.481320 0.396521 0.124713
O O15 0.417357 0.300763 0.006308
O O16 0.879503 0.250000 0.750000
#
# Coordination Sequence:
#
# PCOD9409310 Si02
#       8
#     8   4   8   8   8   8   8   8
#     4  10  20  37  59  88 117 160 202 246 295 370
#     4   8  16  30  62  84 110 152 206 240 276 356
#     4  11  20  35  62  85 117 160 205 248 299 366
#     4  10  23  36  59  90 122 155 200 257 304 354
#     4   9  17  34  55  82 113 154 198 236 292 359
#     4  11  23  37  64  91 122 159 205 251 310 362
#     4  10  19  39  60  91 120 161 207 249 303 369
#     4  11  20  37  61  87 118 161 207 246 303 371
#
# _framework density 19.317273
#
# number of rings (size 3 to 8) (size 9 to 14) (size 15 to 20)
#    0.000    1.867    4.000    1.600    3.733    0.000 
#    0.000    1.333    2.933    6.400    0.000    0.000 
#    0.000    0.000    0.000    0.000    0.000    0.000 
#
# Total GULP energy -334355.346490 kJ/mol
# GULP energy per Si atom -5572.589108 kJ/mol
# Density = 1.927331 g / cm^3
# Si number density = 19.317273 Si / 1000 Ang^3
#
#
#
# Elastic Constant Matrix: (Units=GPa)
#
#
# Indices 1 2 3 4 5 6 
#
# 1 66.5575 34.7405 14.2395 0.0000 0.0000 0.0000
# 2 34.7405 124.2320 15.3980 0.0000 0.0000 0.0000
# 3 14.2395 15.3980 20.6554 0.0000 0.0000 0.0000
# 4 0.0000 0.0000 0.0000 4.2673 0.0000 0.0000
# 5 0.0000 0.0000 0.0000 0.0000 22.2919 0.0000
# 6 0.0000 0.0000 0.0000 0.0000 0.0000 23.7957
#
#
#
# Elastic Compliance Matrix: (Units=1/GPa)
#
#
# Indices 1 2 3 4 5 6 
#
# 1 0.019388 -0.004148 -0.010273 0.000000 0.000000 0.000000
# 2 -0.004148 0.009757 -0.004413 0.000000 0.000000 0.000000
# 3 -0.010273 -0.004413 0.058786 0.000000 0.000000 0.000000
# 4 0.000000 0.000000 0.000000 0.234339 0.000000 0.000000
# 5 0.000000 0.000000 0.000000 0.000000 0.044859 0.000000
# 6 0.000000 0.000000 0.000000 0.000000 0.000000 0.042024
#
#
# Mechanical properties :
#
#
# Convention : Reuss Voigt Hill
#
# Bulk Modulus (GPa) = 19.89645 37.80011 28.84828
# Shear Modulus (GPa) = 10.78571 19.87544 15.33057
#
# Velocity S-wave (km/s) = 2.36550 3.21112 2.82018
# Velocity P-wave (km/s) = 4.21698 5.77572 5.05677
#
# Compressibility (1/GPa) = 0.05026023
#
# Stress axis : x y z
#
# Youngs Moduli (GPa) = 51.57895 102.49553 17.01089
#
# Poissons Ratio (x) = 0.42518 0.17476
# Poissons Ratio (y) = 0.21397 0.07508
# Poissons Ratio (z) = 0.52988 0.45236
#
# Static dielectric constant tensor:
#      x y z
#    x 1.744870 0.000000 0.000000 
#    y 0.000000 1.672760 0.000000 
#    z 0.000000 0.000000 1.654810 
# 
# From -- ./inp_files/10967.got.cif
#   From: 2010.05.17/outbox.cif.g08.bks.cpg/sg52_6_cif.got.tgz:10967.got - 2010.06.03 12:15:38.
