data_PCOD9409751
_publ_section_title
;
Structure prediction by ZEFSAII (Michael W. Deem and Ramdas Pophale) SiO2 
 PCOD9409751
Probable space group: P N N A
;
_chemical_formula_sum "Si O2"
_cell_formula_units_Z 40
_cell_length_a 8.237027
_cell_length_b 19.024923
_cell_length_c 14.867214
_cell_angle_alpha 90.000000
_cell_angle_beta 90.000000
_cell_angle_gamma 90.000000
_cell_volume 2329.823331
_symmetry_space_group_name_H-M "P N N A"
_symmetry_group_IT_number 52
_symmetry_cell_setting 'orthorhombic'
loop_
_space_group_symop_operation_xyz
x,y,z
1/2-x,-y,z
x,1/2-y,1/2-z
1/2-x,1/2+y,1/2-z
-x,-y,-z
1/2+x,y,-z
-x,1/2+y,1/2+z
1/2+x,1/2-y,1/2+z
loop_
_atom_site_type_symbol
_atom_site_label
_atom_site_fract_x
_atom_site_fract_y
_atom_site_fract_z
Si Si1 0.833300 0.151063 0.222890
Si Si2 0.802416 0.763567 0.394568
Si Si3 0.372401 0.750000 0.250000
Si Si4 0.750000 0.500000 0.217503
Si Si5 0.156598 0.695943 0.085343
Si Si6 0.568167 0.968555 0.594154
O O1 0.750676 0.184660 0.313004
O O2 0.758876 0.187711 0.135668
O O3 0.801166 0.069008 0.227404
O O4 0.014026 0.183206 0.225783
O O5 0.993177 0.760799 0.403599
O O6 0.731466 0.791136 0.487646
O O7 0.272453 0.722527 0.164711
O O8 0.585261 0.483093 0.160230
O O9 0.103094 0.614591 0.090821
O O10 0.750000 0.000000 0.613925
O O11 0.500000 0.000000 0.500000
#
# Coordination Sequence:
#
# PCOD9409751 Si02
#       6
#     8   8   4   4   8   8
#     4  10  21  39  57  86 120 158 198 251 302 369
#     4  10  20  36  58  83 117 155 203 244 301 355
#     4  10  22  38  62  88 120 156 216 250 310 368
#     4  12  22  40  60  88 130 160 200 258 316 376
#     4  12  21  37  61  87 120 160 202 256 299 368
#     4  12  23  36  57  93 132 163 198 246 324 386
#
# _framework density 17.168683000000001
#
# number of rings (size 3 to 8) (size 9 to 14) (size 15 to 20)
#    0.000    1.200    3.000    7.200    0.000    0.000 
#    0.000    0.000    0.000    4.800    0.000    0.000 
#    0.000    0.000    0.000    0.000    0.000    0.000 
#
# Total GULP energy -223005.204331 kJ/mol
# GULP energy per Si atom -5575.130108 kJ/mol
# Density = 1.712961 g / cm^3
# Si number density = 17.168683 Si / 1000 Ang^3
#
#
#
# Elastic Constant Matrix: (Units=GPa)
#
#
# Indices 1 2 3 4 5 6 
#
# 1 142.9631 44.2291 33.7040 0.0000 0.0000 0.0000
# 2 44.2291 136.9602 32.6996 0.0000 0.0000 0.0000
# 3 33.7040 32.6996 43.3490 0.0000 0.0000 0.0000
# 4 0.0000 0.0000 0.0000 15.1366 0.0000 0.0000
# 5 0.0000 0.0000 0.0000 0.0000 14.2314 0.0000
# 6 0.0000 0.0000 0.0000 0.0000 0.0000 21.4481
#
#
#
# Elastic Compliance Matrix: (Units=1/GPa)
#
#
# Indices 1 2 3 4 5 6 
#
# 1 0.008802 -0.001474 -0.005732 0.000000 0.000000 0.000000
# 2 -0.001474 0.009152 -0.005758 0.000000 0.000000 0.000000
# 3 -0.005732 -0.005758 0.031868 0.000000 0.000000 0.000000
# 4 0.000000 0.000000 0.000000 0.066065 0.000000 0.000000
# 5 0.000000 0.000000 0.000000 0.000000 0.070267 0.000000
# 6 0.000000 0.000000 0.000000 0.000000 0.000000 0.046624
#
#
# Mechanical properties :
#
#
# Convention : Reuss Voigt Hill
#
# Bulk Modulus (GPa) = 41.84883 60.50419 51.17651
# Shear Modulus (GPa) = 18.74972 24.33921 21.54446
#
# Velocity S-wave (km/s) = 3.30826 3.76926 3.54626
# Velocity P-wave (km/s) = 6.24666 7.36618 6.82940
#
# Compressibility (1/GPa) = 0.02389553
#
# Stress axis : x y z
#
# Youngs Moduli (GPa) = 113.60905 109.26512 31.37927
#
# Poissons Ratio (x) = 0.16106 0.17986
# Poissons Ratio (y) = 0.16746 0.18067
# Poissons Ratio (z) = 0.65118 0.62911
#
# Static dielectric constant tensor:
#      x y z
#    x 1.629200 0.000000 0.000000 
#    y 0.000000 1.602560 0.000000 
#    z 0.000000 0.000000 1.525750 
# 
# From -- ./inp_files/24593.got.cif
#   From: 2010.05.17/outbox.cif.g08.bks.cpg/sg52_13_cif.got.tgz:24593.got - 2010.06.03 12:15:38.
