data_PCOD9409296
_publ_section_title
;
Structure prediction by ZEFSAII (Michael W. Deem and Ramdas Pophale) SiO2 
 PCOD9409296
Probable space group: P N N A
;
_chemical_formula_sum "Si O2"
_cell_formula_units_Z 44
_cell_length_a 13.385939
_cell_length_b 22.768638
_cell_length_c 5.797106
_cell_angle_alpha 90.000000
_cell_angle_beta 90.000000
_cell_angle_gamma 90.000000
_cell_volume 1766.839644
_symmetry_space_group_name_H-M "P N N A"
_symmetry_group_IT_number 52
_symmetry_cell_setting 'orthorhombic'
loop_
_space_group_symop_operation_xyz
x,y,z
1/2-x,-y,z
x,1/2-y,1/2-z
1/2-x,1/2+y,1/2-z
-x,-y,-z
1/2+x,y,-z
-x,1/2+y,1/2+z
1/2+x,1/2-y,1/2+z
loop_
_atom_site_type_symbol
_atom_site_label
_atom_site_fract_x
_atom_site_fract_y
_atom_site_fract_z
Si Si1 0.277169 0.400177 0.689418
Si Si2 0.417799 0.740604 0.504713
Si Si3 0.580749 0.948698 0.832102
Si Si4 0.920040 0.609096 0.574515
Si Si5 0.056877 0.850559 0.542490
Si Si6 0.750000 0.500000 0.957442
O O1 0.358296 0.439868 0.564033
O O2 0.195542 0.387365 0.494207
O O3 0.343609 0.348472 0.799314
O O4 0.236810 0.441406 0.892050
O O5 0.362367 0.750000 0.750000
O O6 0.455359 0.673974 0.508244
O O7 0.507578 0.787858 0.504086
O O8 0.367799 0.750000 0.250000
O O9 0.587260 0.890018 0.674249
O O10 0.647430 0.994554 0.689745
O O11 0.467341 0.943688 0.924159
O O12 0.968596 0.611794 0.827901
#
# Coordination Sequence:
#
# PCOD9409296 Si02
#       6
#     8   8   8   8   8   4
#     4  10  22  40  63  96 127 171 226 273 336 408
#     4  10  19  38  67  91 132 177 215 264 336 395
#     4  10  20  40  63  86 130 169 210 281 334 398
#     4  10  21  38  66  92 129 168 221 279 330 400
#     4   9  20  38  64  89 131 176 208 269 334 396
#     4  10  22  40  62  92 126 170 222 276 346 406
#
# _framework density 24.903222
#
# number of rings (size 3 to 8) (size 9 to 14) (size 15 to 20)
#    0.000    2.182    1.818    0.545    0.000    3.636 
#    0.000   17.273   16.000    0.000    0.000    0.000 
#    0.000    0.000    0.000    0.000    0.000    0.000 
#
# Total GULP energy -245246.373107 kJ/mol
# GULP energy per Si atom -5573.781207 kJ/mol
# Density = 2.484654 g / cm^3
# Si number density = 24.903222 Si / 1000 Ang^3
#
#
#
# Elastic Constant Matrix: (Units=GPa)
#
#
# Indices 1 2 3 4 5 6 
#
# 1 110.8550 27.5005 12.8357 0.0000 0.0000 0.0000
# 2 27.5005 90.4750 0.0144 0.0000 0.0000 0.0000
# 3 12.8357 0.0144 95.0700 0.0000 0.0000 0.0000
# 4 0.0000 0.0000 0.0000 25.5805 0.0000 0.0000
# 5 0.0000 0.0000 0.0000 0.0000 16.2297 0.0000
# 6 0.0000 0.0000 0.0000 0.0000 0.0000 22.2297
#
#
#
# Elastic Compliance Matrix: (Units=1/GPa)
#
#
# Indices 1 2 3 4 5 6 
#
# 1 0.009924 -0.003016 -0.001339 0.000000 0.000000 0.000000
# 2 -0.003016 0.011970 0.000405 0.000000 0.000000 0.000000
# 3 -0.001339 0.000405 0.010699 0.000000 0.000000 0.000000
# 4 0.000000 0.000000 0.000000 0.039092 0.000000 0.000000
# 5 0.000000 0.000000 0.000000 0.000000 0.061615 0.000000
# 6 0.000000 0.000000 0.000000 0.000000 0.000000 0.044985
#
#
# Mechanical properties :
#
#
# Convention : Reuss Voigt Hill
#
# Bulk Modulus (GPa) = 40.49823 41.90010 41.19917
# Shear Modulus (GPa) = 25.71790 29.87793 27.79792
#
# Velocity S-wave (km/s) = 3.21707 3.46752 3.34464
# Velocity P-wave (km/s) = 5.48607 5.73526 5.61205
#
# Compressibility (1/GPa) = 0.02469244
#
# Stress axis : x y z
#
# Youngs Moduli (GPa) = 100.76422 83.54545 93.46362
#
# Poissons Ratio (x) = 0.25200 0.12519
# Poissons Ratio (y) = 0.30393 -0.03789
# Poissons Ratio (z) = 0.13497 -0.03387
#
# Static dielectric constant tensor:
#      x y z
#    x 1.961710 0.000000 0.000000 
#    y 0.000000 2.024780 0.000000 
#    z 0.000000 0.000000 2.063710 
# 
# From -- ./inp_files/2379.got.cif
#   From: 2010.05.17/outbox.cif.g08.bks.cpg/sg52_2_cif.got.tgz:2379.got - 2010.06.03 12:15:38.
