data_PCOD9409992
_publ_section_title
;
Structure prediction by ZEFSAII (Michael W. Deem and Ramdas Pophale) SiO2 
 PCOD9409992
Probable space group: P N N A
;
_chemical_formula_sum "Si O2"
_cell_formula_units_Z 24
_cell_length_a 16.342254
_cell_length_b 4.961852
_cell_length_c 13.344929
_cell_angle_alpha 90.000000
_cell_angle_beta 90.000000
_cell_angle_gamma 90.000000
_cell_volume 1082.111544
_symmetry_space_group_name_H-M "P N N A"
_symmetry_group_IT_number 52
_symmetry_cell_setting 'orthorhombic'
loop_
_space_group_symop_operation_xyz
x,y,z
1/2-x,-y,z
x,1/2-y,1/2-z
1/2-x,1/2+y,1/2-z
-x,-y,-z
1/2+x,y,-z
-x,1/2+y,1/2+z
1/2+x,1/2-y,1/2+z
loop_
_atom_site_type_symbol
_atom_site_label
_atom_site_fract_x
_atom_site_fract_y
_atom_site_fract_z
Si Si1 0.017715 0.749935 0.570302
Si Si2 0.695799 0.731382 0.475316
Si Si3 0.370313 0.518877 0.313822
O O1 0.949731 0.694350 0.653152
O O2 0.000000 0.500000 0.500000
O O3 0.114092 0.772565 0.590335
O O4 0.000000 0.000000 0.500000
O O5 0.750000 0.500000 0.426148
O O6 0.668052 0.602427 0.583146
O O7 0.750000 0.000000 0.489723
O O8 0.320947 0.750000 0.250000
O O9 0.388831 0.250000 0.250000
#
# Coordination Sequence:
#
# PCOD9409992 Si02
#       3
#     8   8   8
#     4  10  20  38  58  78 110 155 199 227 268 346
#     4  11  22  37  58  85 116 149 186 235 289 341
#     4  11  22  37  58  85 116 152 192 238 291 347
#
# _framework density 22.178858999999999
#
# number of rings (size 3 to 8) (size 9 to 14) (size 15 to 20)
#    0.000    1.333    0.000   10.000    0.000    2.667 
#    0.000    3.333    0.000    4.000    0.000    0.000 
#    0.000    0.000    0.000    0.000    0.000    0.000 
#
# Total GULP energy -133794.630985 kJ/mol
# GULP energy per Si atom -5574.776291 kJ/mol
# Density = 2.212838 g / cm^3
# Si number density = 22.178859 Si / 1000 Ang^3
#
#
#
# Elastic Constant Matrix: (Units=GPa)
#
#
# Indices 1 2 3 4 5 6 
#
# 1 155.3775 43.2925 -2.4847 0.0000 0.0000 0.0000
# 2 43.2925 194.0645 9.0769 0.0000 0.0000 0.0000
# 3 -2.4847 9.0769 29.9847 0.0000 0.0000 0.0000
# 4 0.0000 0.0000 0.0000 24.2349 0.0000 0.0000
# 5 0.0000 0.0000 0.0000 0.0000 12.8895 0.0000
# 6 0.0000 0.0000 0.0000 0.0000 0.0000 47.1044
#
#
#
# Elastic Compliance Matrix: (Units=1/GPa)
#
#
# Indices 1 2 3 4 5 6 
#
# 1 0.006895 -0.001587 0.001052 0.000000 0.000000 0.000000
# 2 -0.001587 0.005592 -0.001824 0.000000 0.000000 0.000000
# 3 0.001052 -0.001824 0.033990 0.000000 0.000000 0.000000
# 4 0.000000 0.000000 0.000000 0.041263 0.000000 0.000000
# 5 0.000000 0.000000 0.000000 0.000000 0.077583 0.000000
# 6 0.000000 0.000000 0.000000 0.000000 0.000000 0.021229
#
#
# Mechanical properties :
#
#
# Convention : Reuss Voigt Hill
#
# Bulk Modulus (GPa) = 23.94787 53.24402 38.59594
# Shear Modulus (GPa) = 24.36753 38.81522 31.59138
#
# Velocity S-wave (km/s) = 3.31823 4.18796 3.77821
# Velocity P-wave (km/s) = 5.04995 6.88797 6.03929
#
# Compressibility (1/GPa) = 0.04175737
#
# Stress axis : x y z
#
# Youngs Moduli (GPa) = 145.03170 178.81495 29.42056
#
# Poissons Ratio (x) = 0.28384 -0.03095
# Poissons Ratio (y) = 0.23022 0.05368
# Poissons Ratio (z) = -0.15256 0.32624
#
# Static dielectric constant tensor:
#      x y z
#    x 1.974760 0.000000 0.000000 
#    y 0.000000 1.833720 0.000000 
#    z 0.000000 0.000000 2.070840 
# 
# From -- ./inp_files/26539.got.cif
#   From: 2010.05.17/outbox.cif.g08.bks.cpg/sg52_14_cif.got.tgz:26539.got - 2010.06.03 12:15:38.
