data_PCOD9409634
_publ_section_title
;
Structure prediction by ZEFSAII (Michael W. Deem and Ramdas Pophale) SiO2 
 PCOD9409634
Probable space group: P N N A
;
_chemical_formula_sum "Si O2"
_cell_formula_units_Z 44
_cell_length_a 20.304308
_cell_length_b 9.599809
_cell_length_c 12.780447
_cell_angle_alpha 90.000000
_cell_angle_beta 90.000000
_cell_angle_gamma 90.000000
_cell_volume 2491.132506
_symmetry_space_group_name_H-M "P N N A"
_symmetry_group_IT_number 52
_symmetry_cell_setting 'orthorhombic'
loop_
_space_group_symop_operation_xyz
x,y,z
1/2-x,-y,z
x,1/2-y,1/2-z
1/2-x,1/2+y,1/2-z
-x,-y,-z
1/2+x,y,-z
-x,1/2+y,1/2+z
1/2+x,1/2-y,1/2+z
loop_
_atom_site_type_symbol
_atom_site_label
_atom_site_fract_x
_atom_site_fract_y
_atom_site_fract_z
Si Si1 0.459568 0.250000 0.250000
Si Si2 0.667055 0.250000 0.750000
Si Si3 0.750000 0.000000 0.826905
Si Si4 0.935073 0.800721 0.931989
Si Si5 0.378990 0.106122 0.063485
Si Si6 0.584193 0.780626 0.367546
Si Si7 0.542557 0.426003 0.092560
O O1 0.415594 0.186862 0.157326
O O2 0.501855 0.371417 0.192900
O O3 0.712729 0.384982 0.741538
O O4 0.619242 0.251734 0.849832
O O5 0.693918 0.930580 0.898140
O O6 0.007571 0.769452 0.884517
O O7 0.919771 0.962603 0.951875
O O8 0.929436 0.711614 0.037817
O O9 0.379277 0.198845 0.959652
O O10 0.604619 0.750000 0.250000
O O11 0.589555 0.947196 0.378965
O O12 0.500000 0.500000 0.000000
#
# Coordination Sequence:
#
# PCOD9409634 Si02
#       7
#     4   4   4   8   8   8   8
#     4  12  21  34  60  86 130 157 194 246 312 370
#     4  10  21  38  62  82 124 157 198 252 290 362
#     4  10  24  38  56  86 112 166 210 238 294 352
#     4  10  20  35  54  86 120 150 187 245 309 351
#     4  11  23  37  59  82 120 163 199 250 290 363
#     4  11  21  36  58  87 118 152 196 243 311 361
#     4  10  22  33  51  90 121 154 190 233 307 379
#
# _framework density 17.662648000000001
#
# number of rings (size 3 to 8) (size 9 to 14) (size 15 to 20)
#    0.000    1.455    4.545    2.182   10.182    1.455 
#    0.000    0.000    0.000    4.364    0.000    0.000 
#    0.000    0.000    0.000    0.000    0.000    0.000 
#
# Total GULP energy -245449.340772 kJ/mol
# GULP energy per Si atom -5578.394108 kJ/mol
# Density = 1.762245 g / cm^3
# Si number density = 17.662648 Si / 1000 Ang^3
#
#
#
# Elastic Constant Matrix: (Units=GPa)
#
#
# Indices 1 2 3 4 5 6 
#
# 1 43.4656 18.3897 7.1925 0.0000 0.0000 0.0000
# 2 18.3897 99.0004 50.4722 0.0000 0.0000 0.0000
# 3 7.1925 50.4722 120.7328 0.0000 0.0000 0.0000
# 4 0.0000 0.0000 0.0000 38.2269 0.0000 0.0000
# 5 0.0000 0.0000 0.0000 0.0000 -112.8230 0.0000
# 6 0.0000 0.0000 0.0000 0.0000 0.0000 22.1590
#
#
#
# Elastic Compliance Matrix: (Units=1/GPa)
#
#
# Indices 1 2 3 4 5 6 
#
# 1 0.025000 -0.004937 0.000574 0.000000 0.000000 0.000000
# 2 -0.004937 0.013812 -0.005480 0.000000 0.000000 0.000000
# 3 0.000574 -0.005480 0.010539 0.000000 0.000000 0.000000
# 4 0.000000 0.000000 0.000000 0.026160 0.000000 0.000000
# 5 0.000000 0.000000 0.000000 0.000000 -0.008863 0.000000
# 6 0.000000 0.000000 0.000000 0.000000 0.000000 0.045128
#
#
# Mechanical properties :
#
#
# Convention : Reuss Voigt Hill
#
# Bulk Modulus (GPa) = 33.70740 46.14528 39.92634
# Shear Modulus (GPa) = 35.37334 1.98887 18.68111
#
# Velocity S-wave (km/s) = 4.48003 1.06230 3.25570
# Velocity P-wave (km/s) = 6.77395 5.26187 6.06521
#
# Compressibility (1/GPa) = 0.02966708
#
# Stress axis : x y z
#
# Youngs Moduli (GPa) = 39.99944 72.40221 94.88210
#
# Poissons Ratio (x) = 0.35743 -0.05451
# Poissons Ratio (y) = 0.19747 0.51994
# Poissons Ratio (z) = -0.02298 0.39676
#
# Static dielectric constant tensor:
#      x y z
#    x 1.592330 0.000000 0.000000 
#    y 0.000000 1.643330 0.000000 
#    z 0.000000 0.000000 1.634250 
# 
# From -- ./inp_files/22257.got.cif
#   From: 2010.05.17/outbox.cif.g08.bks.cpg/sg52_12_cif.got.tgz:22257.got - 2010.06.03 12:15:38.
