data_PCOD9409541
_publ_section_title
;
Structure prediction by ZEFSAII (Michael W. Deem and Ramdas Pophale) SiO2 
 PCOD9409541
Probable space group: P N N A
;
_chemical_formula_sum "Si O2"
_cell_formula_units_Z 48
_cell_length_a 33.157658
_cell_length_b 7.324795
_cell_length_c 8.870896
_cell_angle_alpha 90.000000
_cell_angle_beta 90.000000
_cell_angle_gamma 90.000000
_cell_volume 2154.501546
_symmetry_space_group_name_H-M "P N N A"
_symmetry_group_IT_number 52
_symmetry_cell_setting 'orthorhombic'
loop_
_space_group_symop_operation_xyz
x,y,z
1/2-x,-y,z
x,1/2-y,1/2-z
1/2-x,1/2+y,1/2-z
-x,-y,-z
1/2+x,y,-z
-x,1/2+y,1/2+z
1/2+x,1/2-y,1/2+z
loop_
_atom_site_type_symbol
_atom_site_label
_atom_site_fract_x
_atom_site_fract_y
_atom_site_fract_z
Si Si1 0.415857 0.783821 0.927017
Si Si2 0.501370 0.209990 0.931549
Si Si3 0.166562 0.282934 0.427108
Si Si4 0.751050 0.717629 0.427036
Si Si5 0.831174 0.218295 0.926808
Si Si6 0.913209 0.280389 0.428756
O O1 0.416818 0.750000 0.750000
O O2 0.414923 0.001701 0.953115
O O3 0.457315 0.713507 0.999673
O O4 0.374132 0.710893 0.995536
O O5 0.503245 0.250000 0.750000
O O6 0.457480 0.288670 0.977299
O O7 0.500000 0.000000 0.000000
O O8 0.164649 0.250000 0.250000
O O9 0.208665 0.210342 0.492824
O O10 0.167405 0.500715 0.454199
O O11 0.750000 0.500000 0.454227
O O12 0.753950 0.750000 0.250000
O O13 0.708649 0.790278 0.489927
O O14 0.827174 0.250000 0.750000
O O15 0.873873 0.291835 0.986597
O O16 0.908396 0.250000 0.250000
#
# Coordination Sequence:
#
# PCOD9409541 Si02
#       6
#     8   8   8   8   8   8
#     4  10  20  34  54  80 107 139 179 220 266 319
#     4   9  18  35  55  76 108 145 179 223 273 320
#     4  10  21  36  53  76 107 137 172 217 262 311
#     4  10  21  36  54  77 104 134 170 213 259 311
#     4  10  21  35  53  77 103 134 173 214 258 310
#     4   9  19  36  53  74 106 139 173 217 263 313
#
# _framework density 22.278934
#
# number of rings (size 3 to 8) (size 9 to 14) (size 15 to 20)
#    0.000    2.333    0.000    2.000    0.000    3.333 
#    0.000    7.500    0.000    0.000    0.000    0.000 
#    0.000    0.000    0.000    0.000    0.000    0.000 
#
# Total GULP energy -267915.500215 kJ/mol
# GULP energy per Si atom -5581.572921 kJ/mol
# Density = 2.222823 g / cm^3
# Si number density = 22.278934 Si / 1000 Ang^3
#
#
#
# Elastic Constant Matrix: (Units=GPa)
#
#
# Indices 1 2 3 4 5 6 
#
# 1 276.2876 13.4085 114.4936 0.0000 0.0000 0.0000
# 2 13.4085 97.7816 -11.5218 0.0000 0.0000 0.0000
# 3 114.4936 -11.5218 137.4155 0.0000 0.0000 0.0000
# 4 0.0000 0.0000 0.0000 29.2526 0.0000 0.0000
# 5 0.0000 0.0000 0.0000 0.0000 46.6284 0.0000
# 6 0.0000 0.0000 0.0000 0.0000 0.0000 -27.7729
#
#
#
# Elastic Compliance Matrix: (Units=1/GPa)
#
#
# Indices 1 2 3 4 5 6 
#
# 1 0.005700 -0.001355 -0.004863 0.000000 0.000000 0.000000
# 2 -0.001355 0.010651 0.002022 0.000000 0.000000 0.000000
# 3 -0.004863 0.002022 0.011499 0.000000 0.000000 0.000000
# 4 0.000000 0.000000 0.000000 0.034185 0.000000 0.000000
# 5 0.000000 0.000000 0.000000 0.000000 0.021446 0.000000
# 6 0.000000 0.000000 0.000000 0.000000 0.000000 -0.036006
#
#
# Mechanical properties :
#
#
# Convention : Reuss Voigt Hill
#
# Bulk Modulus (GPa) = 51.39330 82.69393 67.04362
# Shear Modulus (GPa) = 80.18868 35.96192 58.07530
#
# Velocity S-wave (km/s) = 6.00593 4.02203 5.11116
# Velocity P-wave (km/s) = 8.43879 7.66597 8.06164
#
# Compressibility (1/GPa) = 0.01945779
#
# Stress axis : x y z
#
# Youngs Moduli (GPa) = 175.42429 93.88903 86.96649
#
# Poissons Ratio (x) = 0.12719 0.42293
# Poissons Ratio (y) = 0.23765 -0.17583
# Poissons Ratio (z) = 0.85312 -0.18982
#
# Static dielectric constant tensor:
#      x y z
#    x 1.843650 0.000000 0.000000 
#    y 0.000000 1.860470 0.000000 
#    z 0.000000 0.000000 1.729560 
# 
# From -- ./inp_files/15513.got.cif
#   From: 2010.05.17/outbox.cif.g08.bks.cpg/sg52_8_cif.got.tgz:15513.got - 2010.06.03 12:15:38.
