data_PCOD9409877
_publ_section_title
;
Structure prediction by ZEFSAII (Michael W. Deem and Ramdas Pophale) SiO2 
 PCOD9409877
Probable space group: P N N A
;
_chemical_formula_sum "Si O2"
_cell_formula_units_Z 48
_cell_length_a 14.907113
_cell_length_b 9.529545
_cell_length_c 18.271202
_cell_angle_alpha 90.000000
_cell_angle_beta 90.000000
_cell_angle_gamma 90.000000
_cell_volume 2595.570490
_symmetry_space_group_name_H-M "P N N A"
_symmetry_group_IT_number 52
_symmetry_cell_setting 'orthorhombic'
loop_
_space_group_symop_operation_xyz
x,y,z
1/2-x,-y,z
x,1/2-y,1/2-z
1/2-x,1/2+y,1/2-z
-x,-y,-z
1/2+x,y,-z
-x,1/2+y,1/2+z
1/2+x,1/2-y,1/2+z
loop_
_atom_site_type_symbol
_atom_site_label
_atom_site_fract_x
_atom_site_fract_y
_atom_site_fract_z
Si Si1 0.965014 0.588045 0.226442
Si Si2 0.620986 0.632389 0.963251
Si Si3 0.913450 0.861996 0.438372
Si Si4 0.330330 0.105352 0.293973
Si Si5 0.252118 0.156249 0.951321
Si Si6 0.824835 0.397262 0.289439
O O1 0.954524 0.750000 0.250000
O O2 0.923108 0.578436 0.144652
O O3 0.914675 0.485959 0.281606
O O4 0.070068 0.552798 0.226614
O O5 0.516106 0.676830 0.958612
O O6 0.660670 0.623303 0.881576
O O7 0.619672 0.484139 0.006557
O O8 0.681668 0.742057 0.005840
O O9 0.844028 0.733243 0.443115
O O10 0.316413 0.250000 0.250000
O O11 0.250000 0.000000 0.277234
O O12 0.293490 0.134153 0.871012
O O13 0.250000 0.000000 0.985082
O O14 0.750000 0.500000 0.254845
O O15 0.832114 0.250000 0.250000
#
# Coordination Sequence:
#
# PCOD9409877 Si02
#       6
#     8   8   8   8   8   8
#     4  10  20  37  58  83 116 151 187 231 284 339
#     4  10  22  40  61  83 110 153 198 235 278 336
#     4  10  20  38  62  83 112 154 196 234 276 337
#     4  10  22  40  62  83 109 147 192 242 289 336
#     4  11  22  34  54  86 119 148 182 233 290 339
#     4  11  21  33  53  82 115 150 184 225 280 341
#
# _framework density 18.493044000000001
#
# number of rings (size 3 to 8) (size 9 to 14) (size 15 to 20)
#    0.000    1.667    0.000    6.000    0.000    2.000 
#    0.000    1.667    0.000    0.000    0.000    0.000 
#    0.000    0.000    0.000    0.000    0.000    0.000 
#
# Total GULP energy -267964.594442 kJ/mol
# GULP energy per Si atom -5582.595718 kJ/mol
# Density = 1.845095 g / cm^3
# Si number density = 18.493044 Si / 1000 Ang^3
#
#
#
# Elastic Constant Matrix: (Units=GPa)
#
#
# Indices 1 2 3 4 5 6 
#
# 1 133.2224 90.8458 50.9185 0.0000 0.0000 0.0000
# 2 90.8458 108.2087 38.1118 0.0000 0.0000 0.0000
# 3 50.9185 38.1118 69.3933 0.0000 0.0000 0.0000
# 4 0.0000 0.0000 0.0000 14.5370 0.0000 0.0000
# 5 0.0000 0.0000 0.0000 0.0000 21.8059 0.0000
# 6 0.0000 0.0000 0.0000 0.0000 0.0000 -30.2251
#
#
#
# Elastic Compliance Matrix: (Units=1/GPa)
#
#
# Indices 1 2 3 4 5 6 
#
# 1 0.019780 -0.014251 -0.006687 0.000000 0.000000 0.000000
# 2 -0.014251 0.021725 -0.001475 0.000000 0.000000 0.000000
# 3 -0.006687 -0.001475 0.020127 0.000000 0.000000 0.000000
# 4 0.000000 0.000000 0.000000 0.068790 0.000000 0.000000
# 5 0.000000 0.000000 0.000000 0.000000 0.045859 0.000000
# 6 0.000000 0.000000 0.000000 0.000000 0.000000 -0.033085
#
#
# Mechanical properties :
#
#
# Convention : Reuss Voigt Hill
#
# Bulk Modulus (GPa) = 59.50006 74.50852 67.00429
# Shear Modulus (GPa) = 25.82320 9.95345 17.88833
#
# Velocity S-wave (km/s) = 3.74086 2.32249 3.11352
# Velocity P-wave (km/s) = 7.13463 6.89706 7.01685
#
# Compressibility (1/GPa) = 0.01680671
#
# Stress axis : x y z
#
# Youngs Moduli (GPa) = 50.55649 46.02984 49.68354
#
# Poissons Ratio (x) = 0.65596 0.33224
# Poissons Ratio (y) = 0.72047 0.07328
# Poissons Ratio (z) = 0.33807 0.06789
#
# Static dielectric constant tensor:
#      x y z
#    x 1.647640 0.000000 0.000000 
#    y 0.000000 1.621400 0.000000 
#    z 0.000000 0.000000 1.663680 
# 
# From -- ./inp_files/33044.got.cif
#   From: 2010.05.17/outbox.cif.g08.bks.cpg/sg52_17_cif.got.tgz:33044.got - 2010.06.03 12:15:38.
