data_PCOD9409305
_publ_section_title
;
Structure prediction by ZEFSAII (Michael W. Deem and Ramdas Pophale) SiO2 
 PCOD9409305
Probable space group: P N N A
;
_chemical_formula_sum "Si O2"
_cell_formula_units_Z 52
_cell_length_a 10.174834
_cell_length_b 13.884869
_cell_length_c 20.049368
_cell_angle_alpha 90.000000
_cell_angle_beta 90.000000
_cell_angle_gamma 90.000000
_cell_volume 2832.499269
_symmetry_space_group_name_H-M "P N N A"
_symmetry_group_IT_number 52
_symmetry_cell_setting 'orthorhombic'
loop_
_space_group_symop_operation_xyz
x,y,z
1/2-x,-y,z
x,1/2-y,1/2-z
1/2-x,1/2+y,1/2-z
-x,-y,-z
1/2+x,y,-z
-x,1/2+y,1/2+z
1/2+x,1/2-y,1/2+z
loop_
_atom_site_type_symbol
_atom_site_label
_atom_site_fract_x
_atom_site_fract_y
_atom_site_fract_z
Si Si1 0.548891 0.749569 0.019045
Si Si2 0.321438 0.832472 0.935683
Si Si3 0.750000 0.000000 0.151535
Si Si4 0.618434 0.888089 0.605129
Si Si5 0.921930 0.895413 0.624196
Si Si6 0.623762 0.633163 0.237918
Si Si7 0.115794 0.187374 0.683524
O O1 0.674238 0.813151 0.038782
O O2 0.497285 0.682725 0.079202
O O3 0.428360 0.813701 0.992513
O O4 0.591973 0.678300 0.958965
O O5 0.333733 0.932422 0.897085
O O6 0.347227 0.753540 0.878665
O O7 0.842674 0.069841 0.196638
O O8 0.767391 0.871778 0.629137
O O9 0.518238 0.862721 0.664015
O O10 0.585143 0.999464 0.589787
O O11 0.999266 0.898905 0.694378
O O12 0.612553 0.750000 0.250000
O O13 0.758432 0.620606 0.195856
O O14 0.099446 0.250000 0.750000
#
# Coordination Sequence:
#
# PCOD9409305 Si02
#       7
#     8   8   4   8   8   8   8
#     4  11  21  42  57  88 123 169 199 252 311 366
#     4  11  23  38  66  84 125 159 210 254 303 364
#     4  12  22  40  64 100 118 160 220 260 292 382
#     4  10  23  35  57  89 126 157 202 253 308 375
#     4  11  21  37  58  89 123 163 199 252 310 371
#     4  11  21  38  65  90 122 158 207 256 308 359
#     4  10  19  39  58  90 117 162 199 249 315 356
#
# _framework density 18.358345
#
# number of rings (size 3 to 8) (size 9 to 14) (size 15 to 20)
#    0.000    1.231    6.154    1.385    0.000    1.231 
#    0.000    0.000    0.000    1.846    0.000    0.000 
#    0.000    0.000    0.000    0.000    0.000    0.000 
#
# Total GULP energy -290036.276462 kJ/mol
# GULP energy per Si atom -5577.620701 kJ/mol
# Density = 1.831656 g / cm^3
# Si number density = 18.358345 Si / 1000 Ang^3
#
#
#
# Elastic Constant Matrix: (Units=GPa)
#
#
# Indices 1 2 3 4 5 6 
#
# 1 130.4966 35.0856 37.7558 0.0000 0.0000 0.0000
# 2 35.0856 81.0735 26.0713 0.0000 0.0000 0.0000
# 3 37.7558 26.0713 63.4845 0.0000 0.0000 0.0000
# 4 0.0000 0.0000 0.0000 24.2839 0.0000 0.0000
# 5 0.0000 0.0000 0.0000 0.0000 27.6323 0.0000
# 6 0.0000 0.0000 0.0000 0.0000 0.0000 -87.4986
#
#
#
# Elastic Compliance Matrix: (Units=1/GPa)
#
#
# Indices 1 2 3 4 5 6 
#
# 1 0.009747 -0.002712 -0.004683 0.000000 0.000000 0.000000
# 2 -0.002712 0.014966 -0.004533 0.000000 0.000000 0.000000
# 3 -0.004683 -0.004533 0.020399 0.000000 0.000000 0.000000
# 4 0.000000 0.000000 0.000000 0.041180 0.000000 0.000000
# 5 0.000000 0.000000 0.000000 0.000000 0.036190 0.000000
# 6 0.000000 0.000000 0.000000 0.000000 0.000000 -0.011429
#
#
# Mechanical properties :
#
#
# Convention : Reuss Voigt Hill
#
# Bulk Modulus (GPa) = 47.04770 52.54223 49.79497
# Shear Modulus (GPa) = 35.21281 4.62631 19.91956
#
# Velocity S-wave (km/s) = 4.38434 1.58917 3.29757
# Velocity P-wave (km/s) = 7.16331 5.66125 6.45611
#
# Compressibility (1/GPa) = 0.02125502
#
# Stress axis : x y z
#
# Youngs Moduli (GPa) = 102.59390 66.81824 49.02299
#
# Poissons Ratio (x) = 0.18123 0.22958
# Poissons Ratio (y) = 0.27826 0.22222
# Poissons Ratio (z) = 0.48045 0.30289
#
# Static dielectric constant tensor:
#      x y z
#    x 1.620440 0.000000 0.000000 
#    y 0.000000 1.660190 0.000000 
#    z 0.000000 0.000000 1.624960 
# 
# From -- ./inp_files/35947.got.cif
#   From: 2010.05.17/outbox.cif.g08.bks.cpg/sg52_18_cif.got.tgz:35947.got - 2010.06.03 12:15:38.
