data_PCOD9409267
_publ_section_title
;
Structure prediction by ZEFSAII (Michael W. Deem and Ramdas Pophale) SiO2 
 PCOD9409267
Probable space group: P N N A
;
_chemical_formula_sum "Si O2"
_cell_formula_units_Z 64
_cell_length_a 17.514013
_cell_length_b 11.963801
_cell_length_c 15.407422
_cell_angle_alpha 90.000000
_cell_angle_beta 90.000000
_cell_angle_gamma 90.000000
_cell_volume 3228.381323
_symmetry_space_group_name_H-M "P N N A"
_symmetry_group_IT_number 52
_symmetry_cell_setting 'orthorhombic'
loop_
_space_group_symop_operation_xyz
x,y,z
1/2-x,-y,z
x,1/2-y,1/2-z
1/2-x,1/2+y,1/2-z
-x,-y,-z
1/2+x,y,-z
-x,1/2+y,1/2+z
1/2+x,1/2-y,1/2+z
loop_
_atom_site_type_symbol
_atom_site_label
_atom_site_fract_x
_atom_site_fract_y
_atom_site_fract_z
Si Si1 0.384510 0.507982 0.938193
Si Si2 0.340808 0.253494 0.902472
Si Si3 0.442245 0.881680 0.940204
Si Si4 0.174016 0.276609 0.846579
Si Si5 0.068939 0.981169 0.185500
Si Si6 0.831699 0.441264 0.531563
Si Si7 0.054340 0.464817 0.122337
Si Si8 0.506501 0.290037 0.620049
O O1 0.356365 0.382924 0.921297
O O2 0.337792 0.598248 0.882587
O O3 0.472718 0.515208 0.907349
O O4 0.387534 0.526830 0.041793
O O5 0.262316 0.242784 0.851567
O O6 0.417109 0.208134 0.855995
O O7 0.330358 0.180487 0.989299
O O8 0.376644 0.799968 0.908357
O O9 0.497856 0.918357 0.861994
O O10 0.486761 0.818019 0.017231
O O11 0.398016 0.987426 0.982055
O O12 0.146410 0.250000 0.750000
O O13 0.142491 0.942883 0.131382
O O14 0.075660 0.973317 0.288631
O O15 0.052554 0.111902 0.166067
O O16 0.750000 0.500000 0.519519
O O17 0.039023 0.332820 0.136837
#
# Coordination Sequence:
#
# PCOD9409267 Si02
#       8
#     8   8   8   8   8   8   8   8
#     4  10  23  43  61  87 127 172 203 253 320 377
#     4  11  22  41  62  86 128 172 200 250 316 389
#     4  11  20  38  65  88 127 158 210 261 315 368
#     4  12  25  41  62  95 125 166 208 260 319 387
#     4  11  21  35  64 100 118 157 217 271 296 375
#     4  11  21  40  62  90 128 165 202 252 327 368
#     4  10  21  38  64  90 123 163 216 258 310 368
#     4  10  19  38  62  89 124 167 204 257 321 372
#
# _framework density 19.824175
#
# number of rings (size 3 to 8) (size 9 to 14) (size 15 to 20)
#    0.000    1.250    5.000    2.250    0.000    2.000 
#    4.500    1.875    0.000    1.500    0.000    0.000 
#    0.000    0.000    0.000    0.000    0.000    0.000 
#
# Total GULP energy -357430.789373 kJ/mol
# GULP energy per Si atom -5584.856084 kJ/mol
# Density = 1.977905 g / cm^3
# Si number density = 19.824175 Si / 1000 Ang^3
#
#
#
# Elastic Constant Matrix: (Units=GPa)
#
#
# Indices 1 2 3 4 5 6 
#
# 1 56.6451 2.4669 13.0841 0.0000 0.0000 0.0000
# 2 2.4669 56.4611 30.6612 0.0000 0.0000 0.0000
# 3 13.0841 30.6612 123.0551 0.0000 0.0000 0.0000
# 4 0.0000 0.0000 0.0000 18.5972 0.0000 0.0000
# 5 0.0000 0.0000 0.0000 0.0000 12.5409 0.0000
# 6 0.0000 0.0000 0.0000 0.0000 0.0000 22.9874
#
#
#
# Elastic Compliance Matrix: (Units=1/GPa)
#
#
# Indices 1 2 3 4 5 6 
#
# 1 0.018102 0.000294 -0.001998 0.000000 0.000000 0.000000
# 2 0.000294 0.020488 -0.005136 0.000000 0.000000 0.000000
# 3 -0.001998 -0.005136 0.009619 0.000000 0.000000 0.000000
# 4 0.000000 0.000000 0.000000 0.053771 0.000000 0.000000
# 5 0.000000 0.000000 0.000000 0.000000 0.079739 0.000000
# 6 0.000000 0.000000 0.000000 0.000000 0.000000 0.043502
#
#
# Mechanical properties :
#
#
# Convention : Reuss Voigt Hill
#
# Bulk Modulus (GPa) = 28.96149 36.50955 32.73552
# Shear Modulus (GPa) = 19.96717 23.48838 21.72778
#
# Velocity S-wave (km/s) = 3.17711 3.44588 3.31422
# Velocity P-wave (km/s) = 5.30090 5.85566 5.58517
#
# Compressibility (1/GPa) = 0.03452861
#
# Stress axis : x y z
#
# Youngs Moduli (GPa) = 55.24102 48.80994 103.96487
#
# Poissons Ratio (x) = -0.01436 0.20773
# Poissons Ratio (y) = -0.01625 0.53397
# Poissons Ratio (z) = 0.11038 0.25069
#
# Static dielectric constant tensor:
#      x y z
#    x 1.695620 0.000000 0.000000 
#    y 0.000000 1.696090 0.000000 
#    z 0.000000 0.000000 1.739570 
# 
# From -- ./inp_files/28292.got.cif
#   From: 2010.05.17/outbox.cif.g08.bks.cpg/sg52_15_cif.got.tgz:28292.got - 2010.06.03 12:15:38.
