data_PCOD9409814
_publ_section_title
;
Structure prediction by ZEFSAII (Michael W. Deem and Ramdas Pophale) SiO2 
 PCOD9409814
Probable space group: P N N A
;
_chemical_formula_sum "Si O2"
_cell_formula_units_Z 60
_cell_length_a 14.717730
_cell_length_b 22.673388
_cell_length_c 9.448179
_cell_angle_alpha 90.000000
_cell_angle_beta 90.000000
_cell_angle_gamma 90.000000
_cell_volume 3152.864917
_symmetry_space_group_name_H-M "P N N A"
_symmetry_group_IT_number 52
_symmetry_cell_setting 'orthorhombic'
loop_
_space_group_symop_operation_xyz
x,y,z
1/2-x,-y,z
x,1/2-y,1/2-z
1/2-x,1/2+y,1/2-z
-x,-y,-z
1/2+x,y,-z
-x,1/2+y,1/2+z
1/2+x,1/2-y,1/2+z
loop_
_atom_site_type_symbol
_atom_site_label
_atom_site_fract_x
_atom_site_fract_y
_atom_site_fract_z
Si Si1 0.955053 0.994003 0.658232
Si Si2 0.210553 0.746183 0.917077
Si Si3 0.055883 0.138123 0.285595
Si Si4 0.105663 0.308306 0.515244
Si Si5 0.698267 0.122358 0.477433
Si Si6 0.750000 0.500000 0.936702
Si Si7 0.033678 0.707635 0.034363
Si Si8 0.469814 0.615048 0.762644
O O1 0.845736 0.997700 0.644752
O O2 0.990121 0.049878 0.745269
O O3 0.976773 0.929827 0.723159
O O4 0.000000 0.000000 0.500000
O O5 0.192589 0.750000 0.750000
O O6 0.119534 0.749297 0.009326
O O7 0.288497 0.792188 0.964087
O O8 0.245699 0.679682 0.940336
O O9 0.075662 0.172565 0.141547
O O10 0.150838 0.134111 0.371446
O O11 0.986914 0.172798 0.388460
O O12 0.069589 0.358487 0.619700
O O13 0.053551 0.248555 0.559607
O O14 0.752545 0.061306 0.478009
O O15 0.614331 0.113968 0.371567
O O16 0.039788 0.660393 0.160860
#
# Coordination Sequence:
#
# PCOD9409814 Si02
#       8
#     8   8   8   8   8   4   8   8
#     4  11  20  40  64  90 116 163 213 255 303 366
#     4  12  22  37  64  90 125 163 204 258 310 362
#     4  10  22  39  63  88 125 159 206 257 305 369
#     4  12  23  42  58  92 133 159 201 258 313 373
#     4  10  20  36  62  89 113 162 203 252 303 361
#     4  10  20  36  62  94 114 150 212 268 288 360
#     4  11  22  40  62  92 119 165 207 250 305 372
#     4  11  21  41  65  87 126 161 209 255 307 370
#
# _framework density 19.030311000000001
#
# number of rings (size 3 to 8) (size 9 to 14) (size 15 to 20)
#    0.000    1.067    8.000    2.400    0.000    0.533 
#    9.600    0.000    0.000    3.200    0.000    0.000 
#    0.000    0.000    0.000    0.000    0.000    0.000 
#
# Total GULP energy -334876.088684 kJ/mol
# GULP energy per Si atom -5581.268145 kJ/mol
# Density = 1.898700 g / cm^3
# Si number density = 19.030311 Si / 1000 Ang^3
#
#
#
# Elastic Constant Matrix: (Units=GPa)
#
#
# Indices 1 2 3 4 5 6 
#
# 1 74.0813 4.7887 1.6987 0.0000 0.0000 0.0000
# 2 4.7887 92.2744 11.9925 0.0000 0.0000 0.0000
# 3 1.6987 11.9925 36.4491 0.0000 0.0000 0.0000
# 4 0.0000 0.0000 0.0000 25.7568 0.0000 0.0000
# 5 0.0000 0.0000 0.0000 0.0000 3.2352 0.0000
# 6 0.0000 0.0000 0.0000 0.0000 0.0000 36.0917
#
#
#
# Elastic Compliance Matrix: (Units=1/GPa)
#
#
# Indices 1 2 3 4 5 6 
#
# 1 0.013550 -0.000649 -0.000418 0.000000 0.000000 0.000000
# 2 -0.000649 0.011352 -0.003705 0.000000 0.000000 0.000000
# 3 -0.000418 -0.003705 0.028674 0.000000 0.000000 0.000000
# 4 0.000000 0.000000 0.000000 0.038825 0.000000 0.000000
# 5 0.000000 0.000000 0.000000 0.000000 0.309099 0.000000
# 6 0.000000 0.000000 0.000000 0.000000 0.000000 0.027707
#
#
# Mechanical properties :
#
#
# Convention : Reuss Voigt Hill
#
# Bulk Modulus (GPa) = 22.71025 26.64050 24.67538
# Shear Modulus (GPa) = 11.02709 25.30509 18.16609
#
# Velocity S-wave (km/s) = 2.40979 3.65050 3.09299
# Velocity P-wave (km/s) = 4.43874 5.63893 5.07444
#
# Compressibility (1/GPa) = 0.04403299
#
# Stress axis : x y z
#
# Youngs Moduli (GPa) = 73.79962 88.08690 34.87483
#
# Poissons Ratio (x) = 0.05716 0.01458
# Poissons Ratio (y) = 0.04789 0.12921
# Poissons Ratio (z) = 0.03085 0.32636
#
# Static dielectric constant tensor:
#      x y z
#    x 1.682990 0.000000 0.000000 
#    y 0.000000 1.691280 0.000000 
#    z 0.000000 0.000000 1.666730 
# 
# From -- ./inp_files/10943.got.cif
#   From: 2010.05.17/outbox.cif.g08.bks.cpg/sg52_6_cif.got.tgz:10943.got - 2010.06.03 12:15:38.
