data_PCOD9409010
_publ_section_title
;
Structure prediction by ZEFSAII (Michael W. Deem and Ramdas Pophale) SiO2 
 PCOD9409010
Probable space group: P N N A
;
_chemical_formula_sum "Si O2"
_cell_formula_units_Z 52
_cell_length_a 27.788271
_cell_length_b 5.666896
_cell_length_c 19.235727
_cell_angle_alpha 90.000000
_cell_angle_beta 90.000000
_cell_angle_gamma 90.000000
_cell_volume 3029.112289
_symmetry_space_group_name_H-M "P N N A"
_symmetry_group_IT_number 52
_symmetry_cell_setting 'orthorhombic'
loop_
_space_group_symop_operation_xyz
x,y,z
1/2-x,-y,z
x,1/2-y,1/2-z
1/2-x,1/2+y,1/2-z
-x,-y,-z
1/2+x,y,-z
-x,1/2+y,1/2+z
1/2+x,1/2-y,1/2+z
loop_
_atom_site_type_symbol
_atom_site_label
_atom_site_fract_x
_atom_site_fract_y
_atom_site_fract_z
Si Si1 0.574238 0.952261 0.036648
Si Si2 0.010185 0.682128 0.061715
Si Si3 0.999015 0.001660 0.712755
Si Si4 0.665815 0.211488 0.079263
Si Si5 0.250000 0.000000 0.567006
Si Si6 0.902279 0.091809 0.348033
Si Si7 0.805021 0.176051 0.175668
O O1 0.571931 0.740908 0.091883
O O2 0.537214 0.151407 0.064156
O O3 0.629662 0.040380 0.037170
O O4 0.553554 0.851367 0.964339
O O5 0.019014 0.544363 0.133529
O O6 0.000000 0.500000 0.000000
O O7 0.986445 0.250000 0.750000
O O8 0.985208 0.750000 0.750000
O O9 0.057226 0.990410 0.704991
O O10 0.707792 0.337955 0.034261
O O11 0.628341 0.385265 0.116582
O O12 0.694088 0.084299 0.143215
O O13 0.217974 0.834738 0.616122
O O14 0.861368 0.263787 0.319920
O O15 0.783674 0.250000 0.250000
#
# Coordination Sequence:
#
# PCOD9409010 Si02
#       7
#     8   8   8   8   4   8   8
#     4  10  19  35  57  74  99 132 192 237 285 334
#     4  11  21  35  57  77 103 143 185 243 276 350
#     4  12  25  36  53  81 115 144 183 244 306 341
#     4  10  20  35  49  69  91 128 179 243 277 344
#     4  10  22  32  46  64  92 124 178 226 294 332
#     4  10  20  34  49  74  97 139 180 236 283 330
#     4  10  22  31  46  63  94 133 177 227 287 338
#
# _framework density 17.166746
#
# number of rings (size 3 to 8) (size 9 to 14) (size 15 to 20)
#    0.000    1.538    3.077    1.846    8.615    1.231 
#    0.000    0.000    0.000    0.000    0.000    0.000 
#    0.000    0.000    0.000    0.000    0.000    0.000 
#
# Total GULP energy -289471.561405 kJ/mol
# GULP energy per Si atom -5566.760796 kJ/mol
# Density = 1.712767 g / cm^3
# Si number density = 17.166746 Si / 1000 Ang^3
#
#
#
# Elastic Constant Matrix: (Units=GPa)
#
#
# Indices 1 2 3 4 5 6 
#
# 1 67.4079 22.0244 20.1671 0.0000 0.0000 0.0000
# 2 22.0244 98.2068 39.0965 0.0000 0.0000 0.0000
# 3 20.1671 39.0965 73.2120 0.0000 0.0000 0.0000
# 4 0.0000 0.0000 0.0000 20.5190 0.0000 0.0000
# 5 0.0000 0.0000 0.0000 0.0000 12.6553 0.0000
# 6 0.0000 0.0000 0.0000 0.0000 0.0000 49.0154
#
#
#
# Elastic Compliance Matrix: (Units=1/GPa)
#
#
# Indices 1 2 3 4 5 6 
#
# 1 0.016607 -0.002417 -0.003284 0.000000 0.000000 0.000000
# 2 -0.002417 0.013284 -0.006428 0.000000 0.000000 0.000000
# 3 -0.003284 -0.006428 0.017996 0.000000 0.000000 0.000000
# 4 0.000000 0.000000 0.000000 0.048735 0.000000 0.000000
# 5 0.000000 0.000000 0.000000 0.000000 0.079018 0.000000
# 6 0.000000 0.000000 0.000000 0.000000 0.000000 0.020402
#
#
# Mechanical properties :
#
#
# Convention : Reuss Voigt Hill
#
# Bulk Modulus (GPa) = 42.32031 44.60029 43.46030
# Shear Modulus (GPa) = 21.91284 26.94051 24.42667
#
# Velocity S-wave (km/s) = 3.57665 3.96579 3.77624
# Velocity P-wave (km/s) = 6.46240 6.85617 6.66219
#
# Compressibility (1/GPa) = 0.02362932
#
# Stress axis : x y z
#
# Youngs Moduli (GPa) = 60.21451 75.28062 55.56739
#
# Poissons Ratio (x) = 0.18196 0.18248
# Poissons Ratio (y) = 0.14554 0.35718
# Poissons Ratio (z) = 0.19774 0.48389
#
# Static dielectric constant tensor:
#      x y z
#    x 1.629780 0.000000 0.000000 
#    y 0.000000 1.950260 0.000000 
#    z 0.000000 0.000000 1.605830 
# 
# From -- ./inp_files/34554.got.cif
#   From: 2010.05.17/outbox.cif.g08.bks.cpg/sg52_18_cif.got.tgz:34554.got - 2010.06.03 12:15:38.
