data_PCOD9409481
_publ_section_title
;
Structure prediction by ZEFSAII (Michael W. Deem and Ramdas Pophale) SiO2 
 PCOD9409481
Probable space group: P N N A
;
_chemical_formula_sum "Si O2"
_cell_formula_units_Z 40
_cell_length_a 18.490720
_cell_length_b 4.955035
_cell_length_c 22.244228
_cell_angle_alpha 90.000000
_cell_angle_beta 90.000000
_cell_angle_gamma 90.000000
_cell_volume 2038.064323
_symmetry_space_group_name_H-M "P N N A"
_symmetry_group_IT_number 52
_symmetry_cell_setting 'orthorhombic'
loop_
_space_group_symop_operation_xyz
x,y,z
1/2-x,-y,z
x,1/2-y,1/2-z
1/2-x,1/2+y,1/2-z
-x,-y,-z
1/2+x,y,-z
-x,1/2+y,1/2+z
1/2+x,1/2-y,1/2+z
loop_
_atom_site_type_symbol
_atom_site_label
_atom_site_fract_x
_atom_site_fract_y
_atom_site_fract_z
Si Si1 0.620747 0.556094 0.306968
Si Si2 0.832134 0.551723 0.120929
Si Si3 0.974342 0.895551 0.864952
Si Si4 0.478794 0.881792 0.563815
Si Si5 0.830270 0.998862 0.794775
O O1 0.637478 0.750000 0.250000
O O2 0.658887 0.269774 0.323390
O O3 0.534318 0.521532 0.314336
O O4 0.642943 0.754640 0.360163
O O5 0.750000 0.500000 0.102482
O O6 0.892202 0.641105 0.073066
O O7 0.989777 0.589387 0.885599
O O8 0.989646 0.089779 0.921243
O O9 0.895218 0.956031 0.840610
O O10 0.500000 0.000000 0.500000
O O11 0.840758 0.250000 0.750000
O O12 0.750000 0.000000 0.823260
O O13 0.830908 0.750000 0.750000
#
# Coordination Sequence:
#
# PCOD9409481 Si02
#       5
#     8   8   8   8   8
#     4  10  20  33  53  78 106 142 177 211 257 317
#     4  10  21  36  53  77 108 140 176 219 266 315
#     4  10  20  35  56  80 107 140 183 224 262 322
#     4  10  21  38  58  78 104 142 184 229 274 312
#     4  10  20  34  54  81 114 146 173 213 270 324
#
# _framework density 19.626465
#
# number of rings (size 3 to 8) (size 9 to 14) (size 15 to 20)
#    0.000    2.000    0.000    3.600    0.000    4.800 
#    0.000    2.000    0.000    1.200    0.000    0.000 
#    0.000    0.000    0.000    0.000    0.000    0.000 
#
# Total GULP energy -222882.623690 kJ/mol
# GULP energy per Si atom -5572.065592 kJ/mol
# Density = 1.958179 g / cm^3
# Si number density = 19.626465 Si / 1000 Ang^3
#
#
#
# Elastic Constant Matrix: (Units=GPa)
#
#
# Indices 1 2 3 4 5 6 
#
# 1 165.5232 10.0467 36.0229 0.0000 0.0000 0.0000
# 2 10.0467 112.2514 -1.9945 0.0000 0.0000 0.0000
# 3 36.0229 -1.9945 39.7314 0.0000 0.0000 0.0000
# 4 0.0000 0.0000 0.0000 16.0229 0.0000 0.0000
# 5 0.0000 0.0000 0.0000 0.0000 6.8458 0.0000
# 6 0.0000 0.0000 0.0000 0.0000 0.0000 21.7005
#
#
#
# Elastic Compliance Matrix: (Units=1/GPa)
#
#
# Indices 1 2 3 4 5 6 
#
# 1 0.007598 -0.000803 -0.006929 0.000000 0.000000 0.000000
# 2 -0.000803 0.009001 0.001180 0.000000 0.000000 0.000000
# 3 -0.006929 0.001180 0.031511 0.000000 0.000000 0.000000
# 4 0.000000 0.000000 0.000000 0.062411 0.000000 0.000000
# 5 0.000000 0.000000 0.000000 0.000000 0.146075 0.000000
# 6 0.000000 0.000000 0.000000 0.000000 0.000000 0.046082
#
#
# Mechanical properties :
#
#
# Convention : Reuss Voigt Hill
#
# Bulk Modulus (GPa) = 28.56686 45.07290 36.81988
# Shear Modulus (GPa) = 15.26946 27.14257 21.20601
#
# Velocity S-wave (km/s) = 2.79230 3.72285 3.29063
# Velocity P-wave (km/s) = 4.99828 6.44164 5.76530
#
# Compressibility (1/GPa) = 0.03500560
#
# Stress axis : x y z
#
# Youngs Moduli (GPa) = 131.60949 111.09346 31.73513
#
# Poissons Ratio (x) = 0.08923 0.21990
# Poissons Ratio (y) = 0.10571 -0.03745
# Poissons Ratio (z) = 0.91197 -0.13110
#
# Static dielectric constant tensor:
#      x y z
#    x 1.778600 0.000000 0.000000 
#    y 0.000000 1.679340 0.000000 
#    z 0.000000 0.000000 1.697940 
# 
# From -- ./inp_files/33456.got.cif
#   From: 2010.05.17/outbox.cif.g08.bks.cpg/sg52_17_cif.got.tgz:33456.got - 2010.06.03 12:15:38.
