data_PCOD9409844
_publ_section_title
;
Structure prediction by ZEFSAII (Michael W. Deem and Ramdas Pophale) SiO2 
 PCOD9409844
Probable space group: P N N A
;
_chemical_formula_sum "Si O2"
_cell_formula_units_Z 32
_cell_length_a 5.194137
_cell_length_b 9.763192
_cell_length_c 28.828379
_cell_angle_alpha 90.000000
_cell_angle_beta 90.000000
_cell_angle_gamma 90.000000
_cell_volume 1461.926214
_symmetry_space_group_name_H-M "P N N A"
_symmetry_group_IT_number 52
_symmetry_cell_setting 'orthorhombic'
loop_
_space_group_symop_operation_xyz
x,y,z
1/2-x,-y,z
x,1/2-y,1/2-z
1/2-x,1/2+y,1/2-z
-x,-y,-z
1/2+x,y,-z
-x,1/2+y,1/2+z
1/2+x,1/2-y,1/2+z
loop_
_atom_site_type_symbol
_atom_site_label
_atom_site_fract_x
_atom_site_fract_y
_atom_site_fract_z
Si Si1 0.863949 0.348324 0.651826
Si Si2 0.428941 0.347869 0.980918
Si Si3 0.534695 0.750000 0.750000
Si Si4 0.389290 0.201126 0.623629
Si Si5 0.750000 0.000000 0.299170
O O1 0.750000 0.500000 0.648279
O O2 0.671518 0.263586 0.620296
O O3 0.815945 0.300562 0.704904
O O4 0.160037 0.306225 0.639807
O O5 0.335146 0.350477 0.928015
O O6 0.500000 0.500000 0.000000
O O7 0.705628 0.278927 0.988884
O O8 0.377676 0.616364 0.767379
O O9 0.415678 0.085813 0.663491
#
# Coordination Sequence:
#
# PCOD9409844 Si02
#       5
#     8   8   4   8   4
#     4  11  26  43  68  92 136 184 226 277 328 409
#     4  10  20  36  65  98 130 163 211 281 343 402
#     4  10  26  38  70  92 138 174 242 266 340 382
#     4  11  24  43  66 101 134 173 221 280 347 394
#     4  10  24  42  64 100 136 178 218 290 320 412
#
# _framework density 21.888930999999999
#
# number of rings (size 3 to 8) (size 9 to 14) (size 15 to 20)
#    0.000    1.500    0.000    3.750   10.500   10.000 
#    0.000    0.000    0.000   15.000    0.000    0.000 
#    0.000    0.000    0.000    0.000    0.000    0.000 
#
# Total GULP energy -178260.481335 kJ/mol
# GULP energy per Si atom -5570.640042 kJ/mol
# Density = 2.183911 g / cm^3
# Si number density = 21.888931 Si / 1000 Ang^3
#
#
#
# Elastic Constant Matrix: (Units=GPa)
#
#
# Indices 1 2 3 4 5 6 
#
# 1 101.9812 7.9266 12.8383 0.0000 0.0000 0.0000
# 2 7.9266 90.0681 30.1707 0.0000 0.0000 0.0000
# 3 12.8383 30.1707 144.3363 0.0000 0.0000 0.0000
# 4 0.0000 0.0000 0.0000 15.6853 0.0000 0.0000
# 5 0.0000 0.0000 0.0000 0.0000 26.4751 0.0000
# 6 0.0000 0.0000 0.0000 0.0000 0.0000 11.3773
#
#
#
# Elastic Compliance Matrix: (Units=1/GPa)
#
#
# Indices 1 2 3 4 5 6 
#
# 1 0.009949 -0.000623 -0.000755 0.000000 0.000000 0.000000
# 2 -0.000623 0.011978 -0.002448 0.000000 0.000000 0.000000
# 3 -0.000755 -0.002448 0.007507 0.000000 0.000000 0.000000
# 4 0.000000 0.000000 0.000000 0.063754 0.000000 0.000000
# 5 0.000000 0.000000 0.000000 0.000000 0.037771 0.000000
# 6 0.000000 0.000000 0.000000 0.000000 0.000000 0.087894
#
#
# Mechanical properties :
#
#
# Convention : Reuss Voigt Hill
#
# Bulk Modulus (GPa) = 45.90885 48.69520 47.30202
# Shear Modulus (GPa) = 21.38890 29.73754 25.56322
#
# Velocity S-wave (km/s) = 3.12934 3.68987 3.42111
# Velocity P-wave (km/s) = 5.83747 6.35990 6.10428
#
# Compressibility (1/GPa) = 0.02178229
#
# Stress axis : x y z
#
# Youngs Moduli (GPa) = 100.51112 83.48890 133.20601
#
# Poissons Ratio (x) = 0.05199 0.10054
# Poissons Ratio (y) = 0.06259 0.32613
# Poissons Ratio (z) = 0.07586 0.20441
#
# Static dielectric constant tensor:
#      x y z
#    x 1.998670 0.000000 0.000000 
#    y 0.000000 1.932010 0.000000 
#    z 0.000000 0.000000 1.826270 
# 
# From -- ./inp_files/43502.got.cif
#   From: 2010.05.17/outbox.cif.g08.bks.cpg/sg52_22_cif.got.tgz:43502.got - 2010.06.03 12:15:38.
