data_PCOD9409817
_publ_section_title
;
Structure prediction by ZEFSAII (Michael W. Deem and Ramdas Pophale) SiO2 
 PCOD9409817
Probable space group: P N N A
;
_chemical_formula_sum "Si O2"
_cell_formula_units_Z 28
_cell_length_a 11.452442
_cell_length_b 7.508090
_cell_length_c 13.612300
_cell_angle_alpha 90.000000
_cell_angle_beta 90.000000
_cell_angle_gamma 90.000000
_cell_volume 1170.466755
_symmetry_space_group_name_H-M "P N N A"
_symmetry_group_IT_number 52
_symmetry_cell_setting 'orthorhombic'
loop_
_space_group_symop_operation_xyz
x,y,z
1/2-x,-y,z
x,1/2-y,1/2-z
1/2-x,1/2+y,1/2-z
-x,-y,-z
1/2+x,y,-z
-x,1/2+y,1/2+z
1/2+x,1/2-y,1/2+z
loop_
_atom_site_type_symbol
_atom_site_label
_atom_site_fract_x
_atom_site_fract_y
_atom_site_fract_z
Si Si1 0.250000 0.500000 0.545746
Si Si2 0.869569 0.202477 0.568717
Si Si3 0.473683 0.632085 0.123047
Si Si4 0.480534 0.987150 0.819531
O O1 0.230900 0.675300 0.478712
O O2 0.364078 0.520882 0.614322
O O3 0.937261 0.326516 0.647141
O O4 0.954805 0.167242 0.475654
O O5 0.866900 0.002417 0.610449
O O6 0.448765 0.831868 0.156875
O O7 0.550277 0.525864 0.205639
#
# Coordination Sequence:
#
# PCOD9409817 Si02
#       4
#     4   8   8   8
#     4  10  20  36  62  90 126 160 218 262 318 386
#     4  10  20  39  61  87 128 170 204 267 332 381
#     4   9  19  37  61  88 122 168 208 253 332 387
#     4  10  20  39  62  88 129 168 210 275 321 380
#
# _framework density 23.922080000000001
#
# number of rings (size 3 to 8) (size 9 to 14) (size 15 to 20)
#    0.000    2.286    0.000    4.286    0.000    0.000 
#   20.571   17.143   25.143    0.000    0.000    0.000 
#    0.000    0.000    0.000    0.000    0.000    0.000 
#
# Total GULP energy -156048.019974 kJ/mol
# GULP energy per Si atom -5573.143570 kJ/mol
# Density = 2.386763 g / cm^3
# Si number density = 23.922080 Si / 1000 Ang^3
#
#
#
# Elastic Constant Matrix: (Units=GPa)
#
#
# Indices 1 2 3 4 5 6 
#
# 1 90.2844 41.1635 27.5629 0.0000 0.0000 0.0000
# 2 41.1635 196.8590 42.1701 0.0000 0.0000 0.0000
# 3 27.5629 42.1701 108.9979 0.0000 0.0000 0.0000
# 4 0.0000 0.0000 0.0000 16.3441 0.0000 0.0000
# 5 0.0000 0.0000 0.0000 0.0000 13.1265 0.0000
# 6 0.0000 0.0000 0.0000 0.0000 0.0000 19.6731
#
#
#
# Elastic Compliance Matrix: (Units=1/GPa)
#
#
# Indices 1 2 3 4 5 6 
#
# 1 0.012794 -0.002161 -0.002399 0.000000 0.000000 0.000000
# 2 -0.002161 0.005904 -0.001738 0.000000 0.000000 0.000000
# 3 -0.002399 -0.001738 0.010453 0.000000 0.000000 0.000000
# 4 0.000000 0.000000 0.000000 0.061184 0.000000 0.000000
# 5 0.000000 0.000000 0.000000 0.000000 0.076182 0.000000
# 6 0.000000 0.000000 0.000000 0.000000 0.000000 0.050831
#
#
# Mechanical properties :
#
#
# Convention : Reuss Voigt Hill
#
# Bulk Modulus (GPa) = 60.40380 68.65938 64.53159
# Shear Modulus (GPa) = 21.23480 28.84506 25.03993
#
# Velocity S-wave (km/s) = 2.98260 3.47622 3.23883
# Velocity P-wave (km/s) = 6.09641 6.69893 6.40476
#
# Compressibility (1/GPa) = 0.01655525
#
# Stress axis : x y z
#
# Youngs Moduli (GPa) = 78.16203 169.37850 95.66241
#
# Poissons Ratio (x) = 0.36608 0.22950
# Poissons Ratio (y) = 0.16893 0.16623
# Poissons Ratio (z) = 0.18752 0.29432
#
# Static dielectric constant tensor:
#      x y z
#    x 1.978930 0.000000 0.000000 
#    y 0.000000 1.942720 0.000000 
#    z 0.000000 0.000000 2.019640 
# 
# From -- ./inp_files/25382.got.cif
#   From: 2010.05.17/outbox.cif.g08.bks.cpg/sg52_13_cif.got.tgz:25382.got - 2010.06.03 12:15:38.
