data_PCOD9409272
_publ_section_title
;
Structure prediction by ZEFSAII (Michael W. Deem and Ramdas Pophale) SiO2 
 PCOD9409272
Probable space group: P N N A
;
_chemical_formula_sum "Si O2"
_cell_formula_units_Z 48
_cell_length_a 17.268891
_cell_length_b 12.449076
_cell_length_c 11.859738
_cell_angle_alpha 90.000000
_cell_angle_beta 90.000000
_cell_angle_gamma 90.000000
_cell_volume 2549.627070
_symmetry_space_group_name_H-M "P N N A"
_symmetry_group_IT_number 52
_symmetry_cell_setting 'orthorhombic'
loop_
_space_group_symop_operation_xyz
x,y,z
1/2-x,-y,z
x,1/2-y,1/2-z
1/2-x,1/2+y,1/2-z
-x,-y,-z
1/2+x,y,-z
-x,1/2+y,1/2+z
1/2+x,1/2-y,1/2+z
loop_
_atom_site_type_symbol
_atom_site_label
_atom_site_fract_x
_atom_site_fract_y
_atom_site_fract_z
Si Si1 0.898631 0.379426 0.264499
Si Si2 0.428281 0.890497 0.150957
Si Si3 0.834582 0.049693 0.003549
Si Si4 0.365407 0.666805 0.114505
Si Si5 0.685736 0.771178 0.619785
Si Si6 0.341489 0.471981 0.970310
O O1 0.890414 0.250000 0.250000
O O2 0.846749 0.429235 0.364161
O O3 0.876835 0.432078 0.145982
O O4 0.985499 0.406965 0.304407
O O5 0.422080 0.767986 0.107127
O O6 0.374730 0.889038 0.263230
O O7 0.396571 0.971982 0.057594
O O8 0.750000 0.000000 0.982206
O O9 0.839487 0.166492 0.947726
O O10 0.278512 0.712843 0.108092
O O11 0.379233 0.579550 0.019068
O O12 0.667246 0.750000 0.750000
O O13 0.651318 0.878093 0.563608
O O14 0.250000 0.500000 0.956843
#
# Coordination Sequence:
#
# PCOD9409272 Si02
#       6
#     8   8   8   8   8   8
#     4  12  24  43  60  88 128 175 203 248 317 392
#     4  11  22  41  63  92 124 162 204 255 323 370
#     4  12  23  39  65  92 123 161 213 266 309 368
#     4  10  19  38  63  89 125 160 202 259 314 359
#     4  11  19  35  63  96 122 153 214 266 310 354
#     4  10  23  40  63  95 123 165 215 258 309 376
#
# _framework density 18.826283
#
# number of rings (size 3 to 8) (size 9 to 14) (size 15 to 20)
#    0.000    1.000    6.667    2.000    0.000    2.000 
#    0.000    0.833    0.000    0.000    0.000    0.000 
#    0.000    0.000    0.000    0.000    0.000    0.000 
#
# Total GULP energy -268103.599376 kJ/mol
# GULP energy per Si atom -5585.491654 kJ/mol
# Density = 1.878343 g / cm^3
# Si number density = 18.826283 Si / 1000 Ang^3
#
#
#
# Elastic Constant Matrix: (Units=GPa)
#
#
# Indices 1 2 3 4 5 6 
#
# 1 38.9910 34.9056 27.2065 0.0000 0.0000 0.0000
# 2 34.9056 116.3450 81.8697 0.0000 0.0000 0.0000
# 3 27.2065 81.8697 139.0774 0.0000 0.0000 0.0000
# 4 0.0000 0.0000 0.0000 36.9203 0.0000 0.0000
# 5 0.0000 0.0000 0.0000 0.0000 -13.5758 0.0000
# 6 0.0000 0.0000 0.0000 0.0000 0.0000 12.2036
#
#
#
# Elastic Compliance Matrix: (Units=1/GPa)
#
#
# Indices 1 2 3 4 5 6 
#
# 1 0.035171 -0.009749 -0.001141 0.000000 0.000000 0.000000
# 2 -0.009749 0.017375 -0.008321 0.000000 0.000000 0.000000
# 3 -0.001141 -0.008321 0.012312 0.000000 0.000000 0.000000
# 4 0.000000 0.000000 0.000000 0.027085 0.000000 0.000000
# 5 0.000000 0.000000 0.000000 0.000000 -0.073661 0.000000
# 6 0.000000 0.000000 0.000000 0.000000 0.000000 0.081943
#
#
# Mechanical properties :
#
#
# Convention : Reuss Voigt Hill
#
# Bulk Modulus (GPa) = 37.82818 64.70858 51.26838
# Shear Modulus (GPa) = 33.90751 17.13840 25.52296
#
# Velocity S-wave (km/s) = 4.24851 3.02046 3.68599
# Velocity P-wave (km/s) = 6.64856 6.82717 6.73846
#
# Compressibility (1/GPa) = 0.02643532
#
# Stress axis : x y z
#
# Youngs Moduli (GPa) = 28.43287 57.55285 81.22212
#
# Poissons Ratio (x) = 0.56106 0.09271
# Poissons Ratio (y) = 0.27718 0.67586
# Poissons Ratio (z) = 0.03246 0.47891
#
# Static dielectric constant tensor:
#      x y z
#    x 1.657510 0.000000 0.000000 
#    y 0.000000 1.642680 0.000000 
#    z 0.000000 0.000000 1.645580 
# 
# From -- ./inp_files/20616.got.cif
#   From: 2010.05.17/outbox.cif.g08.bks.cpg/sg52_11_cif.got.tgz:20616.got - 2010.06.03 12:15:38.
