data_PCOD9409399
_publ_section_title
;
Structure prediction by ZEFSAII (Michael W. Deem and Ramdas Pophale) SiO2 
 PCOD9409399
Probable space group: P N N A
;
_chemical_formula_sum "Si O2"
_cell_formula_units_Z 44
_cell_length_a 5.577043
_cell_length_b 15.400842
_cell_length_c 26.837284
_cell_angle_alpha 90.000000
_cell_angle_beta 90.000000
_cell_angle_gamma 90.000000
_cell_volume 2305.085402
_symmetry_space_group_name_H-M "P N N A"
_symmetry_group_IT_number 52
_symmetry_cell_setting 'orthorhombic'
loop_
_space_group_symop_operation_xyz
x,y,z
1/2-x,-y,z
x,1/2-y,1/2-z
1/2-x,1/2+y,1/2-z
-x,-y,-z
1/2+x,y,-z
-x,1/2+y,1/2+z
1/2+x,1/2-y,1/2+z
loop_
_atom_site_type_symbol
_atom_site_label
_atom_site_fract_x
_atom_site_fract_y
_atom_site_fract_z
Si Si1 0.725835 0.900330 0.931221
Si Si2 0.258023 0.183566 0.297344
Si Si3 0.504445 0.279481 0.507562
Si Si4 0.236999 0.752450 0.689720
Si Si5 0.421204 0.568826 0.659716
Si Si6 0.250000 0.000000 0.244613
O O1 0.524024 0.852978 0.964563
O O2 0.643360 0.903500 0.874463
O O3 0.750000 0.000000 0.947378
O O4 0.948445 0.837029 0.943103
O O5 0.271835 0.250000 0.250000
O O6 0.518094 0.195379 0.323005
O O7 0.018853 0.210097 0.327220
O O8 0.219447 0.086766 0.276761
O O9 0.252084 0.231248 0.504696
O O10 0.223697 0.750000 0.750000
O O11 0.276508 0.654401 0.672829
O O12 0.250000 0.500000 0.632485
O O13 0.526758 0.521589 0.708388
#
# Coordination Sequence:
#
# PCOD9409399 Si02
#       6
#     8   8   8   8   8   4
#     4  10  20  29  45  65  93 126 171 215 252 287
#     4  10  20  36  54  68  95 129 157 207 255 305
#     4   8  19  31  45  57  87 129 160 204 254 288
#     4  10  20  38  49  65  99 126 151 210 261 299
#     4  12  24  31  50  76  97 127 177 226 248 292
#     4  12  22  36  54  74  96 132 180 220 248 300
#
# _framework density 19.088228999999998
#
# number of rings (size 3 to 8) (size 9 to 14) (size 15 to 20)
#    1.091    0.727    4.545    2.727    2.545    0.000 
#    0.000    0.000    0.000    0.000    0.000    0.000 
#    0.000    0.000    0.000    0.000    0.000   18.182 
#
# Total GULP energy -244996.306404 kJ/mol
# GULP energy per Si atom -5568.097873 kJ/mol
# Density = 1.904478 g / cm^3
# Si number density = 19.088229 Si / 1000 Ang^3
#
#
#
# Elastic Constant Matrix: (Units=GPa)
#
#
# Indices 1 2 3 4 5 6 
#
# 1 137.4922 5.7931 0.9861 0.0000 0.0000 0.0000
# 2 5.7931 74.0999 12.1725 0.0000 0.0000 0.0000
# 3 0.9861 12.1725 18.9306 0.0000 0.0000 0.0000
# 4 0.0000 0.0000 0.0000 -7.4355 0.0000 0.0000
# 5 0.0000 0.0000 0.0000 0.0000 16.4375 0.0000
# 6 0.0000 0.0000 0.0000 0.0000 0.0000 9.1579
#
#
#
# Elastic Compliance Matrix: (Units=1/GPa)
#
#
# Indices 1 2 3 4 5 6 
#
# 1 0.007297 -0.000568 -0.000015 0.000000 0.000000 0.000000
# 2 -0.000568 0.015133 -0.009701 0.000000 0.000000 0.000000
# 3 -0.000015 -0.009701 0.059063 0.000000 0.000000 0.000000
# 4 0.000000 0.000000 0.000000 -0.134490 0.000000 0.000000
# 5 0.000000 0.000000 0.000000 0.000000 0.060837 0.000000
# 6 0.000000 0.000000 0.000000 0.000000 0.000000 0.109195
#
#
# Mechanical properties :
#
#
# Convention : Reuss Voigt Hill
#
# Bulk Modulus (GPa) = 16.41348 29.82511 23.11930
# Shear Modulus (GPa) = 31.66316 17.73671 24.69993
#
# Velocity S-wave (km/s) = 4.07723 3.05158 3.60111
# Velocity P-wave (km/s) = 5.54820 5.29858 5.42483
#
# Compressibility (1/GPa) = 0.06092553
#
# Stress axis : x y z
#
# Youngs Moduli (GPa) = 137.03922 66.07923 16.93099
#
# Poissons Ratio (x) = 0.03754 0.00025
# Poissons Ratio (y) = 0.07785 0.16425
# Poissons Ratio (z) = 0.00203 0.64105
#
# Static dielectric constant tensor:
#      x y z
#    x 1.819020 0.000000 0.000000 
#    y 0.000000 1.607440 0.000000 
#    z 0.000000 0.000000 1.711440 
# 
# From -- ./inp_files/43721.got.cif
#   From: 2010.05.17/outbox.cif.g08.bks.cpg/sg52_22_cif.got.tgz:43721.got - 2010.06.03 12:15:38.
