data_PCOD9409261
_publ_section_title
;
Structure prediction by ZEFSAII (Michael W. Deem and Ramdas Pophale) SiO2 
 PCOD9409261
Probable space group: P N N A
;
_chemical_formula_sum "Si O2"
_cell_formula_units_Z 64
_cell_length_a 18.318023
_cell_length_b 21.136157
_cell_length_c 7.630152
_cell_angle_alpha 90.000000
_cell_angle_beta 90.000000
_cell_angle_gamma 90.000000
_cell_volume 2954.185865
_symmetry_space_group_name_H-M "P N N A"
_symmetry_group_IT_number 52
_symmetry_cell_setting 'orthorhombic'
loop_
_space_group_symop_operation_xyz
x,y,z
1/2-x,-y,z
x,1/2-y,1/2-z
1/2-x,1/2+y,1/2-z
-x,-y,-z
1/2+x,y,-z
-x,1/2+y,1/2+z
1/2+x,1/2-y,1/2+z
loop_
_atom_site_type_symbol
_atom_site_label
_atom_site_fract_x
_atom_site_fract_y
_atom_site_fract_z
Si Si1 0.477542 0.392535 0.536740
Si Si2 0.242682 0.922359 0.322345
Si Si3 0.854573 0.174939 0.227389
Si Si4 0.189069 0.052185 0.993181
Si Si5 0.539291 0.179647 0.253438
Si Si6 0.307024 0.864334 0.674769
Si Si7 0.084569 0.901198 0.441033
Si Si8 0.946463 0.993449 0.776974
O O1 0.401698 0.355723 0.568605
O O2 0.534824 0.344934 0.447996
O O3 0.504529 0.430761 0.708639
O O4 0.475895 0.448217 0.392310
O O5 0.274908 0.901515 0.135822
O O6 0.284889 0.892389 0.486680
O O7 0.159136 0.900437 0.326262
O O8 0.250000 0.000000 0.335887
O O9 0.869031 0.250000 0.250000
O O10 0.767096 0.164157 0.239251
O O11 0.886890 0.132773 0.385640
O O12 0.250000 0.000000 0.953374
O O13 0.124079 0.024154 0.107903
O O14 0.167876 0.080868 0.808909
O O15 0.509872 0.250000 0.250000
O O16 0.621172 0.178699 0.329669
O O17 0.484150 0.138061 0.370225
O O18 0.067595 0.976370 0.413674
#
# Coordination Sequence:
#
# PCOD9409261 Si02
#       8
#     8   8   8   8   8   8   8   8
#     4  10  22  38  63  92 125 165 221 262 329 410
#     4  10  21  39  61  96 134 161 216 268 329 414
#     4  11  24  43  65  93 127 174 233 274 320 401
#     4  11  19  36  63  93 134 172 203 265 341 398
#     4  11  23  43  64  87 129 176 219 273 331 391
#     4  11  24  40  64  96 127 173 224 272 333 387
#     4  10  22  41  62  92 126 172 206 272 338 384
#     4  10  19  38  60  94 127 161 213 266 332 407
#
# _framework density 21.664173999999999
#
# number of rings (size 3 to 8) (size 9 to 14) (size 15 to 20)
#    0.000    1.500    3.750    2.250    1.750    2.500 
#    0.000    0.000    0.000    0.000    0.000    0.000 
#    0.000    0.000    0.000    0.000    0.000    0.000 
#
# Total GULP energy -356497.655719 kJ/mol
# GULP energy per Si atom -5570.275871 kJ/mol
# Density = 2.161487 g / cm^3
# Si number density = 21.664174 Si / 1000 Ang^3
#
#
#
# Elastic Constant Matrix: (Units=GPa)
#
#
# Indices 1 2 3 4 5 6 
#
# 1 109.9326 19.7531 1.0210 0.0000 0.0000 0.0000
# 2 19.7531 63.4070 6.6738 0.0000 0.0000 0.0000
# 3 1.0210 6.6738 64.0564 0.0000 0.0000 0.0000
# 4 0.0000 0.0000 0.0000 17.3238 0.0000 0.0000
# 5 0.0000 0.0000 0.0000 0.0000 10.6983 0.0000
# 6 0.0000 0.0000 0.0000 0.0000 0.0000 21.4268
#
#
#
# Elastic Compliance Matrix: (Units=1/GPa)
#
#
# Indices 1 2 3 4 5 6 
#
# 1 0.009638 -0.003019 0.000161 0.000000 0.000000 0.000000
# 2 -0.003019 0.016892 -0.001712 0.000000 0.000000 0.000000
# 3 0.000161 -0.001712 0.015787 0.000000 0.000000 0.000000
# 4 0.000000 0.000000 0.000000 0.057724 0.000000 0.000000
# 5 0.000000 0.000000 0.000000 0.000000 0.093473 0.000000
# 6 0.000000 0.000000 0.000000 0.000000 0.000000 0.046671
#
#
# Mechanical properties :
#
#
# Convention : Reuss Voigt Hill
#
# Bulk Modulus (GPa) = 30.14210 32.47686 31.30948
# Shear Modulus (GPa) = 19.20251 23.88633 21.54442
#
# Velocity S-wave (km/s) = 2.98043 3.32410 3.15695
# Velocity P-wave (km/s) = 5.07814 5.45495 5.26991
#
# Compressibility (1/GPa) = 0.03317619
#
# Stress axis : x y z
#
# Youngs Moduli (GPa) = 103.76132 59.20002 63.34317
#
# Poissons Ratio (x) = 0.17874 -0.01020
# Poissons Ratio (y) = 0.31329 0.10843
# Poissons Ratio (z) = -0.01670 0.10134
#
# Static dielectric constant tensor:
#      x y z
#    x 1.885690 0.000000 0.000000 
#    y 0.000000 1.849270 0.000000 
#    z 0.000000 0.000000 1.911360 
# 
# From -- ./inp_files/12595.got.cif
#   From: 2010.05.17/outbox.cif.g08.bks.cpg/sg52_7_cif.got.tgz:12595.got - 2010.06.03 12:15:38.
