data_PCOD9409444
_publ_section_title
;
Structure prediction by ZEFSAII (Michael W. Deem and Ramdas Pophale) SiO2 
 PCOD9409444
Probable space group: P N N A
;
_chemical_formula_sum "Si O2"
_cell_formula_units_Z 32
_cell_length_a 8.515523
_cell_length_b 10.400980
_cell_length_c 18.662663
_cell_angle_alpha 90.000000
_cell_angle_beta 90.000000
_cell_angle_gamma 90.000000
_cell_volume 1652.948038
_symmetry_space_group_name_H-M "P N N A"
_symmetry_group_IT_number 52
_symmetry_cell_setting 'orthorhombic'
loop_
_space_group_symop_operation_xyz
x,y,z
1/2-x,-y,z
x,1/2-y,1/2-z
1/2-x,1/2+y,1/2-z
-x,-y,-z
1/2+x,y,-z
-x,1/2+y,1/2+z
1/2+x,1/2-y,1/2+z
loop_
_atom_site_type_symbol
_atom_site_label
_atom_site_fract_x
_atom_site_fract_y
_atom_site_fract_z
Si Si1 0.347219 0.379611 0.863073
Si Si2 0.385042 0.750000 0.750000
Si Si3 0.018573 0.355363 0.411437
Si Si4 0.250000 0.000000 0.995497
Si Si5 0.566162 0.490261 0.738889
O O1 0.250000 0.500000 0.894701
O O2 0.224385 0.295241 0.816004
O O3 0.446931 0.287071 0.914111
O O4 0.469169 0.435522 0.805327
O O5 0.491551 0.630594 0.725205
O O6 0.177195 0.388275 0.454354
O O7 0.042574 0.398526 0.329508
O O8 0.886880 0.446185 0.446020
O O9 0.750000 0.500000 0.754332
#
# Coordination Sequence:
#
# PCOD9409444 Si02
#       5
#     8   4   8   4   8
#     4  10  21  38  60  87 117 158 189 249 310 362
#     4  10  20  32  54  88 118 152 184 226 318 360
#     4  11  20  40  56  84 119 151 209 240 292 350
#     4  10  24  34  62  86 108 172 198 244 282 348
#     4  11  22  33  59  90 121 148 189 253 305 350
#
# _framework density 19.359349999999999
#
# number of rings (size 3 to 8) (size 9 to 14) (size 15 to 20)
#    0.000    1.500    3.750    1.500    5.250    0.000 
#    0.000    1.250    0.000    0.000    0.000    0.000 
#    0.000    0.000    0.000    0.000    0.000    0.000 
#
# Total GULP energy -178689.316596 kJ/mol
# GULP energy per Si atom -5584.041144 kJ/mol
# Density = 1.931529 g / cm^3
# Si number density = 19.359350 Si / 1000 Ang^3
#
#
#
# Elastic Constant Matrix: (Units=GPa)
#
#
# Indices 1 2 3 4 5 6 
#
# 1 115.7717 28.3936 5.1059 0.0000 0.0000 0.0000
# 2 28.3936 80.9437 -3.2613 0.0000 0.0000 0.0000
# 3 5.1059 -3.2613 20.7706 0.0000 0.0000 0.0000
# 4 0.0000 0.0000 0.0000 13.9800 0.0000 0.0000
# 5 0.0000 0.0000 0.0000 0.0000 -18.3764 0.0000
# 6 0.0000 0.0000 0.0000 0.0000 0.0000 8.2563
#
#
#
# Elastic Compliance Matrix: (Units=1/GPa)
#
#
# Indices 1 2 3 4 5 6 
#
# 1 0.009623 -0.003493 -0.002914 0.000000 0.000000 0.000000
# 2 -0.003493 0.013701 0.003010 0.000000 0.000000 0.000000
# 3 -0.002914 0.003010 0.049334 0.000000 0.000000 0.000000
# 4 0.000000 0.000000 0.000000 0.071531 0.000000 0.000000
# 5 0.000000 0.000000 0.000000 0.000000 -0.054417 0.000000
# 6 0.000000 0.000000 0.000000 0.000000 0.000000 0.121119
#
#
# Mechanical properties :
#
#
# Convention : Reuss Voigt Hill
#
# Bulk Modulus (GPa) = 15.18295 30.88473 23.03384
# Shear Modulus (GPa) = 20.86473 13.25515 17.05994
#
# Velocity S-wave (km/s) = 3.28649 2.61950 2.97176
# Velocity P-wave (km/s) = 4.71816 5.01369 4.86817
#
# Compressibility (1/GPa) = 0.06586335
#
# Stress axis : x y z
#
# Youngs Moduli (GPa) = 103.91917 72.98847 20.27007
#
# Poissons Ratio (x) = 0.25494 0.05907
# Poissons Ratio (y) = 0.36298 -0.06101
# Poissons Ratio (z) = 0.30282 -0.21968
#
# Static dielectric constant tensor:
#      x y z
#    x 1.667930 0.000000 0.000000 
#    y 0.000000 1.712190 0.000000 
#    z 0.000000 0.000000 1.642680 
# 
# From -- ./inp_files/24114.got.cif
#   From: 2010.05.17/outbox.cif.g08.bks.cpg/sg52_13_cif.got.tgz:24114.got - 2010.06.03 12:15:38.
