data_PCOD9409106
_publ_section_title
;
Structure prediction by ZEFSAII (Michael W. Deem and Ramdas Pophale) SiO2 
 PCOD9409106
Probable space group: P N N A
;
_chemical_formula_sum "Si O2"
_cell_formula_units_Z 64
_cell_length_a 8.886339
_cell_length_b 17.435829
_cell_length_c 20.610518
_cell_angle_alpha 90.000000
_cell_angle_beta 90.000000
_cell_angle_gamma 90.000000
_cell_volume 3193.407823
_symmetry_space_group_name_H-M "P N N A"
_symmetry_group_IT_number 52
_symmetry_cell_setting 'orthorhombic'
loop_
_space_group_symop_operation_xyz
x,y,z
1/2-x,-y,z
x,1/2-y,1/2-z
1/2-x,1/2+y,1/2-z
-x,-y,-z
1/2+x,y,-z
-x,1/2+y,1/2+z
1/2+x,1/2-y,1/2+z
loop_
_atom_site_type_symbol
_atom_site_label
_atom_site_fract_x
_atom_site_fract_y
_atom_site_fract_z
Si Si1 0.811935 0.921028 0.683227
Si Si2 0.302666 0.194382 0.079680
Si Si3 0.838659 0.123830 0.555336
Si Si4 0.667726 0.583836 0.200289
Si Si5 0.399083 0.331024 0.278091
Si Si6 0.201376 0.411013 0.670675
Si Si7 0.634210 0.324146 0.455956
Si Si8 0.680309 0.143701 0.426249
O O1 0.764819 0.916024 0.608253
O O2 0.714144 0.859287 0.722534
O O3 0.990496 0.919162 0.688361
O O4 0.750000 0.000000 0.711453
O O5 0.312987 0.285596 0.068506
O O6 0.302274 0.180305 0.156190
O O7 0.458994 0.160530 0.053647
O O8 0.178657 0.162803 0.030443
O O9 0.787243 0.109283 0.482012
O O10 0.013941 0.107917 0.567849
O O11 0.750000 0.500000 0.199544
O O12 0.692512 0.618639 0.271558
O O13 0.749776 0.630471 0.143820
O O14 0.462611 0.250000 0.250000
O O15 0.535045 0.388725 0.299426
O O16 0.250000 0.500000 0.662997
O O17 0.215415 0.371286 0.600889
O O18 0.662628 0.234329 0.440108
#
# Coordination Sequence:
#
# PCOD9409106 Si02
#       8
#     8   8   8   8   8   8   8   8
#     4  12  24  40  61  89 124 164 206 266 325 386
#     4   9  19  37  61  91 121 165 209 262 316 378
#     4  10  19  36  58  86 123 162 209 260 320 376
#     4  11  24  40  58  87 124 164 210 260 316 382
#     4  11  22  42  69  92 127 176 221 266 330 393
#     4  10  22  41  63  91 128 170 211 263 325 391
#     4   9  20  36  60  88 122 162 204 258 315 377
#     4  10  20  36  59  88 120 163 211 261 314 378
#
# _framework density 20.041284999999998
#
# number of rings (size 3 to 8) (size 9 to 14) (size 15 to 20)
#    0.000    1.750    1.250    3.750    3.500    2.500 
#    2.250    5.625    0.000    0.000    0.000    0.000 
#    0.000    0.000    0.000    0.000    0.000    0.000 
#
# Total GULP energy -356942.191722 kJ/mol
# GULP energy per Si atom -5577.221746 kJ/mol
# Density = 1.999567 g / cm^3
# Si number density = 20.041285 Si / 1000 Ang^3
#
#
#
# Elastic Constant Matrix: (Units=GPa)
#
#
# Indices 1 2 3 4 5 6 
#
# 1 76.1305 19.8818 -3.0177 0.0000 0.0000 0.0000
# 2 19.8818 32.7810 8.4216 0.0000 0.0000 0.0000
# 3 -3.0177 8.4216 81.3322 0.0000 0.0000 0.0000
# 4 0.0000 0.0000 0.0000 14.6753 0.0000 0.0000
# 5 0.0000 0.0000 0.0000 0.0000 44.2765 0.0000
# 6 0.0000 0.0000 0.0000 0.0000 0.0000 17.4354
#
#
#
# Elastic Compliance Matrix: (Units=1/GPa)
#
#
# Indices 1 2 3 4 5 6 
#
# 1 0.015813 -0.010008 0.001623 0.000000 0.000000 0.000000
# 2 -0.010008 0.037673 -0.004272 0.000000 0.000000 0.000000
# 3 0.001623 -0.004272 0.012798 0.000000 0.000000 0.000000
# 4 0.000000 0.000000 0.000000 0.068142 0.000000 0.000000
# 5 0.000000 0.000000 0.000000 0.000000 0.022585 0.000000
# 6 0.000000 0.000000 0.000000 0.000000 0.000000 0.057354
#
#
# Mechanical properties :
#
#
# Convention : Reuss Voigt Hill
#
# Bulk Modulus (GPa) = 24.40811 26.75722 25.58266
# Shear Modulus (GPa) = 19.73663 26.27464 23.00563
#
# Velocity S-wave (km/s) = 3.14155 3.62474 3.39176
# Velocity P-wave (km/s) = 5.03632 5.55863 5.30391
#
# Compressibility (1/GPa) = 0.04096999
#
# Stress axis : x y z
#
# Youngs Moduli (GPa) = 63.23819 26.54438 78.13824
#
# Poissons Ratio (x) = 0.26565 -0.12682
# Poissons Ratio (y) = 0.63287 0.33382
# Poissons Ratio (z) = -0.10263 0.11340
#
# Static dielectric constant tensor:
#      x y z
#    x 1.651820 0.000000 0.000000 
#    y 0.000000 1.788300 0.000000 
#    z 0.000000 0.000000 1.713150 
# 
# From -- ./inp_files/36177.got.cif
#   From: 2010.05.17/outbox.cif.g08.bks.cpg/sg52_19_cif.got.tgz:36177.got - 2010.06.03 12:15:38.
