data_PCOD9409618
_publ_section_title
;
Structure prediction by ZEFSAII (Michael W. Deem and Ramdas Pophale) SiO2 
 PCOD9409618
Probable space group: P N N A
;
_chemical_formula_sum "Si O2"
_cell_formula_units_Z 40
_cell_length_a 18.595778
_cell_length_b 8.119655
_cell_length_c 14.247644
_cell_angle_alpha 90.000000
_cell_angle_beta 90.000000
_cell_angle_gamma 90.000000
_cell_volume 2151.270315
_symmetry_space_group_name_H-M "P N N A"
_symmetry_group_IT_number 52
_symmetry_cell_setting 'orthorhombic'
loop_
_space_group_symop_operation_xyz
x,y,z
1/2-x,-y,z
x,1/2-y,1/2-z
1/2-x,1/2+y,1/2-z
-x,-y,-z
1/2+x,y,-z
-x,1/2+y,1/2+z
1/2+x,1/2-y,1/2+z
loop_
_atom_site_type_symbol
_atom_site_label
_atom_site_fract_x
_atom_site_fract_y
_atom_site_fract_z
Si Si1 0.587721 0.111692 0.868393
Si Si2 0.733740 0.306060 0.855345
Si Si3 0.460099 0.408875 0.190533
Si Si4 0.559095 0.806202 0.354220
Si Si5 0.131713 0.783305 0.037896
O O1 0.653146 0.240369 0.871729
O O2 0.511614 0.199725 0.881969
O O3 0.582221 0.025214 0.765202
O O4 0.600579 0.964350 0.941043
O O5 0.750000 0.500000 0.862848
O O6 0.754404 0.250000 0.750000
O O7 0.786438 0.218356 0.928609
O O8 0.483181 0.250000 0.250000
O O9 0.527758 0.509805 0.152316
O O10 0.410124 0.342550 0.107468
O O11 0.580944 0.750000 0.250000
O O12 0.617884 0.774781 0.432781
#
# Coordination Sequence:
#
# PCOD9409618 Si02
#       5
#     8   8   8   8   8
#     4  10  20  35  53  79 107 134 170 216 269 321
#     4  12  22  34  53  80 109 136 167 215 273 327
#     4   9  18  32  52  78 107 136 170 215 268 319
#     4  10  20  35  53  76 106 140 176 216 256 309
#     4  11  20  32  53  79 107 138 172 214 264 318
#
# _framework density 18.593665999999999
#
# number of rings (size 3 to 8) (size 9 to 14) (size 15 to 20)
#    0.000    1.600    0.000    9.000    0.000    0.000 
#    0.000    0.000    0.000    2.400    0.000    5.600 
#    0.000    0.000    0.000    0.000    0.000    0.000 
#
# Total GULP energy -223523.366643 kJ/mol
# GULP energy per Si atom -5588.084166 kJ/mol
# Density = 1.855135 g / cm^3
# Si number density = 18.593666 Si / 1000 Ang^3
#
#
#
# Elastic Constant Matrix: (Units=GPa)
#
#
# Indices 1 2 3 4 5 6 
#
# 1 48.5322 3.8197 35.2245 0.0000 0.0000 0.0000
# 2 3.8197 70.6904 3.3652 0.0000 0.0000 0.0000
# 3 35.2245 3.3652 64.1314 0.0000 0.0000 0.0000
# 4 0.0000 0.0000 0.0000 17.6209 0.0000 0.0000
# 5 0.0000 0.0000 0.0000 0.0000 -25.6522 0.0000
# 6 0.0000 0.0000 0.0000 0.0000 0.0000 12.0630
#
#
#
# Elastic Compliance Matrix: (Units=1/GPa)
#
#
# Indices 1 2 3 4 5 6 
#
# 1 0.034329 -0.000960 -0.018805 0.000000 0.000000 0.000000
# 2 -0.000960 0.014208 -0.000218 0.000000 0.000000 0.000000
# 3 -0.018805 -0.000218 0.025933 0.000000 0.000000 0.000000
# 4 0.000000 0.000000 0.000000 0.056751 0.000000 0.000000
# 5 0.000000 0.000000 0.000000 0.000000 -0.038983 0.000000
# 6 0.000000 0.000000 0.000000 0.000000 0.000000 0.082898
#
#
# Mechanical properties :
#
#
# Convention : Reuss Voigt Hill
#
# Bulk Modulus (GPa) = 28.98189 29.79697 29.38943
# Shear Modulus (GPa) = 22.06490 10.20265 16.13378
#
# Velocity S-wave (km/s) = 3.44857 2.34501 2.94888
# Velocity P-wave (km/s) = 5.61050 4.83655 5.23784
#
# Compressibility (1/GPa) = 0.03450431
#
# Stress axis : x y z
#
# Youngs Moduli (GPa) = 29.12986 70.38062 38.56056
#
# Poissons Ratio (x) = 0.06755 0.72513
# Poissons Ratio (y) = 0.02796 0.00842
# Poissons Ratio (z) = 0.54779 0.01537
#
# Static dielectric constant tensor:
#      x y z
#    x 1.639940 0.000000 0.000000 
#    y 0.000000 1.684590 0.000000 
#    z 0.000000 0.000000 1.630000 
# 
# From -- ./inp_files/26867.got.cif
#   From: 2010.05.17/outbox.cif.g08.bks.cpg/sg52_14_cif.got.tgz:26867.got - 2010.06.03 12:15:38.
