data_PCOD9409798
_publ_section_title
;
Structure prediction by ZEFSAII (Michael W. Deem and Ramdas Pophale) SiO2 
 PCOD9409798
Probable space group: P N N A
;
_chemical_formula_sum "Si O2"
_cell_formula_units_Z 64
_cell_length_a 22.813300
_cell_length_b 8.332429
_cell_length_c 15.676813
_cell_angle_alpha 90.000000
_cell_angle_beta 90.000000
_cell_angle_gamma 90.000000
_cell_volume 2980.008558
_symmetry_space_group_name_H-M "P N N A"
_symmetry_group_IT_number 52
_symmetry_cell_setting 'orthorhombic'
loop_
_space_group_symop_operation_xyz
x,y,z
1/2-x,-y,z
x,1/2-y,1/2-z
1/2-x,1/2+y,1/2-z
-x,-y,-z
1/2+x,y,-z
-x,1/2+y,1/2+z
1/2+x,1/2-y,1/2+z
loop_
_atom_site_type_symbol
_atom_site_label
_atom_site_fract_x
_atom_site_fract_y
_atom_site_fract_z
Si Si1 0.294516 0.873059 0.380143
Si Si2 0.289011 0.353877 0.473866
Si Si3 0.099415 0.540437 0.139918
Si Si4 0.430963 0.614956 0.693969
Si Si5 0.988161 0.385515 0.181059
Si Si6 0.599330 0.677036 0.412314
Si Si7 0.139305 0.456124 0.332323
Si Si8 0.958946 0.368746 0.585140
O O1 0.253567 0.789446 0.449198
O O2 0.328792 0.717936 0.338940
O O3 0.250000 0.000000 0.332124
O O4 0.346598 0.982276 0.416356
O O5 0.250000 0.500000 0.509397
O O6 0.340589 0.306493 0.537440
O O7 0.318136 0.425896 0.386502
O O8 0.124946 0.511598 0.235852
O O9 0.078239 0.718860 0.122941
O O10 0.043861 0.426430 0.124751
O O11 0.399084 0.750000 0.750000
O O12 0.475414 0.542750 0.764086
O O13 0.395041 0.467240 0.655520
O O14 0.475397 0.660672 0.617679
O O15 0.003680 0.250000 0.250000
O O16 0.929701 0.328303 0.134056
O O17 0.550691 0.632971 0.484175
O O18 0.075979 0.475311 0.379162
#
# Coordination Sequence:
#
# PCOD9409798 Si02
#       8
#     8   8   8   8   8   8   8   8
#     4  11  23  36  55  86 125 174 226 266 305 376
#     4   9  21  44  63  87 126 174 222 271 324 385
#     4  12  22  36  60  90 134 176 218 264 315 394
#     4  11  20  40  65  93 128 167 211 265 326 401
#     4  10  21  38  61  93 133 168 209 267 337 393
#     4  10  23  39  64  92 131 166 213 267 332 396
#     4  10  20  36  61  84 124 177 219 261 312 380
#     4  11  21  39  59  95 134 174 209 259 326 401
#
# _framework density 21.476447
#
# number of rings (size 3 to 8) (size 9 to 14) (size 15 to 20)
#    0.000    1.500    2.500    3.375    1.750    3.000 
#    2.250    3.750    0.000    2.250    0.000    0.000 
#    0.000    0.000    0.000    0.000    0.000    0.000 
#
# Total GULP energy -356915.615431 kJ/mol
# GULP energy per Si atom -5576.806491 kJ/mol
# Density = 2.142757 g / cm^3
# Si number density = 21.476447 Si / 1000 Ang^3
#
#
#
# Elastic Constant Matrix: (Units=GPa)
#
#
# Indices 1 2 3 4 5 6 
#
# 1 87.8651 26.4365 13.1094 0.0000 0.0000 0.0000
# 2 26.4365 74.1710 11.9912 0.0000 0.0000 0.0000
# 3 13.1094 11.9912 51.5464 0.0000 0.0000 0.0000
# 4 0.0000 0.0000 0.0000 21.8965 0.0000 0.0000
# 5 0.0000 0.0000 0.0000 0.0000 31.5970 0.0000
# 6 0.0000 0.0000 0.0000 0.0000 0.0000 29.6687
#
#
#
# Elastic Compliance Matrix: (Units=1/GPa)
#
#
# Indices 1 2 3 4 5 6 
#
# 1 0.013009 -0.004262 -0.002317 0.000000 0.000000 0.000000
# 2 -0.004262 0.015406 -0.002500 0.000000 0.000000 0.000000
# 3 -0.002317 -0.002500 0.020571 0.000000 0.000000 0.000000
# 4 0.000000 0.000000 0.000000 0.045669 0.000000 0.000000
# 5 0.000000 0.000000 0.000000 0.000000 0.031649 0.000000
# 6 0.000000 0.000000 0.000000 0.000000 0.000000 0.033706
#
#
# Mechanical properties :
#
#
# Convention : Reuss Voigt Hill
#
# Bulk Modulus (GPa) = 32.43852 35.18406 33.81129
# Shear Modulus (GPa) = 26.53322 27.43549 26.98436
#
# Velocity S-wave (km/s) = 3.51872 3.57805 3.54851
# Velocity P-wave (km/s) = 5.62544 5.78689 5.70673
#
# Compressibility (1/GPa) = 0.03082754
#
# Stress axis : x y z
#
# Youngs Moduli (GPa) = 76.86886 64.91118 48.61261
#
# Poissons Ratio (x) = 0.27667 0.11264
# Poissons Ratio (y) = 0.32763 0.12152
# Poissons Ratio (z) = 0.17810 0.16227
#
# Static dielectric constant tensor:
#      x y z
#    x 1.813250 0.000000 0.000000 
#    y 0.000000 1.875190 0.000000 
#    z 0.000000 0.000000 1.794210 
# 
# From -- ./inp_files/29254.got.cif
#   From: 2010.05.17/outbox.cif.g08.bks.cpg/sg52_15_cif.got.tgz:29254.got - 2010.06.03 12:15:38.
