data_PCOD9409007
_publ_section_title
;
Structure prediction by ZEFSAII (Michael W. Deem and Ramdas Pophale) SiO2 
 PCOD9409007
Probable space group: P N N A
;
_chemical_formula_sum "Si O2"
_cell_formula_units_Z 28
_cell_length_a 8.386161
_cell_length_b 17.483876
_cell_length_c 6.853658
_cell_angle_alpha 90.000000
_cell_angle_beta 90.000000
_cell_angle_gamma 90.000000
_cell_volume 1004.901149
_symmetry_space_group_name_H-M "P N N A"
_symmetry_group_IT_number 52
_symmetry_cell_setting 'orthorhombic'
loop_
_space_group_symop_operation_xyz
x,y,z
1/2-x,-y,z
x,1/2-y,1/2-z
1/2-x,1/2+y,1/2-z
-x,-y,-z
1/2+x,y,-z
-x,1/2+y,1/2+z
1/2+x,1/2-y,1/2+z
loop_
_atom_site_type_symbol
_atom_site_label
_atom_site_fract_x
_atom_site_fract_y
_atom_site_fract_z
Si Si1 0.184033 0.829316 0.171981
Si Si2 0.338234 0.116660 0.727739
Si Si3 0.005157 0.030831 0.772519
Si Si4 0.494082 0.250000 0.750000
O O1 0.103951 0.750000 0.250000
O O2 0.370591 0.810917 0.181535
O O3 0.139054 0.911221 0.268508
O O4 0.145579 0.850274 0.948885
O O5 0.162507 0.081629 0.731921
O O6 0.378821 0.195362 0.620525
O O7 0.459403 0.049561 0.670000
O O8 0.000000 0.000000 0.000000
#
# Coordination Sequence:
#
# PCOD9409007 Si02
#       4
#     8   8   8   4
#     4   9  19  33  52  85 115 146 183 243 294 339
#     4  10  19  35  56  85 113 146 195 235 288 346
#     4   9  18  33  57  81 110 145 193 245 281 328
#     4  10  22  32  54  88 118 152 184 240 296 344
#
# _framework density 27.863437999999999
#
# number of rings (size 3 to 8) (size 9 to 14) (size 15 to 20)
#    0.857    1.714    0.000    3.429    2.000    3.429 
#    0.000    0.000    0.000    1.714    0.000    0.000 
#    0.000    0.000    0.000    0.000    0.000    0.000 
#
# Total GULP energy -156016.680560 kJ/mol
# GULP energy per Si atom -5572.024306 kJ/mol
# Density = 2.780002 g / cm^3
# Si number density = 27.863438 Si / 1000 Ang^3
#
#
#
# Elastic Constant Matrix: (Units=GPa)
#
#
# Indices 1 2 3 4 5 6 
#
# 1 151.6176 104.4935 -7.0454 0.0000 0.0000 0.0000
# 2 104.4935 280.0516 39.3216 0.0000 0.0000 0.0000
# 3 -7.0454 39.3216 94.1027 0.0000 0.0000 0.0000
# 4 0.0000 0.0000 0.0000 47.8595 0.0000 0.0000
# 5 0.0000 0.0000 0.0000 0.0000 -21.4711 0.0000
# 6 0.0000 0.0000 0.0000 0.0000 0.0000 79.1363
#
#
#
# Elastic Compliance Matrix: (Units=1/GPa)
#
#
# Indices 1 2 3 4 5 6 
#
# 1 0.009319 -0.003798 0.002285 0.000000 0.000000 0.000000
# 2 -0.003798 0.005341 -0.002516 0.000000 0.000000 0.000000
# 3 0.002285 -0.002516 0.011849 0.000000 0.000000 0.000000
# 4 0.000000 0.000000 0.000000 0.020894 0.000000 0.000000
# 5 0.000000 0.000000 0.000000 0.000000 -0.046574 0.000000
# 6 0.000000 0.000000 0.000000 0.000000 0.000000 0.012636
#
#
# Mechanical properties :
#
#
# Convention : Reuss Voigt Hill
#
# Bulk Modulus (GPa) = 54.19854 88.81236 71.50545
# Shear Modulus (GPa) = 180.66486 47.03842 113.85164
#
# Velocity S-wave (km/s) = 8.06103 4.11320 6.39916
# Velocity P-wave (km/s) = 10.30213 7.38250 8.96201
#
# Compressibility (1/GPa) = 0.01845068
#
# Stress axis : x y z
#
# Youngs Moduli (GPa) = 107.30446 187.22391 84.39408
#
# Poissons Ratio (x) = 0.71108 -0.19282
# Poissons Ratio (y) = 0.40755 0.21235
# Poissons Ratio (z) = -0.24517 0.47110
#
# Static dielectric constant tensor:
#      x y z
#    x 2.106090 0.000000 0.000000 
#    y 0.000000 5.419500 0.000000 
#    z 0.000000 0.000000 3.732990 
# 
# From -- ./inp_files/16549.got.cif
#   From: 2010.05.17/outbox.cif.g08.bks.cpg/sg52_9_cif.got.tgz:16549.got - 2010.06.03 12:15:38.
