data_PCOD9409309
_publ_section_title
;
Structure prediction by ZEFSAII (Michael W. Deem and Ramdas Pophale) SiO2 
 PCOD9409309
Probable space group: P N N A
;
_chemical_formula_sum "Si O2"
_cell_formula_units_Z 56
_cell_length_a 14.480130
_cell_length_b 6.677994
_cell_length_c 25.985327
_cell_angle_alpha 90.000000
_cell_angle_beta 90.000000
_cell_angle_gamma 90.000000
_cell_volume 2512.734900
_symmetry_space_group_name_H-M "P N N A"
_symmetry_group_IT_number 52
_symmetry_cell_setting 'orthorhombic'
loop_
_space_group_symop_operation_xyz
x,y,z
1/2-x,-y,z
x,1/2-y,1/2-z
1/2-x,1/2+y,1/2-z
-x,-y,-z
1/2+x,y,-z
-x,1/2+y,1/2+z
1/2+x,1/2-y,1/2+z
loop_
_atom_site_type_symbol
_atom_site_label
_atom_site_fract_x
_atom_site_fract_y
_atom_site_fract_z
Si Si1 0.005782 0.792325 0.950503
Si Si2 0.858572 0.533091 0.010658
Si Si3 0.562285 0.059864 0.639080
Si Si4 0.013590 0.511473 0.253936
Si Si5 0.842974 0.604047 0.299716
Si Si6 0.190142 0.178035 0.193916
Si Si7 0.047806 0.219226 0.903471
O O1 0.000473 0.712645 0.892405
O O2 0.085526 0.677999 0.983136
O O3 0.910982 0.685880 0.971470
O O4 0.022145 0.028575 0.940231
O O5 0.750000 0.500000 0.001399
O O6 0.881841 0.643164 0.064239
O O7 0.663144 0.151173 0.652927
O O8 0.522713 0.046711 0.695653
O O9 0.544421 0.847265 0.611003
O O10 0.019909 0.750000 0.250000
O O11 0.096056 0.428780 0.287905
O O12 0.916530 0.451262 0.276573
O O13 0.750000 0.500000 0.316634
O O14 0.824377 0.750000 0.250000
O O15 0.898853 0.681450 0.349803
O O16 0.230858 0.250000 0.250000
O O17 0.250000 0.000000 0.171064
#
# Coordination Sequence:
#
# PCOD9409309 Si02
#       7
#     8   8   8   8   8   8   8
#     4  10  23  44  73 104 136 189 236 291 372 439
#     4  10  24  45  72 106 143 180 239 305 368 435
#     4  10  21  39  69  95 134 185 234 293 357 430
#     4  10  19  39  60  89 136 191 232 285 354 413
#     4  11  24  38  60 100 144 185 242 286 346 420
#     4  10  21  37  62  95 130 183 243 300 350 423
#     4  11  22  43  70 103 139 195 239 294 361 445
#
# _framework density 22.286474999999999
#
# number of rings (size 3 to 8) (size 9 to 14) (size 15 to 20)
#    0.000    1.714    2.857    1.714    2.000    3.429 
#    0.000    4.286    6.286    0.000    0.000    0.000 
#    0.000    0.000    0.000    0.000    0.000    0.000 
#
# Total GULP energy -311889.146656 kJ/mol
# GULP energy per Si atom -5569.449047 kJ/mol
# Density = 2.223575 g / cm^3
# Si number density = 22.286475 Si / 1000 Ang^3
#
#
#
# Elastic Constant Matrix: (Units=GPa)
#
#
# Indices 1 2 3 4 5 6 
#
# 1 123.9861 57.2916 47.3117 0.0000 0.0000 0.0000
# 2 57.2916 143.8243 47.0257 0.0000 0.0000 0.0000
# 3 47.3117 47.0257 51.1071 0.0000 0.0000 0.0000
# 4 0.0000 0.0000 0.0000 9.1839 0.0000 0.0000
# 5 0.0000 0.0000 0.0000 0.0000 -1.8415 0.0000
# 6 0.0000 0.0000 0.0000 0.0000 0.0000 27.6677
#
#
#
# Elastic Compliance Matrix: (Units=1/GPa)
#
#
# Indices 1 2 3 4 5 6 
#
# 1 0.012771 -0.001747 -0.010214 0.000000 0.000000 0.000000
# 2 -0.001747 0.010184 -0.007753 0.000000 0.000000 0.000000
# 3 -0.010214 -0.007753 0.036157 0.000000 0.000000 0.000000
# 4 0.000000 0.000000 0.000000 0.108886 0.000000 0.000000
# 5 0.000000 0.000000 0.000000 0.000000 -0.543024 0.000000
# 6 0.000000 0.000000 0.000000 0.000000 0.000000 0.036143
#
#
# Mechanical properties :
#
#
# Convention : Reuss Voigt Hill
#
# Bulk Modulus (GPa) = 50.80937 69.13062 59.96999
# Shear Modulus (GPa) = -17.07108 18.15457 0.54174
#
# Velocity S-wave (km/s) = -2.77064 2.85722 0.49357
# Velocity P-wave (km/s) = 3.55141 6.47853 5.22417
#
# Compressibility (1/GPa) = 0.01968141
#
# Stress axis : x y z
#
# Youngs Moduli (GPa) = 78.30546 98.19352 27.65754
#
# Poissons Ratio (x) = 0.17158 0.28250
# Poissons Ratio (y) = 0.13682 0.21443
# Poissons Ratio (z) = 0.79984 0.76131
#
# Static dielectric constant tensor:
#      x y z
#    x 9.432470 0.000000 0.000000 
#    y 0.000000 1.884600 0.000000 
#    z 0.000000 0.000000 1.869790 
# 
# From -- ./inp_files/44978.got.cif
#   From: 2010.05.17/outbox.cif.g08.bks.cpg/sg52_23_cif.got.tgz:44978.got - 2010.06.03 12:15:38.
