data_PCOD9409496
_publ_section_title
;
Structure prediction by ZEFSAII (Michael W. Deem and Ramdas Pophale) SiO2 
 PCOD9409496
Probable space group: P N N A
;
_chemical_formula_sum "Si O2"
_cell_formula_units_Z 64
_cell_length_a 18.084244
_cell_length_b 8.705828
_cell_length_c 24.222248
_cell_angle_alpha 90.000000
_cell_angle_beta 90.000000
_cell_angle_gamma 90.000000
_cell_volume 3813.509978
_symmetry_space_group_name_H-M "P N N A"
_symmetry_group_IT_number 52
_symmetry_cell_setting 'orthorhombic'
loop_
_space_group_symop_operation_xyz
x,y,z
1/2-x,-y,z
x,1/2-y,1/2-z
1/2-x,1/2+y,1/2-z
-x,-y,-z
1/2+x,y,-z
-x,1/2+y,1/2+z
1/2+x,1/2-y,1/2+z
loop_
_atom_site_type_symbol
_atom_site_label
_atom_site_fract_x
_atom_site_fract_y
_atom_site_fract_z
Si Si1 0.143361 0.374876 0.479539
Si Si2 0.444010 0.143431 0.494190
Si Si3 0.040104 0.326999 0.584669
Si Si4 0.764779 0.181977 0.373791
Si Si5 0.702225 0.718544 0.495454
Si Si6 0.386151 0.681793 0.810428
Si Si7 0.583166 0.678739 0.189385
Si Si8 0.493346 0.825448 0.096582
O O1 0.100487 0.321182 0.535156
O O2 0.220513 0.287088 0.472461
O O3 0.161908 0.555936 0.489912
O O4 0.089155 0.339805 0.428347
O O5 0.470928 0.237959 0.441273
O O6 0.354861 0.141680 0.493220
O O7 0.460557 0.239364 0.549232
O O8 0.500000 0.000000 0.500000
O O9 0.065355 0.251192 0.640767
O O10 0.022439 0.501909 0.597714
O O11 0.771791 0.271325 0.431541
O O12 0.696979 0.214868 0.332572
O O13 0.840937 0.220010 0.342578
O O14 0.750000 0.000000 0.386685
O O15 0.395867 0.750000 0.750000
O O16 0.408315 0.503983 0.807127
O O17 0.580972 0.750000 0.250000
O O18 0.514113 0.737925 0.152737
#
# Coordination Sequence:
#
# PCOD9409496 Si02
#       8
#     8   8   8   8   8   8   8   8
#     4  10  20  33  56  83 112 148 196 233 290 347
#     4  11  21  32  54  82 114 149 187 233 286 344
#     4  11  19  35  52  78 109 150 190 236 281 333
#     4  10  21  34  51  76 114 153 194 230 275 336
#     4  11  19  35  54  84 116 153 189 228 289 350
#     4  11  23  37  53  81 111 152 198 239 280 340
#     4  11  22  38  56  77 109 154 195 242 289 339
#     4  11  20  37  54  79 112 145 193 240 285 343
#
# _framework density 16.782440000000001
#
# number of rings (size 3 to 8) (size 9 to 14) (size 15 to 20)
#    0.000    1.250    5.000    2.625    1.750    0.000 
#    0.000    0.000    0.000    0.000    0.000    0.875 
#    3.750    0.000    0.000    0.000    0.000    0.000 
#
# Total GULP energy -356752.009565 kJ/mol
# GULP energy per Si atom -5574.250149 kJ/mol
# Density = 1.674424 g / cm^3
# Si number density = 16.782440 Si / 1000 Ang^3
#
#
#
# Elastic Constant Matrix: (Units=GPa)
#
#
# Indices 1 2 3 4 5 6 
#
# 1 109.4499 33.0223 56.3275 0.0000 0.0000 0.0000
# 2 33.0223 61.3758 45.0013 0.0000 0.0000 0.0000
# 3 56.3275 45.0013 109.6018 0.0000 0.0000 0.0000
# 4 0.0000 0.0000 0.0000 30.7192 0.0000 0.0000
# 5 0.0000 0.0000 0.0000 0.0000 3.8797 0.0000
# 6 0.0000 0.0000 0.0000 0.0000 0.0000 14.9425
#
#
#
# Elastic Compliance Matrix: (Units=1/GPa)
#
#
# Indices 1 2 3 4 5 6 
#
# 1 0.012785 -0.002949 -0.005360 0.000000 0.000000 0.000000
# 2 -0.002949 0.023991 -0.008335 0.000000 0.000000 0.000000
# 3 -0.005360 -0.008335 0.015301 0.000000 0.000000 0.000000
# 4 0.000000 0.000000 0.000000 0.032553 0.000000 0.000000
# 5 0.000000 0.000000 0.000000 0.000000 0.257749 0.000000
# 6 0.000000 0.000000 0.000000 0.000000 0.000000 0.066923
#
#
# Mechanical properties :
#
#
# Convention : Reuss Voigt Hill
#
# Bulk Modulus (GPa) = 53.22152 61.01439 57.11796
# Shear Modulus (GPa) = 11.13956 19.64673 15.39314
#
# Velocity S-wave (km/s) = 2.57915 3.42522 3.03185
# Velocity P-wave (km/s) = 6.37580 7.21650 6.80914
#
# Compressibility (1/GPa) = 0.01878939
#
# Stress axis : x y z
#
# Youngs Moduli (GPa) = 78.21932 41.68251 65.35692
#
# Poissons Ratio (x) = 0.12291 0.35029
# Poissons Ratio (y) = 0.23066 0.54474
# Poissons Ratio (z) = 0.41922 0.34742
#
# Static dielectric constant tensor:
#      x y z
#    x 1.655060 0.000000 0.000000 
#    y 0.000000 1.608100 0.000000 
#    z 0.000000 0.000000 1.524800 
# 
# From -- ./inp_files/37695.got.cif
#   From: 2010.05.17/outbox.cif.g08.bks.cpg/sg52_19_cif.got.tgz:37695.got - 2010.06.03 12:15:38.
