data_PCOD9409208
_publ_section_title
;
Structure prediction by ZEFSAII (Michael W. Deem and Ramdas Pophale) SiO2 
 PCOD9409208
Probable space group: P N N A
;
_chemical_formula_sum "Si O2"
_cell_formula_units_Z 40
_cell_length_a 10.399533
_cell_length_b 10.034947
_cell_length_c 19.202093
_cell_angle_alpha 90.000000
_cell_angle_beta 90.000000
_cell_angle_gamma 90.000000
_cell_volume 2003.906663
_symmetry_space_group_name_H-M "P N N A"
_symmetry_group_IT_number 52
_symmetry_cell_setting 'orthorhombic'
loop_
_space_group_symop_operation_xyz
x,y,z
1/2-x,-y,z
x,1/2-y,1/2-z
1/2-x,1/2+y,1/2-z
-x,-y,-z
1/2+x,y,-z
-x,1/2+y,1/2+z
1/2+x,1/2-y,1/2+z
loop_
_atom_site_type_symbol
_atom_site_label
_atom_site_fract_x
_atom_site_fract_y
_atom_site_fract_z
Si Si1 0.685127 0.288090 0.070925
Si Si2 0.050338 0.231912 0.172031
Si Si3 0.617492 0.419166 0.536719
Si Si4 0.447627 0.051140 0.574179
Si Si5 0.756744 0.354235 0.302492
O O1 0.607651 0.411605 0.103372
O O2 0.827494 0.349029 0.059815
O O3 0.690104 0.164609 0.123709
O O4 0.628097 0.223866 0.001837
O O5 0.108482 0.250000 0.250000
O O6 0.102989 0.121245 0.118031
O O7 0.037713 0.371194 0.128880
O O8 0.904110 0.185216 0.185740
O O9 0.750000 0.500000 0.526757
O O10 0.500000 0.500000 0.500000
O O11 0.500000 0.000000 0.500000
O O12 0.750000 0.500000 0.273210
O O13 0.697264 0.250000 0.250000
#
# Coordination Sequence:
#
# PCOD9409208 Si02
#       5
#     8   8   8   8   8
#     4  10  21  35  60  90 123 157 215 270 321 382
#     4  10  22  39  61  87 130 169 212 266 339 397
#     4  12  24  42  68  93 128 172 224 274 334 396
#     4  10  19  37  61  90 120 166 212 268 324 385
#     4  10  21  35  58  89 126 166 210 268 330 392
#
# _framework density 19.961010000000002
#
# number of rings (size 3 to 8) (size 9 to 14) (size 15 to 20)
#    0.000    1.600    2.000    4.200    8.400    0.000 
#    0.000    2.000    0.000    0.000    0.000    0.000 
#    0.000    0.000    0.000    0.000    0.000    0.000 
#
# Total GULP energy -222819.970216 kJ/mol
# GULP energy per Si atom -5570.499255 kJ/mol
# Density = 1.991558 g / cm^3
# Si number density = 19.961010 Si / 1000 Ang^3
#
#
#
# Elastic Constant Matrix: (Units=GPa)
#
#
# Indices 1 2 3 4 5 6 
#
# 1 49.8442 22.2864 29.9089 0.0000 0.0000 0.0000
# 2 22.2864 119.2420 59.7654 0.0000 0.0000 0.0000
# 3 29.9089 59.7654 128.5619 0.0000 0.0000 0.0000
# 4 0.0000 0.0000 0.0000 32.8894 0.0000 0.0000
# 5 0.0000 0.0000 0.0000 0.0000 21.6319 0.0000
# 6 0.0000 0.0000 0.0000 0.0000 0.0000 16.1615
#
#
#
# Elastic Compliance Matrix: (Units=1/GPa)
#
#
# Indices 1 2 3 4 5 6 
#
# 1 0.023743 -0.002176 -0.004512 0.000000 0.000000 0.000000
# 2 -0.002176 0.011133 -0.004669 0.000000 0.000000 0.000000
# 3 -0.004512 -0.004669 0.010999 0.000000 0.000000 0.000000
# 4 0.000000 0.000000 0.000000 0.030405 0.000000 0.000000
# 5 0.000000 0.000000 0.000000 0.000000 0.046228 0.000000
# 6 0.000000 0.000000 0.000000 0.000000 0.000000 0.061875
#
#
# Mechanical properties :
#
#
# Convention : Reuss Voigt Hill
#
# Bulk Modulus (GPa) = 43.17782 57.95217 50.56499
# Shear Modulus (GPa) = 23.27549 26.51573 24.89561
#
# Velocity S-wave (km/s) = 3.41845 3.64864 3.53542
# Velocity P-wave (km/s) = 6.10402 6.84440 6.48479
#
# Compressibility (1/GPa) = 0.02316004
#
# Stress axis : x y z
#
# Youngs Moduli (GPa) = 42.11786 89.82009 90.91973
#
# Poissons Ratio (x) = 0.19546 0.41023
# Poissons Ratio (y) = 0.09165 0.42454
# Poissons Ratio (z) = 0.19003 0.41940
#
# Static dielectric constant tensor:
#      x y z
#    x 1.721640 0.000000 0.000000 
#    y 0.000000 1.753400 0.000000 
#    z 0.000000 0.000000 1.810500 
# 
# From -- ./inp_files/31936.got.cif
#   From: 2010.05.17/outbox.cif.g08.bks.cpg/sg52_16_cif.got.tgz:31936.got - 2010.06.03 12:15:38.
