data_PCOD9409966
_publ_section_title
;
Structure prediction by ZEFSAII (Michael W. Deem and Ramdas Pophale) SiO2 
 PCOD9409966
Probable space group: P N N A
;
_chemical_formula_sum "Si O2"
_cell_formula_units_Z 32
_cell_length_a 8.645759
_cell_length_b 8.146685
_cell_length_c 17.933107
_cell_angle_alpha 90.000000
_cell_angle_beta 90.000000
_cell_angle_gamma 90.000000
_cell_volume 1263.105393
_symmetry_space_group_name_H-M "P N N A"
_symmetry_group_IT_number 52
_symmetry_cell_setting 'orthorhombic'
loop_
_space_group_symop_operation_xyz
x,y,z
1/2-x,-y,z
x,1/2-y,1/2-z
1/2-x,1/2+y,1/2-z
-x,-y,-z
1/2+x,y,-z
-x,1/2+y,1/2+z
1/2+x,1/2-y,1/2+z
loop_
_atom_site_type_symbol
_atom_site_label
_atom_site_fract_x
_atom_site_fract_y
_atom_site_fract_z
Si Si1 0.250000 0.000000 0.520728
Si Si2 0.460543 0.812846 0.908355
Si Si3 0.004185 0.750000 0.750000
Si Si4 0.250000 0.000000 0.794275
Si Si5 0.750000 0.500000 0.530894
Si Si6 0.980558 0.921691 0.605359
O O1 0.149650 0.877216 0.572071
O O2 0.364842 0.912415 0.463849
O O3 0.495239 0.620366 0.889002
O O4 0.355778 0.877958 0.841413
O O5 0.628347 0.896739 0.919583
O O6 0.360502 0.889107 0.977666
O O7 0.121220 0.598268 0.749113
O O8 0.924042 0.802424 0.672083
#
# Coordination Sequence:
#
# PCOD9409966 Si02
#       6
#     4   8   4   4   4   8
#     4  10  23  42  74 106 135 182 246 300 357 432
#     4  10  20  37  65  99 138 181 229 292 365 437
#     4  12  26  44  66 102 146 194 248 304 372 444
#     4  11  23  40  62  86 127 185 240 292 355 437
#     4   9  20  36  64 108 146 177 228 300 370 437
#     4  11  23  43  72 104 142 188 242 301 367 441
#
# _framework density 25.334389000000002
#
# number of rings (size 3 to 8) (size 9 to 14) (size 15 to 20)
#    0.000    1.500    0.000    5.250    0.000   12.000 
#    0.000    3.750    0.000    6.000    0.000    0.000 
#    0.000    0.000    0.000    0.000    0.000    0.750 
#
# Total GULP energy -178446.323059 kJ/mol
# GULP energy per Si atom -5576.447596 kJ/mol
# Density = 2.527673 g / cm^3
# Si number density = 25.334389 Si / 1000 Ang^3
#
#
#
# Elastic Constant Matrix: (Units=GPa)
#
#
# Indices 1 2 3 4 5 6 
#
# 1 117.5002 29.2242 15.2186 0.0000 0.0000 0.0000
# 2 29.2242 129.9178 19.9442 0.0000 0.0000 0.0000
# 3 15.2186 19.9442 89.8516 0.0000 0.0000 0.0000
# 4 0.0000 0.0000 0.0000 49.3168 0.0000 0.0000
# 5 0.0000 0.0000 0.0000 0.0000 21.1206 0.0000
# 6 0.0000 0.0000 0.0000 0.0000 0.0000 36.0424
#
#
#
# Elastic Compliance Matrix: (Units=1/GPa)
#
#
# Indices 1 2 3 4 5 6 
#
# 1 0.009124 -0.001879 -0.001128 0.000000 0.000000 0.000000
# 2 -0.001879 0.008356 -0.001536 0.000000 0.000000 0.000000
# 3 -0.001128 -0.001536 0.011662 0.000000 0.000000 0.000000
# 4 0.000000 0.000000 0.000000 0.020277 0.000000 0.000000
# 5 0.000000 0.000000 0.000000 0.000000 0.047347 0.000000
# 6 0.000000 0.000000 0.000000 0.000000 0.000000 0.027745
#
#
# Mechanical properties :
#
#
# Convention : Reuss Voigt Hill
#
# Bulk Modulus (GPa) = 49.86617 51.78264 50.82441
# Shear Modulus (GPa) = 35.64220 39.48813 37.56516
#
# Velocity S-wave (km/s) = 3.75490 3.95229 3.85486
# Velocity P-wave (km/s) = 6.20684 6.42740 6.31809
#
# Compressibility (1/GPa) = 0.02005368
#
# Stress axis : x y z
#
# Youngs Moduli (GPa) = 109.59927 119.67805 85.75157
#
# Poissons Ratio (x) = 0.22490 0.09675
# Poissons Ratio (y) = 0.20596 0.13175
# Poissons Ratio (z) = 0.12366 0.18388
#
# Static dielectric constant tensor:
#      x y z
#    x 2.046930 0.000000 0.000000 
#    y 0.000000 -1.302200 0.000000 
#    z 0.000000 0.000000 2.094580 
# 
# From -- ./inp_files/35526.got.cif
#   From: 2010.05.17/outbox.cif.g08.bks.cpg/sg52_18_cif.got.tgz:35526.got - 2010.06.03 12:15:38.
