data_PCOD9409354
_publ_section_title
;
Structure prediction by ZEFSAII (Michael W. Deem and Ramdas Pophale) SiO2 
 PCOD9409354
Probable space group: P N N A
;
_chemical_formula_sum "Si O2"
_cell_formula_units_Z 56
_cell_length_a 19.574020
_cell_length_b 13.869311
_cell_length_c 8.317639
_cell_angle_alpha 90.000000
_cell_angle_beta 90.000000
_cell_angle_gamma 90.000000
_cell_volume 2258.057422
_symmetry_space_group_name_H-M "P N N A"
_symmetry_group_IT_number 52
_symmetry_cell_setting 'orthorhombic'
loop_
_space_group_symop_operation_xyz
x,y,z
1/2-x,-y,z
x,1/2-y,1/2-z
1/2-x,1/2+y,1/2-z
-x,-y,-z
1/2+x,y,-z
-x,1/2+y,1/2+z
1/2+x,1/2-y,1/2+z
loop_
_atom_site_type_symbol
_atom_site_label
_atom_site_fract_x
_atom_site_fract_y
_atom_site_fract_z
Si Si1 0.362290 0.648826 0.467134
Si Si2 0.971139 0.462818 0.171816
Si Si3 0.150328 0.774593 0.003522
Si Si4 0.344271 0.421936 0.974156
Si Si5 0.406471 0.045915 0.181142
Si Si6 0.246800 0.107178 0.795172
Si Si7 0.240453 0.250000 0.250000
Si Si8 0.966381 0.750000 0.750000
O O1 0.386649 0.540955 0.435652
O O2 0.322137 0.655610 0.636249
O O3 0.304062 0.667974 0.330482
O O4 0.419004 0.726059 0.407959
O O5 0.013407 0.533093 0.288049
O O6 0.996695 0.354272 0.223318
O O7 0.890079 0.481325 0.155967
O O8 0.000000 0.500000 0.000000
O O9 0.109537 0.851861 0.103350
O O10 0.207316 0.721237 0.112741
O O11 0.112010 0.678522 0.958784
O O12 0.191697 0.829844 0.868539
O O13 0.270375 0.406744 0.889605
O O14 0.361394 0.461531 0.152415
O O15 0.250000 0.000000 0.868354
#
# Coordination Sequence:
#
# PCOD9409354 Si02
#       8
#     8   8   8   8   8   8   4   4
#     4   9  19  37  61  90 123 165 226 256 309 396
#     4   9  21  39  63  97 127 162 220 277 322 391
#     4  11  20  37  58  87 121 165 212 257 309 399
#     4  11  23  38  59  95 131 163 209 273 343 376
#     4  10  19  40  66  84 121 169 224 261 303 396
#     4  11  23  38  56  88 138 159 201 274 329 390
#     4   9  18  30  56  88 112 152 215 250 298 365
#     4   9  18  38  70  92 122 186 217 270 324 395
#
# _framework density 24.800077999999999
#
# number of rings (size 3 to 8) (size 9 to 14) (size 15 to 20)
#    0.000    2.000    2.857    0.429    2.000    1.143 
#    0.000    7.857    0.000    1.714    0.000    0.000 
#    0.000    0.000    0.000    0.000    0.000    0.000 
#
# Total GULP energy -311817.497878 kJ/mol
# GULP energy per Si atom -5568.169605 kJ/mol
# Density = 2.474363 g / cm^3
# Si number density = 24.800078 Si / 1000 Ang^3
#
#
#
# Elastic Constant Matrix: (Units=GPa)
#
#
# Indices 1 2 3 4 5 6 
#
# 1 34.7609 -1.3827 25.0922 0.0000 0.0000 0.0000
# 2 -1.3827 78.8621 26.8436 0.0000 0.0000 0.0000
# 3 25.0922 26.8436 93.0344 0.0000 0.0000 0.0000
# 4 0.0000 0.0000 0.0000 41.1202 0.0000 0.0000
# 5 0.0000 0.0000 0.0000 0.0000 25.7432 0.0000
# 6 0.0000 0.0000 0.0000 0.0000 0.0000 3.9388
#
#
#
# Elastic Compliance Matrix: (Units=1/GPa)
#
#
# Indices 1 2 3 4 5 6 
#
# 1 0.037109 0.004499 -0.011307 0.000000 0.000000 0.000000
# 2 0.004499 0.014607 -0.005428 0.000000 0.000000 0.000000
# 3 -0.011307 -0.005428 0.015364 0.000000 0.000000 0.000000
# 4 0.000000 0.000000 0.000000 0.024319 0.000000 0.000000
# 5 0.000000 0.000000 0.000000 0.000000 0.038845 0.000000
# 6 0.000000 0.000000 0.000000 0.000000 0.000000 0.253888
#
#
# Mechanical properties :
#
#
# Convention : Reuss Voigt Hill
#
# Bulk Modulus (GPa) = 23.46926 34.19598 28.83262
# Shear Modulus (GPa) = 11.82576 24.56738 18.19657
#
# Velocity S-wave (km/s) = 2.18604 3.15082 2.71168
# Velocity P-wave (km/s) = 3.98191 5.20149 4.63202
#
# Compressibility (1/GPa) = 0.04260894
#
# Stress axis : x y z
#
# Youngs Moduli (GPa) = 26.94785 68.46081 65.08542
#
# Poissons Ratio (x) = -0.30802 0.73590
# Poissons Ratio (y) = -0.12125 0.35329
# Poissons Ratio (z) = 0.30469 0.37161
#
# Static dielectric constant tensor:
#      x y z
#    x 2.128640 0.000000 0.000000 
#    y 0.000000 2.514160 0.000000 
#    z 0.000000 0.000000 2.021920 
# 
# From -- ./inp_files/13487.got.cif
#   From: 2010.05.17/outbox.cif.g08.bks.cpg/sg52_7_cif.got.tgz:13487.got - 2010.06.03 12:15:38.
