data_PCOD9409832
_publ_section_title
;
Structure prediction by ZEFSAII (Michael W. Deem and Ramdas Pophale) SiO2 
 PCOD9409832
Probable space group: P N N A
;
_chemical_formula_sum "Si O2"
_cell_formula_units_Z 56
_cell_length_a 11.801734
_cell_length_b 17.106299
_cell_length_c 13.678619
_cell_angle_alpha 90.000000
_cell_angle_beta 90.000000
_cell_angle_gamma 90.000000
_cell_volume 2761.494189
_symmetry_space_group_name_H-M "P N N A"
_symmetry_group_IT_number 52
_symmetry_cell_setting 'orthorhombic'
loop_
_space_group_symop_operation_xyz
x,y,z
1/2-x,-y,z
x,1/2-y,1/2-z
1/2-x,1/2+y,1/2-z
-x,-y,-z
1/2+x,y,-z
-x,1/2+y,1/2+z
1/2+x,1/2-y,1/2+z
loop_
_atom_site_type_symbol
_atom_site_label
_atom_site_fract_x
_atom_site_fract_y
_atom_site_fract_z
Si Si1 0.705956 0.088787 0.952520
Si Si2 0.875887 0.329512 0.700524
Si Si3 0.321309 0.340143 0.773665
Si Si4 0.083685 0.532660 0.148215
Si Si5 0.356092 0.045895 0.569488
Si Si6 0.494315 0.951359 0.178980
Si Si7 0.609917 0.121812 0.152775
O O1 0.789261 0.134019 0.878287
O O2 0.579807 0.080553 0.908860
O O3 0.750000 0.000000 0.964339
O O4 0.689133 0.127921 0.057679
O O5 0.835004 0.250000 0.750000
O O6 0.900231 0.110559 0.710597
O O7 0.000823 0.321762 0.651935
O O8 0.339262 0.250000 0.750000
O O9 0.350267 0.368188 0.883708
O O10 0.408693 0.392394 0.711297
O O11 0.192804 0.361365 0.743283
O O12 0.097581 0.466854 0.232979
O O13 0.962008 0.504376 0.107658
O O14 0.149052 0.544375 0.047341
O O15 0.250000 0.000000 0.611268
O O16 0.555654 0.034260 0.156909
#
# Coordination Sequence:
#
# PCOD9409832 Si02
#       7
#     8   8   8   8   8   8   8
#     4  12  23  39  70  97 124 169 222 268 327 387
#     4  11  25  43  63  93 139 167 208 269 334 391
#     4  11  23  39  62  92 135 168 210 268 328 386
#     4   9  20  38  60  90 115 161 211 256 311 372
#     4  10  20  36  64  89 115 163 218 259 303 377
#     4  10  21  40  65  91 128 165 216 274 322 381
#     4  11  23  40  68  95 126 172 218 265 320 394
#
# _framework density 20.278877999999999
#
# number of rings (size 3 to 8) (size 9 to 14) (size 15 to 20)
#    0.000    1.429    2.857    4.714    4.000    1.714 
#    0.000    0.000    3.143    0.000    0.000    0.000 
#    0.000    0.000    0.000    0.000    0.000    0.000 
#
# Total GULP energy -312221.044432 kJ/mol
# GULP energy per Si atom -5575.375793 kJ/mol
# Density = 2.023272 g / cm^3
# Si number density = 20.278878 Si / 1000 Ang^3
#
#
#
# Elastic Constant Matrix: (Units=GPa)
#
#
# Indices 1 2 3 4 5 6 
#
# 1 57.7131 12.5922 13.2413 0.0000 0.0000 0.0000
# 2 12.5922 65.5403 13.7137 0.0000 0.0000 0.0000
# 3 13.2413 13.7137 89.0370 0.0000 0.0000 0.0000
# 4 0.0000 0.0000 0.0000 11.1786 0.0000 0.0000
# 5 0.0000 0.0000 0.0000 0.0000 15.7048 0.0000
# 6 0.0000 0.0000 0.0000 0.0000 0.0000 16.4647
#
#
#
# Elastic Compliance Matrix: (Units=1/GPa)
#
#
# Indices 1 2 3 4 5 6 
#
# 1 0.018523 -0.003082 -0.002280 0.000000 0.000000 0.000000
# 2 -0.003082 0.016279 -0.002049 0.000000 0.000000 0.000000
# 3 -0.002280 -0.002049 0.011886 0.000000 0.000000 0.000000
# 4 0.000000 0.000000 0.000000 0.089456 0.000000 0.000000
# 5 0.000000 0.000000 0.000000 0.000000 0.063675 0.000000
# 6 0.000000 0.000000 0.000000 0.000000 0.000000 0.060736
#
#
# Mechanical properties :
#
#
# Convention : Reuss Voigt Hill
#
# Bulk Modulus (GPa) = 31.38152 32.37609 31.87880
# Shear Modulus (GPa) = 17.48269 20.18585 18.83427
#
# Velocity S-wave (km/s) = 2.93936 3.15844 3.05087
# Velocity P-wave (km/s) = 5.19888 5.41305 5.30704
#
# Compressibility (1/GPa) = 0.03186589
#
# Stress axis : x y z
#
# Youngs Moduli (GPa) = 53.98821 61.43035 84.13298
#
# Poissons Ratio (x) = 0.18931 0.19182
# Poissons Ratio (y) = 0.16637 0.17239
# Poissons Ratio (z) = 0.12309 0.12587
#
# Static dielectric constant tensor:
#      x y z
#    x 1.755560 0.000000 0.000000 
#    y 0.000000 1.700900 0.000000 
#    z 0.000000 0.000000 1.760360 
# 
# From -- ./inp_files/26166.got.cif
#   From: 2010.05.17/outbox.cif.g08.bks.cpg/sg52_14_cif.got.tgz:26166.got - 2010.06.03 12:15:38.
