data_PCOD9409049
_publ_section_title
;
Structure prediction by ZEFSAII (Michael W. Deem and Ramdas Pophale) SiO2 
 PCOD9409049
Probable space group: P N N A
;
_chemical_formula_sum "Si O2"
_cell_formula_units_Z 32
_cell_length_a 10.858163
_cell_length_b 5.672296
_cell_length_c 22.493623
_cell_angle_alpha 90.000000
_cell_angle_beta 90.000000
_cell_angle_gamma 90.000000
_cell_volume 1385.398313
_symmetry_space_group_name_H-M "P N N A"
_symmetry_group_IT_number 52
_symmetry_cell_setting 'orthorhombic'
loop_
_space_group_symop_operation_xyz
x,y,z
1/2-x,-y,z
x,1/2-y,1/2-z
1/2-x,1/2+y,1/2-z
-x,-y,-z
1/2+x,y,-z
-x,1/2+y,1/2+z
1/2+x,1/2-y,1/2+z
loop_
_atom_site_type_symbol
_atom_site_label
_atom_site_fract_x
_atom_site_fract_y
_atom_site_fract_z
Si Si1 0.049867 0.250000 0.750000
Si Si2 0.370232 0.609354 0.189593
Si Si3 0.750000 0.500000 0.085179
Si Si4 0.093204 0.890114 0.847752
Si Si5 0.119884 0.380593 0.528718
O O1 0.115491 0.457521 0.712192
O O2 0.961252 0.396387 0.793610
O O3 0.250000 0.500000 0.160440
O O4 0.331963 0.750000 0.250000
O O5 0.454825 0.791614 0.155132
O O6 0.819360 0.322718 0.130635
O O7 0.850300 0.604821 0.037889
O O8 0.104229 0.063192 0.901967
O O9 0.250000 0.500000 0.508287
O O10 0.000000 0.500000 0.500000
#
# Coordination Sequence:
#
# PCOD9409049 Si02
#       5
#     4   8   4   8   8
#     4  10  20  38  64  94 138 178 236 280 358 412
#     4  10  19  35  60  89 131 178 224 284 345 416
#     4  10  22  46  72  92 150 180 244 304 368 444
#     4  10  22  39  69  95 139 185 233 297 355 435
#     4  10  23  46  71 102 141 184 238 306 369 439
#
# _framework density 23.098051000000002
#
# number of rings (size 3 to 8) (size 9 to 14) (size 15 to 20)
#    0.000    2.000    1.250    1.500    0.000    4.000 
#   11.250    0.000  198.000    0.000    0.000    0.000 
#    0.000    0.000    0.000    0.000    0.000    0.000 
#
# Total GULP energy -178207.161632 kJ/mol
# GULP energy per Si atom -5568.973801 kJ/mol
# Density = 2.304548 g / cm^3
# Si number density = 23.098051 Si / 1000 Ang^3
#
#
#
# Elastic Constant Matrix: (Units=GPa)
#
#
# Indices 1 2 3 4 5 6 
#
# 1 175.9466 45.0128 45.7382 0.0000 0.0000 0.0000
# 2 45.0128 86.2350 13.7737 0.0000 0.0000 0.0000
# 3 45.7382 13.7737 34.5787 0.0000 0.0000 0.0000
# 4 0.0000 0.0000 0.0000 16.3711 0.0000 0.0000
# 5 0.0000 0.0000 0.0000 0.0000 1.9621 0.0000
# 6 0.0000 0.0000 0.0000 0.0000 0.0000 21.1111
#
#
#
# Elastic Compliance Matrix: (Units=1/GPa)
#
#
# Indices 1 2 3 4 5 6 
#
# 1 0.009385 -0.003114 -0.011173 0.000000 0.000000 0.000000
# 2 -0.003114 0.013417 -0.001226 0.000000 0.000000 0.000000
# 3 -0.011173 -0.001226 0.044187 0.000000 0.000000 0.000000
# 4 0.000000 0.000000 0.000000 0.061083 0.000000 0.000000
# 5 0.000000 0.000000 0.000000 0.000000 0.509662 0.000000
# 6 0.000000 0.000000 0.000000 0.000000 0.000000 0.047368
#
#
# Mechanical properties :
#
#
# Convention : Reuss Voigt Hill
#
# Bulk Modulus (GPa) = 27.80597 56.20109 42.00353
# Shear Modulus (GPa) = 6.86704 20.70457 13.78581
#
# Velocity S-wave (km/s) = 1.72611 2.99720 2.44568
# Velocity P-wave (km/s) = 4.00462 6.03009 5.11854
#
# Compressibility (1/GPa) = 0.03596350
#
# Stress axis : x y z
#
# Youngs Moduli (GPa) = 106.55665 74.53002 22.63134
#
# Poissons Ratio (x) = 0.23209 0.25286
# Poissons Ratio (y) = 0.33182 0.02774
# Poissons Ratio (z) = 1.19055 0.09134
#
# Static dielectric constant tensor:
#      x y z
#    x 1.943290 0.000000 0.000000 
#    y 0.000000 2.362570 0.000000 
#    z 0.000000 0.000000 1.848900 
# 
# From -- ./inp_files/36471.got.cif
#   From: 2010.05.17/outbox.cif.g08.bks.cpg/sg52_19_cif.got.tgz:36471.got - 2010.06.03 12:15:38.
