data_PCOD9409633
_publ_section_title
;
Structure prediction by ZEFSAII (Michael W. Deem and Ramdas Pophale) SiO2 
 PCOD9409633
Probable space group: P N N A
;
_chemical_formula_sum "Si O2"
_cell_formula_units_Z 48
_cell_length_a 29.153606
_cell_length_b 13.786793
_cell_length_c 5.327941
_cell_angle_alpha 90.000000
_cell_angle_beta 90.000000
_cell_angle_gamma 90.000000
_cell_volume 2141.484533
_symmetry_space_group_name_H-M "P N N A"
_symmetry_group_IT_number 52
_symmetry_cell_setting 'orthorhombic'
loop_
_space_group_symop_operation_xyz
x,y,z
1/2-x,-y,z
x,1/2-y,1/2-z
1/2-x,1/2+y,1/2-z
-x,-y,-z
1/2+x,y,-z
-x,1/2+y,1/2+z
1/2+x,1/2-y,1/2+z
loop_
_atom_site_type_symbol
_atom_site_label
_atom_site_fract_x
_atom_site_fract_y
_atom_site_fract_z
Si Si1 0.273700 0.895145 0.281850
Si Si2 0.089549 0.661805 0.939790
Si Si3 0.688486 0.844370 0.423236
Si Si4 0.484873 0.419829 0.201194
Si Si5 0.424267 0.528097 0.603060
Si Si6 0.177653 0.062710 0.781509
O O1 0.231561 0.836033 0.395369
O O2 0.291934 0.886161 0.998521
O O3 0.250000 0.000000 0.281637
O O4 0.312395 0.895049 0.502659
O O5 0.092204 0.750000 0.750000
O O6 0.139394 0.654069 0.068268
O O7 0.083150 0.560278 0.796960
O O8 0.042310 0.669103 0.087221
O O9 0.688793 0.750000 0.250000
O O10 0.689092 0.946360 0.261297
O O11 0.445335 0.472359 0.364742
O O12 0.533258 0.400588 0.334952
O O13 0.500000 0.500000 0.000000
O O14 0.373982 0.573646 0.611938
#
# Coordination Sequence:
#
# PCOD9409633 Si02
#       6
#     8   8   8   8   8   8
#     4  10  20  35  54  84 115 152 198 240 289 354
#     4   9  18  33  53  83 120 150 183 233 309 365
#     4   9  19  37  57  88 125 157 197 251 315 368
#     4   9  18  32  52  80 112 142 186 237 285 353
#     4   9  19  32  53  82 110 146 193 238 287 345
#     4  10  21  35  58  84 117 153 199 245 294 353
#
# _framework density 22.414356999999999
#
# number of rings (size 3 to 8) (size 9 to 14) (size 15 to 20)
#    0.000    2.667    0.000    1.500    9.333    0.667 
#    0.000    7.500    0.000    0.000   13.000    0.000 
#    0.000    0.000    0.000    0.000    0.000    0.000 
#
# Total GULP energy -267223.539760 kJ/mol
# GULP energy per Si atom -5567.157078 kJ/mol
# Density = 2.236334 g / cm^3
# Si number density = 22.414357 Si / 1000 Ang^3
#
#
#
# Elastic Constant Matrix: (Units=GPa)
#
#
# Indices 1 2 3 4 5 6 
#
# 1 138.4937 26.4121 35.5884 0.0000 0.0000 0.0000
# 2 26.4121 39.1173 6.0744 0.0000 0.0000 0.0000
# 3 35.5884 6.0744 74.8671 0.0000 0.0000 0.0000
# 4 0.0000 0.0000 0.0000 24.9339 0.0000 0.0000
# 5 0.0000 0.0000 0.0000 0.0000 -519.7595 0.0000
# 6 0.0000 0.0000 0.0000 0.0000 0.0000 16.2092
#
#
#
# Elastic Compliance Matrix: (Units=1/GPa)
#
#
# Indices 1 2 3 4 5 6 
#
# 1 0.009324 -0.005679 -0.003971 0.000000 0.000000 0.000000
# 2 -0.005679 0.029349 0.000318 0.000000 0.000000 0.000000
# 3 -0.003971 0.000318 0.015219 0.000000 0.000000 0.000000
# 4 0.000000 0.000000 0.000000 0.040106 0.000000 0.000000
# 5 0.000000 0.000000 0.000000 0.000000 -0.001924 0.000000
# 6 0.000000 0.000000 0.000000 0.000000 0.000000 0.061693
#
#
# Mechanical properties :
#
#
# Convention : Reuss Voigt Hill
#
# Bulk Modulus (GPa) = 28.38655 43.18087 35.78371
# Shear Modulus (GPa) = 27.14811 -83.42973 -28.14081
#
# Velocity S-wave (km/s) = 3.48400 -6.10757 -3.54712
# Velocity P-wave (km/s) = 5.37366 5.51632 0.88136
#
# Compressibility (1/GPa) = 0.03522795
#
# Stress axis : x y z
#
# Youngs Moduli (GPa) = 107.24868 34.07250 65.70708
#
# Poissons Ratio (x) = 0.19350 0.26096
# Poissons Ratio (y) = 0.60906 -0.02091
# Poissons Ratio (z) = 0.42594 -0.01084
#
# Static dielectric constant tensor:
#      x y z
#    x 2.129500 0.000000 0.000000 
#    y 0.000000 1.888900 0.000000 
#    z 0.000000 0.000000 1.940950 
# 
# From -- ./inp_files/6373.got.cif
#   From: 2010.05.17/outbox.cif.g08.bks.cpg/sg52_4_cif.got.tgz:6373.got - 2010.06.03 12:15:38.
