data_PCOD9409148
_publ_section_title
;
Structure prediction by ZEFSAII (Michael W. Deem and Ramdas Pophale) SiO2 
 PCOD9409148
Probable space group: P N N A
;
_chemical_formula_sum "Si O2"
_cell_formula_units_Z 48
_cell_length_a 20.442189
_cell_length_b 15.097786
_cell_length_c 7.834277
_cell_angle_alpha 90.000000
_cell_angle_beta 90.000000
_cell_angle_gamma 90.000000
_cell_volume 2417.906972
_symmetry_space_group_name_H-M "P N N A"
_symmetry_group_IT_number 52
_symmetry_cell_setting 'orthorhombic'
loop_
_space_group_symop_operation_xyz
x,y,z
1/2-x,-y,z
x,1/2-y,1/2-z
1/2-x,1/2+y,1/2-z
-x,-y,-z
1/2+x,y,-z
-x,1/2+y,1/2+z
1/2+x,1/2-y,1/2+z
loop_
_atom_site_type_symbol
_atom_site_label
_atom_site_fract_x
_atom_site_fract_y
_atom_site_fract_z
Si Si1 0.697434 0.343808 0.846165
Si Si2 0.079125 0.265675 0.955043
Si Si3 0.823259 0.994087 0.943359
Si Si4 0.157136 0.850641 0.313383
Si Si5 0.451321 0.925974 0.927894
Si Si6 0.979989 0.404490 0.932207
O O1 0.702240 0.250000 0.750000
O O2 0.679000 0.421647 0.712359
O O3 0.772175 0.361128 0.903680
O O4 0.642432 0.321268 0.984929
O O5 0.085903 0.250000 0.750000
O O6 0.064568 0.166617 0.023765
O O7 0.018422 0.324387 0.018200
O O8 0.750000 0.000000 0.014999
O O9 0.839826 0.086649 0.852907
O O10 0.879212 0.969032 0.077326
O O11 0.146402 0.750000 0.250000
O O12 0.096561 0.885333 0.423645
O O13 0.488691 0.900870 0.756078
O O14 0.500000 0.000000 0.000000
O O15 0.000000 0.500000 0.000000
#
# Coordination Sequence:
#
# PCOD9409148 Si02
#       6
#     8   8   8   8   8   8
#     4  10  19  36  63  87 111 152 202 247 286 360
#     4  10  22  37  57  87 121 156 194 245 304 354
#     4  10  20  35  60  93 117 150 202 254 299 357
#     4  10  20  36  61  86 113 151 199 244 293 348
#     4  11  21  37  60  86 116 156 198 246 295 357
#     4  11  23  39  58  85 120 157 192 241 301 360
#
# _framework density 19.851880000000001
#
# number of rings (size 3 to 8) (size 9 to 14) (size 15 to 20)
#    0.000    1.667    3.333    2.500    0.000    0.000 
#    0.000    3.333    0.000    0.000    0.000    0.000 
#    0.000    0.000    0.000    0.000    0.000    0.000 
#
# Total GULP energy -267282.053442 kJ/mol
# GULP energy per Si atom -5568.376113 kJ/mol
# Density = 1.980670 g / cm^3
# Si number density = 19.851880 Si / 1000 Ang^3
#
#
#
# Elastic Constant Matrix: (Units=GPa)
#
#
# Indices 1 2 3 4 5 6 
#
# 1 154.1639 23.2009 14.9179 0.0000 0.0000 0.0000
# 2 23.2009 104.8119 -7.0319 0.0000 0.0000 0.0000
# 3 14.9179 -7.0319 8.8949 0.0000 0.0000 0.0000
# 4 0.0000 0.0000 0.0000 23.0853 0.0000 0.0000
# 5 0.0000 0.0000 0.0000 0.0000 17.5500 0.0000
# 6 0.0000 0.0000 0.0000 0.0000 0.0000 38.1215
#
#
#
# Elastic Compliance Matrix: (Units=1/GPa)
#
#
# Indices 1 2 3 4 5 6 
#
# 1 0.008561 -0.003018 -0.016744 0.000000 0.000000 0.000000
# 2 -0.003018 0.011140 0.013869 0.000000 0.000000 0.000000
# 3 -0.016744 0.013869 0.151469 0.000000 0.000000 0.000000
# 4 0.000000 0.000000 0.000000 0.043318 0.000000 0.000000
# 5 0.000000 0.000000 0.000000 0.000000 0.056980 0.000000
# 6 0.000000 0.000000 0.000000 0.000000 0.000000 0.026232
#
#
# Mechanical properties :
#
#
# Convention : Reuss Voigt Hill
#
# Bulk Modulus (GPa) = 6.27425 36.67162 21.47293
# Shear Modulus (GPa) = 13.78873 31.53695 22.66284
#
# Velocity S-wave (km/s) = 2.63835 3.99006 3.38242
# Velocity P-wave (km/s) = 3.52825 6.30398 5.10827
#
# Compressibility (1/GPa) = 0.15938169
#
# Stress axis : x y z
#
# Youngs Moduli (GPa) = 116.80679 89.77056 6.60200
#
# Poissons Ratio (x) = 0.27097 0.11055
# Poissons Ratio (y) = 0.35258 -0.09156
# Poissons Ratio (z) = 1.95585 -1.24499
#
# Static dielectric constant tensor:
#      x y z
#    x 1.746780 0.000000 0.000000 
#    y 0.000000 1.877210 0.000000 
#    z 0.000000 0.000000 1.561460 
# 
# From -- ./inp_files/12040.got.cif
#   From: 2010.05.17/outbox.cif.g08.bks.cpg/sg52_7_cif.got.tgz:12040.got - 2010.06.03 12:15:38.
