data_PCOD9409003
_publ_section_title
;
Structure prediction by ZEFSAII (Michael W. Deem and Ramdas Pophale) SiO2 
 PCOD9409003
Probable space group: P N N A
;
_chemical_formula_sum "Si O2"
_cell_formula_units_Z 52
_cell_length_a 17.178334
_cell_length_b 7.862409
_cell_length_c 21.642036
_cell_angle_alpha 90.000000
_cell_angle_beta 90.000000
_cell_angle_gamma 90.000000
_cell_volume 2923.040209
_symmetry_space_group_name_H-M "P N N A"
_symmetry_group_IT_number 52
_symmetry_cell_setting 'orthorhombic'
loop_
_space_group_symop_operation_xyz
x,y,z
1/2-x,-y,z
x,1/2-y,1/2-z
1/2-x,1/2+y,1/2-z
-x,-y,-z
1/2+x,y,-z
-x,1/2+y,1/2+z
1/2+x,1/2-y,1/2+z
loop_
_atom_site_type_symbol
_atom_site_label
_atom_site_fract_x
_atom_site_fract_y
_atom_site_fract_z
Si Si1 0.415572 0.071419 0.425466
Si Si2 0.250000 0.500000 0.025061
Si Si3 0.572853 0.493558 0.411320
Si Si4 0.478486 0.717256 0.820198
Si Si5 0.806080 0.661273 0.183458
Si Si6 0.228595 0.680061 0.566607
Si Si7 0.521803 0.267603 0.512370
O O1 0.455009 0.129896 0.361516
O O2 0.444835 0.216761 0.473278
O O3 0.324851 0.031167 0.431692
O O4 0.453150 0.899201 0.451738
O O5 0.243883 0.662213 0.978599
O O6 0.549436 0.397471 0.349295
O O7 0.640875 0.633952 0.410548
O O8 0.582908 0.341351 0.462376
O O9 0.498092 0.589498 0.438526
O O10 0.501798 0.750000 0.750000
O O11 0.397063 0.612814 0.823342
O O12 0.750000 0.500000 0.179372
O O13 0.797820 0.750000 0.250000
O O14 0.779756 0.786056 0.128092
O O15 0.250000 0.500000 0.535869
#
# Coordination Sequence:
#
# PCOD9409003 Si02
#       7
#     8   4   8   8   8   8   8
#     4  10  21  37  60  85 119 153 197 257 300 370
#     4  12  24  38  60  98 122 158 202 250 332 358
#     4  10  19  35  56  82 117 156 193 238 299 363
#     4  10  23  41  59  81 115 167 211 248 300 357
#     4  11  24  37  54  82 119 163 207 241 293 362
#     4  12  22  35  56  89 126 157 193 248 296 370
#     4   9  19  34  58  85 115 150 188 240 310 360
#
# _framework density 17.789698000000001
#
# number of rings (size 3 to 8) (size 9 to 14) (size 15 to 20)
#    0.000    1.538    3.846    1.385    8.615    0.000 
#    0.000    0.769    0.000    1.846    0.000    0.000 
#    0.000    0.000    0.000    0.000    0.000    0.000 
#
# Total GULP energy -289657.727338 kJ/mol
# GULP energy per Si atom -5570.340910 kJ/mol
# Density = 1.774921 g / cm^3
# Si number density = 17.789698 Si / 1000 Ang^3
#
#
#
# Elastic Constant Matrix: (Units=GPa)
#
#
# Indices 1 2 3 4 5 6 
#
# 1 123.5179 36.5379 64.9344 0.0000 0.0000 0.0000
# 2 36.5379 104.0989 42.1061 0.0000 0.0000 0.0000
# 3 64.9344 42.1061 121.1086 0.0000 0.0000 0.0000
# 4 0.0000 0.0000 0.0000 15.2295 0.0000 0.0000
# 5 0.0000 0.0000 0.0000 0.0000 25.1234 0.0000
# 6 0.0000 0.0000 0.0000 0.0000 0.0000 28.6551
#
#
#
# Elastic Compliance Matrix: (Units=1/GPa)
#
#
# Indices 1 2 3 4 5 6 
#
# 1 0.011558 -0.001804 -0.005570 0.000000 0.000000 0.000000
# 2 -0.001804 0.011460 -0.003017 0.000000 0.000000 0.000000
# 3 -0.005570 -0.003017 0.012292 0.000000 0.000000 0.000000
# 4 0.000000 0.000000 0.000000 0.065662 0.000000 0.000000
# 5 0.000000 0.000000 0.000000 0.000000 0.039803 0.000000
# 6 0.000000 0.000000 0.000000 0.000000 0.000000 0.034898
#
#
# Mechanical properties :
#
#
# Convention : Reuss Voigt Hill
#
# Bulk Modulus (GPa) = 68.83029 70.65358 69.74193
# Shear Modulus (GPa) = 24.83894 27.47808 26.15851
#
# Velocity S-wave (km/s) = 3.74070 3.93441 3.83878
# Velocity P-wave (km/s) = 7.57841 7.77443 7.67704
#
# Compressibility (1/GPa) = 0.01452849
#
# Stress axis : x y z
#
# Youngs Moduli (GPa) = 86.52314 87.26210 81.35182
#
# Poissons Ratio (x) = 0.15740 0.45310
# Poissons Ratio (y) = 0.15607 0.24545
# Poissons Ratio (z) = 0.48191 0.26328
#
# Static dielectric constant tensor:
#      x y z
#    x 1.684570 0.000000 0.000000 
#    y 0.000000 1.642330 0.000000 
#    z 0.000000 0.000000 1.595700 
# 
# From -- ./inp_files/33736.got.cif
#   From: 2010.05.17/outbox.cif.g08.bks.cpg/sg52_17_cif.got.tgz:33736.got - 2010.06.03 12:15:38.
