data_PCOD9409639
_publ_section_title
;
Structure prediction by ZEFSAII (Michael W. Deem and Ramdas Pophale) SiO2 
 PCOD9409639
Probable space group: P N N A
;
_chemical_formula_sum "Si O2"
_cell_formula_units_Z 64
_cell_length_a 14.980414
_cell_length_b 18.168062
_cell_length_c 12.536258
_cell_angle_alpha 90.000000
_cell_angle_beta 90.000000
_cell_angle_gamma 90.000000
_cell_volume 3411.931791
_symmetry_space_group_name_H-M "P N N A"
_symmetry_group_IT_number 52
_symmetry_cell_setting 'orthorhombic'
loop_
_space_group_symop_operation_xyz
x,y,z
1/2-x,-y,z
x,1/2-y,1/2-z
1/2-x,1/2+y,1/2-z
-x,-y,-z
1/2+x,y,-z
-x,1/2+y,1/2+z
1/2+x,1/2-y,1/2+z
loop_
_atom_site_type_symbol
_atom_site_label
_atom_site_fract_x
_atom_site_fract_y
_atom_site_fract_z
Si Si1 0.349766 0.084485 0.695575
Si Si2 0.245433 0.078132 0.048841
Si Si3 0.357140 0.582198 0.797749
Si Si4 0.254517 0.257950 0.373973
Si Si5 0.594348 0.875763 0.083661
Si Si6 0.599631 0.288761 0.036757
Si Si7 0.397611 0.291285 0.970526
Si Si8 0.571627 0.122501 0.077662
O O1 0.246969 0.091438 0.735410
O O2 0.416544 0.100948 0.793921
O O3 0.361367 0.143633 0.602483
O O4 0.364061 0.000762 0.658187
O O5 0.262771 0.154187 0.109433
O O6 0.250000 0.000000 0.107963
O O7 0.322908 0.077845 0.960546
O O8 0.151148 0.088901 0.992031
O O9 0.376737 0.645515 0.883494
O O10 0.421634 0.588380 0.695046
O O11 0.238174 0.250000 0.250000
O O12 0.174410 0.225622 0.446435
O O13 0.343439 0.218370 0.418941
O O14 0.616259 0.788568 0.084412
O O15 0.515560 0.885365 0.996888
O O16 0.590587 0.209437 0.093881
O O17 0.502375 0.302854 0.987576
#
# Coordination Sequence:
#
# PCOD9409639 Si02
#       8
#     8   8   8   8   8   8   8   8
#     4  11  22  37  61  91 123 162 205 253 310 372
#     4  10  20  35  55  83 115 149 190 241 307 362
#     4  11  22  37  61  91 123 162 205 253 310 372
#     4  10  22  41  61  83 121 159 204 261 313 370
#     4  10  21  36  59  89 120 156 202 254 303 363
#     4  10  22  39  62  87 116 162 210 253 309 372
#     4  10  22  39  62  87 116 162 210 253 309 372
#     4  10  21  36  59  89 120 156 202 254 303 363
#
# _framework density 18.757701000000001
#
# number of rings (size 3 to 8) (size 9 to 14) (size 15 to 20)
#    0.000    1.750    2.500    1.500    0.000    9.500 
#    0.000    1.250    0.000    0.000    0.000    0.000 
#    0.000    0.000    0.000    0.000    0.000    0.000 
#
# Total GULP energy -356912.475986 kJ/mol
# GULP energy per Si atom -5576.757437 kJ/mol
# Density = 1.871501 g / cm^3
# Si number density = 18.757701 Si / 1000 Ang^3
#
#
#
# Elastic Constant Matrix: (Units=GPa)
#
#
# Indices 1 2 3 4 5 6 
#
# 1 56.9751 25.4322 -0.1336 0.0000 0.0000 0.0000
# 2 25.4322 99.3480 31.3823 0.0000 0.0000 0.0000
# 3 -0.1336 31.3823 53.3153 0.0000 0.0000 0.0000
# 4 0.0000 0.0000 0.0000 7.9846 0.0000 0.0000
# 5 0.0000 0.0000 0.0000 0.0000 18.5329 0.0000
# 6 0.0000 0.0000 0.0000 0.0000 0.0000 2.6677
#
#
#
# Elastic Compliance Matrix: (Units=1/GPa)
#
#
# Indices 1 2 3 4 5 6 
#
# 1 0.020438 -0.006447 0.003846 0.000000 0.000000 0.000000
# 2 -0.006447 0.014398 -0.008491 0.000000 0.000000 0.000000
# 3 0.003846 -0.008491 0.023764 0.000000 0.000000 0.000000
# 4 0.000000 0.000000 0.000000 0.125242 0.000000 0.000000
# 5 0.000000 0.000000 0.000000 0.000000 0.053958 0.000000
# 6 0.000000 0.000000 0.000000 0.000000 0.000000 0.374859
#
#
# Mechanical properties :
#
#
# Convention : Reuss Voigt Hill
#
# Bulk Modulus (GPa) = 27.46022 35.88889 31.67455
# Shear Modulus (GPa) = 7.72819 16.03420 11.88119
#
# Velocity S-wave (km/s) = 2.03198 2.92688 2.51948
# Velocity P-wave (km/s) = 4.49182 5.53142 5.03850
#
# Compressibility (1/GPa) = 0.03641632
#
# Stress axis : x y z
#
# Youngs Moduli (GPa) = 48.92785 69.45315 42.08037
#
# Poissons Ratio (x) = 0.44776 -0.16184
# Poissons Ratio (y) = 0.31543 0.35731
# Poissons Ratio (z) = -0.18818 0.58974
#
# Static dielectric constant tensor:
#      x y z
#    x 1.664860 0.000000 0.000000 
#    y 0.000000 1.670640 0.000000 
#    z 0.000000 0.000000 1.625610 
# 
# From -- ./inp_files/19881.got.cif
#   From: 2010.05.17/outbox.cif.g08.bks.cpg/sg52_10_cif.got.tgz:19881.got - 2010.06.03 12:15:38.
