data_PCOD9409239
_publ_section_title
;
Structure prediction by ZEFSAII (Michael W. Deem and Ramdas Pophale) SiO2 
 PCOD9409239
Probable space group: P N N A
;
_chemical_formula_sum "Si O2"
_cell_formula_units_Z 32
_cell_length_a 16.080728
_cell_length_b 11.429147
_cell_length_c 7.393178
_cell_angle_alpha 90.000000
_cell_angle_beta 90.000000
_cell_angle_gamma 90.000000
_cell_volume 1358.784822
_symmetry_space_group_name_H-M "P N N A"
_symmetry_group_IT_number 52
_symmetry_cell_setting 'orthorhombic'
loop_
_space_group_symop_operation_xyz
x,y,z
1/2-x,-y,z
x,1/2-y,1/2-z
1/2-x,1/2+y,1/2-z
-x,-y,-z
1/2+x,y,-z
-x,1/2+y,1/2+z
1/2+x,1/2-y,1/2+z
loop_
_atom_site_type_symbol
_atom_site_label
_atom_site_fract_x
_atom_site_fract_y
_atom_site_fract_z
Si Si1 0.188768 0.696211 0.945715
Si Si2 0.666678 0.955672 0.940010
Si Si3 0.855638 0.887348 0.306105
Si Si4 0.541627 0.882777 0.671812
O O1 0.169236 0.750000 0.750000
O O2 0.189830 0.818174 0.051928
O O3 0.273695 0.622964 0.930967
O O4 0.112061 0.623309 0.019420
O O5 0.750000 0.000000 0.844796
O O6 0.658759 0.027197 0.130992
O O7 0.581256 0.963439 0.829268
O O8 0.859154 0.750000 0.250000
O O9 0.947652 0.912059 0.381432
O O10 0.536978 0.750000 0.750000
#
# Coordination Sequence:
#
# PCOD9409239 Si02
#       4
#     8   8   8   8
#     4  10  20  39  63  88 132 170 209 265 331 386
#     4  11  19  37  63  91 126 173 214 266 325 388
#     4  10  19  37  66  91 126 174 215 268 334 382
#     4   9  21  37  61  95 125 167 222 271 318 394
#
# _framework density 23.550454999999999
#
# number of rings (size 3 to 8) (size 9 to 14) (size 15 to 20)
#    0.000    2.000    5.000    0.750    0.000    0.000 
#    4.500    5.000    0.000    0.000    0.000    0.000 
#    0.000    0.000    0.000    0.000    0.000    0.000 
#
# Total GULP energy -178382.188031 kJ/mol
# GULP energy per Si atom -5574.443376 kJ/mol
# Density = 2.349685 g / cm^3
# Si number density = 23.550455 Si / 1000 Ang^3
#
#
#
# Elastic Constant Matrix: (Units=GPa)
#
#
# Indices 1 2 3 4 5 6 
#
# 1 268.0811 84.5135 86.3423 0.0000 0.0000 0.0000
# 2 84.5135 131.5753 16.8063 0.0000 0.0000 0.0000
# 3 86.3423 16.8063 55.8548 0.0000 0.0000 0.0000
# 4 0.0000 0.0000 0.0000 17.9314 0.0000 0.0000
# 5 0.0000 0.0000 0.0000 0.0000 38.5381 0.0000
# 6 0.0000 0.0000 0.0000 0.0000 0.0000 23.6651
#
#
#
# Elastic Compliance Matrix: (Units=1/GPa)
#
#
# Indices 1 2 3 4 5 6 
#
# 1 0.009300 -0.004303 -0.013081 0.000000 0.000000 0.000000
# 2 -0.004303 0.009895 0.003674 0.000000 0.000000 0.000000
# 3 -0.013081 0.003674 0.037020 0.000000 0.000000 0.000000
# 4 0.000000 0.000000 0.000000 0.055768 0.000000 0.000000
# 5 0.000000 0.000000 0.000000 0.000000 0.025948 0.000000
# 6 0.000000 0.000000 0.000000 0.000000 0.000000 0.042256
#
#
# Mechanical properties :
#
#
# Convention : Reuss Voigt Hill
#
# Bulk Modulus (GPa) = 34.72957 92.31503 63.52230
# Shear Modulus (GPa) = 23.01974 33.88351 28.45163
#
# Velocity S-wave (km/s) = 3.12983 3.79722 3.47956
# Velocity P-wave (km/s) = 5.27637 7.64912 6.57074
#
# Compressibility (1/GPa) = 0.02879391
#
# Stress axis : x y z
#
# Youngs Moduli (GPa) = 107.52970 101.06572 27.01269
#
# Poissons Ratio (x) = 0.43484 0.35336
# Poissons Ratio (y) = 0.46265 -0.09924
# Poissons Ratio (z) = 1.40663 -0.37129
#
# Static dielectric constant tensor:
#      x y z
#    x 1.899690 0.000000 0.000000 
#    y 0.000000 6.988940 0.000000 
#    z 0.000000 0.000000 2.091260 
# 
# From -- ./inp_files/9533.got.cif
#   From: 2010.05.17/outbox.cif.g08.bks.cpg/sg52_5_cif.got.tgz:9533.got - 2010.06.03 12:15:38.
