data_PCOD9409398
_publ_section_title
;
Structure prediction by ZEFSAII (Michael W. Deem and Ramdas Pophale) SiO2 
 PCOD9409398
Probable space group: P N N A
;
_chemical_formula_sum "Si O2"
_cell_formula_units_Z 52
_cell_length_a 17.266734
_cell_length_b 8.663156
_cell_length_c 17.722239
_cell_angle_alpha 90.000000
_cell_angle_beta 90.000000
_cell_angle_gamma 90.000000
_cell_volume 2650.970669
_symmetry_space_group_name_H-M "P N N A"
_symmetry_group_IT_number 52
_symmetry_cell_setting 'orthorhombic'
loop_
_space_group_symop_operation_xyz
x,y,z
1/2-x,-y,z
x,1/2-y,1/2-z
1/2-x,1/2+y,1/2-z
-x,-y,-z
1/2+x,y,-z
-x,1/2+y,1/2+z
1/2+x,1/2-y,1/2+z
loop_
_atom_site_type_symbol
_atom_site_label
_atom_site_fract_x
_atom_site_fract_y
_atom_site_fract_z
Si Si1 0.890937 0.408693 0.605433
Si Si2 0.674521 0.581715 0.282257
Si Si3 0.027851 0.490340 0.804611
Si Si4 0.634134 0.547496 0.441681
Si Si5 0.976259 0.724152 0.602517
Si Si6 0.551798 0.231578 0.437906
Si Si7 0.600455 0.750000 0.750000
O O1 0.843709 0.412180 0.527130
O O2 0.916562 0.586031 0.621619
O O3 0.856122 0.319767 0.677256
O O4 0.970706 0.315230 0.585898
O O5 0.750000 0.500000 0.249695
O O6 0.667113 0.750000 0.250000
O O7 0.594749 0.497870 0.258549
O O8 0.685166 0.596759 0.371801
O O9 0.062508 0.405049 0.878589
O O10 0.997348 0.656693 0.831995
O O11 0.956789 0.388416 0.775055
O O12 0.553301 0.634329 0.423832
O O13 0.615730 0.366039 0.434475
O O14 0.951093 0.813899 0.526125
#
# Coordination Sequence:
#
# PCOD9409398 Si02
#       7
#     8   8   8   8   8   8   4
#     4   8  16  29  47  70  97 123 152 192 249 313
#     4  12  26  36  48  66  93 138 185 219 234 273
#     4  11  19  30  46  67  99 132 168 206 248 279
#     4   9  17  34  48  62  93 129 161 204 251 286
#     4   9  15  28  47  71  92 129 166 189 244 304
#     4   8  16  27  48  70  95 123 158 198 240 313
#     4  10  20  28  48  76 102 128 150 200 246 320
#
# _framework density 19.615458
#
# number of rings (size 3 to 8) (size 9 to 14) (size 15 to 20)
#    0.000    2.462    1.538    5.077    3.231    0.000 
#    0.000    0.000    0.000    0.000    0.000    0.000 
#    0.000    6.154    0.000    0.000    0.000    0.000 
#
# Total GULP energy -289818.449429 kJ/mol
# GULP energy per Si atom -5573.431720 kJ/mol
# Density = 1.957081 g / cm^3
# Si number density = 19.615458 Si / 1000 Ang^3
#
#
#
# Elastic Constant Matrix: (Units=GPa)
#
#
# Indices 1 2 3 4 5 6 
#
# 1 7.0691 3.8264 11.5375 0.0000 0.0000 0.0000
# 2 3.8264 63.4846 45.2065 0.0000 0.0000 0.0000
# 3 11.5375 45.2065 143.1224 0.0000 0.0000 0.0000
# 4 0.0000 0.0000 0.0000 29.8473 0.0000 0.0000
# 5 0.0000 0.0000 0.0000 0.0000 51.0836 0.0000
# 6 0.0000 0.0000 0.0000 0.0000 0.0000 7.1834
#
#
#
# Elastic Compliance Matrix: (Units=1/GPa)
#
#
# Indices 1 2 3 4 5 6 
#
# 1 0.162910 -0.000603 -0.012942 0.000000 0.000000 0.000000
# 2 -0.000603 0.020325 -0.006371 0.000000 0.000000 0.000000
# 3 -0.012942 -0.006371 0.010043 0.000000 0.000000 0.000000
# 4 0.000000 0.000000 0.000000 0.033504 0.000000 0.000000
# 5 0.000000 0.000000 0.000000 0.000000 0.019576 0.000000
# 6 0.000000 0.000000 0.000000 0.000000 0.000000 0.139209
#
#
# Mechanical properties :
#
#
# Convention : Reuss Voigt Hill
#
# Bulk Modulus (GPa) = 6.51700 37.20188 21.85944
# Shear Modulus (GPa) = 10.49211 27.82992 19.16102
#
# Velocity S-wave (km/s) = 2.31528 3.77075 3.12882
# Velocity P-wave (km/s) = 3.23681 6.16156 4.92147
#
# Compressibility (1/GPa) = 0.15344493
#
# Stress axis : x y z
#
# Youngs Moduli (GPa) = 6.13835 49.20035 99.57444
#
# Poissons Ratio (x) = 0.02968 1.28870
# Poissons Ratio (y) = 0.00370 0.63441
# Poissons Ratio (z) = 0.07944 0.31347
#
# Static dielectric constant tensor:
#      x y z
#    x 1.661820 0.000000 0.000000 
#    y 0.000000 1.682570 0.000000 
#    z 0.000000 0.000000 1.788390 
# 
# From -- ./inp_files/33720.got.cif
#   From: 2010.05.17/outbox.cif.g08.bks.cpg/sg52_17_cif.got.tgz:33720.got - 2010.06.03 12:15:38.
