data_PCOD9409739
_publ_section_title
;
Structure prediction by ZEFSAII (Michael W. Deem and Ramdas Pophale) SiO2 
 PCOD9409739
Probable space group: P N N A
;
_chemical_formula_sum "Si O2"
_cell_formula_units_Z 48
_cell_length_a 29.827463
_cell_length_b 9.905610
_cell_length_c 8.087908
_cell_angle_alpha 90.000000
_cell_angle_beta 90.000000
_cell_angle_gamma 90.000000
_cell_volume 2389.646955
_symmetry_space_group_name_H-M "P N N A"
_symmetry_group_IT_number 52
_symmetry_cell_setting 'orthorhombic'
loop_
_space_group_symop_operation_xyz
x,y,z
1/2-x,-y,z
x,1/2-y,1/2-z
1/2-x,1/2+y,1/2-z
-x,-y,-z
1/2+x,y,-z
-x,1/2+y,1/2+z
1/2+x,1/2-y,1/2+z
loop_
_atom_site_type_symbol
_atom_site_label
_atom_site_fract_x
_atom_site_fract_y
_atom_site_fract_z
Si Si1 0.932073 0.493183 0.601863
Si Si2 0.611588 0.896647 0.333123
Si Si3 0.364140 0.861336 0.892112
Si Si4 0.019221 0.905586 0.768858
Si Si5 0.849813 0.391473 0.804225
Si Si6 0.212349 0.387764 0.345914
O O1 0.905931 0.622223 0.520868
O O2 0.956988 0.424753 0.447417
O O3 0.893318 0.407428 0.686891
O O4 0.972037 0.520033 0.729572
O O5 0.609914 0.750000 0.250000
O O6 0.559768 0.945266 0.352376
O O7 0.635650 0.889470 0.506935
O O8 0.635811 0.997378 0.206799
O O9 0.370272 0.750000 0.750000
O O10 0.318874 0.846671 0.998133
O O11 0.008423 0.750000 0.750000
O O12 0.828085 0.250000 0.750000
O O13 0.819595 0.521968 0.771837
O O14 0.250000 0.500000 0.392748
O O15 0.225787 0.250000 0.250000
#
# Coordination Sequence:
#
# PCOD9409739 Si02
#       6
#     8   8   8   8   8   8
#     4   9  20  34  53  82 114 154 202 245 289 346
#     4  10  20  36  57  83 118 157 197 243 293 346
#     4  10  21  40  61  86 119 154 196 242 296 357
#     4   9  17  33  51  76 116 155 198 248 292 339
#     4  11  21  38  63  86 114 155 198 242 295 352
#     4  11  24  43  66  92 119 148 189 238 293 358
#
# _framework density 20.086649000000001
#
# number of rings (size 3 to 8) (size 9 to 14) (size 15 to 20)
#    0.000    2.000    0.000    5.500    0.000    4.667 
#    0.000   21.667    0.000    0.000    0.000    0.000 
#    0.000    0.000    0.000    0.000    0.000    0.000 
#
# Total GULP energy -267615.880678 kJ/mol
# GULP energy per Si atom -5575.330847 kJ/mol
# Density = 2.004093 g / cm^3
# Si number density = 20.086649 Si / 1000 Ang^3
#
#
#
# Elastic Constant Matrix: (Units=GPa)
#
#
# Indices 1 2 3 4 5 6 
#
# 1 86.9034 32.2600 28.7133 0.0000 0.0000 0.0000
# 2 32.2600 88.2165 12.8981 0.0000 0.0000 0.0000
# 3 28.7133 12.8981 71.1494 0.0000 0.0000 0.0000
# 4 0.0000 0.0000 0.0000 33.2106 0.0000 0.0000
# 5 0.0000 0.0000 0.0000 0.0000 -26.7258 0.0000
# 6 0.0000 0.0000 0.0000 0.0000 0.0000 33.0940
#
#
#
# Elastic Compliance Matrix: (Units=1/GPa)
#
#
# Indices 1 2 3 4 5 6 
#
# 1 0.014972 -0.004717 -0.005187 0.000000 0.000000 0.000000
# 2 -0.004717 0.013130 -0.000477 0.000000 0.000000 0.000000
# 3 -0.005187 -0.000477 0.016235 0.000000 0.000000 0.000000
# 4 0.000000 0.000000 0.000000 0.030111 0.000000 0.000000
# 5 0.000000 0.000000 0.000000 0.000000 -0.037417 0.000000
# 6 0.000000 0.000000 0.000000 0.000000 0.000000 0.030217
#
#
# Mechanical properties :
#
#
# Convention : Reuss Voigt Hill
#
# Bulk Modulus (GPa) = 42.41646 43.77912 43.09779
# Shear Modulus (GPa) = 52.15562 19.40896 35.78229
#
# Velocity S-wave (km/s) = 5.10115 3.11185 4.22524
# Velocity P-wave (km/s) = 7.47383 5.89524 6.73098
#
# Compressibility (1/GPa) = 0.02357575
#
# Stress axis : x y z
#
# Youngs Moduli (GPa) = 66.79253 76.15978 61.59665
#
# Poissons Ratio (x) = 0.35922 0.31950
# Poissons Ratio (y) = 0.31504 0.02937
# Poissons Ratio (z) = 0.34645 0.03632
#
# Static dielectric constant tensor:
#      x y z
#    x 1.749850 0.000000 0.000000 
#    y 0.000000 1.726350 0.000000 
#    z 0.000000 0.000000 1.716020 
# 
# From -- ./inp_files/15547.got.cif
#   From: 2010.05.17/outbox.cif.g08.bks.cpg/sg52_8_cif.got.tgz:15547.got - 2010.06.03 12:15:38.
