data_PCOD9409151
_publ_section_title
;
Structure prediction by ZEFSAII (Michael W. Deem and Ramdas Pophale) SiO2 
 PCOD9409151
Probable space group: P N N A
;
_chemical_formula_sum "Si O2"
_cell_formula_units_Z 64
_cell_length_a 14.581604
_cell_length_b 11.128284
_cell_length_c 19.193568
_cell_angle_alpha 90.000000
_cell_angle_beta 90.000000
_cell_angle_gamma 90.000000
_cell_volume 3114.506316
_symmetry_space_group_name_H-M "P N N A"
_symmetry_group_IT_number 52
_symmetry_cell_setting 'orthorhombic'
loop_
_space_group_symop_operation_xyz
x,y,z
1/2-x,-y,z
x,1/2-y,1/2-z
1/2-x,1/2+y,1/2-z
-x,-y,-z
1/2+x,y,-z
-x,1/2+y,1/2+z
1/2+x,1/2-y,1/2+z
loop_
_atom_site_type_symbol
_atom_site_label
_atom_site_fract_x
_atom_site_fract_y
_atom_site_fract_z
Si Si1 0.884162 0.609883 0.957405
Si Si2 0.142708 0.136924 0.300817
Si Si3 0.407335 0.815347 0.819841
Si Si4 0.639138 0.868217 0.702591
Si Si5 0.190490 0.847201 0.499693
Si Si6 0.526227 0.707529 0.930770
Si Si7 0.658034 0.563926 0.296630
Si Si8 0.204948 0.697191 0.843642
O O1 0.906891 0.636246 0.876586
O O2 0.847644 0.473756 0.969623
O O3 0.792167 0.684090 0.975325
O O4 0.962818 0.636823 0.013785
O O5 0.121892 0.250000 0.250000
O O6 0.252466 0.138812 0.317914
O O7 0.126123 0.003805 0.268092
O O8 0.440814 0.750000 0.750000
O O9 0.461527 0.800425 0.891349
O O10 0.307304 0.751439 0.831812
O O11 0.410347 0.955044 0.800182
O O12 0.628293 0.750000 0.750000
O O13 0.570678 0.857439 0.637102
O O14 0.115178 0.752111 0.474048
O O15 0.194691 0.861196 0.582139
O O16 0.750000 0.500000 0.325310
O O17 0.680507 0.607512 0.218515
O O18 0.639851 0.686106 0.337278
#
# Coordination Sequence:
#
# PCOD9409151 Si02
#       8
#     8   8   8   8   8   8   8   8
#     4  11  22  38  64  91 127 165 215 271 325 381
#     4  10  20  41  72  94 127 170 223 269 331 390
#     4  11  21  35  61  96 126 168 217 264 321 396
#     4  10  20  39  66 100 128 166 215 273 323 384
#     4  11  22  37  62  91 129 166 216 266 326 385
#     4  12  23  38  61  94 131 162 212 272 319 387
#     4   9  18  35  59  89 126 162 219 255 320 391
#     4  10  19  36  63  90 122 175 208 266 324 386
#
# _framework density 20.549002999999999
#
# number of rings (size 3 to 8) (size 9 to 14) (size 15 to 20)
#    0.000    1.500    6.250    1.500    3.500    0.000 
#    0.000    0.625   11.000    0.000    0.000    0.000 
#    0.000    0.000    0.000    0.000    0.000    0.000 
#
# Total GULP energy -356425.514531 kJ/mol
# GULP energy per Si atom -5569.148665 kJ/mol
# Density = 2.050223 g / cm^3
# Si number density = 20.549003 Si / 1000 Ang^3
#
#
#
# Elastic Constant Matrix: (Units=GPa)
#
#
# Indices 1 2 3 4 5 6 
#
# 1 77.8164 26.0342 31.7000 0.0000 0.0000 0.0000
# 2 26.0342 114.4281 51.1318 0.0000 0.0000 0.0000
# 3 31.7000 51.1318 116.2493 0.0000 0.0000 0.0000
# 4 0.0000 0.0000 0.0000 21.9258 0.0000 0.0000
# 5 0.0000 0.0000 0.0000 0.0000 31.3176 0.0000
# 6 0.0000 0.0000 0.0000 0.0000 0.0000 -27.4677
#
#
#
# Elastic Compliance Matrix: (Units=1/GPa)
#
#
# Indices 1 2 3 4 5 6 
#
# 1 0.014797 -0.001946 -0.003179 0.000000 0.000000 0.000000
# 2 -0.001946 0.011133 -0.004366 0.000000 0.000000 0.000000
# 3 -0.003179 -0.004366 0.011389 0.000000 0.000000 0.000000
# 4 0.000000 0.000000 0.000000 0.045608 0.000000 0.000000
# 5 0.000000 0.000000 0.000000 0.000000 0.031931 0.000000
# 6 0.000000 0.000000 0.000000 0.000000 0.000000 -0.036406
#
#
# Mechanical properties :
#
#
# Convention : Reuss Voigt Hill
#
# Bulk Modulus (GPa) = 54.53457 58.46956 56.50206
# Shear Modulus (GPa) = 48.28751 18.46368 33.37559
#
# Velocity S-wave (km/s) = 4.85281 3.00078 4.03450
# Velocity P-wave (km/s) = 7.61551 6.36567 7.01847
#
# Compressibility (1/GPa) = 0.01833699
#
# Stress axis : x y z
#
# Youngs Moduli (GPa) = 67.58201 89.82451 87.80022
#
# Poissons Ratio (x) = 0.17480 0.27912
# Poissons Ratio (y) = 0.13151 0.38334
# Poissons Ratio (z) = 0.21484 0.39218
#
# Static dielectric constant tensor:
#      x y z
#    x 1.864940 0.000000 0.000000 
#    y 0.000000 1.803850 0.000000 
#    z 0.000000 0.000000 1.740150 
# 
# From -- ./inp_files/33298.got.cif
#   From: 2010.05.17/outbox.cif.g08.bks.cpg/sg52_17_cif.got.tgz:33298.got - 2010.06.03 12:15:38.
