data_PCOD9409033
_publ_section_title
;
Structure prediction by ZEFSAII (Michael W. Deem and Ramdas Pophale) SiO2 
 PCOD9409033
Probable space group: P N N A
;
_chemical_formula_sum "Si O2"
_cell_formula_units_Z 64
_cell_length_a 9.018531
_cell_length_b 23.994415
_cell_length_c 15.101869
_cell_angle_alpha 90.000000
_cell_angle_beta 90.000000
_cell_angle_gamma 90.000000
_cell_volume 3267.959511
_symmetry_space_group_name_H-M "P N N A"
_symmetry_group_IT_number 52
_symmetry_cell_setting 'orthorhombic'
loop_
_space_group_symop_operation_xyz
x,y,z
1/2-x,-y,z
x,1/2-y,1/2-z
1/2-x,1/2+y,1/2-z
-x,-y,-z
1/2+x,y,-z
-x,1/2+y,1/2+z
1/2+x,1/2-y,1/2+z
loop_
_atom_site_type_symbol
_atom_site_label
_atom_site_fract_x
_atom_site_fract_y
_atom_site_fract_z
Si Si1 0.405731 0.531348 0.325239
Si Si2 0.675751 0.211143 0.824850
Si Si3 0.047085 0.708442 0.927682
Si Si4 0.974332 0.373074 0.218537
Si Si5 0.750305 0.617029 0.542965
Si Si6 0.613050 0.233043 0.392911
Si Si7 0.445011 0.925391 0.893353
Si Si8 0.858210 0.839352 0.226045
O O1 0.250000 0.500000 0.300908
O O2 0.486138 0.563886 0.245279
O O3 0.351486 0.576809 0.396454
O O4 0.520733 0.489605 0.373860
O O5 0.758345 0.250000 0.750000
O O6 0.547165 0.249944 0.865458
O O7 0.600354 0.163080 0.766949
O O8 0.742580 0.178347 0.910615
O O9 0.025960 0.647393 0.883425
O O10 0.218407 0.723280 0.922285
O O11 0.991456 0.719192 0.025918
O O12 0.815357 0.353346 0.258123
O O13 0.583038 0.597513 0.551848
O O14 0.804193 0.599990 0.444915
O O15 0.584326 0.190214 0.313749
O O16 0.610782 0.294816 0.351941
O O17 0.442905 0.895294 0.798519
#
# Coordination Sequence:
#
# PCOD9409033 Si02
#       8
#     8   8   8   8   8   8   8   8
#     4   9  20  39  56  82 117 147 193 246 293 342
#     4   9  17  32  54  80 110 146 190 231 280 342
#     4  10  19  35  59  84 111 152 195 233 287 345
#     4   9  18  36  60  80 107 158 194 231 287 353
#     4  10  22  36  54  81 115 148 194 235 285 344
#     4  10  21  38  56  85 118 152 187 241 285 351
#     4  11  23  37  56  83 115 155 191 241 289 347
#     4  10  21  37  57  81 121 151 190 231 295 350
#
# _framework density 19.584087
#
# number of rings (size 3 to 8) (size 9 to 14) (size 15 to 20)
#    0.000    2.250    1.250    1.125    3.500    3.500 
#   11.250    0.000    0.000    0.750    0.000    0.000 
#    0.000    0.000    0.000    0.000    0.000    0.000 
#
# Total GULP energy -356758.266358 kJ/mol
# GULP energy per Si atom -5574.347912 kJ/mol
# Density = 1.953951 g / cm^3
# Si number density = 19.584087 Si / 1000 Ang^3
#
#
#
# Elastic Constant Matrix: (Units=GPa)
#
#
# Indices 1 2 3 4 5 6 
#
# 1 28.6735 17.9999 31.4284 0.0000 0.0000 0.0000
# 2 17.9999 82.9958 39.5635 0.0000 0.0000 0.0000
# 3 31.4284 39.5635 95.0484 0.0000 0.0000 0.0000
# 4 0.0000 0.0000 0.0000 14.2213 0.0000 0.0000
# 5 0.0000 0.0000 0.0000 0.0000 17.0621 0.0000
# 6 0.0000 0.0000 0.0000 0.0000 0.0000 19.7441
#
#
#
# Elastic Compliance Matrix: (Units=1/GPa)
#
#
# Indices 1 2 3 4 5 6 
#
# 1 0.055810 -0.004126 -0.016737 0.000000 0.000000 0.000000
# 2 -0.004126 0.015336 -0.005019 0.000000 0.000000 0.000000
# 3 -0.016737 -0.005019 0.018144 0.000000 0.000000 0.000000
# 4 0.000000 0.000000 0.000000 0.070317 0.000000 0.000000
# 5 0.000000 0.000000 0.000000 0.000000 0.058609 0.000000
# 6 0.000000 0.000000 0.000000 0.000000 0.000000 0.050648
#
#
# Mechanical properties :
#
#
# Convention : Reuss Voigt Hill
#
# Bulk Modulus (GPa) = 26.64748 42.74459 34.69603
# Shear Modulus (GPa) = 15.00880 18.05389 16.53135
#
# Velocity S-wave (km/s) = 2.77136 3.03952 2.90853
# Velocity P-wave (km/s) = 4.88639 5.84737 5.38835
#
# Compressibility (1/GPa) = 0.03752700
#
# Stress axis : x y z
#
# Youngs Moduli (GPa) = 17.91794 65.20465 55.11347
#
# Poissons Ratio (x) = 0.26902 0.92241
# Poissons Ratio (y) = 0.07392 0.27664
# Poissons Ratio (z) = 0.29989 0.32729
#
# Static dielectric constant tensor:
#      x y z
#    x 1.700880 0.000000 0.000000 
#    y 0.000000 1.724910 0.000000 
#    z 0.000000 0.000000 1.734730 
# 
# From -- ./inp_files/25130.got.cif
#   From: 2010.05.17/outbox.cif.g08.bks.cpg/sg52_13_cif.got.tgz:25130.got - 2010.06.03 12:15:38.
