data_PCOD9409970
_publ_section_title
;
Structure prediction by ZEFSAII (Michael W. Deem and Ramdas Pophale) SiO2 
 PCOD9409970
Probable space group: P N N A
;
_chemical_formula_sum "Si O2"
_cell_formula_units_Z 44
_cell_length_a 29.074695
_cell_length_b 7.253445
_cell_length_c 7.547978
_cell_angle_alpha 90.000000
_cell_angle_beta 90.000000
_cell_angle_gamma 90.000000
_cell_volume 1591.805920
_symmetry_space_group_name_H-M "P N N A"
_symmetry_group_IT_number 52
_symmetry_cell_setting 'orthorhombic'
loop_
_space_group_symop_operation_xyz
x,y,z
1/2-x,-y,z
x,1/2-y,1/2-z
1/2-x,1/2+y,1/2-z
-x,-y,-z
1/2+x,y,-z
-x,1/2+y,1/2+z
1/2+x,1/2-y,1/2+z
loop_
_atom_site_type_symbol
_atom_site_label
_atom_site_fract_x
_atom_site_fract_y
_atom_site_fract_z
Si Si1 0.658810 0.391619 0.518492
Si Si2 0.242546 0.778201 0.440700
Si Si3 0.673519 0.750000 0.250000
Si Si4 0.472401 0.026578 0.769598
Si Si5 0.067481 0.450989 0.337396
Si Si6 0.620814 0.468060 0.123272
O O1 0.710733 0.343613 0.568240
O O2 0.621496 0.497032 0.639735
O O3 0.649742 0.449568 0.311257
O O4 0.639400 0.181782 0.506632
O O5 0.219713 0.750000 0.250000
O O6 0.212223 0.702005 0.599548
O O7 0.250000 0.000000 0.471373
O O8 0.636546 0.673725 0.100989
O O9 0.471158 0.250000 0.750000
O O10 0.524138 0.956231 0.735561
O O11 0.432948 0.948213 0.643640
O O12 0.452784 0.967157 0.962416
O O13 0.066755 0.250000 0.250000
#
# Coordination Sequence:
#
# PCOD9409970 Si02
#       6
#     8   8   4   8   8   8
#     4  10  21  39  62  93 129 174 224 276 344 412
#     4  12  28  44  67 101 137 180 233 282 346 419
#     4  12  24  44  68  94 136 180 228 284 350 404
#     4   9  17  33  58  87 118 162 216 270 331 399
#     4   9  18  34  57  86 122 166 210 270 339 401
#     4  10  20  37  66  92 125 174 225 277 336 416
#
# _framework density 27.641559999999998
#
# number of rings (size 3 to 8) (size 9 to 14) (size 15 to 20)
#    0.000    1.818    2.727    1.636    2.545    0.000 
#    0.000    3.636    0.000    2.182    4.727    0.000 
#    0.000    0.000    0.000    0.000    0.000    0.000 
#
# Total GULP energy -245143.980067 kJ/mol
# GULP energy per Si atom -5571.454092 kJ/mol
# Density = 2.757865 g / cm^3
# Si number density = 27.641560 Si / 1000 Ang^3
#
#
#
# Elastic Constant Matrix: (Units=GPa)
#
#
# Indices 1 2 3 4 5 6 
#
# 1 218.6477 1.8967 42.8908 0.0000 0.0000 0.0000
# 2 1.8967 118.9386 19.3374 0.0000 0.0000 0.0000
# 3 42.8908 19.3374 120.7547 0.0000 0.0000 0.0000
# 4 0.0000 0.0000 0.0000 26.5247 0.0000 0.0000
# 5 0.0000 0.0000 0.0000 0.0000 0.2154 0.0000
# 6 0.0000 0.0000 0.0000 0.0000 0.0000 14.6308
#
#
#
# Elastic Compliance Matrix: (Units=1/GPa)
#
#
# Indices 1 2 3 4 5 6 
#
# 1 0.004921 0.000211 -0.001782 0.000000 0.000000 0.000000
# 2 0.000211 0.008642 -0.001459 0.000000 0.000000 0.000000
# 3 -0.001782 -0.001459 0.009148 0.000000 0.000000 0.000000
# 4 0.000000 0.000000 0.000000 0.037701 0.000000 0.000000
# 5 0.000000 0.000000 0.000000 0.000000 4.642305 0.000000
# 6 0.000000 0.000000 0.000000 0.000000 0.000000 0.068349
#
#
# Mechanical properties :
#
#
# Convention : Reuss Voigt Hill
#
# Bulk Modulus (GPa) = 60.05417 65.17676 62.61547
# Shear Modulus (GPa) = 1.04544 34.55525 17.80035
#
# Velocity S-wave (km/s) = 0.61566 3.53954 2.54041
# Velocity P-wave (km/s) = 4.72002 6.35098 5.59524
#
# Compressibility (1/GPa) = 0.01665163
#
# Stress axis : x y z
#
# Youngs Moduli (GPa) = 203.19993 115.72039 109.31654
#
# Poissons Ratio (x) = -0.02444 0.19478
# Poissons Ratio (y) = -0.04292 0.15948
# Poissons Ratio (z) = 0.36206 0.16882
#
# Static dielectric constant tensor:
#      x y z
#    x 2.193320 0.000000 0.000000 
#    y 0.000000 2.937970 0.000000 
#    z 0.000000 0.000000 2.159300 
# 
# From -- ./inp_files/15419.got.cif
#   From: 2010.05.17/outbox.cif.g08.bks.cpg/sg52_8_cif.got.tgz:15419.got - 2010.06.03 12:15:38.
