data_PCOD9409923
_publ_section_title
;
Structure prediction by ZEFSAII (Michael W. Deem and Ramdas Pophale) SiO2 
 PCOD9409923
Probable space group: P N N A
;
_chemical_formula_sum "Si O2"
_cell_formula_units_Z 52
_cell_length_a 14.209120
_cell_length_b 16.704012
_cell_length_c 11.277772
_cell_angle_alpha 90.000000
_cell_angle_beta 90.000000
_cell_angle_gamma 90.000000
_cell_volume 2676.771414
_symmetry_space_group_name_H-M "P N N A"
_symmetry_group_IT_number 52
_symmetry_cell_setting 'orthorhombic'
loop_
_space_group_symop_operation_xyz
x,y,z
1/2-x,-y,z
x,1/2-y,1/2-z
1/2-x,1/2+y,1/2-z
-x,-y,-z
1/2+x,y,-z
-x,1/2+y,1/2+z
1/2+x,1/2-y,1/2+z
loop_
_atom_site_type_symbol
_atom_site_label
_atom_site_fract_x
_atom_site_fract_y
_atom_site_fract_z
Si Si1 0.083584 0.955736 0.561598
Si Si2 0.250000 0.500000 0.110944
Si Si3 0.312556 0.071002 0.775614
Si Si4 0.695983 0.843917 0.749537
Si Si5 0.473792 0.189990 0.428761
Si Si6 0.836517 0.184570 0.006114
Si Si7 0.306627 0.696849 0.868514
O O1 0.103581 0.967131 0.699197
O O2 0.060048 0.863632 0.538315
O O3 0.166078 0.987175 0.479431
O O4 0.000000 0.000000 0.500000
O O5 0.248643 0.416437 0.185149
O O6 0.343586 0.131275 0.877125
O O7 0.249798 0.118737 0.677067
O O8 0.250000 0.000000 0.827171
O O9 0.730462 0.750000 0.750000
O O10 0.593295 0.837356 0.682462
O O11 0.693186 0.863306 0.888853
O O12 0.435287 0.276684 0.465410
O O13 0.585476 0.182960 0.408906
O O14 0.758952 0.254025 0.038407
O O15 0.314341 0.750000 0.750000
#
# Coordination Sequence:
#
# PCOD9409923 Si02
#       7
#     8   4   8   8   8   8   8
#     4  11  22  37  61  86 118 160 202 252 303 354
#     4  10  22  40  60  84 122 154 202 250 292 374
#     4  11  22  37  60  89 125 161 202 253 312 366
#     4   9  20  37  61  86 118 159 200 245 308 362
#     4  10  20  37  63  86 114 159 204 252 302 374
#     4  10  21  38  61  89 122 155 200 255 307 368
#     4  10  20  37  62  85 116 157 203 246 310 370
#
# _framework density 19.426386000000001
#
# number of rings (size 3 to 8) (size 9 to 14) (size 15 to 20)
#    0.000    1.846    2.308    2.308    1.077    0.000 
#    2.769    0.000    0.000    4.615    0.000    0.000 
#    0.000    0.000    0.000    0.000    0.000    0.000 
#
# Total GULP energy -289551.868491 kJ/mol
# GULP energy per Si atom -5568.305163 kJ/mol
# Density = 1.938217 g / cm^3
# Si number density = 19.426386 Si / 1000 Ang^3
#
#
#
# Elastic Constant Matrix: (Units=GPa)
#
#
# Indices 1 2 3 4 5 6 
#
# 1 64.0375 7.7973 18.0195 0.0000 0.0000 0.0000
# 2 7.7973 58.0931 16.6198 0.0000 0.0000 0.0000
# 3 18.0195 16.6198 100.3566 0.0000 0.0000 0.0000
# 4 0.0000 0.0000 0.0000 33.6094 0.0000 0.0000
# 5 0.0000 0.0000 0.0000 0.0000 7.4672 0.0000
# 6 0.0000 0.0000 0.0000 0.0000 0.0000 23.6075
#
#
#
# Elastic Compliance Matrix: (Units=1/GPa)
#
#
# Indices 1 2 3 4 5 6 
#
# 1 0.016561 -0.001440 -0.002735 0.000000 0.000000 0.000000
# 2 -0.001440 0.018195 -0.002755 0.000000 0.000000 0.000000
# 3 -0.002735 -0.002755 0.010912 0.000000 0.000000 0.000000
# 4 0.000000 0.000000 0.000000 0.029754 0.000000 0.000000
# 5 0.000000 0.000000 0.000000 0.000000 0.133919 0.000000
# 6 0.000000 0.000000 0.000000 0.000000 0.000000 0.042359
#
#
# Mechanical properties :
#
#
# Convention : Reuss Voigt Hill
#
# Bulk Modulus (GPa) = 31.43894 34.15116 32.79505
# Shear Modulus (GPa) = 18.10526 24.94019 21.52273
#
# Velocity S-wave (km/s) = 3.05617 3.58695 3.33214
# Velocity P-wave (km/s) = 5.35465 5.89685 5.63228
#
# Compressibility (1/GPa) = 0.03180769
#
# Stress axis : x y z
#
# Youngs Moduli (GPa) = 60.38343 54.95976 91.64432
#
# Poissons Ratio (x) = 0.07916 0.25065
# Poissons Ratio (y) = 0.08697 0.25245
# Poissons Ratio (z) = 0.16515 0.15139
#
# Static dielectric constant tensor:
#      x y z
#    x 1.515100 0.000000 0.000000 
#    y 0.000000 1.610850 0.000000 
#    z 0.000000 0.000000 1.661990 
# 
# From -- ./inp_files/19771.got.cif
#   From: 2010.05.17/outbox.cif.g08.bks.cpg/sg52_10_cif.got.tgz:19771.got - 2010.06.03 12:15:38.
