data_PCOD9409449
_publ_section_title
;
Structure prediction by ZEFSAII (Michael W. Deem and Ramdas Pophale) SiO2 
 PCOD9409449
Probable space group: P N N A
;
_chemical_formula_sum "Si O2"
_cell_formula_units_Z 48
_cell_length_a 18.892155
_cell_length_b 18.559416
_cell_length_c 6.189618
_cell_angle_alpha 90.000000
_cell_angle_beta 90.000000
_cell_angle_gamma 90.000000
_cell_volume 2170.249442
_symmetry_space_group_name_H-M "P N N A"
_symmetry_group_IT_number 52
_symmetry_cell_setting 'orthorhombic'
loop_
_space_group_symop_operation_xyz
x,y,z
1/2-x,-y,z
x,1/2-y,1/2-z
1/2-x,1/2+y,1/2-z
-x,-y,-z
1/2+x,y,-z
-x,1/2+y,1/2+z
1/2+x,1/2-y,1/2+z
loop_
_atom_site_type_symbol
_atom_site_label
_atom_site_fract_x
_atom_site_fract_y
_atom_site_fract_z
Si Si1 0.916227 0.137207 0.613724
Si Si2 0.528507 0.078265 0.088404
Si Si3 0.629578 0.750000 0.250000
Si Si4 0.750000 0.500000 0.346608
Si Si5 0.793192 0.178920 0.873245
Si Si6 0.876558 0.997366 0.431177
Si Si7 0.160840 0.400647 0.332605
O O1 0.912054 0.200527 0.430923
O O2 0.841984 0.122758 0.742997
O O3 0.928495 0.061616 0.494718
O O4 0.972394 0.134711 0.811640
O O5 0.580861 0.056776 0.281025
O O6 0.580955 0.111646 0.910642
O O7 0.500000 0.000000 0.000000
O O8 0.679995 0.694807 0.385034
O O9 0.811239 0.467589 0.198135
O O10 0.791477 0.556045 0.493335
O O11 0.817328 0.250000 0.750000
O O12 0.711391 0.167832 0.818565
O O13 0.845116 0.950772 0.624866
#
# Coordination Sequence:
#
# PCOD9409449 Si02
#       7
#     8   8   4   4   8   8   8
#     4  11  22  40  67  97 132 172 230 274 344 419
#     4  11  25  39  62 100 141 174 216 284 353 420
#     4  10  24  42  72  92 128 184 228 290 336 412
#     4  10  20  32  56 100 122 160 216 270 324 406
#     4  10  23  42  68  91 123 173 231 285 331 409
#     4  11  22  37  66  96 131 175 208 282 352 404
#     4  11  22  38  63  93 135 170 220 278 346 410
#
# _framework density 22.117273000000001
#
# number of rings (size 3 to 8) (size 9 to 14) (size 15 to 20)
#    0.000    1.333    1.667    4.000    4.667    4.000 
#    0.000    0.000   23.833    0.000    0.000    0.000 
#    0.000    0.000    0.000    0.000    0.000    0.000 
#
# Total GULP energy -267346.446229 kJ/mol
# GULP energy per Si atom -5569.717630 kJ/mol
# Density = 2.206693 g / cm^3
# Si number density = 22.117273 Si / 1000 Ang^3
#
#
#
# Elastic Constant Matrix: (Units=GPa)
#
#
# Indices 1 2 3 4 5 6 
#
# 1 94.1052 4.5968 40.2475 0.0000 0.0000 0.0000
# 2 4.5968 51.3454 32.9175 0.0000 0.0000 0.0000
# 3 40.2475 32.9175 108.7198 0.0000 0.0000 0.0000
# 4 0.0000 0.0000 0.0000 20.5940 0.0000 0.0000
# 5 0.0000 0.0000 0.0000 0.0000 24.0540 0.0000
# 6 0.0000 0.0000 0.0000 0.0000 0.0000 17.5498
#
#
#
# Elastic Compliance Matrix: (Units=1/GPa)
#
#
# Indices 1 2 3 4 5 6 
#
# 1 0.012851 0.002357 -0.005471 0.000000 0.000000 0.000000
# 2 0.002357 0.024599 -0.008321 0.000000 0.000000 0.000000
# 3 -0.005471 -0.008321 0.013743 0.000000 0.000000 0.000000
# 4 0.000000 0.000000 0.000000 0.048558 0.000000 0.000000
# 5 0.000000 0.000000 0.000000 0.000000 0.041573 0.000000
# 6 0.000000 0.000000 0.000000 0.000000 0.000000 0.056981
#
#
# Mechanical properties :
#
#
# Convention : Reuss Voigt Hill
#
# Bulk Modulus (GPa) = 35.30616 45.52156 40.41386
# Shear Modulus (GPa) = 21.68115 24.20014 22.94065
#
# Velocity S-wave (km/s) = 3.13434 3.31142 3.22410
# Velocity P-wave (km/s) = 5.39413 5.93694 5.67203
#
# Compressibility (1/GPa) = 0.02832367
#
# Stress axis : x y z
#
# Youngs Moduli (GPa) = 77.81396 40.65174 72.76674
#
# Poissons Ratio (x) = -0.09581 0.39811
# Poissons Ratio (y) = -0.18340 0.60546
# Poissons Ratio (z) = 0.42572 0.33824
#
# Static dielectric constant tensor:
#      x y z
#    x 3.341080 0.000000 0.000000 
#    y 0.000000 2.081680 0.000000 
#    z 0.000000 0.000000 1.928320 
# 
# From -- ./inp_files/4406.got.cif
#   From: 2010.05.17/outbox.cif.g08.bks.cpg/sg52_3_cif.got.tgz:4406.got - 2010.06.03 12:15:38.
