data_PCOD9409287
_publ_section_title
;
Structure prediction by ZEFSAII (Michael W. Deem and Ramdas Pophale) SiO2 
 PCOD9409287
Probable space group: P N N A
;
_chemical_formula_sum "Si O2"
_cell_formula_units_Z 36
_cell_length_a 24.813438
_cell_length_b 8.445062
_cell_length_c 8.178094
_cell_angle_alpha 90.000000
_cell_angle_beta 90.000000
_cell_angle_gamma 90.000000
_cell_volume 1713.727959
_symmetry_space_group_name_H-M "P N N A"
_symmetry_group_IT_number 52
_symmetry_cell_setting 'orthorhombic'
loop_
_space_group_symop_operation_xyz
x,y,z
1/2-x,-y,z
x,1/2-y,1/2-z
1/2-x,1/2+y,1/2-z
-x,-y,-z
1/2+x,y,-z
-x,1/2+y,1/2+z
1/2+x,1/2-y,1/2+z
loop_
_atom_site_type_symbol
_atom_site_label
_atom_site_fract_x
_atom_site_fract_y
_atom_site_fract_z
Si Si1 0.325774 0.750000 0.750000
Si Si2 0.601828 0.921138 0.713690
Si Si3 0.637391 0.750000 0.250000
Si Si4 0.502016 0.750000 0.750000
Si Si5 0.694153 0.983560 0.487853
Si Si6 0.412690 0.547499 0.572870
O O1 0.295835 0.884237 0.650685
O O2 0.363663 0.661463 0.620729
O O3 0.630023 0.750000 0.750000
O O4 0.543840 0.860267 0.647342
O O5 0.641423 0.016496 0.597798
O O6 0.588688 0.007731 0.882398
O O7 0.674935 0.673345 0.109444
O O8 0.600197 0.612888 0.326846
O O9 0.465370 0.638704 0.637468
O O10 0.750000 0.000000 0.586734
#
# Coordination Sequence:
#
# PCOD9409287 Si02
#       6
#     4   8   4   4   8   8
#     4   9  23  40  62  90 116 164 215 247 306 380
#     4  10  21  38  61  95 125 155 206 255 312 364
#     4  10  19  38  65  86 127 162 207 254 300 386
#     4   9  20  38  67  90 125 162 212 247 316 370
#     4  11  22  41  62  91 123 167 208 259 311 359
#     4  10  19  40  61  91 127 161 204 258 308 368
#
# _framework density 21.006836
#
# number of rings (size 3 to 8) (size 9 to 14) (size 15 to 20)
#    0.667    1.333    2.222    1.333    0.000    0.889 
#    4.000   21.111    0.000    0.000    0.000    0.000 
#    0.000    0.000    0.000    0.000    0.000    0.000 
#
# Total GULP energy -200522.492893 kJ/mol
# GULP energy per Si atom -5570.069247 kJ/mol
# Density = 2.095902 g / cm^3
# Si number density = 21.006836 Si / 1000 Ang^3
#
#
#
# Elastic Constant Matrix: (Units=GPa)
#
#
# Indices 1 2 3 4 5 6 
#
# 1 137.0474 40.3569 51.9383 0.0000 0.0000 0.0000
# 2 40.3569 101.1212 42.2922 0.0000 0.0000 0.0000
# 3 51.9383 42.2922 81.0254 0.0000 0.0000 0.0000
# 4 0.0000 0.0000 0.0000 27.8973 0.0000 0.0000
# 5 0.0000 0.0000 0.0000 0.0000 -2.1618 0.0000
# 6 0.0000 0.0000 0.0000 0.0000 0.0000 24.5537
#
#
#
# Elastic Compliance Matrix: (Units=1/GPa)
#
#
# Indices 1 2 3 4 5 6 
#
# 1 0.009849 -0.001651 -0.005452 0.000000 0.000000 0.000000
# 2 -0.001651 0.012927 -0.005690 0.000000 0.000000 0.000000
# 3 -0.005452 -0.005690 0.018806 0.000000 0.000000 0.000000
# 4 0.000000 0.000000 0.000000 0.035846 0.000000 0.000000
# 5 0.000000 0.000000 0.000000 0.000000 -0.462571 0.000000
# 6 0.000000 0.000000 0.000000 0.000000 0.000000 0.040727
#
#
# Mechanical properties :
#
#
# Convention : Reuss Voigt Hill
#
# Bulk Modulus (GPa) = 62.50492 65.37429 63.93961
# Shear Modulus (GPa) = -15.94901 22.36493 3.20796
#
# Velocity S-wave (km/s) = -2.75840 3.26644 1.23710
# Velocity P-wave (km/s) = 4.43555 6.73901 5.70475
#
# Compressibility (1/GPa) = 0.01599874
#
# Stress axis : x y z
#
# Youngs Moduli (GPa) = 101.53428 77.35490 53.17395
#
# Poissons Ratio (x) = 0.12768 0.28989
# Poissons Ratio (y) = 0.16759 0.30254
# Poissons Ratio (z) = 0.55354 0.44012
#
# Static dielectric constant tensor:
#      x y z
#    x 1.791200 0.000000 0.000000 
#    y 0.000000 0.724020 0.000000 
#    z 0.000000 0.000000 1.768400 
# 
# From -- ./inp_files/14772.got.cif
#   From: 2010.05.17/outbox.cif.g08.bks.cpg/sg52_8_cif.got.tgz:14772.got - 2010.06.03 12:15:38.
