data_PCOD9409465
_publ_section_title
;
Structure prediction by ZEFSAII (Michael W. Deem and Ramdas Pophale) SiO2 
 PCOD9409465
Probable space group: P N N A
;
_chemical_formula_sum "Si O2"
_cell_formula_units_Z 32
_cell_length_a 4.880265
_cell_length_b 14.736346
_cell_length_c 22.281128
_cell_angle_alpha 90.000000
_cell_angle_beta 90.000000
_cell_angle_gamma 90.000000
_cell_volume 1602.397979
_symmetry_space_group_name_H-M "P N N A"
_symmetry_group_IT_number 52
_symmetry_cell_setting 'orthorhombic'
loop_
_space_group_symop_operation_xyz
x,y,z
1/2-x,-y,z
x,1/2-y,1/2-z
1/2-x,1/2+y,1/2-z
-x,-y,-z
1/2+x,y,-z
-x,1/2+y,1/2+z
1/2+x,1/2-y,1/2+z
loop_
_atom_site_type_symbol
_atom_site_label
_atom_site_fract_x
_atom_site_fract_y
_atom_site_fract_z
Si Si1 0.981915 0.058888 0.267934
Si Si2 0.374108 0.775545 0.355350
Si Si3 0.822876 0.401236 0.959212
Si Si4 0.635811 0.313055 0.309238
O O1 0.096753 0.143639 0.306237
O O2 0.750000 0.000000 0.303397
O O3 0.707045 0.901900 0.213875
O O4 0.250000 0.000000 0.252305
O O5 0.258780 0.822478 0.414216
O O6 0.674285 0.733460 0.359262
O O7 0.172654 0.696102 0.331972
O O8 0.750000 0.500000 0.931688
O O9 0.633718 0.396932 0.018759
O O10 0.641182 0.250000 0.250000
#
# Coordination Sequence:
#
# PCOD9409465 Si02
#       4
#     8   8   8   8
#     4  11  21  33  52  77 106 138 175 211 252 311
#     4  11  20  34  52  71 104 143 172 203 256 303
#     4  10  21  34  49  72 101 132 172 215 245 285
#     4  10  20  33  49  73 103 135 171 210 250 304
#
# _framework density 19.970071999999998
#
# number of rings (size 3 to 8) (size 9 to 14) (size 15 to 20)
#    0.000    1.500    0.000    9.000    0.000    3.000 
#    0.000    0.000    0.000    0.000    0.000    0.000 
#    0.000   70.000    0.000    0.000    0.000    0.000 
#
# Total GULP energy -178536.050949 kJ/mol
# GULP energy per Si atom -5579.251592 kJ/mol
# Density = 1.992462 g / cm^3
# Si number density = 19.970072 Si / 1000 Ang^3
#
#
#
# Elastic Constant Matrix: (Units=GPa)
#
#
# Indices 1 2 3 4 5 6 
#
# 1 121.6435 21.3919 3.1254 0.0000 0.0000 0.0000
# 2 21.3919 52.5633 7.7976 0.0000 0.0000 0.0000
# 3 3.1254 7.7976 27.1172 0.0000 0.0000 0.0000
# 4 0.0000 0.0000 0.0000 19.1579 0.0000 0.0000
# 5 0.0000 0.0000 0.0000 0.0000 18.3827 0.0000
# 6 0.0000 0.0000 0.0000 0.0000 0.0000 43.5169
#
#
#
# Elastic Compliance Matrix: (Units=1/GPa)
#
#
# Indices 1 2 3 4 5 6 
#
# 1 0.008854 -0.003606 0.000016 0.000000 0.000000 0.000000
# 2 -0.003606 0.021341 -0.005721 0.000000 0.000000 0.000000
# 3 0.000016 -0.005721 0.038520 0.000000 0.000000 0.000000
# 4 0.000000 0.000000 0.000000 0.052198 0.000000 0.000000
# 5 0.000000 0.000000 0.000000 0.000000 0.054399 0.000000
# 6 0.000000 0.000000 0.000000 0.000000 0.000000 0.022980
#
#
# Mechanical properties :
#
#
# Convention : Reuss Voigt Hill
#
# Bulk Modulus (GPa) = 19.96236 29.55044 24.75640
# Shear Modulus (GPa) = 21.40311 27.47879 24.44095
#
# Velocity S-wave (km/s) = 3.27733 3.71347 3.50219
# Velocity P-wave (km/s) = 4.93346 5.76333 5.36446
#
# Compressibility (1/GPa) = 0.05009427
#
# Stress axis : x y z
#
# Youngs Moduli (GPa) = 112.93745 46.85838 25.96045
#
# Poissons Ratio (x) = 0.16897 -0.00043
# Poissons Ratio (y) = 0.40725 0.14852
# Poissons Ratio (z) = -0.00185 0.26808
#
# Static dielectric constant tensor:
#      x y z
#    x 1.719190 0.000000 0.000000 
#    y 0.000000 1.800090 0.000000 
#    z 0.000000 0.000000 1.696010 
# 
# From -- ./inp_files/34814.got.cif
#   From: 2010.05.17/outbox.cif.g08.bks.cpg/sg52_18_cif.got.tgz:34814.got - 2010.06.03 12:15:38.
