data_PCOD9409512
_publ_section_title
;
Structure prediction by ZEFSAII (Michael W. Deem and Ramdas Pophale) SiO2 
 PCOD9409512
Probable space group: P N N A
;
_chemical_formula_sum "Si O2"
_cell_formula_units_Z 52
_cell_length_a 13.564179
_cell_length_b 5.751874
_cell_length_c 25.967341
_cell_angle_alpha 90.000000
_cell_angle_beta 90.000000
_cell_angle_gamma 90.000000
_cell_volume 2025.957624
_symmetry_space_group_name_H-M "P N N A"
_symmetry_group_IT_number 52
_symmetry_cell_setting 'orthorhombic'
loop_
_space_group_symop_operation_xyz
x,y,z
1/2-x,-y,z
x,1/2-y,1/2-z
1/2-x,1/2+y,1/2-z
-x,-y,-z
1/2+x,y,-z
-x,1/2+y,1/2+z
1/2+x,1/2-y,1/2+z
loop_
_atom_site_type_symbol
_atom_site_label
_atom_site_fract_x
_atom_site_fract_y
_atom_site_fract_z
Si Si1 0.915926 0.377999 0.864099
Si Si2 0.624294 0.595271 0.385855
Si Si3 0.637109 0.502624 0.265503
Si Si4 0.250000 0.500000 0.462303
Si Si5 0.360285 0.098072 0.484613
Si Si6 0.108506 0.368116 0.373165
Si Si7 0.381961 0.902805 0.588366
O O1 0.880047 0.625778 0.842320
O O2 0.034009 0.382568 0.867364
O O3 0.878856 0.123364 0.847031
O O4 0.891362 0.395588 0.925331
O O5 0.642023 0.532901 0.326470
O O6 0.504975 0.624519 0.393287
O O7 0.656024 0.359187 0.413699
O O8 0.667484 0.851063 0.397109
O O9 0.750000 0.500000 0.243728
O O10 0.593670 0.250000 0.250000
O O11 0.588604 0.750000 0.250000
O O12 0.333991 0.367981 0.494245
O O13 0.183396 0.356702 0.421155
O O14 0.250000 0.000000 0.489513
O O15 0.416003 0.964845 0.529866
#
# Coordination Sequence:
#
# PCOD9409512 Si02
#       7
#     8   8   8   4   8   8   8
#     4   9  18  34  46  67  92 136 180 223 262 296
#     4  10  21  38  54  80 106 132 171 212 265 322
#     4  10  21  38  63  86 108 133 161 202 260 325
#     4  10  20  34  48  72 104 142 192 226 252 298
#     4  11  21  31  47  67  99 139 190 226 259 290
#     4   9  18  32  53  71 100 136 174 222 260 295
#     4  10  22  33  51  70 104 139 174 218 263 298
#
# _framework density 25.666874
#
# number of rings (size 3 to 8) (size 9 to 14) (size 15 to 20)
#    0.000    2.154    1.538    1.385    2.154    1.231 
#    0.000    6.154    0.000    0.000    0.000    1.077 
#    0.000    0.000    0.000    0.000    0.000    0.000 
#
# Total GULP energy -289609.976540 kJ/mol
# GULP energy per Si atom -5569.422626 kJ/mol
# Density = 2.560846 g / cm^3
# Si number density = 25.666874 Si / 1000 Ang^3
#
#
#
# Elastic Constant Matrix: (Units=GPa)
#
#
# Indices 1 2 3 4 5 6 
#
# 1 45.7411 28.3144 17.8113 0.0000 0.0000 0.0000
# 2 28.3144 302.1201 24.3009 0.0000 0.0000 0.0000
# 3 17.8113 24.3009 25.3575 0.0000 0.0000 0.0000
# 4 0.0000 0.0000 0.0000 20.5361 0.0000 0.0000
# 5 0.0000 0.0000 0.0000 0.0000 10.1088 0.0000
# 6 0.0000 0.0000 0.0000 0.0000 0.0000 35.4885
#
#
#
# Elastic Compliance Matrix: (Units=1/GPa)
#
#
# Indices 1 2 3 4 5 6 
#
# 1 0.030509 -0.001230 -0.020251 0.000000 0.000000 0.000000
# 2 -0.001230 0.003636 -0.002620 0.000000 0.000000 0.000000
# 3 -0.020251 -0.002620 0.056172 0.000000 0.000000 0.000000
# 4 0.000000 0.000000 0.000000 0.048695 0.000000 0.000000
# 5 0.000000 0.000000 0.000000 0.000000 0.098924 0.000000
# 6 0.000000 0.000000 0.000000 0.000000 0.000000 0.028178
#
#
# Mechanical properties :
#
#
# Convention : Reuss Voigt Hill
#
# Bulk Modulus (GPa) = 23.74517 57.11910 40.43214
# Shear Modulus (GPa) = 15.22743 33.41280 24.32011
#
# Velocity S-wave (km/s) = 2.43836 3.61194 3.08154
# Velocity P-wave (km/s) = 4.14715 6.30057 5.33367
#
# Compressibility (1/GPa) = 0.04211382
#
# Stress axis : x y z
#
# Youngs Moduli (GPa) = 32.77673 275.02625 17.80259
#
# Poissons Ratio (x) = 0.33840 0.36052
# Poissons Ratio (y) = 0.04033 0.04665
# Poissons Ratio (z) = 0.66376 0.72064
#
# Static dielectric constant tensor:
#      x y z
#    x 2.131650 0.000000 0.000000 
#    y 0.000000 2.299040 0.000000 
#    z 0.000000 0.000000 1.964570 
# 
# From -- ./inp_files/43173.got.cif
#   From: 2010.05.17/outbox.cif.g08.bks.cpg/sg52_22_cif.got.tgz:43173.got - 2010.06.03 12:15:38.
