data_PCOD9409253
_publ_section_title
;
Structure prediction by ZEFSAII (Michael W. Deem and Ramdas Pophale) SiO2 
 PCOD9409253
Probable space group: P N N A
;
_chemical_formula_sum "Si O2"
_cell_formula_units_Z 60
_cell_length_a 20.510582
_cell_length_b 12.245903
_cell_length_c 10.636834
_cell_angle_alpha 90.000000
_cell_angle_beta 90.000000
_cell_angle_gamma 90.000000
_cell_volume 2671.659953
_symmetry_space_group_name_H-M "P N N A"
_symmetry_group_IT_number 52
_symmetry_cell_setting 'orthorhombic'
loop_
_space_group_symop_operation_xyz
x,y,z
1/2-x,-y,z
x,1/2-y,1/2-z
1/2-x,1/2+y,1/2-z
-x,-y,-z
1/2+x,y,-z
-x,1/2+y,1/2+z
1/2+x,1/2-y,1/2+z
loop_
_atom_site_type_symbol
_atom_site_label
_atom_site_fract_x
_atom_site_fract_y
_atom_site_fract_z
Si Si1 0.318801 0.681849 0.070736
Si Si2 0.946771 0.641172 0.054763
Si Si3 0.382038 0.082668 0.630477
Si Si4 0.583735 0.731052 0.890660
Si Si5 0.433585 0.020035 0.075616
Si Si6 0.250000 0.500000 0.901526
Si Si7 0.305858 0.909588 0.152073
Si Si8 0.491134 0.627713 0.220501
O O1 0.281785 0.794948 0.094519
O O2 0.330310 0.625156 0.207221
O O3 0.385478 0.711420 0.995929
O O4 0.281801 0.592205 0.989648
O O5 0.913237 0.537929 0.116879
O O6 0.007639 0.694490 0.125015
O O7 0.979141 0.605880 0.924544
O O8 0.385166 0.148710 0.495458
O O9 0.430668 0.132998 0.732701
O O10 0.308046 0.061233 0.670112
O O11 0.613003 0.750000 0.750000
O O12 0.581517 0.853451 0.942067
O O13 0.365044 0.956221 0.067500
O O14 0.458204 0.972018 0.208849
O O15 0.500000 0.000000 0.000000
O O16 0.250000 0.000000 0.163942
O O17 0.465867 0.750000 0.250000
#
# Coordination Sequence:
#
# PCOD9409253 Si02
#       8
#     8   8   8   8   8   4   8   8
#     4  10  20  37  60  81 118 161 206 238 299 379
#     4  10  19  38  59  87 115 164 201 246 301 377
#     4  10  22  39  61  86 121 162 209 251 304 372
#     4  11  22  33  58  91 125 144 193 260 309 347
#     4  12  24  38  60  92 123 160 200 250 312 375
#     4  10  22  38  62  84 112 156 216 250 292 358
#     4  11  23  37  57  88 126 161 194 248 317 371
#     4  11  20  37  63  86 117 159 207 251 307 372
#
# _framework density 22.457947999999998
#
# number of rings (size 3 to 8) (size 9 to 14) (size 15 to 20)
#    0.000    1.333    2.000    6.400    3.733    0.000 
#    0.000    0.000    1.467    6.400    0.000    0.000 
#    0.000    0.000    0.000    0.000    0.000    0.000 
#
# Total GULP energy -334344.915287 kJ/mol
# GULP energy per Si atom -5572.415255 kJ/mol
# Density = 2.240683 g / cm^3
# Si number density = 22.457948 Si / 1000 Ang^3
#
#
#
# Elastic Constant Matrix: (Units=GPa)
#
#
# Indices 1 2 3 4 5 6 
#
# 1 98.0238 30.4318 -8.4497 0.0000 0.0000 0.0000
# 2 30.4318 118.7012 1.5281 0.0000 0.0000 0.0000
# 3 -8.4497 1.5281 18.2753 0.0000 0.0000 0.0000
# 4 0.0000 0.0000 0.0000 25.4936 0.0000 0.0000
# 5 0.0000 0.0000 0.0000 0.0000 16.6253 0.0000
# 6 0.0000 0.0000 0.0000 0.0000 0.0000 35.6887
#
#
#
# Elastic Compliance Matrix: (Units=1/GPa)
#
#
# Indices 1 2 3 4 5 6 
#
# 1 0.011636 -0.003056 0.005636 0.000000 0.000000 0.000000
# 2 -0.003056 0.009236 -0.002185 0.000000 0.000000 0.000000
# 3 0.005636 -0.002185 0.057507 0.000000 0.000000 0.000000
# 4 0.000000 0.000000 0.000000 0.039226 0.000000 0.000000
# 5 0.000000 0.000000 0.000000 0.000000 0.060149 0.000000
# 6 0.000000 0.000000 0.000000 0.000000 0.000000 0.028020
#
#
# Mechanical properties :
#
#
# Convention : Reuss Voigt Hill
#
# Bulk Modulus (GPa) = 12.63130 31.33564 21.98347
# Shear Modulus (GPa) = 21.61001 29.66084 25.63543
#
# Velocity S-wave (km/s) = 3.10537 3.63812 3.38225
# Velocity P-wave (km/s) = 4.30051 5.62417 5.00628
#
# Compressibility (1/GPa) = 0.07916843
#
# Stress axis : x y z
#
# Youngs Moduli (GPa) = 85.93982 108.27141 17.38919
#
# Poissons Ratio (x) = 0.33085 -0.09800
# Poissons Ratio (y) = 0.26261 0.03800
# Poissons Ratio (z) = -0.48431 0.23659
#
# Static dielectric constant tensor:
#      x y z
#    x 1.966800 0.000000 0.000000 
#    y 0.000000 1.880660 0.000000 
#    z 0.000000 0.000000 1.845450 
# 
# From -- ./inp_files/21752.got.cif
#   From: 2010.05.17/outbox.cif.g08.bks.cpg/sg52_11_cif.got.tgz:21752.got - 2010.06.03 12:15:38.
