data_PCOD9409403
_publ_section_title
;
Structure prediction by ZEFSAII (Michael W. Deem and Ramdas Pophale) SiO2 
 PCOD9409403
Probable space group: P N N A
;
_chemical_formula_sum "Si O2"
_cell_formula_units_Z 40
_cell_length_a 9.123397
_cell_length_b 18.594600
_cell_length_c 9.202478
_cell_angle_alpha 90.000000
_cell_angle_beta 90.000000
_cell_angle_gamma 90.000000
_cell_volume 1561.162827
_symmetry_space_group_name_H-M "P N N A"
_symmetry_group_IT_number 52
_symmetry_cell_setting 'orthorhombic'
loop_
_space_group_symop_operation_xyz
x,y,z
1/2-x,-y,z
x,1/2-y,1/2-z
1/2-x,1/2+y,1/2-z
-x,-y,-z
1/2+x,y,-z
-x,1/2+y,1/2+z
1/2+x,1/2-y,1/2+z
loop_
_atom_site_type_symbol
_atom_site_label
_atom_site_fract_x
_atom_site_fract_y
_atom_site_fract_z
Si Si1 0.116249 0.750000 0.250000
Si Si2 0.750000 0.000000 0.253061
Si Si3 0.133049 0.147451 0.270283
Si Si4 0.500000 0.500000 0.500000
Si Si5 0.643507 0.207261 0.057742
Si Si6 0.301976 0.347177 0.828317
Si Si7 0.250000 0.000000 0.205947
O O1 0.224314 0.808746 0.316555
O O2 0.015310 0.788080 0.131893
O O3 0.890104 0.998702 0.145675
O O4 0.736610 0.929578 0.354666
O O5 0.167843 0.064022 0.286114
O O6 0.976220 0.166951 0.338730
O O7 0.125037 0.170110 0.098386
O O8 0.369111 0.465316 0.401529
O O9 0.706434 0.287597 0.089205
O O10 0.752751 0.161833 0.159303
#
# Coordination Sequence:
#
# PCOD9409403 Si02
#       7
#     4   4   8   4   8   8   4
#     4  10  24  36  62  90 122 170 216 252 310 390
#     4  11  20  34  56  91 126 160 209 260 322 385
#     4  12  23  41  62  94 131 163 211 261 321 386
#     4  10  20  30  50  90 122 154 190 256 332 362
#     4  10  23  39  59  88 125 173 209 252 319 379
#     4  10  22  37  59  87 129 167 203 252 317 379
#     4  11  24  32  62  93 120 158 199 268 336 371
#
# _framework density 25.621926999999999
#
# number of rings (size 3 to 8) (size 9 to 14) (size 15 to 20)
#    0.000    1.600    2.000    4.800    8.400    0.000 
#    0.000    0.000    0.000    1.200    0.000   18.200 
#    0.000    0.000    0.000    0.000    0.000    0.000 
#
# Total GULP energy -222713.206790 kJ/mol
# GULP energy per Si atom -5567.830170 kJ/mol
# Density = 2.556361 g / cm^3
# Si number density = 25.621927 Si / 1000 Ang^3
#
#
#
# Elastic Constant Matrix: (Units=GPa)
#
#
# Indices 1 2 3 4 5 6 
#
# 1 161.4227 37.8200 14.9130 0.0000 0.0000 0.0000
# 2 37.8200 160.9952 -4.3751 0.0000 0.0000 0.0000
# 3 14.9130 -4.3751 74.7420 0.0000 0.0000 0.0000
# 4 0.0000 0.0000 0.0000 9.4475 0.0000 0.0000
# 5 0.0000 0.0000 0.0000 0.0000 4.3643 0.0000
# 6 0.0000 0.0000 0.0000 0.0000 0.0000 26.1205
#
#
#
# Elastic Compliance Matrix: (Units=1/GPa)
#
#
# Indices 1 2 3 4 5 6 
#
# 1 0.006705 -0.001614 -0.001432 0.000000 0.000000 0.000000
# 2 -0.001614 0.006610 0.000709 0.000000 0.000000 0.000000
# 3 -0.001432 0.000709 0.013707 0.000000 0.000000 0.000000
# 4 0.000000 0.000000 0.000000 0.105848 0.000000 0.000000
# 5 0.000000 0.000000 0.000000 0.000000 0.229134 0.000000
# 6 0.000000 0.000000 0.000000 0.000000 0.000000 0.038284
#
#
# Mechanical properties :
#
#
# Convention : Reuss Voigt Hill
#
# Bulk Modulus (GPa) = 44.74911 54.87508 49.81210
# Shear Modulus (GPa) = 12.12380 31.23993 21.68186
#
# Velocity S-wave (km/s) = 2.17763 3.49559 2.91215
# Velocity P-wave (km/s) = 4.88117 6.14458 5.54895
#
# Compressibility (1/GPa) = 0.02234681
#
# Stress axis : x y z
#
# Youngs Moduli (GPa) = 149.13303 151.29019 72.95723
#
# Poissons Ratio (x) = 0.24420 0.10450
# Poissons Ratio (y) = 0.24072 -0.05173
# Poissons Ratio (z) = 0.21362 -0.10726
#
# Static dielectric constant tensor:
#      x y z
#    x 1.962450 0.000000 0.000000 
#    y 0.000000 2.181300 0.000000 
#    z 0.000000 0.000000 2.175050 
# 
# From -- ./inp_files/16857.got.cif
#   From: 2010.05.17/outbox.cif.g08.bks.cpg/sg52_9_cif.got.tgz:16857.got - 2010.06.03 12:15:38.
