data_PCOD9409016
_publ_section_title
;
Structure prediction by ZEFSAII (Michael W. Deem and Ramdas Pophale) SiO2 
 PCOD9409016
Probable space group: P N N A
;
_chemical_formula_sum "Si O2"
_cell_formula_units_Z 60
_cell_length_a 5.455670
_cell_length_b 16.647158
_cell_length_c 30.405328
_cell_angle_alpha 90.000000
_cell_angle_beta 90.000000
_cell_angle_gamma 90.000000
_cell_volume 2761.454471
_symmetry_space_group_name_H-M "P N N A"
_symmetry_group_IT_number 52
_symmetry_cell_setting 'orthorhombic'
loop_
_space_group_symop_operation_xyz
x,y,z
1/2-x,-y,z
x,1/2-y,1/2-z
1/2-x,1/2+y,1/2-z
-x,-y,-z
1/2+x,y,-z
-x,1/2+y,1/2+z
1/2+x,1/2-y,1/2+z
loop_
_atom_site_type_symbol
_atom_site_label
_atom_site_fract_x
_atom_site_fract_y
_atom_site_fract_z
Si Si1 0.408848 0.619263 0.607347
Si Si2 0.742260 0.594146 0.824682
Si Si3 0.755625 0.095392 0.271292
Si Si4 0.779150 0.763723 0.616869
Si Si5 0.655014 0.396490 0.487313
Si Si6 0.467867 0.348975 0.684119
Si Si7 0.931400 0.715010 0.979327
Si Si8 0.250000 0.000000 0.154608
O O1 0.585405 0.696389 0.601045
O O2 0.261328 0.605101 0.563063
O O3 0.233831 0.637490 0.647261
O O4 0.555815 0.541595 0.622758
O O5 0.750000 0.500000 0.835893
O O6 0.514792 0.610362 0.791223
O O7 0.688012 0.650671 0.866183
O O8 0.015268 0.607731 0.804555
O O9 0.828227 0.151254 0.230155
O O10 0.750000 0.000000 0.258349
O O11 0.944712 0.780980 0.573804
O O12 0.885547 0.724471 0.662183
O O13 0.381594 0.431134 0.486168
O O14 0.596186 0.307422 0.504920
O O15 0.641001 0.427931 0.683672
O O16 0.673794 0.679512 0.997483
#
# Coordination Sequence:
#
# PCOD9409016 Si02
#       8
#     8   8   8   8   8   8   8   4
#     4  11  22  38  61  89 126 163 216 269 323 373
#     4  10  25  46  67  95 130 174 210 261 334 400
#     4  10  23  44  69  88 128 172 214 255 321 389
#     4  11  24  39  66  97 129 165 219 277 323 382
#     4  10  19  35  57  82 117 161 210 255 313 381
#     4  11  24  40  65  93 125 175 219 271 314 378
#     4  10  19  35  60  91 123 167 210 257 326 391
#     4  10  24  38  58  92 122 170 218 262 322 374
#
# _framework density 21.727681
#
# number of rings (size 3 to 8) (size 9 to 14) (size 15 to 20)
#    0.000    1.600    2.667    2.800   10.267    0.533 
#    0.000    0.667    0.000    0.800    0.000    0.000 
#    0.000    0.000    0.000    0.000    0.000    0.000 
#
# Total GULP energy -334787.659750 kJ/mol
# GULP energy per Si atom -5579.794329 kJ/mol
# Density = 2.167823 g / cm^3
# Si number density = 21.727681 Si / 1000 Ang^3
#
#
#
# Elastic Constant Matrix: (Units=GPa)
#
#
# Indices 1 2 3 4 5 6 
#
# 1 88.0986 7.2323 -3.9362 0.0000 0.0000 0.0000
# 2 7.2323 55.2822 29.7077 0.0000 0.0000 0.0000
# 3 -3.9362 29.7077 50.5121 0.0000 0.0000 0.0000
# 4 0.0000 0.0000 0.0000 15.8230 0.0000 0.0000
# 5 0.0000 0.0000 0.0000 0.0000 16.4762 0.0000
# 6 0.0000 0.0000 0.0000 0.0000 0.0000 7.1101
#
#
#
# Elastic Compliance Matrix: (Units=1/GPa)
#
#
# Indices 1 2 3 4 5 6 
#
# 1 0.011712 -0.002957 0.002652 0.000000 0.000000 0.000000
# 2 -0.002957 0.027195 -0.016224 0.000000 0.000000 0.000000
# 3 0.002652 -0.016224 0.029546 0.000000 0.000000 0.000000
# 4 0.000000 0.000000 0.000000 0.063199 0.000000 0.000000
# 5 0.000000 0.000000 0.000000 0.000000 0.060694 0.000000
# 6 0.000000 0.000000 0.000000 0.000000 0.000000 0.140645
#
#
# Mechanical properties :
#
#
# Convention : Reuss Voigt Hill
#
# Bulk Modulus (GPa) = 28.25405 28.87783 28.56594
# Shear Modulus (GPa) = 13.23284 18.60779 15.92032
#
# Velocity S-wave (km/s) = 2.47053 2.92962 2.70982
# Velocity P-wave (km/s) = 4.60109 4.97627 4.79235
#
# Compressibility (1/GPa) = 0.03539316
#
# Stress axis : x y z
#
# Youngs Moduli (GPa) = 85.38112 36.77196 33.84557
#
# Poissons Ratio (x) = 0.10875 -0.08976
# Poissons Ratio (y) = 0.25250 0.54913
# Poissons Ratio (z) = -0.22643 0.59660
#
# Static dielectric constant tensor:
#      x y z
#    x 1.977150 0.000000 0.000000 
#    y 0.000000 1.937670 0.000000 
#    z 0.000000 0.000000 1.783230 
# 
# From -- ./inp_files/41821.got.cif
#   From: 2010.05.17/outbox.cif.g08.bks.cpg/sg52_21_cif.got.tgz:41821.got - 2010.06.03 12:15:38.
