data_PCOD9409464
_publ_section_title
;
Structure prediction by ZEFSAII (Michael W. Deem and Ramdas Pophale) SiO2 
 PCOD9409464
Probable space group: P N N A
;
_chemical_formula_sum "Si O2"
_cell_formula_units_Z 36
_cell_length_a 12.478600
_cell_length_b 8.342143
_cell_length_c 15.662043
_cell_angle_alpha 90.000000
_cell_angle_beta 90.000000
_cell_angle_gamma 90.000000
_cell_volume 1630.391513
_symmetry_space_group_name_H-M "P N N A"
_symmetry_group_IT_number 52
_symmetry_cell_setting 'orthorhombic'
loop_
_space_group_symop_operation_xyz
x,y,z
1/2-x,-y,z
x,1/2-y,1/2-z
1/2-x,1/2+y,1/2-z
-x,-y,-z
1/2+x,y,-z
-x,1/2+y,1/2+z
1/2+x,1/2-y,1/2+z
loop_
_atom_site_type_symbol
_atom_site_label
_atom_site_fract_x
_atom_site_fract_y
_atom_site_fract_z
Si Si1 0.573185 0.616843 0.441725
Si Si2 0.030292 0.083554 0.345253
Si Si3 0.093286 0.095712 0.792458
Si Si4 0.292064 0.750000 0.250000
Si Si5 0.885826 0.252710 0.889660
O O1 0.500000 0.500000 0.500000
O O2 0.502640 0.756326 0.395688
O O3 0.632334 0.515722 0.369190
O O4 0.643037 0.694768 0.515934
O O5 0.126619 0.112152 0.278127
O O6 0.073431 0.935414 0.400157
O O7 0.934229 0.019901 0.286521
O O8 0.150072 0.250000 0.750000
O O9 0.984024 0.168293 0.837249
O O10 0.216191 0.773592 0.169605
#
# Coordination Sequence:
#
# PCOD9409464 Si02
#       5
#     8   8   8   4   8
#     4  10  20  33  46  74 113 146 182 232 275 329
#     4  11  19  33  54  76 109 152 182 217 284 339
#     4   9  17  33  51  74 102 146 188 223 273 335
#     4  12  20  32  58  84 114 150 184 222 290 348
#     4  10  21  31  49  78 117 141 185 227 278 332
#
# _framework density 22.080587999999999
#
# number of rings (size 3 to 8) (size 9 to 14) (size 15 to 20)
#    0.000    1.778    5.556    1.333    0.000    0.000 
#    0.000    0.000    0.000    0.000    0.000    0.000 
#    6.667   28.444    0.000    0.000    0.000    0.000 
#
# Total GULP energy -200640.513949 kJ/mol
# GULP energy per Si atom -5573.347610 kJ/mol
# Density = 2.203033 g / cm^3
# Si number density = 22.080588 Si / 1000 Ang^3
#
#
#
# Elastic Constant Matrix: (Units=GPa)
#
#
# Indices 1 2 3 4 5 6 
#
# 1 40.7854 26.9125 17.3750 0.0000 0.0000 0.0000
# 2 26.9125 131.3703 85.4574 0.0000 0.0000 0.0000
# 3 17.3750 85.4574 168.4496 0.0000 0.0000 0.0000
# 4 0.0000 0.0000 0.0000 60.7312 0.0000 0.0000
# 5 0.0000 0.0000 0.0000 0.0000 -3.0149 0.0000
# 6 0.0000 0.0000 0.0000 0.0000 0.0000 -1.5201
#
#
#
# Elastic Compliance Matrix: (Units=1/GPa)
#
#
# Indices 1 2 3 4 5 6 
#
# 1 0.028351 -0.005830 0.000033 0.000000 0.000000 0.000000
# 2 -0.005830 0.012560 -0.005771 0.000000 0.000000 0.000000
# 3 0.000033 -0.005771 0.008861 0.000000 0.000000 0.000000
# 4 0.000000 0.000000 0.000000 0.016466 0.000000 0.000000
# 5 0.000000 0.000000 0.000000 0.000000 -0.331683 0.000000
# 6 0.000000 0.000000 0.000000 0.000000 0.000000 -0.657864
#
#
# Mechanical properties :
#
#
# Convention : Reuss Voigt Hill
#
# Bulk Modulus (GPa) = 37.54076 66.67723 52.10900
# Shear Modulus (GPa) = -5.60981 25.29660 9.84339
#
# Velocity S-wave (km/s) = -1.59566 3.38842 2.11367
# Velocity P-wave (km/s) = 3.69375 6.75065 5.44128
#
# Compressibility (1/GPa) = 0.02663771
#
# Stress axis : x y z
#
# Youngs Moduli (GPa) = 35.27194 79.61653 112.85833
#
# Poissons Ratio (x) = 0.46413 -0.00374
# Poissons Ratio (y) = 0.20562 0.65127
# Poissons Ratio (z) = -0.00117 0.45944
#
# Static dielectric constant tensor:
#      x y z
#    x 1.797140 0.000000 0.000000 
#    y 0.000000 1.961380 0.000000 
#    z 0.000000 0.000000 1.810320 
# 
# From -- ./inp_files/26773.got.cif
#   From: 2010.05.17/outbox.cif.g08.bks.cpg/sg52_14_cif.got.tgz:26773.got - 2010.06.03 12:15:38.
