data_PCOD9409996
_publ_section_title
;
Structure prediction by ZEFSAII (Michael W. Deem and Ramdas Pophale) SiO2 
 PCOD9409996
Probable space group: P N N A
;
_chemical_formula_sum "Si O2"
_cell_formula_units_Z 48
_cell_length_a 11.197187
_cell_length_b 25.352581
_cell_length_c 8.303705
_cell_angle_alpha 90.000000
_cell_angle_beta 90.000000
_cell_angle_gamma 90.000000
_cell_volume 2357.235767
_symmetry_space_group_name_H-M "P N N A"
_symmetry_group_IT_number 52
_symmetry_cell_setting 'orthorhombic'
loop_
_space_group_symop_operation_xyz
x,y,z
1/2-x,-y,z
x,1/2-y,1/2-z
1/2-x,1/2+y,1/2-z
-x,-y,-z
1/2+x,y,-z
-x,1/2+y,1/2+z
1/2+x,1/2-y,1/2+z
loop_
_atom_site_type_symbol
_atom_site_label
_atom_site_fract_x
_atom_site_fract_y
_atom_site_fract_z
Si Si1 0.444216 0.597538 0.194097
Si Si2 0.606157 0.980386 0.119041
Si Si3 0.969645 0.548167 0.120173
Si Si4 0.447660 0.706881 0.387701
Si Si5 0.181542 0.705987 0.392013
Si Si6 0.803898 0.419092 0.672201
O O1 0.553527 0.564744 0.265287
O O2 0.447762 0.652112 0.289317
O O3 0.322044 0.569278 0.246427
O O4 0.441813 0.596373 0.000355
O O5 0.626416 0.028192 0.247063
O O6 0.693594 0.949634 0.997887
O O7 0.500000 0.000000 0.000000
O O8 0.087543 0.561308 0.219794
O O9 0.000000 0.500000 0.000000
O O10 0.456105 0.750000 0.250000
O O11 0.315443 0.712563 0.467871
O O12 0.563133 0.711772 0.500321
O O13 0.175744 0.750000 0.250000
O O14 0.181294 0.644240 0.340723
#
# Coordination Sequence:
#
# PCOD9409996 Si02
#       6
#     8   8   8   8   8   8
#     4  10  20  38  58  83 121 156 196 256 315 366
#     4   9  18  35  57  83 112 151 203 247 297 369
#     4   9  20  35  55  85 117 151 202 249 301 366
#     4  10  22  40  64  92 123 161 204 257 315 372
#     4  10  22  40  64  92 123 161 205 254 313 374
#     4  10  20  38  60  82 120 160 198 254 312 367
#
# _framework density 20.362832999999998
#
# number of rings (size 3 to 8) (size 9 to 14) (size 15 to 20)
#    0.000    2.333    1.667    0.000    2.333    6.667 
#    0.000   13.333    0.000    0.000    0.000    0.000 
#    0.000    0.000    0.000    0.000    0.000    0.000 
#
# Total GULP energy -267399.206196 kJ/mol
# GULP energy per Si atom -5570.816796 kJ/mol
# Density = 2.031649 g / cm^3
# Si number density = 20.362833 Si / 1000 Ang^3
#
#
#
# Elastic Constant Matrix: (Units=GPa)
#
#
# Indices 1 2 3 4 5 6 
#
# 1 138.2694 30.7540 64.6840 0.0000 0.0000 0.0000
# 2 30.7540 74.1138 26.6668 0.0000 0.0000 0.0000
# 3 64.6840 26.6668 122.0176 0.0000 0.0000 0.0000
# 4 0.0000 0.0000 0.0000 30.9494 0.0000 0.0000
# 5 0.0000 0.0000 0.0000 0.0000 18.7866 0.0000
# 6 0.0000 0.0000 0.0000 0.0000 0.0000 27.4214
#
#
#
# Elastic Compliance Matrix: (Units=1/GPa)
#
#
# Indices 1 2 3 4 5 6 
#
# 1 0.010006 -0.002435 -0.004772 0.000000 0.000000 0.000000
# 2 -0.002435 0.015237 -0.002039 0.000000 0.000000 0.000000
# 3 -0.004772 -0.002039 0.011171 0.000000 0.000000 0.000000
# 4 0.000000 0.000000 0.000000 0.032311 0.000000 0.000000
# 5 0.000000 0.000000 0.000000 0.000000 0.053229 0.000000
# 6 0.000000 0.000000 0.000000 0.000000 0.000000 0.036468
#
#
# Mechanical properties :
#
#
# Convention : Reuss Voigt Hill
#
# Bulk Modulus (GPa) = 55.79971 64.29004 60.04488
# Shear Modulus (GPa) = 27.33889 29.58456 28.46172
#
# Velocity S-wave (km/s) = 3.66811 3.81579 3.74268
# Velocity P-wave (km/s) = 6.73812 7.14524 6.94466
#
# Compressibility (1/GPa) = 0.01792124
#
# Stress axis : x y z
#
# Youngs Moduli (GPa) = 99.93520 65.63010 89.51624
#
# Poissons Ratio (x) = 0.15982 0.42721
# Poissons Ratio (y) = 0.24335 0.18253
# Poissons Ratio (z) = 0.47694 0.13383
#
# Static dielectric constant tensor:
#      x y z
#    x 1.821120 0.000000 0.000000 
#    y 0.000000 1.745770 0.000000 
#    z 0.000000 0.000000 1.727910 
# 
# From -- ./inp_files/8858.got.cif
#   From: 2010.05.17/outbox.cif.g08.bks.cpg/sg52_5_cif.got.tgz:8858.got - 2010.06.03 12:15:38.
