data_PCOD9409587
_publ_section_title
;
Structure prediction by ZEFSAII (Michael W. Deem and Ramdas Pophale) SiO2 
 PCOD9409587
Probable space group: P N N A
;
_chemical_formula_sum "Si O2"
_cell_formula_units_Z 60
_cell_length_a 11.870677
_cell_length_b 15.930640
_cell_length_c 16.517062
_cell_angle_alpha 90.000000
_cell_angle_beta 90.000000
_cell_angle_gamma 90.000000
_cell_volume 3123.500002
_symmetry_space_group_name_H-M "P N N A"
_symmetry_group_IT_number 52
_symmetry_cell_setting 'orthorhombic'
loop_
_space_group_symop_operation_xyz
x,y,z
1/2-x,-y,z
x,1/2-y,1/2-z
1/2-x,1/2+y,1/2-z
-x,-y,-z
1/2+x,y,-z
-x,1/2+y,1/2+z
1/2+x,1/2-y,1/2+z
loop_
_atom_site_type_symbol
_atom_site_label
_atom_site_fract_x
_atom_site_fract_y
_atom_site_fract_z
Si Si1 0.576021 0.084421 0.365570
Si Si2 0.809436 0.577981 0.667129
Si Si3 0.212753 0.698858 0.904818
Si Si4 0.096818 0.750000 0.750000
Si Si5 0.515221 0.114042 0.545564
Si Si6 0.310305 0.745265 0.433886
Si Si7 0.346463 0.167377 0.300568
Si Si8 0.999548 0.933486 0.714767
O O1 0.683653 0.144932 0.369031
O O2 0.550512 0.071077 0.461692
O O3 0.460766 0.125453 0.331981
O O4 0.593172 0.002764 0.308386
O O5 0.750000 0.500000 0.624465
O O6 0.829833 0.656762 0.609162
O O7 0.729102 0.610990 0.740324
O O8 0.920763 0.543624 0.711084
O O9 0.167004 0.755379 0.832120
O O10 0.116471 0.634451 0.938447
O O11 0.249470 0.755592 0.979942
O O12 0.031263 0.837082 0.734795
O O13 0.574751 0.204997 0.548980
O O14 0.560681 0.068824 0.626577
O O15 0.232409 0.800618 0.373791
O O16 0.378277 0.250000 0.250000
#
# Coordination Sequence:
#
# PCOD9409587 Si02
#       8
#     8   8   8   4   8   8   8   8
#     4  11  22  36  58  89 121 152 198 256 302 354
#     4  11  20  34  60  89 123 156 201 259 305 351
#     4  10  22  39  60  85 117 161 204 247 302 366
#     4  10  24  40  62  78 120 170 206 236 300 382
#     4  10  20  36  57  86 118 158 195 250 304 367
#     4  10  20  37  62  85 118 159 210 247 305 367
#     4  10  20  34  58  88 119 158 197 253 307 346
#     4  11  21  37  58  90 119 157 202 247 302 367
#
# _framework density 19.209219999999998
#
# number of rings (size 3 to 8) (size 9 to 14) (size 15 to 20)
#    0.000    1.600    4.000    2.000    1.867    2.133 
#    0.000    0.000    2.933    1.600    0.000    0.000 
#    0.000    0.000    0.000    0.000    0.000    0.000 
#
# Total GULP energy -334371.364272 kJ/mol
# GULP energy per Si atom -5572.856071 kJ/mol
# Density = 1.916550 g / cm^3
# Si number density = 19.209220 Si / 1000 Ang^3
#
#
#
# Elastic Constant Matrix: (Units=GPa)
#
#
# Indices 1 2 3 4 5 6 
#
# 1 53.9039 17.4295 15.5150 0.0000 0.0000 0.0000
# 2 17.4295 84.8691 29.2677 0.0000 0.0000 0.0000
# 3 15.5150 29.2677 73.3088 0.0000 0.0000 0.0000
# 4 0.0000 0.0000 0.0000 36.4668 0.0000 0.0000
# 5 0.0000 0.0000 0.0000 0.0000 24.7774 0.0000
# 6 0.0000 0.0000 0.0000 0.0000 0.0000 20.0489
#
#
#
# Elastic Compliance Matrix: (Units=1/GPa)
#
#
# Indices 1 2 3 4 5 6 
#
# 1 0.020452 -0.003140 -0.003075 0.000000 0.000000 0.000000
# 2 -0.003140 0.014146 -0.004983 0.000000 0.000000 0.000000
# 3 -0.003075 -0.004983 0.016281 0.000000 0.000000 0.000000
# 4 0.000000 0.000000 0.000000 0.027422 0.000000 0.000000
# 5 0.000000 0.000000 0.000000 0.000000 0.040359 0.000000
# 6 0.000000 0.000000 0.000000 0.000000 0.000000 0.049878
#
#
# Mechanical properties :
#
#
# Convention : Reuss Voigt Hill
#
# Bulk Modulus (GPa) = 35.10816 37.38960 36.24888
# Shear Modulus (GPa) = 24.94649 26.24991 25.59820
#
# Velocity S-wave (km/s) = 3.60762 3.70067 3.65444
# Velocity P-wave (km/s) = 5.97241 6.14545 6.05955
#
# Compressibility (1/GPa) = 0.02848341
#
# Stress axis : x y z
#
# Youngs Moduli (GPa) = 48.89550 70.69059 61.42057
#
# Poissons Ratio (x) = 0.22195 0.18886
# Poissons Ratio (y) = 0.15352 0.30607
# Poissons Ratio (z) = 0.15035 0.35227
#
# Static dielectric constant tensor:
#      x y z
#    x 1.721230 0.000000 0.000000 
#    y 0.000000 1.722250 0.000000 
#    z 0.000000 0.000000 1.651810 
# 
# From -- ./inp_files/32370.got.cif
#   From: 2010.05.17/outbox.cif.g08.bks.cpg/sg52_17_cif.got.tgz:32370.got - 2010.06.03 12:15:38.
