data_PCOD9409090
_publ_section_title
;
Structure prediction by ZEFSAII (Michael W. Deem and Ramdas Pophale) SiO2 
 PCOD9409090
Probable space group: P N N A
;
_chemical_formula_sum "Si O2"
_cell_formula_units_Z 36
_cell_length_a 11.039492
_cell_length_b 11.390901
_cell_length_c 11.819544
_cell_angle_alpha 90.000000
_cell_angle_beta 90.000000
_cell_angle_gamma 90.000000
_cell_volume 1486.304827
_symmetry_space_group_name_H-M "P N N A"
_symmetry_group_IT_number 52
_symmetry_cell_setting 'orthorhombic'
loop_
_space_group_symop_operation_xyz
x,y,z
1/2-x,-y,z
x,1/2-y,1/2-z
1/2-x,1/2+y,1/2-z
-x,-y,-z
1/2+x,y,-z
-x,1/2+y,1/2+z
1/2+x,1/2-y,1/2+z
loop_
_atom_site_type_symbol
_atom_site_label
_atom_site_fract_x
_atom_site_fract_y
_atom_site_fract_z
Si Si1 0.540958 0.250000 0.750000
Si Si2 0.645677 0.735537 0.873573
Si Si3 0.410004 0.605171 0.667353
Si Si4 0.947118 0.992292 0.626239
Si Si5 0.342856 0.363360 0.593574
O O1 0.588740 0.368849 0.815415
O O2 0.455249 0.297763 0.648921
O O3 0.700547 0.750000 0.750000
O O4 0.510189 0.797739 0.866852
O O5 0.648471 0.596997 0.886679
O O6 0.701457 0.805136 0.977229
O O7 0.457331 0.545890 0.782422
O O8 0.388551 0.497139 0.580230
O O9 0.272049 0.645985 0.676407
O O10 0.000000 0.000000 0.500000
#
# Coordination Sequence:
#
# PCOD9409090 Si02
#       5
#     4   8   8   8   8
#     4  10  20  32  56  88 128 166 210 272 334 394
#     4  10  20  36  61  86 121 165 210 262 327 398
#     4   9  21  35  60  91 119 168 216 264 332 404
#     4  10  19  36  56  91 129 167 218 272 337 409
#     4  10  19  36  59  89 124 162 209 268 326 396
#
# _framework density 24.221145
#
# number of rings (size 3 to 8) (size 9 to 14) (size 15 to 20)
#    0.000    2.222    2.222    0.667    4.667    0.000 
#    0.000    0.000    2.444    5.333    0.000    0.000 
#    0.000    0.000    0.000    0.000    0.000    0.000 
#
# Total GULP energy -200507.956270 kJ/mol
# GULP energy per Si atom -5569.665452 kJ/mol
# Density = 2.416602 g / cm^3
# Si number density = 24.221145 Si / 1000 Ang^3
#
#
#
# Elastic Constant Matrix: (Units=GPa)
#
#
# Indices 1 2 3 4 5 6 
#
# 1 81.3346 54.8270 13.4084 0.0000 0.0000 0.0000
# 2 54.8270 204.9783 51.5095 0.0000 0.0000 0.0000
# 3 13.4084 51.5095 85.5678 0.0000 0.0000 0.0000
# 4 0.0000 0.0000 0.0000 38.4532 0.0000 0.0000
# 5 0.0000 0.0000 0.0000 0.0000 -8.6236 0.0000
# 6 0.0000 0.0000 0.0000 0.0000 0.0000 17.5450
#
#
#
# Elastic Compliance Matrix: (Units=1/GPa)
#
#
# Indices 1 2 3 4 5 6 
#
# 1 0.015000 -0.004031 0.000076 0.000000 0.000000 0.000000
# 2 -0.004031 0.006832 -0.003481 0.000000 0.000000 0.000000
# 3 0.000076 -0.003481 0.013770 0.000000 0.000000 0.000000
# 4 0.000000 0.000000 0.000000 0.026006 0.000000 0.000000
# 5 0.000000 0.000000 0.000000 0.000000 -0.115960 0.000000
# 6 0.000000 0.000000 0.000000 0.000000 0.000000 0.056996
#
#
# Mechanical properties :
#
#
# Convention : Reuss Voigt Hill
#
# Bulk Modulus (GPa) = 48.23960 67.93007 58.08484
# Shear Modulus (GPa) = 204.71307 26.28396 115.49851
#
# Velocity S-wave (km/s) = 9.20336 3.29776 6.91292
# Velocity P-wave (km/s) = 11.52802 6.52740 9.36756
#
# Compressibility (1/GPa) = 0.02072986
#
# Stress axis : x y z
#
# Youngs Moduli (GPa) = 66.66778 146.38067 72.62178
#
# Poissons Ratio (x) = 0.59010 -0.00554
# Poissons Ratio (y) = 0.26875 0.25277
# Poissons Ratio (z) = -0.00508 0.50951
#
# Static dielectric constant tensor:
#      x y z
#    x 2.101060 0.000000 0.000000 
#    y 0.000000 2.006650 0.000000 
#    z 0.000000 0.000000 1.633250 
# 
# From -- ./inp_files/19141.got.cif
#   From: 2010.05.17/outbox.cif.g08.bks.cpg/sg52_10_cif.got.tgz:19141.got - 2010.06.03 12:15:38.
