data_PCOD9409243
_publ_section_title
;
Structure prediction by ZEFSAII (Michael W. Deem and Ramdas Pophale) SiO2 
 PCOD9409243
Probable space group: P N N A
;
_chemical_formula_sum "Si O2"
_cell_formula_units_Z 56
_cell_length_a 14.294766
_cell_length_b 15.224585
_cell_length_c 10.950888
_cell_angle_alpha 90.000000
_cell_angle_beta 90.000000
_cell_angle_gamma 90.000000
_cell_volume 2383.262343
_symmetry_space_group_name_H-M "P N N A"
_symmetry_group_IT_number 52
_symmetry_cell_setting 'orthorhombic'
loop_
_space_group_symop_operation_xyz
x,y,z
1/2-x,-y,z
x,1/2-y,1/2-z
1/2-x,1/2+y,1/2-z
-x,-y,-z
1/2+x,y,-z
-x,1/2+y,1/2+z
1/2+x,1/2-y,1/2+z
loop_
_atom_site_type_symbol
_atom_site_label
_atom_site_fract_x
_atom_site_fract_y
_atom_site_fract_z
Si Si1 0.701250 0.250000 0.750000
Si Si2 0.848447 0.750000 0.250000
Si Si3 0.490739 0.591260 0.704632
Si Si4 0.939228 0.835721 0.559961
Si Si5 0.420584 0.307056 0.498275
Si Si6 0.273504 0.884698 0.586161
Si Si7 0.660863 0.644900 0.862431
Si Si8 0.402377 0.405634 0.750867
O O1 0.634103 0.217906 0.642758
O O2 0.769390 0.335025 0.750923
O O3 0.912195 0.666290 0.281448
O O4 0.787513 0.784847 0.363381
O O5 0.551413 0.610205 0.583731
O O6 0.565710 0.604489 0.813842
O O7 0.440983 0.498374 0.704849
O O8 0.990344 0.757292 0.491860
O O9 0.879305 0.898786 0.469384
O O10 0.021283 0.876136 0.645727
O O11 0.350966 0.240089 0.429293
O O12 0.401100 0.337594 0.636692
O O13 0.211727 0.906870 0.468060
O O14 0.201271 0.917229 0.691656
#
# Coordination Sequence:
#
# PCOD9409243 Si02
#       8
#     4   4   8   8   8   8   8   8
#     4  10  19  37  68  98 130 182 246 280 338 440
#     4  12  23  47  70 100 146 194 236 288 366 456
#     4  12  25  46  72 104 151 192 239 301 378 434
#     4  11  22  43  73 100 143 187 246 297 355 444
#     4  12  20  46  73 103 139 195 236 293 361 449
#     4  11  25  43  73 105 137 192 244 306 356 428
#     4  11  21  41  72  99 130 194 248 278 354 439
#     4  12  27  44  72 114 148 184 245 319 367 421
#
# _framework density 23.497202999999999
#
# number of rings (size 3 to 8) (size 9 to 14) (size 15 to 20)
#    0.000    0.571    7.143    1.286    0.000    1.143 
#    2.571    2.143    0.000    1.714    0.000    0.000 
#    0.000    0.000    0.000    0.000    0.000    0.000 
#
# Total GULP energy -311919.450051 kJ/mol
# GULP energy per Si atom -5569.990179 kJ/mol
# Density = 2.344372 g / cm^3
# Si number density = 23.497203 Si / 1000 Ang^3
#
#
#
# Elastic Constant Matrix: (Units=GPa)
#
#
# Indices 1 2 3 4 5 6 
#
# 1 117.0537 23.5051 49.8728 0.0000 0.0000 0.0000
# 2 23.5051 74.5640 20.0105 0.0000 0.0000 0.0000
# 3 49.8728 20.0105 96.9055 0.0000 0.0000 0.0000
# 4 0.0000 0.0000 0.0000 8.4234 0.0000 0.0000
# 5 0.0000 0.0000 0.0000 0.0000 -8.9120 0.0000
# 6 0.0000 0.0000 0.0000 0.0000 0.0000 29.6331
#
#
#
# Elastic Compliance Matrix: (Units=1/GPa)
#
#
# Indices 1 2 3 4 5 6 
#
# 1 0.011247 -0.002109 -0.005353 0.000000 0.000000 0.000000
# 2 -0.002109 0.014594 -0.001928 0.000000 0.000000 0.000000
# 3 -0.005353 -0.001928 0.013472 0.000000 0.000000 0.000000
# 4 0.000000 0.000000 0.000000 0.118717 0.000000 0.000000
# 5 0.000000 0.000000 0.000000 0.000000 -0.112208 0.000000
# 6 0.000000 0.000000 0.000000 0.000000 0.000000 0.033746
#
#
# Mechanical properties :
#
#
# Convention : Reuss Voigt Hill
#
# Bulk Modulus (GPa) = 48.70168 52.81109 50.75639
# Shear Modulus (GPa) = 47.53176 18.83789 33.18482
#
# Velocity S-wave (km/s) = 4.50251 2.83452 3.76212
# Velocity P-wave (km/s) = 6.91388 5.76515 6.36548
#
# Compressibility (1/GPa) = 0.02053317
#
# Stress axis : x y z
#
# Youngs Moduli (GPa) = 88.91011 68.52335 74.22583
#
# Poissons Ratio (x) = 0.14451 0.39733
# Poissons Ratio (y) = 0.18751 0.14311
# Poissons Ratio (z) = 0.47593 0.13212
#
# Static dielectric constant tensor:
#      x y z
#    x 1.980990 0.000000 0.000000 
#    y 0.000000 1.939690 0.000000 
#    z 0.000000 0.000000 1.989130 
# 
# From -- ./inp_files/19690.got.cif
#   From: 2010.05.17/outbox.cif.g08.bks.cpg/sg52_10_cif.got.tgz:19690.got - 2010.06.03 12:15:38.
