data_PCOD9409315
_publ_section_title
;
Structure prediction by ZEFSAII (Michael W. Deem and Ramdas Pophale) SiO2 
 PCOD9409315
Probable space group: P N N A
;
_chemical_formula_sum "Si O2"
_cell_formula_units_Z 48
_cell_length_a 9.742712
_cell_length_b 20.540291
_cell_length_c 11.698234
_cell_angle_alpha 90.000000
_cell_angle_beta 90.000000
_cell_angle_gamma 90.000000
_cell_volume 2341.028825
_symmetry_space_group_name_H-M "P N N A"
_symmetry_group_IT_number 52
_symmetry_cell_setting 'orthorhombic'
loop_
_space_group_symop_operation_xyz
x,y,z
1/2-x,-y,z
x,1/2-y,1/2-z
1/2-x,1/2+y,1/2-z
-x,-y,-z
1/2+x,y,-z
-x,1/2+y,1/2+z
1/2+x,1/2-y,1/2+z
loop_
_atom_site_type_symbol
_atom_site_label
_atom_site_fract_x
_atom_site_fract_y
_atom_site_fract_z
Si Si1 0.451328 0.558098 0.867826
Si Si2 0.839463 0.211089 0.870279
Si Si3 0.505616 0.089646 0.618737
Si Si4 0.248708 0.650880 0.769966
Si Si5 0.228405 0.572278 0.274545
Si Si6 0.652673 0.267073 0.426175
O O1 0.432868 0.481349 0.886462
O O2 0.337134 0.586061 0.784375
O O3 0.599552 0.566950 0.810946
O O4 0.449414 0.597215 0.987470
O O5 0.842800 0.250000 0.750000
O O6 0.802007 0.135181 0.851224
O O7 0.991442 0.216722 0.924867
O O8 0.723224 0.241276 0.951751
O O9 0.399606 0.139680 0.674631
O O10 0.637324 0.085788 0.699081
O O11 0.261339 0.677070 0.641650
O O12 0.324821 0.704177 0.847773
O O13 0.250000 0.500000 0.328555
#
# Coordination Sequence:
#
# PCOD9409315 Si02
#       6
#     8   8   8   8   8   8
#     4  10  19  39  61  95 141 171 218 280 339 396
#     4  12  26  49  68  98 134 180 218 289 335 403
#     4  10  22  33  65 102 128 177 223 271 341 403
#     4  11  22  42  63  97 132 171 219 283 328 407
#     4  10  22  42  65  95 134 176 224 278 332 394
#     4  11  27  44  68  93 132 176 229 268 344 405
#
# _framework density 20.503806999999998
#
# number of rings (size 3 to 8) (size 9 to 14) (size 15 to 20)
#    0.000    1.333    3.333    1.500    9.333    2.667 
#    0.000    2.500    0.000    0.000    0.000    0.000 
#    0.000    0.000    0.000    0.000    0.000    0.000 
#
# Total GULP energy -268096.527193 kJ/mol
# GULP energy per Si atom -5585.344317 kJ/mol
# Density = 2.045714 g / cm^3
# Si number density = 20.503807 Si / 1000 Ang^3
#
#
#
# Elastic Constant Matrix: (Units=GPa)
#
#
# Indices 1 2 3 4 5 6 
#
# 1 73.3005 6.3694 27.3951 0.0000 0.0000 0.0000
# 2 6.3694 37.2692 4.9287 0.0000 0.0000 0.0000
# 3 27.3951 4.9287 61.6743 0.0000 0.0000 0.0000
# 4 0.0000 0.0000 0.0000 22.1102 0.0000 0.0000
# 5 0.0000 0.0000 0.0000 0.0000 37.1815 0.0000
# 6 0.0000 0.0000 0.0000 0.0000 0.0000 29.0288
#
#
#
# Elastic Compliance Matrix: (Units=1/GPa)
#
#
# Indices 1 2 3 4 5 6 
#
# 1 0.016486 -0.001869 -0.007174 0.000000 0.000000 0.000000
# 2 -0.001869 0.027330 -0.001354 0.000000 0.000000 0.000000
# 3 -0.007174 -0.001354 0.019509 0.000000 0.000000 0.000000
# 4 0.000000 0.000000 0.000000 0.045228 0.000000 0.000000
# 5 0.000000 0.000000 0.000000 0.000000 0.026895 0.000000
# 6 0.000000 0.000000 0.000000 0.000000 0.000000 0.034449
#
#
# Mechanical properties :
#
#
# Convention : Reuss Voigt Hill
#
# Bulk Modulus (GPa) = 23.51155 27.73673 25.62414
# Shear Modulus (GPa) = 24.40611 26.56748 25.48680
#
# Velocity S-wave (km/s) = 3.45385 3.60354 3.52948
# Velocity P-wave (km/s) = 5.23424 5.55616 5.39760
#
# Compressibility (1/GPa) = 0.04253228
#
# Stress axis : x y z
#
# Youngs Moduli (GPa) = 60.65801 36.58951 51.25887
#
# Poissons Ratio (x) = 0.06838 0.36771
# Poissons Ratio (y) = 0.11336 0.06940
# Poissons Ratio (z) = 0.43513 0.04954
#
# Static dielectric constant tensor:
#      x y z
#    x 1.709510 0.000000 0.000000 
#    y 0.000000 1.802910 0.000000 
#    z 0.000000 0.000000 1.760870 
# 
# From -- ./inp_files/16964.got.cif
#   From: 2010.05.17/outbox.cif.g08.bks.cpg/sg52_9_cif.got.tgz:16964.got - 2010.06.03 12:15:38.
