data_PCOD9409745
_publ_section_title
;
Structure prediction by ZEFSAII (Michael W. Deem and Ramdas Pophale) SiO2 
 PCOD9409745
Probable space group: P N N A
;
_chemical_formula_sum "Si O2"
_cell_formula_units_Z 40
_cell_length_a 7.957239
_cell_length_b 14.599954
_cell_length_c 17.084948
_cell_angle_alpha 90.000000
_cell_angle_beta 90.000000
_cell_angle_gamma 90.000000
_cell_volume 1984.849359
_symmetry_space_group_name_H-M "P N N A"
_symmetry_group_IT_number 52
_symmetry_cell_setting 'orthorhombic'
loop_
_space_group_symop_operation_xyz
x,y,z
1/2-x,-y,z
x,1/2-y,1/2-z
1/2-x,1/2+y,1/2-z
-x,-y,-z
1/2+x,y,-z
-x,1/2+y,1/2+z
1/2+x,1/2-y,1/2+z
loop_
_atom_site_type_symbol
_atom_site_label
_atom_site_fract_x
_atom_site_fract_y
_atom_site_fract_z
Si Si1 0.422393 0.711130 0.953731
Si Si2 0.250000 0.000000 0.169762
Si Si3 0.750389 0.200199 0.897430
Si Si4 0.427232 0.047894 0.732804
Si Si5 0.139707 0.917668 0.562249
Si Si6 0.966793 0.750000 0.750000
O O1 0.558940 0.764140 0.903170
O O2 0.271101 0.660780 0.909669
O O3 0.340168 0.774332 0.021021
O O4 0.523588 0.631815 0.999995
O O5 0.253125 0.907477 0.119539
O O6 0.416647 0.998009 0.223252
O O7 0.651132 0.250201 0.827084
O O8 0.450602 0.044128 0.638949
O O9 0.431098 0.155627 0.754410
O O10 0.250000 0.000000 0.751057
O O11 0.250000 0.000000 0.527491
#
# Coordination Sequence:
#
# PCOD9409745 Si02
#       6
#     8   4   8   8   8   4
#     4  10  21  39  62  93 125 168 210 257 331 380
#     4  10  24  44  62  92 126 168 218 272 314 368
#     4  10  22  41  65  92 125 170 214 263 323 381
#     4  10  22  40  62  92 125 164 214 262 321 377
#     4  10  20  36  57  91 126 162 202 259 316 388
#     4  10  20  40  64  88 130 162 212 272 314 382
#
# _framework density 20.152664000000001
#
# number of rings (size 3 to 8) (size 9 to 14) (size 15 to 20)
#    0.000    2.000    2.000    0.600    0.000    8.800 
#    5.400    1.000    0.000    0.000    0.000    0.000 
#    0.000    0.000    0.000    0.000    0.000    0.000 
#
# Total GULP energy -223391.891951 kJ/mol
# GULP energy per Si atom -5584.797299 kJ/mol
# Density = 2.010680 g / cm^3
# Si number density = 20.152664 Si / 1000 Ang^3
#
#
#
# Elastic Constant Matrix: (Units=GPa)
#
#
# Indices 1 2 3 4 5 6 
#
# 1 85.8666 45.0913 26.2999 0.0000 0.0000 0.0000
# 2 45.0913 114.0773 29.4242 0.0000 0.0000 0.0000
# 3 26.2999 29.4242 53.2558 0.0000 0.0000 0.0000
# 4 0.0000 0.0000 0.0000 -1.8497 0.0000 0.0000
# 5 0.0000 0.0000 0.0000 0.0000 -91.6007 0.0000
# 6 0.0000 0.0000 0.0000 0.0000 0.0000 40.2551
#
#
#
# Elastic Compliance Matrix: (Units=1/GPa)
#
#
# Indices 1 2 3 4 5 6 
#
# 1 0.015790 -0.004933 -0.005072 0.000000 0.000000 0.000000
# 2 -0.004933 0.011764 -0.004064 0.000000 0.000000 0.000000
# 3 -0.005072 -0.004064 0.023527 0.000000 0.000000 0.000000
# 4 0.000000 0.000000 0.000000 -0.540636 0.000000 0.000000
# 5 0.000000 0.000000 0.000000 0.000000 -0.010917 0.000000
# 6 0.000000 0.000000 0.000000 0.000000 0.000000 0.024842
#
#
# Mechanical properties :
#
#
# Convention : Reuss Voigt Hill
#
# Bulk Modulus (GPa) = 43.58493 50.53671 47.06082
# Shear Modulus (GPa) = -11.36765 -0.48008 -5.92387
#
# Velocity S-wave (km/s) = -2.37761 -0.48861 -1.71636
# Velocity P-wave (km/s) = 3.75992 4.98127 4.41305
#
# Compressibility (1/GPa) = 0.02294371
#
# Stress axis : x y z
#
# Youngs Moduli (GPa) = 63.33120 85.00525 42.50378
#
# Poissons Ratio (x) = 0.41933 0.21559
# Poissons Ratio (y) = 0.31241 0.17272
# Poissons Ratio (z) = 0.32123 0.34542
#
# Static dielectric constant tensor:
#      x y z
#    x 1.730390 0.000000 0.000000 
#    y 0.000000 1.727020 0.000000 
#    z 0.000000 0.000000 1.687780 
# 
# From -- ./inp_files/31089.got.cif
#   From: 2010.05.17/outbox.cif.g08.bks.cpg/sg52_16_cif.got.tgz:31089.got - 2010.06.03 12:15:38.
