data_PCOD9409969
_publ_section_title
;
Structure prediction by ZEFSAII (Michael W. Deem and Ramdas Pophale) SiO2 
 PCOD9409969
Probable space group: P N N A
;
_chemical_formula_sum "Si O2"
_cell_formula_units_Z 36
_cell_length_a 13.461296
_cell_length_b 22.322142
_cell_length_c 4.909701
_cell_angle_alpha 90.000000
_cell_angle_beta 90.000000
_cell_angle_gamma 90.000000
_cell_volume 1475.291313
_symmetry_space_group_name_H-M "P N N A"
_symmetry_group_IT_number 52
_symmetry_cell_setting 'orthorhombic'
loop_
_space_group_symop_operation_xyz
x,y,z
1/2-x,-y,z
x,1/2-y,1/2-z
1/2-x,1/2+y,1/2-z
-x,-y,-z
1/2+x,y,-z
-x,1/2+y,1/2+z
1/2+x,1/2-y,1/2+z
loop_
_atom_site_type_symbol
_atom_site_label
_atom_site_fract_x
_atom_site_fract_y
_atom_site_fract_z
Si Si1 0.858927 0.994066 0.019620
Si Si2 0.592460 0.689485 0.177112
Si Si3 0.440121 0.870068 0.900990
Si Si4 0.436836 0.750000 0.750000
Si Si5 0.411824 0.070439 0.492670
O O1 0.926317 0.028994 0.242172
O O2 0.750000 0.000000 0.143169
O O3 0.881287 0.924721 0.970816
O O4 0.863996 0.031201 0.742950
O O5 0.651244 0.750000 0.250000
O O6 0.532313 0.655890 0.420496
O O7 0.509701 0.719405 0.975248
O O8 0.647868 0.632245 0.050975
O O9 0.380170 0.808689 0.853627
O O10 0.486882 0.901896 0.633556
#
# Coordination Sequence:
#
# PCOD9409969 Si02
#       5
#     8   8   8   4   8
#     4  12  26  39  58  89 129 165 197 254 307 368
#     4   9  18  35  62  92 117 148 202 267 300 353
#     4  10  20  37  66  87 121 152 213 249 307 361
#     4   8  18  32  60  94 114 154 194 262 300 358
#     4  11  22  40  62  90 116 158 209 248 306 358
#
# _framework density 24.401961
#
# number of rings (size 3 to 8) (size 9 to 14) (size 15 to 20)
#    0.000    1.778    2.222    2.000    6.222    0.000 
#    0.000    0.000    2.444    0.000    0.000    0.000 
#    0.000    0.000    0.000    0.000    0.000    0.000 
#
# Total GULP energy -200666.418830 kJ/mol
# GULP energy per Si atom -5574.067190 kJ/mol
# Density = 2.434642 g / cm^3
# Si number density = 24.401961 Si / 1000 Ang^3
#
#
#
# Elastic Constant Matrix: (Units=GPa)
#
#
# Indices 1 2 3 4 5 6 
#
# 1 33.9649 27.4061 -6.8626 0.0000 0.0000 0.0000
# 2 27.4061 326.2016 59.3041 0.0000 0.0000 0.0000
# 3 -6.8626 59.3041 117.3981 0.0000 0.0000 0.0000
# 4 0.0000 0.0000 0.0000 42.3742 0.0000 0.0000
# 5 0.0000 0.0000 0.0000 0.0000 7.1780 0.0000
# 6 0.0000 0.0000 0.0000 0.0000 0.0000 9.5268
#
#
#
# Elastic Compliance Matrix: (Units=1/GPa)
#
#
# Indices 1 2 3 4 5 6 
#
# 1 0.032953 -0.003434 0.003661 0.000000 0.000000 0.000000
# 2 -0.003434 0.003733 -0.002087 0.000000 0.000000 0.000000
# 3 0.003661 -0.002087 0.009786 0.000000 0.000000 0.000000
# 4 0.000000 0.000000 0.000000 0.023599 0.000000 0.000000
# 5 0.000000 0.000000 0.000000 0.000000 0.139315 0.000000
# 6 0.000000 0.000000 0.000000 0.000000 0.000000 0.104967
#
#
# Mechanical properties :
#
#
# Convention : Reuss Voigt Hill
#
# Bulk Modulus (GPa) = 23.39024 70.80665 47.09844
# Shear Modulus (GPa) = 15.04550 38.33025 26.68788
#
# Velocity S-wave (km/s) = 2.48578 3.96761 3.31067
# Velocity P-wave (km/s) = 4.22433 7.07595 5.82726
#
# Compressibility (1/GPa) = 0.04275288
#
# Stress axis : x y z
#
# Youngs Moduli (GPa) = 30.34634 267.84645 102.18525
#
# Poissons Ratio (x) = 0.91983 -0.37411
# Poissons Ratio (y) = 0.10421 0.21323
# Poissons Ratio (z) = -0.11110 0.55892
#
# Static dielectric constant tensor:
#      x y z
#    x 1.957360 0.000000 0.000000 
#    y 0.000000 2.085600 0.000000 
#    z 0.000000 0.000000 2.130590 
# 
# From -- ./inp_files/2157.got.cif
#   From: 2010.05.17/outbox.cif.g08.bks.cpg/sg52_2_cif.got.tgz:2157.got - 2010.06.03 12:15:38.
