data_PCOD9409067
_publ_section_title
;
Structure prediction by ZEFSAII (Michael W. Deem and Ramdas Pophale) SiO2 
 PCOD9409067
Probable space group: P N N A
;
_chemical_formula_sum "Si O2"
_cell_formula_units_Z 40
_cell_length_a 11.590948
_cell_length_b 8.419780
_cell_length_c 19.426654
_cell_angle_alpha 90.000000
_cell_angle_beta 90.000000
_cell_angle_gamma 90.000000
_cell_volume 1895.909954
_symmetry_space_group_name_H-M "P N N A"
_symmetry_group_IT_number 52
_symmetry_cell_setting 'orthorhombic'
loop_
_space_group_symop_operation_xyz
x,y,z
1/2-x,-y,z
x,1/2-y,1/2-z
1/2-x,1/2+y,1/2-z
-x,-y,-z
1/2+x,y,-z
-x,1/2+y,1/2+z
1/2+x,1/2-y,1/2+z
loop_
_atom_site_type_symbol
_atom_site_label
_atom_site_fract_x
_atom_site_fract_y
_atom_site_fract_z
Si Si1 0.281787 0.184806 0.090782
Si Si2 0.075607 0.252488 0.329629
Si Si3 0.719654 0.262196 0.058035
Si Si4 0.015899 0.047522 0.919927
Si Si5 0.559245 0.549563 0.072315
O O1 0.213142 0.237838 0.157751
O O2 0.419867 0.186748 0.091822
O O3 0.250000 0.000000 0.079230
O O4 0.222007 0.268190 0.025377
O O5 0.045701 0.250000 0.250000
O O6 0.021596 0.407847 0.367970
O O7 0.030922 0.097665 0.369788
O O8 0.646862 0.110766 0.083522
O O9 0.644476 0.405463 0.087753
O O10 0.853932 0.297452 0.070799
O O11 0.000000 0.000000 0.000000
O O12 0.500000 0.500000 0.000000
#
# Coordination Sequence:
#
# PCOD9409067 Si02
#       5
#     8   8   8   8   8
#     4  10  19  35  62  95 125 168 219 265 329 394
#     4  11  24  42  65  95 139 177 217 277 349 410
#     4  11  21  36  65  98 125 165 229 282 321 390
#     4  11  20  40  68  95 127 175 234 268 324 413
#     4  11  22  40  61  96 131 169 219 284 337 382
#
# _framework density 21.098049
#
# number of rings (size 3 to 8) (size 9 to 14) (size 15 to 20)
#    0.000    1.200    6.000    2.400    0.000    0.000 
#    0.000   17.000    0.000    0.000    0.000    0.000 
#    0.000    0.000    0.000    0.000    0.000    0.000 
#
# Total GULP energy -222977.188727 kJ/mol
# GULP energy per Si atom -5574.429718 kJ/mol
# Density = 2.105003 g / cm^3
# Si number density = 21.098049 Si / 1000 Ang^3
#
#
#
# Elastic Constant Matrix: (Units=GPa)
#
#
# Indices 1 2 3 4 5 6 
#
# 1 143.6797 39.2630 39.7293 0.0000 0.0000 0.0000
# 2 39.2630 55.4683 37.6820 0.0000 0.0000 0.0000
# 3 39.7293 37.6820 126.9100 0.0000 0.0000 0.0000
# 4 0.0000 0.0000 0.0000 22.8214 0.0000 0.0000
# 5 0.0000 0.0000 0.0000 0.0000 16.8489 0.0000
# 6 0.0000 0.0000 0.0000 0.0000 0.0000 32.3347
#
#
#
# Elastic Compliance Matrix: (Units=1/GPa)
#
#
# Indices 1 2 3 4 5 6 
#
# 1 0.008756 -0.005431 -0.001128 0.000000 0.000000 0.000000
# 2 -0.005431 0.025953 -0.006006 0.000000 0.000000 0.000000
# 3 -0.001128 -0.006006 0.010016 0.000000 0.000000 0.000000
# 4 0.000000 0.000000 0.000000 0.043819 0.000000 0.000000
# 5 0.000000 0.000000 0.000000 0.000000 0.059351 0.000000
# 6 0.000000 0.000000 0.000000 0.000000 0.000000 0.030927
#
#
# Mechanical properties :
#
#
# Convention : Reuss Voigt Hill
#
# Bulk Modulus (GPa) = 51.03570 62.15629 56.59600
# Shear Modulus (GPa) = 23.75486 28.35992 26.05739
#
# Velocity S-wave (km/s) = 3.35912 3.67031 3.51816
# Velocity P-wave (km/s) = 6.26795 6.89102 6.58686
#
# Compressibility (1/GPa) = 0.01959413
#
# Stress axis : x y z
#
# Youngs Moduli (GPa) = 114.20495 38.53149 99.83998
#
# Poissons Ratio (x) = 0.20928 0.11266
# Poissons Ratio (y) = 0.62030 0.59960
# Poissons Ratio (z) = 0.12887 0.23140
#
# Static dielectric constant tensor:
#      x y z
#    x 1.880320 0.000000 0.000000 
#    y 0.000000 1.868980 0.000000 
#    z 0.000000 0.000000 1.698320 
# 
# From -- ./inp_files/31958.got.cif
#   From: 2010.05.17/outbox.cif.g08.bks.cpg/sg52_16_cif.got.tgz:31958.got - 2010.06.03 12:15:38.
