data_PCOD9409228
_publ_section_title
;
Structure prediction by ZEFSAII (Michael W. Deem and Ramdas Pophale) SiO2 
 PCOD9409228
Probable space group: P N N A
;
_chemical_formula_sum "Si O2"
_cell_formula_units_Z 60
_cell_length_a 20.916974
_cell_length_b 8.928681
_cell_length_c 17.474506
_cell_angle_alpha 90.000000
_cell_angle_beta 90.000000
_cell_angle_gamma 90.000000
_cell_volume 3263.556011
_symmetry_space_group_name_H-M "P N N A"
_symmetry_group_IT_number 52
_symmetry_cell_setting 'orthorhombic'
loop_
_space_group_symop_operation_xyz
x,y,z
1/2-x,-y,z
x,1/2-y,1/2-z
1/2-x,1/2+y,1/2-z
-x,-y,-z
1/2+x,y,-z
-x,1/2+y,1/2+z
1/2+x,1/2-y,1/2+z
loop_
_atom_site_type_symbol
_atom_site_label
_atom_site_fract_x
_atom_site_fract_y
_atom_site_fract_z
Si Si1 0.396251 0.607825 0.597848
Si Si2 0.730505 0.328555 0.327699
Si Si3 0.250000 0.000000 0.104077
Si Si4 0.528992 0.643289 0.678027
Si Si5 0.876986 0.629358 0.682501
Si Si6 0.058293 0.303621 0.042710
Si Si7 0.316623 0.175950 0.970024
Si Si8 0.072271 0.656169 0.035524
O O1 0.344683 0.676516 0.655818
O O2 0.463441 0.579218 0.640587
O O3 0.409080 0.728836 0.531527
O O4 0.361743 0.461861 0.560396
O O5 0.750000 0.500000 0.319307
O O6 0.748931 0.250000 0.250000
O O7 0.768536 0.278034 0.403044
O O8 0.191722 0.068333 0.153207
O O9 0.279032 0.120241 0.044724
O O10 0.514395 0.750000 0.750000
O O11 0.577802 0.512330 0.702302
O O12 0.561554 0.743712 0.611198
O O13 0.869453 0.750000 0.750000
O O14 0.914315 0.712709 0.613779
O O15 0.068884 0.480487 0.052388
O O16 0.983086 0.293737 0.023753
O O17 0.361472 0.308401 0.995952
#
# Coordination Sequence:
#
# PCOD9409228 Si02
#       8
#     8   8   4   8   8   8   8   8
#     4  10  19  37  64  86 119 160 203 247 305 380
#     4  10  21  36  56  86 125 157 196 245 301 365
#     4  12  22  44  66  86 120 170 224 256 306 392
#     4  11  22  38  61  89 121 159 201 256 326 373
#     4  12  25  42  63  87 125 160 211 270 317 368
#     4  10  20  39  60  94 117 155 203 259 309 370
#     4  11  19  40  64  87 119 170 212 246 302 381
#     4  10  21  36  64  90 123 156 205 254 307 377
#
# _framework density 18.384854000000001
#
# number of rings (size 3 to 8) (size 9 to 14) (size 15 to 20)
#    0.000    1.333    4.667    2.000    0.000    3.733 
#    2.400   11.333    0.000    0.000    0.000    0.000 
#    0.000    0.000    0.000    0.000    0.000    0.000 
#
# Total GULP energy -334856.490737 kJ/mol
# GULP energy per Si atom -5580.941512 kJ/mol
# Density = 1.834301 g / cm^3
# Si number density = 18.384854 Si / 1000 Ang^3
#
#
#
# Elastic Constant Matrix: (Units=GPa)
#
#
# Indices 1 2 3 4 5 6 
#
# 1 86.4206 26.7533 34.1953 0.0000 0.0000 0.0000
# 2 26.7533 23.4780 23.0772 0.0000 0.0000 0.0000
# 3 34.1953 23.0772 88.6378 0.0000 0.0000 0.0000
# 4 0.0000 0.0000 0.0000 33.3141 0.0000 0.0000
# 5 0.0000 0.0000 0.0000 0.0000 -4.8740 0.0000
# 6 0.0000 0.0000 0.0000 0.0000 0.0000 66.2565
#
#
#
# Elastic Compliance Matrix: (Units=1/GPa)
#
#
# Indices 1 2 3 4 5 6 
#
# 1 0.018185 -0.018582 -0.002178 0.000000 0.000000 0.000000
# 2 -0.018582 0.076228 -0.012678 0.000000 0.000000 0.000000
# 3 -0.002178 -0.012678 0.015423 0.000000 0.000000 0.000000
# 4 0.000000 0.000000 0.000000 0.030017 0.000000 0.000000
# 5 0.000000 0.000000 0.000000 0.000000 -0.205169 0.000000
# 6 0.000000 0.000000 0.000000 0.000000 0.000000 0.015093
#
#
# Mechanical properties :
#
#
# Convention : Reuss Voigt Hill
#
# Bulk Modulus (GPa) = 23.27647 40.73201 32.00424
# Shear Modulus (GPa) = 161.43177 26.57336 94.00257
#
# Velocity S-wave (km/s) = 9.38070 3.80596 7.15831
# Velocity P-wave (km/s) = 11.40255 6.44337 9.26108
#
# Compressibility (1/GPa) = 0.04296184
#
# Stress axis : x y z
#
# Youngs Moduli (GPa) = 54.98914 13.11847 64.83916
#
# Poissons Ratio (x) = 0.24376 0.14121
# Poissons Ratio (y) = 1.02179 0.82202
# Poissons Ratio (z) = 0.11976 0.16631
#
# Static dielectric constant tensor:
#      x y z
#    x 1.657600 0.000000 0.000000 
#    y 0.000000 1.635510 0.000000 
#    z 0.000000 0.000000 1.083710 
# 
# From -- ./inp_files/33788.got.cif
#   From: 2010.05.17/outbox.cif.g08.bks.cpg/sg52_17_cif.got.tgz:33788.got - 2010.06.03 12:15:38.
