data_PCOD9409066
_publ_section_title
;
Structure prediction by ZEFSAII (Michael W. Deem and Ramdas Pophale) SiO2 
 PCOD9409066
Probable space group: P N N A
;
_chemical_formula_sum "Si O2"
_cell_formula_units_Z 52
_cell_length_a 9.700865
_cell_length_b 15.404841
_cell_length_c 19.912869
_cell_angle_alpha 90.000000
_cell_angle_beta 90.000000
_cell_angle_gamma 90.000000
_cell_volume 2975.784776
_symmetry_space_group_name_H-M "P N N A"
_symmetry_group_IT_number 52
_symmetry_cell_setting 'orthorhombic'
loop_
_space_group_symop_operation_xyz
x,y,z
1/2-x,-y,z
x,1/2-y,1/2-z
1/2-x,1/2+y,1/2-z
-x,-y,-z
1/2+x,y,-z
-x,1/2+y,1/2+z
1/2+x,1/2-y,1/2+z
loop_
_atom_site_type_symbol
_atom_site_label
_atom_site_fract_x
_atom_site_fract_y
_atom_site_fract_z
Si Si1 0.100769 0.899350 0.103055
Si Si2 0.582201 0.405227 0.623234
Si Si3 0.151737 0.574367 0.729976
Si Si4 0.750000 0.000000 0.362050
Si Si5 0.689916 0.176342 0.431786
Si Si6 0.387513 0.699468 0.690516
Si Si7 0.536600 0.767848 0.018309
O O1 0.254817 0.890740 0.132616
O O2 0.987653 0.870318 0.157138
O O3 0.074473 0.000528 0.086855
O O4 0.085500 0.835574 0.039513
O O5 0.489586 0.413294 0.690263
O O6 0.521752 0.328509 0.577600
O O7 0.250000 0.500000 0.697241
O O8 0.143712 0.543753 0.807798
O O9 0.250245 0.657257 0.721897
O O10 0.808693 0.923132 0.407840
O O11 0.653210 0.233647 0.366931
O O12 0.579262 0.205064 0.487399
O O13 0.837551 0.209363 0.457056
O O14 0.462649 0.750000 0.750000
#
# Coordination Sequence:
#
# PCOD9409066 Si02
#       7
#     8   8   8   4   8   8   8
#     4  10  22  35  55  86 129 154 185 241 299 368
#     4  11  20  36  57  89 124 153 188 241 301 360
#     4  10  19  35  62  90 114 142 203 241 298 346
#     4  10  22  40  60  92 106 158 208 264 284 342
#     4  11  23  38  63  81 123 151 208 247 295 352
#     4  11  19  37  61  87 114 158 194 248 302 355
#     4  11  22  38  56  88 117 163 194 237 297 360
#
# _framework density 17.474381000000001
#
# number of rings (size 3 to 8) (size 9 to 14) (size 15 to 20)
#    0.462    0.923    6.154    0.462    0.000    0.615 
#    2.769    2.308    0.000    1.846    0.000    0.000 
#    0.000    0.000    0.000    0.000    0.000    0.000 
#
# Total GULP energy -289747.256254 kJ/mol
# GULP energy per Si atom -5572.062620 kJ/mol
# Density = 1.743461 g / cm^3
# Si number density = 17.474381 Si / 1000 Ang^3
#
#
#
# Elastic Constant Matrix: (Units=GPa)
#
#
# Indices 1 2 3 4 5 6 
#
# 1 94.5524 44.8304 35.5313 0.0000 0.0000 0.0000
# 2 44.8304 109.1644 39.7260 0.0000 0.0000 0.0000
# 3 35.5313 39.7260 71.7111 0.0000 0.0000 0.0000
# 4 0.0000 0.0000 0.0000 26.7398 0.0000 0.0000
# 5 0.0000 0.0000 0.0000 0.0000 69.9815 0.0000
# 6 0.0000 0.0000 0.0000 0.0000 0.0000 19.3792
#
#
#
# Elastic Compliance Matrix: (Units=1/GPa)
#
#
# Indices 1 2 3 4 5 6 
#
# 1 0.014349 -0.004140 -0.004816 0.000000 0.000000 0.000000
# 2 -0.004140 0.012668 -0.004966 0.000000 0.000000 0.000000
# 3 -0.004816 -0.004966 0.019082 0.000000 0.000000 0.000000
# 4 0.000000 0.000000 0.000000 0.037398 0.000000 0.000000
# 5 0.000000 0.000000 0.000000 0.000000 0.014289 0.000000
# 6 0.000000 0.000000 0.000000 0.000000 0.000000 0.051602
#
#
# Mechanical properties :
#
#
# Convention : Reuss Voigt Hill
#
# Bulk Modulus (GPa) = 54.78205 57.28926 56.03565
# Shear Modulus (GPa) = 27.27503 33.57611 30.42557
#
# Velocity S-wave (km/s) = 3.95506 4.38819 4.17724
# Velocity P-wave (km/s) = 7.23012 7.65054 7.44330
#
# Compressibility (1/GPa) = 0.01825416
#
# Stress axis : x y z
#
# Youngs Moduli (GPa) = 69.69191 78.93906 52.40440
#
# Poissons Ratio (x) = 0.32681 0.25238
# Poissons Ratio (y) = 0.28853 0.26026
# Poissons Ratio (z) = 0.33564 0.39205
#
# Static dielectric constant tensor:
#      x y z
#    x 1.575990 0.000000 0.000000 
#    y 0.000000 1.643960 0.000000 
#    z 0.000000 0.000000 1.597300 
# 
# From -- ./inp_files/35959.got.cif
#   From: 2010.05.17/outbox.cif.g08.bks.cpg/sg52_18_cif.got.tgz:35959.got - 2010.06.03 12:15:38.
