data_PCOD9409109
_publ_section_title
;
Structure prediction by ZEFSAII (Michael W. Deem and Ramdas Pophale) SiO2 
 PCOD9409109
Probable space group: P N N A
;
_chemical_formula_sum "Si O2"
_cell_formula_units_Z 48
_cell_length_a 13.079034
_cell_length_b 12.895439
_cell_length_c 11.887786
_cell_angle_alpha 90.000000
_cell_angle_beta 90.000000
_cell_angle_gamma 90.000000
_cell_volume 2004.992621
_symmetry_space_group_name_H-M "P N N A"
_symmetry_group_IT_number 52
_symmetry_cell_setting 'orthorhombic'
loop_
_space_group_symop_operation_xyz
x,y,z
1/2-x,-y,z
x,1/2-y,1/2-z
1/2-x,1/2+y,1/2-z
-x,-y,-z
1/2+x,y,-z
-x,1/2+y,1/2+z
1/2+x,1/2-y,1/2+z
loop_
_atom_site_type_symbol
_atom_site_label
_atom_site_fract_x
_atom_site_fract_y
_atom_site_fract_z
Si Si1 0.313639 0.896982 0.857482
Si Si2 0.517670 0.583491 0.103843
Si Si3 0.965502 0.054773 0.817496
Si Si4 0.150726 0.750000 0.250000
Si Si5 0.254163 0.162776 0.610906
Si Si6 0.689385 0.159814 0.619049
Si Si7 0.750000 0.000000 0.814810
O O1 0.433518 0.913278 0.884797
O O2 0.299206 0.881521 0.722115
O O3 0.272198 0.785498 0.899410
O O4 0.250000 0.000000 0.887567
O O5 0.501552 0.524929 0.222226
O O6 0.626662 0.637722 0.108181
O O7 0.431094 0.673959 0.109237
O O8 0.500000 0.500000 0.000000
O O9 0.924338 0.153553 0.748700
O O10 0.858206 0.020605 0.875862
O O11 0.226609 0.751986 0.357591
O O12 0.212398 0.109420 0.499583
O O13 0.716179 0.087989 0.724923
#
# Coordination Sequence:
#
# PCOD9409109 Si02
#       7
#     8   8   8   4   8   8   4
#     4  11  23  39  62  92 132 176 215 267 328 408
#     4  11  21  36  65  96 128 162 218 296 341 379
#     4  10  19  36  58  89 125 162 209 260 332 394
#     4  10  20  36  58  90 126 166 202 266 338 400
#     4  11  23  38  62  98 129 172 221 266 342 395
#     4  10  21  36  60  91 128 156 215 270 328 391
#     4   8  18  34  60  94 114 158 204 280 332 368
#
# _framework density 23.940235999999999
#
# number of rings (size 3 to 8) (size 9 to 14) (size 15 to 20)
#    0.000    1.667    1.667    5.000    1.167    2.667 
#    3.000    0.000   11.000    2.000    0.000    0.000 
#    0.000    0.000    0.000    0.000    0.000    0.000 
#
# Total GULP energy -267562.958505 kJ/mol
# GULP energy per Si atom -5574.228302 kJ/mol
# Density = 2.388575 g / cm^3
# Si number density = 23.940236 Si / 1000 Ang^3
#
#
#
# Elastic Constant Matrix: (Units=GPa)
#
#
# Indices 1 2 3 4 5 6 
#
# 1 252.6592 55.7773 15.3219 0.0000 0.0000 0.0000
# 2 55.7773 93.6253 5.9909 0.0000 0.0000 0.0000
# 3 15.3219 5.9909 71.0442 0.0000 0.0000 0.0000
# 4 0.0000 0.0000 0.0000 -6.8257 0.0000 0.0000
# 5 0.0000 0.0000 0.0000 0.0000 21.9317 0.0000
# 6 0.0000 0.0000 0.0000 0.0000 0.0000 35.2488
#
#
#
# Elastic Compliance Matrix: (Units=1/GPa)
#
#
# Indices 1 2 3 4 5 6 
#
# 1 0.004598 -0.002690 -0.000765 0.000000 0.000000 0.000000
# 2 -0.002690 0.012313 -0.000458 0.000000 0.000000 0.000000
# 3 -0.000765 -0.000458 0.014279 0.000000 0.000000 0.000000
# 4 0.000000 0.000000 0.000000 -0.146505 0.000000 0.000000
# 5 0.000000 0.000000 0.000000 0.000000 0.045596 0.000000
# 6 0.000000 0.000000 0.000000 0.000000 0.000000 0.028370
#
#
# Mechanical properties :
#
#
# Convention : Reuss Voigt Hill
#
# Bulk Modulus (GPa) = 42.80106 63.50099 53.15102
# Shear Modulus (GPa) = -194.29499 32.75351 -80.77074
#
# Velocity S-wave (km/s) = -9.01857 3.70285 -5.81479
# Velocity P-wave (km/s) = 9.51467 6.69804 4.77834
#
# Compressibility (1/GPa) = 0.02336391
#
# Stress axis : x y z
#
# Youngs Moduli (GPa) = 217.47503 81.21476 70.03134
#
# Poissons Ratio (x) = 0.21851 0.05356
# Poissons Ratio (y) = 0.58511 0.03208
# Poissons Ratio (z) = 0.16633 0.03720
#
# Static dielectric constant tensor:
#      x y z
#    x 1.991720 0.000000 0.000000 
#    y 0.000000 2.147930 0.000000 
#    z 0.000000 0.000000 2.006840 
# 
# From -- ./inp_files/26107.got.cif
#   From: 2010.05.17/outbox.cif.g08.bks.cpg/sg52_14_cif.got.tgz:26107.got - 2010.06.03 12:15:38.
