data_PCOD9409949
_publ_section_title
;
Structure prediction by ZEFSAII (Michael W. Deem and Ramdas Pophale) SiO2 
 PCOD9409949
Probable space group: P N N A
;
_chemical_formula_sum "Si O2"
_cell_formula_units_Z 56
_cell_length_a 18.948751
_cell_length_b 10.176433
_cell_length_c 13.584273
_cell_angle_alpha 90.000000
_cell_angle_beta 90.000000
_cell_angle_gamma 90.000000
_cell_volume 2619.464803
_symmetry_space_group_name_H-M "P N N A"
_symmetry_group_IT_number 52
_symmetry_cell_setting 'orthorhombic'
loop_
_space_group_symop_operation_xyz
x,y,z
1/2-x,-y,z
x,1/2-y,1/2-z
1/2-x,1/2+y,1/2-z
-x,-y,-z
1/2+x,y,-z
-x,1/2+y,1/2+z
1/2+x,1/2-y,1/2+z
loop_
_atom_site_type_symbol
_atom_site_label
_atom_site_fract_x
_atom_site_fract_y
_atom_site_fract_z
Si Si1 0.360400 0.246358 0.360968
Si Si2 0.097424 0.203713 0.057587
Si Si3 0.333671 0.980776 0.468182
Si Si4 0.020386 0.220819 0.641795
Si Si5 0.425223 0.443033 0.855622
Si Si6 0.448292 0.144048 0.868113
Si Si7 0.323802 0.466760 0.502394
O O1 0.333450 0.250000 0.250000
O O2 0.360780 0.101138 0.403688
O O3 0.443259 0.285762 0.359070
O O4 0.317581 0.341807 0.431854
O O5 0.132562 0.346450 0.074883
O O6 0.032967 0.142842 0.121299
O O7 0.064706 0.221101 0.947792
O O8 0.157709 0.095723 0.058777
O O9 0.359676 0.000415 0.581719
O O10 0.250000 0.000000 0.466243
O O11 0.052015 0.250000 0.750000
O O12 0.019364 0.061907 0.630675
O O13 0.437481 0.297603 0.898149
O O14 0.425503 0.404101 0.740546
O O15 0.394128 0.064147 0.935329
O O16 0.250000 0.500000 0.556387
#
# Coordination Sequence:
#
# PCOD9409949 Si02
#       7
#     8   8   8   8   8   8   8
#     4  11  24  41  67  92 129 176 218 276 336 399
#     4  11  23  39  68  98 131 175 230 279 331 402
#     4  11  23  45  68  96 138 181 224 277 342 420
#     4  10  20  37  63  97 131 169 226 278 336 393
#     4  10  22  38  67 100 131 171 220 278 342 397
#     4  11  22  40  66  99 135 170 227 284 332 399
#     4  12  25  42  63  95 135 177 218 275 346 403
#
# _framework density 21.378413999999999
#
# number of rings (size 3 to 8) (size 9 to 14) (size 15 to 20)
#    0.000    1.143    2.857    3.000    4.000    3.429 
#    0.000    0.000    0.000    0.000    0.000    0.000 
#    0.000    0.000    0.000    0.000    0.000    0.000 
#
# Total GULP energy -312104.156385 kJ/mol
# GULP energy per Si atom -5573.288507 kJ/mol
# Density = 2.132976 g / cm^3
# Si number density = 21.378414 Si / 1000 Ang^3
#
#
#
# Elastic Constant Matrix: (Units=GPa)
#
#
# Indices 1 2 3 4 5 6 
#
# 1 93.3100 30.3252 5.7123 0.0000 0.0000 0.0000
# 2 30.3252 132.3229 7.7604 0.0000 0.0000 0.0000
# 3 5.7123 7.7604 49.4661 0.0000 0.0000 0.0000
# 4 0.0000 0.0000 0.0000 5.7444 0.0000 0.0000
# 5 0.0000 0.0000 0.0000 0.0000 28.1143 0.0000
# 6 0.0000 0.0000 0.0000 0.0000 0.0000 -20.6527
#
#
#
# Elastic Compliance Matrix: (Units=1/GPa)
#
#
# Indices 1 2 3 4 5 6 
#
# 1 0.011622 -0.002609 -0.000933 0.000000 0.000000 0.000000
# 2 -0.002609 0.008213 -0.000987 0.000000 0.000000 0.000000
# 3 -0.000933 -0.000987 0.020478 0.000000 0.000000 0.000000
# 4 0.000000 0.000000 0.000000 0.174084 0.000000 0.000000
# 5 0.000000 0.000000 0.000000 0.000000 0.035569 0.000000
# 6 0.000000 0.000000 0.000000 0.000000 0.000000 -0.048420
#
#
# Mechanical properties :
#
#
# Convention : Reuss Voigt Hill
#
# Bulk Modulus (GPa) = 31.99407 40.29943 36.14675
# Shear Modulus (GPa) = 22.62214 18.06127 20.34170
#
# Velocity S-wave (km/s) = 3.25649 2.90976 3.08800
# Velocity P-wave (km/s) = 5.39794 5.49367 5.44601
#
# Compressibility (1/GPa) = 0.03125579
#
# Stress axis : x y z
#
# Youngs Moduli (GPa) = 86.04446 121.75774 48.83178
#
# Poissons Ratio (x) = 0.31764 0.04555
# Poissons Ratio (y) = 0.22447 0.04821
# Poissons Ratio (z) = 0.08026 0.12020
#
# Static dielectric constant tensor:
#      x y z
#    x 1.861820 0.000000 0.000000 
#    y 0.000000 1.721080 0.000000 
#    z 0.000000 0.000000 1.809910 
# 
# From -- ./inp_files/28767.got.cif
#   From: 2010.05.17/outbox.cif.g08.bks.cpg/sg52_15_cif.got.tgz:28767.got - 2010.06.03 12:15:38.
