data_PCOD9409086
_publ_section_title
;
Structure prediction by ZEFSAII (Michael W. Deem and Ramdas Pophale) SiO2 
 PCOD9409086
Probable space group: P N N A
;
_chemical_formula_sum "Si O2"
_cell_formula_units_Z 48
_cell_length_a 11.835601
_cell_length_b 14.227259
_cell_length_c 12.409773
_cell_angle_alpha 90.000000
_cell_angle_beta 90.000000
_cell_angle_gamma 90.000000
_cell_volume 2089.658852
_symmetry_space_group_name_H-M "P N N A"
_symmetry_group_IT_number 52
_symmetry_cell_setting 'orthorhombic'
loop_
_space_group_symop_operation_xyz
x,y,z
1/2-x,-y,z
x,1/2-y,1/2-z
1/2-x,1/2+y,1/2-z
-x,-y,-z
1/2+x,y,-z
-x,1/2+y,1/2+z
1/2+x,1/2-y,1/2+z
loop_
_atom_site_type_symbol
_atom_site_label
_atom_site_fract_x
_atom_site_fract_y
_atom_site_fract_z
Si Si1 0.943282 0.669262 0.674696
Si Si2 0.341706 0.070198 0.573575
Si Si3 0.219327 0.149797 0.788757
Si Si4 0.299913 0.101608 0.176397
Si Si5 0.113111 0.780936 0.979602
Si Si6 0.013689 0.027059 0.734367
O O1 0.994968 0.750000 0.750000
O O2 0.812489 0.658960 0.701752
O O3 0.991985 0.567980 0.700261
O O4 0.984158 0.700115 0.557565
O O5 0.287440 0.105311 0.688033
O O6 0.367951 0.168540 0.515548
O O7 0.250000 0.000000 0.520756
O O8 0.444758 0.005860 0.616534
O O9 0.173956 0.250000 0.750000
O O10 0.301516 0.173519 0.889054
O O11 0.111250 0.082828 0.797977
O O12 0.394297 0.080762 0.265925
O O13 0.250000 0.000000 0.139091
O O14 0.361703 0.161172 0.085491
#
# Coordination Sequence:
#
# PCOD9409086 Si02
#       6
#     8   8   8   8   8   8
#     4  11  21  39  60  83 121 166 205 240 308 386
#     4   9  17  34  61  88 113 155 211 253 290 364
#     4   9  18  31  55  85 114 150 199 252 297 348
#     4  10  26  35  54  91 128 158 198 255 325 363
#     4  11  20  35  58  88 122 162 197 250 314 366
#     4  10  19  36  55  86 117 152 202 249 301 363
#
# _framework density 22.970257
#
# number of rings (size 3 to 8) (size 9 to 14) (size 15 to 20)
#    0.000    2.000    3.333    0.500    4.667    2.000 
#    0.000    0.000    0.000    6.000    0.000    0.000 
#    0.000    0.000    0.000    0.000    0.000    0.000 
#
# Total GULP energy -267929.208777 kJ/mol
# GULP energy per Si atom -5581.858516 kJ/mol
# Density = 2.291798 g / cm^3
# Si number density = 22.970257 Si / 1000 Ang^3
#
#
#
# Elastic Constant Matrix: (Units=GPa)
#
#
# Indices 1 2 3 4 5 6 
#
# 1 127.9812 65.5298 16.6162 0.0000 0.0000 0.0000
# 2 65.5298 137.7608 41.6596 0.0000 0.0000 0.0000
# 3 16.6162 41.6596 31.6824 0.0000 0.0000 0.0000
# 4 0.0000 0.0000 0.0000 1.9389 0.0000 0.0000
# 5 0.0000 0.0000 0.0000 0.0000 31.4439 0.0000
# 6 0.0000 0.0000 0.0000 0.0000 0.0000 29.7571
#
#
#
# Elastic Compliance Matrix: (Units=1/GPa)
#
#
# Indices 1 2 3 4 5 6 
#
# 1 0.010387 -0.005468 0.001742 0.000000 0.000000 0.000000
# 2 -0.005468 0.014929 -0.016763 0.000000 0.000000 0.000000
# 3 0.001742 -0.016763 0.052691 0.000000 0.000000 0.000000
# 4 0.000000 0.000000 0.000000 0.515754 0.000000 0.000000
# 5 0.000000 0.000000 0.000000 0.000000 0.031803 0.000000
# 6 0.000000 0.000000 0.000000 0.000000 0.000000 0.033605
#
#
# Mechanical properties :
#
#
# Convention : Reuss Voigt Hill
#
# Bulk Modulus (GPa) = 27.00497 60.55951 43.78224
# Shear Modulus (GPa) = 7.01765 24.20256 15.61010
#
# Velocity S-wave (km/s) = 1.74978 3.24952 2.60970
# Velocity P-wave (km/s) = 3.98301 6.36401 5.30872
#
# Compressibility (1/GPa) = 0.03703022
#
# Stress axis : x y z
#
# Youngs Moduli (GPa) = 96.27341 66.98410 18.97854
#
# Poissons Ratio (x) = 0.36625 -0.03306
# Poissons Ratio (y) = 0.52639 0.31813
# Poissons Ratio (z) = -0.16769 1.12283
#
# Static dielectric constant tensor:
#      x y z
#    x 1.950510 0.000000 0.000000 
#    y 0.000000 1.952440 0.000000 
#    z 0.000000 0.000000 1.864260 
# 
# From -- ./inp_files/26054.got.cif
#   From: 2010.05.17/outbox.cif.g08.bks.cpg/sg52_14_cif.got.tgz:26054.got - 2010.06.03 12:15:38.
