data_PCOD9409084
_publ_section_title
;
Structure prediction by ZEFSAII (Michael W. Deem and Ramdas Pophale) SiO2 
 PCOD9409084
Probable space group: P N N A
;
_chemical_formula_sum "Si O2"
_cell_formula_units_Z 48
_cell_length_a 12.864527
_cell_length_b 8.026203
_cell_length_c 19.931549
_cell_angle_alpha 90.000000
_cell_angle_beta 90.000000
_cell_angle_gamma 90.000000
_cell_volume 2057.998312
_symmetry_space_group_name_H-M "P N N A"
_symmetry_group_IT_number 52
_symmetry_cell_setting 'orthorhombic'
loop_
_space_group_symop_operation_xyz
x,y,z
1/2-x,-y,z
x,1/2-y,1/2-z
1/2-x,1/2+y,1/2-z
-x,-y,-z
1/2+x,y,-z
-x,1/2+y,1/2+z
1/2+x,1/2-y,1/2+z
loop_
_atom_site_type_symbol
_atom_site_label
_atom_site_fract_x
_atom_site_fract_y
_atom_site_fract_z
Si Si1 0.073470 0.999261 0.067180
Si Si2 0.650937 0.675821 0.991173
Si Si3 0.547480 0.356472 0.306668
Si Si4 0.571854 0.618266 0.202457
Si Si5 0.254732 0.796273 0.880249
Si Si6 0.562449 0.370641 0.922781
O O1 0.147765 0.844468 0.052039
O O2 0.013495 0.952143 0.135624
O O3 0.111743 0.186799 0.078617
O O4 0.000000 0.000000 0.000000
O O5 0.641436 0.508553 0.948548
O O6 0.736183 0.708250 0.048513
O O7 0.539576 0.659159 0.030633
O O8 0.487123 0.250000 0.250000
O O9 0.607347 0.481147 0.256055
O O10 0.633944 0.257129 0.348799
O O11 0.514355 0.750000 0.250000
O O12 0.666510 0.714964 0.166729
O O13 0.489955 0.567387 0.146096
O O14 0.250000 0.000000 0.887373
#
# Coordination Sequence:
#
# PCOD9409084 Si02
#       6
#     8   8   8   8   8   8
#     4  10  19  36  55  77 105 159 209 252 290 358
#     4   9  19  34  54  74 102 154 206 245 288 351
#     4  12  24  35  55  86 124 164 204 251 318 394
#     4  11  19  34  52  78 114 156 198 244 309 376
#     4  11  21  35  52  79 119 164 194 243 311 384
#     4   9  17  33  55  71 104 149 202 253 290 338
#
# _framework density 23.323633999999998
#
# number of rings (size 3 to 8) (size 9 to 14) (size 15 to 20)
#    0.000    1.667    3.333    3.500    0.000    1.333 
#    0.000    1.667    0.000    0.000    0.000    0.000 
#    0.000    0.000  209.667    0.000    5.667    6.167 
#
# Total GULP energy -267909.970435 kJ/mol
# GULP energy per Si atom -5581.457717 kJ/mol
# Density = 2.327055 g / cm^3
# Si number density = 23.323634 Si / 1000 Ang^3
#
#
#
# Elastic Constant Matrix: (Units=GPa)
#
#
# Indices 1 2 3 4 5 6 
#
# 1 73.6932 34.3793 56.9811 0.0000 0.0000 0.0000
# 2 34.3793 137.7681 87.5416 0.0000 0.0000 0.0000
# 3 56.9811 87.5416 153.8945 0.0000 0.0000 0.0000
# 4 0.0000 0.0000 0.0000 46.9384 0.0000 0.0000
# 5 0.0000 0.0000 0.0000 0.0000 30.6959 0.0000
# 6 0.0000 0.0000 0.0000 0.0000 0.0000 11.7334
#
#
#
# Elastic Compliance Matrix: (Units=1/GPa)
#
#
# Indices 1 2 3 4 5 6 
#
# 1 0.019029 -0.000425 -0.006804 0.000000 0.000000 0.000000
# 2 -0.000425 0.011377 -0.006314 0.000000 0.000000 0.000000
# 3 -0.006804 -0.006314 0.012609 0.000000 0.000000 0.000000
# 4 0.000000 0.000000 0.000000 0.021305 0.000000 0.000000
# 5 0.000000 0.000000 0.000000 0.000000 0.032578 0.000000
# 6 0.000000 0.000000 0.000000 0.000000 0.000000 0.085227
#
#
# Mechanical properties :
#
#
# Convention : Reuss Voigt Hill
#
# Bulk Modulus (GPa) = 62.78132 80.35111 71.56621
# Shear Modulus (GPa) = 23.30788 30.30378 26.80583
#
# Velocity S-wave (km/s) = 3.16464 3.60845 3.39381
# Velocity P-wave (km/s) = 6.35052 7.20323 6.79028
#
# Compressibility (1/GPa) = 0.01592831
#
# Stress axis : x y z
#
# Youngs Moduli (GPa) = 52.55138 87.89722 79.30895
#
# Poissons Ratio (x) = 0.03738 0.53960
# Poissons Ratio (y) = 0.02235 0.50077
# Poissons Ratio (z) = 0.35755 0.55500
#
# Static dielectric constant tensor:
#      x y z
#    x 1.888880 0.000000 0.000000 
#    y 0.000000 2.066610 0.000000 
#    z 0.000000 0.000000 1.888940 
# 
# From -- ./inp_files/33625.got.cif
#   From: 2010.05.17/outbox.cif.g08.bks.cpg/sg52_17_cif.got.tgz:33625.got - 2010.06.03 12:15:38.
