data_PCOD9409768
_publ_section_title
;
Structure prediction by ZEFSAII (Michael W. Deem and Ramdas Pophale) SiO2 
 PCOD9409768
Probable space group: P N N A
;
_chemical_formula_sum "Si O2"
_cell_formula_units_Z 60
_cell_length_a 13.587214
_cell_length_b 7.725024
_cell_length_c 26.546795
_cell_angle_alpha 90.000000
_cell_angle_beta 90.000000
_cell_angle_gamma 90.000000
_cell_volume 2786.392863
_symmetry_space_group_name_H-M "P N N A"
_symmetry_group_IT_number 52
_symmetry_cell_setting 'orthorhombic'
loop_
_space_group_symop_operation_xyz
x,y,z
1/2-x,-y,z
x,1/2-y,1/2-z
1/2-x,1/2+y,1/2-z
-x,-y,-z
1/2+x,y,-z
-x,1/2+y,1/2+z
1/2+x,1/2-y,1/2+z
loop_
_atom_site_type_symbol
_atom_site_label
_atom_site_fract_x
_atom_site_fract_y
_atom_site_fract_z
Si Si1 0.297525 0.686020 0.498743
Si Si2 0.650927 0.915510 0.282943
Si Si3 0.413550 0.192293 0.352641
Si Si4 0.507166 0.306041 0.864715
Si Si5 0.887542 0.354464 0.041920
Si Si6 0.020318 0.275063 0.948467
Si Si7 0.291906 0.807895 0.115424
Si Si8 0.470538 0.750000 0.750000
O O1 0.250000 0.500000 0.493759
O O2 0.224101 0.797483 0.533733
O O3 0.403121 0.653713 0.523504
O O4 0.307370 0.761458 0.442016
O O5 0.681539 0.750000 0.250000
O O6 0.574227 0.833430 0.322148
O O7 0.750000 0.000000 0.305919
O O8 0.595448 0.074386 0.254221
O O9 0.470425 0.291229 0.397833
O O10 0.296538 0.209543 0.356743
O O11 0.461097 0.245106 0.299705
O O12 0.441252 0.995029 0.366512
O O13 0.448609 0.254547 0.915167
O O14 0.602835 0.188351 0.857124
O O15 0.912568 0.551647 0.057470
O O16 0.935174 0.325104 0.987303
O O17 0.250000 0.000000 0.111896
#
# Coordination Sequence:
#
# PCOD9409768 Si02
#       8
#     8   8   8   8   8   8   8   4
#     4  11  23  36  54  90 133 171 210 266 327 398
#     4  11  24  47  75 100 132 173 226 286 353 406
#     4  10  22  42  66  89 127 172 220 276 332 395
#     4  10  23  41  67  95 126 167 221 276 330 401
#     4  10  20  36  59  88 119 162 215 264 313 387
#     4  10  20  36  61  86 117 170 219 260 318 391
#     4  11  23  38  60  94 137 175 213 264 336 404
#     4  10  24  46  68 102 134 174 224 286 338 408
#
# _framework density 21.533215999999999
#
# number of rings (size 3 to 8) (size 9 to 14) (size 15 to 20)
#    0.000    1.600    3.333    0.800    1.867    5.867 
#    1.200    0.000    0.000    0.000    0.000    0.000 
#    0.000    0.000    0.000    0.000    0.000    0.000 
#
# Total GULP energy -334794.557446 kJ/mol
# GULP energy per Si atom -5579.909291 kJ/mol
# Density = 2.148421 g / cm^3
# Si number density = 21.533216 Si / 1000 Ang^3
#
#
#
# Elastic Constant Matrix: (Units=GPa)
#
#
# Indices 1 2 3 4 5 6 
#
# 1 159.6081 24.6114 53.2255 0.0000 0.0000 0.0000
# 2 24.6114 42.7416 24.0689 0.0000 0.0000 0.0000
# 3 53.2255 24.0689 93.6065 0.0000 0.0000 0.0000
# 4 0.0000 0.0000 0.0000 18.4103 0.0000 0.0000
# 5 0.0000 0.0000 0.0000 0.0000 7.9211 0.0000
# 6 0.0000 0.0000 0.0000 0.0000 0.0000 38.6155
#
#
#
# Elastic Compliance Matrix: (Units=1/GPa)
#
#
# Indices 1 2 3 4 5 6 
#
# 1 0.007932 -0.002371 -0.003900 0.000000 0.000000 0.000000
# 2 -0.002371 0.028066 -0.005869 0.000000 0.000000 0.000000
# 3 -0.003900 -0.005869 0.014410 0.000000 0.000000 0.000000
# 4 0.000000 0.000000 0.000000 0.054317 0.000000 0.000000
# 5 0.000000 0.000000 0.000000 0.000000 0.126246 0.000000
# 6 0.000000 0.000000 0.000000 0.000000 0.000000 0.025896
#
#
# Mechanical properties :
#
#
# Convention : Reuss Voigt Hill
#
# Bulk Modulus (GPa) = 38.27281 55.52974 46.90127
# Shear Modulus (GPa) = 17.24994 25.92606 21.58800
#
# Velocity S-wave (km/s) = 2.83342 3.47364 3.16973
# Velocity P-wave (km/s) = 5.34011 6.47550 5.93502
#
# Compressibility (1/GPa) = 0.02612821
#
# Stress axis : x y z
#
# Youngs Moduli (GPa) = 126.07793 35.62987 69.39719
#
# Poissons Ratio (x) = 0.08447 0.27068
# Poissons Ratio (y) = 0.29890 0.40727
# Poissons Ratio (z) = 0.49175 0.20910
#
# Static dielectric constant tensor:
#      x y z
#    x 1.814670 0.000000 0.000000 
#    y 0.000000 1.900660 0.000000 
#    z 0.000000 0.000000 1.796160 
# 
# From -- ./inp_files/42773.got.cif
#   From: 2010.05.17/outbox.cif.g08.bks.cpg/sg52_22_cif.got.tgz:42773.got - 2010.06.03 12:15:38.
