data_PCOD9409866
_publ_section_title
;
Structure prediction by ZEFSAII (Michael W. Deem and Ramdas Pophale) SiO2 
 PCOD9409866
Probable space group: P N N A
;
_chemical_formula_sum "Si O2"
_cell_formula_units_Z 60
_cell_length_a 11.727580
_cell_length_b 28.445204
_cell_length_c 9.088164
_cell_angle_alpha 90.000000
_cell_angle_beta 90.000000
_cell_angle_gamma 90.000000
_cell_volume 3031.751579
_symmetry_space_group_name_H-M "P N N A"
_symmetry_group_IT_number 52
_symmetry_cell_setting 'orthorhombic'
loop_
_space_group_symop_operation_xyz
x,y,z
1/2-x,-y,z
x,1/2-y,1/2-z
1/2-x,1/2+y,1/2-z
-x,-y,-z
1/2+x,y,-z
-x,1/2+y,1/2+z
1/2+x,1/2-y,1/2+z
loop_
_atom_site_type_symbol
_atom_site_label
_atom_site_fract_x
_atom_site_fract_y
_atom_site_fract_z
Si Si1 0.967337 0.090928 0.172517
Si Si2 0.307833 0.331398 0.566933
Si Si3 0.407649 0.898203 0.878535
Si Si4 0.747663 0.446532 0.155154
Si Si5 0.805081 0.750000 0.250000
Si Si6 0.640309 0.382799 0.905396
Si Si7 0.785032 0.198965 0.740049
Si Si8 0.518185 0.323667 0.138296
O O1 0.914036 0.143062 0.144708
O O2 0.863012 0.064387 0.253021
O O3 0.074070 0.087947 0.282231
O O4 0.015200 0.080497 0.008391
O O5 0.202861 0.369050 0.562885
O O6 0.268662 0.286179 0.657088
O O7 0.326407 0.315219 0.401723
O O8 0.355477 0.937101 0.769649
O O9 0.470689 0.859427 0.777036
O O10 0.750000 0.500000 0.103758
O O11 0.720713 0.411626 0.018490
O O12 0.886081 0.716458 0.152352
O O13 0.708941 0.342120 0.824062
O O14 0.543903 0.356615 0.000963
O O15 0.728185 0.250000 0.750000
O O16 0.896883 0.201134 0.638701
#
# Coordination Sequence:
#
# PCOD9409866 Si02
#       8
#     8   8   8   8   4   8   8   8
#     4  11  21  41  67  88 123 172 204 261 336 385
#     4  10  21  37  58  87 122 165 214 260 314 379
#     4   9  19  39  64  86 122 165 203 258 321 392
#     4  10  24  44  67  99 129 162 216 274 332 408
#     4  10  20  38  56  82 130 164 212 266 310 360
#     4  11  24  41  63  91 132 172 210 265 333 389
#     4  12  22  36  61  92 125 168 226 262 306 384
#     4  10  20  37  57  83 125 170 206 258 321 360
#
# _framework density 19.790541000000001
#
# number of rings (size 3 to 8) (size 9 to 14) (size 15 to 20)
#    0.000    1.600    3.333    2.400    0.000    2.133 
#    3.600    0.667    0.000    0.000    0.000    0.000 
#    0.000    0.000    0.000    0.000    0.000    0.000 
#
# Total GULP energy -334689.301072 kJ/mol
# GULP energy per Si atom -5578.155018 kJ/mol
# Density = 1.974550 g / cm^3
# Si number density = 19.790541 Si / 1000 Ang^3
#
#
#
# Elastic Constant Matrix: (Units=GPa)
#
#
# Indices 1 2 3 4 5 6 
#
# 1 63.0852 11.6218 17.9831 0.0000 0.0000 0.0000
# 2 11.6218 73.7399 18.9609 0.0000 0.0000 0.0000
# 3 17.9831 18.9609 58.2303 0.0000 0.0000 0.0000
# 4 0.0000 0.0000 0.0000 18.4196 0.0000 0.0000
# 5 0.0000 0.0000 0.0000 0.0000 48.3552 0.0000
# 6 0.0000 0.0000 0.0000 0.0000 0.0000 20.7144
#
#
#
# Elastic Compliance Matrix: (Units=1/GPa)
#
#
# Indices 1 2 3 4 5 6 
#
# 1 0.017532 -0.001496 -0.004927 0.000000 0.000000 0.000000
# 2 -0.001496 0.014928 -0.004399 0.000000 0.000000 0.000000
# 3 -0.004927 -0.004399 0.020127 0.000000 0.000000 0.000000
# 4 0.000000 0.000000 0.000000 0.054290 0.000000 0.000000
# 5 0.000000 0.000000 0.000000 0.000000 0.020680 0.000000
# 6 0.000000 0.000000 0.000000 0.000000 0.000000 0.048276
#
#
# Mechanical properties :
#
#
# Convention : Reuss Voigt Hill
#
# Bulk Modulus (GPa) = 32.31774 32.46525 32.39149
# Shear Modulus (GPa) = 24.06262 27.26382 25.66322
#
# Velocity S-wave (km/s) = 3.49071 3.71566 3.60494
# Velocity P-wave (km/s) = 5.71070 5.90323 5.80776
#
# Compressibility (1/GPa) = 0.03094276
#
# Stress axis : x y z
#
# Youngs Moduli (GPa) = 57.03944 66.98796 49.68415
#
# Poissons Ratio (x) = 0.10023 0.24480
# Poissons Ratio (y) = 0.08534 0.21855
# Poissons Ratio (z) = 0.28104 0.29467
#
# Static dielectric constant tensor:
#      x y z
#    x 1.706890 0.000000 0.000000 
#    y 0.000000 1.686880 0.000000 
#    z 0.000000 0.000000 1.734670 
# 
# From -- ./inp_files/9042.got.cif
#   From: 2010.05.17/outbox.cif.g08.bks.cpg/sg52_5_cif.got.tgz:9042.got - 2010.06.03 12:15:38.
