data_PCOD9409370
_publ_section_title
;
Structure prediction by ZEFSAII (Michael W. Deem and Ramdas Pophale) SiO2 
 PCOD9409370
Probable space group: P N N A
;
_chemical_formula_sum "Si O2"
_cell_formula_units_Z 28
_cell_length_a 7.775499
_cell_length_b 9.264950
_cell_length_c 17.313632
_cell_angle_alpha 90.000000
_cell_angle_beta 90.000000
_cell_angle_gamma 90.000000
_cell_volume 1247.267288
_symmetry_space_group_name_H-M "P N N A"
_symmetry_group_IT_number 52
_symmetry_cell_setting 'orthorhombic'
loop_
_space_group_symop_operation_xyz
x,y,z
1/2-x,-y,z
x,1/2-y,1/2-z
1/2-x,1/2+y,1/2-z
-x,-y,-z
1/2+x,y,-z
-x,1/2+y,1/2+z
1/2+x,1/2-y,1/2+z
loop_
_atom_site_type_symbol
_atom_site_label
_atom_site_fract_x
_atom_site_fract_y
_atom_site_fract_z
Si Si1 0.563739 0.978935 0.194809
Si Si2 0.972459 0.850789 0.953779
Si Si3 0.602753 0.740678 0.601675
Si Si4 0.750000 0.500000 0.800252
O O1 0.501708 0.129857 0.155782
O O2 0.403883 0.934868 0.248190
O O3 0.750000 0.000000 0.232801
O O4 0.585457 0.866893 0.123343
O O5 0.780961 0.834156 0.923379
O O6 0.009965 0.733403 0.019495
O O7 0.000000 0.000000 0.000000
O O8 0.655806 0.880899 0.648452
#
# Coordination Sequence:
#
# PCOD9409370 Si02
#       4
#     8   8   8   4
#     4  11  22  44  73  99 135 194 254 292 357 441
#     4  10  19  40  71  98 129 181 245 295 337 431
#     4  11  23  43  70 104 146 184 245 302 365 436
#     4  12  26  46  64 108 160 184 226 320 392 416
#
# _framework density 22.449076999999999
#
# number of rings (size 3 to 8) (size 9 to 14) (size 15 to 20)
#    0.000    1.143    2.857    6.857    0.000    1.143 
#   15.429    0.000    0.000    0.000    0.000    0.000 
#    0.000    0.000    0.000    0.000    0.000    0.000 
#
# Total GULP energy -156426.467024 kJ/mol
# GULP energy per Si atom -5586.659537 kJ/mol
# Density = 2.239798 g / cm^3
# Si number density = 22.449077 Si / 1000 Ang^3
#
#
#
# Elastic Constant Matrix: (Units=GPa)
#
#
# Indices 1 2 3 4 5 6 
#
# 1 128.8982 12.1104 30.7922 0.0000 0.0000 0.0000
# 2 12.1104 61.0703 48.2079 0.0000 0.0000 0.0000
# 3 30.7922 48.2079 111.4142 0.0000 0.0000 0.0000
# 4 0.0000 0.0000 0.0000 23.6825 0.0000 0.0000
# 5 0.0000 0.0000 0.0000 0.0000 26.3562 0.0000
# 6 0.0000 0.0000 0.0000 0.0000 0.0000 25.0985
#
#
#
# Elastic Compliance Matrix: (Units=1/GPa)
#
#
# Indices 1 2 3 4 5 6 
#
# 1 0.008309 0.000251 -0.002405 0.000000 0.000000 0.000000
# 2 0.000251 0.024876 -0.010833 0.000000 0.000000 0.000000
# 3 -0.002405 -0.010833 0.014328 0.000000 0.000000 0.000000
# 4 0.000000 0.000000 0.000000 0.042225 0.000000 0.000000
# 5 0.000000 0.000000 0.000000 0.000000 0.037942 0.000000
# 6 0.000000 0.000000 0.000000 0.000000 0.000000 0.039843
#
#
# Mechanical properties :
#
#
# Convention : Reuss Voigt Hill
#
# Bulk Modulus (GPa) = 46.42880 53.73374 50.08127
# Shear Modulus (GPa) = 24.91570 29.04558 26.98064
#
# Velocity S-wave (km/s) = 3.33509 3.60091 3.47055
# Velocity P-wave (km/s) = 5.96299 6.42468 6.19813
#
# Compressibility (1/GPa) = 0.02153836
#
# Stress axis : x y z
#
# Youngs Moduli (GPa) = 120.35134 40.19897 69.79576
#
# Poissons Ratio (x) = -0.01008 0.16785
# Poissons Ratio (y) = -0.03017 0.75610
# Poissons Ratio (z) = 0.28943 0.43548
#
# Static dielectric constant tensor:
#      x y z
#    x 1.853750 0.000000 0.000000 
#    y 0.000000 1.860240 0.000000 
#    z 0.000000 0.000000 1.954150 
# 
# From -- ./inp_files/30745.got.cif
#   From: 2010.05.17/outbox.cif.g08.bks.cpg/sg52_16_cif.got.tgz:30745.got - 2010.06.03 12:15:38.
