data_PCOD9409294
_publ_section_title
;
Structure prediction by ZEFSAII (Michael W. Deem and Ramdas Pophale) SiO2 
 PCOD9409294
Probable space group: P N N A
;
_chemical_formula_sum "Si O2"
_cell_formula_units_Z 48
_cell_length_a 9.706406
_cell_length_b 7.547407
_cell_length_c 28.677164
_cell_angle_alpha 90.000000
_cell_angle_beta 90.000000
_cell_angle_gamma 90.000000
_cell_volume 2100.837318
_symmetry_space_group_name_H-M "P N N A"
_symmetry_group_IT_number 52
_symmetry_cell_setting 'orthorhombic'
loop_
_space_group_symop_operation_xyz
x,y,z
1/2-x,-y,z
x,1/2-y,1/2-z
1/2-x,1/2+y,1/2-z
-x,-y,-z
1/2+x,y,-z
-x,1/2+y,1/2+z
1/2+x,1/2-y,1/2+z
loop_
_atom_site_type_symbol
_atom_site_label
_atom_site_fract_x
_atom_site_fract_y
_atom_site_fract_z
Si Si1 0.086799 0.540753 0.739356
Si Si2 0.248191 0.814794 0.044854
Si Si3 0.900933 0.079469 0.141090
Si Si4 0.750000 0.500000 0.090926
Si Si5 0.535093 0.984619 0.339928
Si Si6 0.060582 0.708038 0.542164
Si Si7 0.250000 0.500000 0.111107
O O1 0.250000 0.500000 0.737678
O O2 0.063540 0.750000 0.750000
O O3 0.029131 0.496790 0.687678
O O4 0.036552 0.449212 0.786974
O O5 0.402092 0.754406 0.029401
O O6 0.201430 0.658915 0.078133
O O7 0.250000 0.000000 0.071969
O O8 0.144579 0.855157 0.002516
O O9 0.898986 0.287689 0.155233
O O10 0.950908 0.080956 0.087591
O O11 0.750000 0.000000 0.138529
O O12 0.634267 0.409156 0.124603
O O13 0.844566 0.371640 0.059667
O O14 0.381917 0.956450 0.358197
#
# Coordination Sequence:
#
# PCOD9409294 Si02
#       7
#     8   8   8   4   8   8   4
#     4   9  17  32  61  93 127 165 220 286 334 404
#     4  12  27  46  67 100 139 185 242 286 345 416
#     4   9  18  37  62  94 128 172 226 288 338 393
#     4  10  19  38  66  98 132 168 236 279 340 412
#     4  10  20  38  65 102 132 180 225 278 357 418
#     4  11  24  43  66 100 133 185 234 289 351 407
#     4  12  25  46  70 100 150 190 224 287 356 430
#
# _framework density 22.848033000000001
#
# number of rings (size 3 to 8) (size 9 to 14) (size 15 to 20)
#    0.000    1.667    4.167    1.500    2.333    1.333 
#    3.000    0.000    1.833    3.000    0.000    0.000 
#    0.000    0.000    0.000    0.000    0.000    0.000 
#
# Total GULP energy -267509.437651 kJ/mol
# GULP energy per Si atom -5573.113284 kJ/mol
# Density = 2.279603 g / cm^3
# Si number density = 22.848033 Si / 1000 Ang^3
#
#
#
# Elastic Constant Matrix: (Units=GPa)
#
#
# Indices 1 2 3 4 5 6 
#
# 1 99.9048 1.7263 13.4306 0.0000 0.0000 0.0000
# 2 1.7263 58.9894 5.6887 0.0000 0.0000 0.0000
# 3 13.4306 5.6887 121.7327 0.0000 0.0000 0.0000
# 4 0.0000 0.0000 0.0000 14.6068 0.0000 0.0000
# 5 0.0000 0.0000 0.0000 0.0000 20.4361 0.0000
# 6 0.0000 0.0000 0.0000 0.0000 0.0000 17.7916
#
#
#
# Elastic Compliance Matrix: (Units=1/GPa)
#
#
# Indices 1 2 3 4 5 6 
#
# 1 0.010162 -0.000190 -0.001112 0.000000 0.000000 0.000000
# 2 -0.000190 0.017033 -0.000775 0.000000 0.000000 0.000000
# 3 -0.001112 -0.000775 0.008374 0.000000 0.000000 0.000000
# 4 0.000000 0.000000 0.000000 0.068461 0.000000 0.000000
# 5 0.000000 0.000000 0.000000 0.000000 0.048933 0.000000
# 6 0.000000 0.000000 0.000000 0.000000 0.000000 0.056206
#
#
# Mechanical properties :
#
#
# Convention : Reuss Voigt Hill
#
# Bulk Modulus (GPa) = 31.83326 35.81312 33.82319
# Shear Modulus (GPa) = 22.34187 27.88566 25.11377
#
# Velocity S-wave (km/s) = 3.13045 3.49733 3.31896
# Velocity P-wave (km/s) = 5.19895 5.65835 5.43351
#
# Compressibility (1/GPa) = 0.03141368
#
# Stress axis : x y z
#
# Youngs Moduli (GPa) = 98.40251 58.71125 119.42218
#
# Poissons Ratio (x) = 0.01116 0.13283
# Poissons Ratio (y) = 0.01871 0.09255
# Poissons Ratio (z) = 0.10945 0.04550
#
# Static dielectric constant tensor:
#      x y z
#    x 1.827450 0.000000 0.000000 
#    y 0.000000 1.916130 0.000000 
#    z 0.000000 0.000000 1.975310 
# 
# From -- ./inp_files/44423.got.cif
#   From: 2010.05.17/outbox.cif.g08.bks.cpg/sg52_23_cif.got.tgz:44423.got - 2010.06.03 12:15:38.
