data_PCOD9409878
_publ_section_title
;
Structure prediction by ZEFSAII (Michael W. Deem and Ramdas Pophale) SiO2 
 PCOD9409878
Probable space group: P N N A
;
_chemical_formula_sum "Si O2"
_cell_formula_units_Z 52
_cell_length_a 20.614121
_cell_length_b 5.190308
_cell_length_c 18.198214
_cell_angle_alpha 90.000000
_cell_angle_beta 90.000000
_cell_angle_gamma 90.000000
_cell_volume 1947.093105
_symmetry_space_group_name_H-M "P N N A"
_symmetry_group_IT_number 52
_symmetry_cell_setting 'orthorhombic'
loop_
_space_group_symop_operation_xyz
x,y,z
1/2-x,-y,z
x,1/2-y,1/2-z
1/2-x,1/2+y,1/2-z
-x,-y,-z
1/2+x,y,-z
-x,1/2+y,1/2+z
1/2+x,1/2-y,1/2+z
loop_
_atom_site_type_symbol
_atom_site_label
_atom_site_fract_x
_atom_site_fract_y
_atom_site_fract_z
Si Si1 0.602575 0.135357 0.851385
Si Si2 0.155586 0.670524 0.832466
Si Si3 0.360196 0.750000 0.750000
Si Si4 0.560265 0.200479 0.488831
Si Si5 0.185841 0.842007 0.519895
Si Si6 0.816872 0.349046 0.850418
Si Si7 0.960259 0.057896 0.152433
O O1 0.630313 0.423237 0.842577
O O2 0.532447 0.075748 0.817964
O O3 0.653935 0.922288 0.821493
O O4 0.581096 0.136569 0.938188
O O5 0.176180 0.750000 0.750000
O O6 0.176641 0.375137 0.818838
O O7 0.179913 0.817095 0.904627
O O8 0.076948 0.667686 0.848918
O O9 0.410199 0.566352 0.708393
O O10 0.544608 0.398939 0.423409
O O11 0.500000 0.000000 0.500000
O O12 0.623899 0.028046 0.478173
O O13 0.191164 0.755423 0.435804
O O14 0.250000 0.000000 0.530927
O O15 0.750000 0.500000 0.829526
#
# Coordination Sequence:
#
# PCOD9409878 Si02
#       7
#     8   8   4   8   8   8   8
#     4  11  22  35  62  94 122 162 204 255 318 395
#     4  10  21  38  56  80 115 162 210 263 312 352
#     4  10  22  38  60  78 124 156 202 268 310 366
#     4  11  21  37  63  91 130 164 207 270 332 386
#     4  10  20  37  58  83 120 166 212 254 308 377
#     4  10  22  39  60  90 131 163 202 251 322 390
#     4  11  21  36  61  87 120 155 208 257 323 372
#
# _framework density 26.706475999999999
#
# number of rings (size 3 to 8) (size 9 to 14) (size 15 to 20)
#    0.000    1.538    1.538    4.615    2.154    0.000 
#    1.385    2.308    0.000    0.000    0.000    2.154 
#    0.000    0.000    0.000    0.000    0.000    0.000 
#
# Total GULP energy -289574.356103 kJ/mol
# GULP energy per Si atom -5568.737617 kJ/mol
# Density = 2.664569 g / cm^3
# Si number density = 26.706476 Si / 1000 Ang^3
#
#
#
# Elastic Constant Matrix: (Units=GPa)
#
#
# Indices 1 2 3 4 5 6 
#
# 1 131.1586 15.5336 14.4556 0.0000 0.0000 0.0000
# 2 15.5336 85.8514 28.3149 0.0000 0.0000 0.0000
# 3 14.4556 28.3149 95.3346 0.0000 0.0000 0.0000
# 4 0.0000 0.0000 0.0000 36.6708 0.0000 0.0000
# 5 0.0000 0.0000 0.0000 0.0000 23.1333 0.0000
# 6 0.0000 0.0000 0.0000 0.0000 0.0000 43.2683
#
#
#
# Elastic Compliance Matrix: (Units=1/GPa)
#
#
# Indices 1 2 3 4 5 6 
#
# 1 0.007853 -0.001140 -0.000852 0.000000 0.000000 0.000000
# 2 -0.001140 0.013078 -0.003712 0.000000 0.000000 0.000000
# 3 -0.000852 -0.003712 0.011721 0.000000 0.000000 0.000000
# 4 0.000000 0.000000 0.000000 0.027270 0.000000 0.000000
# 5 0.000000 0.000000 0.000000 0.000000 0.043228 0.000000
# 6 0.000000 0.000000 0.000000 0.000000 0.000000 0.023112
#
#
# Mechanical properties :
#
#
# Convention : Reuss Voigt Hill
#
# Bulk Modulus (GPa) = 47.06911 47.66143 47.36527
# Shear Modulus (GPa) = 34.54213 37.55049 36.04631
#
# Velocity S-wave (km/s) = 3.60029 3.75379 3.67784
# Velocity P-wave (km/s) = 5.91148 6.05583 5.98409
#
# Compressibility (1/GPa) = 0.02124536
#
# Stress axis : x y z
#
# Youngs Moduli (GPa) = 127.33530 76.46201 85.31742
#
# Poissons Ratio (x) = 0.08716 0.07271
# Poissons Ratio (y) = 0.14514 0.31666
# Poissons Ratio (z) = 0.10852 0.28379
#
# Static dielectric constant tensor:
#      x y z
#    x 2.063770 0.000000 0.000000 
#    y 0.000000 1.103670 0.000000 
#    z 0.000000 0.000000 1.935290 
# 
# From -- ./inp_files/37899.got.cif
#   From: 2010.05.17/outbox.cif.g08.bks.cpg/sg52_19_cif.got.tgz:37899.got - 2010.06.03 12:15:38.
