data_PCOD9409800
_publ_section_title
;
Structure prediction by ZEFSAII (Michael W. Deem and Ramdas Pophale) SiO2 
 PCOD9409800
Probable space group: P N N A
;
_chemical_formula_sum "Si O2"
_cell_formula_units_Z 64
_cell_length_a 22.543002
_cell_length_b 7.764532
_cell_length_c 18.525030
_cell_angle_alpha 90.000000
_cell_angle_beta 90.000000
_cell_angle_gamma 90.000000
_cell_volume 3242.544565
_symmetry_space_group_name_H-M "P N N A"
_symmetry_group_IT_number 52
_symmetry_cell_setting 'orthorhombic'
loop_
_space_group_symop_operation_xyz
x,y,z
1/2-x,-y,z
x,1/2-y,1/2-z
1/2-x,1/2+y,1/2-z
-x,-y,-z
1/2+x,y,-z
-x,1/2+y,1/2+z
1/2+x,1/2-y,1/2+z
loop_
_atom_site_type_symbol
_atom_site_label
_atom_site_fract_x
_atom_site_fract_y
_atom_site_fract_z
Si Si1 0.592760 0.274418 0.599021
Si Si2 0.282654 0.816525 0.331530
Si Si3 0.123609 0.711664 0.948001
Si Si4 0.457027 0.108345 0.055287
Si Si5 0.044357 0.216400 0.665486
Si Si6 0.244836 0.786087 0.483697
Si Si7 0.533952 0.694413 0.167676
Si Si8 0.134920 0.188615 0.553257
O O1 0.648269 0.194318 0.642402
O O2 0.593301 0.479344 0.585471
O O3 0.530191 0.245621 0.637337
O O4 0.593780 0.200265 0.517888
O O5 0.278995 0.750000 0.250000
O O6 0.250193 0.727774 0.400373
O O7 0.250000 0.000000 0.328419
O O8 0.088132 0.776421 0.877962
O O9 0.140012 0.514032 0.932817
O O10 0.075270 0.741752 0.010738
O O11 0.185845 0.780319 0.977802
O O12 0.493352 0.184518 0.121937
O O13 0.500000 0.000000 0.000000
O O14 0.045200 0.250000 0.750000
O O15 0.103944 0.268551 0.622600
O O16 0.036790 0.011205 0.657689
O O17 0.302850 0.734287 0.528572
O O18 0.250000 0.000000 0.481350
O O19 0.538638 0.750000 0.250000
#
# Coordination Sequence:
#
# PCOD9409800 Si02
#       8
#     8   8   8   8   8   8   8   8
#     4  11  21  38  62  85 121 158 203 250 310 367
#     4  10  22  39  60  86 121 163 204 256 312 368
#     4  10  20  36  61  87 115 158 206 248 304 368
#     4  12  22  37  60  90 125 159 202 254 307 380
#     4  11  23  36  57  87 121 162 202 253 315 365
#     4   8  17  36  60  82 108 151 206 248 294 359
#     4  11  22  37  59  88 123 156 201 255 314 377
#     4   9  18  37  60  83 112 158 206 250 294 368
#
# _framework density 19.737584999999999
#
# number of rings (size 3 to 8) (size 9 to 14) (size 15 to 20)
#    0.000    1.750    2.500    2.625    0.000    3.000 
#    0.000    3.750    0.000    0.000    0.000    0.000 
#    0.000    0.000    0.000    0.000    0.000    0.000 
#
# Total GULP energy -356658.904652 kJ/mol
# GULP energy per Si atom -5572.795385 kJ/mol
# Density = 1.969266 g / cm^3
# Si number density = 19.737585 Si / 1000 Ang^3
#
#
#
# Elastic Constant Matrix: (Units=GPa)
#
#
# Indices 1 2 3 4 5 6 
#
# 1 121.9951 10.8346 82.3487 0.0000 0.0000 0.0000
# 2 10.8346 39.7912 6.8932 0.0000 0.0000 0.0000
# 3 82.3487 6.8932 166.0712 0.0000 0.0000 0.0000
# 4 0.0000 0.0000 0.0000 22.0240 0.0000 0.0000
# 5 0.0000 0.0000 0.0000 0.0000 14.8218 0.0000
# 6 0.0000 0.0000 0.0000 0.0000 0.0000 12.7229
#
#
#
# Elastic Compliance Matrix: (Units=1/GPa)
#
#
# Indices 1 2 3 4 5 6 
#
# 1 0.012536 -0.002354 -0.006119 0.000000 0.000000 0.000000
# 2 -0.002354 0.025755 0.000098 0.000000 0.000000 0.000000
# 3 -0.006119 0.000098 0.009051 0.000000 0.000000 0.000000
# 4 0.000000 0.000000 0.000000 0.045405 0.000000 0.000000
# 5 0.000000 0.000000 0.000000 0.000000 0.067468 0.000000
# 6 0.000000 0.000000 0.000000 0.000000 0.000000 0.078599
#
#
# Mechanical properties :
#
#
# Convention : Reuss Voigt Hill
#
# Bulk Modulus (GPa) = 32.68559 58.66785 45.67672
# Shear Modulus (GPa) = 18.81390 25.09912 21.95651
#
# Velocity S-wave (km/s) = 3.09075 3.56988 3.33892
# Velocity P-wave (km/s) = 5.41599 6.83963 6.16901
#
# Compressibility (1/GPa) = 0.03059452
#
# Stress axis : x y z
#
# Youngs Moduli (GPa) = 79.76896 38.82733 110.47987
#
# Poissons Ratio (x) = 0.09138 0.67598
# Poissons Ratio (y) = 0.18774 -0.01083
# Poissons Ratio (z) = 0.48807 -0.00380
#
# Static dielectric constant tensor:
#      x y z
#    x 1.719100 0.000000 0.000000 
#    y 0.000000 1.769680 0.000000 
#    z 0.000000 0.000000 1.691320 
# 
# From -- ./inp_files/34127.got.cif
#   From: 2010.05.17/outbox.cif.g08.bks.cpg/sg52_18_cif.got.tgz:34127.got - 2010.06.03 12:15:38.
