data_PCOD9409433
_publ_section_title
;
Structure prediction by ZEFSAII (Michael W. Deem and Ramdas Pophale) SiO2 
 PCOD9409433
Probable space group: P N N A
;
_chemical_formula_sum "Si O2"
_cell_formula_units_Z 32
_cell_length_a 8.681737
_cell_length_b 7.892911
_cell_length_c 17.514909
_cell_angle_alpha 90.000000
_cell_angle_beta 90.000000
_cell_angle_gamma 90.000000
_cell_volume 1200.194733
_symmetry_space_group_name_H-M "P N N A"
_symmetry_group_IT_number 52
_symmetry_cell_setting 'orthorhombic'
loop_
_space_group_symop_operation_xyz
x,y,z
1/2-x,-y,z
x,1/2-y,1/2-z
1/2-x,1/2+y,1/2-z
-x,-y,-z
1/2+x,y,-z
-x,1/2+y,1/2+z
1/2+x,1/2-y,1/2+z
loop_
_atom_site_type_symbol
_atom_site_label
_atom_site_fract_x
_atom_site_fract_y
_atom_site_fract_z
Si Si1 0.951787 0.909179 0.107915
Si Si2 0.250000 0.000000 0.756067
Si Si3 0.006425 0.250000 0.250000
Si Si4 0.750000 0.500000 0.960268
Si Si5 0.001971 0.773582 0.542456
Si Si6 0.750000 0.000000 0.828313
O O1 0.853193 0.887638 0.184072
O O2 0.918121 0.799619 0.033749
O O3 0.937465 0.107659 0.085038
O O4 0.133760 0.885434 0.122485
O O5 0.122207 0.883477 0.714363
O O6 0.128172 0.116244 0.215259
O O7 0.870908 0.617545 0.914952
O O8 0.636708 0.607402 0.013837
#
# Coordination Sequence:
#
# PCOD9409433 Si02
#       6
#     8   4   4   4   8   4
#     4  10  20  38  64  87 122 172 212 239 316 401
#     4  10  22  43  65  92 120 167 217 272 324 374
#     4  10  24  44  66  88 124 156 216 278 316 366
#     4  10  20  32  50  82 132 164 194 250 300 332
#     4  10  20  36  57  90 130 164 200 252 300 390
#     4  10  22  43  65  92 120 167 217 272 324 374
#
# _framework density 26.662341000000001
#
# number of rings (size 3 to 8) (size 9 to 14) (size 15 to 20)
#    0.000    2.000    0.000    3.000    0.000    8.000 
#    0.000   37.500    0.000    0.000    0.000    0.000 
#    0.000    0.000    0.000    0.000    0.000    0.000 
#
# Total GULP energy -178620.938730 kJ/mol
# GULP energy per Si atom -5581.904335 kJ/mol
# Density = 2.660166 g / cm^3
# Si number density = 26.662341 Si / 1000 Ang^3
#
#
#
# Elastic Constant Matrix: (Units=GPa)
#
#
# Indices 1 2 3 4 5 6 
#
# 1 181.3897 69.4437 34.6310 0.0000 0.0000 0.0000
# 2 69.4437 134.3758 29.8714 0.0000 0.0000 0.0000
# 3 34.6310 29.8714 58.0952 0.0000 0.0000 0.0000
# 4 0.0000 0.0000 0.0000 23.2811 0.0000 0.0000
# 5 0.0000 0.0000 0.0000 0.0000 34.6347 0.0000
# 6 0.0000 0.0000 0.0000 0.0000 0.0000 85.4729
#
#
#
# Elastic Compliance Matrix: (Units=1/GPa)
#
#
# Indices 1 2 3 4 5 6 
#
# 1 0.007228 -0.003136 -0.002696 0.000000 0.000000 0.000000
# 2 -0.003136 0.009763 -0.003150 0.000000 0.000000 0.000000
# 3 -0.002696 -0.003150 0.020440 0.000000 0.000000 0.000000
# 4 0.000000 0.000000 0.000000 0.042953 0.000000 0.000000
# 5 0.000000 0.000000 0.000000 0.000000 0.028873 0.000000
# 6 0.000000 0.000000 0.000000 0.000000 0.000000 0.011700
#
#
# Mechanical properties :
#
#
# Convention : Reuss Voigt Hill
#
# Bulk Modulus (GPa) = 51.37219 71.30585 61.33902
# Shear Modulus (GPa) = 34.38510 44.67204 39.52857
#
# Velocity S-wave (km/s) = 3.59507 4.09770 3.85458
# Velocity P-wave (km/s) = 6.04501 7.01358 6.54723
#
# Compressibility (1/GPa) = 0.01946579
#
# Stress axis : x y z
#
# Youngs Moduli (GPa) = 138.34239 102.42892 48.92296
#
# Poissons Ratio (x) = 0.32123 0.13191
# Poissons Ratio (y) = 0.43387 0.15413
# Poissons Ratio (z) = 0.37302 0.32269
#
# Static dielectric constant tensor:
#      x y z
#    x 2.037420 0.000000 0.000000 
#    y 0.000000 2.115040 0.000000 
#    z 0.000000 0.000000 2.180370 
# 
# From -- ./inp_files/35523.got.cif
#   From: 2010.05.17/outbox.cif.g08.bks.cpg/sg52_18_cif.got.tgz:35523.got - 2010.06.03 12:15:38.
