data_PCOD9409127
_publ_section_title
;
Structure prediction by ZEFSAII (Michael W. Deem and Ramdas Pophale) SiO2 
 PCOD9409127
Probable space group: P N N A
;
_chemical_formula_sum "Si O2"
_cell_formula_units_Z 64
_cell_length_a 20.529333
_cell_length_b 17.207680
_cell_length_c 8.558600
_cell_angle_alpha 90.000000
_cell_angle_beta 90.000000
_cell_angle_gamma 90.000000
_cell_volume 3023.429804
_symmetry_space_group_name_H-M "P N N A"
_symmetry_group_IT_number 52
_symmetry_cell_setting 'orthorhombic'
loop_
_space_group_symop_operation_xyz
x,y,z
1/2-x,-y,z
x,1/2-y,1/2-z
1/2-x,1/2+y,1/2-z
-x,-y,-z
1/2+x,y,-z
-x,1/2+y,1/2+z
1/2+x,1/2-y,1/2+z
loop_
_atom_site_type_symbol
_atom_site_label
_atom_site_fract_x
_atom_site_fract_y
_atom_site_fract_z
Si Si1 0.883637 0.171282 0.706826
Si Si2 0.575195 0.418256 0.157474
Si Si3 0.280666 0.087710 0.860478
Si Si4 0.778286 0.912402 0.461116
Si Si5 0.490164 0.841164 0.924739
Si Si6 0.264157 0.090759 0.204788
Si Si7 0.020311 0.821983 0.552408
Si Si8 0.436442 0.080286 0.824466
O O1 0.845749 0.250000 0.750000
O O2 0.948199 0.171284 0.810776
O O3 0.839627 0.099672 0.748622
O O4 0.909644 0.175664 0.533304
O O5 0.646691 0.417180 0.086665
O O6 0.568722 0.363590 0.311509
O O7 0.524698 0.386748 0.029819
O O8 0.557354 0.503447 0.220391
O O9 0.258795 0.122660 0.691963
O O10 0.359705 0.085989 0.867552
O O11 0.250000 0.000000 0.855305
O O12 0.256132 0.122933 0.027141
O O13 0.770501 0.877701 0.636723
O O14 0.750000 0.000000 0.476619
O O15 0.485178 0.759668 0.015333
O O16 0.514291 0.912218 0.031002
O O17 0.250000 0.000000 0.189998
O O18 0.039054 0.846332 0.724396
#
# Coordination Sequence:
#
# PCOD9409127 Si02
#       8
#     8   8   8   8   8   8   8   8
#     4   9  18  36  60  83 118 162 206 267 328 394
#     4  11  22  40  63  92 130 173 221 276 338 401
#     4  10  19  36  60  94 135 163 205 278 335 385
#     4  10  20  38  60  90 130 169 209 275 332 388
#     4  10  22  41  62  91 131 169 212 274 351 401
#     4  10  20  34  61  89 122 169 210 263 338 388
#     4  10  23  39  63  91 129 170 214 274 345 410
#     4  12  20  38  67  99 129 164 229 280 333 402
#
# _framework density 21.168012999999998
#
# number of rings (size 3 to 8) (size 9 to 14) (size 15 to 20)
#    0.000    1.750    3.750    3.000    1.750    0.000 
#    2.250    0.000    5.500    0.000    0.000    0.000 
#    0.000    0.000    0.000    0.000    0.000    0.000 
#
# Total GULP energy -356446.774066 kJ/mol
# GULP energy per Si atom -5569.480845 kJ/mol
# Density = 2.111983 g / cm^3
# Si number density = 21.168013 Si / 1000 Ang^3
#
#
#
# Elastic Constant Matrix: (Units=GPa)
#
#
# Indices 1 2 3 4 5 6 
#
# 1 73.2628 28.9020 25.1244 0.0000 0.0000 0.0000
# 2 28.9020 57.2420 21.6348 0.0000 0.0000 0.0000
# 3 25.1244 21.6348 142.3964 0.0000 0.0000 0.0000
# 4 0.0000 0.0000 0.0000 16.1855 0.0000 0.0000
# 5 0.0000 0.0000 0.0000 0.0000 42.6176 0.0000
# 6 0.0000 0.0000 0.0000 0.0000 0.0000 9.2326
#
#
#
# Elastic Compliance Matrix: (Units=1/GPa)
#
#
# Indices 1 2 3 4 5 6 
#
# 1 0.017492 -0.008133 -0.001851 0.000000 0.000000 0.000000
# 2 -0.008133 0.022315 -0.001955 0.000000 0.000000 0.000000
# 3 -0.001851 -0.001955 0.007646 0.000000 0.000000 0.000000
# 4 0.000000 0.000000 0.000000 0.061784 0.000000 0.000000
# 5 0.000000 0.000000 0.000000 0.000000 0.023464 0.000000
# 6 0.000000 0.000000 0.000000 0.000000 0.000000 0.108311
#
#
# Mechanical properties :
#
#
# Convention : Reuss Voigt Hill
#
# Bulk Modulus (GPa) = 42.41585 47.13593 44.77589
# Shear Modulus (GPa) = 18.33184 26.75650 22.54417
#
# Velocity S-wave (km/s) = 2.94601 3.55914 3.26699
# Velocity P-wave (km/s) = 5.62611 6.26146 5.95227
#
# Compressibility (1/GPa) = 0.02357609
#
# Stress axis : x y z
#
# Youngs Moduli (GPa) = 57.16746 44.81298 130.78219
#
# Poissons Ratio (x) = 0.36445 0.24205
# Poissons Ratio (y) = 0.46492 0.25574
# Poissons Ratio (z) = 0.10580 0.08763
#
# Static dielectric constant tensor:
#      x y z
#    x 1.725270 0.000000 0.000000 
#    y 0.000000 1.781970 0.000000 
#    z 0.000000 0.000000 1.897190 
# 
# From -- ./inp_files/13605.got.cif
#   From: 2010.05.17/outbox.cif.g08.bks.cpg/sg52_7_cif.got.tgz:13605.got - 2010.06.03 12:15:38.
