data_PCOD9409567
_publ_section_title
;
Structure prediction by ZEFSAII (Michael W. Deem and Ramdas Pophale) SiO2 
 PCOD9409567
Probable space group: P N N A
;
_chemical_formula_sum "Si O2"
_cell_formula_units_Z 56
_cell_length_a 22.581876
_cell_length_b 8.642994
_cell_length_c 14.291080
_cell_angle_alpha 90.000000
_cell_angle_beta 90.000000
_cell_angle_gamma 90.000000
_cell_volume 2789.261807
_symmetry_space_group_name_H-M "P N N A"
_symmetry_group_IT_number 52
_symmetry_cell_setting 'orthorhombic'
loop_
_space_group_symop_operation_xyz
x,y,z
1/2-x,-y,z
x,1/2-y,1/2-z
1/2-x,1/2+y,1/2-z
-x,-y,-z
1/2+x,y,-z
-x,1/2+y,1/2+z
1/2+x,1/2-y,1/2+z
loop_
_atom_site_type_symbol
_atom_site_label
_atom_site_fract_x
_atom_site_fract_y
_atom_site_fract_z
Si Si1 0.533795 0.821223 0.607803
Si Si2 0.346252 0.172935 0.053631
Si Si3 0.267488 0.679058 0.147288
Si Si4 0.083427 0.335475 0.657078
Si Si5 0.117562 0.806551 0.842748
Si Si6 0.879214 0.687996 0.553073
Si Si7 0.495327 0.837800 0.390451
O O1 0.600320 0.759765 0.607486
O O2 0.486709 0.701119 0.649983
O O3 0.514577 0.838543 0.499420
O O4 0.525191 0.994599 0.645548
O O5 0.284311 0.225868 0.095468
O O6 0.358722 0.989695 0.062355
O O7 0.351035 0.214279 0.943069
O O8 0.250000 0.500000 0.152704
O O9 0.274969 0.750000 0.250000
O O10 0.328345 0.702027 0.091684
O O11 0.105793 0.250000 0.750000
O O12 0.099439 0.514463 0.663393
O O13 0.109110 0.279241 0.557104
O O14 0.151381 0.750000 0.750000
O O15 0.056199 0.711881 0.843947
O O16 0.939880 0.721184 0.609633
#
# Coordination Sequence:
#
# PCOD9409567 Si02
#       7
#     8   8   8   8   8   8   8
#     4   9  17  31  53  81 113 148 186 228 276 329
#     4  10  21  39  60  84 116 151 190 237 286 334
#     4  12  26  44  65  86 109 142 187 236 286 340
#     4  10  20  34  56  86 120 155 190 231 280 337
#     4  10  20  34  56  86 120 155 190 231 280 337
#     4  10  21  39  60  84 116 151 190 237 286 334
#     4   9  17  31  53  81 113 148 186 228 276 329
#
# _framework density 20.076996000000001
#
# number of rings (size 3 to 8) (size 9 to 14) (size 15 to 20)
#    0.000    2.000    0.000    3.857    0.000    8.000 
#    0.000    6.429    0.000    0.000    0.000    0.000 
#    0.000    0.000    0.000    0.000    0.000    0.000 
#
# Total GULP energy -312696.330645 kJ/mol
# GULP energy per Si atom -5583.863047 kJ/mol
# Density = 2.003130 g / cm^3
# Si number density = 20.076996 Si / 1000 Ang^3
#
#
#
# Elastic Constant Matrix: (Units=GPa)
#
#
# Indices 1 2 3 4 5 6 
#
# 1 46.0320 -17.6078 5.8222 0.0000 0.0000 0.0000
# 2 -17.6078 26.6950 6.2847 0.0000 0.0000 0.0000
# 3 5.8222 6.2847 83.8406 0.0000 0.0000 0.0000
# 4 0.0000 0.0000 0.0000 29.4825 0.0000 0.0000
# 5 0.0000 0.0000 0.0000 0.0000 14.8072 0.0000
# 6 0.0000 0.0000 0.0000 0.0000 0.0000 31.5258
#
#
#
# Elastic Compliance Matrix: (Units=1/GPa)
#
#
# Indices 1 2 3 4 5 6 
#
# 1 0.030110 0.020718 -0.003644 0.000000 0.000000 0.000000
# 2 0.020718 0.052389 -0.005366 0.000000 0.000000 0.000000
# 3 -0.003644 -0.005366 0.012583 0.000000 0.000000 0.000000
# 4 0.000000 0.000000 0.000000 0.033918 0.000000 0.000000
# 5 0.000000 0.000000 0.000000 0.000000 0.067535 0.000000
# 6 0.000000 0.000000 0.000000 0.000000 0.000000 0.031720
#
#
# Mechanical properties :
#
#
# Convention : Reuss Voigt Hill
#
# Bulk Modulus (GPa) = 8.43895 16.17397 12.30646
# Shear Modulus (GPa) = 20.46350 25.96767 23.21559
#
# Velocity S-wave (km/s) = 3.19603 3.60029 3.40417
# Velocity P-wave (km/s) = 4.22279 5.03550 4.64695
#
# Compressibility (1/GPa) = 0.11849816
#
# Stress axis : x y z
#
# Youngs Moduli (GPa) = 33.21173 19.08796 79.47436
#
# Poissons Ratio (x) = -0.39547 0.28960
# Poissons Ratio (y) = -0.68808 0.42645
# Poissons Ratio (z) = 0.12102 0.10242
#
# Static dielectric constant tensor:
#      x y z
#    x 1.664990 0.000000 0.000000 
#    y 0.000000 1.711630 0.000000 
#    z 0.000000 0.000000 1.756280 
# 
# From -- ./inp_files/28762.got.cif
#   From: 2010.05.17/outbox.cif.g08.bks.cpg/sg52_15_cif.got.tgz:28762.got - 2010.06.03 12:15:38.
