data_PCOD9409796
_publ_section_title
;
Structure prediction by ZEFSAII (Michael W. Deem and Ramdas Pophale) SiO2 
 PCOD9409796
Probable space group: P N N A
;
_chemical_formula_sum "Si O2"
_cell_formula_units_Z 44
_cell_length_a 9.626169
_cell_length_b 14.455846
_cell_length_c 17.825807
_cell_angle_alpha 90.000000
_cell_angle_beta 90.000000
_cell_angle_gamma 90.000000
_cell_volume 2480.539774
_symmetry_space_group_name_H-M "P N N A"
_symmetry_group_IT_number 52
_symmetry_cell_setting 'orthorhombic'
loop_
_space_group_symop_operation_xyz
x,y,z
1/2-x,-y,z
x,1/2-y,1/2-z
1/2-x,1/2+y,1/2-z
-x,-y,-z
1/2+x,y,-z
-x,1/2+y,1/2+z
1/2+x,1/2-y,1/2+z
loop_
_atom_site_type_symbol
_atom_site_label
_atom_site_fract_x
_atom_site_fract_y
_atom_site_fract_z
Si Si1 0.853715 0.665616 0.936001
Si Si2 0.586514 0.486295 0.815559
Si Si3 0.750000 0.000000 0.051868
Si Si4 0.942736 0.408420 0.958792
Si Si5 0.748794 0.129695 0.913122
Si Si6 0.022912 0.988539 0.150862
O O1 0.915355 0.607616 0.865483
O O2 0.720994 0.608741 0.967365
O O3 0.792944 0.764151 0.913407
O O4 0.968845 0.671334 0.001309
O O5 0.750000 0.500000 0.796755
O O6 0.539861 0.568669 0.871213
O O7 0.503885 0.490763 0.738544
O O8 0.883614 0.984375 0.103232
O O9 0.773547 0.087174 0.996084
O O10 0.000000 0.500000 0.000000
O O11 0.620230 0.070566 0.880937
O O12 0.883470 0.102796 0.864050
#
# Coordination Sequence:
#
# PCOD9409796 Si02
#       6
#     8   8   4   8   8   8
#     4  10  21  33  61  87 108 146 194 232 268 336
#     4   9  17  38  55  79 111 149 188 216 279 340
#     4  10  22  36  58  80 114 144 192 228 290 322
#     4   9  19  36  56  81 112 146 185 228 276 330
#     4  10  20  36  61  80 110 145 193 233 273 333
#     4  10  20  38  57  80 114 151 181 231 289 330
#
# _framework density 17.738074000000001
#
# number of rings (size 3 to 8) (size 9 to 14) (size 15 to 20)
#    0.000    2.545    1.818    3.818    5.091    0.727 
#    6.545    0.000    0.000    0.000    0.000    0.000 
#    0.000    0.000    0.000    0.000    0.000    0.000 
#
# Total GULP energy -245098.122340 kJ/mol
# GULP energy per Si atom -5570.411871 kJ/mol
# Density = 1.769770 g / cm^3
# Si number density = 17.738074 Si / 1000 Ang^3
#
#
#
# Elastic Constant Matrix: (Units=GPa)
#
#
# Indices 1 2 3 4 5 6 
#
# 1 66.5929 10.0595 40.2981 0.0000 0.0000 0.0000
# 2 10.0595 75.1542 19.5648 0.0000 0.0000 0.0000
# 3 40.2981 19.5648 119.3789 0.0000 0.0000 0.0000
# 4 0.0000 0.0000 0.0000 7.3819 0.0000 0.0000
# 5 0.0000 0.0000 0.0000 0.0000 23.6973 0.0000
# 6 0.0000 0.0000 0.0000 0.0000 0.0000 15.0348
#
#
#
# Elastic Compliance Matrix: (Units=1/GPa)
#
#
# Indices 1 2 3 4 5 6 
#
# 1 0.018931 -0.000909 -0.006241 0.000000 0.000000 0.000000
# 2 -0.000909 0.013943 -0.001978 0.000000 0.000000 0.000000
# 3 -0.006241 -0.001978 0.010808 0.000000 0.000000 0.000000
# 4 0.000000 0.000000 0.000000 0.135466 0.000000 0.000000
# 5 0.000000 0.000000 0.000000 0.000000 0.042199 0.000000
# 6 0.000000 0.000000 0.000000 0.000000 0.000000 0.066512
#
#
# Mechanical properties :
#
#
# Convention : Reuss Voigt Hill
#
# Bulk Modulus (GPa) = 39.33301 44.55232 41.94266
# Shear Modulus (GPa) = 15.89365 21.96969 18.93167
#
# Velocity S-wave (km/s) = 2.99661 3.52314 3.27048
# Velocity P-wave (km/s) = 5.84768 6.45920 6.16103
#
# Compressibility (1/GPa) = 0.02542394
#
# Stress axis : x y z
#
# Youngs Moduli (GPa) = 52.82370 71.72245 92.52598
#
# Poissons Ratio (x) = 0.06520 0.57749
# Poissons Ratio (y) = 0.04802 0.18303
# Poissons Ratio (z) = 0.32969 0.14188
#
# Static dielectric constant tensor:
#      x y z
#    x 1.614800 0.000000 0.000000 
#    y 0.000000 1.648040 0.000000 
#    z 0.000000 0.000000 1.623450 
# 
# From -- ./inp_files/31150.got.cif
#   From: 2010.05.17/outbox.cif.g08.bks.cpg/sg52_16_cif.got.tgz:31150.got - 2010.06.03 12:15:38.
