data_PCOD9409570
_publ_section_title
;
Structure prediction by ZEFSAII (Michael W. Deem and Ramdas Pophale) SiO2 
 PCOD9409570
Probable space group: P N N A
;
_chemical_formula_sum "Si O2"
_cell_formula_units_Z 32
_cell_length_a 23.381460
_cell_length_b 4.994966
_cell_length_c 13.259375
_cell_angle_alpha 90.000000
_cell_angle_beta 90.000000
_cell_angle_gamma 90.000000
_cell_volume 1548.557072
_symmetry_space_group_name_H-M "P N N A"
_symmetry_group_IT_number 52
_symmetry_cell_setting 'orthorhombic'
loop_
_space_group_symop_operation_xyz
x,y,z
1/2-x,-y,z
x,1/2-y,1/2-z
1/2-x,1/2+y,1/2-z
-x,-y,-z
1/2+x,y,-z
-x,1/2+y,1/2+z
1/2+x,1/2-y,1/2+z
loop_
_atom_site_type_symbol
_atom_site_label
_atom_site_fract_x
_atom_site_fract_y
_atom_site_fract_z
Si Si1 0.035080 0.508369 0.820985
Si Si2 0.139261 0.909985 0.539074
Si Si3 0.312560 0.618494 0.644968
Si Si4 0.096048 0.494142 0.179052
O O1 0.054523 0.750000 0.750000
O O2 0.079563 0.489596 0.911541
O O3 0.969755 0.567743 0.853288
O O4 0.034179 0.250000 0.750000
O O5 0.153609 0.623477 0.589993
O O6 0.131510 0.927002 0.419601
O O7 0.186109 0.128128 0.571434
O O8 0.250000 0.500000 0.666391
O O9 0.334861 0.750000 0.750000
O O10 0.093885 0.750000 0.250000
O O11 0.116357 0.250000 0.250000
#
# Coordination Sequence:
#
# PCOD9409570 Si02
#       4
#     8   8   8   8
#     4  10  20  34  56  89 123 152 190 237 291 355
#     4  12  22  38  64  87 117 160 200 236 294 359
#     4  12  25  41  62  90 120 149 189 247 307 361
#     4  10  22  39  58  86 123 159 197 242 285 339
#
# _framework density 20.664397000000001
#
# number of rings (size 3 to 8) (size 9 to 14) (size 15 to 20)
#    0.000    1.000    0.000    9.000    0.000    0.000 
#    0.000   10.000    0.000   15.000    0.000    0.000 
#    0.000    0.000    0.000    0.000    0.000    0.000 
#
# Total GULP energy -178732.236844 kJ/mol
# GULP energy per Si atom -5585.382401 kJ/mol
# Density = 2.061736 g / cm^3
# Si number density = 20.664397 Si / 1000 Ang^3
#
#
#
# Elastic Constant Matrix: (Units=GPa)
#
#
# Indices 1 2 3 4 5 6 
#
# 1 45.6009 20.1663 47.6204 0.0000 0.0000 0.0000
# 2 20.1663 145.4832 59.9183 0.0000 0.0000 0.0000
# 3 47.6204 59.9183 145.2664 0.0000 0.0000 0.0000
# 4 0.0000 0.0000 0.0000 27.1598 0.0000 0.0000
# 5 0.0000 0.0000 0.0000 0.0000 25.7134 0.0000
# 6 0.0000 0.0000 0.0000 0.0000 0.0000 48.5850
#
#
#
# Elastic Compliance Matrix: (Units=1/GPa)
#
#
# Indices 1 2 3 4 5 6 
#
# 1 0.033347 -0.000145 -0.010872 0.000000 0.000000 0.000000
# 2 -0.000145 0.008281 -0.003368 0.000000 0.000000 0.000000
# 3 -0.010872 -0.003368 0.011837 0.000000 0.000000 0.000000
# 4 0.000000 0.000000 0.000000 0.036819 0.000000 0.000000
# 5 0.000000 0.000000 0.000000 0.000000 0.038890 0.000000
# 6 0.000000 0.000000 0.000000 0.000000 0.000000 0.020582
#
#
# Mechanical properties :
#
#
# Convention : Reuss Voigt Hill
#
# Bulk Modulus (GPa) = 40.49371 65.75116 53.12244
# Shear Modulus (GPa) = 26.77267 34.20135 30.48701
#
# Velocity S-wave (km/s) = 3.60334 4.07269 3.84518
# Velocity P-wave (km/s) = 6.07869 7.34870 6.74366
#
# Compressibility (1/GPa) = 0.02469519
#
# Stress axis : x y z
#
# Youngs Moduli (GPa) = 29.98803 120.75948 84.48008
#
# Poissons Ratio (x) = 0.01748 0.91845
# Poissons Ratio (y) = 0.00434 0.28454
# Poissons Ratio (z) = 0.32602 0.40674
#
# Static dielectric constant tensor:
#      x y z
#    x 1.787960 0.000000 0.000000 
#    y 0.000000 1.659640 0.000000 
#    z 0.000000 0.000000 1.697130 
# 
# From -- ./inp_files/21202.got.cif
#   From: 2010.05.17/outbox.cif.g08.bks.cpg/sg52_11_cif.got.tgz:21202.got - 2010.06.03 12:15:38.
