data_PCOD9409479
_publ_section_title
;
Structure prediction by ZEFSAII (Michael W. Deem and Ramdas Pophale) SiO2 
 PCOD9409479
Probable space group: P N N A
;
_chemical_formula_sum "Si O2"
_cell_formula_units_Z 60
_cell_length_a 5.214794
_cell_length_b 30.806966
_cell_length_c 18.176584
_cell_angle_alpha 90.000000
_cell_angle_beta 90.000000
_cell_angle_gamma 90.000000
_cell_volume 2920.104236
_symmetry_space_group_name_H-M "P N N A"
_symmetry_group_IT_number 52
_symmetry_cell_setting 'orthorhombic'
loop_
_space_group_symop_operation_xyz
x,y,z
1/2-x,-y,z
x,1/2-y,1/2-z
1/2-x,1/2+y,1/2-z
-x,-y,-z
1/2+x,y,-z
-x,1/2+y,1/2+z
1/2+x,1/2-y,1/2+z
loop_
_atom_site_type_symbol
_atom_site_label
_atom_site_fract_x
_atom_site_fract_y
_atom_site_fract_z
Si Si1 0.357054 0.043201 0.194761
Si Si2 0.750000 0.500000 0.191034
Si Si3 0.044028 0.585433 0.807466
Si Si4 0.521810 0.676861 0.164583
Si Si5 0.968623 0.651293 0.548777
Si Si6 0.826796 0.879985 0.168067
Si Si7 0.530111 0.697846 0.749164
Si Si8 0.981956 0.251036 0.045561
O O1 0.543728 0.019949 0.253308
O O2 0.167135 0.069319 0.249047
O O3 0.493533 0.079678 0.145314
O O4 0.250000 0.000000 0.154206
O O5 0.636591 0.542103 0.151292
O O6 0.981335 0.626641 0.857440
O O7 0.252186 0.605152 0.750636
O O8 0.810910 0.686271 0.190882
O O9 0.455724 0.712408 0.104284
O O10 0.317031 0.683814 0.229795
O O11 0.187445 0.644583 0.485454
O O12 0.078813 0.623889 0.616603
O O13 0.981585 0.701828 0.572671
O O14 0.952436 0.832188 0.178810
O O15 0.525186 0.750000 0.750000
O O16 0.689400 0.255701 0.019436
#
# Coordination Sequence:
#
# PCOD9409479 Si02
#       8
#     8   4   8   8   8   8   8   8
#     4   9  16  31  52  78 108 139 172 217 282 346
#     4   8  16  30  50  78 114 138 172 208 278 350
#     4   9  18  31  52  83 109 140 171 222 284 339
#     4  11  21  35  54  81 112 141 184 226 266 333
#     4  10  23  37  55  75 102 147 199 233 265 316
#     4  10  20  33  52  77 110 141 181 228 280 332
#     4  11  22  33  51  82 114 144 171 221 289 335
#     4  10  21  39  55  74 104 150 193 229 262 308
#
# _framework density 20.547211999999998
#
# number of rings (size 3 to 8) (size 9 to 14) (size 15 to 20)
#    0.000    2.133    1.333    2.000    1.867    3.200 
#    0.000    0.000    0.000    0.800    0.000    0.933 
#    0.000    0.000    0.000    0.000    0.000    0.000 
#
# Total GULP energy -334171.186616 kJ/mol
# GULP energy per Si atom -5569.519777 kJ/mol
# Density = 2.050045 g / cm^3
# Si number density = 20.547212 Si / 1000 Ang^3
#
#
#
# Elastic Constant Matrix: (Units=GPa)
#
#
# Indices 1 2 3 4 5 6 
#
# 1 53.7399 36.3400 -0.4179 0.0000 0.0000 0.0000
# 2 36.3400 109.2968 1.4610 0.0000 0.0000 0.0000
# 3 -0.4179 1.4610 8.6990 0.0000 0.0000 0.0000
# 4 0.0000 0.0000 0.0000 16.7434 0.0000 0.0000
# 5 0.0000 0.0000 0.0000 0.0000 17.1885 0.0000
# 6 0.0000 0.0000 0.0000 0.0000 0.0000 21.1888
#
#
#
# Elastic Compliance Matrix: (Units=1/GPa)
#
#
# Indices 1 2 3 4 5 6 
#
# 1 0.024060 -0.008033 0.002505 0.000000 0.000000 0.000000
# 2 -0.008033 0.011852 -0.002376 0.000000 0.000000 0.000000
# 3 0.002505 -0.002376 0.115475 0.000000 0.000000 0.000000
# 4 0.000000 0.000000 0.000000 0.059725 0.000000 0.000000
# 5 0.000000 0.000000 0.000000 0.000000 0.058178 0.000000
# 6 0.000000 0.000000 0.000000 0.000000 0.000000 0.047195
#
#
# Mechanical properties :
#
#
# Convention : Reuss Voigt Hill
#
# Bulk Modulus (GPa) = 7.37585 27.38908 17.38247
# Shear Modulus (GPa) = 13.24552 19.98100 16.61326
#
# Velocity S-wave (km/s) = 2.54173 3.12179 2.84657
# Velocity P-wave (km/s) = 3.49447 5.13350 4.39114
#
# Compressibility (1/GPa) = 0.13557755
#
# Stress axis : x y z
#
# Youngs Moduli (GPa) = 41.56319 84.37346 8.65990
#
# Poissons Ratio (x) = 0.67778 -0.02169
# Poissons Ratio (y) = 0.33388 0.02058
# Poissons Ratio (z) = -0.10412 0.20051
#
# Static dielectric constant tensor:
#      x y z
#    x 1.862850 0.000000 0.000000 
#    y 0.000000 1.877140 0.000000 
#    z 0.000000 0.000000 1.742640 
# 
# From -- ./inp_files/30380.got.cif
#   From: 2010.05.17/outbox.cif.g08.bks.cpg/sg52_16_cif.got.tgz:30380.got - 2010.06.03 12:15:38.
