data_PCOD9409391
_publ_section_title
;
Structure prediction by ZEFSAII (Michael W. Deem and Ramdas Pophale) SiO2 
 PCOD9409391
Probable space group: P N N A
;
_chemical_formula_sum "Si O2"
_cell_formula_units_Z 64
_cell_length_a 19.135069
_cell_length_b 17.667319
_cell_length_c 7.187048
_cell_angle_alpha 90.000000
_cell_angle_beta 90.000000
_cell_angle_gamma 90.000000
_cell_volume 2429.692028
_symmetry_space_group_name_H-M "P N N A"
_symmetry_group_IT_number 52
_symmetry_cell_setting 'orthorhombic'
loop_
_space_group_symop_operation_xyz
x,y,z
1/2-x,-y,z
x,1/2-y,1/2-z
1/2-x,1/2+y,1/2-z
-x,-y,-z
1/2+x,y,-z
-x,1/2+y,1/2+z
1/2+x,1/2-y,1/2+z
loop_
_atom_site_type_symbol
_atom_site_label
_atom_site_fract_x
_atom_site_fract_y
_atom_site_fract_z
Si Si1 0.964320 0.089038 0.852815
Si Si2 0.866273 0.019644 0.104692
Si Si3 0.278275 0.271411 0.025765
Si Si4 0.937385 0.819627 0.386686
Si Si5 0.817615 0.894937 0.597070
Si Si6 0.432331 0.244650 0.024384
Si Si7 0.918063 0.469206 0.000757
Si Si8 0.728128 0.112696 0.022844
O O1 0.037709 0.112370 0.753594
O O2 0.100442 0.948308 0.708248
O O3 0.916525 0.090402 0.666336
O O4 0.950608 0.156594 0.996686
O O5 0.805053 0.075245 0.031991
O O6 0.930434 0.016253 0.956287
O O7 0.824643 0.940709 0.137252
O O8 0.276835 0.250000 0.250000
O O9 0.250438 0.356829 0.003527
O O10 0.356961 0.265600 0.955382
O O11 0.235424 0.201555 0.935714
O O12 0.922321 0.750000 0.250000
O O13 0.875644 0.836904 0.524566
O O14 0.002115 0.796549 0.520268
O O15 0.855603 0.972778 0.549509
O O16 0.801171 0.895410 0.814180
O O17 0.429993 0.250000 0.250000
O O18 0.000000 0.500000 0.000000
#
# Coordination Sequence:
#
# PCOD9409391 Si02
#       8
#     8   8   8   8   8   8   8   8
#     4  10  19  43  73 100 142 192 243 310 365 450
#     4  11  24  44  72 108 143 195 254 305 378 460
#     4   9  18  36  68 101 136 189 245 297 376 444
#     4   9  20  37  68 104 144 191 247 298 379 449
#     4  11  22  41  70 109 151 197 240 312 392 439
#     4   8  16  35  68 102 131 190 244 296 362 441
#     4  12  26  46  70 113 149 195 255 311 386 460
#     4  10  22  45  67 104 148 191 248 307 378 453
#
# _framework density 26.340786999999999
#
# number of rings (size 3 to 8) (size 9 to 14) (size 15 to 20)
#    0.000    2.250    3.750    0.000    1.750    1.500 
#    4.500    5.000    0.000   10.500    0.000    0.000 
#    0.000    0.000    0.000    0.000    0.000    0.000 
#
# Total GULP energy -357357.653871 kJ/mol
# GULP energy per Si atom -5583.713342 kJ/mol
# Density = 2.628083 g / cm^3
# Si number density = 26.340787 Si / 1000 Ang^3
#
#
#
# Elastic Constant Matrix: (Units=GPa)
#
#
# Indices 1 2 3 4 5 6 
#
# 1 160.1693 22.9593 45.8235 0.0000 0.0000 0.0000
# 2 22.9593 63.5888 6.8825 0.0000 0.0000 0.0000
# 3 45.8235 6.8825 120.7890 0.0000 0.0000 0.0000
# 4 0.0000 0.0000 0.0000 28.5872 0.0000 0.0000
# 5 0.0000 0.0000 0.0000 0.0000 25.9930 0.0000
# 6 0.0000 0.0000 0.0000 0.0000 0.0000 -736.3354
#
#
#
# Elastic Compliance Matrix: (Units=1/GPa)
#
#
# Indices 1 2 3 4 5 6 
#
# 1 0.007340 -0.002363 -0.002650 0.000000 0.000000 0.000000
# 2 -0.002363 0.016585 -0.000048 0.000000 0.000000 0.000000
# 3 -0.002650 -0.000048 0.009287 0.000000 0.000000 0.000000
# 4 0.000000 0.000000 0.000000 0.034981 0.000000 0.000000
# 5 0.000000 0.000000 0.000000 0.000000 0.038472 0.000000
# 6 0.000000 0.000000 0.000000 0.000000 0.000000 -0.001358
#
#
# Mechanical properties :
#
#
# Convention : Reuss Voigt Hill
#
# Bulk Modulus (GPa) = 43.31208 55.09753 49.20481
# Shear Modulus (GPa) = 40.60876 -118.42558 -38.90841
#
# Velocity S-wave (km/s) = 3.93067 -6.71242 -3.84750
# Velocity P-wave (km/s) = 6.08924 6.25403 1.00847
#
# Compressibility (1/GPa) = 0.02308825
#
# Stress axis : x y z
#
# Youngs Moduli (GPa) = 136.23353 60.29680 107.67756
#
# Poissons Ratio (x) = 0.14251 0.28535
# Poissons Ratio (y) = 0.32198 0.00521
# Poissons Ratio (z) = 0.36102 0.00292
#
# Static dielectric constant tensor:
#      x y z
#    x 2.074200 0.000000 0.000000 
#    y 0.000000 -1.036420 0.000000 
#    z 0.000000 0.000000 2.085610 
# 
# From -- ./inp_files/20981.got.cif
#   From: 2010.05.17/outbox.cif.g08.bks.cpg/sg52_11_cif.got.tgz:20981.got - 2010.06.03 12:15:38.
