data_PCOD9409094
_publ_section_title
;
Structure prediction by ZEFSAII (Michael W. Deem and Ramdas Pophale) SiO2 
 PCOD9409094
Probable space group: P N N A
;
_chemical_formula_sum "Si O2"
_cell_formula_units_Z 44
_cell_length_a 9.410074
_cell_length_b 17.372846
_cell_length_c 12.365185
_cell_angle_alpha 90.000000
_cell_angle_beta 90.000000
_cell_angle_gamma 90.000000
_cell_volume 2021.457556
_symmetry_space_group_name_H-M "P N N A"
_symmetry_group_IT_number 52
_symmetry_cell_setting 'orthorhombic'
loop_
_space_group_symop_operation_xyz
x,y,z
1/2-x,-y,z
x,1/2-y,1/2-z
1/2-x,1/2+y,1/2-z
-x,-y,-z
1/2+x,y,-z
-x,1/2+y,1/2+z
1/2+x,1/2-y,1/2+z
loop_
_atom_site_type_symbol
_atom_site_label
_atom_site_fract_x
_atom_site_fract_y
_atom_site_fract_z
Si Si1 0.401173 0.043665 0.260647
Si Si2 0.638174 0.269397 0.018205
Si Si3 0.390676 0.127678 0.485878
Si Si4 0.238464 0.750000 0.750000
Si Si5 0.252590 0.178638 0.180868
Si Si6 0.030902 0.893810 0.721634
O O1 0.429266 0.084247 0.376160
O O2 0.369107 0.111765 0.176533
O O3 0.250000 0.000000 0.273999
O O4 0.514620 0.978845 0.227293
O O5 0.474246 0.291012 0.006950
O O6 0.672357 0.249735 0.140729
O O7 0.726478 0.347895 0.991562
O O8 0.689657 0.206951 0.932163
O O9 0.438030 0.087200 0.595961
O O10 0.144726 0.828329 0.751418
O O11 0.311080 0.250000 0.250000
O O12 0.118531 0.147785 0.251342
#
# Coordination Sequence:
#
# PCOD9409094 Si02
#       6
#     8   8   8   4   8   8
#     4  10  21  33  59  93 123 156 205 255 300 363
#     4  11  22  36  62  86 117 162 201 250 294 367
#     4  11  20  36  59  89 122 156 196 252 308 358
#     4  10  22  38  56  84 120 158 204 252 320 352
#     4  11  17  36  58  85 118 157 205 238 292 370
#     4  10  19  36  57  84 120 159 196 247 311 371
#
# _framework density 21.766472
#
# number of rings (size 3 to 8) (size 9 to 14) (size 15 to 20)
#    0.000    1.455    4.545    2.727    0.000    1.455 
#    0.000    3.636    0.000    4.364    0.000    0.000 
#    0.000    0.000    0.000    0.000    0.000    0.000 
#
# Total GULP energy -245636.880635 kJ/mol
# GULP energy per Si atom -5582.656378 kJ/mol
# Density = 2.171693 g / cm^3
# Si number density = 21.766472 Si / 1000 Ang^3
#
#
#
# Elastic Constant Matrix: (Units=GPa)
#
#
# Indices 1 2 3 4 5 6 
#
# 1 33.4345 -4.2125 -2.0240 0.0000 0.0000 0.0000
# 2 -4.2125 85.3601 14.7023 0.0000 0.0000 0.0000
# 3 -2.0240 14.7023 71.8948 0.0000 0.0000 0.0000
# 4 0.0000 0.0000 0.0000 31.1761 0.0000 0.0000
# 5 0.0000 0.0000 0.0000 0.0000 13.9091 0.0000
# 6 0.0000 0.0000 0.0000 0.0000 0.0000 6.6219
#
#
#
# Elastic Compliance Matrix: (Units=1/GPa)
#
#
# Indices 1 2 3 4 5 6 
#
# 1 0.030118 0.001389 0.000564 0.000000 0.000000 0.000000
# 2 0.001389 0.012207 -0.002457 0.000000 0.000000 0.000000
# 3 0.000564 -0.002457 0.014428 0.000000 0.000000 0.000000
# 4 0.000000 0.000000 0.000000 0.032076 0.000000 0.000000
# 5 0.000000 0.000000 0.000000 0.000000 0.071895 0.000000
# 6 0.000000 0.000000 0.000000 0.000000 0.000000 0.151013
#
#
# Mechanical properties :
#
#
# Convention : Reuss Voigt Hill
#
# Bulk Modulus (GPa) = 17.93898 23.06901 20.50400
# Shear Modulus (GPa) = 15.09082 22.48966 18.79024
#
# Velocity S-wave (km/s) = 2.63593 3.21787 2.94132
# Velocity P-wave (km/s) = 4.18612 4.94243 4.57992
#
# Compressibility (1/GPa) = 0.05574452
#
# Stress axis : x y z
#
# Youngs Moduli (GPa) = 33.20233 81.92118 69.31173
#
# Poissons Ratio (x) = -0.11381 -0.03908
# Poissons Ratio (y) = -0.04612 0.17031
# Poissons Ratio (z) = -0.01872 0.20129
#
# Static dielectric constant tensor:
#      x y z
#    x 1.784350 0.000000 0.000000 
#    y 0.000000 1.854350 0.000000 
#    z 0.000000 0.000000 1.781940 
# 
# From -- ./inp_files/18127.got.cif
#   From: 2010.05.17/outbox.cif.g08.bks.cpg/sg52_10_cif.got.tgz:18127.got - 2010.06.03 12:15:38.
