data_PCOD9409252
_publ_section_title
;
Structure prediction by ZEFSAII (Michael W. Deem and Ramdas Pophale) SiO2 
 PCOD9409252
Probable space group: P N N A
;
_chemical_formula_sum "Si O2"
_cell_formula_units_Z 48
_cell_length_a 14.691649
_cell_length_b 5.442952
_cell_length_c 26.137976
_cell_angle_alpha 90.000000
_cell_angle_beta 90.000000
_cell_angle_gamma 90.000000
_cell_volume 2090.147829
_symmetry_space_group_name_H-M "P N N A"
_symmetry_group_IT_number 52
_symmetry_cell_setting 'orthorhombic'
loop_
_space_group_symop_operation_xyz
x,y,z
1/2-x,-y,z
x,1/2-y,1/2-z
1/2-x,1/2+y,1/2-z
-x,-y,-z
1/2+x,y,-z
-x,1/2+y,1/2+z
1/2+x,1/2-y,1/2+z
loop_
_atom_site_type_symbol
_atom_site_label
_atom_site_fract_x
_atom_site_fract_y
_atom_site_fract_z
Si Si1 0.059462 0.572748 0.128889
Si Si2 0.750000 0.000000 0.635357
Si Si3 0.546973 0.996211 0.275790
Si Si4 0.250000 0.000000 0.698433
Si Si5 0.924072 0.750146 0.970557
Si Si6 0.250000 0.500000 0.633116
Si Si7 0.750000 0.500000 0.569207
Si Si8 0.564395 0.410011 0.425892
O O1 0.151104 0.520336 0.161575
O O2 0.084580 0.450840 0.074184
O O3 0.978583 0.473138 0.164395
O O4 0.015887 0.834380 0.113565
O O5 0.757107 0.255019 0.603383
O O6 0.512689 0.250000 0.250000
O O7 0.656084 0.002743 0.270794
O O8 0.511611 0.750000 0.250000
O O9 0.247173 0.751174 0.665277
O O10 0.840613 0.942760 0.962959
O O11 0.921676 0.696843 0.031054
O O12 0.021007 0.868284 0.957235
O O13 0.342056 0.523184 0.600367
#
# Coordination Sequence:
#
# PCOD9409252 Si02
#       8
#     8   4   8   4   8   4   4   8
#     4  11  23  44  67  95 135 177 229 289 349 415
#     4  10  22  38  69  91 123 173 218 266 346 396
#     4  12  27  45  73 102 133 178 234 292 354 423
#     4  12  24  47  71  99 142 182 229 282 358 416
#     4  10  22  38  65  94 138 181 230 275 340 409
#     4  12  25  41  70 104 143 189 224 289 336 415
#     4  10  19  38  58  94 126 174 225 267 312 409
#     4  11  22  40  62  99 136 185 225 278 335 415
#
# _framework density 22.964884999999999
#
# number of rings (size 3 to 8) (size 9 to 14) (size 15 to 20)
#    0.000    1.000    3.333    3.500    2.333    0.000 
#    0.000    2.500    0.000    0.000    0.000    0.000 
#    0.000    0.000    0.000    0.000    0.000    0.000 
#
# Total GULP energy -267584.650570 kJ/mol
# GULP energy per Si atom -5574.680220 kJ/mol
# Density = 2.291262 g / cm^3
# Si number density = 22.964885 Si / 1000 Ang^3
#
#
#
# Elastic Constant Matrix: (Units=GPa)
#
#
# Indices 1 2 3 4 5 6 
#
# 1 127.6712 26.5141 0.8609 0.0000 0.0000 0.0000
# 2 26.5141 139.2206 35.7635 0.0000 0.0000 0.0000
# 3 0.8609 35.7635 43.1486 0.0000 0.0000 0.0000
# 4 0.0000 0.0000 0.0000 21.7249 0.0000 0.0000
# 5 0.0000 0.0000 0.0000 0.0000 2.3272 0.0000
# 6 0.0000 0.0000 0.0000 0.0000 0.0000 31.4033
#
#
#
# Elastic Compliance Matrix: (Units=1/GPa)
#
#
# Indices 1 2 3 4 5 6 
#
# 1 0.008225 -0.001937 0.001441 0.000000 0.000000 0.000000
# 2 -0.001937 0.009582 -0.007903 0.000000 0.000000 0.000000
# 3 0.001441 -0.007903 0.029698 0.000000 0.000000 0.000000
# 4 0.000000 0.000000 0.000000 0.046030 0.000000 0.000000
# 5 0.000000 0.000000 0.000000 0.000000 0.429696 0.000000
# 6 0.000000 0.000000 0.000000 0.000000 0.000000 0.031844
#
#
# Mechanical properties :
#
#
# Convention : Reuss Voigt Hill
#
# Bulk Modulus (GPa) = 32.56597 48.47971 40.52284
# Shear Modulus (GPa) = 8.58948 27.55119 18.07034
#
# Velocity S-wave (km/s) = 1.93607 3.46744 2.80816
# Velocity P-wave (km/s) = 4.38285 6.09812 5.31020
#
# Compressibility (1/GPa) = 0.03070690
#
# Stress axis : x y z
#
# Youngs Moduli (GPa) = 121.57913 104.36345 33.67275
#
# Poissons Ratio (x) = 0.20211 -0.04852
# Poissons Ratio (y) = 0.23545 0.26613
# Poissons Ratio (z) = -0.17520 0.82481
#
# Static dielectric constant tensor:
#      x y z
#    x 1.940390 0.000000 0.000000 
#    y 0.000000 1.953360 0.000000 
#    z 0.000000 0.000000 1.910400 
# 
# From -- ./inp_files/43062.got.cif
#   From: 2010.05.17/outbox.cif.g08.bks.cpg/sg52_22_cif.got.tgz:43062.got - 2010.06.03 12:15:38.
