data_PCOD9409963
_publ_section_title
;
Structure prediction by ZEFSAII (Michael W. Deem and Ramdas Pophale) SiO2 
 PCOD9409963
Probable space group: P N N A
;
_chemical_formula_sum "Si O2"
_cell_formula_units_Z 40
_cell_length_a 18.293211
_cell_length_b 10.497656
_cell_length_c 10.584660
_cell_angle_alpha 90.000000
_cell_angle_beta 90.000000
_cell_angle_gamma 90.000000
_cell_volume 2032.634034
_symmetry_space_group_name_H-M "P N N A"
_symmetry_group_IT_number 52
_symmetry_cell_setting 'orthorhombic'
loop_
_space_group_symop_operation_xyz
x,y,z
1/2-x,-y,z
x,1/2-y,1/2-z
1/2-x,1/2+y,1/2-z
-x,-y,-z
1/2+x,y,-z
-x,1/2+y,1/2+z
1/2+x,1/2-y,1/2+z
loop_
_atom_site_type_symbol
_atom_site_label
_atom_site_fract_x
_atom_site_fract_y
_atom_site_fract_z
Si Si1 0.972808 0.559433 0.305434
Si Si2 0.930868 0.169397 0.014630
Si Si3 0.144035 0.100566 0.599546
Si Si4 0.804004 0.307582 0.112636
Si Si5 0.549000 0.154792 0.645974
O O1 0.936564 0.463711 0.408912
O O2 0.909452 0.616209 0.218767
O O3 0.026000 0.651294 0.383983
O O4 0.022618 0.472656 0.214340
O O5 0.848732 0.221840 0.013158
O O6 0.977522 0.271728 0.094521
O O7 0.216692 0.186155 0.601136
O O8 0.100219 0.127523 0.471782
O O9 0.168499 0.952666 0.603079
O O10 0.822405 0.250000 0.250000
O O11 0.582902 0.250000 0.750000
#
# Coordination Sequence:
#
# PCOD9409963 Si02
#       5
#     8   8   8   8   8
#     4  10  20  37  65  95 120 166 218 260 323 392
#     4  10  20  38  63  93 128 161 206 267 327 371
#     4  11  23  38  63  94 122 172 218 258 327 396
#     4  11  22  41  60  90 137 166 206 276 323 377
#     4  10  21  41  61  88 130 159 213 277 314 381
#
# _framework density 19.678901
#
# number of rings (size 3 to 8) (size 9 to 14) (size 15 to 20)
#    0.000    1.600    4.000    1.200    2.800    0.000 
#    0.000    4.000    0.000    0.000    0.000    0.000 
#    0.000    0.000    0.000    0.000    0.000    0.000 
#
# Total GULP energy -223547.113552 kJ/mol
# GULP energy per Si atom -5588.677839 kJ/mol
# Density = 1.963411 g / cm^3
# Si number density = 19.678901 Si / 1000 Ang^3
#
#
#
# Elastic Constant Matrix: (Units=GPa)
#
#
# Indices 1 2 3 4 5 6 
#
# 1 144.4280 50.1197 79.6387 0.0000 0.0000 0.0000
# 2 50.1197 58.5766 37.3348 0.0000 0.0000 0.0000
# 3 79.6387 37.3348 113.1738 0.0000 0.0000 0.0000
# 4 0.0000 0.0000 0.0000 40.5688 0.0000 0.0000
# 5 0.0000 0.0000 0.0000 0.0000 22.7463 0.0000
# 6 0.0000 0.0000 0.0000 0.0000 0.0000 30.3747
#
#
#
# Elastic Compliance Matrix: (Units=1/GPa)
#
#
# Indices 1 2 3 4 5 6 
#
# 1 0.013142 -0.006775 -0.007013 0.000000 0.000000 0.000000
# 2 -0.006775 0.025109 -0.003516 0.000000 0.000000 0.000000
# 3 -0.007013 -0.003516 0.014931 0.000000 0.000000 0.000000
# 4 0.000000 0.000000 0.000000 0.024649 0.000000 0.000000
# 5 0.000000 0.000000 0.000000 0.000000 0.043963 0.000000
# 6 0.000000 0.000000 0.000000 0.000000 0.000000 0.032922
#
#
# Mechanical properties :
#
#
# Convention : Reuss Voigt Hill
#
# Bulk Modulus (GPa) = 53.83663 72.26273 63.04968
# Shear Modulus (GPa) = 25.57349 28.67696 27.12522
#
# Velocity S-wave (km/s) = 3.60882 3.82153 3.71670
# Velocity P-wave (km/s) = 6.69192 7.50152 7.10825
#
# Compressibility (1/GPa) = 0.01857471
#
# Stress axis : x y z
#
# Youngs Moduli (GPa) = 76.09358 39.82590 66.97651
#
# Poissons Ratio (x) = 0.26981 0.46969
# Poissons Ratio (y) = 0.51551 0.23549
# Poissons Ratio (z) = 0.53362 0.14003
#
# Static dielectric constant tensor:
#      x y z
#    x 1.684610 0.000000 0.000000 
#    y 0.000000 1.734740 0.000000 
#    z 0.000000 0.000000 1.680810 
# 
# From -- ./inp_files/11598.got.cif
#   From: 2010.05.17/outbox.cif.g08.bks.cpg/sg52_6_cif.got.tgz:11598.got - 2010.06.03 12:15:38.
