data_PCOD9409838
_publ_section_title
;
Structure prediction by ZEFSAII (Michael W. Deem and Ramdas Pophale) SiO2 
 PCOD9409838
Probable space group: P N N A
;
_chemical_formula_sum "Si O2"
_cell_formula_units_Z 60
_cell_length_a 14.204000
_cell_length_b 11.244145
_cell_length_c 19.815490
_cell_angle_alpha 90.000000
_cell_angle_beta 90.000000
_cell_angle_gamma 90.000000
_cell_volume 3164.768281
_symmetry_space_group_name_H-M "P N N A"
_symmetry_group_IT_number 52
_symmetry_cell_setting 'orthorhombic'
loop_
_space_group_symop_operation_xyz
x,y,z
1/2-x,-y,z
x,1/2-y,1/2-z
1/2-x,1/2+y,1/2-z
-x,-y,-z
1/2+x,y,-z
-x,1/2+y,1/2+z
1/2+x,1/2-y,1/2+z
loop_
_atom_site_type_symbol
_atom_site_label
_atom_site_fract_x
_atom_site_fract_y
_atom_site_fract_z
Si Si1 0.074982 0.187141 0.676795
Si Si2 0.686151 0.119283 0.002389
Si Si3 0.722849 0.792876 0.392657
Si Si4 0.564961 0.250000 0.750000
Si Si5 0.016190 0.410977 0.604038
Si Si6 0.576664 0.919438 0.327401
Si Si7 0.156570 0.428800 0.357280
Si Si8 0.656955 0.569911 0.314538
O O1 0.077712 0.250000 0.750000
O O2 0.182111 0.180116 0.648986
O O3 0.016153 0.276160 0.629900
O O4 0.037368 0.053279 0.674537
O O5 0.676682 0.149643 0.923813
O O6 0.750000 0.000000 0.008166
O O7 0.738721 0.226358 0.041225
O O8 0.584771 0.092002 0.038311
O O9 0.643232 0.895073 0.392456
O O10 0.664498 0.693111 0.352025
O O11 0.501873 0.174810 0.696338
O O12 0.618834 0.347675 0.703932
O O13 0.073395 0.490023 0.658245
O O14 0.915698 0.473951 0.609687
O O15 0.649138 0.914856 0.264604
O O16 0.250000 0.500000 0.336666
O O17 0.750000 0.500000 0.332434
#
# Coordination Sequence:
#
# PCOD9409838 Si02
#       8
#     8   8   8   4   8   8   8   8
#     4  11  19  29  49  87 130 168 193 232 300 383
#     4  10  20  36  64  96 125 156 199 257 323 377
#     4  11  18  29  51  88 133 163 183 236 310 392
#     4  12  24  44  64  86 120 158 216 276 306 360
#     4  11  19  36  59  90 126 158 206 255 311 370
#     4  12  21  32  56  91 130 164 201 241 318 381
#     4  11  25  45  64  90 113 159 222 271 313 353
#     4  12  16  29  54  88 134 167 186 243 312 379
#
# _framework density 18.958732999999999
#
# number of rings (size 3 to 8) (size 9 to 14) (size 15 to 20)
#    0.000    0.800    8.000    2.400    0.000    0.000 
#    3.600    0.000    0.000    6.400    0.000    0.000 
#    0.000    0.000    0.000    0.000    0.000    0.000 
#
# Total GULP energy -334395.927289 kJ/mol
# GULP energy per Si atom -5573.265455 kJ/mol
# Density = 1.891558 g / cm^3
# Si number density = 18.958733 Si / 1000 Ang^3
#
#
#
# Elastic Constant Matrix: (Units=GPa)
#
#
# Indices 1 2 3 4 5 6 
#
# 1 78.6120 39.0520 29.8395 0.0000 0.0000 0.0000
# 2 39.0520 96.1856 18.7353 0.0000 0.0000 0.0000
# 3 29.8395 18.7353 72.5169 0.0000 0.0000 0.0000
# 4 0.0000 0.0000 0.0000 28.0665 0.0000 0.0000
# 5 0.0000 0.0000 0.0000 0.0000 16.6558 0.0000
# 6 0.0000 0.0000 0.0000 0.0000 0.0000 18.5872
#
#
#
# Elastic Compliance Matrix: (Units=1/GPa)
#
#
# Indices 1 2 3 4 5 6 
#
# 1 0.017992 -0.006174 -0.005809 0.000000 0.000000 0.000000
# 2 -0.006174 0.013066 -0.000835 0.000000 0.000000 0.000000
# 3 -0.005809 -0.000835 0.016396 0.000000 0.000000 0.000000
# 4 0.000000 0.000000 0.000000 0.035630 0.000000 0.000000
# 5 0.000000 0.000000 0.000000 0.000000 0.060039 0.000000
# 6 0.000000 0.000000 0.000000 0.000000 0.000000 0.053800
#
#
# Mechanical properties :
#
#
# Convention : Reuss Voigt Hill
#
# Bulk Modulus (GPa) = 45.83159 46.95203 46.39181
# Shear Modulus (GPa) = 21.75508 23.30774 22.53141
#
# Velocity S-wave (km/s) = 3.39115 3.51007 3.45112
# Velocity P-wave (km/s) = 6.28968 6.42236 6.35636
#
# Compressibility (1/GPa) = 0.02181901
#
# Stress axis : x y z
#
# Youngs Moduli (GPa) = 55.57913 76.53573 60.99116
#
# Poissons Ratio (x) = 0.47250 0.35427
# Poissons Ratio (y) = 0.34312 0.05095
# Poissons Ratio (z) = 0.32283 0.06393
#
# Static dielectric constant tensor:
#      x y z
#    x 1.668280 0.000000 0.000000 
#    y 0.000000 1.759940 0.000000 
#    z 0.000000 0.000000 1.682440 
# 
# From -- ./inp_files/37458.got.cif
#   From: 2010.05.17/outbox.cif.g08.bks.cpg/sg52_19_cif.got.tgz:37458.got - 2010.06.03 12:15:38.
