data_PCOD9409484
_publ_section_title
;
Structure prediction by ZEFSAII (Michael W. Deem and Ramdas Pophale) SiO2 
 PCOD9409484
Probable space group: P N N A
;
_chemical_formula_sum "Si O2"
_cell_formula_units_Z 64
_cell_length_a 23.648386
_cell_length_b 7.806245
_cell_length_c 17.470519
_cell_angle_alpha 90.000000
_cell_angle_beta 90.000000
_cell_angle_gamma 90.000000
_cell_volume 3225.146819
_symmetry_space_group_name_H-M "P N N A"
_symmetry_group_IT_number 52
_symmetry_cell_setting 'orthorhombic'
loop_
_space_group_symop_operation_xyz
x,y,z
1/2-x,-y,z
x,1/2-y,1/2-z
1/2-x,1/2+y,1/2-z
-x,-y,-z
1/2+x,y,-z
-x,1/2+y,1/2+z
1/2+x,1/2-y,1/2+z
loop_
_atom_site_type_symbol
_atom_site_label
_atom_site_fract_x
_atom_site_fract_y
_atom_site_fract_z
Si Si1 0.600022 0.870666 0.106334
Si Si2 0.519359 0.366608 0.568571
Si Si3 0.853617 0.252283 0.544778
Si Si4 0.614440 0.367742 0.008874
Si Si5 0.056433 0.819891 0.164502
Si Si6 0.568485 0.249647 0.158343
Si Si7 0.722476 0.812498 0.165316
Si Si8 0.737599 0.194830 0.496152
O O1 0.538442 0.781990 0.101784
O O2 0.654418 0.805547 0.153005
O O3 0.586857 0.059537 0.135154
O O4 0.620270 0.875668 0.019027
O O5 0.500000 0.500000 0.500000
O O6 0.562777 0.228150 0.533736
O O7 0.544676 0.483345 0.637615
O O8 0.886056 0.274071 0.622722
O O9 0.787063 0.289961 0.541683
O O10 0.871544 0.061356 0.516253
O O11 0.603163 0.368506 0.100451
O O12 0.672429 0.264960 0.992080
O O13 0.061385 0.750000 0.250000
O O14 0.997865 0.728562 0.138389
O O15 0.575951 0.250000 0.250000
O O16 0.736751 0.750000 0.250000
O O17 0.748453 0.710501 0.093982
O O18 0.750000 0.000000 0.156726
O O19 0.750000 0.000000 0.518786
#
# Coordination Sequence:
#
# PCOD9409484 Si02
#       8
#     8   8   8   8   8   8   8   8
#     4  10  20  36  52  78 111 153 193 242 280 345
#     4  11  19  37  60  83 118 150 193 240 288 357
#     4  10  20  36  57  81 112 144 196 244 292 339
#     4  11  20  35  60  84 109 154 192 245 292 346
#     4  10  20  37  58  83 115 148 185 234 294 351
#     4  10  20  33  53  82 113 152 192 225 285 357
#     4  11  23  35  53  77 115 157 196 235 285 340
#     4   9  21  37  55  80 109 144 195 239 286 347
#
# _framework density 19.844058
#
# number of rings (size 3 to 8) (size 9 to 14) (size 15 to 20)
#    0.000    1.750    3.750    1.125    0.000    7.000 
#    0.000    3.125    0.000    4.500    0.000    0.000 
#    0.000    0.000    0.000    0.000    0.000    0.000 
#
# Total GULP energy -356517.684599 kJ/mol
# GULP energy per Si atom -5570.588822 kJ/mol
# Density = 1.979889 g / cm^3
# Si number density = 19.844058 Si / 1000 Ang^3
#
#
#
# Elastic Constant Matrix: (Units=GPa)
#
#
# Indices 1 2 3 4 5 6 
#
# 1 134.7758 23.0583 29.0936 0.0000 0.0000 0.0000
# 2 23.0583 31.7217 10.4234 0.0000 0.0000 0.0000
# 3 29.0936 10.4234 68.0221 0.0000 0.0000 0.0000
# 4 0.0000 0.0000 0.0000 21.6980 0.0000 0.0000
# 5 0.0000 0.0000 0.0000 0.0000 0.7612 0.0000
# 6 0.0000 0.0000 0.0000 0.0000 0.0000 20.9388
#
#
#
# Elastic Compliance Matrix: (Units=1/GPa)
#
#
# Indices 1 2 3 4 5 6 
#
# 1 0.009021 -0.005570 -0.003005 0.000000 0.000000 0.000000
# 2 -0.005570 0.036635 -0.003231 0.000000 0.000000 0.000000
# 3 -0.003005 -0.003231 0.016482 0.000000 0.000000 0.000000
# 4 0.000000 0.000000 0.000000 0.046087 0.000000 0.000000
# 5 0.000000 0.000000 0.000000 0.000000 1.313660 0.000000
# 6 0.000000 0.000000 0.000000 0.000000 0.000000 0.047758
#
#
# Mechanical properties :
#
#
# Convention : Reuss Voigt Hill
#
# Bulk Modulus (GPa) = 25.95732 39.96336 32.96034
# Shear Modulus (GPa) = 3.31984 20.14256 11.73120
#
# Velocity S-wave (km/s) = 1.29483 3.18943 2.43403
# Velocity P-wave (km/s) = 3.91721 5.80911 4.95430
#
# Compressibility (1/GPa) = 0.03852478
#
# Stress axis : x y z
#
# Youngs Moduli (GPa) = 110.84772 27.29635 60.67407
#
# Poissons Ratio (x) = 0.15205 0.18232
# Poissons Ratio (y) = 0.61744 0.19606
# Poissons Ratio (z) = 0.33309 0.08820
#
# Static dielectric constant tensor:
#      x y z
#    x 1.778200 0.000000 0.000000 
#    y 0.000000 1.698770 0.000000 
#    z 0.000000 0.000000 1.704680 
# 
# From -- ./inp_files/34107.got.cif
#   From: 2010.05.17/outbox.cif.g08.bks.cpg/sg52_18_cif.got.tgz:34107.got - 2010.06.03 12:15:38.
