data_PCOD9409080
_publ_section_title
;
Structure prediction by ZEFSAII (Michael W. Deem and Ramdas Pophale) SiO2 
 PCOD9409080
Probable space group: P N N A
;
_chemical_formula_sum "Si O2"
_cell_formula_units_Z 48
_cell_length_a 32.983777
_cell_length_b 9.226087
_cell_length_c 7.568926
_cell_angle_alpha 90.000000
_cell_angle_beta 90.000000
_cell_angle_gamma 90.000000
_cell_volume 2303.308925
_symmetry_space_group_name_H-M "P N N A"
_symmetry_group_IT_number 52
_symmetry_cell_setting 'orthorhombic'
loop_
_space_group_symop_operation_xyz
x,y,z
1/2-x,-y,z
x,1/2-y,1/2-z
1/2-x,1/2+y,1/2-z
-x,-y,-z
1/2+x,y,-z
-x,1/2+y,1/2+z
1/2+x,1/2-y,1/2+z
loop_
_atom_site_type_symbol
_atom_site_label
_atom_site_fract_x
_atom_site_fract_y
_atom_site_fract_z
Si Si1 0.141163 0.927317 0.062339
Si Si2 0.944823 0.991812 0.862642
Si Si3 0.942474 0.503109 0.058562
Si Si4 0.206894 0.924201 0.765899
Si Si5 0.642982 0.580081 0.978604
Si Si6 0.500901 0.746656 0.981969
O O1 0.097580 0.002007 0.033389
O O2 0.135904 0.754121 0.031372
O O3 0.148277 0.958621 0.271356
O O4 0.177879 0.965012 0.931809
O O5 0.939558 0.980876 0.653869
O O6 0.971296 0.856995 0.920815
O O7 0.967448 0.143738 0.892728
O O8 0.895102 0.481828 0.092637
O O9 0.970119 0.636738 0.120102
O O10 0.970130 0.362410 0.092189
O O11 0.211784 0.750000 0.750000
O O12 0.182548 0.962219 0.587772
O O13 0.250000 0.000000 0.779887
#
# Coordination Sequence:
#
# PCOD9409080 Si02
#       6
#     8   8   8   8   8   8
#     4   9  18  37  63  85 117 160 194 236 296 363
#     4  10  19  36  52  79 118 157 204 246 292 346
#     4  10  19  36  52  79 118 157 204 246 292 346
#     4  10  22  42  64  92 118 148 196 248 302 370
#     4   9  18  37  63  85 117 160 194 236 296 363
#     4  10  20  32  52  82 112 158 198 252 290 332
#
# _framework density 20.839585
#
# number of rings (size 3 to 8) (size 9 to 14) (size 15 to 20)
#    0.000    2.333    1.667    1.000    0.000    0.667 
#   21.000    0.000    0.000    0.000    0.000    0.000 
#    0.000    0.000    0.000    0.000    0.000    0.000 
#
# Total GULP energy -267741.851988 kJ/mol
# GULP energy per Si atom -5577.955250 kJ/mol
# Density = 2.079215 g / cm^3
# Si number density = 20.839585 Si / 1000 Ang^3
#
#
#
# Elastic Constant Matrix: (Units=GPa)
#
#
# Indices 1 2 3 4 5 6 
#
# 1 187.0474 40.8645 61.7897 0.0000 0.0000 0.0000
# 2 40.8645 80.4244 19.5877 0.0000 0.0000 0.0000
# 3 61.7897 19.5877 74.0373 0.0000 0.0000 0.0000
# 4 0.0000 0.0000 0.0000 22.9897 0.0000 0.0000
# 5 0.0000 0.0000 0.0000 0.0000 40.5858 0.0000
# 6 0.0000 0.0000 0.0000 0.0000 0.0000 48.8338
#
#
#
# Elastic Compliance Matrix: (Units=1/GPa)
#
#
# Indices 1 2 3 4 5 6 
#
# 1 0.007844 -0.002556 -0.005870 0.000000 0.000000 0.000000
# 2 -0.002556 0.014123 -0.001604 0.000000 0.000000 0.000000
# 3 -0.005870 -0.001604 0.018830 0.000000 0.000000 0.000000
# 4 0.000000 0.000000 0.000000 0.043498 0.000000 0.000000
# 5 0.000000 0.000000 0.000000 0.000000 0.024639 0.000000
# 6 0.000000 0.000000 0.000000 0.000000 0.000000 0.020478
#
#
# Mechanical properties :
#
#
# Convention : Reuss Voigt Hill
#
# Bulk Modulus (GPa) = 48.22017 65.11032 56.66524
# Shear Modulus (GPa) = 31.97287 37.09970 34.53628
#
# Velocity S-wave (km/s) = 3.92118 4.22388 4.07534
# Velocity P-wave (km/s) = 6.60983 7.42291 7.02814
#
# Compressibility (1/GPa) = 0.02073821
#
# Stress axis : x y z
#
# Youngs Moduli (GPa) = 127.49063 70.80546 53.10706
#
# Poissons Ratio (x) = 0.18097 0.31174
# Poissons Ratio (y) = 0.32584 0.08516
# Poissons Ratio (z) = 0.74837 0.11354
#
# Static dielectric constant tensor:
#      x y z
#    x 1.755180 0.000000 0.000000 
#    y 0.000000 1.751380 0.000000 
#    z 0.000000 0.000000 1.856390 
# 
# From -- ./inp_files/15535.got.cif
#   From: 2010.05.17/outbox.cif.g08.bks.cpg/sg52_8_cif.got.tgz:15535.got - 2010.06.03 12:15:38.
