data_PCOD9409619
_publ_section_title
;
Structure prediction by ZEFSAII (Michael W. Deem and Ramdas Pophale) SiO2 
 PCOD9409619
Probable space group: P N N A
;
_chemical_formula_sum "Si O2"
_cell_formula_units_Z 28
_cell_length_a 15.351802
_cell_length_b 4.979846
_cell_length_c 18.860015
_cell_angle_alpha 90.000000
_cell_angle_beta 90.000000
_cell_angle_gamma 90.000000
_cell_volume 1441.840787
_symmetry_space_group_name_H-M "P N N A"
_symmetry_group_IT_number 52
_symmetry_cell_setting 'orthorhombic'
loop_
_space_group_symop_operation_xyz
x,y,z
1/2-x,-y,z
x,1/2-y,1/2-z
1/2-x,1/2+y,1/2-z
-x,-y,-z
1/2+x,y,-z
-x,1/2+y,1/2+z
1/2+x,1/2-y,1/2+z
loop_
_atom_site_type_symbol
_atom_site_label
_atom_site_fract_x
_atom_site_fract_y
_atom_site_fract_z
Si Si1 0.309611 0.254382 0.017378
Si Si2 0.307173 0.250000 0.750000
Si Si3 0.975274 0.454957 0.582260
Si Si4 0.077773 0.936861 0.619616
O O1 0.250000 0.500000 0.041814
O O2 0.377806 0.155292 0.076725
O O3 0.250000 0.000000 0.996558
O O4 0.364043 0.364916 0.949624
O O5 0.250000 0.500000 0.721922
O O6 0.364898 0.124403 0.687771
O O7 0.000000 0.500000 0.500000
O O8 0.994985 0.736793 0.618760
O O9 0.041425 0.236016 0.613534
#
# Coordination Sequence:
#
# PCOD9409619 Si02
#       4
#     8   4   8   8
#     4  11  19  31  52  80 106 134 172 226 276 317
#     4  12  24  38  56  84 114 150 188 220 264 334
#     4  10  20  35  53  76 107 144 182 222 274 331
#     4  11  21  36  53  77 113 148 178 218 269 337
#
# _framework density 19.419622
#
# number of rings (size 3 to 8) (size 9 to 14) (size 15 to 20)
#    0.000    1.143    0.000   12.000    0.000    0.000 
#    0.000    0.000    0.000    0.000    0.000   20.000 
#    0.000    0.000    0.000    0.000    0.000    0.000 
#
# Total GULP energy -156446.807705 kJ/mol
# GULP energy per Si atom -5587.385989 kJ/mol
# Density = 1.937542 g / cm^3
# Si number density = 19.419622 Si / 1000 Ang^3
#
#
#
# Elastic Constant Matrix: (Units=GPa)
#
#
# Indices 1 2 3 4 5 6 
#
# 1 69.9670 2.9010 6.0409 0.0000 0.0000 0.0000
# 2 2.9010 80.5949 -6.6141 0.0000 0.0000 0.0000
# 3 6.0409 -6.6141 37.6281 0.0000 0.0000 0.0000
# 4 0.0000 0.0000 0.0000 19.6135 0.0000 0.0000
# 5 0.0000 0.0000 0.0000 0.0000 9.8864 0.0000
# 6 0.0000 0.0000 0.0000 0.0000 0.0000 -27.4542
#
#
#
# Elastic Compliance Matrix: (Units=1/GPa)
#
#
# Indices 1 2 3 4 5 6 
#
# 1 0.014535 -0.000725 -0.002461 0.000000 0.000000 0.000000
# 2 -0.000725 0.012626 0.002336 0.000000 0.000000 0.000000
# 3 -0.002461 0.002336 0.027382 0.000000 0.000000 0.000000
# 4 0.000000 0.000000 0.000000 0.050985 0.000000 0.000000
# 5 0.000000 0.000000 0.000000 0.000000 0.101149 0.000000
# 6 0.000000 0.000000 0.000000 0.000000 0.000000 -0.036424
#
#
# Mechanical properties :
#
#
# Convention : Reuss Voigt Hill
#
# Bulk Modulus (GPa) = 18.92463 21.42730 20.17596
# Shear Modulus (GPa) = 26.37591 12.79995 19.58793
#
# Velocity S-wave (km/s) = 3.68939 2.57013 3.17940
# Velocity P-wave (km/s) = 5.28347 4.45704 4.88775
#
# Compressibility (1/GPa) = 0.05284120
#
# Stress axis : x y z
#
# Youngs Moduli (GPa) = 68.79944 79.20471 36.52094
#
# Poissons Ratio (x) = 0.05744 0.08988
# Poissons Ratio (y) = 0.04989 -0.08530
# Poissons Ratio (z) = 0.16931 -0.18500
#
# Static dielectric constant tensor:
#      x y z
#    x 1.745150 0.000000 0.000000 
#    y 0.000000 1.681340 0.000000 
#    z 0.000000 0.000000 1.650740 
# 
# From -- ./inp_files/32541.got.cif
#   From: 2010.05.17/outbox.cif.g08.bks.cpg/sg52_17_cif.got.tgz:32541.got - 2010.06.03 12:15:38.
