data_PCOD9409411
_publ_section_title
;
Structure prediction by ZEFSAII (Michael W. Deem and Ramdas Pophale) SiO2 
 PCOD9409411
Probable space group: P N N A
;
_chemical_formula_sum "Si O2"
_cell_formula_units_Z 40
_cell_length_a 16.822230
_cell_length_b 5.267513
_cell_length_c 24.156592
_cell_angle_alpha 90.000000
_cell_angle_beta 90.000000
_cell_angle_gamma 90.000000
_cell_volume 2140.547388
_symmetry_space_group_name_H-M "P N N A"
_symmetry_group_IT_number 52
_symmetry_cell_setting 'orthorhombic'
loop_
_space_group_symop_operation_xyz
x,y,z
1/2-x,-y,z
x,1/2-y,1/2-z
1/2-x,1/2+y,1/2-z
-x,-y,-z
1/2+x,y,-z
-x,1/2+y,1/2+z
1/2+x,1/2-y,1/2+z
loop_
_atom_site_type_symbol
_atom_site_label
_atom_site_fract_x
_atom_site_fract_y
_atom_site_fract_z
Si Si1 0.025796 0.917289 0.437590
Si Si2 0.844615 0.498748 0.286636
Si Si3 0.709902 0.756576 0.571696
Si Si4 0.713229 0.752021 0.442081
Si Si5 0.947589 0.100487 0.103767
O O1 0.115763 0.811103 0.430584
O O2 0.974394 0.669743 0.420865
O O3 0.000000 0.000000 0.500000
O O4 0.012633 0.171716 0.399800
O O5 0.750000 0.500000 0.300366
O O6 0.857230 0.250000 0.250000
O O7 0.903781 0.464283 0.338591
O O8 0.860946 0.750000 0.250000
O O9 0.750000 0.500000 0.594525
O O10 0.734521 0.755210 0.506687
O O11 0.750000 0.000000 0.599082
O O12 0.750000 0.500000 0.418024
O O13 0.620584 0.727047 0.434035
O O14 0.750000 0.000000 0.414820
#
# Coordination Sequence:
#
# PCOD9409411 Si02
#       5
#     8   8   8   8   8
#     4  12  24  37  55  85 122 156 200 253 295 347
#     4  10  22  41  61  85 120 159 204 255 300 345
#     4  10  21  36  52  72 111 159 196 229 283 345
#     4  10  20  31  49  76 110 150 200 235 271 338
#     4  12  23  36  59  83 117 158 204 249 298 352
#
# _framework density 18.686810000000001
#
# number of rings (size 3 to 8) (size 9 to 14) (size 15 to 20)
#    0.000    1.200    2.000    4.800    5.600    2.400 
#    0.000    0.000    0.000    0.000    0.000    0.000 
#    0.000   44.800    0.000    0.000    0.000    0.000 
#
# Total GULP energy -222825.855642 kJ/mol
# GULP energy per Si atom -5570.646391 kJ/mol
# Density = 1.864428 g / cm^3
# Si number density = 18.686810 Si / 1000 Ang^3
#
#
#
# Elastic Constant Matrix: (Units=GPa)
#
#
# Indices 1 2 3 4 5 6 
#
# 1 92.4820 77.6885 24.8487 0.0000 0.0000 0.0000
# 2 77.6885 215.9325 65.9370 0.0000 0.0000 0.0000
# 3 24.8487 65.9370 60.5650 0.0000 0.0000 0.0000
# 4 0.0000 0.0000 0.0000 13.3737 0.0000 0.0000
# 5 0.0000 0.0000 0.0000 0.0000 35.2940 0.0000
# 6 0.0000 0.0000 0.0000 0.0000 0.0000 217.1377
#
#
#
# Elastic Compliance Matrix: (Units=1/GPa)
#
#
# Indices 1 2 3 4 5 6 
#
# 1 0.015504 -0.005446 -0.000432 0.000000 0.000000 0.000000
# 2 -0.005446 0.008850 -0.007401 0.000000 0.000000 0.000000
# 3 -0.000432 -0.007401 0.024746 0.000000 0.000000 0.000000
# 4 0.000000 0.000000 0.000000 0.074774 0.000000 0.000000
# 5 0.000000 0.000000 0.000000 0.000000 0.028333 0.000000
# 6 0.000000 0.000000 0.000000 0.000000 0.000000 0.004605
#
#
# Mechanical properties :
#
#
# Convention : Reuss Voigt Hill
#
# Bulk Modulus (GPa) = 44.36097 78.43642 61.39869
# Shear Modulus (GPa) = 26.19384 66.52810 46.36097
#
# Velocity S-wave (km/s) = 3.74803 5.97318 4.98631
# Velocity P-wave (km/s) = 6.52081 9.46769 8.12891
#
# Compressibility (1/GPa) = 0.02254234
#
# Stress axis : x y z
#
# Youngs Moduli (GPa) = 64.49985 112.98803 40.41088
#
# Poissons Ratio (x) = 0.61535 0.01745
# Poissons Ratio (y) = 0.35128 0.29908
# Poissons Ratio (z) = 0.02784 0.83623
#
# Static dielectric constant tensor:
#      x y z
#    x 1.699910 0.000000 0.000000 
#    y 0.000000 1.718280 0.000000 
#    z 0.000000 0.000000 1.602910 
# 
# From -- ./inp_files/40485.got.cif
#   From: 2010.05.17/outbox.cif.g08.bks.cpg/sg52_21_cif.got.tgz:40485.got - 2010.06.03 12:15:38.
