data_PCOD9409839
_publ_section_title
;
Structure prediction by ZEFSAII (Michael W. Deem and Ramdas Pophale) SiO2 
 PCOD9409839
Probable space group: P N N A
;
_chemical_formula_sum "Si O2"
_cell_formula_units_Z 32
_cell_length_a 14.034347
_cell_length_b 5.294440
_cell_length_c 21.434042
_cell_angle_alpha 90.000000
_cell_angle_beta 90.000000
_cell_angle_gamma 90.000000
_cell_volume 1592.635231
_symmetry_space_group_name_H-M "P N N A"
_symmetry_group_IT_number 52
_symmetry_cell_setting 'orthorhombic'
loop_
_space_group_symop_operation_xyz
x,y,z
1/2-x,-y,z
x,1/2-y,1/2-z
1/2-x,1/2+y,1/2-z
-x,-y,-z
1/2+x,y,-z
-x,1/2+y,1/2+z
1/2+x,1/2-y,1/2+z
loop_
_atom_site_type_symbol
_atom_site_label
_atom_site_fract_x
_atom_site_fract_y
_atom_site_fract_z
Si Si1 0.750000 0.500000 0.316679
Si Si2 0.193070 0.252990 0.438491
Si Si3 0.480188 0.269351 0.886551
Si Si4 0.360973 0.761181 0.918096
Si Si5 0.416308 0.250000 0.750000
O O1 0.720378 0.278919 0.364797
O O2 0.658955 0.541019 0.273442
O O3 0.250000 0.500000 0.416869
O O4 0.086985 0.244049 0.411311
O O5 0.183366 0.268188 0.513508
O O6 0.250000 0.000000 0.422256
O O7 0.424607 0.511454 0.913164
O O8 0.476215 0.303675 0.811621
O O9 0.425323 0.011773 0.906067
#
# Coordination Sequence:
#
# PCOD9409839 Si02
#       5
#     4   8   8   8   4
#     4  10  20  36  64  96 126 160 200 256 318 374
#     4  12  24  41  64  92 123 164 213 258 304 362
#     4  11  24  41  62  91 127 168 204 252 310 369
#     4  11  22  39  64  92 129 159 202 259 320 367
#     4  10  22  38  62  92 130 162 204 246 306 382
#
# _framework density 20.092486000000001
#
# number of rings (size 3 to 8) (size 9 to 14) (size 15 to 20)
#    0.000    1.000    1.250    6.000    3.500    3.000 
#    0.000    1.250    0.000    0.000    0.000    0.000 
#    0.000    0.000    0.000    0.000    0.000    0.000 
#
# Total GULP energy -178930.171974 kJ/mol
# GULP energy per Si atom -5591.567874 kJ/mol
# Density = 2.004675 g / cm^3
# Si number density = 20.092486 Si / 1000 Ang^3
#
#
#
# Elastic Constant Matrix: (Units=GPa)
#
#
# Indices 1 2 3 4 5 6 
#
# 1 82.1661 69.1820 14.2388 0.0000 0.0000 0.0000
# 2 69.1820 171.7781 12.6066 0.0000 0.0000 0.0000
# 3 14.2388 12.6066 66.4817 0.0000 0.0000 0.0000
# 4 0.0000 0.0000 0.0000 4.3746 0.0000 0.0000
# 5 0.0000 0.0000 0.0000 0.0000 9.8438 0.0000
# 6 0.0000 0.0000 0.0000 0.0000 0.0000 41.9360
#
#
#
# Elastic Compliance Matrix: (Units=1/GPa)
#
#
# Indices 1 2 3 4 5 6 
#
# 1 0.018860 -0.007402 -0.002636 0.000000 0.000000 0.000000
# 2 -0.007402 0.008809 -0.000085 0.000000 0.000000 0.000000
# 3 -0.002636 -0.000085 0.015622 0.000000 0.000000 0.000000
# 4 0.000000 0.000000 0.000000 0.228594 0.000000 0.000000
# 5 0.000000 0.000000 0.000000 0.000000 0.101587 0.000000
# 6 0.000000 0.000000 0.000000 0.000000 0.000000 0.023846
#
#
# Mechanical properties :
#
#
# Convention : Reuss Voigt Hill
#
# Bulk Modulus (GPa) = 43.39293 56.94230 50.16762
# Shear Modulus (GPa) = 11.75795 26.19079 18.97437
#
# Velocity S-wave (km/s) = 2.42170 3.61433 3.07636
# Velocity P-wave (km/s) = 5.42798 6.76901 6.13525
#
# Compressibility (1/GPa) = 0.02304523
#
# Stress axis : x y z
#
# Youngs Moduli (GPa) = 53.02341 113.52251 64.01089
#
# Poissons Ratio (x) = 0.84030 0.16871
# Poissons Ratio (y) = 0.39248 0.00544
# Poissons Ratio (z) = 0.13975 0.00965
#
# Static dielectric constant tensor:
#      x y z
#    x 1.694030 0.000000 0.000000 
#    y 0.000000 1.846100 0.000000 
#    z 0.000000 0.000000 1.712580 
# 
# From -- ./inp_files/36484.got.cif
#   From: 2010.05.17/outbox.cif.g08.bks.cpg/sg52_19_cif.got.tgz:36484.got - 2010.06.03 12:15:38.
