data_PCOD9409035
_publ_section_title
;
Structure prediction by ZEFSAII (Michael W. Deem and Ramdas Pophale) SiO2 
 PCOD9409035
Probable space group: P N N A
;
_chemical_formula_sum "Si O2"
_cell_formula_units_Z 32
_cell_length_a 36.936035
_cell_length_b 7.924398
_cell_length_c 5.175747
_cell_angle_alpha 90.000000
_cell_angle_beta 90.000000
_cell_angle_gamma 90.000000
_cell_volume 1514.919626
_symmetry_space_group_name_H-M "P N N A"
_symmetry_group_IT_number 52
_symmetry_cell_setting 'orthorhombic'
loop_
_space_group_symop_operation_xyz
x,y,z
1/2-x,-y,z
x,1/2-y,1/2-z
1/2-x,1/2+y,1/2-z
-x,-y,-z
1/2+x,y,-z
-x,1/2+y,1/2+z
1/2+x,1/2-y,1/2+z
loop_
_atom_site_type_symbol
_atom_site_label
_atom_site_fract_x
_atom_site_fract_y
_atom_site_fract_z
Si Si1 0.105430 0.049211 0.761997
Si Si2 0.143859 0.453854 0.229856
Si Si3 0.477103 0.051028 0.752962
Si Si4 0.780779 0.866007 0.504341
O O1 0.027855 0.750000 0.750000
O O2 0.062697 0.026750 0.785785
O O3 0.117596 0.975621 0.488768
O O4 0.130602 0.980842 0.993457
O O5 0.112313 0.250000 0.750000
O O6 0.184340 0.465995 0.117637
O O7 0.139242 0.250000 0.250000
O O8 0.500000 0.000000 0.500000
O O9 0.500000 0.000000 0.000000
O O10 0.789415 0.750000 0.250000
O O11 0.750000 0.000000 0.433987
O O12 0.769348 0.750000 0.750000
#
# Coordination Sequence:
#
# PCOD9409035 Si02
#       4
#     8   8   8   8
#     4  10  19  35  59  85 112 153 202 248 297 358
#     4   9  18  34  58  83 114 156 201 242 296 367
#     4  12  25  42  63  91 125 161 202 252 307 368
#     4  11  22  39  62  91 125 164 209 258 309 369
#
# _framework density 21.123232000000002
#
# number of rings (size 3 to 8) (size 9 to 14) (size 15 to 20)
#    0.000    1.500    0.000    8.250    0.000    2.000 
#    0.000    3.750    0.000    0.000    0.000    0.000 
#    0.000    0.000    0.000    0.000    0.000    0.000 
#
# Total GULP energy -178573.648919 kJ/mol
# GULP energy per Si atom -5580.426529 kJ/mol
# Density = 2.107515 g / cm^3
# Si number density = 21.123232 Si / 1000 Ang^3
#
#
#
# Elastic Constant Matrix: (Units=GPa)
#
#
# Indices 1 2 3 4 5 6 
#
# 1 146.2268 4.1966 70.4305 0.0000 0.0000 0.0000
# 2 4.1966 22.2346 19.0092 0.0000 0.0000 0.0000
# 3 70.4305 19.0092 154.1221 0.0000 0.0000 0.0000
# 4 0.0000 0.0000 0.0000 15.2807 0.0000 0.0000
# 5 0.0000 0.0000 0.0000 0.0000 37.2436 0.0000
# 6 0.0000 0.0000 0.0000 0.0000 0.0000 29.2301
#
#
#
# Elastic Compliance Matrix: (Units=1/GPa)
#
#
# Indices 1 2 3 4 5 6 
#
# 1 0.008847 0.001997 -0.004289 0.000000 0.000000 0.000000
# 2 0.001997 0.050727 -0.007169 0.000000 0.000000 0.000000
# 3 -0.004289 -0.007169 0.009333 0.000000 0.000000 0.000000
# 4 0.000000 0.000000 0.000000 0.065442 0.000000 0.000000
# 5 0.000000 0.000000 0.000000 0.000000 0.026850 0.000000
# 6 0.000000 0.000000 0.000000 0.000000 0.000000 0.034211
#
#
# Mechanical properties :
#
#
# Convention : Reuss Voigt Hill
#
# Bulk Modulus (GPa) = 20.00615 56.65069 38.32842
# Shear Modulus (GPa) = 21.64542 31.61401 26.62971
#
# Velocity S-wave (km/s) = 3.20460 3.87285 3.55446
# Velocity P-wave (km/s) = 4.81501 6.84660 5.91863
#
# Compressibility (1/GPa) = 0.04998463
#
# Stress axis : x y z
#
# Youngs Moduli (GPa) = 113.02783 19.71320 107.14905
#
# Poissons Ratio (x) = -0.03937 0.45961
# Poissons Ratio (y) = -0.22575 0.76819
# Poissons Ratio (z) = 0.48482 0.14133
#
# Static dielectric constant tensor:
#      x y z
#    x 1.751970 0.000000 0.000000 
#    y 0.000000 1.753730 0.000000 
#    z 0.000000 0.000000 1.750750 
# 
# From -- ./inp_files/6232.got.cif
#   From: 2010.05.17/outbox.cif.g08.bks.cpg/sg52_4_cif.got.tgz:6232.got - 2010.06.03 12:15:38.
