data_PCOD9409701
_publ_section_title
;
Structure prediction by ZEFSAII (Michael W. Deem and Ramdas Pophale) SiO2 
 PCOD9409701
Probable space group: P N N A
;
_chemical_formula_sum "Si O2"
_cell_formula_units_Z 36
_cell_length_a 18.894000
_cell_length_b 14.518605
_cell_length_c 5.514338
_cell_angle_alpha 90.000000
_cell_angle_beta 90.000000
_cell_angle_gamma 90.000000
_cell_volume 1512.662997
_symmetry_space_group_name_H-M "P N N A"
_symmetry_group_IT_number 52
_symmetry_cell_setting 'orthorhombic'
loop_
_space_group_symop_operation_xyz
x,y,z
1/2-x,-y,z
x,1/2-y,1/2-z
1/2-x,1/2+y,1/2-z
-x,-y,-z
1/2+x,y,-z
-x,1/2+y,1/2+z
1/2+x,1/2-y,1/2+z
loop_
_atom_site_type_symbol
_atom_site_label
_atom_site_fract_x
_atom_site_fract_y
_atom_site_fract_z
Si Si1 0.880878 0.487324 0.079132
Si Si2 0.604607 0.821659 0.065221
Si Si3 0.764254 0.702164 0.507245
Si Si4 0.502291 0.423833 0.282950
Si Si5 0.750000 0.000000 0.792110
O O1 0.871577 0.415577 0.297688
O O2 0.916647 0.579478 0.192049
O O3 0.947153 0.450776 0.925872
O O4 0.815836 0.487885 0.894628
O O5 0.573976 0.750000 0.250000
O O6 0.679262 0.781024 0.982045
O O7 0.539931 0.839185 0.889967
O O8 0.795519 0.750000 0.750000
O O9 0.768985 0.590988 0.548738
O O10 0.786018 0.750000 0.250000
O O11 0.500000 0.500000 0.500000
#
# Coordination Sequence:
#
# PCOD9409701 Si02
#       5
#     8   8   8   8   4
#     4  10  21  38  63 100 132 179 243 285 359 452
#     4  10  20  35  64  99 133 177 236 304 356 414
#     4  11  25  42  65 110 145 179 250 305 342 445
#     4   9  19  38  58  95 133 169 229 311 340 427
#     4  12  22  42  74 104 138 208 234 292 396 428
#
# _framework density 23.799088000000001
#
# number of rings (size 3 to 8) (size 9 to 14) (size 15 to 20)
#    0.000    1.778    2.222    2.667    0.000    3.556 
#    0.000    0.000    0.000   14.667   23.111    0.000 
#    0.000    0.000    0.000    0.000    0.000    0.000 
#
# Total GULP energy -200543.712156 kJ/mol
# GULP energy per Si atom -5570.658671 kJ/mol
# Density = 2.374492 g / cm^3
# Si number density = 23.799088 Si / 1000 Ang^3
#
#
#
# Elastic Constant Matrix: (Units=GPa)
#
#
# Indices 1 2 3 4 5 6 
#
# 1 80.7422 7.4478 21.3773 0.0000 0.0000 0.0000
# 2 7.4478 91.7366 44.3555 0.0000 0.0000 0.0000
# 3 21.3773 44.3555 119.2449 0.0000 0.0000 0.0000
# 4 0.0000 0.0000 0.0000 48.7728 0.0000 0.0000
# 5 0.0000 0.0000 0.0000 0.0000 100.6992 0.0000
# 6 0.0000 0.0000 0.0000 0.0000 0.0000-1418.2400
#
#
#
# Elastic Compliance Matrix: (Units=1/GPa)
#
#
# Indices 1 2 3 4 5 6 
#
# 1 0.013003 0.000087 -0.002363 0.000000 0.000000 0.000000
# 2 0.000087 0.013292 -0.004960 0.000000 0.000000 0.000000
# 3 -0.002363 -0.004960 0.010655 0.000000 0.000000 0.000000
# 4 0.000000 0.000000 0.000000 0.020503 0.000000 0.000000
# 5 0.000000 0.000000 0.000000 0.000000 0.009931 0.000000
# 6 0.000000 0.000000 0.000000 0.000000 0.000000 -0.000705
#
#
# Mechanical properties :
#
#
# Convention : Reuss Voigt Hill
#
# Bulk Modulus (GPa) = 44.48980 48.67611 46.58295
# Shear Modulus (GPa) = 56.40631 -239.18406 -91.38888
#
# Velocity S-wave (km/s) = 4.87365 -10.03591 -6.20351
# Velocity P-wave (km/s) = 7.09961 10.66749 5.62987
#
# Compressibility (1/GPa) = 0.02247706
#
# Stress axis : x y z
#
# Youngs Moduli (GPa) = 76.90645 75.23441 93.85543
#
# Poissons Ratio (x) = -0.00655 0.22182
# Poissons Ratio (y) = -0.00670 0.46550
# Poissons Ratio (z) = 0.18176 0.37314
#
# Static dielectric constant tensor:
#      x y z
#    x 1.878480 0.000000 0.000000 
#    y 0.000000 2.163330 0.000000 
#    z 0.000000 0.000000 2.474120 
# 
# From -- ./inp_files/4089.got.cif
#   From: 2010.05.17/outbox.cif.g08.bks.cpg/sg52_3_cif.got.tgz:4089.got - 2010.06.03 12:15:38.
