data_PCOD9409589
_publ_section_title
;
Structure prediction by ZEFSAII (Michael W. Deem and Ramdas Pophale) SiO2 
 PCOD9409589
Probable space group: P N N A
;
_chemical_formula_sum "Si O2"
_cell_formula_units_Z 60
_cell_length_a 5.323469
_cell_length_b 28.248467
_cell_length_c 15.774054
_cell_angle_alpha 90.000000
_cell_angle_beta 90.000000
_cell_angle_gamma 90.000000
_cell_volume 2372.099691
_symmetry_space_group_name_H-M "P N N A"
_symmetry_group_IT_number 52
_symmetry_cell_setting 'orthorhombic'
loop_
_space_group_symop_operation_xyz
x,y,z
1/2-x,-y,z
x,1/2-y,1/2-z
1/2-x,1/2+y,1/2-z
-x,-y,-z
1/2+x,y,-z
-x,1/2+y,1/2+z
1/2+x,1/2-y,1/2+z
loop_
_atom_site_type_symbol
_atom_site_label
_atom_site_fract_x
_atom_site_fract_y
_atom_site_fract_z
Si Si1 0.388491 0.062571 0.227759
Si Si2 0.750000 0.500000 0.185417
Si Si3 0.868961 0.552322 0.901196
Si Si4 0.817993 0.351584 0.960706
Si Si5 0.685370 0.578535 0.537819
Si Si6 0.413902 0.803486 0.219520
Si Si7 0.409047 0.846510 0.719798
Si Si8 0.880398 0.187117 0.030054
O O1 0.524762 0.013987 0.252250
O O2 0.216074 0.071689 0.308749
O O3 0.269053 0.069973 0.136865
O O4 0.605435 0.101723 0.238382
O O5 0.658438 0.540749 0.120808
O O6 0.750000 0.500000 0.918338
O O7 0.753278 0.591886 0.962166
O O8 0.965237 0.344065 0.872811
O O9 0.531916 0.333491 0.973616
O O10 0.415273 0.557852 0.514650
O O11 0.662772 0.634072 0.509190
O O12 0.402702 0.750000 0.250000
O O13 0.129486 0.822296 0.224404
O O14 0.523076 0.812174 0.125735
O O15 0.630016 0.826612 0.277689
O O16 0.607002 0.210291 0.022581
#
# Coordination Sequence:
#
# PCOD9409589 Si02
#       8
#     8   4   8   8   8   8   8   8
#     4  10  22  38  66  93 131 178 230 279 345 421
#     4  10  22  40  64  94 136 172 242 288 352 406
#     4   9  22  39  62  91 128 176 227 282 346 402
#     4  11  25  42  65  97 135 176 232 284 347 417
#     4  10  20  34  58  89 122 163 216 269 327 394
#     4  12  25  45  72 105 137 178 236 286 342 424
#     4  11  24  43  72  96 134 184 229 280 347 428
#     4  10  20  38  62  98 134 166 216 281 333 389
#
# _framework density 25.294048
#
# number of rings (size 3 to 8) (size 9 to 14) (size 15 to 20)
#    0.000    1.600    0.000    5.200   11.200    0.533 
#    0.000    4.667    0.000    0.000    0.000    0.000 
#    0.000    0.000    0.000    0.000    0.000    0.000 
#
# Total GULP energy -334873.375726 kJ/mol
# GULP energy per Si atom -5581.222929 kJ/mol
# Density = 2.523648 g / cm^3
# Si number density = 25.294048 Si / 1000 Ang^3
#
#
#
# Elastic Constant Matrix: (Units=GPa)
#
#
# Indices 1 2 3 4 5 6 
#
# 1 116.5205 -1.8595 -3.4024 0.0000 0.0000 0.0000
# 2 -1.8595 44.5203 -0.2299 0.0000 0.0000 0.0000
# 3 -3.4024 -0.2299 114.7427 0.0000 0.0000 0.0000
# 4 0.0000 0.0000 0.0000 -4.7737 0.0000 0.0000
# 5 0.0000 0.0000 0.0000 0.0000 39.2007 0.0000
# 6 0.0000 0.0000 0.0000 0.0000 0.0000 11.4109
#
#
#
# Elastic Compliance Matrix: (Units=1/GPa)
#
#
# Indices 1 2 3 4 5 6 
#
# 1 0.008595 0.000360 0.000256 0.000000 0.000000 0.000000
# 2 0.000360 0.022477 0.000056 0.000000 0.000000 0.000000
# 3 0.000256 0.000056 0.008723 0.000000 0.000000 0.000000
# 4 0.000000 0.000000 0.000000 -0.209480 0.000000 0.000000
# 5 0.000000 0.000000 0.000000 0.000000 0.025510 0.000000
# 6 0.000000 0.000000 0.000000 0.000000 0.000000 0.087636
#
#
# Mechanical properties :
#
#
# Convention : Reuss Voigt Hill
#
# Bulk Modulus (GPa) = 24.30812 29.42221 26.86517
# Shear Modulus (GPa) = -113.20074 27.91926 -42.64074
#
# Velocity S-wave (km/s) = -6.69709 3.32593 -4.11031
# Velocity P-wave (km/s) = 7.08310 5.13872 3.44702
#
# Compressibility (1/GPa) = 0.04113851
#
# Stress axis : x y z
#
# Youngs Moduli (GPa) = 116.34135 44.48995 114.64156
#
# Poissons Ratio (x) = -0.01603 -0.02930
# Poissons Ratio (y) = -0.04192 -0.00639
# Poissons Ratio (z) = -0.02974 -0.00248
#
# Static dielectric constant tensor:
#      x y z
#    x 2.111480 0.000000 0.000000 
#    y 0.000000 2.226250 0.000000 
#    z 0.000000 0.000000 2.032560 
# 
# From -- ./inp_files/30379.got.cif
#   From: 2010.05.17/outbox.cif.g08.bks.cpg/sg52_16_cif.got.tgz:30379.got - 2010.06.03 12:15:38.
