data_PCOD9409045
_publ_section_title
;
Structure prediction by ZEFSAII (Michael W. Deem and Ramdas Pophale) SiO2 
 PCOD9409045
Probable space group: P N N A
;
_chemical_formula_sum "Si O2"
_cell_formula_units_Z 48
_cell_length_a 24.557183
_cell_length_b 7.056325
_cell_length_c 11.371427
_cell_angle_alpha 90.000000
_cell_angle_beta 90.000000
_cell_angle_gamma 90.000000
_cell_volume 1970.480265
_symmetry_space_group_name_H-M "P N N A"
_symmetry_group_IT_number 52
_symmetry_cell_setting 'orthorhombic'
loop_
_space_group_symop_operation_xyz
x,y,z
1/2-x,-y,z
x,1/2-y,1/2-z
1/2-x,1/2+y,1/2-z
-x,-y,-z
1/2+x,y,-z
-x,1/2+y,1/2+z
1/2+x,1/2-y,1/2+z
loop_
_atom_site_type_symbol
_atom_site_label
_atom_site_fract_x
_atom_site_fract_y
_atom_site_fract_z
Si Si1 0.030821 0.750000 0.750000
Si Si2 0.750000 0.000000 0.641092
Si Si3 0.079440 0.750000 0.250000
Si Si4 0.892563 0.986515 0.120160
Si Si5 0.313752 0.031591 0.703253
Si Si6 0.153926 0.668644 0.031447
Si Si7 0.559920 0.121881 0.896550
Si Si8 0.660018 0.250000 0.750000
O O1 0.070711 0.921895 0.777528
O O2 0.989267 0.742152 0.858666
O O3 0.717550 0.837518 0.569351
O O4 0.798427 0.913312 0.715497
O O5 0.116068 0.651911 0.146980
O O6 0.051360 0.576351 0.322722
O O7 0.840259 0.914121 0.189614
O O8 0.868402 0.142075 0.029359
O O9 0.934371 0.881028 0.035850
O O10 0.319058 0.250000 0.750000
O O11 0.344581 0.019347 0.577185
O O12 0.250000 0.000000 0.687596
O O13 0.618700 0.194046 0.852713
#
# Coordination Sequence:
#
# PCOD9409045 Si02
#       8
#     4   4   4   8   8   8   8   4
#     4  11  20  42  67  92 117 170 211 266 330 372
#     4  12  22  36  62  90 132 168 212 252 318 382
#     4  10  19  40  57  88 121 160 201 270 322 372
#     4  10  21  40  65  88 124 164 211 259 319 386
#     4  10  20  37  59  86 119 165 198 248 309 374
#     4  10  19  35  60  84 122 161 198 254 307 372
#     4  10  23  39  65  90 126 159 217 270 320 383
#     4  11  25  38  58 100 124 172 212 262 322 384
#
# _framework density 24.359542999999999
#
# number of rings (size 3 to 8) (size 9 to 14) (size 15 to 20)
#    0.000    1.667    5.000    1.000    2.333    2.667 
#    0.000    3.333    5.500    0.000    0.000    0.000 
#    0.000    0.000    0.000    0.000    0.000    0.000 
#
# Total GULP energy -267535.235273 kJ/mol
# GULP energy per Si atom -5573.650735 kJ/mol
# Density = 2.430410 g / cm^3
# Si number density = 24.359543 Si / 1000 Ang^3
#
#
#
# Elastic Constant Matrix: (Units=GPa)
#
#
# Indices 1 2 3 4 5 6 
#
# 1 125.8113 15.2320 38.8858 0.0000 0.0000 0.0000
# 2 15.2320 50.1962 13.4847 0.0000 0.0000 0.0000
# 3 38.8858 13.4847 139.4486 0.0000 0.0000 0.0000
# 4 0.0000 0.0000 0.0000 32.2036 0.0000 0.0000
# 5 0.0000 0.0000 0.0000 0.0000 -3.6037 0.0000
# 6 0.0000 0.0000 0.0000 0.0000 0.0000 6.9506
#
#
#
# Elastic Compliance Matrix: (Units=1/GPa)
#
#
# Indices 1 2 3 4 5 6 
#
# 1 0.008907 -0.002090 -0.002282 0.000000 0.000000 0.000000
# 2 -0.002090 0.020943 -0.001442 0.000000 0.000000 0.000000
# 3 -0.002282 -0.001442 0.007947 0.000000 0.000000 0.000000
# 4 0.000000 0.000000 0.000000 0.031052 0.000000 0.000000
# 5 0.000000 0.000000 0.000000 0.000000 -0.277493 0.000000
# 6 0.000000 0.000000 0.000000 0.000000 0.000000 0.143873
#
#
# Mechanical properties :
#
#
# Convention : Reuss Voigt Hill
#
# Bulk Modulus (GPa) = 38.21284 50.07346 44.14315
# Shear Modulus (GPa) = -112.56090 23.63368 -44.46361
#
# Velocity S-wave (km/s) = -6.80503 3.11819 -4.27699
# Velocity P-wave (km/s) = 6.78406 5.79351 2.49588
#
# Compressibility (1/GPa) = 0.02616921
#
# Stress axis : x y z
#
# Youngs Moduli (GPa) = 112.27622 47.74760 125.83658
#
# Poissons Ratio (x) = 0.09978 0.28710
# Poissons Ratio (y) = 0.23463 0.18152
# Poissons Ratio (z) = 0.25617 0.06888
#
# Static dielectric constant tensor:
#      x y z
#    x 1.910560 0.000000 0.000000 
#    y 0.000000 2.033630 0.000000 
#    z 0.000000 0.000000 2.033220 
# 
# From -- ./inp_files/22387.got.cif
#   From: 2010.05.17/outbox.cif.g08.bks.cpg/sg52_12_cif.got.tgz:22387.got - 2010.06.03 12:15:38.
