data_PCOD9409159
_publ_section_title
;
Structure prediction by ZEFSAII (Michael W. Deem and Ramdas Pophale) SiO2 
 PCOD9409159
Probable space group: P N N A
;
_chemical_formula_sum "Si O2"
_cell_formula_units_Z 32
_cell_length_a 14.486781
_cell_length_b 8.011227
_cell_length_c 11.902111
_cell_angle_alpha 90.000000
_cell_angle_beta 90.000000
_cell_angle_gamma 90.000000
_cell_volume 1381.322000
_symmetry_space_group_name_H-M "P N N A"
_symmetry_group_IT_number 52
_symmetry_cell_setting 'orthorhombic'
loop_
_space_group_symop_operation_xyz
x,y,z
1/2-x,-y,z
x,1/2-y,1/2-z
1/2-x,1/2+y,1/2-z
-x,-y,-z
1/2+x,y,-z
-x,1/2+y,1/2+z
1/2+x,1/2-y,1/2+z
loop_
_atom_site_type_symbol
_atom_site_label
_atom_site_fract_x
_atom_site_fract_y
_atom_site_fract_z
Si Si1 0.844678 0.750000 0.750000
Si Si2 0.902221 0.627245 0.422798
Si Si3 0.645457 0.475180 0.191520
Si Si4 0.250000 0.500000 0.418724
Si Si5 0.497412 0.340116 0.919958
O O1 0.778148 0.647540 0.666987
O O2 0.917618 0.653747 0.831540
O O3 0.919219 0.555702 0.299671
O O4 0.857007 0.810204 0.388414
O O5 0.835149 0.511414 0.495007
O O6 0.985823 0.681128 0.502389
O O7 0.750000 0.500000 0.228259
O O8 0.602321 0.638408 0.135056
O O9 0.500000 0.500000 0.000000
#
# Coordination Sequence:
#
# PCOD9409159 Si02
#       5
#     4   8   8   4   8
#     4  10  22  42  66  94 132 170 220 264 326 398
#     4   9  19  38  62  87 133 167 212 272 328 382
#     4  10  19  36  64  97 123 168 224 265 322 396
#     4  10  20  44  60  92 130 172 216 264 326 386
#     4   9  20  41  58  88 134 165 209 270 327 386
#
# _framework density 23.166212000000002
#
# number of rings (size 3 to 8) (size 9 to 14) (size 15 to 20)
#    0.000    2.500    1.250    0.000    0.000    2.000 
#   24.750    5.000    0.000    0.000    0.000    0.000 
#    0.000    0.000    0.000    0.000    0.000    0.000 
#
# Total GULP energy -178401.845075 kJ/mol
# GULP energy per Si atom -5575.057659 kJ/mol
# Density = 2.311348 g / cm^3
# Si number density = 23.166212 Si / 1000 Ang^3
#
#
#
# Elastic Constant Matrix: (Units=GPa)
#
#
# Indices 1 2 3 4 5 6 
#
# 1 107.3736 54.8785 58.3747 0.0000 0.0000 0.0000
# 2 54.8785 81.3210 45.2149 0.0000 0.0000 0.0000
# 3 58.3747 45.2149 135.6229 0.0000 0.0000 0.0000
# 4 0.0000 0.0000 0.0000 21.1475 0.0000 0.0000
# 5 0.0000 0.0000 0.0000 0.0000 4.8325 0.0000
# 6 0.0000 0.0000 0.0000 0.0000 0.0000 38.6196
#
#
#
# Elastic Compliance Matrix: (Units=1/GPa)
#
#
# Indices 1 2 3 4 5 6 
#
# 1 0.015794 -0.008444 -0.003983 0.000000 0.000000 0.000000
# 2 -0.008444 0.019609 -0.002903 0.000000 0.000000 0.000000
# 3 -0.003983 -0.002903 0.010056 0.000000 0.000000 0.000000
# 4 0.000000 0.000000 0.000000 0.047287 0.000000 0.000000
# 5 0.000000 0.000000 0.000000 0.000000 0.206933 0.000000
# 6 0.000000 0.000000 0.000000 0.000000 0.000000 0.025894
#
#
# Mechanical properties :
#
#
# Convention : Reuss Voigt Hill
#
# Bulk Modulus (GPa) = 67.57168 71.25041 69.41105
# Shear Modulus (GPa) = 13.84401 23.97654 18.91028
#
# Velocity S-wave (km/s) = 2.44723 3.22060 2.86017
# Velocity P-wave (km/s) = 6.10055 6.68226 6.39802
#
# Compressibility (1/GPa) = 0.01479910
#
# Stress axis : x y z
#
# Youngs Moduli (GPa) = 63.31324 50.99590 99.44687
#
# Poissons Ratio (x) = 0.43061 0.39611
# Poissons Ratio (y) = 0.53462 0.28870
# Poissons Ratio (z) = 0.25218 0.14804
#
# Static dielectric constant tensor:
#      x y z
#    x 1.846980 0.000000 0.000000 
#    y 0.000000 1.917950 0.000000 
#    z 0.000000 0.000000 1.934520 
# 
# From -- ./inp_files/19043.got.cif
#   From: 2010.05.17/outbox.cif.g08.bks.cpg/sg52_10_cif.got.tgz:19043.got - 2010.06.03 12:15:38.
