data_PCOD9409041
_publ_section_title
;
Structure prediction by ZEFSAII (Michael W. Deem and Ramdas Pophale) SiO2 
 PCOD9409041
Probable space group: P N N A
;
_chemical_formula_sum "Si O2"
_cell_formula_units_Z 32
_cell_length_a 5.070694
_cell_length_b 15.226495
_cell_length_c 16.434419
_cell_angle_alpha 90.000000
_cell_angle_beta 90.000000
_cell_angle_gamma 90.000000
_cell_volume 1268.883361
_symmetry_space_group_name_H-M "P N N A"
_symmetry_group_IT_number 52
_symmetry_cell_setting 'orthorhombic'
loop_
_space_group_symop_operation_xyz
x,y,z
1/2-x,-y,z
x,1/2-y,1/2-z
1/2-x,1/2+y,1/2-z
-x,-y,-z
1/2+x,y,-z
-x,1/2+y,1/2+z
1/2+x,1/2-y,1/2+z
loop_
_atom_site_type_symbol
_atom_site_label
_atom_site_fract_x
_atom_site_fract_y
_atom_site_fract_z
Si Si1 0.276225 0.393363 0.951181
Si Si2 0.563951 0.162312 0.713665
Si Si3 0.428275 0.913994 0.777209
Si Si4 0.974953 0.098886 0.963188
O O1 0.250000 0.500000 0.941021
O O2 0.413267 0.352204 0.871466
O O3 0.479021 0.369230 0.023924
O O4 0.694953 0.250000 0.750000
O O5 0.312797 0.153906 0.774450
O O6 0.817899 0.097818 0.720117
O O7 0.545899 0.912418 0.867764
O O8 0.250000 0.000000 0.761030
O O9 0.737367 0.145136 0.007685
O O10 0.000000 0.000000 0.000000
#
# Coordination Sequence:
#
# PCOD9409041 Si02
#       4
#     8   8   8   8
#     4  10  22  45  76 102 135 187 248 312 359 420
#     4  12  27  46  67 106 150 183 234 304 378 446
#     4  12  24  41  71  99 135 192 241 292 350 424
#     4  10  19  35  59  91 140 169 216 282 313 397
#
# _framework density 25.219024000000001
#
# number of rings (size 3 to 8) (size 9 to 14) (size 15 to 20)
#    0.000    1.000    2.500    5.250    3.500    4.000 
#    0.000    7.500    0.000    0.000    0.000    0.000 
#    0.000    0.000    0.000    0.000    0.000    0.000 
#
# Total GULP energy -178550.228266 kJ/mol
# GULP energy per Si atom -5579.694633 kJ/mol
# Density = 2.516162 g / cm^3
# Si number density = 25.219024 Si / 1000 Ang^3
#
#
#
# Elastic Constant Matrix: (Units=GPa)
#
#
# Indices 1 2 3 4 5 6 
#
# 1 176.7112 14.1556 39.9689 0.0000 0.0000 0.0000
# 2 14.1556 68.3574 3.8008 0.0000 0.0000 0.0000
# 3 39.9689 3.8008 131.3367 0.0000 0.0000 0.0000
# 4 0.0000 0.0000 0.0000 15.4210 0.0000 0.0000
# 5 0.0000 0.0000 0.0000 0.0000 -55.2866 0.0000
# 6 0.0000 0.0000 0.0000 0.0000 0.0000 29.9326
#
#
#
# Elastic Compliance Matrix: (Units=1/GPa)
#
#
# Indices 1 2 3 4 5 6 
#
# 1 0.006170 -0.001175 -0.001844 0.000000 0.000000 0.000000
# 2 -0.001175 0.014876 -0.000073 0.000000 0.000000 0.000000
# 3 -0.001844 -0.000073 0.008177 0.000000 0.000000 0.000000
# 4 0.000000 0.000000 0.000000 0.064847 0.000000 0.000000
# 5 0.000000 0.000000 0.000000 0.000000 -0.018088 0.000000
# 6 0.000000 0.000000 0.000000 0.000000 0.000000 0.033408
#
#
# Mechanical properties :
#
#
# Convention : Reuss Voigt Hill
#
# Bulk Modulus (GPa) = 43.40247 54.69512 49.04879
# Shear Modulus (GPa) = 40.56642 19.24541 29.90592
#
# Velocity S-wave (km/s) = 4.01504 2.76548 3.44735
# Velocity P-wave (km/s) = 6.22428 5.65087 5.94449
#
# Compressibility (1/GPa) = 0.02304016
#
# Stress axis : x y z
#
# Youngs Moduli (GPa) = 162.07180 67.22047 122.29114
#
# Poissons Ratio (x) = 0.07900 0.22547
# Poissons Ratio (y) = 0.19047 0.00891
# Poissons Ratio (z) = 0.29881 0.00490
#
# Static dielectric constant tensor:
#      x y z
#    x 1.939120 0.000000 0.000000 
#    y 0.000000 4.098900 0.000000 
#    z 0.000000 0.000000 1.981020 
# 
# From -- ./inp_files/23495.got.cif
#   From: 2010.05.17/outbox.cif.g08.bks.cpg/sg52_12_cif.got.tgz:23495.got - 2010.06.03 12:15:38.
