data_PCOD9409452
_publ_section_title
;
Structure prediction by ZEFSAII (Michael W. Deem and Ramdas Pophale) SiO2 
 PCOD9409452
Probable space group: P N N A
;
_chemical_formula_sum "Si O2"
_cell_formula_units_Z 40
_cell_length_a 9.777636
_cell_length_b 8.240138
_cell_length_c 26.441062
_cell_angle_alpha 90.000000
_cell_angle_beta 90.000000
_cell_angle_gamma 90.000000
_cell_volume 2130.331774
_symmetry_space_group_name_H-M "P N N A"
_symmetry_group_IT_number 52
_symmetry_cell_setting 'orthorhombic'
loop_
_space_group_symop_operation_xyz
x,y,z
1/2-x,-y,z
x,1/2-y,1/2-z
1/2-x,1/2+y,1/2-z
-x,-y,-z
1/2+x,y,-z
-x,1/2+y,1/2+z
1/2+x,1/2-y,1/2+z
loop_
_atom_site_type_symbol
_atom_site_label
_atom_site_fract_x
_atom_site_fract_y
_atom_site_fract_z
Si Si1 0.711041 0.238413 0.190534
Si Si2 0.263857 0.694603 0.048993
Si Si3 0.050656 0.565602 0.647305
Si Si4 0.750000 0.000000 0.382811
Si Si5 0.250000 0.000000 0.123473
Si Si6 0.917885 0.244173 0.451043
O O1 0.690335 0.250000 0.250000
O O2 0.872132 0.207487 0.178355
O O3 0.667776 0.387933 0.156086
O O4 0.626623 0.091330 0.167490
O O5 0.250000 0.500000 0.061225
O O6 0.424168 0.714932 0.036315
O O7 0.229474 0.833546 0.090732
O O8 0.171629 0.745728 0.001283
O O9 0.082210 0.603976 0.588071
O O10 0.889479 0.540279 0.653037
O O11 0.648059 0.900534 0.418213
#
# Coordination Sequence:
#
# PCOD9409452 Si02
#       6
#     8   8   8   4   4   8
#     4  10  20  37  63  87 108 146 191 248 300 362
#     4  11  23  37  57  84 124 161 213 242 282 348
#     4   9  21  39  59  84 119 152 197 239 301 361
#     4  10  20  32  56  81 114 137 196 242 296 342
#     4  10  24  40  58  87 124 167 192 246 296 346
#     4  10  22  36  53  85 113 162 196 246 284 344
#
# _framework density 18.776419000000001
#
# number of rings (size 3 to 8) (size 9 to 14) (size 15 to 20)
#    0.000    2.000    1.000    1.800    2.800    9.600 
#    0.000    1.000    0.000    0.000    0.000    0.000 
#    0.000    0.000    0.000    0.000    0.000    0.000 
#
# Total GULP energy -222744.509686 kJ/mol
# GULP energy per Si atom -5568.612742 kJ/mol
# Density = 1.873368 g / cm^3
# Si number density = 18.776419 Si / 1000 Ang^3
#
#
#
# Elastic Constant Matrix: (Units=GPa)
#
#
# Indices 1 2 3 4 5 6 
#
# 1 126.0828 25.3912 44.5942 0.0000 0.0000 0.0000
# 2 25.3912 68.0920 26.4262 0.0000 0.0000 0.0000
# 3 44.5942 26.4262 42.9382 0.0000 0.0000 0.0000
# 4 0.0000 0.0000 0.0000 43.1136 0.0000 0.0000
# 5 0.0000 0.0000 0.0000 0.0000 13.8818 0.0000
# 6 0.0000 0.0000 0.0000 0.0000 0.0000 18.5580
#
#
#
# Elastic Compliance Matrix: (Units=1/GPa)
#
#
# Indices 1 2 3 4 5 6 
#
# 1 0.012549 0.000497 -0.013339 0.000000 0.000000 0.000000
# 2 0.000497 0.019314 -0.012404 0.000000 0.000000 0.000000
# 3 -0.013339 -0.012404 0.044777 0.000000 0.000000 0.000000
# 4 0.000000 0.000000 0.000000 0.023195 0.000000 0.000000
# 5 0.000000 0.000000 0.000000 0.000000 0.072037 0.000000
# 6 0.000000 0.000000 0.000000 0.000000 0.000000 0.053885
#
#
# Mechanical properties :
#
#
# Convention : Reuss Voigt Hill
#
# Bulk Modulus (GPa) = 38.24177 47.77069 43.00623
# Shear Modulus (GPa) = 17.54611 24.49077 21.01844
#
# Velocity S-wave (km/s) = 3.06024 3.61548 3.34938
# Velocity P-wave (km/s) = 5.73567 6.55179 6.15727
#
# Compressibility (1/GPa) = 0.02614942
#
# Stress axis : x y z
#
# Youngs Moduli (GPa) = 79.68717 51.77514 22.33306
#
# Poissons Ratio (x) = -0.02575 0.29790
# Poissons Ratio (y) = -0.03963 0.27701
# Poissons Ratio (z) = 1.06296 0.64219
#
# Static dielectric constant tensor:
#      x y z
#    x 1.646090 0.000000 0.000000 
#    y 0.000000 1.681720 0.000000 
#    z 0.000000 0.000000 1.636820 
# 
# From -- ./inp_files/39275.got.cif
#   From: 2010.05.17/outbox.cif.g08.bks.cpg/sg52_20_cif.got.tgz:39275.got - 2010.06.03 12:15:38.
