data_PCOD9409203
_publ_section_title
;
Structure prediction by ZEFSAII (Michael W. Deem and Ramdas Pophale) SiO2 
 PCOD9409203
Probable space group: P N N A
;
_chemical_formula_sum "Si O2"
_cell_formula_units_Z 44
_cell_length_a 9.058607
_cell_length_b 8.191002
_cell_length_c 31.277733
_cell_angle_alpha 90.000000
_cell_angle_beta 90.000000
_cell_angle_gamma 90.000000
_cell_volume 2320.778639
_symmetry_space_group_name_H-M "P N N A"
_symmetry_group_IT_number 52
_symmetry_cell_setting 'orthorhombic'
loop_
_space_group_symop_operation_xyz
x,y,z
1/2-x,-y,z
x,1/2-y,1/2-z
1/2-x,1/2+y,1/2-z
-x,-y,-z
1/2+x,y,-z
-x,1/2+y,1/2+z
1/2+x,1/2-y,1/2+z
loop_
_atom_site_type_symbol
_atom_site_label
_atom_site_fract_x
_atom_site_fract_y
_atom_site_fract_z
Si Si1 0.134917 0.637417 0.287934
Si Si2 0.421211 0.946072 0.563355
Si Si3 0.250000 0.000000 0.006902
Si Si4 0.009410 0.231916 0.016860
Si Si5 0.414006 0.432275 0.768333
Si Si6 0.084486 0.564117 0.152296
O O1 0.250000 0.500000 0.300932
O O2 0.203260 0.750000 0.250000
O O3 0.093991 0.759334 0.325422
O O4 0.995835 0.549098 0.265936
O O5 0.454419 0.793945 0.531589
O O6 0.486762 0.921921 0.610070
O O7 0.250000 0.000000 0.563712
O O8 0.500752 0.103827 0.543338
O O9 0.137818 0.878642 0.982144
O O10 0.357708 0.881354 0.032375
O O11 0.250000 0.500000 0.775993
O O12 0.409339 0.250000 0.750000
O O13 0.507452 0.448376 0.812125
O O14 0.250000 0.500000 0.143485
#
# Coordination Sequence:
#
# PCOD9409203 Si02
#       6
#     8   8   4   8   8   8
#     4  10  19  37  61  87 119 158 204 252 301 362
#     4  11  23  41  63  90 127 168 206 249 310 379
#     4  10  20  40  64  94 120 150 208 254 308 360
#     4  10  22  40  68  92 121 166 204 253 309 373
#     4  11  21  38  64  89 120 161 205 251 308 370
#     4  11  24  38  60  89 123 164 206 254 303 361
#
# _framework density 18.959153000000001
#
# number of rings (size 3 to 8) (size 9 to 14) (size 15 to 20)
#    0.000    1.455    1.818    6.000    2.545    0.000 
#    1.636    3.636    4.000    0.000    0.000    0.000 
#    0.000    0.000    0.000    0.000    0.000    0.000 
#
# Total GULP energy -245634.697446 kJ/mol
# GULP energy per Si atom -5582.606760 kJ/mol
# Density = 1.891600 g / cm^3
# Si number density = 18.959153 Si / 1000 Ang^3
#
#
#
# Elastic Constant Matrix: (Units=GPa)
#
#
# Indices 1 2 3 4 5 6 
#
# 1 88.4989 29.6445 23.1093 0.0000 0.0000 0.0000
# 2 29.6445 111.4559 43.8321 0.0000 0.0000 0.0000
# 3 23.1093 43.8321 105.8925 0.0000 0.0000 0.0000
# 4 0.0000 0.0000 0.0000 12.0616 0.0000 0.0000
# 5 0.0000 0.0000 0.0000 0.0000 3.8503 0.0000
# 6 0.0000 0.0000 0.0000 0.0000 0.0000 38.4063
#
#
#
# Elastic Compliance Matrix: (Units=1/GPa)
#
#
# Indices 1 2 3 4 5 6 
#
# 1 0.012637 -0.002719 -0.001632 0.000000 0.000000 0.000000
# 2 -0.002719 0.011302 -0.004085 0.000000 0.000000 0.000000
# 3 -0.001632 -0.004085 0.011491 0.000000 0.000000 0.000000
# 4 0.000000 0.000000 0.000000 0.082907 0.000000 0.000000
# 5 0.000000 0.000000 0.000000 0.000000 0.259718 0.000000
# 6 0.000000 0.000000 0.000000 0.000000 0.000000 0.026037
#
#
# Mechanical properties :
#
#
# Convention : Reuss Voigt Hill
#
# Bulk Modulus (GPa) = 53.88866 55.44656 54.66761
# Shear Modulus (GPa) = 11.70551 24.81442 18.25997
#
# Velocity S-wave (km/s) = 2.48746 3.62171 3.10679
# Velocity P-wave (km/s) = 6.06096 6.84089 6.46270
#
# Compressibility (1/GPa) = 0.01855678
#
# Stress axis : x y z
#
# Youngs Moduli (GPa) = 79.13519 88.48171 87.02818
#
# Poissons Ratio (x) = 0.24059 0.14205
# Poissons Ratio (y) = 0.21518 0.35549
# Poissons Ratio (z) = 0.12916 0.36142
#
# Static dielectric constant tensor:
#      x y z
#    x 1.685150 0.000000 0.000000 
#    y 0.000000 1.676080 0.000000 
#    z 0.000000 0.000000 1.636470 
# 
# From -- ./inp_files/44250.got.cif
#   From: 2010.05.17/outbox.cif.g08.bks.cpg/sg52_23_cif.got.tgz:44250.got - 2010.06.03 12:15:38.
