data_PCOD9409833
_publ_section_title
;
Structure prediction by ZEFSAII (Michael W. Deem and Ramdas Pophale) SiO2 
 PCOD9409833
Probable space group: P N N A
;
_chemical_formula_sum "Si O2"
_cell_formula_units_Z 52
_cell_length_a 25.800782
_cell_length_b 9.122122
_cell_length_c 11.757153
_cell_angle_alpha 90.000000
_cell_angle_beta 90.000000
_cell_angle_gamma 90.000000
_cell_volume 2767.138618
_symmetry_space_group_name_H-M "P N N A"
_symmetry_group_IT_number 52
_symmetry_cell_setting 'orthorhombic'
loop_
_space_group_symop_operation_xyz
x,y,z
1/2-x,-y,z
x,1/2-y,1/2-z
1/2-x,1/2+y,1/2-z
-x,-y,-z
1/2+x,y,-z
-x,1/2+y,1/2+z
1/2+x,1/2-y,1/2+z
loop_
_atom_site_type_symbol
_atom_site_label
_atom_site_fract_x
_atom_site_fract_y
_atom_site_fract_z
Si Si1 0.440793 0.250000 0.750000
Si Si2 0.242106 0.672372 0.633187
Si Si3 0.494312 0.830085 0.028393
Si Si4 0.143364 0.653603 0.911485
Si Si5 0.296950 0.901694 0.481119
Si Si6 0.926884 0.331769 0.869290
Si Si7 0.595344 0.165047 0.632992
O O1 0.476500 0.189542 0.850576
O O2 0.401986 0.358226 0.818557
O O3 0.250000 0.500000 0.635186
O O4 0.258860 0.750000 0.750000
O O5 0.181712 0.714086 0.618075
O O6 0.272710 0.755522 0.533383
O O7 0.437031 0.763631 0.044309
O O8 0.523528 0.738088 0.931001
O O9 0.500000 0.000000 0.000000
O O10 0.178414 0.508548 0.922257
O O11 0.118209 0.683311 0.035247
O O12 0.345486 0.864002 0.402578
O O13 0.250000 0.000000 0.430098
O O14 0.916573 0.250000 0.750000
O O15 0.931914 0.506540 0.853588
O O16 0.594353 0.250000 0.750000
#
# Coordination Sequence:
#
# PCOD9409833 Si02
#       7
#     4   8   8   8   8   8   8
#     4  10  20  36  64  90 124 164 204 256 318 368
#     4  11  21  35  59  87 122 157 204 264 318 378
#     4  11  23  40  62  93 131 167 217 263 316 386
#     4   9  19  38  62  86 124 164 206 257 315 378
#     4   9  21  41  59  88 121 158 208 263 321 378
#     4  10  22  39  63  91 125 170 212 261 316 377
#     4  11  22  42  65  88 128 169 215 267 318 379
#
# _framework density 18.791974
#
# number of rings (size 3 to 8) (size 9 to 14) (size 15 to 20)
#    0.000    1.846    1.538    2.769    0.000    3.692 
#    0.000    7.692    0.000    0.000    0.000    0.000 
#    0.000    0.000    0.000    0.000    0.000    0.000 
#
# Total GULP energy -290048.276307 kJ/mol
# GULP energy per Si atom -5577.851467 kJ/mol
# Density = 1.874920 g / cm^3
# Si number density = 18.791974 Si / 1000 Ang^3
#
#
#
# Elastic Constant Matrix: (Units=GPa)
#
#
# Indices 1 2 3 4 5 6 
#
# 1 100.2028 47.5615 29.0306 0.0000 0.0000 0.0000
# 2 47.5615 153.9559 46.1199 0.0000 0.0000 0.0000
# 3 29.0306 46.1199 89.2569 0.0000 0.0000 0.0000
# 4 0.0000 0.0000 0.0000 21.9841 0.0000 0.0000
# 5 0.0000 0.0000 0.0000 0.0000 19.9817 0.0000
# 6 0.0000 0.0000 0.0000 0.0000 0.0000 20.2550
#
#
#
# Elastic Compliance Matrix: (Units=1/GPa)
#
#
# Indices 1 2 3 4 5 6 
#
# 1 0.012105 -0.003029 -0.002372 0.000000 0.000000 0.000000
# 2 -0.003029 0.008443 -0.003377 0.000000 0.000000 0.000000
# 3 -0.002372 -0.003377 0.013720 0.000000 0.000000 0.000000
# 4 0.000000 0.000000 0.000000 0.045488 0.000000 0.000000
# 5 0.000000 0.000000 0.000000 0.000000 0.050046 0.000000
# 6 0.000000 0.000000 0.000000 0.000000 0.000000 0.049370
#
#
# Mechanical properties :
#
#
# Convention : Reuss Voigt Hill
#
# Bulk Modulus (GPa) = 59.83990 65.42663 62.63326
# Shear Modulus (GPa) = 24.71599 27.15773 25.93686
#
# Velocity S-wave (km/s) = 3.63056 3.80567 3.71915
# Velocity P-wave (km/s) = 7.03471 7.36225 7.20034
#
# Compressibility (1/GPa) = 0.01671126
#
# Stress axis : x y z
#
# Youngs Moduli (GPa) = 82.61297 118.44371 72.88529
#
# Poissons Ratio (x) = 0.35876 0.17288
# Poissons Ratio (y) = 0.25023 0.24616
# Poissons Ratio (z) = 0.19595 0.40003
#
# Static dielectric constant tensor:
#      x y z
#    x 1.676970 0.000000 0.000000 
#    y 0.000000 1.643030 0.000000 
#    z 0.000000 0.000000 1.646410 
# 
# From -- ./inp_files/22835.got.cif
#   From: 2010.05.17/outbox.cif.g08.bks.cpg/sg52_12_cif.got.tgz:22835.got - 2010.06.03 12:15:38.
