data_PCOD9409897
_publ_section_title
;
Structure prediction by ZEFSAII (Michael W. Deem and Ramdas Pophale) SiO2 
 PCOD9409897
Probable space group: P N N A
;
_chemical_formula_sum "Si O2"
_cell_formula_units_Z 40
_cell_length_a 4.996642
_cell_length_b 11.809523
_cell_length_c 30.207880
_cell_angle_alpha 90.000000
_cell_angle_beta 90.000000
_cell_angle_gamma 90.000000
_cell_volume 1782.505333
_symmetry_space_group_name_H-M "P N N A"
_symmetry_group_IT_number 52
_symmetry_cell_setting 'orthorhombic'
loop_
_space_group_symop_operation_xyz
x,y,z
1/2-x,-y,z
x,1/2-y,1/2-z
1/2-x,1/2+y,1/2-z
-x,-y,-z
1/2+x,y,-z
-x,1/2+y,1/2+z
1/2+x,1/2-y,1/2+z
loop_
_atom_site_type_symbol
_atom_site_label
_atom_site_fract_x
_atom_site_fract_y
_atom_site_fract_z
Si Si1 0.761299 0.750431 0.531736
Si Si2 0.424581 0.110510 0.669758
Si Si3 0.729202 0.250000 0.250000
Si Si4 0.501412 0.581969 0.680482
Si Si5 0.250000 0.500000 0.467978
Si Si6 0.068728 0.805188 0.376380
O O1 0.546343 0.763514 0.492012
O O2 0.752927 0.623126 0.552971
O O3 0.671127 0.821988 0.573802
O O4 0.401357 0.192853 0.711637
O O5 0.729590 0.120626 0.653868
O O6 0.238692 0.158321 0.629865
O O7 0.250000 0.000000 0.682172
O O8 0.561706 0.346585 0.275190
O O9 0.750000 0.500000 0.686952
O O10 0.566654 0.677769 0.643759
O O11 0.250000 0.500000 0.669227
O O12 0.500000 0.500000 0.500000
#
# Coordination Sequence:
#
# PCOD9409897 Si02
#       6
#     8   8   4   8   4   8
#     4  10  20  37  60  87 123 164 205 256 310 372
#     4  11  24  43  67  91 126 165 208 266 312 373
#     4  10  24  42  64  94 122 164 216 246 314 378
#     4  11  24  40  61  92 130 168 205 260 313 374
#     4   8  16  30  48  80 110 150 194 230 292 360
#     4  11  24  41  63  95 125 166 213 254 318 382
#
# _framework density 22.440325000000001
#
# number of rings (size 3 to 8) (size 9 to 14) (size 15 to 20)
#    0.000    1.600    0.000    4.800    1.400   10.400 
#    7.200    0.000    0.000   12.000    0.000    0.000 
#    0.000    0.000    0.000    0.000    0.000    0.000 
#
# Total GULP energy -223155.065249 kJ/mol
# GULP energy per Si atom -5578.876631 kJ/mol
# Density = 2.238925 g / cm^3
# Si number density = 22.440325 Si / 1000 Ang^3
#
#
#
# Elastic Constant Matrix: (Units=GPa)
#
#
# Indices 1 2 3 4 5 6 
#
# 1 109.3088 13.3189 8.1131 0.0000 0.0000 0.0000
# 2 13.3189 77.9930 10.7199 0.0000 0.0000 0.0000
# 3 8.1131 10.7199 64.1850 0.0000 0.0000 0.0000
# 4 0.0000 0.0000 0.0000 8.5017 0.0000 0.0000
# 5 0.0000 0.0000 0.0000 0.0000 32.1551 0.0000
# 6 0.0000 0.0000 0.0000 0.0000 0.0000 26.7474
#
#
#
# Elastic Compliance Matrix: (Units=1/GPa)
#
#
# Indices 1 2 3 4 5 6 
#
# 1 0.009398 -0.001476 -0.000942 0.000000 0.000000 0.000000
# 2 -0.001476 0.013355 -0.002044 0.000000 0.000000 0.000000
# 3 -0.000942 -0.002044 0.016040 0.000000 0.000000 0.000000
# 4 0.000000 0.000000 0.000000 0.117624 0.000000 0.000000
# 5 0.000000 0.000000 0.000000 0.000000 0.031099 0.000000
# 6 0.000000 0.000000 0.000000 0.000000 0.000000 0.037387
#
#
# Mechanical properties :
#
#
# Convention : Reuss Voigt Hill
#
# Bulk Modulus (GPa) = 33.47716 35.08785 34.28251
# Shear Modulus (GPa) = 20.51017 28.10318 24.30668
#
# Velocity S-wave (km/s) = 3.02650 3.54270 3.29472
# Velocity P-wave (km/s) = 5.21188 5.69248 5.45747
#
# Compressibility (1/GPa) = 0.02987111
#
# Stress axis : x y z
#
# Youngs Moduli (GPa) = 106.40490 74.88073 62.34286
#
# Poissons Ratio (x) = 0.11049 0.05870
# Poissons Ratio (y) = 0.15700 0.12742
# Poissons Ratio (z) = 0.10018 0.15305
#
# Static dielectric constant tensor:
#      x y z
#    x 1.791580 0.000000 0.000000 
#    y 0.000000 1.906340 0.000000 
#    z 0.000000 0.000000 1.829720 
# 
# From -- ./inp_files/41534.got.cif
#   From: 2010.05.17/outbox.cif.g08.bks.cpg/sg52_21_cif.got.tgz:41534.got - 2010.06.03 12:15:38.
