data_PCOD9409473
_publ_section_title
;
Structure prediction by ZEFSAII (Michael W. Deem and Ramdas Pophale) SiO2 
 PCOD9409473
Probable space group: P N N A
;
_chemical_formula_sum "Si O2"
_cell_formula_units_Z 40
_cell_length_a 28.157794
_cell_length_b 7.272860
_cell_length_c 8.725261
_cell_angle_alpha 90.000000
_cell_angle_beta 90.000000
_cell_angle_gamma 90.000000
_cell_volume 1786.826077
_symmetry_space_group_name_H-M "P N N A"
_symmetry_group_IT_number 52
_symmetry_cell_setting 'orthorhombic'
loop_
_space_group_symop_operation_xyz
x,y,z
1/2-x,-y,z
x,1/2-y,1/2-z
1/2-x,1/2+y,1/2-z
-x,-y,-z
1/2+x,y,-z
-x,1/2+y,1/2+z
1/2+x,1/2-y,1/2+z
loop_
_atom_site_type_symbol
_atom_site_label
_atom_site_fract_x
_atom_site_fract_y
_atom_site_fract_z
Si Si1 0.199412 0.719525 0.931587
Si Si2 0.498819 0.787904 0.565805
Si Si3 0.398308 0.220818 0.431668
Si Si4 0.099569 0.217005 0.429726
Si Si5 0.302382 0.718352 0.932258
O O1 0.198666 0.750000 0.750000
O O2 0.250891 0.789754 0.987586
O O3 0.198937 0.500709 0.959625
O O4 0.150369 0.795129 0.998137
O O5 0.497976 0.750000 0.750000
O O6 0.550102 0.709998 0.512518
O O7 0.449368 0.711330 0.501827
O O8 0.500000 0.000000 0.500000
O O9 0.396142 0.250000 0.250000
O O10 0.399246 0.001796 0.460590
O O11 0.097556 0.250000 0.250000
O O12 0.149380 0.291221 0.493649
O O13 0.305004 0.750000 0.750000
#
# Coordination Sequence:
#
# PCOD9409473 Si02
#       5
#     8   8   8   8   8
#     4   9  18  32  51  72  95 129 168 204 250 303
#     4   9  18  35  54  73 102 139 173 213 263 313
#     4   9  19  35  50  70 102 132 163 207 255 303
#     4  10  20  33  51  76 102 133 170 209 257 309
#     4   9  18  33  50  71 100 129 163 209 253 300
#
# _framework density 22.386063
#
# number of rings (size 3 to 8) (size 9 to 14) (size 15 to 20)
#    0.000    2.800    0.000    0.600    0.000    3.200 
#    0.000    9.000    0.000    0.000    0.000    0.000 
#    0.000    0.000    0.000    0.000    0.000    0.000 
#
# Total GULP energy -222922.634075 kJ/mol
# GULP energy per Si atom -5573.065852 kJ/mol
# Density = 2.233511 g / cm^3
# Si number density = 22.386063 Si / 1000 Ang^3
#
#
#
# Elastic Constant Matrix: (Units=GPa)
#
#
# Indices 1 2 3 4 5 6 
#
# 1 344.5625 22.5561 92.9944 0.0000 0.0000 0.0000
# 2 22.5561 112.2397 -0.9933 0.0000 0.0000 0.0000
# 3 92.9944 -0.9933 69.1793 0.0000 0.0000 0.0000
# 4 0.0000 0.0000 0.0000 23.1197 0.0000 0.0000
# 5 0.0000 0.0000 0.0000 0.0000 43.1399 0.0000
# 6 0.0000 0.0000 0.0000 0.0000 0.0000 28.4751
#
#
#
# Elastic Compliance Matrix: (Units=1/GPa)
#
#
# Indices 1 2 3 4 5 6 
#
# 1 0.004663 -0.000993 -0.006282 0.000000 0.000000 0.000000
# 2 -0.000993 0.009122 0.001465 0.000000 0.000000 0.000000
# 3 -0.006282 0.001465 0.022921 0.000000 0.000000 0.000000
# 4 0.000000 0.000000 0.000000 0.043253 0.000000 0.000000
# 5 0.000000 0.000000 0.000000 0.000000 0.023180 0.000000
# 6 0.000000 0.000000 0.000000 0.000000 0.000000 0.035118
#
#
# Mechanical properties :
#
#
# Convention : Reuss Voigt Hill
#
# Bulk Modulus (GPa) = 39.86164 83.89955 61.88059
# Shear Modulus (GPa) = 31.59785 46.37522 38.98654
#
# Velocity S-wave (km/s) = 3.76106 4.55643 4.17772
# Velocity P-wave (km/s) = 6.05854 8.07721 7.13958
#
# Compressibility (1/GPa) = 0.02508678
#
# Stress axis : x y z
#
# Youngs Moduli (GPa) = 214.46847 109.62564 43.62827
#
# Poissons Ratio (x) = 0.10882 0.27408
# Poissons Ratio (y) = 0.21289 -0.06393
# Poissons Ratio (z) = 1.34731 -0.16064
#
# Static dielectric constant tensor:
#      x y z
#    x 1.892800 0.000000 0.000000 
#    y 0.000000 1.824480 0.000000 
#    z 0.000000 0.000000 1.755220 
# 
# From -- ./inp_files/13974.got.cif
#   From: 2010.05.17/outbox.cif.g08.bks.cpg/sg52_7_cif.got.tgz:13974.got - 2010.06.03 12:15:38.
