data_PCOD9409416
_publ_section_title
;
Structure prediction by ZEFSAII (Michael W. Deem and Ramdas Pophale) SiO2 
 PCOD9409416
Probable space group: P N N A
;
_chemical_formula_sum "Si O2"
_cell_formula_units_Z 32
_cell_length_a 8.375574
_cell_length_b 10.783115
_cell_length_c 16.641666
_cell_angle_alpha 90.000000
_cell_angle_beta 90.000000
_cell_angle_gamma 90.000000
_cell_volume 1502.988364
_symmetry_space_group_name_H-M "P N N A"
_symmetry_group_IT_number 52
_symmetry_cell_setting 'orthorhombic'
loop_
_space_group_symop_operation_xyz
x,y,z
1/2-x,-y,z
x,1/2-y,1/2-z
1/2-x,1/2+y,1/2-z
-x,-y,-z
1/2+x,y,-z
-x,1/2+y,1/2+z
1/2+x,1/2-y,1/2+z
loop_
_atom_site_type_symbol
_atom_site_label
_atom_site_fract_x
_atom_site_fract_y
_atom_site_fract_z
Si Si1 0.613114 0.582616 0.265761
Si Si2 0.572094 0.168266 0.172449
Si Si3 0.963091 0.882876 0.604824
Si Si4 0.385513 0.334950 0.056401
O O1 0.750000 0.500000 0.218572
O O2 0.523595 0.475593 0.315520
O O3 0.733612 0.660696 0.321667
O O4 0.506557 0.639694 0.196996
O O5 0.522341 0.250000 0.250000
O O6 0.498253 0.232146 0.095634
O O7 0.797147 0.818315 0.581571
O O8 0.092710 0.843078 0.539052
O O9 0.937824 0.030674 0.591631
#
# Coordination Sequence:
#
# PCOD9409416 Si02
#       4
#     8   8   8   8
#     4   8  19  32  59  81 116 159 213 233 304 364
#     4   9  17  33  57  78 119 160 196 246 302 353
#     4  10  20  31  55  89 116 158 197 252 305 370
#     4  10  20  32  55  84 128 151 193 255 316 352
#
# _framework density 21.290917
#
# number of rings (size 3 to 8) (size 9 to 14) (size 15 to 20)
#    1.500    1.000    2.500    0.000   10.500    0.000 
#    0.000    1.250    0.000    6.000    0.000    0.000 
#    0.000    2.000    0.000    0.000    0.000    0.000 
#
# Total GULP energy -178245.631688 kJ/mol
# GULP energy per Si atom -5570.175990 kJ/mol
# Density = 2.124246 g / cm^3
# Si number density = 21.290917 Si / 1000 Ang^3
#
#
#
# Elastic Constant Matrix: (Units=GPa)
#
#
# Indices 1 2 3 4 5 6 
#
# 1 84.3209 37.3610 32.2225 0.0000 0.0000 0.0000
# 2 37.3610 55.4263 48.7955 0.0000 0.0000 0.0000
# 3 32.2225 48.7955 76.9336 0.0000 0.0000 0.0000
# 4 0.0000 0.0000 0.0000 30.0875 0.0000 0.0000
# 5 0.0000 0.0000 0.0000 0.0000 30.8565 0.0000
# 6 0.0000 0.0000 0.0000 0.0000 0.0000 20.5821
#
#
#
# Elastic Compliance Matrix: (Units=1/GPa)
#
#
# Indices 1 2 3 4 5 6 
#
# 1 0.016914 -0.011694 0.000333 0.000000 0.000000 0.000000
# 2 -0.011694 0.048939 -0.026142 0.000000 0.000000 0.000000
# 3 0.000333 -0.026142 0.029439 0.000000 0.000000 0.000000
# 4 0.000000 0.000000 0.000000 0.033236 0.000000 0.000000
# 5 0.000000 0.000000 0.000000 0.000000 0.032408 0.000000
# 6 0.000000 0.000000 0.000000 0.000000 0.000000 0.048586
#
#
# Mechanical properties :
#
#
# Convention : Reuss Voigt Hill
#
# Bulk Modulus (GPa) = 49.29491 50.38208 49.83849
# Shear Modulus (GPa) = 17.16501 22.85868 20.01185
#
# Velocity S-wave (km/s) = 2.84247 3.28019 3.06914
# Velocity P-wave (km/s) = 5.82890 6.16938 6.00156
#
# Compressibility (1/GPa) = 0.02028607
#
# Stress axis : x y z
#
# Youngs Moduli (GPa) = 59.12400 20.43362 33.96815
#
# Poissons Ratio (x) = 0.23895 -0.01131
# Poissons Ratio (y) = 0.69140 0.88799
# Poissons Ratio (z) = -0.01969 0.53417
#
# Static dielectric constant tensor:
#      x y z
#    x 1.796800 0.000000 0.000000 
#    y 0.000000 1.946860 0.000000 
#    z 0.000000 0.000000 1.707860 
# 
# From -- ./inp_files/30774.got.cif
#   From: 2010.05.17/outbox.cif.g08.bks.cpg/sg52_16_cif.got.tgz:30774.got - 2010.06.03 12:15:38.
