data_PCOD9409953
_publ_section_title
;
Structure prediction by ZEFSAII (Michael W. Deem and Ramdas Pophale) SiO2 
 PCOD9409953
Probable space group: P N N A
;
_chemical_formula_sum "Si O2"
_cell_formula_units_Z 64
_cell_length_a 32.121927
_cell_length_b 8.845530
_cell_length_c 11.469841
_cell_angle_alpha 90.000000
_cell_angle_beta 90.000000
_cell_angle_gamma 90.000000
_cell_volume 3258.988651
_symmetry_space_group_name_H-M "P N N A"
_symmetry_group_IT_number 52
_symmetry_cell_setting 'orthorhombic'
loop_
_space_group_symop_operation_xyz
x,y,z
1/2-x,-y,z
x,1/2-y,1/2-z
1/2-x,1/2+y,1/2-z
-x,-y,-z
1/2+x,y,-z
-x,1/2+y,1/2+z
1/2+x,1/2-y,1/2+z
loop_
_atom_site_type_symbol
_atom_site_label
_atom_site_fract_x
_atom_site_fract_y
_atom_site_fract_z
Si Si1 0.557621 0.358830 0.142070
Si Si2 0.792704 0.419318 0.901262
Si Si3 0.004236 0.580366 0.701616
Si Si4 0.946133 0.568200 0.502942
Si Si5 0.295783 0.072084 0.767880
Si Si6 0.849111 0.576419 0.468077
Si Si7 0.708057 0.924533 0.877225
Si Si8 0.148136 0.071438 0.566554
O O1 0.571241 0.250000 0.250000
O O2 0.522332 0.467221 0.198685
O O3 0.542988 0.239282 0.043110
O O4 0.598934 0.444934 0.096113
O O5 0.750000 0.500000 0.945073
O O6 0.794972 0.242341 0.930960
O O7 0.790048 0.418419 0.761804
O O8 0.833818 0.502868 0.947157
O O9 0.006088 0.750000 0.750000
O O10 0.032299 0.548466 0.586453
O O11 0.959814 0.549983 0.637705
O O12 0.897703 0.548234 0.479038
O O13 0.291534 0.250000 0.750000
O O14 0.250000 0.000000 0.774902
O O15 0.323951 0.026711 0.878140
O O16 0.322538 0.005583 0.661495
O O17 0.829029 0.535088 0.590501
O O18 0.843616 0.749911 0.433730
O O19 0.750000 0.000000 0.922814
#
# Coordination Sequence:
#
# PCOD9409953 Si02
#       8
#     8   8   8   8   8   8   8   8
#     4   9  19  38  62  87 120 156 188 239 300 357
#     4  10  21  37  57  82 117 156 203 247 289 342
#     4  10  20  37  64  88 115 154 194 241 296 365
#     4   9  21  40  59  88 121 155 194 244 297 362
#     4  12  24  37  57  87 123 161 202 246 296 351
#     4  11  22  39  60  84 120 156 197 245 294 351
#     4  10  21  38  59  81 114 160 204 243 290 339
#     4  11  21  36  57  87 118 154 195 244 293 354
#
# _framework density 19.637993000000002
#
# number of rings (size 3 to 8) (size 9 to 14) (size 15 to 20)
#    0.000    1.750    0.000    5.625    0.000    5.000 
#    4.500    0.000   13.750    0.000    0.000    0.000 
#    0.000    0.000    0.000    0.000    0.000    0.000 
#
# Total GULP energy -356922.024313 kJ/mol
# GULP energy per Si atom -5576.906630 kJ/mol
# Density = 1.959330 g / cm^3
# Si number density = 19.637993 Si / 1000 Ang^3
#
#
#
# Elastic Constant Matrix: (Units=GPa)
#
#
# Indices 1 2 3 4 5 6 
#
# 1 89.2725 60.6049 31.4267 0.0000 0.0000 0.0000
# 2 60.6049 91.1581 37.6417 0.0000 0.0000 0.0000
# 3 31.4267 37.6417 47.5084 0.0000 0.0000 0.0000
# 4 0.0000 0.0000 0.0000 32.3230 0.0000 0.0000
# 5 0.0000 0.0000 0.0000 0.0000 37.6932 0.0000
# 6 0.0000 0.0000 0.0000 0.0000 0.0000 24.2068
#
#
#
# Elastic Compliance Matrix: (Units=1/GPa)
#
#
# Indices 1 2 3 4 5 6 
#
# 1 0.020965 -0.012205 -0.004198 0.000000 0.000000 0.000000
# 2 -0.012205 0.023409 -0.010474 0.000000 0.000000 0.000000
# 3 -0.004198 -0.010474 0.032125 0.000000 0.000000 0.000000
# 4 0.000000 0.000000 0.000000 0.030938 0.000000 0.000000
# 5 0.000000 0.000000 0.000000 0.000000 0.026530 0.000000
# 6 0.000000 0.000000 0.000000 0.000000 0.000000 0.041311
#
#
# Mechanical properties :
#
#
# Convention : Reuss Voigt Hill
#
# Bulk Modulus (GPa) = 43.96601 54.14287 49.05444
# Shear Modulus (GPa) = 21.13157 25.39566 23.26362
#
# Velocity S-wave (km/s) = 3.28389 3.60000 3.44557
# Velocity P-wave (km/s) = 6.06757 6.70151 6.39241
#
# Compressibility (1/GPa) = 0.02274484
#
# Stress axis : x y z
#
# Youngs Moduli (GPa) = 47.69845 42.71869 31.12853
#
# Poissons Ratio (x) = 0.52136 0.13069
# Poissons Ratio (y) = 0.58214 0.32604
# Poissons Ratio (z) = 0.20026 0.44743
#
# Static dielectric constant tensor:
#      x y z
#    x 1.696340 0.000000 0.000000 
#    y 0.000000 1.690330 0.000000 
#    z 0.000000 0.000000 1.774260 
# 
# From -- ./inp_files/23213.got.cif
#   From: 2010.05.17/outbox.cif.g08.bks.cpg/sg52_12_cif.got.tgz:23213.got - 2010.06.03 12:15:38.
