data_PCOD9409233
_publ_section_title
;
Structure prediction by ZEFSAII (Michael W. Deem and Ramdas Pophale) SiO2 
 PCOD9409233
Probable space group: P N N A
;
_chemical_formula_sum "Si O2"
_cell_formula_units_Z 40
_cell_length_a 9.255000
_cell_length_b 10.255063
_cell_length_c 17.736883
_cell_angle_alpha 90.000000
_cell_angle_beta 90.000000
_cell_angle_gamma 90.000000
_cell_volume 1683.418351
_symmetry_space_group_name_H-M "P N N A"
_symmetry_group_IT_number 52
_symmetry_cell_setting 'orthorhombic'
loop_
_space_group_symop_operation_xyz
x,y,z
1/2-x,-y,z
x,1/2-y,1/2-z
1/2-x,1/2+y,1/2-z
-x,-y,-z
1/2+x,y,-z
-x,1/2+y,1/2+z
1/2+x,1/2-y,1/2+z
loop_
_atom_site_type_symbol
_atom_site_label
_atom_site_fract_x
_atom_site_fract_y
_atom_site_fract_z
Si Si1 0.051441 0.250000 0.250000
Si Si2 0.952984 0.638545 0.969842
Si Si3 0.750000 0.000000 0.017560
Si Si4 0.819260 0.142774 0.345244
Si Si5 0.424485 0.822345 0.885835
Si Si6 0.260246 0.211583 0.115682
O O1 0.148236 0.189196 0.183639
O O2 0.941821 0.141412 0.281611
O O3 0.806392 0.655471 0.920761
O O4 0.087145 0.682345 0.918462
O O5 0.936910 0.726973 0.042423
O O6 0.000000 0.500000 0.000000
O O7 0.878318 0.959137 0.075465
O O8 0.734328 0.883132 0.957312
O O9 0.701388 0.256727 0.336881
O O10 0.750000 0.000000 0.353799
O O11 0.581241 0.807105 0.849932
#
# Coordination Sequence:
#
# PCOD9409233 Si02
#       6
#     4   8   4   8   8   8
#     4  10  26  50  58  94 142 186 240 266 326 418
#     4  10  19  37  65 102 136 163 214 283 349 397
#     4  10  22  44  70 108 142 166 222 294 370 408
#     4  11  23  44  68  96 136 182 220 280 338 402
#     4  11  22  38  73 106 131 173 226 286 358 410
#     4  10  23  42  67  96 138 182 226 279 335 415
#
# _framework density 23.761177
#
# number of rings (size 3 to 8) (size 9 to 14) (size 15 to 20)
#    0.000    1.600    2.000    3.000    0.000    4.000 
#    9.000    0.000    0.000    0.000    0.000    0.000 
#    0.000    0.000    0.000    0.000    0.000    0.000 
#
# Total GULP energy -223150.379553 kJ/mol
# GULP energy per Si atom -5578.759489 kJ/mol
# Density = 2.370710 g / cm^3
# Si number density = 23.761177 Si / 1000 Ang^3
#
#
#
# Elastic Constant Matrix: (Units=GPa)
#
#
# Indices 1 2 3 4 5 6 
#
# 1 188.9499 42.2420 64.2843 0.0000 0.0000 0.0000
# 2 42.2420 80.1994 22.3325 0.0000 0.0000 0.0000
# 3 64.2843 22.3325 96.0826 0.0000 0.0000 0.0000
# 4 0.0000 0.0000 0.0000 8.3425 0.0000 0.0000
# 5 0.0000 0.0000 0.0000 0.0000 39.8697 0.0000
# 6 0.0000 0.0000 0.0000 0.0000 0.0000 33.3635
#
#
#
# Elastic Compliance Matrix: (Units=1/GPa)
#
#
# Indices 1 2 3 4 5 6 
#
# 1 0.007353 -0.002676 -0.004297 0.000000 0.000000 0.000000
# 2 -0.002676 0.014306 -0.001535 0.000000 0.000000 0.000000
# 3 -0.004297 -0.001535 0.013640 0.000000 0.000000 0.000000
# 4 0.000000 0.000000 0.000000 0.119869 0.000000 0.000000
# 5 0.000000 0.000000 0.000000 0.000000 0.025082 0.000000
# 6 0.000000 0.000000 0.000000 0.000000 0.000000 0.029973
#
#
# Mechanical properties :
#
#
# Convention : Reuss Voigt Hill
#
# Bulk Modulus (GPa) = 54.69897 69.21662 61.95779
# Shear Modulus (GPa) = 21.42873 32.07334 26.75103
#
# Velocity S-wave (km/s) = 3.00632 3.67798 3.35898
# Velocity P-wave (km/s) = 5.92629 6.87241 6.41681
#
# Compressibility (1/GPa) = 0.01828188
#
# Stress axis : x y z
#
# Youngs Moduli (GPa) = 136.00402 69.90173 73.31614
#
# Poissons Ratio (x) = 0.18707 0.31507
# Poissons Ratio (y) = 0.36396 0.11251
# Poissons Ratio (z) = 0.58446 0.10727
#
# Static dielectric constant tensor:
#      x y z
#    x 2.007540 0.000000 0.000000 
#    y 0.000000 1.915560 0.000000 
#    z 0.000000 0.000000 1.927330 
# 
# From -- ./inp_files/30920.got.cif
#   From: 2010.05.17/outbox.cif.g08.bks.cpg/sg52_16_cif.got.tgz:30920.got - 2010.06.03 12:15:38.
