data_PCOD9409811
_publ_section_title
;
Structure prediction by ZEFSAII (Michael W. Deem and Ramdas Pophale) SiO2 
 PCOD9409811
Probable space group: P N N A
;
_chemical_formula_sum "Si O2"
_cell_formula_units_Z 40
_cell_length_a 15.077612
_cell_length_b 11.259790
_cell_length_c 11.005574
_cell_angle_alpha 90.000000
_cell_angle_beta 90.000000
_cell_angle_gamma 90.000000
_cell_volume 1868.424495
_symmetry_space_group_name_H-M "P N N A"
_symmetry_group_IT_number 52
_symmetry_cell_setting 'orthorhombic'
loop_
_space_group_symop_operation_xyz
x,y,z
1/2-x,-y,z
x,1/2-y,1/2-z
1/2-x,1/2+y,1/2-z
-x,-y,-z
1/2+x,y,-z
-x,1/2+y,1/2+z
1/2+x,1/2-y,1/2+z
loop_
_atom_site_type_symbol
_atom_site_label
_atom_site_fract_x
_atom_site_fract_y
_atom_site_fract_z
Si Si1 0.239017 0.132231 0.166390
Si Si2 0.097447 0.263374 0.492432
Si Si3 0.750000 0.500000 0.185588
Si Si4 0.395041 0.996343 0.479207
Si Si5 0.196039 0.250000 0.750000
Si Si6 0.589209 0.751509 0.891326
O O1 0.237756 0.250000 0.250000
O O2 0.329399 0.158876 0.090769
O O3 0.250000 0.000000 0.219581
O O4 0.150704 0.139944 0.084191
O O5 0.139103 0.253035 0.626825
O O6 0.992772 0.276735 0.518321
O O7 0.117960 0.135948 0.427969
O O8 0.663521 0.501984 0.100047
O O9 0.751045 0.625919 0.252904
O O10 0.375026 0.117590 0.410449
O O11 0.500000 0.000000 0.500000
O O12 0.559002 0.750000 0.750000
#
# Coordination Sequence:
#
# PCOD9409811 Si02
#       6
#     8   8   4   8   4   8
#     4  11  27  44  68  94 131 179 223 272 327 394
#     4  10  21  40  68  95 134 165 221 270 329 392
#     4  10  20  36  62  92 134 168 216 264 318 398
#     4   9  19  36  63  94 124 176 212 253 324 400
#     4  10  20  36  62 100 126 170 202 268 332 374
#     4  10  20  38  68  97 131 172 217 270 330 386
#
# _framework density 21.408411000000001
#
# number of rings (size 3 to 8) (size 9 to 14) (size 15 to 20)
#    0.000    2.000    1.000    2.400    7.000    0.800 
#    0.000    0.000   19.800    0.000    0.000    0.000 
#    0.000    0.000    0.000    0.000    0.000    0.000 
#
# Total GULP energy -222893.084925 kJ/mol
# GULP energy per Si atom -5572.327123 kJ/mol
# Density = 2.135968 g / cm^3
# Si number density = 21.408411 Si / 1000 Ang^3
#
#
#
# Elastic Constant Matrix: (Units=GPa)
#
#
# Indices 1 2 3 4 5 6 
#
# 1 120.3432 48.4863 20.3077 0.0000 0.0000 0.0000
# 2 48.4863 166.2726 35.5822 0.0000 0.0000 0.0000
# 3 20.3077 35.5822 37.3192 0.0000 0.0000 0.0000
# 4 0.0000 0.0000 0.0000 38.3161 0.0000 0.0000
# 5 0.0000 0.0000 0.0000 0.0000 28.8295 0.0000
# 6 0.0000 0.0000 0.0000 0.0000 0.0000 11.8146
#
#
#
# Elastic Compliance Matrix: (Units=1/GPa)
#
#
# Indices 1 2 3 4 5 6 
#
# 1 0.009720 -0.002139 -0.003250 0.000000 0.000000 0.000000
# 2 -0.002139 0.008027 -0.006489 0.000000 0.000000 0.000000
# 3 -0.003250 -0.006489 0.034751 0.000000 0.000000 0.000000
# 4 0.000000 0.000000 0.000000 0.026099 0.000000 0.000000
# 5 0.000000 0.000000 0.000000 0.000000 0.034687 0.000000
# 6 0.000000 0.000000 0.000000 0.000000 0.000000 0.084641
#
#
# Mechanical properties :
#
#
# Convention : Reuss Voigt Hill
#
# Bulk Modulus (GPa) = 34.79211 59.18748 46.98979
# Shear Modulus (GPa) = 21.62062 30.42927 26.02494
#
# Velocity S-wave (km/s) = 3.18136 3.77420 3.49039
# Velocity P-wave (km/s) = 5.45725 6.83371 6.18390
#
# Compressibility (1/GPa) = 0.02874215
#
# Stress axis : x y z
#
# Youngs Moduli (GPa) = 102.88361 124.58569 28.77584
#
# Poissons Ratio (x) = 0.26648 0.09351
# Poissons Ratio (y) = 0.22006 0.18673
# Poissons Ratio (z) = 0.33435 0.80845
#
# Static dielectric constant tensor:
#      x y z
#    x 1.785750 0.000000 0.000000 
#    y 0.000000 1.808490 0.000000 
#    z 0.000000 0.000000 1.798400 
# 
# From -- ./inp_files/19275.got.cif
#   From: 2010.05.17/outbox.cif.g08.bks.cpg/sg52_10_cif.got.tgz:19275.got - 2010.06.03 12:15:38.
