data_PCOD9409577
_publ_section_title
;
Structure prediction by ZEFSAII (Michael W. Deem and Ramdas Pophale) SiO2 
 PCOD9409577
Probable space group: P N N A
;
_chemical_formula_sum "Si O2"
_cell_formula_units_Z 44
_cell_length_a 8.508495
_cell_length_b 17.065452
_cell_length_c 15.523529
_cell_angle_alpha 90.000000
_cell_angle_beta 90.000000
_cell_angle_gamma 90.000000
_cell_volume 2254.036793
_symmetry_space_group_name_H-M "P N N A"
_symmetry_group_IT_number 52
_symmetry_cell_setting 'orthorhombic'
loop_
_space_group_symop_operation_xyz
x,y,z
1/2-x,-y,z
x,1/2-y,1/2-z
1/2-x,1/2+y,1/2-z
-x,-y,-z
1/2+x,y,-z
-x,1/2+y,1/2+z
1/2+x,1/2-y,1/2+z
loop_
_atom_site_type_symbol
_atom_site_label
_atom_site_fract_x
_atom_site_fract_y
_atom_site_fract_z
Si Si1 0.043992 0.093122 0.899978
Si Si2 0.024574 0.278955 0.902739
Si Si3 0.739442 0.374191 0.963020
Si Si4 0.250000 0.500000 0.462830
Si Si5 0.944259 0.450303 0.113226
Si Si6 0.336422 0.897851 0.710163
O O1 0.021482 0.186104 0.909988
O O2 0.122297 0.080233 0.806838
O O3 0.879247 0.047248 0.908336
O O4 0.156012 0.059449 0.974738
O O5 0.853822 0.317394 0.911106
O O6 0.100573 0.313610 0.816388
O O7 0.132131 0.317962 0.977343
O O8 0.620934 0.423879 0.904021
O O9 0.849046 0.427513 0.025772
O O10 0.847682 0.403901 0.187010
O O11 0.920242 0.539339 0.144903
#
# Coordination Sequence:
#
# PCOD9409577 Si02
#       6
#     8   8   8   4   8   8
#     4  11  22  42  58  81 106 141 195 237 289 336
#     4  10  20  34  57  82 114 147 177 228 273 323
#     4   9  19  34  56  87 116 148 186 216 265 328
#     4  10  24  40  64  76  98 146 194 248 280 330
#     4   9  19  34  54  86 119 151 182 215 265 332
#     4  10  21  34  55  82 116 150 176 223 278 328
#
# _framework density 19.520533
#
# number of rings (size 3 to 8) (size 9 to 14) (size 15 to 20)
#    0.000    2.182    0.000    2.727    0.000   15.273 
#    0.000    0.000    0.000    6.545    0.000    0.000 
#    0.000    0.000    0.000    0.000    0.000    0.000 
#
# Total GULP energy -245639.338897 kJ/mol
# GULP energy per Si atom -5582.712248 kJ/mol
# Density = 1.947610 g / cm^3
# Si number density = 19.520533 Si / 1000 Ang^3
#
#
#
# Elastic Constant Matrix: (Units=GPa)
#
#
# Indices 1 2 3 4 5 6 
#
# 1 106.2432 37.9608 25.6276 0.0000 0.0000 0.0000
# 2 37.9608 128.8988 27.4017 0.0000 0.0000 0.0000
# 3 25.6276 27.4017 72.7930 0.0000 0.0000 0.0000
# 4 0.0000 0.0000 0.0000 30.6362 0.0000 0.0000
# 5 0.0000 0.0000 0.0000 0.0000 16.3166 0.0000
# 6 0.0000 0.0000 0.0000 0.0000 0.0000 14.9849
#
#
#
# Elastic Compliance Matrix: (Units=1/GPa)
#
#
# Indices 1 2 3 4 5 6 
#
# 1 0.011055 -0.002639 -0.002898 0.000000 0.000000 0.000000
# 2 -0.002639 0.009063 -0.002482 0.000000 0.000000 0.000000
# 3 -0.002898 -0.002482 0.015692 0.000000 0.000000 0.000000
# 4 0.000000 0.000000 0.000000 0.032641 0.000000 0.000000
# 5 0.000000 0.000000 0.000000 0.000000 0.061287 0.000000
# 6 0.000000 0.000000 0.000000 0.000000 0.000000 0.066734
#
#
# Mechanical properties :
#
#
# Convention : Reuss Voigt Hill
#
# Bulk Modulus (GPa) = 50.58234 54.43504 52.50869
# Shear Modulus (GPa) = 22.82036 26.85053 24.83545
#
# Velocity S-wave (km/s) = 3.42284 3.71280 3.57076
# Velocity P-wave (km/s) = 6.44901 6.80635 6.63009
#
# Compressibility (1/GPa) = 0.01976975
#
# Stress axis : x y z
#
# Youngs Moduli (GPa) = 90.46041 110.33807 63.72501
#
# Poissons Ratio (x) = 0.29123 0.18469
# Poissons Ratio (y) = 0.23877 0.15819
# Poissons Ratio (z) = 0.26218 0.27390
#
# Static dielectric constant tensor:
#      x y z
#    x 1.697710 0.000000 0.000000 
#    y 0.000000 1.692060 0.000000 
#    z 0.000000 0.000000 1.687990 
# 
# From -- ./inp_files/24631.got.cif
#   From: 2010.05.17/outbox.cif.g08.bks.cpg/sg52_13_cif.got.tgz:24631.got - 2010.06.03 12:15:38.
