data_PCOD9409795
_publ_section_title
;
Structure prediction by ZEFSAII (Michael W. Deem and Ramdas Pophale) SiO2 
 PCOD9409795
Probable space group: P N N A
;
_chemical_formula_sum "Si O2"
_cell_formula_units_Z 56
_cell_length_a 17.092013
_cell_length_b 9.744496
_cell_length_c 13.623847
_cell_angle_alpha 90.000000
_cell_angle_beta 90.000000
_cell_angle_gamma 90.000000
_cell_volume 2269.093302
_symmetry_space_group_name_H-M "P N N A"
_symmetry_group_IT_number 52
_symmetry_cell_setting 'orthorhombic'
loop_
_space_group_symop_operation_xyz
x,y,z
1/2-x,-y,z
x,1/2-y,1/2-z
1/2-x,1/2+y,1/2-z
-x,-y,-z
1/2+x,y,-z
-x,1/2+y,1/2+z
1/2+x,1/2-y,1/2+z
loop_
_atom_site_type_symbol
_atom_site_label
_atom_site_fract_x
_atom_site_fract_y
_atom_site_fract_z
Si Si1 0.540546 0.896218 0.126958
Si Si2 0.051587 0.459146 0.177862
Si Si3 0.818171 0.762829 0.866368
Si Si4 0.115613 0.027674 0.598510
Si Si5 0.801991 0.388512 0.284100
Si Si6 0.581298 0.328693 0.475833
Si Si7 0.680222 0.603851 0.900819
O O1 0.479693 0.906156 0.217708
O O2 0.622146 0.831313 0.159037
O O3 0.501141 0.821897 0.034988
O O4 0.564728 0.050953 0.100365
O O5 0.110269 0.349537 0.128591
O O6 0.107813 0.592361 0.173686
O O7 0.974091 0.485974 0.116615
O O8 0.805328 0.750000 0.750000
O O9 0.857205 0.873512 0.938625
O O10 0.731569 0.739091 0.908521
O O11 0.163850 0.979340 0.693650
O O12 0.151651 0.947785 0.506250
O O13 0.887380 0.809221 0.424193
O O14 0.750000 0.500000 0.340722
O O15 0.758989 0.250000 0.250000
O O16 0.750000 0.500000 0.866561
#
# Coordination Sequence:
#
# PCOD9409795 Si02
#       7
#     8   8   8   8   8   8   8
#     4  10  25  44  67 100 142 192 241 294 360 434
#     4  10  21  38  64  95 134 176 235 289 349 418
#     4  11  22  40  68  92 140 184 221 292 367 422
#     4  11  23  40  72 102 135 181 242 304 344 429
#     4  11  28  45  73 104 149 193 242 304 370 434
#     4  11  23  42  71  98 138 185 239 297 359 423
#     4  10  20  36  61 100 129 171 233 286 350 423
#
# _framework density 24.679459999999999
#
# number of rings (size 3 to 8) (size 9 to 14) (size 15 to 20)
#    0.000    1.429    4.286    0.857    6.000    1.714 
#    2.571    0.000    3.143    0.000    0.000    0.000 
#    0.000    0.000    0.000    0.000    0.000    0.000 
#
# Total GULP energy -312472.417884 kJ/mol
# GULP energy per Si atom -5579.864605 kJ/mol
# Density = 2.462329 g / cm^3
# Si number density = 24.679460 Si / 1000 Ang^3
#
#
#
# Elastic Constant Matrix: (Units=GPa)
#
#
# Indices 1 2 3 4 5 6 
#
# 1 130.3564 20.6187 14.5327 0.0000 0.0000 0.0000
# 2 20.6187 83.1255 19.4612 0.0000 0.0000 0.0000
# 3 14.5327 19.4612 69.0364 0.0000 0.0000 0.0000
# 4 0.0000 0.0000 0.0000 23.9979 0.0000 0.0000
# 5 0.0000 0.0000 0.0000 0.0000 15.7474 0.0000
# 6 0.0000 0.0000 0.0000 0.0000 0.0000 34.0183
#
#
#
# Elastic Compliance Matrix: (Units=1/GPa)
#
#
# Indices 1 2 3 4 5 6 
#
# 1 0.008079 -0.001719 -0.001216 0.000000 0.000000 0.000000
# 2 -0.001719 0.013246 -0.003372 0.000000 0.000000 0.000000
# 3 -0.001216 -0.003372 0.015692 0.000000 0.000000 0.000000
# 4 0.000000 0.000000 0.000000 0.041670 0.000000 0.000000
# 5 0.000000 0.000000 0.000000 0.000000 0.063503 0.000000
# 6 0.000000 0.000000 0.000000 0.000000 0.000000 0.029396
#
#
# Mechanical properties :
#
#
# Convention : Reuss Voigt Hill
#
# Bulk Modulus (GPa) = 40.98063 43.52706 42.25385
# Shear Modulus (GPa) = 25.99648 29.94643 27.97146
#
# Velocity S-wave (km/s) = 3.24908 3.48719 3.37024
# Velocity P-wave (km/s) = 5.54225 5.82145 5.68356
#
# Compressibility (1/GPa) = 0.02440177
#
# Stress axis : x y z
#
# Youngs Moduli (GPa) = 123.78126 75.49507 63.72802
#
# Poissons Ratio (x) = 0.12979 0.07749
# Poissons Ratio (y) = 0.21280 0.21490
# Poissons Ratio (z) = 0.15052 0.25458
#
# Static dielectric constant tensor:
#      x y z
#    x 1.994460 0.000000 0.000000 
#    y 0.000000 2.153140 0.000000 
#    z 0.000000 0.000000 2.001960 
# 
# From -- ./inp_files/27256.got.cif
#   From: 2010.05.17/outbox.cif.g08.bks.cpg/sg52_14_cif.got.tgz:27256.got - 2010.06.03 12:15:38.
