data_PCOD9409025
_publ_section_title
;
Structure prediction by ZEFSAII (Michael W. Deem and Ramdas Pophale) SiO2 
 PCOD9409025
Probable space group: P N N A
;
_chemical_formula_sum "Si O2"
_cell_formula_units_Z 40
_cell_length_a 5.628383
_cell_length_b 17.970483
_cell_length_c 16.153722
_cell_angle_alpha 90.000000
_cell_angle_beta 90.000000
_cell_angle_gamma 90.000000
_cell_volume 1633.864351
_symmetry_space_group_name_H-M "P N N A"
_symmetry_group_IT_number 52
_symmetry_cell_setting 'orthorhombic'
loop_
_space_group_symop_operation_xyz
x,y,z
1/2-x,-y,z
x,1/2-y,1/2-z
1/2-x,1/2+y,1/2-z
-x,-y,-z
1/2+x,y,-z
-x,1/2+y,1/2+z
1/2+x,1/2-y,1/2+z
loop_
_atom_site_type_symbol
_atom_site_label
_atom_site_fract_x
_atom_site_fract_y
_atom_site_fract_z
Si Si1 0.249999 0.368336 0.772965
Si Si2 0.750000 0.500000 0.632522
Si Si3 0.749999 0.338128 0.712829
Si Si4 0.750003 0.712414 0.528624
Si Si5 0.750000 0.500000 0.361514
Si Si6 0.750003 0.615877 0.035717
O O1 0.502669 0.327555 0.760988
O O2 0.249999 0.429749 0.700621
O O3 0.249998 0.396664 0.866502
O O4 0.997329 0.327555 0.760987
O O5 0.749999 0.425430 0.687646
O O6 0.495343 0.500000 0.589988
O O7 0.749998 0.292120 0.627499
O O8 0.500003 0.676902 0.500000
O O9 0.750003 0.795161 0.487997
O O10 0.500004 0.587237 1.000000
#
# Coordination Sequence:
#
# PCOD9409025 Si02
#       6
#     8   4   8   8   4   8
#     4  10  19  35  58  81 103 138 180 217 258 314
#     4   8  16  30  52  80 106 128 168 222 262 300
#     4  10  19  35  58  81 103 138 180 217 258 314
#     4  10  21  38  53  74 111 144 171 219 268 306
#     4   8  16  30  52  80 106 128 168 222 262 300
#     4  10  21  38  53  74 111 144 171 219 268 306
#
# _framework density 24.481836000000001
#
# number of rings (size 3 to 8) (size 9 to 14) (size 15 to 20)
#    0.000    2.400    0.000    2.400    0.000    0.000 
#    0.000   26.000    0.000    0.000    0.000    0.000 
#    0.000    0.000    0.000    0.000    0.000    0.000 
#
# Total GULP energy -223244.323155 kJ/mol
# GULP energy per Si atom -5581.108079 kJ/mol
# Density = 2.442611 g / cm^3
# Si number density = 24.481836 Si / 1000 Ang^3
#
#
#
# Elastic Constant Matrix: (Units=GPa)
#
#
# Indices 1 2 3 4 5 6 
#
# 1 360.7717 -15.4264 87.3382 0.0000 0.0000 0.0000
# 2 -15.4264 99.2537 -6.0264 0.0000 0.0000 0.0000
# 3 87.3382 -6.0264 141.3673 0.0000 0.0000 0.0000
# 4 0.0000 0.0000 0.0000 -3.5049 0.0000 0.0000
# 5 0.0000 0.0000 0.0000 0.0000 41.6757 0.0000
# 6 0.0000 0.0000 0.0000 0.0000 0.0000 -47.6792
#
#
#
# Elastic Compliance Matrix: (Units=1/GPa)
#
#
# Indices 1 2 3 4 5 6 
#
# 1 0.003274 0.000387 -0.002006 0.000000 0.000000 0.000000
# 2 0.000387 0.010147 0.000193 0.000000 0.000000 0.000000
# 3 -0.002006 0.000193 0.008322 0.000000 0.000000 0.000000
# 4 0.000000 0.000000 0.000000 -0.285317 0.000000 0.000000
# 5 0.000000 0.000000 0.000000 0.000000 0.023995 0.000000
# 6 0.000000 0.000000 0.000000 0.000000 0.000000 -0.020974
#
#
# Mechanical properties :
#
#
# Convention : Reuss Voigt Hill
#
# Bulk Modulus (GPa) = 52.93486 81.46262 67.19874
# Shear Modulus (GPa) = -19.88829 33.79882 6.95527
#
# Velocity S-wave (km/s) = -2.85330 3.71963 1.68735
# Velocity P-wave (km/s) = 3.28845 7.19684 5.59502
#
# Compressibility (1/GPa) = 0.01889114
#
# Stress axis : x y z
#
# Youngs Moduli (GPa) = 305.42969 98.55036 120.17058
#
# Poissons Ratio (x) = -0.03814 0.24109
# Poissons Ratio (y) = -0.11822 -0.02325
# Poissons Ratio (z) = 0.61277 -0.01906
#
# Static dielectric constant tensor:
#      x y z
#    x 2.007810 0.000000 0.000000 
#    y 0.000000 1.601680 0.000000 
#    z 0.000000 0.000000 1.835090 
# 
# From -- ./inp_files/16053.got.cif
#   From: 2010.05.17/outbox.cif.g08.bks.cpg/sg52_9_cif.got.tgz:16053.got - 2010.06.03 12:15:38.
