data_PCOD9409689
_publ_section_title
;
Structure prediction by ZEFSAII (Michael W. Deem and Ramdas Pophale) SiO2 
 PCOD9409689
Probable space group: P N N A
;
_chemical_formula_sum "Si O2"
_cell_formula_units_Z 56
_cell_length_a 15.528834
_cell_length_b 17.096156
_cell_length_c 11.140073
_cell_angle_alpha 90.000000
_cell_angle_beta 90.000000
_cell_angle_gamma 90.000000
_cell_volume 2957.504106
_symmetry_space_group_name_H-M "P N N A"
_symmetry_group_IT_number 52
_symmetry_cell_setting 'orthorhombic'
loop_
_space_group_symop_operation_xyz
x,y,z
1/2-x,-y,z
x,1/2-y,1/2-z
1/2-x,1/2+y,1/2-z
-x,-y,-z
1/2+x,y,-z
-x,1/2+y,1/2+z
1/2+x,1/2-y,1/2+z
loop_
_atom_site_type_symbol
_atom_site_label
_atom_site_fract_x
_atom_site_fract_y
_atom_site_fract_z
Si Si1 0.609474 0.250000 0.750000
Si Si2 0.443611 0.974783 0.110194
Si Si3 0.090540 0.547631 0.991539
Si Si4 0.723874 0.833955 0.189133
Si Si5 0.700967 0.341700 0.577915
Si Si6 0.817518 0.429534 0.759548
Si Si7 0.250000 0.000000 0.666867
Si Si8 0.041576 0.631363 0.771033
O O1 0.661170 0.261581 0.627279
O O2 0.545477 0.321218 0.766944
O O3 0.375686 0.906417 0.075021
O O4 0.511214 0.949673 0.212793
O O5 0.385923 0.043437 0.161025
O O6 0.500000 0.000000 0.000000
O O7 0.130737 0.577333 0.116459
O O8 0.165277 0.501048 0.918397
O O9 0.072299 0.621022 0.905787
O O10 0.000000 0.500000 0.000000
O O11 0.751240 0.750000 0.250000
O O12 0.748096 0.917598 0.256211
O O13 0.619696 0.834347 0.194429
O O14 0.756550 0.837477 0.052207
O O15 0.762785 0.364445 0.690030
O O16 0.750000 0.500000 0.780369
#
# Coordination Sequence:
#
# PCOD9409689 Si02
#       8
#     4   8   8   8   8   8   4   8
#     4  10  22  44  58  88 124 178 224 262 346 390
#     4  10  20  35  61  91 125 160 215 274 322 396
#     4  11  21  37  63  97 130 172 224 277 335 404
#     4  11  24  43  65  96 133 174 222 279 338 397
#     4  10  24  38  64  90 130 175 220 274 338 405
#     4  10  20  37  58  94 126 163 214 271 329 395
#     4  10  26  40  66 100 136 172 230 280 340 400
#     4  10  21  38  61  88 124 172 214 271 331 400
#
# _framework density 18.934885999999999
#
# number of rings (size 3 to 8) (size 9 to 14) (size 15 to 20)
#    0.000    1.714    2.857    0.857    7.000    3.429 
#    0.000    0.000    0.000    0.000    1.857    0.000 
#    0.000    0.000    0.000    0.000    0.000    0.000 
#
# Total GULP energy -311739.378034 kJ/mol
# GULP energy per Si atom -5566.774608 kJ/mol
# Density = 1.889179 g / cm^3
# Si number density = 18.934886 Si / 1000 Ang^3
#
#
#
# Elastic Constant Matrix: (Units=GPa)
#
#
# Indices 1 2 3 4 5 6 
#
# 1 110.2665 27.0122 73.6751 0.0000 0.0000 0.0000
# 2 27.0122 57.0793 34.4784 0.0000 0.0000 0.0000
# 3 73.6751 34.4784 135.5565 0.0000 0.0000 0.0000
# 4 0.0000 0.0000 0.0000 11.2499 0.0000 0.0000
# 5 0.0000 0.0000 0.0000 0.0000 46.0536 0.0000
# 6 0.0000 0.0000 0.0000 0.0000 0.0000 22.8470
#
#
#
# Elastic Compliance Matrix: (Units=1/GPa)
#
#
# Indices 1 2 3 4 5 6 
#
# 1 0.014533 -0.002489 -0.007266 0.000000 0.000000 0.000000
# 2 -0.002489 0.021126 -0.004021 0.000000 0.000000 0.000000
# 3 -0.007266 -0.004021 0.012349 0.000000 0.000000 0.000000
# 4 0.000000 0.000000 0.000000 0.088890 0.000000 0.000000
# 5 0.000000 0.000000 0.000000 0.000000 0.021714 0.000000
# 6 0.000000 0.000000 0.000000 0.000000 0.000000 0.043770
#
#
# Mechanical properties :
#
#
# Convention : Reuss Voigt Hill
#
# Bulk Modulus (GPa) = 48.88246 63.69266 56.28756
# Shear Modulus (GPa) = 21.11925 27.21253 24.16589
#
# Velocity S-wave (km/s) = 3.34333 3.79511 3.57636
# Velocity P-wave (km/s) = 6.38560 7.27424 6.84436
#
# Compressibility (1/GPa) = 0.02045724
#
# Stress axis : x y z
#
# Youngs Moduli (GPa) = 68.80712 47.33515 80.98058
#
# Poissons Ratio (x) = 0.11781 0.58839
# Poissons Ratio (y) = 0.17125 0.32559
# Poissons Ratio (z) = 0.49994 0.19032
#
# Static dielectric constant tensor:
#      x y z
#    x 1.647890 0.000000 0.000000 
#    y 0.000000 1.617110 0.000000 
#    z 0.000000 0.000000 1.699870 
# 
# From -- ./inp_files/10850.got.cif
#   From: 2010.05.17/outbox.cif.g08.bks.cpg/sg52_6_cif.got.tgz:10850.got - 2010.06.03 12:15:38.
