data_PCOD9409676
_publ_section_title
;
Structure prediction by ZEFSAII (Michael W. Deem and Ramdas Pophale) SiO2 
 PCOD9409676
Probable space group: P N N A
;
_chemical_formula_sum "Si O2"
_cell_formula_units_Z 48
_cell_length_a 10.615807
_cell_length_b 8.561319
_cell_length_c 25.330688
_cell_angle_alpha 90.000000
_cell_angle_beta 90.000000
_cell_angle_gamma 90.000000
_cell_volume 2302.187436
_symmetry_space_group_name_H-M "P N N A"
_symmetry_group_IT_number 52
_symmetry_cell_setting 'orthorhombic'
loop_
_space_group_symop_operation_xyz
x,y,z
1/2-x,-y,z
x,1/2-y,1/2-z
1/2-x,1/2+y,1/2-z
-x,-y,-z
1/2+x,y,-z
-x,1/2+y,1/2+z
1/2+x,1/2-y,1/2+z
loop_
_atom_site_type_symbol
_atom_site_label
_atom_site_fract_x
_atom_site_fract_y
_atom_site_fract_z
Si Si1 0.750000 0.000000 0.443633
Si Si2 0.101072 0.239106 0.497280
Si Si3 0.104163 0.178270 0.308220
Si Si4 0.489624 0.598647 0.602990
Si Si5 0.107739 0.695584 0.190019
Si Si6 0.250000 0.000000 0.057835
Si Si7 0.086365 0.732563 0.601050
O O1 0.852836 0.928208 0.483221
O O2 0.699263 0.855050 0.408517
O O3 0.217102 0.349183 0.478096
O O4 0.041551 0.315738 0.548835
O O5 0.002030 0.240291 0.450067
O O6 0.086387 0.250000 0.250000
O O7 0.245795 0.227997 0.325681
O O8 0.996301 0.229895 0.347811
O O9 0.097790 0.990946 0.309032
O O10 0.510446 0.717228 0.651331
O O11 0.627844 0.526307 0.593200
O O12 0.393623 0.453398 0.606743
O O13 0.090873 0.750000 0.250000
#
# Coordination Sequence:
#
# PCOD9409676 Si02
#       7
#     4   8   8   8   8   4   8
#     4  12  24  38  56  82 120 158 202 248 292 350
#     4  11  22  37  57  85 118 156 196 240 294 352
#     4  10  21  37  59  89 120 151 189 239 295 353
#     4  11  21  37  59  87 120 155 194 238 293 356
#     4  10  20  35  59  89 121 152 186 233 296 361
#     4  10  20  36  58  84 120 156 194 238 292 360
#     4  11  23  37  59  85 116 156 198 246 296 347
#
# _framework density 20.849734999999999
#
# number of rings (size 3 to 8) (size 9 to 14) (size 15 to 20)
#    0.000    1.333    0.000    8.500    0.000    5.333 
#    0.000    0.000    0.000    6.000    0.000    1.167 
#    0.000    0.000    0.000    0.000    0.000    0.000 
#
# Total GULP energy -268166.966778 kJ/mol
# GULP energy per Si atom -5586.811808 kJ/mol
# Density = 2.080228 g / cm^3
# Si number density = 20.849735 Si / 1000 Ang^3
#
#
#
# Elastic Constant Matrix: (Units=GPa)
#
#
# Indices 1 2 3 4 5 6 
#
# 1 61.6969 31.9818 27.2286 0.0000 0.0000 0.0000
# 2 31.9818 102.3568 39.2971 0.0000 0.0000 0.0000
# 3 27.2286 39.2971 86.0065 0.0000 0.0000 0.0000
# 4 0.0000 0.0000 0.0000 327.7906 0.0000 0.0000
# 5 0.0000 0.0000 0.0000 0.0000 47.1786 0.0000
# 6 0.0000 0.0000 0.0000 0.0000 0.0000 35.5971
#
#
#
# Elastic Compliance Matrix: (Units=1/GPa)
#
#
# Indices 1 2 3 4 5 6 
#
# 1 0.020596 -0.004768 -0.004342 0.000000 0.000000 0.000000
# 2 -0.004768 0.012952 -0.004408 0.000000 0.000000 0.000000
# 3 -0.004342 -0.004408 0.015016 0.000000 0.000000 0.000000
# 4 0.000000 0.000000 0.000000 0.003051 0.000000 0.000000
# 5 0.000000 0.000000 0.000000 0.000000 0.021196 0.000000
# 6 0.000000 0.000000 0.000000 0.000000 0.000000 0.028092
#
#
# Mechanical properties :
#
#
# Convention : Reuss Voigt Hill
#
# Bulk Modulus (GPa) = 46.45312 49.67500 48.06406
# Shear Modulus (GPa) = 37.00529 92.21677 64.61103
#
# Velocity S-wave (km/s) = 4.21747 6.65772 5.57281
# Velocity P-wave (km/s) = 6.78561 9.10919 8.03187
#
# Compressibility (1/GPa) = 0.02152708
#
# Stress axis : x y z
#
# Youngs Moduli (GPa) = 48.55251 77.20742 66.59674
#
# Poissons Ratio (x) = 0.36816 0.28915
# Poissons Ratio (y) = 0.23152 0.29358
# Poissons Ratio (z) = 0.21080 0.34035
#
# Static dielectric constant tensor:
#      x y z
#    x 1.807660 0.000000 0.000000 
#    y 0.000000 1.591120 0.000000 
#    z 0.000000 0.000000 1.699550 
# 
# From -- ./inp_files/40196.got.cif
#   From: 2010.05.17/outbox.cif.g08.bks.cpg/sg52_21_cif.got.tgz:40196.got - 2010.06.03 12:15:38.
