data_PCOD9409635
_publ_section_title
;
Structure prediction by ZEFSAII (Michael W. Deem and Ramdas Pophale) SiO2 
 PCOD9409635
Probable space group: P N N A
;
_chemical_formula_sum "Si O2"
_cell_formula_units_Z 40
_cell_length_a 4.960422
_cell_length_b 21.682764
_cell_length_c 16.553123
_cell_angle_alpha 90.000000
_cell_angle_beta 90.000000
_cell_angle_gamma 90.000000
_cell_volume 1780.382062
_symmetry_space_group_name_H-M "P N N A"
_symmetry_group_IT_number 52
_symmetry_cell_setting 'orthorhombic'
loop_
_space_group_symop_operation_xyz
x,y,z
1/2-x,-y,z
x,1/2-y,1/2-z
1/2-x,1/2+y,1/2-z
-x,-y,-z
1/2+x,y,-z
-x,1/2+y,1/2+z
1/2+x,1/2-y,1/2+z
loop_
_atom_site_type_symbol
_atom_site_label
_atom_site_fract_x
_atom_site_fract_y
_atom_site_fract_z
Si Si1 0.250000 0.000000 0.850705
Si Si2 0.964344 0.930434 0.462654
Si Si3 0.407367 0.827077 0.209633
Si Si4 0.059463 0.402685 0.446371
Si Si5 0.923655 0.437581 0.784004
Si Si6 0.415078 0.750000 0.750000
O O1 0.026936 0.966692 0.904440
O O2 0.384790 0.950279 0.791600
O O3 0.744146 0.899061 0.517610
O O4 0.916514 0.930452 0.367924
O O5 0.000000 0.000000 0.500000
O O6 0.491141 0.852360 0.122471
O O7 0.270971 0.881148 0.262713
O O8 0.681533 0.803408 0.254399
O O9 0.151849 0.780186 0.193399
O O10 0.862619 0.397701 0.522780
O O11 0.750000 0.500000 0.794995
#
# Coordination Sequence:
#
# PCOD9409635 Si02
#       6
#     4   8   8   8   8   4
#     4  12  24  38  58 104 156 184 228 268 336 436
#     4  10  20  35  54  86 131 181 199 248 340 430
#     4  11  24  45  71  99 128 180 237 290 337 398
#     4  12  25  41  65 101 143 191 220 276 349 417
#     4  12  23  37  67 101 141 170 225 286 345 424
#     4  10  24  48  72  90 122 168 242 294 328 390
#
# _framework density 22.467085000000001
#
# number of rings (size 3 to 8) (size 9 to 14) (size 15 to 20)
#    0.000    0.800    4.000    5.400    0.000    0.000 
#    0.000    0.000    0.000   24.000    0.000    0.000 
#    0.000    0.000    0.000    0.000    0.000    0.000 
#
# Total GULP energy -222911.793508 kJ/mol
# GULP energy per Si atom -5572.794838 kJ/mol
# Density = 2.241595 g / cm^3
# Si number density = 22.467085 Si / 1000 Ang^3
#
#
#
# Elastic Constant Matrix: (Units=GPa)
#
#
# Indices 1 2 3 4 5 6 
#
# 1 122.1351 20.2957 5.5597 0.0000 0.0000 0.0000
# 2 20.2957 54.3095 32.0185 0.0000 0.0000 0.0000
# 3 5.5597 32.0185 96.2420 0.0000 0.0000 0.0000
# 4 0.0000 0.0000 0.0000 -6.4065 0.0000 0.0000
# 5 0.0000 0.0000 0.0000 0.0000 34.3082 0.0000
# 6 0.0000 0.0000 0.0000 0.0000 0.0000 49.7764
#
#
#
# Elastic Compliance Matrix: (Units=1/GPa)
#
#
# Indices 1 2 3 4 5 6 
#
# 1 0.008770 -0.003706 0.000726 0.000000 0.000000 0.000000
# 2 -0.003706 0.024471 -0.007927 0.000000 0.000000 0.000000
# 3 0.000726 -0.007927 0.012986 0.000000 0.000000 0.000000
# 4 0.000000 0.000000 0.000000 -0.156093 0.000000 0.000000
# 5 0.000000 0.000000 0.000000 0.000000 0.029148 0.000000
# 6 0.000000 0.000000 0.000000 0.000000 0.000000 0.020090
#
#
# Mechanical properties :
#
#
# Convention : Reuss Voigt Hill
#
# Bulk Modulus (GPa) = 40.95991 43.15939 42.05965
# Shear Modulus (GPa) = -162.99311 29.85648 -66.56832
#
# Velocity S-wave (km/s) = -8.52672 3.64936 -5.44918
# Velocity P-wave (km/s) = 8.86957 6.08349 4.56402
#
# Compressibility (1/GPa) = 0.02441412
#
# Stress axis : x y z
#
# Youngs Moduli (GPa) = 114.02012 40.86405 77.00709
#
# Poissons Ratio (x) = 0.15143 -0.05592
# Poissons Ratio (y) = 0.42252 0.61045
# Poissons Ratio (z) = -0.08280 0.32394
#
# Static dielectric constant tensor:
#      x y z
#    x 1.917360 0.000000 0.000000 
#    y 0.000000 1.913780 0.000000 
#    z 0.000000 0.000000 1.798710 
# 
# From -- ./inp_files/23640.got.cif
#   From: 2010.05.17/outbox.cif.g08.bks.cpg/sg52_12_cif.got.tgz:23640.got - 2010.06.03 12:15:38.
