data_PCOD9409290
_publ_section_title
;
Structure prediction by ZEFSAII (Michael W. Deem and Ramdas Pophale) SiO2 
 PCOD9409290
Probable space group: P N N A
;
_chemical_formula_sum "Si O2"
_cell_formula_units_Z 64
_cell_length_a 18.120062
_cell_length_b 21.774567
_cell_length_c 7.572086
_cell_angle_alpha 90.000000
_cell_angle_beta 90.000000
_cell_angle_gamma 90.000000
_cell_volume 2987.615781
_symmetry_space_group_name_H-M "P N N A"
_symmetry_group_IT_number 52
_symmetry_cell_setting 'orthorhombic'
loop_
_space_group_symop_operation_xyz
x,y,z
1/2-x,-y,z
x,1/2-y,1/2-z
1/2-x,1/2+y,1/2-z
-x,-y,-z
1/2+x,y,-z
-x,1/2+y,1/2+z
1/2+x,1/2-y,1/2+z
loop_
_atom_site_type_symbol
_atom_site_label
_atom_site_fract_x
_atom_site_fract_y
_atom_site_fract_z
Si Si1 0.827084 0.033564 0.544956
Si Si2 0.891510 0.510454 0.332569
Si Si3 0.178948 0.838555 0.605480
Si Si4 0.941438 0.438671 0.665851
Si Si5 0.213160 0.381610 0.632940
Si Si6 0.946850 0.313545 0.855941
Si Si7 0.273597 0.760679 0.066146
Si Si8 0.114731 0.306496 0.889311
O O1 0.805213 0.105447 0.529421
O O2 0.890119 0.025580 0.692164
O O3 0.750000 0.000000 0.577435
O O4 0.862865 0.012933 0.357481
O O5 0.911832 0.457957 0.474198
O O6 0.824306 0.553390 0.407721
O O7 0.971089 0.545421 0.317312
O O8 0.204841 0.869938 0.788429
O O9 0.098706 0.819222 0.537787
O O10 0.225816 0.776794 0.575921
O O11 0.929814 0.367954 0.717962
O O12 0.209071 0.330402 0.481127
O O13 0.161739 0.359717 0.797703
O O14 0.938980 0.250000 0.750000
O O15 0.031194 0.323327 0.910417
O O16 0.234120 0.750000 0.250000
O O17 0.347892 0.720076 0.063675
O O18 0.118619 0.250000 0.750000
#
# Coordination Sequence:
#
# PCOD9409290 Si02
#       8
#     8   8   8   8   8   8   8   8
#     4  11  23  42  65  95 132 173 218 271 331 388
#     4  11  22  44  67  96 129 175 224 279 321 390
#     4  10  21  39  59  88 124 168 202 257 326 386
#     4  10  24  42  68  98 128 172 226 270 332 391
#     4  10  19  39  63  84 121 168 208 255 321 384
#     4  10  19  38  65  94 127 162 204 270 329 385
#     4  10  21  38  59  94 121 161 216 259 312 388
#     4   8  16  33  61  83 120 158 197 252 311 370
#
# _framework density 21.421762999999999
#
# number of rings (size 3 to 8) (size 9 to 14) (size 15 to 20)
#    0.000    2.000    2.500    1.875    0.000    1.500 
#    9.000    3.750    0.000    0.000    0.000    0.000 
#    0.000    0.000    0.000    0.000    0.000    0.000 
#
# Total GULP energy -356478.606242 kJ/mol
# GULP energy per Si atom -5569.978223 kJ/mol
# Density = 2.137301 g / cm^3
# Si number density = 21.421763 Si / 1000 Ang^3
#
#
#
# Elastic Constant Matrix: (Units=GPa)
#
#
# Indices 1 2 3 4 5 6 
#
# 1 83.2991 37.7430 36.6811 0.0000 0.0000 0.0000
# 2 37.7430 73.8120 23.4394 0.0000 0.0000 0.0000
# 3 36.6811 23.4394 66.1530 0.0000 0.0000 0.0000
# 4 0.0000 0.0000 0.0000 19.1177 0.0000 0.0000
# 5 0.0000 0.0000 0.0000 0.0000 22.1043 0.0000
# 6 0.0000 0.0000 0.0000 0.0000 0.0000 28.1183
#
#
#
# Elastic Compliance Matrix: (Units=1/GPa)
#
#
# Indices 1 2 3 4 5 6 
#
# 1 0.018653 -0.007046 -0.007846 0.000000 0.000000 0.000000
# 2 -0.007046 0.017927 -0.002445 0.000000 0.000000 0.000000
# 3 -0.007846 -0.002445 0.020333 0.000000 0.000000 0.000000
# 4 0.000000 0.000000 0.000000 0.052308 0.000000 0.000000
# 5 0.000000 0.000000 0.000000 0.000000 0.045240 0.000000
# 6 0.000000 0.000000 0.000000 0.000000 0.000000 0.035564
#
#
# Mechanical properties :
#
#
# Convention : Reuss Voigt Hill
#
# Bulk Modulus (GPa) = 44.96652 46.55459 45.76056
# Shear Modulus (GPa) = 21.54128 22.22811 21.88469
#
# Velocity S-wave (km/s) = 3.17453 3.22474 3.19973
# Velocity P-wave (km/s) = 5.87141 5.97033 5.92108
#
# Compressibility (1/GPa) = 0.02223877
#
# Stress axis : x y z
#
# Youngs Moduli (GPa) = 53.61160 55.78056 49.18030
#
# Poissons Ratio (x) = 0.39305 0.38587
# Poissons Ratio (y) = 0.37776 0.12024
# Poissons Ratio (z) = 0.42064 0.13638
#
# Static dielectric constant tensor:
#      x y z
#    x 1.819710 0.000000 0.000000 
#    y 0.000000 1.822080 0.000000 
#    z 0.000000 0.000000 1.806670 
# 
# From -- ./inp_files/12584.got.cif
#   From: 2010.05.17/outbox.cif.g08.bks.cpg/sg52_7_cif.got.tgz:12584.got - 2010.06.03 12:15:38.
