data_PCOD9409879
_publ_section_title
;
Structure prediction by ZEFSAII (Michael W. Deem and Ramdas Pophale) SiO2 
 PCOD9409879
Probable space group: P N N A
;
_chemical_formula_sum "Si O2"
_cell_formula_units_Z 52
_cell_length_a 12.235507
_cell_length_b 18.501363
_cell_length_c 12.235686
_cell_angle_alpha 90.000000
_cell_angle_beta 90.000000
_cell_angle_gamma 90.000000
_cell_volume 2769.835756
_symmetry_space_group_name_H-M "P N N A"
_symmetry_group_IT_number 52
_symmetry_cell_setting 'orthorhombic'
loop_
_space_group_symop_operation_xyz
x,y,z
1/2-x,-y,z
x,1/2-y,1/2-z
1/2-x,1/2+y,1/2-z
-x,-y,-z
1/2+x,y,-z
-x,1/2+y,1/2+z
1/2+x,1/2-y,1/2+z
loop_
_atom_site_type_symbol
_atom_site_label
_atom_site_fract_x
_atom_site_fract_y
_atom_site_fract_z
Si Si1 0.581391 0.365946 0.787604
Si Si2 0.491555 0.510395 0.869787
Si Si3 0.986330 0.228633 0.623949
Si Si4 0.500259 0.218921 0.901448
Si Si5 0.691566 0.885802 0.603828
Si Si6 0.803432 0.250000 0.250000
Si Si7 0.184174 0.377197 0.877083
O O1 0.503498 0.432724 0.815250
O O2 0.548876 0.296043 0.860211
O O3 0.567043 0.341294 0.663392
O O4 0.702830 0.387394 0.820593
O O5 0.600376 0.558747 0.851764
O O6 0.378964 0.550622 0.838493
O O7 0.500000 0.500000 0.000000
O O8 0.998678 0.288907 0.531127
O O9 0.869118 0.191173 0.608829
O O10 0.077994 0.170286 0.589477
O O11 0.001055 0.250000 0.750000
O O12 0.379684 0.222753 0.849157
O O13 0.736932 0.895564 0.479645
O O14 0.741039 0.321276 0.206362
#
# Coordination Sequence:
#
# PCOD9409879 Si02
#       7
#     8   8   8   8   8   4   8
#     4  10  20  37  58  84 123 158 192 248 311 378
#     4  11  22  34  54  93 129 157 200 260 313 367
#     4  11  22  35  57  90 118 151 210 258 300 372
#     4  10  22  38  58  84 124 156 205 245 310 376
#     4  11  21  35  57  86 124 160 200 249 320 366
#     4  10  20  38  56  82 122 166 192 250 308 386
#     4  11  21  35  58  85 125 159 200 252 316 362
#
# _framework density 18.773676999999999
#
# number of rings (size 3 to 8) (size 9 to 14) (size 15 to 20)
#    0.000    1.538    5.385    1.385    4.308    0.000 
#    0.000    0.000    0.000    3.692    0.000    0.000 
#    4.615    0.000    0.000    0.000    0.000    0.000 
#
# Total GULP energy -289860.438291 kJ/mol
# GULP energy per Si atom -5574.239198 kJ/mol
# Density = 1.873095 g / cm^3
# Si number density = 18.773677 Si / 1000 Ang^3
#
#
#
# Elastic Constant Matrix: (Units=GPa)
#
#
# Indices 1 2 3 4 5 6 
#
# 1 57.5754 9.1753 8.5077 0.0000 0.0000 0.0000
# 2 9.1753 68.5490 28.1335 0.0000 0.0000 0.0000
# 3 8.5077 28.1335 110.1322 0.0000 0.0000 0.0000
# 4 0.0000 0.0000 0.0000 20.1549 0.0000 0.0000
# 5 0.0000 0.0000 0.0000 0.0000 20.8019 0.0000
# 6 0.0000 0.0000 0.0000 0.0000 0.0000 24.1290
#
#
#
# Elastic Compliance Matrix: (Units=1/GPa)
#
#
# Indices 1 2 3 4 5 6 
#
# 1 0.017819 -0.002033 -0.000857 0.000000 0.000000 0.000000
# 2 -0.002033 0.016529 -0.004065 0.000000 0.000000 0.000000
# 3 -0.000857 -0.004065 0.010185 0.000000 0.000000 0.000000
# 4 0.000000 0.000000 0.000000 0.049616 0.000000 0.000000
# 5 0.000000 0.000000 0.000000 0.000000 0.048072 0.000000
# 6 0.000000 0.000000 0.000000 0.000000 0.000000 0.041444
#
#
# Mechanical properties :
#
#
# Convention : Reuss Voigt Hill
#
# Bulk Modulus (GPa) = 32.65706 36.43220 34.54463
# Shear Modulus (GPa) = 24.06354 25.71316 24.88835
#
# Velocity S-wave (km/s) = 3.58407 3.70488 3.64497
# Velocity P-wave (km/s) = 5.87880 6.14407 6.01290
#
# Compressibility (1/GPa) = 0.03062125
#
# Stress axis : x y z
#
# Youngs Moduli (GPa) = 56.11914 60.50086 98.18675
#
# Poissons Ratio (x) = 0.12302 0.08416
# Poissons Ratio (y) = 0.11411 0.39915
# Poissons Ratio (z) = 0.04810 0.24595
#
# Static dielectric constant tensor:
#      x y z
#    x 1.700630 0.000000 0.000000 
#    y 0.000000 1.733790 0.000000 
#    z 0.000000 0.000000 1.656480 
# 
# From -- ./inp_files/26406.got.cif
#   From: 2010.05.17/outbox.cif.g08.bks.cpg/sg52_14_cif.got.tgz:26406.got - 2010.06.03 12:15:38.
