data_PCOD9409200
_publ_section_title
;
Structure prediction by ZEFSAII (Michael W. Deem and Ramdas Pophale) SiO2 
 PCOD9409200
Probable space group: P N N A
;
_chemical_formula_sum "Si O2"
_cell_formula_units_Z 48
_cell_length_a 15.626770
_cell_length_b 18.019577
_cell_length_c 7.962749
_cell_angle_alpha 90.000000
_cell_angle_beta 90.000000
_cell_angle_gamma 90.000000
_cell_volume 2242.212856
_symmetry_space_group_name_H-M "P N N A"
_symmetry_group_IT_number 52
_symmetry_cell_setting 'orthorhombic'
loop_
_space_group_symop_operation_xyz
x,y,z
1/2-x,-y,z
x,1/2-y,1/2-z
1/2-x,1/2+y,1/2-z
-x,-y,-z
1/2+x,y,-z
-x,1/2+y,1/2+z
1/2+x,1/2-y,1/2+z
loop_
_atom_site_type_symbol
_atom_site_label
_atom_site_fract_x
_atom_site_fract_y
_atom_site_fract_z
Si Si1 0.156120 0.475144 0.274769
Si Si2 0.055391 0.342742 0.125022
Si Si3 0.525983 0.290124 0.422401
Si Si4 0.487761 0.931940 0.714396
Si Si5 0.886100 0.314606 0.351881
Si Si6 0.662187 0.977575 0.157126
O O1 0.250000 0.500000 0.214102
O O2 0.126520 0.393749 0.213479
O O3 0.158341 0.481795 0.477068
O O4 0.081497 0.532436 0.220491
O O5 0.972201 0.335596 0.245123
O O6 0.077393 0.259104 0.059611
O O7 0.027927 0.387332 0.956674
O O8 0.545128 0.250000 0.250000
O O9 0.529860 0.376654 0.372853
O O10 0.426969 0.281572 0.479425
O O11 0.418939 0.997176 0.736046
O O12 0.839520 0.250000 0.250000
O O13 0.836867 0.390047 0.376414
O O14 0.750000 0.000000 0.244860
#
# Coordination Sequence:
#
# PCOD9409200 Si02
#       6
#     8   8   8   8   8   8
#     4  11  22  36  60  92 126 158 211 263 318 378
#     4  10  21  36  60  91 119 167 205 255 318 373
#     4   9  19  35  63  84 116 162 207 251 311 379
#     4  11  20  39  62  89 122 164 212 254 316 374
#     4  10  19  37  61  86 121 158 203 253 316 376
#     4  11  23  38  62  90 122 166 211 261 316 372
#
# _framework density 21.407423000000001
#
# number of rings (size 3 to 8) (size 9 to 14) (size 15 to 20)
#    0.000    1.667    3.333    2.000    0.000    0.667 
#    0.000    2.500    7.333    5.000    0.000    0.000 
#    0.000    0.000    0.000    0.000    0.000    0.000 
#
# Total GULP energy -267632.895192 kJ/mol
# GULP energy per Si atom -5575.685317 kJ/mol
# Density = 2.135870 g / cm^3
# Si number density = 21.407423 Si / 1000 Ang^3
#
#
#
# Elastic Constant Matrix: (Units=GPa)
#
#
# Indices 1 2 3 4 5 6 
#
# 1 104.4687 43.4438 14.9929 0.0000 0.0000 0.0000
# 2 43.4438 137.5509 15.6685 0.0000 0.0000 0.0000
# 3 14.9929 15.6685 66.1895 0.0000 0.0000 0.0000
# 4 0.0000 0.0000 0.0000 29.8350 0.0000 0.0000
# 5 0.0000 0.0000 0.0000 0.0000 -4.7005 0.0000
# 6 0.0000 0.0000 0.0000 0.0000 0.0000 19.6192
#
#
#
# Elastic Compliance Matrix: (Units=1/GPa)
#
#
# Indices 1 2 3 4 5 6 
#
# 1 0.011213 -0.003342 -0.001749 0.000000 0.000000 0.000000
# 2 -0.003342 0.008468 -0.001247 0.000000 0.000000 0.000000
# 3 -0.001749 -0.001247 0.015800 0.000000 0.000000 0.000000
# 4 0.000000 0.000000 0.000000 0.033518 0.000000 0.000000
# 5 0.000000 0.000000 0.000000 0.000000 -0.212743 0.000000
# 6 0.000000 0.000000 0.000000 0.000000 0.000000 0.050970
#
#
# Mechanical properties :
#
#
# Convention : Reuss Voigt Hill
#
# Bulk Modulus (GPa) = 43.85297 50.71326 47.28312
# Shear Modulus (GPa) = -68.96923 24.55768 -22.20577
#
# Velocity S-wave (km/s) = -5.68220 3.39065 -3.22420
# Velocity P-wave (km/s) = 4.74557 6.25057 2.87656
#
# Compressibility (1/GPa) = 0.02280347
#
# Stress axis : x y z
#
# Youngs Moduli (GPa) = 89.18104 118.09491 63.29293
#
# Poissons Ratio (x) = 0.39471 0.11068
# Poissons Ratio (y) = 0.29807 0.07895
# Poissons Ratio (z) = 0.15596 0.14731
#
# Static dielectric constant tensor:
#      x y z
#    x 1.743990 0.000000 0.000000 
#    y 0.000000 1.841180 0.000000 
#    z 0.000000 0.000000 1.845600 
# 
# From -- ./inp_files/10432.got.cif
#   From: 2010.05.17/outbox.cif.g08.bks.cpg/sg52_6_cif.got.tgz:10432.got - 2010.06.03 12:15:38.
