data_PCOD9409129
_publ_section_title
;
Structure prediction by ZEFSAII (Michael W. Deem and Ramdas Pophale) SiO2 
 PCOD9409129
Probable space group: P N N A
;
_chemical_formula_sum "Si O2"
_cell_formula_units_Z 64
_cell_length_a 22.140811
_cell_length_b 15.207423
_cell_length_c 9.172846
_cell_angle_alpha 90.000000
_cell_angle_beta 90.000000
_cell_angle_gamma 90.000000
_cell_volume 3088.540163
_symmetry_space_group_name_H-M "P N N A"
_symmetry_group_IT_number 52
_symmetry_cell_setting 'orthorhombic'
loop_
_space_group_symop_operation_xyz
x,y,z
1/2-x,-y,z
x,1/2-y,1/2-z
1/2-x,1/2+y,1/2-z
-x,-y,-z
1/2+x,y,-z
-x,1/2+y,1/2+z
1/2+x,1/2-y,1/2+z
loop_
_atom_site_type_symbol
_atom_site_label
_atom_site_fract_x
_atom_site_fract_y
_atom_site_fract_z
Si Si1 0.819695 0.795339 0.105847
Si Si2 0.649701 0.576449 0.778866
Si Si3 0.372630 0.896960 0.161736
Si Si4 0.605672 0.814269 0.971452
Si Si5 0.798761 0.147069 0.204645
Si Si6 0.891706 0.391007 0.067305
Si Si7 0.731790 0.325066 0.858992
Si Si8 0.491121 0.352114 0.702862
O O1 0.847308 0.750000 0.250000
O O2 0.770566 0.865536 0.164974
O O3 0.860429 0.843891 0.987325
O O4 0.782703 0.720503 0.013289
O O5 0.651002 0.496157 0.666879
O O6 0.616114 0.654218 0.691834
O O7 0.715471 0.603350 0.842040
O O8 0.611577 0.551052 0.923002
O O9 0.331683 0.853648 0.288569
O O10 0.443385 0.893494 0.192232
O O11 0.660852 0.857358 0.061125
O O12 0.608976 0.709968 0.005878
O O13 0.545279 0.849745 0.050204
O O14 0.803320 0.250000 0.250000
O O15 0.832332 0.095778 0.332708
O O16 0.948263 0.396678 0.175565
O O17 0.755432 0.250000 0.750000
O O18 0.497770 0.250000 0.750000
#
# Coordination Sequence:
#
# PCOD9409129 Si02
#       8
#     8   8   8   8   8   8   8   8
#     4  10  19  36  61  81 106 149 201 244 280 339
#     4  12  21  33  55  88 121 141 182 244 300 338
#     4  11  24  37  53  82 121 158 186 230 296 354
#     4   9  17  31  56  82 104 138 186 235 278 331
#     4   8  14  29  54  81 100 127 179 236 278 314
#     4   9  18  33  59  84 105 144 191 234 283 345
#     4  10  20  36  59  82 111 151 194 234 282 352
#     4   9  19  39  58  74 105 150 197 234 277 343
#
# _framework density 20.721764
#
# number of rings (size 3 to 8) (size 9 to 14) (size 15 to 20)
#    0.000    2.250    0.000    7.875    0.000    1.000 
#    0.000    6.250    0.000    7.500    0.000    0.000 
#    0.000    0.000    0.000    0.000    0.000    0.000 
#
# Total GULP energy -356811.332495 kJ/mol
# GULP energy per Si atom -5575.177070 kJ/mol
# Density = 2.067460 g / cm^3
# Si number density = 20.721764 Si / 1000 Ang^3
#
#
#
# Elastic Constant Matrix: (Units=GPa)
#
#
# Indices 1 2 3 4 5 6 
#
# 1 74.9730 6.1270 33.4788 0.0000 0.0000 0.0000
# 2 6.1270 41.9628 16.9972 0.0000 0.0000 0.0000
# 3 33.4788 16.9972 134.2021 0.0000 0.0000 0.0000
# 4 0.0000 0.0000 0.0000 16.6620 0.0000 0.0000
# 5 0.0000 0.0000 0.0000 0.0000 9.5808 0.0000
# 6 0.0000 0.0000 0.0000 0.0000 0.0000 15.4403
#
#
#
# Elastic Compliance Matrix: (Units=1/GPa)
#
#
# Indices 1 2 3 4 5 6 
#
# 1 0.015030 -0.000712 -0.003659 0.000000 0.000000 0.000000
# 2 -0.000712 0.025153 -0.003008 0.000000 0.000000 0.000000
# 3 -0.003659 -0.003008 0.008745 0.000000 0.000000 0.000000
# 4 0.000000 0.000000 0.000000 0.060017 0.000000 0.000000
# 5 0.000000 0.000000 0.000000 0.000000 0.104376 0.000000
# 6 0.000000 0.000000 0.000000 0.000000 0.000000 0.064766
#
#
# Mechanical properties :
#
#
# Convention : Reuss Voigt Hill
#
# Bulk Modulus (GPa) = 29.26603 40.48266 34.87434
# Shear Modulus (GPa) = 16.43460 21.30561 18.87010
#
# Velocity S-wave (km/s) = 2.81927 3.21000 3.02096
# Velocity P-wave (km/s) = 4.97511 5.77213 5.38838
#
# Compressibility (1/GPa) = 0.03416931
#
# Stress axis : x y z
#
# Youngs Moduli (GPa) = 66.53181 39.75665 114.34699
#
# Poissons Ratio (x) = 0.02832 0.41844
# Poissons Ratio (y) = 0.04739 0.34396
# Poissons Ratio (z) = 0.24346 0.11959
#
# Static dielectric constant tensor:
#      x y z
#    x 1.745510 0.000000 0.000000 
#    y 0.000000 1.816860 0.000000 
#    z 0.000000 0.000000 1.761020 
# 
# From -- ./inp_files/14522.got.cif
#   From: 2010.05.17/outbox.cif.g08.bks.cpg/sg52_8_cif.got.tgz:14522.got - 2010.06.03 12:15:38.
