data_PCOD9409223
_publ_section_title
;
Structure prediction by ZEFSAII (Michael W. Deem and Ramdas Pophale) SiO2 
 PCOD9409223
Probable space group: P N N A
;
_chemical_formula_sum "Si O2"
_cell_formula_units_Z 44
_cell_length_a 13.684542
_cell_length_b 23.708393
_cell_length_c 6.936991
_cell_angle_alpha 90.000000
_cell_angle_beta 90.000000
_cell_angle_gamma 90.000000
_cell_volume 2250.626953
_symmetry_space_group_name_H-M "P N N A"
_symmetry_group_IT_number 52
_symmetry_cell_setting 'orthorhombic'
loop_
_space_group_symop_operation_xyz
x,y,z
1/2-x,-y,z
x,1/2-y,1/2-z
1/2-x,1/2+y,1/2-z
-x,-y,-z
1/2+x,y,-z
-x,1/2+y,1/2+z
1/2+x,1/2-y,1/2+z
loop_
_atom_site_type_symbol
_atom_site_label
_atom_site_fract_x
_atom_site_fract_y
_atom_site_fract_z
Si Si1 0.612677 0.496352 0.573477
Si Si2 0.416353 0.871508 0.977592
Si Si3 0.206797 0.380360 0.880506
Si Si4 0.356650 0.115153 0.944423
Si Si5 0.769749 0.685552 0.729156
Si Si6 0.250000 0.500000 0.072609
O O1 0.500000 0.500000 0.500000
O O2 0.633579 0.430408 0.546132
O O3 0.659052 0.547467 0.453346
O O4 0.655144 0.509559 0.787205
O O5 0.528113 0.873994 0.041204
O O6 0.361973 0.821096 0.085874
O O7 0.389728 0.872235 0.751516
O O8 0.298253 0.364432 0.742871
O O9 0.203772 0.341437 0.066813
O O10 0.223846 0.444611 0.950275
O O11 0.311745 0.147041 0.127670
O O12 0.739570 0.750000 0.750000
#
# Coordination Sequence:
#
# PCOD9409223 Si02
#       6
#     8   8   8   8   8   4
#     4  10  19  37  63  92 131 154 194 261 310 374
#     4  10  22  42  62  94 129 158 204 265 313 367
#     4  11  22  38  68  89 122 168 203 250 317 374
#     4  10  22  42  62  94 129 158 204 265 313 367
#     4  11  24  44  61  90 124 167 217 253 303 377
#     4  12  18  38  66  94 126 170 200 242 328 384
#
# _framework density 19.550107000000001
#
# number of rings (size 3 to 8) (size 9 to 14) (size 15 to 20)
#    0.000    1.455    3.636    2.182    0.000    4.364 
#    6.545    3.636    0.000    0.000    0.000    0.000 
#    0.000    0.000    0.000    0.000    0.000    0.000 
#
# Total GULP energy -245138.609708 kJ/mol
# GULP energy per Si atom -5571.332039 kJ/mol
# Density = 1.950561 g / cm^3
# Si number density = 19.550107 Si / 1000 Ang^3
#
#
#
# Elastic Constant Matrix: (Units=GPa)
#
#
# Indices 1 2 3 4 5 6 
#
# 1 98.6821 -11.9582 6.0056 0.0000 0.0000 0.0000
# 2 -11.9582 71.6884 7.6766 0.0000 0.0000 0.0000
# 3 6.0056 7.6766 96.1747 0.0000 0.0000 0.0000
# 4 0.0000 0.0000 0.0000 7.8549 0.0000 0.0000
# 5 0.0000 0.0000 0.0000 0.0000 15.7402 0.0000
# 6 0.0000 0.0000 0.0000 0.0000 0.0000 17.7684
#
#
#
# Elastic Compliance Matrix: (Units=1/GPa)
#
#
# Indices 1 2 3 4 5 6 
#
# 1 0.010403 0.001820 -0.000795 0.000000 0.000000 0.000000
# 2 0.001820 0.014388 -0.001262 0.000000 0.000000 0.000000
# 3 -0.000795 -0.001262 0.010548 0.000000 0.000000 0.000000
# 4 0.000000 0.000000 0.000000 0.127308 0.000000 0.000000
# 5 0.000000 0.000000 0.000000 0.000000 0.063532 0.000000
# 6 0.000000 0.000000 0.000000 0.000000 0.000000 0.056280
#
#
# Mechanical properties :
#
#
# Convention : Reuss Voigt Hill
#
# Bulk Modulus (GPa) = 28.68173 29.99923 29.34048
# Shear Modulus (GPa) = 16.97483 25.92745 21.45114
#
# Velocity S-wave (km/s) = 2.94984 3.64566 3.31605
# Velocity P-wave (km/s) = 5.12882 5.75319 5.44996
#
# Compressibility (1/GPa) = 0.03486540
#
# Stress axis : x y z
#
# Youngs Moduli (GPa) = 96.13060 69.50208 94.80361
#
# Poissons Ratio (x) = -0.12652 0.07536
# Poissons Ratio (y) = -0.17499 0.11965
# Poissons Ratio (z) = 0.07641 0.08772
#
# Static dielectric constant tensor:
#      x y z
#    x 1.883750 0.000000 0.000000 
#    y 0.000000 1.694050 0.000000 
#    z 0.000000 0.000000 1.707190 
# 
# From -- ./inp_files/2386.got.cif
#   From: 2010.05.17/outbox.cif.g08.bks.cpg/sg52_2_cif.got.tgz:2386.got - 2010.06.03 12:15:38.
