data_PCOD9409006
_publ_section_title
;
Structure prediction by ZEFSAII (Michael W. Deem and Ramdas Pophale) SiO2 
 PCOD9409006
Probable space group: P N N A
;
_chemical_formula_sum "Si O2"
_cell_formula_units_Z 60
_cell_length_a 5.864052
_cell_length_b 20.646191
_cell_length_c 21.223518
_cell_angle_alpha 90.000000
_cell_angle_beta 90.000000
_cell_angle_gamma 90.000000
_cell_volume 2569.538490
_symmetry_space_group_name_H-M "P N N A"
_symmetry_group_IT_number 52
_symmetry_cell_setting 'orthorhombic'
loop_
_space_group_symop_operation_xyz
x,y,z
1/2-x,-y,z
x,1/2-y,1/2-z
1/2-x,1/2+y,1/2-z
-x,-y,-z
1/2+x,y,-z
-x,1/2+y,1/2+z
1/2+x,1/2-y,1/2+z
loop_
_atom_site_type_symbol
_atom_site_label
_atom_site_fract_x
_atom_site_fract_y
_atom_site_fract_z
Si Si1 0.747354 0.697392 0.030254
Si Si2 0.750000 0.500000 0.860899
Si Si3 0.632844 0.431718 0.096869
Si Si4 0.831067 0.359981 0.341818
Si Si5 0.974940 0.202648 0.906792
Si Si6 0.910642 0.400946 0.484492
Si Si7 0.635465 0.235924 0.683634
Si Si8 0.918945 0.096091 0.291514
O O1 0.770617 0.625525 0.056259
O O2 0.802223 0.754504 0.079040
O O3 0.487012 0.704830 0.008415
O O4 0.633157 0.553669 0.905058
O O5 0.573702 0.461808 0.817536
O O6 0.750000 0.500000 0.081708
O O7 0.687350 0.411181 0.168825
O O8 0.562677 0.348004 0.354548
O O9 0.878830 0.406113 0.282845
O O10 0.921662 0.383946 0.410036
O O11 0.949794 0.293326 0.319311
O O12 0.793580 0.250653 0.876449
O O13 0.901026 0.162171 0.968286
O O14 0.156900 0.431119 0.503661
O O15 0.763884 0.250000 0.750000
O O16 0.532409 0.164335 0.687402
#
# Coordination Sequence:
#
# PCOD9409006 Si02
#       8
#     8   4   8   8   8   8   8   8
#     4  12  28  41  64  94 128 174 222 267 323 391
#     4  10  22  44  66  88 118 166 220 288 342 394
#     4  10  24  44  67  86 121 160 217 282 338 384
#     4  10  21  36  56  91 126 164 210 260 322 400
#     4  11  22  35  58  83 133 169 213 247 319 386
#     4  10  19  35  56  83 125 167 204 244 296 379
#     4  10  21  35  58  90 127 163 208 265 323 399
#     4  10  22  39  64  91 124 162 216 273 343 387
#
# _framework density 23.350498000000002
#
# number of rings (size 3 to 8) (size 9 to 14) (size 15 to 20)
#    0.000    1.600    1.333    3.200    7.467    5.333 
#    0.000    0.000    0.000    0.000    0.000    3.733 
#    0.000    0.000    0.000    0.000    0.000    0.000 
#
# Total GULP energy -334735.903588 kJ/mol
# GULP energy per Si atom -5578.931726 kJ/mol
# Density = 2.329735 g / cm^3
# Si number density = 23.350498 Si / 1000 Ang^3
#
#
#
# Elastic Constant Matrix: (Units=GPa)
#
#
# Indices 1 2 3 4 5 6 
#
# 1 87.6579 20.0106 45.0791 0.0000 0.0000 0.0000
# 2 20.0106 32.5964 -2.5629 0.0000 0.0000 0.0000
# 3 45.0791 -2.5629 63.9015 0.0000 0.0000 0.0000
# 4 0.0000 0.0000 0.0000 19.6940 0.0000 0.0000
# 5 0.0000 0.0000 0.0000 0.0000 18.7305 0.0000
# 6 0.0000 0.0000 0.0000 0.0000 0.0000 23.8230
#
#
#
# Elastic Compliance Matrix: (Units=1/GPa)
#
#
# Indices 1 2 3 4 5 6 
#
# 1 0.024268 -0.016295 -0.017773 0.000000 0.000000 0.000000
# 2 -0.016295 0.041717 0.013169 0.000000 0.000000 0.000000
# 3 -0.017773 0.013169 0.028715 0.000000 0.000000 0.000000
# 4 0.000000 0.000000 0.000000 0.050777 0.000000 0.000000
# 5 0.000000 0.000000 0.000000 0.000000 0.053389 0.000000
# 6 0.000000 0.000000 0.000000 0.000000 0.000000 0.041976
#
#
# Mechanical properties :
#
#
# Convention : Reuss Voigt Hill
#
# Bulk Modulus (GPa) = 18.90341 34.35660 26.63000
# Shear Modulus (GPa) = 16.65133 20.55810 18.60472
#
# Velocity S-wave (km/s) = 2.67330 2.97040 2.82575
# Velocity P-wave (km/s) = 4.20021 5.14876 4.69848
#
# Compressibility (1/GPa) = 0.05290050
#
# Stress axis : x y z
#
# Youngs Moduli (GPa) = 41.20643 23.97091 34.82455
#
# Poissons Ratio (x) = 0.39061 0.61895
# Poissons Ratio (y) = 0.67147 -0.45859
# Poissons Ratio (z) = 0.73238 -0.31566
#
# Static dielectric constant tensor:
#      x y z
#    x 1.944890 0.000000 0.000000 
#    y 0.000000 1.860560 0.000000 
#    z 0.000000 0.000000 1.938630 
# 
# From -- ./inp_files/35272.got.cif
#   From: 2010.05.17/outbox.cif.g08.bks.cpg/sg52_18_cif.got.tgz:35272.got - 2010.06.03 12:15:38.
