data_PCOD9409940
_publ_section_title
;
Structure prediction by ZEFSAII (Michael W. Deem and Ramdas Pophale) SiO2 
 PCOD9409940
Probable space group: P N N A
;
_chemical_formula_sum "Si O2"
_cell_formula_units_Z 36
_cell_length_a 13.434216
_cell_length_b 11.665854
_cell_length_c 10.201401
_cell_angle_alpha 90.000000
_cell_angle_beta 90.000000
_cell_angle_gamma 90.000000
_cell_volume 1598.779912
_symmetry_space_group_name_H-M "P N N A"
_symmetry_group_IT_number 52
_symmetry_cell_setting 'orthorhombic'
loop_
_space_group_symop_operation_xyz
x,y,z
1/2-x,-y,z
x,1/2-y,1/2-z
1/2-x,1/2+y,1/2-z
-x,-y,-z
1/2+x,y,-z
-x,1/2+y,1/2+z
1/2+x,1/2-y,1/2+z
loop_
_atom_site_type_symbol
_atom_site_label
_atom_site_fract_x
_atom_site_fract_y
_atom_site_fract_z
Si Si1 0.050265 0.597352 0.344365
Si Si2 0.750000 0.000000 0.551038
Si Si3 0.344697 0.577267 0.528383
Si Si4 0.080577 0.842995 0.456828
Si Si5 0.383407 0.803382 0.386928
O O1 0.102043 0.488623 0.408351
O O2 0.089842 0.706074 0.429965
O O3 0.071640 0.612814 0.192330
O O4 0.931305 0.587530 0.363302
O O5 0.667045 0.921180 0.478789
O O6 0.806026 0.904468 0.634744
O O7 0.250000 0.500000 0.565647
O O8 0.329785 0.705943 0.475174
O O9 0.978469 0.851959 0.536579
O O10 0.415549 0.750000 0.250000
#
# Coordination Sequence:
#
# PCOD9409940 Si02
#       5
#     8   4   8   8   8
#     4   9  20  38  64  92 131 165 215 279 316 389
#     4  12  24  38  66  96 126 170 218 264 330 406
#     4  10  20  37  62  95 126 173 223 261 328 390
#     4  10  22  41  63  94 130 168 211 273 337 384
#     4  11  25  40  63  94 130 173 218 276 331 393
#
# _framework density 22.517171000000001
#
# number of rings (size 3 to 8) (size 9 to 14) (size 15 to 20)
#    0.000    1.778    0.000    3.333    9.333    0.000 
#    2.000    0.000    9.778    0.000    0.000    0.000 
#    0.000    0.000    0.000    0.000    0.000    0.000 
#
# Total GULP energy -201054.320981 kJ/mol
# GULP energy per Si atom -5584.842249 kJ/mol
# Density = 2.246592 g / cm^3
# Si number density = 22.517171 Si / 1000 Ang^3
#
#
#
# Elastic Constant Matrix: (Units=GPa)
#
#
# Indices 1 2 3 4 5 6 
#
# 1 143.2444 65.6712 19.9327 0.0000 0.0000 0.0000
# 2 65.6712 138.0985 16.7123 0.0000 0.0000 0.0000
# 3 19.9327 16.7123 12.0998 0.0000 0.0000 0.0000
# 4 0.0000 0.0000 0.0000 17.6600 0.0000 0.0000
# 5 0.0000 0.0000 0.0000 0.0000 0.9315 0.0000
# 6 0.0000 0.0000 0.0000 0.0000 0.0000 48.8476
#
#
#
# Elastic Compliance Matrix: (Units=1/GPa)
#
#
# Indices 1 2 3 4 5 6 
#
# 1 0.010229 -0.003392 -0.012166 0.000000 0.000000 0.000000
# 2 -0.003392 0.009819 -0.007975 0.000000 0.000000 0.000000
# 3 -0.012166 -0.007975 0.113702 0.000000 0.000000 0.000000
# 4 0.000000 0.000000 0.000000 0.056625 0.000000 0.000000
# 5 0.000000 0.000000 0.000000 0.000000 1.073533 0.000000
# 6 0.000000 0.000000 0.000000 0.000000 0.000000 0.020472
#
#
# Mechanical properties :
#
#
# Convention : Reuss Voigt Hill
#
# Bulk Modulus (GPa) = 11.53598 55.34167 33.43883
# Shear Modulus (GPa) = 3.67555 26.22960 14.95258
#
# Velocity S-wave (km/s) = 1.27901 3.41672 2.57972
# Velocity P-wave (km/s) = 2.70472 6.34005 4.87400
#
# Compressibility (1/GPa) = 0.08668528
#
# Stress axis : x y z
#
# Youngs Moduli (GPa) = 97.76057 101.84015 8.79495
#
# Poissons Ratio (x) = 0.34545 0.10700
# Poissons Ratio (y) = 0.33161 0.07014
# Poissons Ratio (z) = 1.18934 0.81212
#
# Static dielectric constant tensor:
#      x y z
#    x 1.883610 0.000000 0.000000 
#    y 0.000000 1.876020 0.000000 
#    z 0.000000 0.000000 1.784390 
# 
# From -- ./inp_files/17777.got.cif
#   From: 2010.05.17/outbox.cif.g08.bks.cpg/sg52_9_cif.got.tgz:17777.got - 2010.06.03 12:15:38.
