data_PCOD9409227
_publ_section_title
;
Structure prediction by ZEFSAII (Michael W. Deem and Ramdas Pophale) SiO2 
 PCOD9409227
Probable space group: P N N A
;
_chemical_formula_sum "Si O2"
_cell_formula_units_Z 56
_cell_length_a 12.737133
_cell_length_b 13.959000
_cell_length_c 14.438194
_cell_angle_alpha 90.000000
_cell_angle_beta 90.000000
_cell_angle_gamma 90.000000
_cell_volume 2567.076813
_symmetry_space_group_name_H-M "P N N A"
_symmetry_group_IT_number 52
_symmetry_cell_setting 'orthorhombic'
loop_
_space_group_symop_operation_xyz
x,y,z
1/2-x,-y,z
x,1/2-y,1/2-z
1/2-x,1/2+y,1/2-z
-x,-y,-z
1/2+x,y,-z
-x,1/2+y,1/2+z
1/2+x,1/2-y,1/2+z
loop_
_atom_site_type_symbol
_atom_site_label
_atom_site_fract_x
_atom_site_fract_y
_atom_site_fract_z
Si Si1 0.023154 0.130196 0.173080
Si Si2 0.739822 0.871338 0.847728
Si Si3 0.518831 0.652451 0.132405
Si Si4 0.822224 0.150086 0.644743
Si Si5 0.462257 0.803357 0.562062
Si Si6 0.936882 0.098583 0.996322
Si Si7 0.756934 0.389157 0.064157
O O1 0.139195 0.099895 0.140865
O O2 0.026386 0.244894 0.160935
O O3 0.006879 0.092039 0.276760
O O4 0.924181 0.109853 0.106787
O O5 0.703923 0.897614 0.743073
O O6 0.727905 0.756193 0.851255
O O7 0.663716 0.903725 0.930640
O O8 0.641898 0.655538 0.113395
O O9 0.472371 0.632131 0.031756
O O10 0.778996 0.110509 0.547180
O O11 0.947573 0.162241 0.632027
O O12 0.494977 0.693028 0.536692
O O13 0.343968 0.825416 0.589758
O O14 0.000000 0.000000 0.000000
O O15 0.750000 0.500000 0.092917
#
# Coordination Sequence:
#
# PCOD9409227 Si02
#       7
#     8   8   8   8   8   8   8
#     4  10  19  37  64  84 118 160 208 252 301 365
#     4  10  19  38  64  89 119 159 206 251 313 358
#     4   9  19  36  63  90 116 160 206 253 298 377
#     4   9  18  35  61  90 120 155 205 250 297 373
#     4   9  19  38  61  86 124 164 200 251 312 370
#     4  10  22  39  59  91 123 157 207 262 306 371
#     4  11  22  38  60  91 130 162 200 252 323 378
#
# _framework density 21.814696000000001
#
# number of rings (size 3 to 8) (size 9 to 14) (size 15 to 20)
#    0.000    2.286    0.000    5.143    0.000    2.857 
#    7.714    7.143    0.000    0.000    0.000    0.000 
#    0.000    0.000    0.000    0.000    0.000    0.000 
#
# Total GULP energy -311866.934618 kJ/mol
# GULP energy per Si atom -5569.052404 kJ/mol
# Density = 2.176504 g / cm^3
# Si number density = 21.814696 Si / 1000 Ang^3
#
#
#
# Elastic Constant Matrix: (Units=GPa)
#
#
# Indices 1 2 3 4 5 6 
#
# 1 176.2827 28.5500 56.3366 0.0000 0.0000 0.0000
# 2 28.5500 63.7444 18.9113 0.0000 0.0000 0.0000
# 3 56.3366 18.9113 108.6696 0.0000 0.0000 0.0000
# 4 0.0000 0.0000 0.0000 2.3855 0.0000 0.0000
# 5 0.0000 0.0000 0.0000 0.0000 -10.8732 0.0000
# 6 0.0000 0.0000 0.0000 0.0000 0.0000 5.5888
#
#
#
# Elastic Compliance Matrix: (Units=1/GPa)
#
#
# Indices 1 2 3 4 5 6 
#
# 1 0.007079 -0.002195 -0.003288 0.000000 0.000000 0.000000
# 2 -0.002195 0.017222 -0.001859 0.000000 0.000000 0.000000
# 3 -0.003288 -0.001859 0.011230 0.000000 0.000000 0.000000
# 4 0.000000 0.000000 0.000000 0.419191 0.000000 0.000000
# 5 0.000000 0.000000 0.000000 0.000000 -0.091970 0.000000
# 6 0.000000 0.000000 0.000000 0.000000 0.000000 0.178930
#
#
# Mechanical properties :
#
#
# Convention : Reuss Voigt Hill
#
# Bulk Modulus (GPa) = 47.96780 61.81027 54.88904
# Shear Modulus (GPa) = 8.87600 15.74682 12.31141
#
# Velocity S-wave (km/s) = 2.01932 2.68963 2.37821
# Velocity P-wave (km/s) = 5.24150 6.16776 5.72340
#
# Compressibility (1/GPa) = 0.02084732
#
# Stress axis : x y z
#
# Youngs Moduli (GPa) = 141.26371 58.06403 89.04526
#
# Poissons Ratio (x) = 0.12746 0.29277
# Poissons Ratio (y) = 0.31009 0.16555
# Poissons Ratio (z) = 0.46446 0.10795
#
# Static dielectric constant tensor:
#      x y z
#    x 1.794560 0.000000 0.000000 
#    y 0.000000 1.957580 0.000000 
#    z 0.000000 0.000000 1.923000 
# 
# From -- ./inp_files/26160.got.cif
#   From: 2010.05.17/outbox.cif.g08.bks.cpg/sg52_14_cif.got.tgz:26160.got - 2010.06.03 12:15:38.
