data_PCOD9409401
_publ_section_title
;
Structure prediction by ZEFSAII (Michael W. Deem and Ramdas Pophale) SiO2 
 PCOD9409401
Probable space group: P N N A
;
_chemical_formula_sum "Si O2"
_cell_formula_units_Z 32
_cell_length_a 23.569611
_cell_length_b 7.730185
_cell_length_c 7.098673
_cell_angle_alpha 90.000000
_cell_angle_beta 90.000000
_cell_angle_gamma 90.000000
_cell_volume 1293.360143
_symmetry_space_group_name_H-M "P N N A"
_symmetry_group_IT_number 52
_symmetry_cell_setting 'orthorhombic'
loop_
_space_group_symop_operation_xyz
x,y,z
1/2-x,-y,z
x,1/2-y,1/2-z
1/2-x,1/2+y,1/2-z
-x,-y,-z
1/2+x,y,-z
-x,1/2+y,1/2+z
1/2+x,1/2-y,1/2+z
loop_
_atom_site_type_symbol
_atom_site_label
_atom_site_fract_x
_atom_site_fract_y
_atom_site_fract_z
Si Si1 0.099910 0.728002 0.019915
Si Si2 0.686964 0.437046 0.978005
Si Si3 0.357757 0.903443 0.052842
Si Si4 0.020556 0.303393 0.532482
O O1 0.097096 0.750000 0.250000
O O2 0.139685 0.573036 0.956457
O O3 0.034492 0.697622 0.961185
O O4 0.127040 0.912136 0.963416
O O5 0.750000 0.500000 0.011308
O O6 0.680389 0.240354 0.045271
O O7 0.672853 0.435694 0.752422
O O8 0.418279 0.803129 0.062684
O O9 0.028998 0.250000 0.750000
O O10 0.000000 0.500000 0.500000
#
# Coordination Sequence:
#
# PCOD9409401 Si02
#       4
#     8   8   8   8
#     4   8  16  30  48  73 108 141 179 237 302 365
#     4  10  20  30  49  81 113 144 196 246 306 378
#     4   9  19  30  49  77 106 147 186 242 310 360
#     4   9  17  34  57  82 114 155 202 254 325 399
#
# _framework density 24.741757
#
# number of rings (size 3 to 8) (size 9 to 14) (size 15 to 20)
#    0.000    3.000    0.000    1.500   10.500    1.000 
#    0.000    0.000    0.000    6.000    0.000    0.000 
#    0.000    0.000    0.000    0.000    0.000    0.000 
#
# Total GULP energy -178614.805787 kJ/mol
# GULP energy per Si atom -5581.712681 kJ/mol
# Density = 2.468544 g / cm^3
# Si number density = 24.741757 Si / 1000 Ang^3
#
#
#
# Elastic Constant Matrix: (Units=GPa)
#
#
# Indices 1 2 3 4 5 6 
#
# 1 56.3167 9.8047 -36.7311 0.0000 0.0000 0.0000
# 2 9.8047 124.9023 -4.1818 0.0000 0.0000 0.0000
# 3 -36.7311 -4.1818 114.1519 0.0000 0.0000 0.0000
# 4 0.0000 0.0000 0.0000 -9.4380 0.0000 0.0000
# 5 0.0000 0.0000 0.0000 0.0000 -31.7355 0.0000
# 6 0.0000 0.0000 0.0000 0.0000 0.0000 39.6707
#
#
#
# Elastic Compliance Matrix: (Units=1/GPa)
#
#
# Indices 1 2 3 4 5 6 
#
# 1 0.022767 -0.001544 0.007269 0.000000 0.000000 0.000000
# 2 -0.001544 0.008121 -0.000199 0.000000 0.000000 0.000000
# 3 0.007269 -0.000199 0.011092 0.000000 0.000000 0.000000
# 4 0.000000 0.000000 0.000000 -0.105954 0.000000 0.000000
# 5 0.000000 0.000000 0.000000 0.000000 -0.031510 0.000000
# 6 0.000000 0.000000 0.000000 0.000000 0.000000 0.025207
#
#
# Mechanical properties :
#
#
# Convention : Reuss Voigt Hill
#
# Bulk Modulus (GPa) = 18.85670 25.90607 22.38139
# Shear Modulus (GPa) = -78.55114 21.46472 -28.54321
#
# Velocity S-wave (km/s) = -5.64069 2.94862 -3.40022
# Velocity P-wave (km/s) = 5.89789 4.69955 2.51986
#
# Compressibility (1/GPa) = 0.05303154
#
# Stress axis : x y z
#
# Youngs Moduli (GPa) = 43.92401 123.14101 90.15527
#
# Poissons Ratio (x) = 0.19010 -0.65535
# Poissons Ratio (y) = 0.06781 0.01796
# Poissons Ratio (z) = -0.31929 0.02454
#
# Static dielectric constant tensor:
#      x y z
#    x 1.950870 0.000000 0.000000 
#    y 0.000000 1.977650 0.000000 
#    z 0.000000 0.000000 2.044950 
# 
# From -- ./inp_files/13878.got.cif
#   From: 2010.05.17/outbox.cif.g08.bks.cpg/sg52_7_cif.got.tgz:13878.got - 2010.06.03 12:15:38.
