data_PCOD9409336
_publ_section_title
;
Structure prediction by ZEFSAII (Michael W. Deem and Ramdas Pophale) SiO2 
 PCOD9409336
Probable space group: P N N A
;
_chemical_formula_sum "Si O2"
_cell_formula_units_Z 64
_cell_length_a 17.288493
_cell_length_b 8.908106
_cell_length_c 20.137942
_cell_angle_alpha 90.000000
_cell_angle_beta 90.000000
_cell_angle_gamma 90.000000
_cell_volume 3101.398699
_symmetry_space_group_name_H-M "P N N A"
_symmetry_group_IT_number 52
_symmetry_cell_setting 'orthorhombic'
loop_
_space_group_symop_operation_xyz
x,y,z
1/2-x,-y,z
x,1/2-y,1/2-z
1/2-x,1/2+y,1/2-z
-x,-y,-z
1/2+x,y,-z
-x,1/2+y,1/2+z
1/2+x,1/2-y,1/2+z
loop_
_atom_site_type_symbol
_atom_site_label
_atom_site_fract_x
_atom_site_fract_y
_atom_site_fract_z
Si Si1 0.062324 0.915197 0.603794
Si Si2 0.975382 0.120823 0.859587
Si Si3 0.836787 0.174105 0.585821
Si Si4 0.169832 0.356499 0.135908
Si Si5 0.544477 0.078741 0.730748
Si Si6 0.113389 0.256316 0.921161
Si Si7 0.445696 0.832429 0.059372
Si Si8 0.718242 0.669265 0.060931
O O1 0.146309 0.837602 0.611192
O O2 0.013483 0.952564 0.669620
O O3 0.010922 0.796486 0.563178
O O4 0.083493 0.072201 0.569259
O O5 0.908451 0.237441 0.882345
O O6 0.059869 0.194227 0.862729
O O7 0.961950 0.040322 0.789391
O O8 0.975213 0.990211 0.914976
O O9 0.759381 0.182976 0.630951
O O10 0.813504 0.222790 0.511141
O O11 0.849671 0.993979 0.585497
O O12 0.132665 0.413794 0.203989
O O13 0.119820 0.216791 0.112051
O O14 0.524605 0.250000 0.750000
O O15 0.205391 0.248120 0.913126
O O16 0.092708 0.169207 0.988118
O O17 0.750000 0.500000 0.050058
#
# Coordination Sequence:
#
# PCOD9409336 Si02
#       8
#     8   8   8   8   8   8   8   8
#     4  10  21  38  72  87 121 177 220 261 325 392
#     4  12  25  39  65  96 133 179 212 271 321 394
#     4  11  21  40  65 101 133 160 222 265 335 382
#     4  10  20  40  66  89 127 179 211 265 307 398
#     4  11  23  46  63  85 132 176 226 258 316 393
#     4  11  22  38  65 100 128 156 221 279 330 382
#     4  11  20  40  60  94 130 167 210 256 344 385
#     4  10  19  39  68  98 129 161 210 278 332 392
#
# _framework density 20.635850999999999
#
# number of rings (size 3 to 8) (size 9 to 14) (size 15 to 20)
#    0.000    1.250    5.000    3.750    0.000    2.500 
#    4.500    1.875    8.250    0.000    0.000    0.000 
#    0.000    0.000    0.000    0.000    0.000    0.000 
#
# Total GULP energy -357199.059910 kJ/mol
# GULP energy per Si atom -5581.235311 kJ/mol
# Density = 2.058888 g / cm^3
# Si number density = 20.635851 Si / 1000 Ang^3
#
#
#
# Elastic Constant Matrix: (Units=GPa)
#
#
# Indices 1 2 3 4 5 6 
#
# 1 144.1702 25.0750 41.3982 0.0000 0.0000 0.0000
# 2 25.0750 41.5239 0.0989 0.0000 0.0000 0.0000
# 3 41.3982 0.0989 54.3329 0.0000 0.0000 0.0000
# 4 0.0000 0.0000 0.0000 27.3820 0.0000 0.0000
# 5 0.0000 0.0000 0.0000 0.0000 25.0951 0.0000
# 6 0.0000 0.0000 0.0000 0.0000 0.0000 17.5664
#
#
#
# Elastic Compliance Matrix: (Units=1/GPa)
#
#
# Indices 1 2 3 4 5 6 
#
# 1 0.010248 -0.006170 -0.007797 0.000000 0.000000 0.000000
# 2 -0.006170 0.027797 0.004651 0.000000 0.000000 0.000000
# 3 -0.007797 0.004651 0.024338 0.000000 0.000000 0.000000
# 4 0.000000 0.000000 0.000000 0.036520 0.000000 0.000000
# 5 0.000000 0.000000 0.000000 0.000000 0.039848 0.000000
# 6 0.000000 0.000000 0.000000 0.000000 0.000000 0.056927
#
#
# Mechanical properties :
#
#
# Convention : Reuss Voigt Hill
#
# Bulk Modulus (GPa) = 22.85724 41.46346 32.16035
# Shear Modulus (GPa) = 21.84397 25.57237 23.70817
#
# Velocity S-wave (km/s) = 3.25706 3.52408 3.39319
# Velocity P-wave (km/s) = 5.02445 6.05767 5.56509
#
# Compressibility (1/GPa) = 0.04374981
#
# Stress axis : x y z
#
# Youngs Moduli (GPa) = 97.57609 35.97454 41.08853
#
# Poissons Ratio (x) = 0.22197 0.32038
# Poissons Ratio (y) = 0.60206 -0.19109
# Poissons Ratio (z) = 0.76084 -0.16731
#
# Static dielectric constant tensor:
#      x y z
#    x 1.761590 0.000000 0.000000 
#    y 0.000000 1.775040 0.000000 
#    z 0.000000 0.000000 1.757650 
# 
# From -- ./inp_files/37700.got.cif
#   From: 2010.05.17/outbox.cif.g08.bks.cpg/sg52_19_cif.got.tgz:37700.got - 2010.06.03 12:15:38.
