data_PCOD9409147
_publ_section_title
;
Structure prediction by ZEFSAII (Michael W. Deem and Ramdas Pophale) SiO2 
 PCOD9409147
Probable space group: P N N A
;
_chemical_formula_sum "Si O2"
_cell_formula_units_Z 60
_cell_length_a 11.664295
_cell_length_b 26.550468
_cell_length_c 7.654691
_cell_angle_alpha 90.000000
_cell_angle_beta 90.000000
_cell_angle_gamma 90.000000
_cell_volume 2370.600325
_symmetry_space_group_name_H-M "P N N A"
_symmetry_group_IT_number 52
_symmetry_cell_setting 'orthorhombic'
loop_
_space_group_symop_operation_xyz
x,y,z
1/2-x,-y,z
x,1/2-y,1/2-z
1/2-x,1/2+y,1/2-z
-x,-y,-z
1/2+x,y,-z
-x,1/2+y,1/2+z
1/2+x,1/2-y,1/2+z
loop_
_atom_site_type_symbol
_atom_site_label
_atom_site_fract_x
_atom_site_fract_y
_atom_site_fract_z
Si Si1 0.186771 0.448635 0.334994
Si Si2 0.951077 0.706225 0.385516
Si Si3 0.506419 0.250000 0.750000
Si Si4 0.833566 0.652983 0.108975
Si Si5 0.408500 0.337023 0.961229
Si Si6 0.609504 0.450075 0.260100
Si Si7 0.565709 0.561383 0.218143
Si Si8 0.102767 0.893607 0.101285
O O1 0.250000 0.500000 0.285823
O O2 0.152846 0.453336 0.539860
O O3 0.270818 0.400967 0.324234
O O4 0.071595 0.442052 0.228382
O O5 0.990683 0.750000 0.250000
O O6 0.838809 0.681055 0.298202
O O7 0.929791 0.729850 0.576221
O O8 0.045966 0.661548 0.400747
O O9 0.429100 0.296859 0.808832
O O10 0.726703 0.672107 0.993465
O O11 0.829089 0.593606 0.152516
O O12 0.963793 0.664398 0.047101
O O13 0.403569 0.395192 0.912260
O O14 0.612818 0.505930 0.185165
O O15 0.480422 0.429632 0.286023
O O16 0.601981 0.582125 0.408858
#
# Coordination Sequence:
#
# PCOD9409147 Si02
#       8
#     8   8   4   8   8   8   8   8
#     4  11  18  33  66 105 147 194 258 323 389 487
#     4  11  24  49  81 114 157 205 259 338 404 477
#     4  12  26  50  84 120 154 204 268 336 408 484
#     4  11  28  51  77 113 159 210 268 335 405 485
#     4  12  28  50  76 110 159 209 271 334 402 480
#     4  10  21  36  65 101 149 198 247 323 400 468
#     4  11  21  39  64 106 147 200 260 323 400 477
#     4  10  19  36  63 104 145 193 256 317 387 479
#
# _framework density 25.310044999999999
#
# number of rings (size 3 to 8) (size 9 to 14) (size 15 to 20)
#    0.000    1.067    5.333    1.600    0.933    2.667 
#    0.000    4.000    1.467    0.000    0.000    0.000 
#    0.000    0.000    0.000    0.000    0.000    0.000 
#
# Total GULP energy -335232.977690 kJ/mol
# GULP energy per Si atom -5587.216295 kJ/mol
# Density = 2.525244 g / cm^3
# Si number density = 25.310045 Si / 1000 Ang^3
#
#
#
# Elastic Constant Matrix: (Units=GPa)
#
#
# Indices 1 2 3 4 5 6 
#
# 1 155.4676 22.3912 33.8259 0.0000 0.0000 0.0000
# 2 22.3912 168.7102 35.7588 0.0000 0.0000 0.0000
# 3 33.8259 35.7588 77.9179 0.0000 0.0000 0.0000
# 4 0.0000 0.0000 0.0000 38.6727 0.0000 0.0000
# 5 0.0000 0.0000 0.0000 0.0000 3.6672 0.0000
# 6 0.0000 0.0000 0.0000 0.0000 0.0000 28.1251
#
#
#
# Elastic Compliance Matrix: (Units=1/GPa)
#
#
# Indices 1 2 3 4 5 6 
#
# 1 0.007119 -0.000321 -0.002943 0.000000 0.000000 0.000000
# 2 -0.000321 0.006580 -0.002881 0.000000 0.000000 0.000000
# 3 -0.002943 -0.002881 0.015434 0.000000 0.000000 0.000000
# 4 0.000000 0.000000 0.000000 0.025858 0.000000 0.000000
# 5 0.000000 0.000000 0.000000 0.000000 0.272690 0.000000
# 6 0.000000 0.000000 0.000000 0.000000 0.000000 0.035555
#
#
# Mechanical properties :
#
#
# Convention : Reuss Voigt Hill
#
# Bulk Modulus (GPa) = 59.37009 65.11639 62.24324
# Shear Modulus (GPa) = 13.11851 34.76766 23.94309
#
# Velocity S-wave (km/s) = 2.27912 3.71033 3.07903
# Velocity P-wave (km/s) = 5.51669 6.64370 6.10625
#
# Compressibility (1/GPa) = 0.01684350
#
# Stress axis : x y z
#
# Youngs Moduli (GPa) = 140.47337 151.96447 64.79335
#
# Poissons Ratio (x) = 0.04878 0.19069
# Poissons Ratio (y) = 0.04509 0.18665
# Poissons Ratio (z) = 0.41343 0.43775
#
# Static dielectric constant tensor:
#      x y z
#    x 2.037570 0.000000 0.000000 
#    y 0.000000 1.960910 0.000000 
#    z 0.000000 0.000000 2.164880 
# 
# From -- ./inp_files/9033.got.cif
#   From: 2010.05.17/outbox.cif.g08.bks.cpg/sg52_5_cif.got.tgz:9033.got - 2010.06.03 12:15:38.
