data_PCOD9409257
_publ_section_title
;
Structure prediction by ZEFSAII (Michael W. Deem and Ramdas Pophale) SiO2 
 PCOD9409257
Probable space group: P N N A
;
_chemical_formula_sum "Si O2"
_cell_formula_units_Z 32
_cell_length_a 19.297927
_cell_length_b 11.726832
_cell_length_c 6.470712
_cell_angle_alpha 90.000000
_cell_angle_beta 90.000000
_cell_angle_gamma 90.000000
_cell_volume 1464.345083
_symmetry_space_group_name_H-M "P N N A"
_symmetry_group_IT_number 52
_symmetry_cell_setting 'orthorhombic'
loop_
_space_group_symop_operation_xyz
x,y,z
1/2-x,-y,z
x,1/2-y,1/2-z
1/2-x,1/2+y,1/2-z
-x,-y,-z
1/2+x,y,-z
-x,1/2+y,1/2+z
1/2+x,1/2-y,1/2+z
loop_
_atom_site_type_symbol
_atom_site_label
_atom_site_fract_x
_atom_site_fract_y
_atom_site_fract_z
Si Si1 0.802886 0.750000 0.750000
Si Si2 0.200176 0.591386 0.094881
Si Si3 0.639818 0.750000 0.250000
Si Si4 0.906122 0.591917 0.953854
Si Si5 0.461194 0.051932 0.807067
O O1 0.748619 0.645172 0.727031
O O2 0.855904 0.700076 0.921568
O O3 0.250000 0.500000 0.984825
O O4 0.132729 0.517936 0.151079
O O5 0.181414 0.687940 0.931240
O O6 0.592205 0.847568 0.148275
O O7 0.979948 0.604461 0.844092
O O8 0.921462 0.548576 0.183820
O O9 0.500000 0.000000 0.000000
#
# Coordination Sequence:
#
# PCOD9409257 Si02
#       5
#     4   8   4   8   8
#     4  10  19  38  60  84 123 178 194 260 330 370
#     4   9  20  38  59  85 127 167 207 266 313 391
#     4  10  21  40  60  96 123 160 222 266 326 392
#     4   9  20  40  58  92 128 153 222 266 311 402
#     4  10  21  39  66  91 124 164 210 282 325 382
#
# _framework density 21.852774
#
# number of rings (size 3 to 8) (size 9 to 14) (size 15 to 20)
#    0.000    2.500    0.000    0.750    3.500    0.000 
#   13.500    7.500    0.000    0.000    0.000    0.000 
#    0.000    0.000    0.000    0.000    0.000    0.000 
#
# Total GULP energy -178237.961878 kJ/mol
# GULP energy per Si atom -5569.936309 kJ/mol
# Density = 2.180304 g / cm^3
# Si number density = 21.852774 Si / 1000 Ang^3
#
#
#
# Elastic Constant Matrix: (Units=GPa)
#
#
# Indices 1 2 3 4 5 6 
#
# 1 107.4804 61.9310 30.4462 0.0000 0.0000 0.0000
# 2 61.9310 114.1222 63.9928 0.0000 0.0000 0.0000
# 3 30.4462 63.9928 51.4336 0.0000 0.0000 0.0000
# 4 0.0000 0.0000 0.0000 30.6512 0.0000 0.0000
# 5 0.0000 0.0000 0.0000 0.0000 8.5936 0.0000
# 6 0.0000 0.0000 0.0000 0.0000 0.0000 75.4770
#
#
#
# Elastic Compliance Matrix: (Units=1/GPa)
#
#
# Indices 1 2 3 4 5 6 
#
# 1 0.013756 -0.009589 0.003787 0.000000 0.000000 0.000000
# 2 -0.009589 0.035666 -0.038699 0.000000 0.000000 0.000000
# 3 0.003787 -0.038699 0.065350 0.000000 0.000000 0.000000
# 4 0.000000 0.000000 0.000000 0.032625 0.000000 0.000000
# 5 0.000000 0.000000 0.000000 0.000000 0.116365 0.000000
# 6 0.000000 0.000000 0.000000 0.000000 0.000000 0.013249
#
#
# Mechanical properties :
#
#
# Convention : Reuss Voigt Hill
#
# Bulk Modulus (GPa) = 38.80408 65.08625 51.94516
# Shear Modulus (GPa) = 13.34740 30.72211 22.03476
#
# Velocity S-wave (km/s) = 2.47409 3.75356 3.17886
# Velocity P-wave (km/s) = 5.09481 6.97382 6.10702
#
# Compressibility (1/GPa) = 0.02577049
#
# Stress axis : x y z
#
# Youngs Moduli (GPa) = 72.69362 28.03758 15.30223
#
# Poissons Ratio (x) = 0.26885 -0.05795
# Poissons Ratio (y) = 0.69704 0.59219
# Poissons Ratio (z) = -0.27530 1.08504
#
# Static dielectric constant tensor:
#      x y z
#    x 1.837890 0.000000 0.000000 
#    y 0.000000 1.855480 0.000000 
#    z 0.000000 0.000000 1.785310 
# 
# From -- ./inp_files/3926.got.cif
#   From: 2010.05.17/outbox.cif.g08.bks.cpg/sg52_2_cif.got.tgz:3926.got - 2010.06.03 12:15:38.
