data_PCOD9409490
_publ_section_title
;
Structure prediction by ZEFSAII (Michael W. Deem and Ramdas Pophale) SiO2 
 PCOD9409490
Probable space group: P N N A
;
_chemical_formula_sum "Si O2"
_cell_formula_units_Z 64
_cell_length_a 31.687295
_cell_length_b 8.626679
_cell_length_c 13.189950
_cell_angle_alpha 90.000000
_cell_angle_beta 90.000000
_cell_angle_gamma 90.000000
_cell_volume 3605.553586
_symmetry_space_group_name_H-M "P N N A"
_symmetry_group_IT_number 52
_symmetry_cell_setting 'orthorhombic'
loop_
_space_group_symop_operation_xyz
x,y,z
1/2-x,-y,z
x,1/2-y,1/2-z
1/2-x,1/2+y,1/2-z
-x,-y,-z
1/2+x,y,-z
-x,1/2+y,1/2+z
1/2+x,1/2-y,1/2+z
loop_
_atom_site_type_symbol
_atom_site_label
_atom_site_fract_x
_atom_site_fract_y
_atom_site_fract_z
Si Si1 0.381982 0.908109 0.613372
Si Si2 0.377179 0.930614 0.951526
Si Si3 0.796258 0.059005 0.365712
Si Si4 0.794596 0.429529 0.373646
Si Si5 0.470089 0.854207 0.506606
Si Si6 0.929244 0.424085 0.288719
Si Si7 0.489322 0.378976 0.329405
Si Si8 0.426367 0.839708 0.149080
O O1 0.376377 0.723537 0.618395
O O2 0.424721 0.915993 0.546362
O O3 0.337169 0.982215 0.581459
O O4 0.395486 0.997313 0.714316
O O5 0.331746 0.005599 0.942638
O O6 0.410482 0.051113 0.901590
O O7 0.391568 0.872854 0.062077
O O8 0.796206 0.243927 0.376501
O O9 0.800272 0.022886 0.244898
O O10 0.750000 0.000000 0.398556
O O11 0.750000 0.500000 0.405576
O O12 0.490667 0.718020 0.576188
O O13 0.460774 0.776829 0.399193
O O14 0.500000 0.000000 0.500000
O O15 0.934951 0.250000 0.250000
O O16 0.971981 0.521531 0.284397
O O17 0.475973 0.250000 0.250000
O O18 0.451127 0.498023 0.342161
O O19 0.411260 0.750000 0.250000
#
# Coordination Sequence:
#
# PCOD9409490 Si02
#       8
#     8   8   8   8   8   8   8   8
#     4  11  21  36  55  80 122 155 195 240 292 354
#     4  11  22  38  58  83 118 158 199 242 296 365
#     4  10  20  33  54  88 125 161 189 226 292 371
#     4  10  20  34  54  87 122 159 191 231 290 362
#     4  11  24  38  58  85 113 155 207 250 301 356
#     4  12  22  33  55  85 117 155 194 238 292 359
#     4  12  22  40  57  83 116 150 197 248 305 358
#     4  11  25  42  58  81 115 158 204 257 304 343
#
# _framework density 17.750394
#
# number of rings (size 3 to 8) (size 9 to 14) (size 15 to 20)
#    0.000    1.000    5.000    3.375    1.750    2.000 
#    0.000    0.000    0.000    0.000    0.000    7.875 
#    0.000    0.000    0.000    0.000    0.000    0.000 
#
# Total GULP energy -357038.541525 kJ/mol
# GULP energy per Si atom -5578.727211 kJ/mol
# Density = 1.770999 g / cm^3
# Si number density = 17.750394 Si / 1000 Ang^3
#
#
#
# Elastic Constant Matrix: (Units=GPa)
#
#
# Indices 1 2 3 4 5 6 
#
# 1 113.2016 59.5030 15.6144 0.0000 0.0000 0.0000
# 2 59.5030 114.8266 37.9179 0.0000 0.0000 0.0000
# 3 15.6144 37.9179 61.4666 0.0000 0.0000 0.0000
# 4 0.0000 0.0000 0.0000 18.4110 0.0000 0.0000
# 5 0.0000 0.0000 0.0000 0.0000 9.0112 0.0000
# 6 0.0000 0.0000 0.0000 0.0000 0.0000 25.4214
#
#
#
# Elastic Compliance Matrix: (Units=1/GPa)
#
#
# Indices 1 2 3 4 5 6 
#
# 1 0.012190 -0.006649 0.001005 0.000000 0.000000 0.000000
# 2 -0.006649 0.014563 -0.007295 0.000000 0.000000 0.000000
# 3 0.001005 -0.007295 0.020514 0.000000 0.000000 0.000000
# 4 0.000000 0.000000 0.000000 0.054315 0.000000 0.000000
# 5 0.000000 0.000000 0.000000 0.000000 0.110973 0.000000
# 6 0.000000 0.000000 0.000000 0.000000 0.000000 0.039337
#
#
# Mechanical properties :
#
#
# Convention : Reuss Voigt Hill
#
# Bulk Modulus (GPa) = 46.75171 57.28505 52.01838
# Shear Modulus (GPa) = 17.55008 22.33268 19.94138
#
# Velocity S-wave (km/s) = 3.14779 3.55089 3.35540
# Velocity P-wave (km/s) = 6.29341 7.01102 6.66189
#
# Compressibility (1/GPa) = 0.02138959
#
# Stress axis : x y z
#
# Youngs Moduli (GPa) = 82.03467 68.66743 48.74780
#
# Poissons Ratio (x) = 0.45654 -0.04898
# Poissons Ratio (y) = 0.54542 0.35560
# Poissons Ratio (z) = -0.08243 0.50091
#
# Static dielectric constant tensor:
#      x y z
#    x 1.622870 0.000000 0.000000 
#    y 0.000000 1.576780 0.000000 
#    z 0.000000 0.000000 1.643650 
# 
# From -- ./inp_files/23200.got.cif
#   From: 2010.05.17/outbox.cif.g08.bks.cpg/sg52_12_cif.got.tgz:23200.got - 2010.06.03 12:15:38.
