data_PCOD9409737
_publ_section_title
;
Structure prediction by ZEFSAII (Michael W. Deem and Ramdas Pophale) SiO2 
 PCOD9409737
Probable space group: P N N A
;
_chemical_formula_sum "Si O2"
_cell_formula_units_Z 28
_cell_length_a 14.594315
_cell_length_b 5.471032
_cell_length_c 16.204055
_cell_angle_alpha 90.000000
_cell_angle_beta 90.000000
_cell_angle_gamma 90.000000
_cell_volume 1293.828398
_symmetry_space_group_name_H-M "P N N A"
_symmetry_group_IT_number 52
_symmetry_cell_setting 'orthorhombic'
loop_
_space_group_symop_operation_xyz
x,y,z
1/2-x,-y,z
x,1/2-y,1/2-z
1/2-x,1/2+y,1/2-z
-x,-y,-z
1/2+x,y,-z
-x,1/2+y,1/2+z
1/2+x,1/2-y,1/2+z
loop_
_atom_site_type_symbol
_atom_site_label
_atom_site_fract_x
_atom_site_fract_y
_atom_site_fract_z
Si Si1 0.750000 0.500000 0.043714
Si Si2 0.842241 0.878027 0.171177
Si Si3 0.983206 0.955550 0.902317
Si Si4 0.580780 0.546503 0.932593
O O1 0.805385 0.694005 0.100312
O O2 0.672520 0.605798 0.983115
O O3 0.885642 0.750000 0.250000
O O4 0.915905 0.067720 0.136373
O O5 0.750000 0.000000 0.203507
O O6 0.943445 0.220034 0.877217
O O7 0.920742 0.718555 0.888707
O O8 0.000000 0.000000 0.000000
O O9 0.500000 0.500000 0.000000
#
# Coordination Sequence:
#
# PCOD9409737 Si02
#       4
#     4   8   8   8
#     4  12  22  36  60  86 124 154 196 256 308 360
#     4  12  24  35  55  88 127 162 191 243 317 388
#     4  10  20  38  55  75 119 156 199 235 281 355
#     4  10  20  36  57  81 112 155 199 246 282 347
#
# _framework density 21.641202
#
# number of rings (size 3 to 8) (size 9 to 14) (size 15 to 20)
#    0.000    1.143    7.143    3.429    0.000    0.000 
#    0.000    0.000    0.000    0.000    0.000    4.000 
#    0.000    0.000    0.000    0.000    0.000    0.000 
#
# Total GULP energy -156154.454539 kJ/mol
# GULP energy per Si atom -5576.944805 kJ/mol
# Density = 2.159195 g / cm^3
# Si number density = 21.641202 Si / 1000 Ang^3
#
#
#
# Elastic Constant Matrix: (Units=GPa)
#
#
# Indices 1 2 3 4 5 6 
#
# 1 74.9714 0.4109 33.3333 0.0000 0.0000 0.0000
# 2 0.4109 147.9732 5.8795 0.0000 0.0000 0.0000
# 3 33.3333 5.8795 35.4392 0.0000 0.0000 0.0000
# 4 0.0000 0.0000 0.0000 23.2576 0.0000 0.0000
# 5 0.0000 0.0000 0.0000 0.0000 -25.0240 0.0000
# 6 0.0000 0.0000 0.0000 0.0000 0.0000 22.1494
#
#
#
# Elastic Compliance Matrix: (Units=1/GPa)
#
#
# Indices 1 2 3 4 5 6 
#
# 1 0.023020 0.000802 -0.021785 0.000000 0.000000 0.000000
# 2 0.000802 0.006831 -0.001887 0.000000 0.000000 0.000000
# 3 -0.021785 -0.001887 0.049021 0.000000 0.000000 0.000000
# 4 0.000000 0.000000 0.000000 0.042997 0.000000 0.000000
# 5 0.000000 0.000000 0.000000 0.000000 -0.039962 0.000000
# 6 0.000000 0.000000 0.000000 0.000000 0.000000 0.045148
#
#
# Mechanical properties :
#
#
# Convention : Reuss Voigt Hill
#
# Bulk Modulus (GPa) = 30.18384 37.51459 33.84921
# Shear Modulus (GPa) = 27.19767 18.66061 22.92914
#
# Velocity S-wave (km/s) = 3.54892 2.93963 3.25855
# Velocity P-wave (km/s) = 5.54714 5.37535 5.46192
#
# Compressibility (1/GPa) = 0.03313031
#
# Stress axis : x y z
#
# Youngs Moduli (GPa) = 43.44058 146.39696 20.39946
#
# Poissons Ratio (x) = -0.11736 0.44440
# Poissons Ratio (y) = -0.03483 0.03850
# Poissons Ratio (z) = 0.94635 0.27629
#
# Static dielectric constant tensor:
#      x y z
#    x 1.753540 0.000000 0.000000 
#    y 0.000000 1.950890 0.000000 
#    z 0.000000 0.000000 1.791550 
# 
# From -- ./inp_files/32529.got.cif
#   From: 2010.05.17/outbox.cif.g08.bks.cpg/sg52_17_cif.got.tgz:32529.got - 2010.06.03 12:15:38.
