data_PCOD9409560
_publ_section_title
;
Structure prediction by ZEFSAII (Michael W. Deem and Ramdas Pophale) SiO2 
 PCOD9409560
Probable space group: P N N A
;
_chemical_formula_sum "Si O2"
_cell_formula_units_Z 48
_cell_length_a 13.867552
_cell_length_b 8.351172
_cell_length_c 21.107441
_cell_angle_alpha 90.000000
_cell_angle_beta 90.000000
_cell_angle_gamma 90.000000
_cell_volume 2444.459327
_symmetry_space_group_name_H-M "P N N A"
_symmetry_group_IT_number 52
_symmetry_cell_setting 'orthorhombic'
loop_
_space_group_symop_operation_xyz
x,y,z
1/2-x,-y,z
x,1/2-y,1/2-z
1/2-x,1/2+y,1/2-z
-x,-y,-z
1/2+x,y,-z
-x,1/2+y,1/2+z
1/2+x,1/2-y,1/2+z
loop_
_atom_site_type_symbol
_atom_site_label
_atom_site_fract_x
_atom_site_fract_y
_atom_site_fract_z
Si Si1 0.214474 0.688124 0.680379
Si Si2 0.797662 0.351508 0.527541
Si Si3 0.421354 0.754649 0.826468
Si Si4 0.064572 0.579529 0.590526
Si Si5 0.905032 0.713280 0.974011
Si Si6 0.946840 0.387113 0.915750
O O1 0.250000 0.500000 0.682271
O O2 0.192166 0.750000 0.750000
O O3 0.309739 0.779608 0.656551
O O4 0.121106 0.700345 0.636894
O O5 0.750000 0.500000 0.563645
O O6 0.860249 0.423246 0.468909
O O7 0.703426 0.253242 0.505973
O O8 0.864547 0.241531 0.569892
O O9 0.422288 0.750000 0.750000
O O10 0.500248 0.630320 0.849607
O O11 0.445189 0.918185 0.867066
O O12 0.965534 0.645881 0.561217
O O13 0.905792 0.561530 0.927973
O O14 0.969586 0.657284 0.033274
#
# Coordination Sequence:
#
# PCOD9409560 Si02
#       6
#     8   8   8   8   8   8
#     4   9  18  31  49  75 108 144 183 226 272 329
#     4  11  20  34  58  81 108 143 183 232 282 340
#     4  10  20  36  56  79 111 149 188 232 276 333
#     4  10  20  34  55  83 114 147 189 231 279 342
#     4  10  21  35  55  84 114 146 181 233 293 339
#     4  10  21  36  54  81 114 144 183 234 289 338
#
# _framework density 19.636244000000001
#
# number of rings (size 3 to 8) (size 9 to 14) (size 15 to 20)
#    0.000    2.000    0.000    5.000    0.000    6.667 
#    0.000    3.333    0.000    7.000    0.000    0.000 
#    0.000    0.000    0.000    0.000    0.000    0.000 
#
# Total GULP energy -267590.255960 kJ/mol
# GULP energy per Si atom -5574.796999 kJ/mol
# Density = 1.959155 g / cm^3
# Si number density = 19.636244 Si / 1000 Ang^3
#
#
#
# Elastic Constant Matrix: (Units=GPa)
#
#
# Indices 1 2 3 4 5 6 
#
# 1 98.4380 26.4742 31.2955 0.0000 0.0000 0.0000
# 2 26.4742 55.7009 18.3902 0.0000 0.0000 0.0000
# 3 31.2955 18.3902 72.8299 0.0000 0.0000 0.0000
# 4 0.0000 0.0000 0.0000 17.6325 0.0000 0.0000
# 5 0.0000 0.0000 0.0000 0.0000 8.1311 0.0000
# 6 0.0000 0.0000 0.0000 0.0000 0.0000 17.3309
#
#
#
# Elastic Compliance Matrix: (Units=1/GPa)
#
#
# Indices 1 2 3 4 5 6 
#
# 1 0.012782 -0.004649 -0.004319 0.000000 0.000000 0.000000
# 2 -0.004649 0.021277 -0.003375 0.000000 0.000000 0.000000
# 3 -0.004319 -0.003375 0.016438 0.000000 0.000000 0.000000
# 4 0.000000 0.000000 0.000000 0.056713 0.000000 0.000000
# 5 0.000000 0.000000 0.000000 0.000000 0.122985 0.000000
# 6 0.000000 0.000000 0.000000 0.000000 0.000000 0.057700
#
#
# Mechanical properties :
#
#
# Convention : Reuss Voigt Hill
#
# Bulk Modulus (GPa) = 38.74132 42.14315 40.44223
# Shear Modulus (GPa) = 15.56732 18.67282 17.12007
#
# Velocity S-wave (km/s) = 2.81870 3.08707 2.95593
# Velocity P-wave (km/s) = 5.51051 5.84938 5.68247
#
# Compressibility (1/GPa) = 0.02581223
#
# Stress axis : x y z
#
# Youngs Moduli (GPa) = 78.23470 46.99896 60.83287
#
# Poissons Ratio (x) = 0.21852 0.26271
# Poissons Ratio (y) = 0.36375 0.20530
# Poissons Ratio (z) = 0.33786 0.15861
#
# Static dielectric constant tensor:
#      x y z
#    x 1.695720 0.000000 0.000000 
#    y 0.000000 1.807540 0.000000 
#    z 0.000000 0.000000 1.683020 
# 
# From -- ./inp_files/40147.got.cif
#   From: 2010.05.17/outbox.cif.g08.bks.cpg/sg52_21_cif.got.tgz:40147.got - 2010.06.03 12:15:38.
