data_PCOD9409742
_publ_section_title
;
Structure prediction by ZEFSAII (Michael W. Deem and Ramdas Pophale) SiO2 
 PCOD9409742
Probable space group: P N N A
;
_chemical_formula_sum "Si O2"
_cell_formula_units_Z 52
_cell_length_a 14.758823
_cell_length_b 8.409136
_cell_length_c 19.501381
_cell_angle_alpha 90.000000
_cell_angle_beta 90.000000
_cell_angle_gamma 90.000000
_cell_volume 2420.295916
_symmetry_space_group_name_H-M "P N N A"
_symmetry_group_IT_number 52
_symmetry_cell_setting 'orthorhombic'
loop_
_space_group_symop_operation_xyz
x,y,z
1/2-x,-y,z
x,1/2-y,1/2-z
1/2-x,1/2+y,1/2-z
-x,-y,-z
1/2+x,y,-z
-x,1/2+y,1/2+z
1/2+x,1/2-y,1/2+z
loop_
_atom_site_type_symbol
_atom_site_label
_atom_site_fract_x
_atom_site_fract_y
_atom_site_fract_z
Si Si1 0.370931 0.250000 0.750000
Si Si2 0.652671 0.946693 0.380867
Si Si3 0.988321 0.195943 0.622007
Si Si4 0.991269 0.246860 0.463984
Si Si5 0.345121 0.946733 0.413233
Si Si6 0.796930 0.839037 0.813526
Si Si7 0.512881 0.040096 0.830723
O O1 0.325350 0.150237 0.689230
O O2 0.431893 0.122497 0.790513
O O3 0.599358 0.832457 0.433512
O O4 0.750000 0.000000 0.406696
O O5 0.578058 0.086713 0.368826
O O6 0.981829 0.269413 0.544742
O O7 0.991049 0.350886 0.668817
O O8 0.899088 0.084565 0.628040
O O9 0.075089 0.122985 0.459883
O O10 0.012748 0.386252 0.408744
O O11 0.314182 0.798814 0.367345
O O12 0.250000 0.000000 0.444362
O O13 0.750567 0.750000 0.750000
O O14 0.896334 0.901528 0.793495
O O15 0.750000 0.000000 0.839018
#
# Coordination Sequence:
#
# PCOD9409742 Si02
#       7
#     4   8   8   8   8   8   8
#     4  10  22  42  58  82 124 160 204 264 304 374
#     4  10  22  40  62  88 120 161 205 258 319 372
#     4  11  22  37  62  92 116 159 210 253 311 377
#     4   9  21  39  60  88 123 156 200 259 310 369
#     4  10  20  36  57  86 117 154 200 241 298 363
#     4  11  22  37  55  82 121 159 195 245 294 357
#     4  10  21  39  61  84 122 161 202 252 312 366
#
# _framework density 21.484974999999999
#
# number of rings (size 3 to 8) (size 9 to 14) (size 15 to 20)
#    0.000    1.846    0.769    4.615    0.000    4.308 
#    0.000    2.308    0.000    5.538    0.000    0.000 
#    0.000    0.000    0.000    0.000    0.000    0.000 
#
# Total GULP energy -290077.704864 kJ/mol
# GULP energy per Si atom -5578.417401 kJ/mol
# Density = 2.143607 g / cm^3
# Si number density = 21.484975 Si / 1000 Ang^3
#
#
#
# Elastic Constant Matrix: (Units=GPa)
#
#
# Indices 1 2 3 4 5 6 
#
# 1 131.7492 41.3311 8.2203 0.0000 0.0000 0.0000
# 2 41.3311 144.4412 34.4174 0.0000 0.0000 0.0000
# 3 8.2203 34.4174 76.9709 0.0000 0.0000 0.0000
# 4 0.0000 0.0000 0.0000 25.1937 0.0000 0.0000
# 5 0.0000 0.0000 0.0000 0.0000 3.0724 0.0000
# 6 0.0000 0.0000 0.0000 0.0000 0.0000 21.6838
#
#
#
# Elastic Compliance Matrix: (Units=1/GPa)
#
#
# Indices 1 2 3 4 5 6 
#
# 1 0.008341 -0.002434 0.000197 0.000000 0.000000 0.000000
# 2 -0.002434 0.008459 -0.003522 0.000000 0.000000 0.000000
# 3 0.000197 -0.003522 0.014546 0.000000 0.000000 0.000000
# 4 0.000000 0.000000 0.000000 0.039692 0.000000 0.000000
# 5 0.000000 0.000000 0.000000 0.000000 0.325476 0.000000
# 6 0.000000 0.000000 0.000000 0.000000 0.000000 0.046117
#
#
# Mechanical properties :
#
#
# Convention : Reuss Voigt Hill
#
# Bulk Modulus (GPa) = 50.43253 57.89988 54.16621
# Shear Modulus (GPa) = 10.85165 27.93616 19.39391
#
# Velocity S-wave (km/s) = 2.24984 3.60983 3.00771
# Velocity P-wave (km/s) = 5.50213 6.66198 6.10964
#
# Compressibility (1/GPa) = 0.01982847
#
# Stress axis : x y z
#
# Youngs Moduli (GPa) = 119.88400 118.21702 68.74783
#
# Poissons Ratio (x) = 0.28773 -0.01358
# Poissons Ratio (y) = 0.29179 0.24216
# Poissons Ratio (z) = -0.02367 0.41642
#
# Static dielectric constant tensor:
#      x y z
#    x 1.759120 0.000000 0.000000 
#    y 0.000000 1.754060 0.000000 
#    z 0.000000 0.000000 1.846630 
# 
# From -- ./inp_files/37264.got.cif
#   From: 2010.05.17/outbox.cif.g08.bks.cpg/sg52_19_cif.got.tgz:37264.got - 2010.06.03 12:15:38.
