data_PCOD9409020
_publ_section_title
;
Structure prediction by ZEFSAII (Michael W. Deem and Ramdas Pophale) SiO2 
 PCOD9409020
Probable space group: P N N A
;
_chemical_formula_sum "Si O2"
_cell_formula_units_Z 32
_cell_length_a 16.930288
_cell_length_b 18.955118
_cell_length_c 4.900978
_cell_angle_alpha 90.000000
_cell_angle_beta 90.000000
_cell_angle_gamma 90.000000
_cell_volume 1572.800329
_symmetry_space_group_name_H-M "P N N A"
_symmetry_group_IT_number 52
_symmetry_cell_setting 'orthorhombic'
loop_
_space_group_symop_operation_xyz
x,y,z
1/2-x,-y,z
x,1/2-y,1/2-z
1/2-x,1/2+y,1/2-z
-x,-y,-z
1/2+x,y,-z
-x,1/2+y,1/2+z
1/2+x,1/2-y,1/2+z
loop_
_atom_site_type_symbol
_atom_site_label
_atom_site_fract_x
_atom_site_fract_y
_atom_site_fract_z
Si Si1 0.141317 0.671104 0.697868
Si Si2 0.668436 0.032416 0.869006
Si Si3 0.080824 0.975271 0.635446
Si Si4 0.247986 0.328500 0.197242
O O1 0.109164 0.750000 0.750000
O O2 0.085100 0.606199 0.772391
O O3 0.174832 0.664976 0.392768
O O4 0.218815 0.664901 0.892076
O O5 0.686542 0.111687 0.778679
O O6 0.750000 0.000000 0.982212
O O7 0.645574 0.988995 0.599348
O O8 0.603343 0.021429 0.100397
O O9 0.000000 0.000000 0.500000
O O10 0.216522 0.250000 0.250000
#
# Coordination Sequence:
#
# PCOD9409020 Si02
#       4
#     8   8   8   8
#     4  10  19  35  57  84 116 154 199 246 298 367
#     4  12  21  38  64  87 120 157 209 254 302 357
#     4  12  24  38  58  92 125 162 201 252 309 366
#     4  10  20  34  59  90 115 148 201 256 301 346
#
# _framework density 20.345877000000002
#
# number of rings (size 3 to 8) (size 9 to 14) (size 15 to 20)
#    0.000    1.000    5.000    3.000    0.000    0.000 
#    0.000    1.250    0.000    3.000    0.000    0.000 
#    0.000    0.000    0.000    0.000    0.000    0.000 
#
# Total GULP energy -178892.264164 kJ/mol
# GULP energy per Si atom -5590.383255 kJ/mol
# Density = 2.029957 g / cm^3
# Si number density = 20.345877 Si / 1000 Ang^3
#
#
#
# Elastic Constant Matrix: (Units=GPa)
#
#
# Indices 1 2 3 4 5 6 
#
# 1 42.2821 44.5044 3.5593 0.0000 0.0000 0.0000
# 2 44.5044 185.0749 12.1301 0.0000 0.0000 0.0000
# 3 3.5593 12.1301 78.5337 0.0000 0.0000 0.0000
# 4 0.0000 0.0000 0.0000 28.5386 0.0000 0.0000
# 5 0.0000 0.0000 0.0000 0.0000 34.4607 0.0000
# 6 0.0000 0.0000 0.0000 0.0000 0.0000 21.5500
#
#
#
# Elastic Compliance Matrix: (Units=1/GPa)
#
#
# Indices 1 2 3 4 5 6 
#
# 1 0.031671 -0.007599 -0.000262 0.000000 0.000000 0.000000
# 2 -0.007599 0.007282 -0.000780 0.000000 0.000000 0.000000
# 3 -0.000262 -0.000780 0.012866 0.000000 0.000000 0.000000
# 4 0.000000 0.000000 0.000000 0.035040 0.000000 0.000000
# 5 0.000000 0.000000 0.000000 0.000000 0.029019 0.000000
# 6 0.000000 0.000000 0.000000 0.000000 0.000000 0.046404
#
#
# Mechanical properties :
#
#
# Convention : Reuss Voigt Hill
#
# Bulk Modulus (GPa) = 28.95466 47.36426 38.15946
# Shear Modulus (GPa) = 26.16789 33.28968 29.72878
#
# Velocity S-wave (km/s) = 3.59019 4.04937 3.82667
# Velocity P-wave (km/s) = 5.60785 6.72259 6.19037
#
# Compressibility (1/GPa) = 0.03453676
#
# Stress axis : x y z
#
# Youngs Moduli (GPa) = 31.57498 137.33295 77.72561
#
# Poissons Ratio (x) = 1.04354 0.02034
# Poissons Ratio (y) = 0.23993 0.06065
# Poissons Ratio (z) = 0.00826 0.10716
#
# Static dielectric constant tensor:
#      x y z
#    x 1.734540 0.000000 0.000000 
#    y 0.000000 1.764540 0.000000 
#    z 0.000000 0.000000 1.722070 
# 
# From -- ./inp_files/1916.got.cif
#   From: 2010.05.17/outbox.cif.g08.bks.cpg/sg52_1_cif.got.tgz:1916.got - 2010.06.03 12:15:38.
