data_PCOD9409873
_publ_section_title
;
Structure prediction by ZEFSAII (Michael W. Deem and Ramdas Pophale) SiO2 
 PCOD9409873
Probable space group: P N N A
;
_chemical_formula_sum "Si O2"
_cell_formula_units_Z 40
_cell_length_a 5.769905
_cell_length_b 18.812369
_cell_length_c 14.900839
_cell_angle_alpha 90.000000
_cell_angle_beta 90.000000
_cell_angle_gamma 90.000000
_cell_volume 1617.420241
_symmetry_space_group_name_H-M "P N N A"
_symmetry_group_IT_number 52
_symmetry_cell_setting 'orthorhombic'
loop_
_space_group_symop_operation_xyz
x,y,z
1/2-x,-y,z
x,1/2-y,1/2-z
1/2-x,1/2+y,1/2-z
-x,-y,-z
1/2+x,y,-z
-x,1/2+y,1/2+z
1/2+x,1/2-y,1/2+z
loop_
_atom_site_type_symbol
_atom_site_label
_atom_site_fract_x
_atom_site_fract_y
_atom_site_fract_z
Si Si1 0.362125 0.428985 0.113083
Si Si2 0.897208 0.206405 0.481423
Si Si3 0.641844 0.116545 0.803687
Si Si4 0.380119 0.250000 0.250000
Si Si5 0.751549 0.362355 0.190576
Si Si6 0.750000 0.000000 0.948302
O O1 0.250000 0.500000 0.074355
O O2 0.228183 0.415554 0.207828
O O3 0.628438 0.429255 0.145393
O O4 0.360749 0.364553 0.042257
O O5 0.641423 0.242507 0.491179
O O6 0.916483 0.177013 0.380060
O O7 0.727688 0.197607 0.810106
O O8 0.367509 0.120214 0.785166
O O9 0.731671 0.068498 0.883203
O O10 0.549052 0.304938 0.202451
O O11 0.500000 0.000000 0.000000
#
# Coordination Sequence:
#
# PCOD9409873 Si02
#       6
#     8   8   8   4   8   4
#     4  10  21  37  64 106 146 190 228 292 369 471
#     4  10  20  37  57  99 145 181 225 275 353 440
#     4  11  23  49  76 107 148 203 264 327 407 475
#     4  10  24  44  76 108 142 208 264 324 398 484
#     4  10  22  40  70 100 149 197 244 310 380 475
#     4  12  32  54  84 118 158 210 286 358 412 480
#
# _framework density 24.730743
#
# number of rings (size 3 to 8) (size 9 to 14) (size 15 to 20)
#    0.000    1.600    3.000    0.600    5.600    4.000 
#    0.000    6.000    0.000    0.000    0.000    0.000 
#    0.000    0.000    0.000    0.000    0.000    0.000 
#
# Total GULP energy -223226.231860 kJ/mol
# GULP energy per Si atom -5580.655797 kJ/mol
# Density = 2.467445 g / cm^3
# Si number density = 24.730743 Si / 1000 Ang^3
#
#
#
# Elastic Constant Matrix: (Units=GPa)
#
#
# Indices 1 2 3 4 5 6 
#
# 1 152.8989 43.3084 36.0837 0.0000 0.0000 0.0000
# 2 43.3084 118.9160 31.5697 0.0000 0.0000 0.0000
# 3 36.0837 31.5697 83.8646 0.0000 0.0000 0.0000
# 4 0.0000 0.0000 0.0000 31.4629 0.0000 0.0000
# 5 0.0000 0.0000 0.0000 0.0000 28.6537 0.0000
# 6 0.0000 0.0000 0.0000 0.0000 0.0000 36.9549
#
#
#
# Elastic Compliance Matrix: (Units=1/GPa)
#
#
# Indices 1 2 3 4 5 6 
#
# 1 0.007745 -0.002151 -0.002523 0.000000 0.000000 0.000000
# 2 -0.002151 0.009940 -0.002816 0.000000 0.000000 0.000000
# 3 -0.002523 -0.002816 0.014070 0.000000 0.000000 0.000000
# 4 0.000000 0.000000 0.000000 0.031783 0.000000 0.000000
# 5 0.000000 0.000000 0.000000 0.000000 0.034900 0.000000
# 6 0.000000 0.000000 0.000000 0.000000 0.000000 0.027060
#
#
# Mechanical properties :
#
#
# Convention : Reuss Voigt Hill
#
# Bulk Modulus (GPa) = 59.61325 64.17813 61.89569
# Shear Modulus (GPa) = 34.23033 35.72883 34.97958
#
# Velocity S-wave (km/s) = 3.72441 3.80506 3.76495
# Velocity P-wave (km/s) = 6.53087 6.73140 6.63189
#
# Compressibility (1/GPa) = 0.01677479
#
# Stress axis : x y z
#
# Youngs Moduli (GPa) = 129.11817 100.59999 71.07530
#
# Poissons Ratio (x) = 0.21638 0.17930
# Poissons Ratio (y) = 0.27772 0.20018
# Poissons Ratio (z) = 0.32572 0.28334
#
# Static dielectric constant tensor:
#      x y z
#    x 2.179800 0.000000 0.000000 
#    y 0.000000 1.992570 0.000000 
#    z 0.000000 0.000000 1.993920 
# 
# From -- ./inp_files/30145.got.cif
#   From: 2010.05.17/outbox.cif.g08.bks.cpg/sg52_16_cif.got.tgz:30145.got - 2010.06.03 12:15:38.
