data_PCOD9409903
_publ_section_title
;
Structure prediction by ZEFSAII (Michael W. Deem and Ramdas Pophale) SiO2 
 PCOD9409903
Probable space group: P N N A
;
_chemical_formula_sum "Si O2"
_cell_formula_units_Z 24
_cell_length_a 5.231782
_cell_length_b 11.674603
_cell_length_c 21.559201
_cell_angle_alpha 90.000000
_cell_angle_beta 90.000000
_cell_angle_gamma 90.000000
_cell_volume 1316.813960
_symmetry_space_group_name_H-M "P N N A"
_symmetry_group_IT_number 52
_symmetry_cell_setting 'orthorhombic'
loop_
_space_group_symop_operation_xyz
x,y,z
1/2-x,-y,z
x,1/2-y,1/2-z
1/2-x,1/2+y,1/2-z
-x,-y,-z
1/2+x,y,-z
-x,1/2+y,1/2+z
1/2+x,1/2-y,1/2+z
loop_
_atom_site_type_symbol
_atom_site_label
_atom_site_fract_x
_atom_site_fract_y
_atom_site_fract_z
Si Si1 0.504618 0.250000 0.750000
Si Si2 0.243800 0.134625 0.361234
Si Si3 0.737884 0.773394 0.124216
Si Si4 0.250000 0.500000 0.542385
O O1 0.676216 0.160767 0.711326
O O2 0.330238 0.196430 0.804012
O O3 0.506569 0.198001 0.377118
O O4 0.006084 0.196230 0.395465
O O5 0.250000 0.000000 0.372566
O O6 0.756965 0.886863 0.084428
O O7 0.500000 0.500000 0.500000
#
# Coordination Sequence:
#
# PCOD9409903 Si02
#       4
#     4   8   8   4
#     4   8  22  32  62  96 122 170 198 274 332 386
#     4  10  20  37  60  93 132 160 206 267 339 393
#     4  10  22  39  61  96 125 167 219 269 327 388
#     4  12  26  46  70  92 134 182 228 276 310 390
#
# _framework density 18.225809999999999
#
# number of rings (size 3 to 8) (size 9 to 14) (size 15 to 20)
#    2.000    0.000    0.000    4.000    0.000    5.333 
#    0.000    0.000    0.000   20.000    0.000    0.000 
#    0.000    0.000    0.000    0.000    0.000    0.000 
#
# Total GULP energy -133620.809485 kJ/mol
# GULP energy per Si atom -5567.533729 kJ/mol
# Density = 1.818433 g / cm^3
# Si number density = 18.225810 Si / 1000 Ang^3
#
#
#
# Elastic Constant Matrix: (Units=GPa)
#
#
# Indices 1 2 3 4 5 6 
#
# 1 173.3608 88.9469 38.1449 0.0000 0.0000 0.0000
# 2 88.9469 189.2849 62.2022 0.0000 0.0000 0.0000
# 3 38.1449 62.2022 68.1922 0.0000 0.0000 0.0000
# 4 0.0000 0.0000 0.0000 31.3742 0.0000 0.0000
# 5 0.0000 0.0000 0.0000 0.0000 15.3431 0.0000
# 6 0.0000 0.0000 0.0000 0.0000 0.0000 27.1973
#
#
#
# Elastic Compliance Matrix: (Units=1/GPa)
#
#
# Indices 1 2 3 4 5 6 
#
# 1 0.007698 -0.003145 -0.001437 0.000000 0.000000 0.000000
# 2 -0.003145 0.008829 -0.006295 0.000000 0.000000 0.000000
# 3 -0.001437 -0.006295 0.021210 0.000000 0.000000 0.000000
# 4 0.000000 0.000000 0.000000 0.031873 0.000000 0.000000
# 5 0.000000 0.000000 0.000000 0.000000 0.065176 0.000000
# 6 0.000000 0.000000 0.000000 0.000000 0.000000 0.036768
#
#
# Mechanical properties :
#
#
# Convention : Reuss Voigt Hill
#
# Bulk Modulus (GPa) = 62.56361 89.93621 76.24991
# Shear Modulus (GPa) = 25.17148 30.88584 28.02866
#
# Velocity S-wave (km/s) = 3.72033 4.12104 3.92580
# Velocity P-wave (km/s) = 7.27021 8.49097 7.90419
#
# Compressibility (1/GPa) = 0.01598373
#
# Stress axis : x y z
#
# Youngs Moduli (GPa) = 129.89913 113.25674 47.14737
#
# Poissons Ratio (x) = 0.35621 0.06777
# Poissons Ratio (y) = 0.40856 0.29677
# Poissons Ratio (z) = 0.18670 0.71290
#
# Static dielectric constant tensor:
#      x y z
#    x 1.632400 0.000000 0.000000 
#    y 0.000000 1.575720 0.000000 
#    z 0.000000 0.000000 1.633490 
# 
# From -- ./inp_files/29950.got.cif
#   From: 2010.05.17/outbox.cif.g08.bks.cpg/sg52_15_cif.got.tgz:29950.got - 2010.06.03 12:15:38.
