data_PCOD9409671
_publ_section_title
;
Structure prediction by ZEFSAII (Michael W. Deem and Ramdas Pophale) SiO2 
 PCOD9409671
Probable space group: P N N A
;
_chemical_formula_sum "Si O2"
_cell_formula_units_Z 64
_cell_length_a 13.926532
_cell_length_b 22.534007
_cell_length_c 9.443107
_cell_angle_alpha 90.000000
_cell_angle_beta 90.000000
_cell_angle_gamma 90.000000
_cell_volume 2963.441217
_symmetry_space_group_name_H-M "P N N A"
_symmetry_group_IT_number 52
_symmetry_cell_setting 'orthorhombic'
loop_
_space_group_symop_operation_xyz
x,y,z
1/2-x,-y,z
x,1/2-y,1/2-z
1/2-x,1/2+y,1/2-z
-x,-y,-z
1/2+x,y,-z
-x,1/2+y,1/2+z
1/2+x,1/2-y,1/2+z
loop_
_atom_site_type_symbol
_atom_site_label
_atom_site_fract_x
_atom_site_fract_y
_atom_site_fract_z
Si Si1 0.737040 0.155607 0.548889
Si Si2 0.970393 0.704679 0.877525
Si Si3 0.426534 0.713844 0.605862
Si Si4 0.586747 0.085100 0.016214
Si Si5 0.618902 0.958834 0.067470
Si Si6 0.340648 0.352047 0.762609
Si Si7 0.773829 0.397441 0.669604
Si Si8 0.710018 0.718932 0.508720
O O1 0.625131 0.168501 0.580705
O O2 0.759766 0.146027 0.383579
O O3 0.770185 0.106076 0.661404
O O4 0.798080 0.216079 0.573794
O O5 0.947125 0.750000 0.750000
O O6 0.057081 0.661558 0.835104
O O7 0.997786 0.749474 0.005069
O O8 0.421708 0.750000 0.750000
O O9 0.441038 0.643199 0.606589
O O10 0.323975 0.718280 0.527850
O O11 0.624796 0.028082 0.102287
O O12 0.491121 0.061940 0.940870
O O13 0.667436 0.099555 0.899266
O O14 0.665512 0.913014 0.175996
O O15 0.664839 0.947081 0.912005
O O16 0.330309 0.300353 0.644648
O O17 0.814174 0.334204 0.614172
#
# Coordination Sequence:
#
# PCOD9409671 Si02
#       8
#     8   8   8   8   8   8   8   8
#     4  11  20  33  56  87 123 155 193 253 308 354
#     4  11  21  36  58  86 124 163 195 236 303 367
#     4  10  20  35  59  90 116 144 190 247 301 347
#     4  10  21  40  64  85 115 156 204 249 289 357
#     4  10  22  40  63  85 112 160 208 240 286 358
#     4  11  22  37  59  89 123 161 203 246 299 366
#     4  10  20  35  58  86 116 152 198 249 298 348
#     4   9  18  34  55  82 118 157 195 237 293 360
#
# _framework density 21.596515
#
# number of rings (size 3 to 8) (size 9 to 14) (size 15 to 20)
#    0.000    1.750    0.000    7.125    0.000    2.000 
#    0.000    0.625    0.000   23.250    0.000    0.000 
#    0.000    0.000    0.000    0.000    0.000    0.000 
#
# Total GULP energy -357321.742073 kJ/mol
# GULP energy per Si atom -5583.152220 kJ/mol
# Density = 2.154736 g / cm^3
# Si number density = 21.596515 Si / 1000 Ang^3
#
#
#
# Elastic Constant Matrix: (Units=GPa)
#
#
# Indices 1 2 3 4 5 6 
#
# 1 91.4885 9.5106 21.8825 0.0000 0.0000 0.0000
# 2 9.5106 119.5430 33.4317 0.0000 0.0000 0.0000
# 3 21.8825 33.4317 73.0979 0.0000 0.0000 0.0000
# 4 0.0000 0.0000 0.0000 13.4327 0.0000 0.0000
# 5 0.0000 0.0000 0.0000 0.0000 28.3703 0.0000
# 6 0.0000 0.0000 0.0000 0.0000 0.0000 19.7646
#
#
#
# Elastic Compliance Matrix: (Units=1/GPa)
#
#
# Indices 1 2 3 4 5 6 
#
# 1 0.011774 0.000056 -0.003550 0.000000 0.000000 0.000000
# 2 0.000056 0.009592 -0.004404 0.000000 0.000000 0.000000
# 3 -0.003550 -0.004404 0.016757 0.000000 0.000000 0.000000
# 4 0.000000 0.000000 0.000000 0.074445 0.000000 0.000000
# 5 0.000000 0.000000 0.000000 0.000000 0.035248 0.000000
# 6 0.000000 0.000000 0.000000 0.000000 0.000000 0.050596
#
#
# Mechanical properties :
#
#
# Convention : Reuss Voigt Hill
#
# Bulk Modulus (GPa) = 44.78832 45.97546 45.38189
# Shear Modulus (GPa) = 22.55804 26.93382 24.74593
#
# Velocity S-wave (km/s) = 3.23541 3.53531 3.38868
# Velocity P-wave (km/s) = 5.89414 6.16435 6.03076
#
# Compressibility (1/GPa) = 0.02232725
#
# Stress axis : x y z
#
# Youngs Moduli (GPa) = 84.93544 104.24990 59.67571
#
# Poissons Ratio (x) = -0.00586 0.21186
# Poissons Ratio (y) = -0.00477 0.26281
# Poissons Ratio (z) = 0.30154 0.45911
#
# Static dielectric constant tensor:
#      x y z
#    x 1.864230 0.000000 0.000000 
#    y 0.000000 1.838020 0.000000 
#    z 0.000000 0.000000 1.803200 
# 
# From -- ./inp_files/11027.got.cif
#   From: 2010.05.17/outbox.cif.g08.bks.cpg/sg52_6_cif.got.tgz:11027.got - 2010.06.03 12:15:38.
