data_PCOD9409224
_publ_section_title
;
Structure prediction by ZEFSAII (Michael W. Deem and Ramdas Pophale) SiO2 
 PCOD9409224
Probable space group: P N N A
;
_chemical_formula_sum "Si O2"
_cell_formula_units_Z 48
_cell_length_a 14.770826
_cell_length_b 18.568144
_cell_length_c 9.047222
_cell_angle_alpha 90.000000
_cell_angle_beta 90.000000
_cell_angle_gamma 90.000000
_cell_volume 2481.352845
_symmetry_space_group_name_H-M "P N N A"
_symmetry_group_IT_number 52
_symmetry_cell_setting 'orthorhombic'
loop_
_space_group_symop_operation_xyz
x,y,z
1/2-x,-y,z
x,1/2-y,1/2-z
1/2-x,1/2+y,1/2-z
-x,-y,-z
1/2+x,y,-z
-x,1/2+y,1/2+z
1/2+x,1/2-y,1/2+z
loop_
_atom_site_type_symbol
_atom_site_label
_atom_site_fract_x
_atom_site_fract_y
_atom_site_fract_z
Si Si1 0.499426 0.484027 0.759829
Si Si2 0.627568 0.807325 0.618576
Si Si3 0.687818 0.929553 0.147991
Si Si4 0.052609 0.114853 0.524369
Si Si5 0.733490 0.310968 0.133131
Si Si6 0.676962 0.939411 0.818424
O O1 0.416370 0.450436 0.672270
O O2 0.458860 0.548417 0.860975
O O3 0.580549 0.520121 0.669678
O O4 0.541746 0.422893 0.865838
O O5 0.617470 0.750000 0.750000
O O6 0.530678 0.830806 0.552966
O O7 0.695173 0.783466 0.488879
O O8 0.668517 0.879546 0.693003
O O9 0.717171 0.871875 0.269027
O O10 0.750000 0.000000 0.168031
O O11 0.700803 0.906323 0.977860
O O12 0.146618 0.154614 0.553528
O O13 0.705323 0.250000 0.250000
O O14 0.750000 0.000000 0.779673
#
# Coordination Sequence:
#
# PCOD9409224 Si02
#       6
#     8   8   8   8   8   8
#     4  10  19  37  63  95 120 159 198 256 307 361
#     4  11  23  42  61  85 124 165 203 253 310 368
#     4  11  21  38  62  93 123 158 203 253 307 369
#     4  10  21  37  64  93 119 155 208 250 307 366
#     4  12  24  40  63  88 124 166 210 255 309 371
#     4  10  22  37  62  93 127 159 202 254 309 364
#
# _framework density 19.344286
#
# number of rings (size 3 to 8) (size 9 to 14) (size 15 to 20)
#    0.000    1.333    3.333    3.000    0.000    0.667 
#    0.000    0.833    0.000    0.000    0.000    0.000 
#    0.000    0.000    0.000    0.000    0.000    0.000 
#
# Total GULP energy -268185.588799 kJ/mol
# GULP energy per Si atom -5587.199767 kJ/mol
# Density = 1.930026 g / cm^3
# Si number density = 19.344286 Si / 1000 Ang^3
#
#
#
# Elastic Constant Matrix: (Units=GPa)
#
#
# Indices 1 2 3 4 5 6 
#
# 1 74.4996 24.5208 17.1231 0.0000 0.0000 0.0000
# 2 24.5208 54.3476 20.8867 0.0000 0.0000 0.0000
# 3 17.1231 20.8867 69.5735 0.0000 0.0000 0.0000
# 4 0.0000 0.0000 0.0000 22.3029 0.0000 0.0000
# 5 0.0000 0.0000 0.0000 0.0000 127.1583 0.0000
# 6 0.0000 0.0000 0.0000 0.0000 0.0000 16.3776
#
#
#
# Elastic Compliance Matrix: (Units=1/GPa)
#
#
# Indices 1 2 3 4 5 6 
#
# 1 0.016007 -0.006453 -0.002002 0.000000 0.000000 0.000000
# 2 -0.006453 0.023401 -0.005437 0.000000 0.000000 0.000000
# 3 -0.002002 -0.005437 0.016498 0.000000 0.000000 0.000000
# 4 0.000000 0.000000 0.000000 0.044837 0.000000 0.000000
# 5 0.000000 0.000000 0.000000 0.000000 0.007864 0.000000
# 6 0.000000 0.000000 0.000000 0.000000 0.000000 0.061059
#
#
# Mechanical properties :
#
#
# Convention : Reuss Voigt Hill
#
# Bulk Modulus (GPa) = 35.55926 35.94244 35.75085
# Shear Modulus (GPa) = 24.17505 42.22709 33.20107
#
# Velocity S-wave (km/s) = 3.53898 4.67725 4.14735
# Velocity P-wave (km/s) = 5.92633 6.91300 6.43859
#
# Compressibility (1/GPa) = 0.02812207
#
# Stress axis : x y z
#
# Youngs Moduli (GPa) = 62.47299 42.73337 60.61187
#
# Poissons Ratio (x) = 0.27574 0.12137
# Poissons Ratio (y) = 0.40311 0.32956
# Poissons Ratio (z) = 0.12510 0.23235
#
# Static dielectric constant tensor:
#      x y z
#    x 1.644360 0.000000 0.000000 
#    y 0.000000 1.654830 0.000000 
#    z 0.000000 0.000000 1.653760 
# 
# From -- ./inp_files/10442.got.cif
#   From: 2010.05.17/outbox.cif.g08.bks.cpg/sg52_6_cif.got.tgz:10442.got - 2010.06.03 12:15:38.
