data_PCOD9409450
_publ_section_title
;
Structure prediction by ZEFSAII (Michael W. Deem and Ramdas Pophale) SiO2 
 PCOD9409450
Probable space group: P N N A
;
_chemical_formula_sum "Si O2"
_cell_formula_units_Z 32
_cell_length_a 25.018381
_cell_length_b 4.952792
_cell_length_c 13.502097
_cell_angle_alpha 90.000000
_cell_angle_beta 90.000000
_cell_angle_gamma 90.000000
_cell_volume 1673.056144
_symmetry_space_group_name_H-M "P N N A"
_symmetry_group_IT_number 52
_symmetry_cell_setting 'orthorhombic'
loop_
_space_group_symop_operation_xyz
x,y,z
1/2-x,-y,z
x,1/2-y,1/2-z
1/2-x,1/2+y,1/2-z
-x,-y,-z
1/2+x,y,-z
-x,1/2+y,1/2+z
1/2+x,1/2-y,1/2+z
loop_
_atom_site_type_symbol
_atom_site_label
_atom_site_fract_x
_atom_site_fract_y
_atom_site_fract_z
Si Si1 0.917611 0.825376 0.990771
Si Si2 0.570391 0.750000 0.750000
Si Si3 0.750000 0.500000 0.821552
Si Si4 0.859929 0.147015 0.584215
Si Si5 0.487674 0.108139 0.854833
O O1 0.883252 0.553652 0.998422
O O2 0.973236 0.742697 0.933667
O O3 0.878856 0.047187 0.937743
O O4 0.938355 0.973872 0.089325
O O5 0.609048 0.937325 0.685879
O O6 0.529856 0.620128 0.674253
O O7 0.734198 0.250000 0.750000
O O8 0.798562 0.396568 0.889833
O O9 0.475233 0.250000 0.750000
#
# Coordination Sequence:
#
# PCOD9409450 Si02
#       5
#     8   4   4   8   8
#     4  10  23  35  54  79 118 151 183 231 281 334
#     4  10  20  32  56  78 118 152 180 230 270 342
#     4  12  24  36  62  84 108 150 196 224 286 350
#     4  11  22  38  52  83 113 148 185 233 279 333
#     4  10  20  33  54  80 114 153 190 220 279 343
#
# _framework density 19.126674000000001
#
# number of rings (size 3 to 8) (size 9 to 14) (size 15 to 20)
#    0.000    1.500    3.750    1.500    7.000    3.000 
#    0.000    0.000    0.000    0.000    0.000    3.500 
#    0.000    0.000    0.000    0.000    0.000    0.000 
#
# Total GULP energy -178191.320956 kJ/mol
# GULP energy per Si atom -5568.478780 kJ/mol
# Density = 1.908314 g / cm^3
# Si number density = 19.126674 Si / 1000 Ang^3
#
#
#
# Elastic Constant Matrix: (Units=GPa)
#
#
# Indices 1 2 3 4 5 6 
#
# 1 85.1587 2.5846 31.8295 0.0000 0.0000 0.0000
# 2 2.5846 58.4946 9.8647 0.0000 0.0000 0.0000
# 3 31.8295 9.8647 72.5898 0.0000 0.0000 0.0000
# 4 0.0000 0.0000 0.0000 17.1454 0.0000 0.0000
# 5 0.0000 0.0000 0.0000 0.0000 -6.0524 0.0000
# 6 0.0000 0.0000 0.0000 0.0000 0.0000 25.6890
#
#
#
# Elastic Compliance Matrix: (Units=1/GPa)
#
#
# Indices 1 2 3 4 5 6 
#
# 1 0.014055 0.000428 -0.006221 0.000000 0.000000 0.000000
# 2 0.000428 0.017510 -0.002567 0.000000 0.000000 0.000000
# 3 -0.006221 -0.002567 0.016853 0.000000 0.000000 0.000000
# 4 0.000000 0.000000 0.000000 0.058325 0.000000 0.000000
# 5 0.000000 0.000000 0.000000 0.000000 -0.165225 0.000000
# 6 0.000000 0.000000 0.000000 0.000000 0.000000 0.038927
#
#
# Mechanical properties :
#
#
# Convention : Reuss Voigt Hill
#
# Bulk Modulus (GPa) = 31.54870 33.86675 32.70772
# Shear Modulus (GPa) = 646.78493 18.82070 332.80282
#
# Velocity S-wave (km/s) = 18.40904 3.14028 13.20519
# Velocity P-wave (km/s) = 21.64226 5.55819 15.80001
#
# Compressibility (1/GPa) = 0.03169703
#
# Stress axis : x y z
#
# Youngs Moduli (GPa) = 71.14900 57.11142 59.33751
#
# Poissons Ratio (x) = -0.02445 0.36914
# Poissons Ratio (y) = -0.03046 0.15233
# Poissons Ratio (z) = 0.44262 0.14662
#
# Static dielectric constant tensor:
#      x y z
#    x 1.646730 0.000000 0.000000 
#    y 0.000000 1.779640 0.000000 
#    z 0.000000 0.000000 1.797990 
# 
# From -- ./inp_files/21246.got.cif
#   From: 2010.05.17/outbox.cif.g08.bks.cpg/sg52_11_cif.got.tgz:21246.got - 2010.06.03 12:15:38.
