data_PCOD9409757
_publ_section_title
;
Structure prediction by ZEFSAII (Michael W. Deem and Ramdas Pophale) SiO2 
 PCOD9409757
Probable space group: P N N A
;
_chemical_formula_sum "Si O2"
_cell_formula_units_Z 36
_cell_length_a 11.102580
_cell_length_b 12.090930
_cell_length_c 11.957914
_cell_angle_alpha 90.000000
_cell_angle_beta 90.000000
_cell_angle_gamma 90.000000
_cell_volume 1605.236565
_symmetry_space_group_name_H-M "P N N A"
_symmetry_group_IT_number 52
_symmetry_cell_setting 'orthorhombic'
loop_
_space_group_symop_operation_xyz
x,y,z
1/2-x,-y,z
x,1/2-y,1/2-z
1/2-x,1/2+y,1/2-z
-x,-y,-z
1/2+x,y,-z
-x,1/2+y,1/2+z
1/2+x,1/2-y,1/2+z
loop_
_atom_site_type_symbol
_atom_site_label
_atom_site_fract_x
_atom_site_fract_y
_atom_site_fract_z
Si Si1 0.925918 0.371403 0.213669
Si Si2 0.575696 0.192011 0.131029
Si Si3 0.127814 0.953389 0.243489
Si Si4 0.250000 0.000000 0.877385
Si Si5 0.933115 0.384613 0.974282
O O1 0.955574 0.250000 0.250000
O O2 0.838801 0.431829 0.298426
O O3 0.045896 0.443561 0.220691
O O4 0.867384 0.362908 0.090680
O O5 0.618328 0.250000 0.250000
O O6 0.454800 0.124323 0.166650
O O7 0.666047 0.101107 0.076491
O O8 0.532539 0.290471 0.050944
O O9 0.147231 0.892195 0.362916
O O10 0.250000 0.000000 0.192896
O O11 0.000000 0.500000 0.000000
#
# Coordination Sequence:
#
# PCOD9409757 Si02
#       5
#     8   8   8   4   8
#     4  10  21  36  58  85 117 153 197 250 299 356
#     4   9  18  36  61  85 123 155 199 257 303 358
#     4   9  19  36  59  84 118 157 198 242 304 359
#     4  10  20  36  58  86 122 158 198 248 314 354
#     4   9  19  36  59  88 113 155 203 250 293 360
#
# _framework density 22.426600000000001
#
# number of rings (size 3 to 8) (size 9 to 14) (size 15 to 20)
#    0.000    2.667    0.000    2.000    1.556    2.667 
#    4.000    4.444    4.889    0.000    0.000    0.000 
#    0.000    0.000    0.000    0.000    0.000    0.000 
#
# Total GULP energy -200667.944820 kJ/mol
# GULP energy per Si atom -5574.109578 kJ/mol
# Density = 2.237556 g / cm^3
# Si number density = 22.426600 Si / 1000 Ang^3
#
#
#
# Elastic Constant Matrix: (Units=GPa)
#
#
# Indices 1 2 3 4 5 6 
#
# 1 71.6867 29.9506 -3.6465 0.0000 0.0000 0.0000
# 2 29.9506 159.5171 21.8098 0.0000 0.0000 0.0000
# 3 -3.6465 21.8098 13.2123 0.0000 0.0000 0.0000
# 4 0.0000 0.0000 0.0000 30.1773 0.0000 0.0000
# 5 0.0000 0.0000 0.0000 0.0000 1.0013 0.0000
# 6 0.0000 0.0000 0.0000 0.0000 0.0000 29.4356
#
#
#
# Elastic Compliance Matrix: (Units=1/GPa)
#
#
# Indices 1 2 3 4 5 6 
#
# 1 0.016610 -0.004837 0.012569 0.000000 0.000000 0.000000
# 2 -0.004837 0.009505 -0.017025 0.000000 0.000000 0.000000
# 3 0.012569 -0.017025 0.107259 0.000000 0.000000 0.000000
# 4 0.000000 0.000000 0.000000 0.033138 0.000000 0.000000
# 5 0.000000 0.000000 0.000000 0.000000 0.998712 0.000000
# 6 0.000000 0.000000 0.000000 0.000000 0.000000 0.033973
#
#
# Mechanical properties :
#
#
# Convention : Reuss Voigt Hill
#
# Bulk Modulus (GPa) = 8.71173 37.84931 23.28052
# Shear Modulus (GPa) = 3.98075 25.20963 14.59519
#
# Velocity S-wave (km/s) = 1.33374 3.35639 2.55384
# Velocity P-wave (km/s) = 2.50296 5.65103 4.37029
#
# Compressibility (1/GPa) = 0.11478773
#
# Stress axis : x y z
#
# Youngs Moduli (GPa) = 60.20515 105.20978 9.32323
#
# Poissons Ratio (x) = 0.50891 -0.11718
# Poissons Ratio (y) = 0.29122 0.15873
# Poissons Ratio (z) = -0.75671 1.79117
#
# Static dielectric constant tensor:
#      x y z
#    x 1.816840 0.000000 0.000000 
#    y 0.000000 1.860920 0.000000 
#    z 0.000000 0.000000 1.673360 
# 
# From -- ./inp_files/17728.got.cif
#   From: 2010.05.17/outbox.cif.g08.bks.cpg/sg52_9_cif.got.tgz:17728.got - 2010.06.03 12:15:38.
