data_PCOD9409323
_publ_section_title
;
Structure prediction by ZEFSAII (Michael W. Deem and Ramdas Pophale) SiO2 
 PCOD9409323
Probable space group: P N N A
;
_chemical_formula_sum "Si O2"
_cell_formula_units_Z 44
_cell_length_a 14.343746
_cell_length_b 14.979516
_cell_length_c 10.467517
_cell_angle_alpha 90.000000
_cell_angle_beta 90.000000
_cell_angle_gamma 90.000000
_cell_volume 2249.075539
_symmetry_space_group_name_H-M "P N N A"
_symmetry_group_IT_number 52
_symmetry_cell_setting 'orthorhombic'
loop_
_space_group_symop_operation_xyz
x,y,z
1/2-x,-y,z
x,1/2-y,1/2-z
1/2-x,1/2+y,1/2-z
-x,-y,-z
1/2+x,y,-z
-x,1/2+y,1/2+z
1/2+x,1/2-y,1/2+z
loop_
_atom_site_type_symbol
_atom_site_label
_atom_site_fract_x
_atom_site_fract_y
_atom_site_fract_z
Si Si1 0.127170 0.153348 0.685882
Si Si2 0.089586 0.116742 0.163544
Si Si3 0.833596 0.166755 0.345024
Si Si4 0.900929 0.019451 0.150365
Si Si5 0.469793 0.693726 0.062092
Si Si6 0.250000 0.500000 0.439858
O O1 0.117687 0.250000 0.750000
O O2 0.228312 0.147131 0.617522
O O3 0.112985 0.080278 0.796238
O O4 0.057584 0.146430 0.568255
O O5 0.070831 0.205886 0.079311
O O6 0.069061 0.144383 0.310530
O O7 0.190803 0.073154 0.139619
O O8 0.007658 0.047168 0.126634
O O9 0.827019 0.250000 0.250000
O O10 0.917888 0.193942 0.435984
O O11 0.867857 0.081987 0.265978
O O12 0.829986 0.038256 0.034386
#
# Coordination Sequence:
#
# PCOD9409323 Si02
#       6
#     8   8   8   8   8   4
#     4  11  23  38  64  97 123 164 217 262 311 389
#     4  10  23  40  63  90 124 174 204 263 335 375
#     4  10  19  39  64  87 117 170 209 249 322 369
#     4  11  21  41  63  93 120 164 222 260 313 390
#     4  10  21  42  63  88 130 163 210 259 324 388
#     4  12  22  38  62  90 124 162 220 266 310 390
#
# _framework density 19.563593999999998
#
# number of rings (size 3 to 8) (size 9 to 14) (size 15 to 20)
#    0.000    1.455    5.455    1.636    2.545    2.909 
#    6.545    0.000    0.000    0.000    0.000    0.000 
#    0.000    0.000    0.000    0.000    0.000    0.000 
#
# Total GULP energy -245327.450609 kJ/mol
# GULP energy per Si atom -5575.623877 kJ/mol
# Density = 1.951907 g / cm^3
# Si number density = 19.563594 Si / 1000 Ang^3
#
#
#
# Elastic Constant Matrix: (Units=GPa)
#
#
# Indices 1 2 3 4 5 6 
#
# 1 136.1480 29.8483 29.4000 0.0000 0.0000 0.0000
# 2 29.8483 104.0907 4.9119 0.0000 0.0000 0.0000
# 3 29.4000 4.9119 46.2964 0.0000 0.0000 0.0000
# 4 0.0000 0.0000 0.0000 1.8626 0.0000 0.0000
# 5 0.0000 0.0000 0.0000 0.0000 34.2970 0.0000
# 6 0.0000 0.0000 0.0000 0.0000 0.0000 25.6319
#
#
#
# Elastic Compliance Matrix: (Units=1/GPa)
#
#
# Indices 1 2 3 4 5 6 
#
# 1 0.009043 -0.002334 -0.005495 0.000000 0.000000 0.000000
# 2 -0.002334 0.010258 0.000394 0.000000 0.000000 0.000000
# 3 -0.005495 0.000394 0.025048 0.000000 0.000000 0.000000
# 4 0.000000 0.000000 0.000000 0.536890 0.000000 0.000000
# 5 0.000000 0.000000 0.000000 0.000000 0.029157 0.000000
# 6 0.000000 0.000000 0.000000 0.000000 0.000000 0.039014
#
#
# Mechanical properties :
#
#
# Convention : Reuss Voigt Hill
#
# Bulk Modulus (GPa) = 33.92338 46.09508 40.00923
# Shear Modulus (GPa) = 7.41723 27.18330 17.30026
#
# Velocity S-wave (km/s) = 1.94925 3.73162 2.97696
# Velocity P-wave (km/s) = 4.73749 6.49457 5.68433
#
# Compressibility (1/GPa) = 0.02947820
#
# Stress axis : x y z
#
# Youngs Moduli (GPa) = 110.57965 97.48804 39.92360
#
# Poissons Ratio (x) = 0.22752 0.21939
# Poissons Ratio (y) = 0.25808 -0.01572
# Poissons Ratio (z) = 0.60766 -0.03839
#
# Static dielectric constant tensor:
#      x y z
#    x 1.729550 0.000000 0.000000 
#    y 0.000000 1.687070 0.000000 
#    z 0.000000 0.000000 1.686780 
# 
# From -- ./inp_files/19466.got.cif
#   From: 2010.05.17/outbox.cif.g08.bks.cpg/sg52_10_cif.got.tgz:19466.got - 2010.06.03 12:15:38.
