data_PCOD9409439
_publ_section_title
;
Structure prediction by ZEFSAII (Michael W. Deem and Ramdas Pophale) SiO2 
 PCOD9409439
Probable space group: P N N A
;
_chemical_formula_sum "Si O2"
_cell_formula_units_Z 64
_cell_length_a 21.777000
_cell_length_b 11.356461
_cell_length_c 14.053576
_cell_angle_alpha 90.000000
_cell_angle_beta 90.000000
_cell_angle_gamma 90.000000
_cell_volume 3475.584979
_symmetry_space_group_name_H-M "P N N A"
_symmetry_group_IT_number 52
_symmetry_cell_setting 'orthorhombic'
loop_
_space_group_symop_operation_xyz
x,y,z
1/2-x,-y,z
x,1/2-y,1/2-z
1/2-x,1/2+y,1/2-z
-x,-y,-z
1/2+x,y,-z
-x,1/2+y,1/2+z
1/2+x,1/2-y,1/2+z
loop_
_atom_site_type_symbol
_atom_site_label
_atom_site_fract_x
_atom_site_fract_y
_atom_site_fract_z
Si Si1 0.437281 0.541405 0.179807
Si Si2 0.434291 0.355080 0.478012
Si Si3 0.794009 0.392282 0.540113
Si Si4 0.038529 0.098039 0.114539
Si Si5 0.399162 0.705274 0.015676
Si Si6 0.992240 0.686690 0.148648
Si Si7 0.178383 0.882193 0.261236
Si Si8 0.739383 0.134622 0.555507
O O1 0.449332 0.613539 0.275366
O O2 0.436420 0.622309 0.087919
O O3 0.490508 0.446818 0.168000
O O4 0.373005 0.470630 0.197901
O O5 0.363867 0.384749 0.496622
O O6 0.459170 0.460655 0.411217
O O7 0.474676 0.354580 0.573234
O O8 0.452880 0.240404 0.417378
O O9 0.750000 0.500000 0.505879
O O10 0.801506 0.412618 0.654417
O O11 0.770329 0.258318 0.522253
O O12 0.091469 0.163093 0.054798
O O13 0.330840 0.661727 0.032448
O O14 0.430164 0.699289 0.912688
O O15 0.988731 0.750000 0.250000
O O16 0.151439 0.750000 0.250000
O O17 0.235164 0.872840 0.335138
O O18 0.750000 0.000000 0.518340
#
# Coordination Sequence:
#
# PCOD9409439 Si02
#       8
#     8   8   8   8   8   8   8   8
#     4  12  20  36  59  90 119 153 193 249 306 365
#     4  10  20  37  57  85 119 158 198 242 300 356
#     4  11  21  33  56  84 116 164 211 236 290 374
#     4  10  21  35  57  85 124 154 190 251 300 352
#     4  11  25  36  56  88 123 153 198 248 304 366
#     4  11  21  40  61  86 109 158 207 249 301 363
#     4  10  20  32  53  81 120 159 190 231 296 381
#     4  11  22  37  52  84 122 165 192 245 308 360
#
# _framework density 18.414166000000002
#
# number of rings (size 3 to 8) (size 9 to 14) (size 15 to 20)
#    0.000    1.250    3.750    3.750    0.000    2.000 
#    0.000    0.000    0.000    0.000    3.250    0.000 
#    0.000    0.000    0.000    0.000    0.000    0.000 
#
# Total GULP energy -356767.584560 kJ/mol
# GULP energy per Si atom -5574.493509 kJ/mol
# Density = 1.837225 g / cm^3
# Si number density = 18.414166 Si / 1000 Ang^3
#
#
#
# Elastic Constant Matrix: (Units=GPa)
#
#
# Indices 1 2 3 4 5 6 
#
# 1 102.8685 26.6927 31.1454 0.0000 0.0000 0.0000
# 2 26.6927 74.9863 7.1746 0.0000 0.0000 0.0000
# 3 31.1454 7.1746 48.6875 0.0000 0.0000 0.0000
# 4 0.0000 0.0000 0.0000 18.2769 0.0000 0.0000
# 5 0.0000 0.0000 0.0000 0.0000 18.9937 0.0000
# 6 0.0000 0.0000 0.0000 0.0000 0.0000 17.8649
#
#
#
# Elastic Compliance Matrix: (Units=1/GPa)
#
#
# Indices 1 2 3 4 5 6 
#
# 1 0.013100 -0.003917 -0.007803 0.000000 0.000000 0.000000
# 2 -0.003917 0.014697 0.000340 0.000000 0.000000 0.000000
# 3 -0.007803 0.000340 0.025481 0.000000 0.000000 0.000000
# 4 0.000000 0.000000 0.000000 0.054714 0.000000 0.000000
# 5 0.000000 0.000000 0.000000 0.000000 0.052649 0.000000
# 6 0.000000 0.000000 0.000000 0.000000 0.000000 0.055976
#
#
# Mechanical properties :
#
#
# Convention : Reuss Voigt Hill
#
# Bulk Modulus (GPa) = 32.76720 39.61863 36.19292
# Shear Modulus (GPa) = 20.03612 21.79572 20.91592
#
# Velocity S-wave (km/s) = 3.30219 3.44414 3.37391
# Velocity P-wave (km/s) = 5.68968 6.11376 5.90553
#
# Compressibility (1/GPa) = 0.03051832
#
# Stress axis : x y z
#
# Youngs Moduli (GPa) = 76.33639 68.03899 39.24550
#
# Poissons Ratio (x) = 0.26648 0.30623
# Poissons Ratio (y) = 0.29898 -0.01333
# Poissons Ratio (z) = 0.59564 -0.02311
#
# Static dielectric constant tensor:
#      x y z
#    x 1.669060 0.000000 0.000000 
#    y 0.000000 1.692040 0.000000 
#    z 0.000000 0.000000 1.607040 
# 
# From -- ./inp_files/22494.got.cif
#   From: 2010.05.17/outbox.cif.g08.bks.cpg/sg52_12_cif.got.tgz:22494.got - 2010.06.03 12:15:38.
