data_PCOD9409921
_publ_section_title
;
Structure prediction by ZEFSAII (Michael W. Deem and Ramdas Pophale) SiO2 
 PCOD9409921
Probable space group: P N N A
;
_chemical_formula_sum "Si O2"
_cell_formula_units_Z 28
_cell_length_a 4.835927
_cell_length_b 16.371080
_cell_length_c 13.022803
_cell_angle_alpha 90.000000
_cell_angle_beta 90.000000
_cell_angle_gamma 90.000000
_cell_volume 1031.006820
_symmetry_space_group_name_H-M "P N N A"
_symmetry_group_IT_number 52
_symmetry_cell_setting 'orthorhombic'
loop_
_space_group_symop_operation_xyz
x,y,z
1/2-x,-y,z
x,1/2-y,1/2-z
1/2-x,1/2+y,1/2-z
-x,-y,-z
1/2+x,y,-z
-x,1/2+y,1/2+z
1/2+x,1/2-y,1/2+z
loop_
_atom_site_type_symbol
_atom_site_label
_atom_site_fract_x
_atom_site_fract_y
_atom_site_fract_z
Si Si1 0.761680 0.681573 0.927236
Si Si2 0.423378 0.421719 0.778173
Si Si3 0.944434 0.418317 0.457232
Si Si4 0.428105 0.250000 0.750000
O O1 0.869520 0.751727 0.849181
O O2 0.838199 0.601732 0.857940
O O3 0.460329 0.680798 0.973699
O O4 0.250000 0.500000 0.808509
O O5 0.517381 0.434325 0.660359
O O6 0.266541 0.334186 0.764856
O O7 0.750000 0.500000 0.497557
O O8 0.653998 0.369904 0.469790
#
# Coordination Sequence:
#
# PCOD9409921 Si02
#       4
#     8   8   8   4
#     4  10  24  47  68  99 139 184 229 284 344 410
#     4  10  21  44  67 104 136 180 235 278 344 419
#     4  10  20  37  62 102 130 173 214 282 344 394
#     4   8  24  44  66 106 126 188 226 288 334 424
#
# _framework density 27.157920000000001
#
# number of rings (size 3 to 8) (size 9 to 14) (size 15 to 20)
#    1.714    0.571    2.857    0.000    0.000    6.857 
#    0.000    0.000    0.000    0.000    0.000    0.000 
#    0.000    0.000    0.000    0.000    0.000    0.000 
#
# Total GULP energy -155934.961881 kJ/mol
# GULP energy per Si atom -5569.105781 kJ/mol
# Density = 2.709611 g / cm^3
# Si number density = 27.157920 Si / 1000 Ang^3
#
#
#
# Elastic Constant Matrix: (Units=GPa)
#
#
# Indices 1 2 3 4 5 6 
#
# 1 84.5649 -3.2202 24.4277 0.0000 0.0000 0.0000
# 2 -3.2202 141.2346 6.1703 0.0000 0.0000 0.0000
# 3 24.4277 6.1703 191.5160 0.0000 0.0000 0.0000
# 4 0.0000 0.0000 0.0000 43.5336 0.0000 0.0000
# 5 0.0000 0.0000 0.0000 0.0000 36.4418 0.0000
# 6 0.0000 0.0000 0.0000 0.0000 0.0000 18.2281
#
#
#
# Elastic Compliance Matrix: (Units=1/GPa)
#
#
# Indices 1 2 3 4 5 6 
#
# 1 0.012295 0.000349 -0.001579 0.000000 0.000000 0.000000
# 2 0.000349 0.007100 -0.000273 0.000000 0.000000 0.000000
# 3 -0.001579 -0.000273 0.005432 0.000000 0.000000 0.000000
# 4 0.000000 0.000000 0.000000 0.022971 0.000000 0.000000
# 5 0.000000 0.000000 0.000000 0.000000 0.027441 0.000000
# 6 0.000000 0.000000 0.000000 0.000000 0.000000 0.054860
#
#
# Mechanical properties :
#
#
# Convention : Reuss Voigt Hill
#
# Bulk Modulus (GPa) = 45.82951 52.45235 49.14093
# Shear Modulus (GPa) = 35.61782 45.63656 40.62719
#
# Velocity S-wave (km/s) = 3.62540 4.10373 3.87196
# Velocity P-wave (km/s) = 5.86827 6.46606 6.17440
#
# Compressibility (1/GPa) = 0.02182000
#
# Stress axis : x y z
#
# Youngs Moduli (GPa) = 81.33532 140.83866 184.10241
#
# Poissons Ratio (x) = -0.04920 0.29078
# Poissons Ratio (y) = -0.02841 0.05032
# Poissons Ratio (z) = 0.12846 0.03849
#
# Static dielectric constant tensor:
#      x y z
#    x 1.321530 0.000000 0.000000 
#    y 0.000000 1.306960 0.000000 
#    z 0.000000 0.000000 2.082180 
# 
# From -- ./inp_files/23415.got.cif
#   From: 2010.05.17/outbox.cif.g08.bks.cpg/sg52_12_cif.got.tgz:23415.got - 2010.06.03 12:15:38.
