data_PCOD9409181
_publ_section_title
;
Structure prediction by ZEFSAII (Michael W. Deem and Ramdas Pophale) SiO2 
 PCOD9409181
Probable space group: P N N A
;
_chemical_formula_sum "Si O2"
_cell_formula_units_Z 48
_cell_length_a 7.954221
_cell_length_b 27.992237
_cell_length_c 10.853955
_cell_angle_alpha 90.000000
_cell_angle_beta 90.000000
_cell_angle_gamma 90.000000
_cell_volume 2416.702974
_symmetry_space_group_name_H-M "P N N A"
_symmetry_group_IT_number 52
_symmetry_cell_setting 'orthorhombic'
loop_
_space_group_symop_operation_xyz
x,y,z
1/2-x,-y,z
x,1/2-y,1/2-z
1/2-x,1/2+y,1/2-z
-x,-y,-z
1/2+x,y,-z
-x,1/2+y,1/2+z
1/2+x,1/2-y,1/2+z
loop_
_atom_site_type_symbol
_atom_site_label
_atom_site_fract_x
_atom_site_fract_y
_atom_site_fract_z
Si Si1 0.219232 0.055104 0.170105
Si Si2 0.916880 0.816392 0.498096
Si Si3 0.608351 0.599144 0.428366
Si Si4 0.169881 0.753364 0.615180
Si Si5 0.156797 0.641506 0.175240
Si Si6 0.406136 0.837891 0.888647
O O1 0.289561 0.090471 0.274091
O O2 0.023800 0.067982 0.147352
O O3 0.250000 0.000000 0.196329
O O4 0.317757 0.069684 0.044264
O O5 0.786912 0.800260 0.393501
O O6 0.819204 0.830749 0.621859
O O7 0.028370 0.768912 0.520028
O O8 0.031691 0.857519 0.441448
O O9 0.498973 0.642905 0.487762
O O10 0.769529 0.620488 0.358003
O O11 0.094260 0.750000 0.750000
O O12 0.287964 0.708021 0.593286
O O13 0.053226 0.666531 0.286824
#
# Coordination Sequence:
#
# PCOD9409181 Si02
#       6
#     8   8   8   8   8   8
#     4  10  20  37  60  90 116 150 190 236 292 357
#     4  10  23  41  55  81 115 156 188 242 279 324
#     4   9  20  34  60  87 126 147 177 237 295 345
#     4  11  21  37  58  82 114 150 197 226 269 339
#     4  10  22  39  60  78 115 154 192 236 293 336
#     4  10  19  37  56  90 115 153 188 226 284 340
#
# _framework density 19.861771999999998
#
# number of rings (size 3 to 8) (size 9 to 14) (size 15 to 20)
#    0.000    2.000    1.667    1.500    2.333    0.000 
#    9.000    0.833    0.000    0.000    0.000    0.000 
#    0.000    0.000    0.000    0.000    0.000    0.000 
#
# Total GULP energy -267468.731710 kJ/mol
# GULP energy per Si atom -5572.265244 kJ/mol
# Density = 1.981657 g / cm^3
# Si number density = 19.861772 Si / 1000 Ang^3
#
#
#
# Elastic Constant Matrix: (Units=GPa)
#
#
# Indices 1 2 3 4 5 6 
#
# 1 88.4875 35.2866 25.0357 0.0000 0.0000 0.0000
# 2 35.2866 98.1099 28.0257 0.0000 0.0000 0.0000
# 3 25.0357 28.0257 49.5749 0.0000 0.0000 0.0000
# 4 0.0000 0.0000 0.0000 14.6434 0.0000 0.0000
# 5 0.0000 0.0000 0.0000 0.0000 12.9404 0.0000
# 6 0.0000 0.0000 0.0000 0.0000 0.0000 24.0723
#
#
#
# Elastic Compliance Matrix: (Units=1/GPa)
#
#
# Indices 1 2 3 4 5 6 
#
# 1 0.014201 -0.003648 -0.005109 0.000000 0.000000 0.000000
# 2 -0.003648 0.013093 -0.005559 0.000000 0.000000 0.000000
# 3 -0.005109 -0.005559 0.025895 0.000000 0.000000 0.000000
# 4 0.000000 0.000000 0.000000 0.068290 0.000000 0.000000
# 5 0.000000 0.000000 0.000000 0.000000 0.077277 0.000000
# 6 0.000000 0.000000 0.000000 0.000000 0.000000 0.041541
#
#
# Mechanical properties :
#
#
# Convention : Reuss Voigt Hill
#
# Bulk Modulus (GPa) = 40.72488 45.87427 43.29957
# Shear Modulus (GPa) = 18.04295 20.18618 19.11456
#
# Velocity S-wave (km/s) = 3.01728 3.19146 3.10559
# Velocity P-wave (km/s) = 5.71728 6.06032 5.89130
#
# Compressibility (1/GPa) = 0.02455502
#
# Stress axis : x y z
#
# Youngs Moduli (GPa) = 70.41529 76.37769 38.61814
#
# Poissons Ratio (x) = 0.27864 0.19732
# Poissons Ratio (y) = 0.25689 0.21469
# Poissons Ratio (z) = 0.35978 0.42460
#
# Static dielectric constant tensor:
#      x y z
#    x 1.769980 0.000000 0.000000 
#    y 0.000000 1.691220 0.000000 
#    z 0.000000 0.000000 1.713390 
# 
# From -- ./inp_files/17050.got.cif
#   From: 2010.05.17/outbox.cif.g08.bks.cpg/sg52_9_cif.got.tgz:17050.got - 2010.06.03 12:15:38.
