data_PCOD9409650
_publ_section_title
;
Structure prediction by ZEFSAII (Michael W. Deem and Ramdas Pophale) SiO2 
 PCOD9409650
Probable space group: P N N A
;
_chemical_formula_sum "Si O2"
_cell_formula_units_Z 56
_cell_length_a 8.675698
_cell_length_b 20.328303
_cell_length_c 14.445984
_cell_angle_alpha 90.000000
_cell_angle_beta 90.000000
_cell_angle_gamma 90.000000
_cell_volume 2547.725775
_symmetry_space_group_name_H-M "P N N A"
_symmetry_group_IT_number 52
_symmetry_cell_setting 'orthorhombic'
loop_
_space_group_symop_operation_xyz
x,y,z
1/2-x,-y,z
x,1/2-y,1/2-z
1/2-x,1/2+y,1/2-z
-x,-y,-z
1/2+x,y,-z
-x,1/2+y,1/2+z
1/2+x,1/2-y,1/2+z
loop_
_atom_site_type_symbol
_atom_site_label
_atom_site_fract_x
_atom_site_fract_y
_atom_site_fract_z
Si Si1 0.799947 0.423303 0.456647
Si Si2 0.001888 0.599507 0.362227
Si Si3 0.210460 0.228058 0.394200
Si Si4 0.511532 0.157582 0.455268
Si Si5 0.988730 0.045896 0.217095
Si Si6 0.272811 0.649241 0.284463
Si Si7 0.202301 0.573185 0.904835
O O1 0.750000 0.500000 0.463273
O O2 0.654169 0.384145 0.416210
O O3 0.873870 0.407924 0.554855
O O4 0.923218 0.419431 0.374811
O O5 0.979141 0.530893 0.307617
O O6 0.087408 0.646805 0.290731
O O7 0.386988 0.205257 0.408029
O O8 0.113197 0.204142 0.479892
O O9 0.183594 0.303604 0.369456
O O10 0.162611 0.185815 0.304951
O O11 0.410439 0.107864 0.520223
O O12 0.639175 0.115544 0.398638
O O13 0.159028 0.076197 0.223390
O O14 0.887424 0.063872 0.307119
O O15 0.250000 0.500000 0.936723
#
# Coordination Sequence:
#
# PCOD9409650 Si02
#       7
#     8   8   8   8   8   8   8
#     4  10  20  35  56  88 128 160 200 251 311 381
#     4  11  22  38  62  92 130 167 210 264 322 385
#     4  10  24  44  66  87 128 170 217 266 320 371
#     4  10  23  45  68  93 129 168 221 275 315 391
#     4  11  22  38  63  95 131 167 208 265 327 388
#     4  11  23  42  64  91 126 171 218 260 318 386
#     4  11  22  40  67  99 131 167 211 272 338 390
#
# _framework density 21.980387
#
# number of rings (size 3 to 8) (size 9 to 14) (size 15 to 20)
#    0.000    1.429    1.429    5.571    4.000    2.286 
#    0.000    1.429    0.000    0.000    0.000    0.000 
#    0.000    0.000    0.000    0.000    0.000    0.000 
#
# Total GULP energy -312493.628737 kJ/mol
# GULP energy per Si atom -5580.243370 kJ/mol
# Density = 2.193036 g / cm^3
# Si number density = 21.980387 Si / 1000 Ang^3
#
#
#
# Elastic Constant Matrix: (Units=GPa)
#
#
# Indices 1 2 3 4 5 6 
#
# 1 69.9849 3.0762 9.3990 0.0000 0.0000 0.0000
# 2 3.0762 45.5435 12.0782 0.0000 0.0000 0.0000
# 3 9.3990 12.0782 69.4405 0.0000 0.0000 0.0000
# 4 0.0000 0.0000 0.0000 22.5464 0.0000 0.0000
# 5 0.0000 0.0000 0.0000 0.0000 32.9890 0.0000
# 6 0.0000 0.0000 0.0000 0.0000 0.0000 19.1906
#
#
#
# Elastic Compliance Matrix: (Units=1/GPa)
#
#
# Indices 1 2 3 4 5 6 
#
# 1 0.014563 -0.000483 -0.001887 0.000000 0.000000 0.000000
# 2 -0.000483 0.023035 -0.003941 0.000000 0.000000 0.000000
# 3 -0.001887 -0.003941 0.015342 0.000000 0.000000 0.000000
# 4 0.000000 0.000000 0.000000 0.044353 0.000000 0.000000
# 5 0.000000 0.000000 0.000000 0.000000 0.030313 0.000000
# 6 0.000000 0.000000 0.000000 0.000000 0.000000 0.052109
#
#
# Mechanical properties :
#
#
# Convention : Reuss Voigt Hill
#
# Bulk Modulus (GPa) = 24.80344 26.00842 25.40593
# Shear Modulus (GPa) = 24.29813 25.63957 24.96885
#
# Velocity S-wave (km/s) = 3.32843 3.41907 3.37406
# Velocity P-wave (km/s) = 5.10687 5.23880 5.17326
#
# Compressibility (1/GPa) = 0.04031699
#
# Stress axis : x y z
#
# Youngs Moduli (GPa) = 68.66484 43.41239 65.18152
#
# Poissons Ratio (x) = 0.02098 0.12301
# Poissons Ratio (y) = 0.03318 0.25689
# Poissons Ratio (z) = 0.12958 0.17110
#
# Static dielectric constant tensor:
#      x y z
#    x 1.834650 0.000000 0.000000 
#    y 0.000000 1.823330 0.000000 
#    z 0.000000 0.000000 1.810020 
# 
# From -- ./inp_files/24961.got.cif
#   From: 2010.05.17/outbox.cif.g08.bks.cpg/sg52_13_cif.got.tgz:24961.got - 2010.06.03 12:15:38.
