data_PCOD9409432
_publ_section_title
;
Structure prediction by ZEFSAII (Michael W. Deem and Ramdas Pophale) SiO2 
 PCOD9409432
Probable space group: P N N A
;
_chemical_formula_sum "Si O2"
_cell_formula_units_Z 28
_cell_length_a 10.798423
_cell_length_b 4.809444
_cell_length_c 26.276349
_cell_angle_alpha 90.000000
_cell_angle_beta 90.000000
_cell_angle_gamma 90.000000
_cell_volume 1364.646701
_symmetry_space_group_name_H-M "P N N A"
_symmetry_group_IT_number 52
_symmetry_cell_setting 'orthorhombic'
loop_
_space_group_symop_operation_xyz
x,y,z
1/2-x,-y,z
x,1/2-y,1/2-z
1/2-x,1/2+y,1/2-z
-x,-y,-z
1/2+x,y,-z
-x,1/2+y,1/2+z
1/2+x,1/2-y,1/2+z
loop_
_atom_site_type_symbol
_atom_site_label
_atom_site_fract_x
_atom_site_fract_y
_atom_site_fract_z
Si Si1 0.341077 0.750000 0.750000
Si Si2 0.510895 0.613387 0.080519
Si Si3 0.607397 0.101915 0.140346
Si Si4 0.664521 0.767521 0.514138
O O1 0.250000 0.500000 0.765684
O O2 0.414219 0.836762 0.800207
O O3 0.593745 0.378407 0.107147
O O4 0.393564 0.430676 0.062157
O O5 0.513062 0.867899 0.119845
O O6 0.559508 0.763642 0.028837
O O7 0.750000 0.000000 0.135476
O O8 0.750000 0.500000 0.524239
O O9 0.750000 0.000000 0.488766
#
# Coordination Sequence:
#
# PCOD9409432 Si02
#       4
#     4   8   8   8
#     4  10  20  32  50  78 110 142 174 218 278 336
#     4  11  22  34  54  78 104 148 188 219 279 334
#     4  11  20  34  53  78 111 142 177 222 273 337
#     4  11  22  36  52  76 109 143 187 236 271 321
#
# _framework density 20.518129999999999
#
# number of rings (size 3 to 8) (size 9 to 14) (size 15 to 20)
#    0.000    1.143    0.000   10.286    0.000    4.571 
#    0.000    0.000    0.000    0.000    0.000    6.000 
#    0.000    2.286    0.000    0.000    0.000    0.000 
#
# Total GULP energy -156215.283370 kJ/mol
# GULP energy per Si atom -5579.117263 kJ/mol
# Density = 2.047143 g / cm^3
# Si number density = 20.518130 Si / 1000 Ang^3
#
#
#
# Elastic Constant Matrix: (Units=GPa)
#
#
# Indices 1 2 3 4 5 6 
#
# 1 56.9071 40.5880 49.5584 0.0000 0.0000 0.0000
# 2 40.5880 165.9962 74.4344 0.0000 0.0000 0.0000
# 3 49.5584 74.4344 145.0760 0.0000 0.0000 0.0000
# 4 0.0000 0.0000 0.0000 60.2862 0.0000 0.0000
# 5 0.0000 0.0000 0.0000 0.0000 39.7672 0.0000
# 6 0.0000 0.0000 0.0000 0.0000 0.0000 47.4027
#
#
#
# Elastic Compliance Matrix: (Units=1/GPa)
#
#
# Indices 1 2 3 4 5 6 
#
# 1 0.026192 -0.003107 -0.007353 0.000000 0.000000 0.000000
# 2 -0.003107 0.008193 -0.003142 0.000000 0.000000 0.000000
# 3 -0.007353 -0.003142 0.011017 0.000000 0.000000 0.000000
# 4 0.000000 0.000000 0.000000 0.016588 0.000000 0.000000
# 5 0.000000 0.000000 0.000000 0.000000 0.025146 0.000000
# 6 0.000000 0.000000 0.000000 0.000000 0.000000 0.021096
#
#
# Mechanical properties :
#
#
# Convention : Reuss Voigt Hill
#
# Bulk Modulus (GPa) = 54.95338 77.46010 66.20674
# Shear Modulus (GPa) = 35.33508 43.05113 39.19311
#
# Velocity S-wave (km/s) = 4.15437 4.58558 4.37529
# Velocity P-wave (km/s) = 7.06064 8.11608 7.60669
#
# Compressibility (1/GPa) = 0.01819724
#
# Stress axis : x y z
#
# Youngs Moduli (GPa) = 38.17932 122.05648 90.76894
#
# Poissons Ratio (x) = 0.37923 0.66744
# Poissons Ratio (y) = 0.11862 0.28521
# Poissons Ratio (z) = 0.28074 0.38352
#
# Static dielectric constant tensor:
#      x y z
#    x 1.571060 0.000000 0.000000 
#    y 0.000000 1.016920 0.000000 
#    z 0.000000 0.000000 1.747280 
# 
# From -- ./inp_files/41951.got.cif
#   From: 2010.05.17/outbox.cif.g08.bks.cpg/sg52_21_cif.got.tgz:41951.got - 2010.06.03 12:15:38.
