data_PCOD9409555
_publ_section_title
;
Structure prediction by ZEFSAII (Michael W. Deem and Ramdas Pophale) SiO2 
 PCOD9409555
Probable space group: P N N A
;
_chemical_formula_sum "Si O2"
_cell_formula_units_Z 56
_cell_length_a 20.421988
_cell_length_b 25.323017
_cell_length_c 5.253017
_cell_angle_alpha 90.000000
_cell_angle_beta 90.000000
_cell_angle_gamma 90.000000
_cell_volume 2716.578564
_symmetry_space_group_name_H-M "P N N A"
_symmetry_group_IT_number 52
_symmetry_cell_setting 'orthorhombic'
loop_
_space_group_symop_operation_xyz
x,y,z
1/2-x,-y,z
x,1/2-y,1/2-z
1/2-x,1/2+y,1/2-z
-x,-y,-z
1/2+x,y,-z
-x,1/2+y,1/2+z
1/2+x,1/2-y,1/2+z
loop_
_atom_site_type_symbol
_atom_site_label
_atom_site_fract_x
_atom_site_fract_y
_atom_site_fract_z
Si Si1 0.434016 0.051775 0.058981
Si Si2 0.792307 0.137982 0.453623
Si Si3 0.654259 0.409275 0.964557
Si Si4 0.069532 0.104300 0.964911
Si Si5 0.000277 0.217389 0.998829
Si Si6 0.136012 0.524270 0.943294
Si Si7 0.637206 0.833623 0.951318
O O1 0.418485 0.028318 0.335068
O O2 0.399293 0.109442 0.056191
O O3 0.397913 0.021560 0.831481
O O4 0.490009 0.937285 0.990369
O O5 0.715614 0.128976 0.494430
O O6 0.823207 0.078533 0.454837
O O7 0.824572 0.169872 0.686164
O O8 0.813505 0.164223 0.188621
O O9 0.601014 0.398797 0.185153
O O10 0.674737 0.470513 0.003717
O O11 0.622658 0.403681 0.686384
O O12 0.036847 0.161590 0.000948
O O13 0.019181 0.250000 0.750000
O O14 0.922076 0.206805 0.987606
O O15 0.015856 0.250000 0.250000
#
# Coordination Sequence:
#
# PCOD9409555 Si02
#       7
#     8   8   8   8   8   8   8
#     4   9  19  35  53  78 114 146 189 246 277 307
#     4  10  20  37  56  80 117 153 191 232 265 316
#     4  12  23  35  55  81 121 163 191 216 264 342
#     4  11  24  38  55  86 116 150 187 227 294 344
#     4  11  22  41  69  90 106 133 181 240 289 347
#     4  10  20  34  55  81 109 157 206 236 262 300
#     4   9  19  36  60  84 107 138 180 236 293 317
#
# _framework density 20.614166999999998
#
# number of rings (size 3 to 8) (size 9 to 14) (size 15 to 20)
#    0.000    1.714    0.000    4.714    0.000    8.000 
#    0.000    5.714    0.000   17.143    0.000    0.000 
#    0.000    0.000    0.000    0.000    0.000    0.000 
#
# Total GULP energy -313114.856553 kJ/mol
# GULP energy per Si atom -5591.336724 kJ/mol
# Density = 2.056725 g / cm^3
# Si number density = 20.614167 Si / 1000 Ang^3
#
#
#
# Elastic Constant Matrix: (Units=GPa)
#
#
# Indices 1 2 3 4 5 6 
#
# 1 50.0439 -17.4122 -7.0509 0.0000 0.0000 0.0000
# 2 -17.4122 44.6719 0.3003 0.0000 0.0000 0.0000
# 3 -7.0509 0.3003 99.8002 0.0000 0.0000 0.0000
# 4 0.0000 0.0000 0.0000 20.3759 0.0000 0.0000
# 5 0.0000 0.0000 0.0000 0.0000 27.7211 0.0000
# 6 0.0000 0.0000 0.0000 0.0000 0.0000 30.8319
#
#
#
# Elastic Compliance Matrix: (Units=1/GPa)
#
#
# Indices 1 2 3 4 5 6 
#
# 1 0.023378 0.009101 0.001624 0.000000 0.000000 0.000000
# 2 0.009101 0.025929 0.000565 0.000000 0.000000 0.000000
# 3 0.001624 0.000565 0.010133 0.000000 0.000000 0.000000
# 4 0.000000 0.000000 0.000000 0.049077 0.000000 0.000000
# 5 0.000000 0.000000 0.000000 0.000000 0.036074 0.000000
# 6 0.000000 0.000000 0.000000 0.000000 0.000000 0.032434
#
#
# Mechanical properties :
#
#
# Convention : Reuss Voigt Hill
#
# Bulk Modulus (GPa) = 12.19193 16.24337 14.21765
# Shear Modulus (GPa) = 27.50510 30.36439 28.93475
#
# Velocity S-wave (km/s) = 3.65674 3.84211 3.75057
# Velocity P-wave (km/s) = 4.87404 5.25160 5.06633
#
# Compressibility (1/GPa) = 0.08202150
#
# Stress axis : x y z
#
# Youngs Moduli (GPa) = 42.77524 38.56662 98.68671
#
# Poissons Ratio (x) = -0.35101 -0.16030
# Poissons Ratio (y) = -0.38931 -0.05576
# Poissons Ratio (z) = -0.06948 -0.02179
#
# Static dielectric constant tensor:
#      x y z
#    x 1.709470 0.000000 0.000000 
#    y 0.000000 1.759880 0.000000 
#    z 0.000000 0.000000 1.684190 
# 
# From -- ./inp_files/4526.got.cif
#   From: 2010.05.17/outbox.cif.g08.bks.cpg/sg52_3_cif.got.tgz:4526.got - 2010.06.03 12:15:38.
