data_PCOD9409293
_publ_section_title
;
Structure prediction by ZEFSAII (Michael W. Deem and Ramdas Pophale) SiO2 
 PCOD9409293
Probable space group: P N N A
;
_chemical_formula_sum "Si O2"
_cell_formula_units_Z 60
_cell_length_a 16.265197
_cell_length_b 17.312745
_cell_length_c 9.583595
_cell_angle_alpha 90.000000
_cell_angle_beta 90.000000
_cell_angle_gamma 90.000000
_cell_volume 2698.694428
_symmetry_space_group_name_H-M "P N N A"
_symmetry_group_IT_number 52
_symmetry_cell_setting 'orthorhombic'
loop_
_space_group_symop_operation_xyz
x,y,z
1/2-x,-y,z
x,1/2-y,1/2-z
1/2-x,1/2+y,1/2-z
-x,-y,-z
1/2+x,y,-z
-x,1/2+y,1/2+z
1/2+x,1/2-y,1/2+z
loop_
_atom_site_type_symbol
_atom_site_label
_atom_site_fract_x
_atom_site_fract_y
_atom_site_fract_z
Si Si1 0.528169 0.333678 0.747835
Si Si2 0.835334 0.039182 0.891116
Si Si3 0.883345 0.521116 0.898453
Si Si4 0.077879 0.250000 0.750000
Si Si5 0.470625 0.357415 0.431090
Si Si6 0.610802 0.894957 0.383570
Si Si7 0.198330 0.121312 0.641596
Si Si8 0.900752 0.527692 0.344130
O O1 0.572496 0.250000 0.750000
O O2 0.571645 0.407608 0.819799
O O3 0.501291 0.354649 0.590625
O O4 0.448418 0.324556 0.847733
O O5 0.873000 0.125160 0.917117
O O6 0.750000 0.000000 0.936421
O O7 0.839441 0.021548 0.728637
O O8 0.894723 0.992960 0.995143
O O9 0.919250 0.448157 0.986835
O O10 0.831662 0.565062 0.017770
O O11 0.014506 0.285213 0.639145
O O12 0.139885 0.195365 0.660872
O O13 0.515553 0.423940 0.335589
O O14 0.705327 0.868600 0.385780
O O15 0.601671 0.953042 0.252290
O O16 0.175817 0.077565 0.786438
#
# Coordination Sequence:
#
# PCOD9409293 Si02
#       8
#     8   8   8   4   8   8   8   8
#     4  12  25  40  65  95 137 182 230 280 342 432
#     4  12  22  37  68  98 129 165 219 291 341 382
#     4  11  23  42  64  98 136 175 225 288 351 405
#     4  10  24  44  72  92 142 192 218 276 342 440
#     4  11  23  43  65  99 132 181 232 270 343 428
#     4  11  22  40  66 100 130 172 232 292 340 397
#     4  10  22  41  67  98 134 173 228 279 345 404
#     4  10  19  38  66  93 124 166 221 283 326 393
#
# _framework density 22.232973000000001
#
# number of rings (size 3 to 8) (size 9 to 14) (size 15 to 20)
#    0.000    1.067    2.667    5.600    0.933    3.200 
#    0.000    0.000    1.467    0.000    0.000    0.000 
#    0.000    0.000    0.000    0.000    0.000    0.000 
#
# Total GULP energy -334003.440801 kJ/mol
# GULP energy per Si atom -5566.724013 kJ/mol
# Density = 2.218237 g / cm^3
# Si number density = 22.232973 Si / 1000 Ang^3
#
#
#
# Elastic Constant Matrix: (Units=GPa)
#
#
# Indices 1 2 3 4 5 6 
#
# 1 49.4931 18.8097 24.4848 0.0000 0.0000 0.0000
# 2 18.8097 68.7143 27.8021 0.0000 0.0000 0.0000
# 3 24.4848 27.8021 127.8450 0.0000 0.0000 0.0000
# 4 0.0000 0.0000 0.0000 29.3804 0.0000 0.0000
# 5 0.0000 0.0000 0.0000 0.0000 17.9418 0.0000
# 6 0.0000 0.0000 0.0000 0.0000 0.0000 30.4409
#
#
#
# Elastic Compliance Matrix: (Units=1/GPa)
#
#
# Indices 1 2 3 4 5 6 
#
# 1 0.023865 -0.005135 -0.003454 0.000000 0.000000 0.000000
# 2 -0.005135 0.017062 -0.002727 0.000000 0.000000 0.000000
# 3 -0.003454 -0.002727 0.009076 0.000000 0.000000 0.000000
# 4 0.000000 0.000000 0.000000 0.034036 0.000000 0.000000
# 5 0.000000 0.000000 0.000000 0.000000 0.055736 0.000000
# 6 0.000000 0.000000 0.000000 0.000000 0.000000 0.032851
#
#
# Mechanical properties :
#
#
# Convention : Reuss Voigt Hill
#
# Bulk Modulus (GPa) = 36.53444 43.13841 39.83642
# Shear Modulus (GPa) = 24.46394 27.21634 25.84014
#
# Velocity S-wave (km/s) = 3.32074 3.50257 3.41287
# Velocity P-wave (km/s) = 5.58313 5.98351 5.78678
#
# Compressibility (1/GPa) = 0.02737143
#
# Stress axis : x y z
#
# Youngs Moduli (GPa) = 41.90211 58.60955 110.17497
#
# Poissons Ratio (x) = 0.30098 0.38053
# Poissons Ratio (y) = 0.21518 0.30044
# Poissons Ratio (z) = 0.14472 0.15982
#
# Static dielectric constant tensor:
#      x y z
#    x 1.949880 0.000000 0.000000 
#    y 0.000000 1.934940 0.000000 
#    z 0.000000 0.000000 1.787450 
# 
# From -- ./inp_files/12444.got.cif
#   From: 2010.05.17/outbox.cif.g08.bks.cpg/sg52_7_cif.got.tgz:12444.got - 2010.06.03 12:15:38.
