data_PCOD9409141
_publ_section_title
;
Structure prediction by ZEFSAII (Michael W. Deem and Ramdas Pophale) SiO2 
 PCOD9409141
Probable space group: P N N A
;
_chemical_formula_sum "Si O2"
_cell_formula_units_Z 40
_cell_length_a 24.181281
_cell_length_b 9.570061
_cell_length_c 7.104583
_cell_angle_alpha 90.000000
_cell_angle_beta 90.000000
_cell_angle_gamma 90.000000
_cell_volume 1644.116554
_symmetry_space_group_name_H-M "P N N A"
_symmetry_group_IT_number 52
_symmetry_cell_setting 'orthorhombic'
loop_
_space_group_symop_operation_xyz
x,y,z
1/2-x,-y,z
x,1/2-y,1/2-z
1/2-x,1/2+y,1/2-z
-x,-y,-z
1/2+x,y,-z
-x,1/2+y,1/2+z
1/2+x,1/2-y,1/2+z
loop_
_atom_site_type_symbol
_atom_site_label
_atom_site_fract_x
_atom_site_fract_y
_atom_site_fract_z
Si Si1 0.497313 0.672193 0.960864
Si Si2 0.308261 0.050501 0.466980
Si Si3 0.113884 0.718047 0.476658
Si Si4 0.624872 0.222247 0.472629
Si Si5 0.689704 0.013352 0.957788
O O1 0.496307 0.750000 0.750000
O O2 0.554009 0.733995 0.044074
O O3 0.438508 0.725482 0.038845
O O4 0.500000 0.500000 0.000000
O O5 0.353541 0.932303 0.494446
O O6 0.300967 0.062461 0.242160
O O7 0.250000 0.000000 0.542981
O O8 0.334812 0.189123 0.545822
O O9 0.110864 0.750000 0.250000
O O10 0.134036 0.563722 0.529782
O O11 0.626733 0.250000 0.250000
O O12 0.668971 0.328927 0.561340
O O13 0.750000 0.000000 0.051835
#
# Coordination Sequence:
#
# PCOD9409141 Si02
#       5
#     8   8   8   8   8
#     4  10  20  38  63  89 127 173 219 267 333 403
#     4  10  19  36  62  87 114 158 206 259 318 380
#     4   9  18  34  59  83 116 155 205 263 320 367
#     4  11  23  37  58  86 126 164 206 258 325 388
#     4  10  21  38  61  91 118 153 212 268 314 389
#
# _framework density 24.329176
#
# number of rings (size 3 to 8) (size 9 to 14) (size 15 to 20)
#    0.000    2.000    2.000    1.800    0.000    4.800 
#    0.000    1.000    0.000    0.000    0.000    0.000 
#    0.000    0.000    0.000    0.000    0.000    0.000 
#
# Total GULP energy -222876.702144 kJ/mol
# GULP energy per Si atom -5571.917554 kJ/mol
# Density = 2.427380 g / cm^3
# Si number density = 24.329176 Si / 1000 Ang^3
#
#
#
# Elastic Constant Matrix: (Units=GPa)
#
#
# Indices 1 2 3 4 5 6 
#
# 1 193.6364 10.7572 11.7370 0.0000 0.0000 0.0000
# 2 10.7572 80.6300 9.8339 0.0000 0.0000 0.0000
# 3 11.7370 9.8339 109.8947 0.0000 0.0000 0.0000
# 4 0.0000 0.0000 0.0000 31.8757 0.0000 0.0000
# 5 0.0000 0.0000 0.0000 0.0000 -20.5902 0.0000
# 6 0.0000 0.0000 0.0000 0.0000 0.0000 67.9231
#
#
#
# Elastic Compliance Matrix: (Units=1/GPa)
#
#
# Indices 1 2 3 4 5 6 
#
# 1 0.005230 -0.000637 -0.000502 0.000000 0.000000 0.000000
# 2 -0.000637 0.012617 -0.001061 0.000000 0.000000 0.000000
# 3 -0.000502 -0.001061 0.009248 0.000000 0.000000 0.000000
# 4 0.000000 0.000000 0.000000 0.031372 0.000000 0.000000
# 5 0.000000 0.000000 0.000000 0.000000 -0.048567 0.000000
# 6 0.000000 0.000000 0.000000 0.000000 0.000000 0.014723
#
#
# Mechanical properties :
#
#
# Convention : Reuss Voigt Hill
#
# Bulk Modulus (GPa) = 44.05974 49.86859 46.96416
# Shear Modulus (GPa) = 136.66303 39.29727 87.98015
#
# Velocity S-wave (km/s) = 7.50296 4.02336 6.02004
# Velocity P-wave (km/s) = 9.65445 6.49039 8.22598
#
# Compressibility (1/GPa) = 0.02269646
#
# Stress axis : x y z
#
# Youngs Moduli (GPa) = 191.20141 79.26027 108.12991
#
# Poissons Ratio (x) = 0.05046 0.05424
# Poissons Ratio (y) = 0.12172 0.11473
# Poissons Ratio (z) = 0.09591 0.08410
#
# Static dielectric constant tensor:
#      x y z
#    x 1.998780 0.000000 0.000000 
#    y 0.000000 2.082600 0.000000 
#    z 0.000000 0.000000 2.028030 
# 
# From -- ./inp_files/13960.got.cif
#   From: 2010.05.17/outbox.cif.g08.bks.cpg/sg52_7_cif.got.tgz:13960.got - 2010.06.03 12:15:38.
