data_PCOD9409051
_publ_section_title
;
Structure prediction by ZEFSAII (Michael W. Deem and Ramdas Pophale) SiO2 
 PCOD9409051
Probable space group: P N N A
;
_chemical_formula_sum "Si O2"
_cell_formula_units_Z 56
_cell_length_a 14.783951
_cell_length_b 12.591228
_cell_length_c 14.192516
_cell_angle_alpha 90.000000
_cell_angle_beta 90.000000
_cell_angle_gamma 90.000000
_cell_volume 2641.909856
_symmetry_space_group_name_H-M "P N N A"
_symmetry_group_IT_number 52
_symmetry_cell_setting 'orthorhombic'
loop_
_space_group_symop_operation_xyz
x,y,z
1/2-x,-y,z
x,1/2-y,1/2-z
1/2-x,1/2+y,1/2-z
-x,-y,-z
1/2+x,y,-z
-x,1/2+y,1/2+z
1/2+x,1/2-y,1/2+z
loop_
_atom_site_type_symbol
_atom_site_label
_atom_site_fract_x
_atom_site_fract_y
_atom_site_fract_z
Si Si1 0.517799 0.527622 0.229322
Si Si2 0.356197 0.484419 0.350763
Si Si3 0.168949 0.768847 0.038447
Si Si4 0.345342 0.864659 0.795395
Si Si5 0.146808 0.658978 0.674335
Si Si6 0.125385 0.312532 0.486176
Si Si7 0.478285 0.377906 0.972534
O O1 0.417339 0.495213 0.257637
O O2 0.586514 0.429524 0.229416
O O3 0.558800 0.588407 0.319102
O O4 0.532408 0.602178 0.139566
O O5 0.250000 0.500000 0.330872
O O6 0.365621 0.366640 0.396797
O O7 0.382477 0.580335 0.422863
O O8 0.277820 0.761492 0.047037
O O9 0.158029 0.804150 0.930696
O O10 0.106393 0.663761 0.035983
O O11 0.345069 0.750000 0.750000
O O12 0.240077 0.896455 0.796601
O O13 0.372667 0.853637 0.905334
O O14 0.136430 0.750000 0.750000
O O15 0.051794 0.217658 0.480808
O O16 0.500000 0.500000 0.000000
#
# Coordination Sequence:
#
# PCOD9409051 Si02
#       7
#     8   8   8   8   8   8   8
#     4  12  23  38  63  93 126 160 207 266 312 383
#     4  10  23  42  67  92 123 166 223 275 319 365
#     4  10  21  42  66  92 126 168 212 266 322 380
#     4  10  21  37  60  91 130 161 202 257 323 376
#     4  10  19  35  60  96 122 153 203 262 323 376
#     4  10  22  42  65  93 126 169 214 265 319 383
#     4  12  26  42  61  93 131 173 215 250 319 395
#
# _framework density 21.196787
#
# number of rings (size 3 to 8) (size 9 to 14) (size 15 to 20)
#    0.000    1.429    1.429    3.857    0.000    4.571 
#    5.143    0.000    0.000    0.000    0.000    0.000 
#    0.000    0.000    0.000    0.000    0.000    0.000 
#
# Total GULP energy -311945.801282 kJ/mol
# GULP energy per Si atom -5570.460737 kJ/mol
# Density = 2.114854 g / cm^3
# Si number density = 21.196787 Si / 1000 Ang^3
#
#
#
# Elastic Constant Matrix: (Units=GPa)
#
#
# Indices 1 2 3 4 5 6 
#
# 1 100.7476 47.7229 27.7356 0.0000 0.0000 0.0000
# 2 47.7229 98.1717 8.9685 0.0000 0.0000 0.0000
# 3 27.7356 8.9685 38.8483 0.0000 0.0000 0.0000
# 4 0.0000 0.0000 0.0000 22.4795 0.0000 0.0000
# 5 0.0000 0.0000 0.0000 0.0000 31.4877 0.0000
# 6 0.0000 0.0000 0.0000 0.0000 0.0000 32.0630
#
#
#
# Elastic Compliance Matrix: (Units=1/GPa)
#
#
# Indices 1 2 3 4 5 6 
#
# 1 0.015828 -0.006805 -0.009729 0.000000 0.000000 0.000000
# 2 -0.006805 0.013332 0.001781 0.000000 0.000000 0.000000
# 3 -0.009729 0.001781 0.032276 0.000000 0.000000 0.000000
# 4 0.000000 0.000000 0.000000 0.044485 0.000000 0.000000
# 5 0.000000 0.000000 0.000000 0.000000 0.031758 0.000000
# 6 0.000000 0.000000 0.000000 0.000000 0.000000 0.031189
#
#
# Mechanical properties :
#
#
# Convention : Reuss Voigt Hill
#
# Bulk Modulus (GPa) = 31.32002 45.18018 38.25010
# Shear Modulus (GPa) = 23.92143 27.42875 25.67509
#
# Velocity S-wave (km/s) = 3.36302 3.60113 3.48411
# Velocity P-wave (km/s) = 5.46697 6.21705 5.85404
#
# Compressibility (1/GPa) = 0.03192846
#
# Stress axis : x y z
#
# Youngs Moduli (GPa) = 63.17985 75.00892 30.98273
#
# Poissons Ratio (x) = 0.51046 0.30143
# Poissons Ratio (y) = 0.42996 -0.05518
# Poissons Ratio (z) = 0.61468 -0.13358
#
# Static dielectric constant tensor:
#      x y z
#    x 1.799720 0.000000 0.000000 
#    y 0.000000 1.794830 0.000000 
#    z 0.000000 0.000000 1.767500 
# 
# From -- ./inp_files/27253.got.cif
#   From: 2010.05.17/outbox.cif.g08.bks.cpg/sg52_14_cif.got.tgz:27253.got - 2010.06.03 12:15:38.
