data_PCOD9409566
_publ_section_title
;
Structure prediction by ZEFSAII (Michael W. Deem and Ramdas Pophale) SiO2 
 PCOD9409566
Probable space group: P N N A
;
_chemical_formula_sum "Si O2"
_cell_formula_units_Z 36
_cell_length_a 12.698030
_cell_length_b 15.441385
_cell_length_c 7.025761
_cell_angle_alpha 90.000000
_cell_angle_beta 90.000000
_cell_angle_gamma 90.000000
_cell_volume 1377.577282
_symmetry_space_group_name_H-M "P N N A"
_symmetry_group_IT_number 52
_symmetry_cell_setting 'orthorhombic'
loop_
_space_group_symop_operation_xyz
x,y,z
1/2-x,-y,z
x,1/2-y,1/2-z
1/2-x,1/2+y,1/2-z
-x,-y,-z
1/2+x,y,-z
-x,1/2+y,1/2+z
1/2+x,1/2-y,1/2+z
loop_
_atom_site_type_symbol
_atom_site_label
_atom_site_fract_x
_atom_site_fract_y
_atom_site_fract_z
Si Si1 0.870761 0.146705 0.749591
Si Si2 0.397941 0.651969 0.692322
Si Si3 0.170404 0.646345 0.700360
Si Si4 0.461741 0.932507 0.161722
Si Si5 0.750000 0.500000 0.860809
O O1 0.864655 0.250000 0.750000
O O2 0.793981 0.098662 0.603086
O O3 0.993366 0.122814 0.712413
O O4 0.839320 0.130337 0.970581
O O5 0.383229 0.750000 0.750000
O O6 0.287232 0.607406 0.738717
O O7 0.419480 0.646819 0.466937
O O8 0.163538 0.750000 0.750000
O O9 0.065207 0.598161 0.772625
O O10 0.361541 0.970507 0.267229
O O11 0.500000 0.000000 0.000000
#
# Coordination Sequence:
#
# PCOD9409566 Si02
#       5
#     8   8   8   8   4
#     4  10  21  36  57  81 115 153 184 230 284 337
#     4   9  17  32  51  76 110 144 176 226 286 327
#     4  10  20  34  56  85 110 140 189 235 279 327
#     4  11  18  32  53  81 110 139 189 232 272 328
#     4  12  20  34  56  86 110 148 194 224 276 338
#
# _framework density 26.132836000000001
#
# number of rings (size 3 to 8) (size 9 to 14) (size 15 to 20)
#    0.000    1.778    6.667    0.000    0.000    0.889 
#    0.000    0.000    0.000    8.000    0.000    0.000 
#    0.000    0.000    0.000    0.000    0.000    0.000 
#
# Total GULP energy -200457.555738 kJ/mol
# GULP energy per Si atom -5568.265437 kJ/mol
# Density = 2.607336 g / cm^3
# Si number density = 26.132836 Si / 1000 Ang^3
#
#
#
# Elastic Constant Matrix: (Units=GPa)
#
#
# Indices 1 2 3 4 5 6 
#
# 1 272.0746 51.0259 35.5983 0.0000 0.0000 0.0000
# 2 51.0259 89.8505 -13.5430 0.0000 0.0000 0.0000
# 3 35.5983 -13.5430 70.1225 0.0000 0.0000 0.0000
# 4 0.0000 0.0000 0.0000 18.3362 0.0000 0.0000
# 5 0.0000 0.0000 0.0000 0.0000 26.4075 0.0000
# 6 0.0000 0.0000 0.0000 0.0000 0.0000 50.8311
#
#
#
# Elastic Compliance Matrix: (Units=1/GPa)
#
#
# Indices 1 2 3 4 5 6 
#
# 1 0.004639 -0.003079 -0.002950 0.000000 0.000000 0.000000
# 2 -0.003079 0.013507 0.004172 0.000000 0.000000 0.000000
# 3 -0.002950 0.004172 0.016564 0.000000 0.000000 0.000000
# 4 0.000000 0.000000 0.000000 0.054537 0.000000 0.000000
# 5 0.000000 0.000000 0.000000 0.000000 0.037868 0.000000
# 6 0.000000 0.000000 0.000000 0.000000 0.000000 0.019673
#
#
# Mechanical properties :
#
#
# Convention : Reuss Voigt Hill
#
# Bulk Modulus (GPa) = 32.26234 64.24554 48.25394
# Shear Modulus (GPa) = 31.08810 43.04604 37.06707
#
# Velocity S-wave (km/s) = 3.45283 4.06298 3.77026
# Velocity P-wave (km/s) = 5.31680 6.82993 6.12031
#
# Compressibility (1/GPa) = 0.03099589
#
# Stress axis : x y z
#
# Youngs Moduli (GPa) = 215.57166 74.03609 60.37245
#
# Poissons Ratio (x) = 0.22795 0.17807
# Poissons Ratio (y) = 0.66374 -0.25186
# Poissons Ratio (z) = 0.63585 -0.30886
#
# Static dielectric constant tensor:
#      x y z
#    x 2.078550 0.000000 0.000000 
#    y 0.000000 2.247250 0.000000 
#    z 0.000000 0.000000 2.131500 
# 
# From -- ./inp_files/18112.got.cif
#   From: 2010.05.17/outbox.cif.g08.bks.cpg/sg52_10_cif.got.tgz:18112.got - 2010.06.03 12:15:38.
