data_PCOD9409673
_publ_section_title
;
Structure prediction by ZEFSAII (Michael W. Deem and Ramdas Pophale) SiO2 
 PCOD9409673
Probable space group: P N N A
;
_chemical_formula_sum "Si O2"
_cell_formula_units_Z 32
_cell_length_a 17.788719
_cell_length_b 9.404626
_cell_length_c 8.385495
_cell_angle_alpha 90.000000
_cell_angle_beta 90.000000
_cell_angle_gamma 90.000000
_cell_volume 1402.861861
_symmetry_space_group_name_H-M "P N N A"
_symmetry_group_IT_number 52
_symmetry_cell_setting 'orthorhombic'
loop_
_space_group_symop_operation_xyz
x,y,z
1/2-x,-y,z
x,1/2-y,1/2-z
1/2-x,1/2+y,1/2-z
-x,-y,-z
1/2+x,y,-z
-x,1/2+y,1/2+z
1/2+x,1/2-y,1/2+z
loop_
_atom_site_type_symbol
_atom_site_label
_atom_site_fract_x
_atom_site_fract_y
_atom_site_fract_z
Si Si1 0.127498 0.830290 0.418286
Si Si2 0.140481 0.082616 0.230813
Si Si3 0.969004 0.089168 0.306063
Si Si4 0.672394 0.551470 0.395318
O O1 0.113456 0.750000 0.250000
O O2 0.053113 0.887830 0.509151
O O3 0.166512 0.715697 0.538464
O O4 0.170559 0.972792 0.363872
O O5 0.154424 0.250000 0.250000
O O6 0.050959 0.049694 0.242744
O O7 0.166933 0.038722 0.057137
O O8 0.964934 0.250000 0.250000
O O9 0.898925 0.016533 0.216504
O O10 0.750000 0.500000 0.317021
#
# Coordination Sequence:
#
# PCOD9409673 Si02
#       4
#     8   8   8   8
#     4   9  19  37  61  83 115 156 195 246 306 357
#     4  10  20  35  58  88 117 155 204 251 299 358
#     4   9  18  36  60  86 116 154 203 255 304 357
#     4  10  21  38  58  83 118 161 201 246 305 368
#
# _framework density 22.810513
#
# number of rings (size 3 to 8) (size 9 to 14) (size 15 to 20)
#    0.000    2.500    0.000    1.500    0.000    5.000 
#    0.000   13.750    0.000    0.000    0.000    0.000 
#    0.000    0.000    0.000    0.000    0.000    0.000 
#
# Total GULP energy -178152.235032 kJ/mol
# GULP energy per Si atom -5567.257345 kJ/mol
# Density = 2.275860 g / cm^3
# Si number density = 22.810513 Si / 1000 Ang^3
#
#
#
# Elastic Constant Matrix: (Units=GPa)
#
#
# Indices 1 2 3 4 5 6 
#
# 1 118.5553 24.3734 10.0464 0.0000 0.0000 0.0000
# 2 24.3734 123.0782 -1.2658 0.0000 0.0000 0.0000
# 3 10.0464 -1.2658 51.7442 0.0000 0.0000 0.0000
# 4 0.0000 0.0000 0.0000 -10.5851 0.0000 0.0000
# 5 0.0000 0.0000 0.0000 0.0000 -13.7125 0.0000
# 6 0.0000 0.0000 0.0000 0.0000 0.0000 -77.6589
#
#
#
# Elastic Compliance Matrix: (Units=1/GPa)
#
#
# Indices 1 2 3 4 5 6 
#
# 1 0.008954 -0.001792 -0.001782 0.000000 0.000000 0.000000
# 2 -0.001792 0.008485 0.000555 0.000000 0.000000 0.000000
# 3 -0.001782 0.000555 0.019685 0.000000 0.000000 0.000000
# 4 0.000000 0.000000 0.000000 -0.094472 0.000000 0.000000
# 5 0.000000 0.000000 0.000000 0.000000 -0.072926 0.000000
# 6 0.000000 0.000000 0.000000 0.000000 0.000000 -0.012877
#
#
# Mechanical properties :
#
#
# Convention : Reuss Voigt Hill
#
# Bulk Modulus (GPa) = 32.16658 39.96510 36.06584
# Shear Modulus (GPa) = -39.44766 -3.04308 -21.24537
#
# Velocity S-wave (km/s) = -4.16307 -1.15627 -3.05517
# Velocity P-wave (km/s) = 2.99599 3.97189 1.84390
#
# Compressibility (1/GPa) = 0.03108817
#
# Stress axis : x y z
#
# Youngs Moduli (GPa) = 111.67896 117.84932 50.79884
#
# Poissons Ratio (x) = 0.21113 0.09054
# Poissons Ratio (y) = 0.20008 -0.02821
# Poissons Ratio (z) = 0.19905 -0.06545
#
# Static dielectric constant tensor:
#      x y z
#    x 1.983440 0.000000 0.000000 
#    y 0.000000 1.899370 0.000000 
#    z 0.000000 0.000000 1.956120 
# 
# From -- ./inp_files/12769.got.cif
#   From: 2010.05.17/outbox.cif.g08.bks.cpg/sg52_7_cif.got.tgz:12769.got - 2010.06.03 12:15:38.
