data_PCOD9409782
_publ_section_title
;
Structure prediction by ZEFSAII (Michael W. Deem and Ramdas Pophale) SiO2 
 PCOD9409782
Probable space group: P N N A
;
_chemical_formula_sum "Si O2"
_cell_formula_units_Z 32
_cell_length_a 17.599255
_cell_length_b 14.185156
_cell_length_c 6.675181
_cell_angle_alpha 90.000000
_cell_angle_beta 90.000000
_cell_angle_gamma 90.000000
_cell_volume 1666.446772
_symmetry_space_group_name_H-M "P N N A"
_symmetry_group_IT_number 52
_symmetry_cell_setting 'orthorhombic'
loop_
_space_group_symop_operation_xyz
x,y,z
1/2-x,-y,z
x,1/2-y,1/2-z
1/2-x,1/2+y,1/2-z
-x,-y,-z
1/2+x,y,-z
-x,1/2+y,1/2+z
1/2+x,1/2-y,1/2+z
loop_
_atom_site_type_symbol
_atom_site_label
_atom_site_fract_x
_atom_site_fract_y
_atom_site_fract_z
Si Si1 0.156449 0.148727 0.142546
Si Si2 0.917045 0.984954 0.586994
Si Si3 0.293339 0.598146 0.783705
Si Si4 0.305609 0.152500 0.361469
O O1 0.146121 0.250000 0.250000
O O2 0.089959 0.079670 0.214907
O O3 0.236089 0.110061 0.232239
O O4 0.171514 0.150044 0.907274
O O5 0.863233 0.932249 0.425691
O O6 0.876667 0.084137 0.630696
O O7 0.000000 0.000000 0.500000
O O8 0.250000 0.500000 0.727953
O O9 0.232687 0.656751 0.917598
O O10 0.323240 0.250000 0.250000
#
# Coordination Sequence:
#
# PCOD9409782 Si02
#       4
#     8   8   8   8
#     4  10  20  36  60  85 114 152 204 254 293 342
#     4  10  21  37  56  85 123 157 194 236 304 369
#     4   9  18  36  62  84 113 155 200 248 299 346
#     4   9  19  35  58  88 114 148 203 252 291 348
#
# _framework density 19.202534
#
# number of rings (size 3 to 8) (size 9 to 14) (size 15 to 20)
#    0.000    2.500    0.000    3.750    0.000   10.000 
#    4.500    0.000   11.000    0.000    0.000    0.000 
#    0.000    0.000    0.000    0.000    0.000    0.000 
#
# Total GULP energy -178390.654561 kJ/mol
# GULP energy per Si atom -5574.707955 kJ/mol
# Density = 1.915883 g / cm^3
# Si number density = 19.202534 Si / 1000 Ang^3
#
#
#
# Elastic Constant Matrix: (Units=GPa)
#
#
# Indices 1 2 3 4 5 6 
#
# 1 103.9510 57.9729 18.3760 0.0000 0.0000 0.0000
# 2 57.9729 139.6455 71.7900 0.0000 0.0000 0.0000
# 3 18.3760 71.7900 124.1334 0.0000 0.0000 0.0000
# 4 0.0000 0.0000 0.0000 35.7347 0.0000 0.0000
# 5 0.0000 0.0000 0.0000 0.0000 21.6819 0.0000
# 6 0.0000 0.0000 0.0000 0.0000 0.0000 16.3147
#
#
#
# Elastic Compliance Matrix: (Units=1/GPa)
#
#
# Indices 1 2 3 4 5 6 
#
# 1 0.012757 -0.006155 0.001671 0.000000 0.000000 0.000000
# 2 -0.006155 0.013161 -0.006700 0.000000 0.000000 0.000000
# 3 0.001671 -0.006700 0.011683 0.000000 0.000000 0.000000
# 4 0.000000 0.000000 0.000000 0.027984 0.000000 0.000000
# 5 0.000000 0.000000 0.000000 0.000000 0.046121 0.000000
# 6 0.000000 0.000000 0.000000 0.000000 0.000000 0.061294
#
#
# Mechanical properties :
#
#
# Convention : Reuss Voigt Hill
#
# Bulk Modulus (GPa) = 65.64631 73.77863 69.71247
# Shear Modulus (GPa) = 24.94428 29.38567 27.16498
#
# Velocity S-wave (km/s) = 3.60809 3.91615 3.76527
# Velocity P-wave (km/s) = 7.18458 7.67809 7.43543
#
# Compressibility (1/GPa) = 0.01523315
#
# Stress axis : x y z
#
# Youngs Moduli (GPa) = 78.38700 75.98379 85.59240
#
# Poissons Ratio (x) = 0.46770 -0.14305
# Poissons Ratio (y) = 0.48249 0.57347
# Poissons Ratio (z) = -0.13100 0.50909
#
# Static dielectric constant tensor:
#      x y z
#    x 1.630880 0.000000 0.000000 
#    y 0.000000 1.735090 0.000000 
#    z 0.000000 0.000000 1.734960 
# 
# From -- ./inp_files/1926.got.cif
#   From: 2010.05.17/outbox.cif.g08.bks.cpg/sg52_1_cif.got.tgz:1926.got - 2010.06.03 12:15:38.
