data_PCOD9409440
_publ_section_title
;
Structure prediction by ZEFSAII (Michael W. Deem and Ramdas Pophale) SiO2 
 PCOD9409440
Probable space group: P N N A
;
_chemical_formula_sum "Si O2"
_cell_formula_units_Z 48
_cell_length_a 9.683291
_cell_length_b 17.644750
_cell_length_c 14.081594
_cell_angle_alpha 90.000000
_cell_angle_beta 90.000000
_cell_angle_gamma 90.000000
_cell_volume 2405.970574
_symmetry_space_group_name_H-M "P N N A"
_symmetry_group_IT_number 52
_symmetry_cell_setting 'orthorhombic'
loop_
_space_group_symop_operation_xyz
x,y,z
1/2-x,-y,z
x,1/2-y,1/2-z
1/2-x,1/2+y,1/2-z
-x,-y,-z
1/2+x,y,-z
-x,1/2+y,1/2+z
1/2+x,1/2-y,1/2+z
loop_
_atom_site_type_symbol
_atom_site_label
_atom_site_fract_x
_atom_site_fract_y
_atom_site_fract_z
Si Si1 0.235049 0.260924 0.432102
Si Si2 0.275561 0.827626 0.619521
Si Si3 0.530955 0.162853 0.682252
Si Si4 0.428192 0.176394 0.310103
Si Si5 0.131394 0.049449 0.474863
Si Si6 0.237959 0.410867 0.322681
O O1 0.204854 0.240024 0.541512
O O2 0.360653 0.201205 0.409899
O O3 0.263565 0.349126 0.407586
O O4 0.117058 0.236227 0.355117
O O5 0.132199 0.822677 0.676106
O O6 0.409333 0.829254 0.685525
O O7 0.293636 0.906093 0.560549
O O8 0.568918 0.109736 0.594855
O O9 0.595501 0.117143 0.771510
O O10 0.389415 0.250000 0.250000
O O11 0.353195 0.107829 0.257948
O O12 0.250000 0.000000 0.427423
O O13 0.000000 0.000000 0.500000
O O14 0.250000 0.500000 0.347249
#
# Coordination Sequence:
#
# PCOD9409440 Si02
#       6
#     8   8   8   8   8   8
#     4   9  19  37  55  79 109 152 197 222 274 350
#     4  11  21  33  56  81 113 146 183 237 281 336
#     4  10  20  32  53  82 108 148 184 234 284 340
#     4   9  20  36  55  79 108 144 181 229 286 335
#     4  11  21  31  45  78 119 148 174 218 286 350
#     4  10  21  37  59  81 113 152 191 235 284 346
#
# _framework density 19.950368000000001
#
# number of rings (size 3 to 8) (size 9 to 14) (size 15 to 20)
#    0.000    2.000    1.667    4.000    7.000    1.333 
#    0.000    0.000    0.000    9.000    0.000    0.000 
#    0.000    0.000    0.000    0.000    0.000    0.000 
#
# Total GULP energy -267344.300879 kJ/mol
# GULP energy per Si atom -5569.672935 kJ/mol
# Density = 1.990496 g / cm^3
# Si number density = 19.950368 Si / 1000 Ang^3
#
#
#
# Elastic Constant Matrix: (Units=GPa)
#
#
# Indices 1 2 3 4 5 6 
#
# 1 156.7927 31.0919 13.2195 0.0000 0.0000 0.0000
# 2 31.0919 144.9202 21.8608 0.0000 0.0000 0.0000
# 3 13.2195 21.8608 30.9358 0.0000 0.0000 0.0000
# 4 0.0000 0.0000 0.0000 19.1583 0.0000 0.0000
# 5 0.0000 0.0000 0.0000 0.0000 9.0102 0.0000
# 6 0.0000 0.0000 0.0000 0.0000 0.0000 21.2049
#
#
#
# Elastic Compliance Matrix: (Units=1/GPa)
#
#
# Indices 1 2 3 4 5 6 
#
# 1 0.006780 -0.001139 -0.002092 0.000000 0.000000 0.000000
# 2 -0.001139 0.007915 -0.005106 0.000000 0.000000 0.000000
# 3 -0.002092 -0.005106 0.036828 0.000000 0.000000 0.000000
# 4 0.000000 0.000000 0.000000 0.052197 0.000000 0.000000
# 5 0.000000 0.000000 0.000000 0.000000 0.110986 0.000000
# 6 0.000000 0.000000 0.000000 0.000000 0.000000 0.047159
#
#
# Mechanical properties :
#
#
# Convention : Reuss Voigt Hill
#
# Bulk Modulus (GPa) = 28.69685 51.66591 40.18138
# Shear Modulus (GPa) = 17.23215 27.63977 22.43596
#
# Velocity S-wave (km/s) = 2.94215 3.72617 3.35713
# Velocity P-wave (km/s) = 5.09480 6.66828 5.93392
#
# Compressibility (1/GPa) = 0.03484704
#
# Stress axis : x y z
#
# Youngs Moduli (GPa) = 147.48979 126.34230 27.15356
#
# Poissons Ratio (x) = 0.14391 0.05682
# Poissons Ratio (y) = 0.16799 0.13866
# Poissons Ratio (z) = 0.30861 0.64516
#
# Static dielectric constant tensor:
#      x y z
#    x 1.632300 0.000000 0.000000 
#    y 0.000000 1.785850 0.000000 
#    z 0.000000 0.000000 1.882880 
# 
# From -- ./inp_files/24704.got.cif
#   From: 2010.05.17/outbox.cif.g08.bks.cpg/sg52_13_cif.got.tgz:24704.got - 2010.06.03 12:15:38.
