data_PCOD9409488
_publ_section_title
;
Structure prediction by ZEFSAII (Michael W. Deem and Ramdas Pophale) SiO2 
 PCOD9409488
Probable space group: P N N A
;
_chemical_formula_sum "Si O2"
_cell_formula_units_Z 40
_cell_length_a 11.836890
_cell_length_b 17.205923
_cell_length_c 7.357438
_cell_angle_alpha 90.000000
_cell_angle_beta 90.000000
_cell_angle_gamma 90.000000
_cell_volume 1498.449799
_symmetry_space_group_name_H-M "P N N A"
_symmetry_group_IT_number 52
_symmetry_cell_setting 'orthorhombic'
loop_
_space_group_symop_operation_xyz
x,y,z
1/2-x,-y,z
x,1/2-y,1/2-z
1/2-x,1/2+y,1/2-z
-x,-y,-z
1/2+x,y,-z
-x,1/2+y,1/2+z
1/2+x,1/2-y,1/2+z
loop_
_atom_site_type_symbol
_atom_site_label
_atom_site_fract_x
_atom_site_fract_y
_atom_site_fract_z
Si Si1 0.503180 0.902136 0.649582
Si Si2 0.642561 0.459207 0.665590
Si Si3 0.465736 0.156325 0.769903
Si Si4 0.777243 0.834507 0.268607
Si Si5 0.788082 0.173333 0.671518
O O1 0.511808 0.883292 0.431716
O O2 0.374114 0.897625 0.710958
O O3 0.584117 0.836384 0.734605
O O4 0.566778 0.978613 0.723950
O O5 0.750000 0.500000 0.560080
O O6 0.550241 0.394309 0.600159
O O7 0.718156 0.403357 0.790104
O O8 0.485027 0.250000 0.750000
O O9 0.336074 0.146975 0.843961
O O10 0.834103 0.750000 0.250000
O O11 0.715784 0.820031 0.458577
O O12 0.734005 0.250000 0.750000
#
# Coordination Sequence:
#
# PCOD9409488 Si02
#       5
#     8   8   8   8   8
#     4  10  20  34  54  84 112 143 190 239 284 335
#     4  10  20  33  54  86 112 144 188 242 282 331
#     4  10  20  34  53  82 116 145 183 233 294 339
#     4  10  21  34  53  83 112 145 184 233 287 334
#     4  10  20  35  57  82 109 150 191 233 280 338
#
# _framework density 26.694255999999999
#
# number of rings (size 3 to 8) (size 9 to 14) (size 15 to 20)
#    0.000    2.000    2.000    1.800    0.000    0.800 
#    0.000    0.000    0.000    1.200   31.200    0.000 
#    0.000    0.000    0.000    0.000    0.000    0.000 
#
# Total GULP energy -222696.397052 kJ/mol
# GULP energy per Si atom -5567.409926 kJ/mol
# Density = 2.663350 g / cm^3
# Si number density = 26.694256 Si / 1000 Ang^3
#
#
#
# Elastic Constant Matrix: (Units=GPa)
#
#
# Indices 1 2 3 4 5 6 
#
# 1 236.1907 80.5923 10.4552 0.0000 0.0000 0.0000
# 2 80.5923 169.0126 13.3849 0.0000 0.0000 0.0000
# 3 10.4552 13.3849 57.2607 0.0000 0.0000 0.0000
# 4 0.0000 0.0000 0.0000 18.9192 0.0000 0.0000
# 5 0.0000 0.0000 0.0000 0.0000 123.2005 0.0000
# 6 0.0000 0.0000 0.0000 0.0000 0.0000 57.6474
#
#
#
# Elastic Compliance Matrix: (Units=1/GPa)
#
#
# Indices 1 2 3 4 5 6 
#
# 1 0.005064 -0.002386 -0.000367 0.000000 0.000000 0.000000
# 2 -0.002386 0.007152 -0.001236 0.000000 0.000000 0.000000
# 3 -0.000367 -0.001236 0.017820 0.000000 0.000000 0.000000
# 4 0.000000 0.000000 0.000000 0.052856 0.000000 0.000000
# 5 0.000000 0.000000 0.000000 0.000000 0.008117 0.000000
# 6 0.000000 0.000000 0.000000 0.000000 0.000000 0.017347
#
#
# Mechanical properties :
#
#
# Convention : Reuss Voigt Hill
#
# Bulk Modulus (GPa) = 45.33418 74.59208 59.96313
# Shear Modulus (GPa) = 40.42453 63.82219 52.12336
#
# Velocity S-wave (km/s) = 3.89569 4.89495 4.42362
# Velocity P-wave (km/s) = 6.10367 7.74281 6.97158
#
# Compressibility (1/GPa) = 0.02205841
#
# Stress axis : x y z
#
# Youngs Moduli (GPa) = 197.46578 139.81623 56.11686
#
# Poissons Ratio (x) = 0.33357 0.02059
# Poissons Ratio (y) = 0.47110 0.06937
# Poissons Ratio (z) = 0.07247 0.17285
#
# Static dielectric constant tensor:
#      x y z
#    x 2.179330 0.000000 0.000000 
#    y 0.000000 2.833470 0.000000 
#    z 0.000000 0.000000 4.251470 
# 
# From -- ./inp_files/18013.got.cif
#   From: 2010.05.17/outbox.cif.g08.bks.cpg/sg52_10_cif.got.tgz:18013.got - 2010.06.03 12:15:38.
