data_PCOD9410634
_publ_section_title
;
Structure prediction by ZEFSAII (Michael W. Deem and Ramdas Pophale) SiO2 
 PCOD9410634
Probable space group: P N N A
;
_chemical_formula_sum "Si O2"
_cell_formula_units_Z 48
_cell_length_a 25.697530
_cell_length_b 11.169828
_cell_length_c 8.585933
_cell_angle_alpha 90.000000
_cell_angle_beta 90.000000
_cell_angle_gamma 90.000000
_cell_volume 2464.480366
_symmetry_space_group_name_H-M "P N N A"
_symmetry_group_IT_number 52
_symmetry_cell_setting 'orthorhombic'
loop_
_space_group_symop_operation_xyz
x,y,z
1/2-x,-y,z
x,1/2-y,1/2-z
1/2-x,1/2+y,1/2-z
-x,-y,-z
1/2+x,y,-z
-x,1/2+y,1/2+z
1/2+x,1/2-y,1/2+z
loop_
_atom_site_type_symbol
_atom_site_label
_atom_site_fract_x
_atom_site_fract_y
_atom_site_fract_z
Si Si1 0.581948 0.328297 0.089435
Si Si2 0.810490 0.135838 0.366308
Si Si3 0.505253 0.978833 0.740321
Si Si4 0.806361 0.867358 0.359935
Si Si5 0.995126 0.188859 0.048868
Si Si6 0.904857 0.336650 0.899430
O O1 0.584719 0.250000 0.250000
O O2 0.542911 0.435029 0.136381
O O3 0.640624 0.356406 0.042472
O O4 0.549727 0.255711 0.963911
O O5 0.817514 0.250000 0.250000
O O6 0.751271 0.139202 0.431929
O O7 0.853181 0.139155 0.502358
O O8 0.812739 0.002262 0.287414
O O9 0.561031 0.948300 0.664974
O O10 0.494182 0.111132 0.797386
O O11 0.504456 0.897462 0.896152
O O12 0.806472 0.750000 0.250000
O O13 0.945346 0.269524 0.013802
O O14 0.894929 0.250000 0.750000
#
# Coordination Sequence:
#
# PCOD9410634 Si02
#       6
#     8   8   8   8   8   8
#     4   8  14  26  48  75 105 142 184 230 280 330
#     4  10  21  36  60  86 109 145 201 250 288 335
#     4   8  14  26  48  80 113 151 184 224 283 345
#     4   9  19  37  58  78 110 149 197 244 290 332
#     4   8  14  26  48  79 113 150 187 219 279 355
#     4   9  18  33  54  83 118 152 187 234 295 350
#
# _framework density 19.476723
#
# number of rings (size 3 to 8) (size 9 to 14) (size 15 to 20)
#    0.000    3.333    0.000    2.000    2.333    0.000 
#    3.000    3.333    7.333    0.000    0.000    0.000 
#    0.000    0.000    0.000    0.000    0.000    0.000 
#
# Total GULP energy -267236.640624 kJ/mol
# GULP energy per Si atom -5567.430013 kJ/mol
# Density = 1.943239 g / cm^3
# Si number density = 19.476723 Si / 1000 Ang^3
#
#
#
# Elastic Constant Matrix: (Units=GPa)
#
#
# Indices 1 2 3 4 5 6 
#
# 1 178.5554 45.1926 41.2838 0.0000 0.0000 0.0000
# 2 45.1926 113.3497 37.8334 0.0000 0.0000 0.0000
# 3 41.2838 37.8334 68.1581 0.0000 0.0000 0.0000
# 4 0.0000 0.0000 0.0000 31.1014 0.0000 0.0000
# 5 0.0000 0.0000 0.0000 0.0000 11.8900 0.0000
# 6 0.0000 0.0000 0.0000 0.0000 0.0000 5.2589
#
#
#
# Elastic Compliance Matrix: (Units=1/GPa)
#
#
# Indices 1 2 3 4 5 6 
#
# 1 0.006749 -0.001628 -0.003184 0.000000 0.000000 0.000000
# 2 -0.001628 0.011221 -0.005243 0.000000 0.000000 0.000000
# 3 -0.003184 -0.005243 0.019511 0.000000 0.000000 0.000000
# 4 0.000000 0.000000 0.000000 0.032153 0.000000 0.000000
# 5 0.000000 0.000000 0.000000 0.000000 0.084104 0.000000
# 6 0.000000 0.000000 0.000000 0.000000 0.000000 0.190155
#
#
# Mechanical properties :
#
#
# Convention : Reuss Voigt Hill
#
# Bulk Modulus (GPa) = 57.56702 67.63142 62.59922
# Shear Modulus (GPa) = 13.52110 25.36694 19.44402
#
# Velocity S-wave (km/s) = 2.63766 3.61283 3.16305
# Velocity P-wave (km/s) = 6.23677 7.22516 6.74908
#
# Compressibility (1/GPa) = 0.01737106
#
# Stress axis : x y z
#
# Youngs Moduli (GPa) = 148.17582 89.11721 51.25443
#
# Poissons Ratio (x) = 0.14508 0.16320
# Poissons Ratio (y) = 0.24122 0.26871
# Poissons Ratio (z) = 0.47181 0.46721
#
# Static dielectric constant tensor:
#      x y z
#    x 1.668650 0.000000 0.000000 
#    y 0.000000 1.819850 0.000000 
#    z 0.000000 0.000000 1.668890 
# 
# From -- ./inp_files/14286.got.cif
#   From: 2010.05.17/outbox.cif.g08.bks.cpg/sg52_8_cif.got.tgz:14286.got - 2010.06.03 12:15:38.
