data_PCOD9410769
_publ_section_title
;
Structure prediction by ZEFSAII (Michael W. Deem and Ramdas Pophale) SiO2 
 PCOD9410769
Probable space group: P N N A
;
_chemical_formula_sum "Si O2"
_cell_formula_units_Z 24
_cell_length_a 5.311833
_cell_length_b 7.311738
_cell_length_c 25.691376
_cell_angle_alpha 90.000000
_cell_angle_beta 90.000000
_cell_angle_gamma 90.000000
_cell_volume 997.820447
_symmetry_space_group_name_H-M "P N N A"
_symmetry_group_IT_number 52
_symmetry_cell_setting 'orthorhombic'
loop_
_space_group_symop_operation_xyz
x,y,z
1/2-x,-y,z
x,1/2-y,1/2-z
1/2-x,1/2+y,1/2-z
-x,-y,-z
1/2+x,y,-z
-x,1/2+y,1/2+z
1/2+x,1/2-y,1/2+z
loop_
_atom_site_type_symbol
_atom_site_label
_atom_site_fract_x
_atom_site_fract_y
_atom_site_fract_z
Si Si1 0.239059 0.782592 0.810338
Si Si2 0.547696 0.706312 0.979746
Si Si3 0.238206 0.722239 0.364986
O O1 0.182238 0.750000 0.750000
O O2 0.516713 0.716565 0.825888
O O3 0.011866 0.711967 0.846326
O O4 0.250000 0.000000 0.818151
O O5 0.653512 0.714245 0.921781
O O6 0.500000 0.500000 0.000000
O O7 0.269834 0.790648 0.985025
O O8 0.250000 0.500000 0.365963
#
# Coordination Sequence:
#
# PCOD9410769 Si02
#       3
#     8   8   8
#     4  10  21  40  60  90 120 155 206 255 305 372
#     4  10  21  38  56  84 123 153 202 249 296 363
#     4  10  21  38  62  84 120 164 202 247 311 367
#
# _framework density 24.052422
#
# number of rings (size 3 to 8) (size 9 to 14) (size 15 to 20)
#    0.000    2.000    0.000    3.000    0.000    1.333 
#   18.000    0.000    0.000    0.000    0.000    0.000 
#    0.000    0.000    0.000    0.000    0.000    0.000 
#
# Total GULP energy -134201.840535 kJ/mol
# GULP energy per Si atom -5591.743356 kJ/mol
# Density = 2.399768 g / cm^3
# Si number density = 24.052422 Si / 1000 Ang^3
#
#
#
# Elastic Constant Matrix: (Units=GPa)
#
#
# Indices 1 2 3 4 5 6 
#
# 1 211.7859 17.5221 59.9127 0.0000 0.0000 0.0000
# 2 17.5221 94.3576 -5.4829 0.0000 0.0000 0.0000
# 3 59.9127 -5.4829 137.1383 0.0000 0.0000 0.0000
# 4 0.0000 0.0000 0.0000 22.8739 0.0000 0.0000
# 5 0.0000 0.0000 0.0000 0.0000 50.6940 0.0000
# 6 0.0000 0.0000 0.0000 0.0000 0.0000 -13.1191
#
#
#
# Elastic Compliance Matrix: (Units=1/GPa)
#
#
# Indices 1 2 3 4 5 6 
#
# 1 0.005513 -0.001166 -0.002455 0.000000 0.000000 0.000000
# 2 -0.001166 0.010869 0.000944 0.000000 0.000000 0.000000
# 3 -0.002455 0.000944 0.008402 0.000000 0.000000 0.000000
# 4 0.000000 0.000000 0.000000 0.043718 0.000000 0.000000
# 5 0.000000 0.000000 0.000000 0.000000 0.019726 0.000000
# 6 0.000000 0.000000 0.000000 0.000000 0.000000 -0.076225
#
#
# Mechanical properties :
#
#
# Convention : Reuss Voigt Hill
#
# Bulk Modulus (GPa) = 51.46719 65.24284 58.35502
# Shear Modulus (GPa) = 209.77377 36.84508 123.30942
#
# Velocity S-wave (km/s) = 9.34904 3.91815 7.16786
# Velocity P-wave (km/s) = 11.74665 6.90314 9.63424
#
# Compressibility (1/GPa) = 0.01942985
#
# Stress axis : x y z
#
# Youngs Moduli (GPa) = 181.39730 92.00111 119.01633
#
# Poissons Ratio (x) = 0.10731 0.29219
# Poissons Ratio (y) = 0.21158 -0.11237
# Poissons Ratio (z) = 0.44534 -0.08686
#
# Static dielectric constant tensor:
#      x y z
#    x 2.110000 0.000000 0.000000 
#    y 0.000000 2.212540 0.000000 
#    z 0.000000 0.000000 1.852240 
# 
# From -- ./inp_files/38434.got.cif
#   From: 2010.05.17/outbox.cif.g08.bks.cpg/sg52_20_cif.got.tgz:38434.got - 2010.06.03 12:15:38.
