data_PCOD9410428
_publ_section_title
;
Structure prediction by ZEFSAII (Michael W. Deem and Ramdas Pophale) SiO2 
 PCOD9410428
Probable space group: P N N A
;
_chemical_formula_sum "Si O2"
_cell_formula_units_Z 28
_cell_length_a 9.999379
_cell_length_b 10.236491
_cell_length_c 14.590297
_cell_angle_alpha 90.000000
_cell_angle_beta 90.000000
_cell_angle_gamma 90.000000
_cell_volume 1493.441691
_symmetry_space_group_name_H-M "P N N A"
_symmetry_group_IT_number 52
_symmetry_cell_setting 'orthorhombic'
loop_
_space_group_symop_operation_xyz
x,y,z
1/2-x,-y,z
x,1/2-y,1/2-z
1/2-x,1/2+y,1/2-z
-x,-y,-z
1/2+x,y,-z
-x,1/2+y,1/2+z
1/2+x,1/2-y,1/2+z
loop_
_atom_site_type_symbol
_atom_site_label
_atom_site_fract_x
_atom_site_fract_y
_atom_site_fract_z
Si Si1 0.053857 0.250000 0.250000
Si Si2 0.094735 0.533546 0.639453
Si Si3 0.514171 0.798042 0.960489
Si Si4 0.787348 0.847974 0.571839
O O1 0.142905 0.195900 0.333441
O O2 0.963992 0.372415 0.282825
O O3 0.250000 0.500000 0.650101
O O4 0.024413 0.394798 0.621904
O O5 0.062288 0.614238 0.546783
O O6 0.644119 0.718900 0.934597
O O7 0.389573 0.708791 0.994295
O O8 0.750000 0.000000 0.564744
#
# Coordination Sequence:
#
# PCOD9410428 Si02
#       4
#     4   8   8   8
#     4  10  26  38  60  98 132 158 216 270 328 374
#     4  10  20  42  65  92 123 170 212 259 317 390
#     4  10  21  39  71  88 122 169 218 254 313 383
#     4  11  23  41  62  98 127 169 213 269 311 383
#
# _framework density 18.748640000000002
#
# number of rings (size 3 to 8) (size 9 to 14) (size 15 to 20)
#    0.000    1.714    2.857    0.857    4.000    0.000 
#    5.143    2.857    0.000    0.000    0.000    0.000 
#    0.000    0.000    0.000    0.000    0.000    0.000 
#
# Total GULP energy -156169.588421 kJ/mol
# GULP energy per Si atom -5577.485301 kJ/mol
# Density = 1.870597 g / cm^3
# Si number density = 18.748640 Si / 1000 Ang^3
#
#
#
# Elastic Constant Matrix: (Units=GPa)
#
#
# Indices 1 2 3 4 5 6 
#
# 1 192.1891 127.2892 45.5250 0.0000 0.0000 0.0000
# 2 127.2892 165.3168 52.7496 0.0000 0.0000 0.0000
# 3 45.5250 52.7496 48.4062 0.0000 0.0000 0.0000
# 4 0.0000 0.0000 0.0000 73.7745 0.0000 0.0000
# 5 0.0000 0.0000 0.0000 0.0000 -22.9075 0.0000
# 6 0.0000 0.0000 0.0000 0.0000 0.0000 56.6548
#
#
#
# Elastic Compliance Matrix: (Units=1/GPa)
#
#
# Indices 1 2 3 4 5 6 
#
# 1 0.010705 -0.007711 -0.001664 0.000000 0.000000 0.000000
# 2 -0.007711 0.014828 -0.008907 0.000000 0.000000 0.000000
# 3 -0.001664 -0.008907 0.031930 0.000000 0.000000 0.000000
# 4 0.000000 0.000000 0.000000 0.013555 0.000000 0.000000
# 5 0.000000 0.000000 0.000000 0.000000 -0.043654 0.000000
# 6 0.000000 0.000000 0.000000 0.000000 0.000000 0.017651
#
#
# Mechanical properties :
#
#
# Convention : Reuss Voigt Hill
#
# Bulk Modulus (GPa) = 47.85107 95.22663 71.53885
# Shear Modulus (GPa) = 56.46847 33.52758 44.99802
#
# Velocity S-wave (km/s) = 5.49400 4.23338 4.90436
# Velocity P-wave (km/s) = 8.11315 8.64852 8.38511
#
# Compressibility (1/GPa) = 0.02089818
#
# Stress axis : x y z
#
# Youngs Moduli (GPa) = 93.41686 67.43830 31.31888
#
# Poissons Ratio (x) = 0.52003 0.05213
# Poissons Ratio (y) = 0.72036 0.27895
# Poissons Ratio (z) = 0.15548 0.60065
#
# Static dielectric constant tensor:
#      x y z
#    x 1.616760 0.000000 0.000000 
#    y 0.000000 1.975680 0.000000 
#    z 0.000000 0.000000 1.663730 
# 
# From -- ./inp_files/23977.got.cif
#   From: 2010.05.17/outbox.cif.g08.bks.cpg/sg52_12_cif.got.tgz:23977.got - 2010.06.03 12:15:38.
