data_PCOD9410419
_publ_section_title
;
Structure prediction by ZEFSAII (Michael W. Deem and Ramdas Pophale) SiO2 
 PCOD9410419
Probable space group: P N N A
;
_chemical_formula_sum "Si O2"
_cell_formula_units_Z 20
_cell_length_a 8.708629
_cell_length_b 6.835009
_cell_length_c 16.015343
_cell_angle_alpha 90.000000
_cell_angle_beta 90.000000
_cell_angle_gamma 90.000000
_cell_volume 953.290191
_symmetry_space_group_name_H-M "P N N A"
_symmetry_group_IT_number 52
_symmetry_cell_setting 'orthorhombic'
loop_
_space_group_symop_operation_xyz
x,y,z
1/2-x,-y,z
x,1/2-y,1/2-z
1/2-x,1/2+y,1/2-z
-x,-y,-z
1/2+x,y,-z
-x,1/2+y,1/2+z
1/2+x,1/2-y,1/2+z
loop_
_atom_site_type_symbol
_atom_site_label
_atom_site_fract_x
_atom_site_fract_y
_atom_site_fract_z
Si Si1 0.493602 0.713352 0.390746
Si Si2 0.250000 0.000000 0.997423
Si Si3 0.565188 0.027798 0.272596
O O1 0.351700 0.643663 0.445803
O O2 0.642726 0.637235 0.440553
O O3 0.497532 0.592688 0.304683
O O4 0.503049 0.937368 0.359387
O O5 0.531210 0.250000 0.250000
O O6 0.750000 0.000000 0.274219
#
# Coordination Sequence:
#
# PCOD9410419 Si02
#       3
#     8   4   8
#     4  10  21  39  66  91 134 167 220 275 327 398
#     4  10  20  42  64 100 130 166 220 284 334 380
#     4  11  19  39  67  92 125 182 223 262 321 405
#
# _framework density 20.979970999999999
#
# number of rings (size 3 to 8) (size 9 to 14) (size 15 to 20)
#    0.000    1.600    6.000    0.000    0.000    0.000 
#    7.200   22.000    0.000    0.000    0.000    0.000 
#    0.000    0.000    0.000    0.000    0.000    0.000 
#
# Total GULP energy -111697.002562 kJ/mol
# GULP energy per Si atom -5584.850128 kJ/mol
# Density = 2.093222 g / cm^3
# Si number density = 20.979971 Si / 1000 Ang^3
#
#
#
# Elastic Constant Matrix: (Units=GPa)
#
#
# Indices 1 2 3 4 5 6 
#
# 1 69.3074 41.7320 58.2399 0.0000 0.0000 0.0000
# 2 41.7320 164.5949 69.6382 0.0000 0.0000 0.0000
# 3 58.2399 69.6382 134.1252 0.0000 0.0000 0.0000
# 4 0.0000 0.0000 0.0000 33.6079 0.0000 0.0000
# 5 0.0000 0.0000 0.0000 0.0000 -61.5318 0.0000
# 6 0.0000 0.0000 0.0000 0.0000 0.0000 -2.9294
#
#
#
# Elastic Compliance Matrix: (Units=1/GPa)
#
#
# Indices 1 2 3 4 5 6 
#
# 1 0.023261 -0.002082 -0.009020 0.000000 0.000000 0.000000
# 2 -0.002082 0.007972 -0.003235 0.000000 0.000000 0.000000
# 3 -0.009020 -0.003235 0.013052 0.000000 0.000000 0.000000
# 4 0.000000 0.000000 0.000000 0.029755 0.000000 0.000000
# 5 0.000000 0.000000 0.000000 0.000000 -0.016252 0.000000
# 6 0.000000 0.000000 0.000000 0.000000 0.000000 -0.341367
#
#
# Mechanical properties :
#
#
# Convention : Reuss Voigt Hill
#
# Bulk Modulus (GPa) = 64.05252 78.58308 71.31780
# Shear Modulus (GPa) = -20.02390 7.05717 -6.48337
#
# Velocity S-wave (km/s) = -3.09274 1.83605 -1.75982
# Velocity P-wave (km/s) = 4.22413 6.48323 5.47154
#
# Compressibility (1/GPa) = 0.01561219
#
# Stress axis : x y z
#
# Youngs Moduli (GPa) = 42.98991 125.43744 76.61634
#
# Poissons Ratio (x) = 0.26111 0.69106
# Poissons Ratio (y) = 0.08949 0.24787
# Poissons Ratio (z) = 0.38776 0.40582
#
# Static dielectric constant tensor:
#      x y z
#    x 1.750620 0.000000 0.000000 
#    y 0.000000 1.802790 0.000000 
#    z 0.000000 0.000000 1.738630 
# 
# From -- ./inp_files/30496.got.cif
#   From: 2010.05.17/outbox.cif.g08.bks.cpg/sg52_16_cif.got.tgz:30496.got - 2010.06.03 12:15:38.
