data_PCOD9410516
_publ_section_title
;
Structure prediction by ZEFSAII (Michael W. Deem and Ramdas Pophale) SiO2 
 PCOD9410516
Probable space group: P N N A
;
_chemical_formula_sum "Si O2"
_cell_formula_units_Z 28
_cell_length_a 4.991074
_cell_length_b 13.681210
_cell_length_c 19.824552
_cell_angle_alpha 90.000000
_cell_angle_beta 90.000000
_cell_angle_gamma 90.000000
_cell_volume 1353.698351
_symmetry_space_group_name_H-M "P N N A"
_symmetry_group_IT_number 52
_symmetry_cell_setting 'orthorhombic'
loop_
_space_group_symop_operation_xyz
x,y,z
1/2-x,-y,z
x,1/2-y,1/2-z
1/2-x,1/2+y,1/2-z
-x,-y,-z
1/2+x,y,-z
-x,1/2+y,1/2+z
1/2+x,1/2-y,1/2+z
loop_
_atom_site_type_symbol
_atom_site_label
_atom_site_fract_x
_atom_site_fract_y
_atom_site_fract_z
Si Si1 0.250000 0.000000 0.049453
Si Si2 0.936189 0.402292 0.344254
Si Si3 0.393829 0.602600 0.188822
Si Si4 0.108953 0.280821 0.828767
O O1 0.328395 0.914726 0.101749
O O2 0.500000 0.000000 0.000000
O O3 0.750000 0.500000 0.342494
O O4 0.743777 0.312442 0.363099
O O5 0.069251 0.390740 0.270302
O O6 0.250000 0.500000 0.174877
O O7 0.689391 0.627458 0.162208
O O8 0.192477 0.684835 0.160506
O O9 0.118342 0.250000 0.750000
#
# Coordination Sequence:
#
# PCOD9410516 Si02
#       4
#     4   8   8   8
#     4  12  26  40  58  82 114 164 220 254 288 342
#     4  11  23  37  59  78 122 159 196 244 299 343
#     4  11  20  33  52  80 114 151 185 225 282 356
#     4  10  21  31  51  80 108 149 193 220 280 365
#
# _framework density 20.684073999999999
#
# number of rings (size 3 to 8) (size 9 to 14) (size 15 to 20)
#    0.000    1.143    2.857    6.857    4.000    0.000 
#    0.000    0.000    0.000    0.000    0.000    0.000 
#    0.000   22.857    0.000    0.000    0.000    0.000 
#
# Total GULP energy -156232.777601 kJ/mol
# GULP energy per Si atom -5579.742057 kJ/mol
# Density = 2.063700 g / cm^3
# Si number density = 20.684074 Si / 1000 Ang^3
#
#
#
# Elastic Constant Matrix: (Units=GPa)
#
#
# Indices 1 2 3 4 5 6 
#
# 1 143.9851 25.8452 23.2899 0.0000 0.0000 0.0000
# 2 25.8452 89.9573 7.0991 0.0000 0.0000 0.0000
# 3 23.2899 7.0991 39.8454 0.0000 0.0000 0.0000
# 4 0.0000 0.0000 0.0000 5.2718 0.0000 0.0000
# 5 0.0000 0.0000 0.0000 0.0000 13.7094 0.0000
# 6 0.0000 0.0000 0.0000 0.0000 0.0000 45.3582
#
#
#
# Elastic Compliance Matrix: (Units=1/GPa)
#
#
# Indices 1 2 3 4 5 6 
#
# 1 0.007996 -0.001956 -0.004325 0.000000 0.000000 0.000000
# 2 -0.001956 0.011753 -0.000951 0.000000 0.000000 0.000000
# 3 -0.004325 -0.000951 0.027794 0.000000 0.000000 0.000000
# 4 0.000000 0.000000 0.000000 0.189689 0.000000 0.000000
# 5 0.000000 0.000000 0.000000 0.000000 0.072943 0.000000
# 6 0.000000 0.000000 0.000000 0.000000 0.000000 0.022047
#
#
# Mechanical properties :
#
#
# Convention : Reuss Voigt Hill
#
# Bulk Modulus (GPa) = 30.22979 42.91735 36.57357
# Shear Modulus (GPa) = 13.97769 27.37145 20.67457
#
# Velocity S-wave (km/s) = 2.60238 3.64168 3.16498
# Velocity P-wave (km/s) = 4.86586 6.20294 5.57463
#
# Compressibility (1/GPa) = 0.03307995
#
# Stress axis : x y z
#
# Youngs Moduli (GPa) = 125.06489 85.08204 35.97838
#
# Poissons Ratio (x) = 0.16641 0.15561
# Poissons Ratio (y) = 0.24462 0.03421
# Poissons Ratio (z) = 0.54092 0.08090
#
# Static dielectric constant tensor:
#      x y z
#    x 1.776680 0.000000 0.000000 
#    y 0.000000 1.839380 0.000000 
#    z 0.000000 0.000000 1.724540 
# 
# From -- ./inp_files/34877.got.cif
#   From: 2010.05.17/outbox.cif.g08.bks.cpg/sg52_18_cif.got.tgz:34877.got - 2010.06.03 12:15:38.
