data_PCOD9410656
_publ_section_title
;
Structure prediction by ZEFSAII (Michael W. Deem and Ramdas Pophale) SiO2 
 PCOD9410656
Probable space group: P N N A
;
_chemical_formula_sum "Si O2"
_cell_formula_units_Z 56
_cell_length_a 14.490289
_cell_length_b 30.032189
_cell_length_c 5.842053
_cell_angle_alpha 90.000000
_cell_angle_beta 90.000000
_cell_angle_gamma 90.000000
_cell_volume 2542.315986
_symmetry_space_group_name_H-M "P N N A"
_symmetry_group_IT_number 52
_symmetry_cell_setting 'orthorhombic'
loop_
_space_group_symop_operation_xyz
x,y,z
1/2-x,-y,z
x,1/2-y,1/2-z
1/2-x,1/2+y,1/2-z
-x,-y,-z
1/2+x,y,-z
-x,1/2+y,1/2+z
1/2+x,1/2-y,1/2+z
loop_
_atom_site_type_symbol
_atom_site_label
_atom_site_fract_x
_atom_site_fract_y
_atom_site_fract_z
Si Si1 0.750000 0.500000 0.665276
Si Si2 0.145188 0.937747 0.871584
Si Si3 0.697853 0.853749 0.851953
Si Si4 0.537124 0.687197 0.883680
Si Si5 0.111523 0.167972 0.992362
Si Si6 0.206881 0.082451 0.492411
Si Si7 0.482828 0.603789 0.159393
Si Si8 0.969056 0.750000 0.750000
O O1 0.833932 0.482137 0.510849
O O2 0.780241 0.541450 0.818222
O O3 0.234811 0.929582 0.714075
O O4 0.052797 0.935233 0.723975
O O5 0.142274 0.895033 0.039166
O O6 0.625537 0.816481 0.778719
O O7 0.749930 0.874109 0.630513
O O8 0.779079 0.838792 0.022757
O O9 0.444401 0.680425 0.734617
O O10 0.540923 0.644117 0.049845
O O11 0.528347 0.730450 0.040683
O O12 0.067652 0.124550 0.116626
O O13 0.092067 0.209027 0.163225
O O14 0.098028 0.090007 0.514176
#
# Coordination Sequence:
#
# PCOD9410656 Si02
#       8
#     4   8   8   8   8   8   8   4
#     4  10  24  38  58  86 132 162 206 258 320 374
#     4  11  20  40  61  92 120 164 206 263 313 379
#     4  10  21  37  68  91 118 162 216 253 311 365
#     4  11  20  41  66  95 126 164 206 266 311 387
#     4  10  21  41  60  90 126 162 206 260 301 381
#     4  10  21  40  59  91 124 160 205 267 305 383
#     4  10  21  36  67  89 118 163 211 253 320 365
#     4  10  24  40  60  90 136 164 198 254 322 370
#
# _framework density 22.027159999999999
#
# number of rings (size 3 to 8) (size 9 to 14) (size 15 to 20)
#    0.000    1.714    2.857    1.714    0.000    0.571 
#    2.571    2.857    0.000    0.000    0.000    0.000 
#    0.000    0.000    0.000    0.000    0.000    0.000 
#
# Total GULP energy -313031.088655 kJ/mol
# GULP energy per Si atom -5589.840869 kJ/mol
# Density = 2.197703 g / cm^3
# Si number density = 22.027160 Si / 1000 Ang^3
#
#
#
# Elastic Constant Matrix: (Units=GPa)
#
#
# Indices 1 2 3 4 5 6 
#
# 1 106.5768 17.4350 8.8960 0.0000 0.0000 0.0000
# 2 17.4350 56.4178 5.7413 0.0000 0.0000 0.0000
# 3 8.8960 5.7413 53.9668 0.0000 0.0000 0.0000
# 4 0.0000 0.0000 0.0000 35.9474 0.0000 0.0000
# 5 0.0000 0.0000 0.0000 0.0000 21.7999 0.0000
# 6 0.0000 0.0000 0.0000 0.0000 0.0000 17.6998
#
#
#
# Elastic Compliance Matrix: (Units=1/GPa)
#
#
# Indices 1 2 3 4 5 6 
#
# 1 0.009976 -0.002948 -0.001331 0.000000 0.000000 0.000000
# 2 -0.002948 0.018790 -0.001513 0.000000 0.000000 0.000000
# 3 -0.001331 -0.001513 0.018910 0.000000 0.000000 0.000000
# 4 0.000000 0.000000 0.000000 0.027818 0.000000 0.000000
# 5 0.000000 0.000000 0.000000 0.000000 0.045872 0.000000
# 6 0.000000 0.000000 0.000000 0.000000 0.000000 0.056498
#
#
# Mechanical properties :
#
#
# Convention : Reuss Voigt Hill
#
# Bulk Modulus (GPa) = 27.70607 31.23399 29.47003
# Shear Modulus (GPa) = 24.81655 27.41535 26.11595
#
# Velocity S-wave (km/s) = 3.36018 3.53174 3.44703
# Velocity P-wave (km/s) = 5.25926 5.55351 5.40839
#
# Compressibility (1/GPa) = 0.03609318
#
# Stress axis : x y z
#
# Youngs Moduli (GPa) = 100.23873 53.22043 52.88127
#
# Poissons Ratio (x) = 0.15687 0.07038
# Poissons Ratio (y) = 0.29546 0.08001
# Poissons Ratio (z) = 0.13341 0.08053
#
# Static dielectric constant tensor:
#      x y z
#    x 1.807170 0.000000 0.000000 
#    y 0.000000 1.791470 0.000000 
#    z 0.000000 0.000000 1.847290 
# 
# From -- ./inp_files/2673.got.cif
#   From: 2010.05.17/outbox.cif.g08.bks.cpg/sg52_2_cif.got.tgz:2673.got - 2010.06.03 12:15:38.
