data_PCOD9410051
_publ_section_title
;
Structure prediction by ZEFSAII (Michael W. Deem and Ramdas Pophale) SiO2 
 PCOD9410051
Probable space group: P N N A
;
_chemical_formula_sum "Si O2"
_cell_formula_units_Z 48
_cell_length_a 20.482940
_cell_length_b 15.220588
_cell_length_c 7.513018
_cell_angle_alpha 90.000000
_cell_angle_beta 90.000000
_cell_angle_gamma 90.000000
_cell_volume 2342.276454
_symmetry_space_group_name_H-M "P N N A"
_symmetry_group_IT_number 52
_symmetry_cell_setting 'orthorhombic'
loop_
_space_group_symop_operation_xyz
x,y,z
1/2-x,-y,z
x,1/2-y,1/2-z
1/2-x,1/2+y,1/2-z
-x,-y,-z
1/2+x,y,-z
-x,1/2+y,1/2+z
1/2+x,1/2-y,1/2+z
loop_
_atom_site_type_symbol
_atom_site_label
_atom_site_fract_x
_atom_site_fract_y
_atom_site_fract_z
Si Si1 0.750000 0.500000 0.514093
Si Si2 0.213291 0.688133 0.580846
Si Si3 0.637347 0.430515 0.782305
Si Si4 0.297803 0.750000 0.250000
Si Si5 0.996222 0.412711 0.391574
Si Si6 0.565753 0.945136 0.464867
Si Si7 0.434136 0.246961 0.961133
O O1 0.771664 0.415392 0.398433
O O2 0.688393 0.473962 0.642136
O O3 0.228293 0.750000 0.750000
O O4 0.255255 0.715184 0.411785
O O5 0.138762 0.710212 0.530589
O O6 0.664164 0.334152 0.827180
O O7 0.566341 0.407719 0.701557
O O8 0.623095 0.498955 0.943319
O O9 0.937880 0.428900 0.247349
O O10 0.982101 0.330182 0.519684
O O11 0.000000 0.500000 0.500000
O O12 0.562673 0.844918 0.537378
O O13 0.500000 0.000000 0.500000
O O14 0.452527 0.250000 0.750000
#
# Coordination Sequence:
#
# PCOD9410051 Si02
#       7
#     4   8   8   4   8   8   8
#     4  10  22  42  66  96 130 174 210 278 330 396
#     4  10  22  44  63  97 125 170 222 269 326 395
#     4  10  22  39  65  89 132 168 217 271 330 399
#     4  10  24  42  64  90 136 174 214 270 334 396
#     4  10  20  38  61  91 126 169 211 277 332 382
#     4   9  20  36  60  90 119 162 217 260 321 388
#     4   9  19  36  63  87 122 162 212 268 320 387
#
# _framework density 20.492885000000001
#
# number of rings (size 3 to 8) (size 9 to 14) (size 15 to 20)
#    0.000    2.333    0.000    1.000   10.500    0.000 
#   15.000    0.000    0.000    0.000    0.000    0.000 
#    0.000    0.000    0.000    0.000    0.000    0.000 
#
# Total GULP energy -267369.018757 kJ/mol
# GULP energy per Si atom -5570.187891 kJ/mol
# Density = 2.044624 g / cm^3
# Si number density = 20.492885 Si / 1000 Ang^3
#
#
#
# Elastic Constant Matrix: (Units=GPa)
#
#
# Indices 1 2 3 4 5 6 
#
# 1 67.2389 48.5764 26.8254 0.0000 0.0000 0.0000
# 2 48.5764 216.8266 41.3624 0.0000 0.0000 0.0000
# 3 26.8254 41.3624 41.5282 0.0000 0.0000 0.0000
# 4 0.0000 0.0000 0.0000 33.4583 0.0000 0.0000
# 5 0.0000 0.0000 0.0000 0.0000 32.6580 0.0000
# 6 0.0000 0.0000 0.0000 0.0000 0.0000 20.5594
#
#
#
# Elastic Compliance Matrix: (Units=1/GPa)
#
#
# Indices 1 2 3 4 5 6 
#
# 1 0.021191 -0.002637 -0.011062 0.000000 0.000000 0.000000
# 2 -0.002637 0.006022 -0.004294 0.000000 0.000000 0.000000
# 3 -0.011062 -0.004294 0.035503 0.000000 0.000000 0.000000
# 4 0.000000 0.000000 0.000000 0.029888 0.000000 0.000000
# 5 0.000000 0.000000 0.000000 0.000000 0.030620 0.000000
# 6 0.000000 0.000000 0.000000 0.000000 0.000000 0.048639
#
#
# Mechanical properties :
#
#
# Convention : Reuss Voigt Hill
#
# Bulk Modulus (GPa) = 37.41275 62.12468 49.76872
# Shear Modulus (GPa) = 23.06706 31.25709 27.16208
#
# Velocity S-wave (km/s) = 3.35866 3.90970 3.64461
# Velocity P-wave (km/s) = 5.77381 7.12475 6.48456
#
# Compressibility (1/GPa) = 0.02672886
#
# Stress axis : x y z
#
# Youngs Moduli (GPa) = 47.19044 166.05681 28.16697
#
# Poissons Ratio (x) = 0.43794 0.31157
# Poissons Ratio (y) = 0.12446 0.12096
# Poissons Ratio (z) = 0.52200 0.71311
#
# Static dielectric constant tensor:
#      x y z
#    x 1.694070 0.000000 0.000000 
#    y 0.000000 1.851980 0.000000 
#    z 0.000000 0.000000 1.759380 
# 
# From -- ./inp_files/13318.got.cif
#   From: 2010.05.17/outbox.cif.g08.bks.cpg/sg52_7_cif.got.tgz:13318.got - 2010.06.03 12:15:38.
