data_PCOD9410074
_publ_section_title
;
Structure prediction by ZEFSAII (Michael W. Deem and Ramdas Pophale) SiO2 
 PCOD9410074
Probable space group: P N N A
;
_chemical_formula_sum "Si O2"
_cell_formula_units_Z 36
_cell_length_a 10.165777
_cell_length_b 21.811574
_cell_length_c 6.915564
_cell_angle_alpha 90.000000
_cell_angle_beta 90.000000
_cell_angle_gamma 90.000000
_cell_volume 1533.399052
_symmetry_space_group_name_H-M "P N N A"
_symmetry_group_IT_number 52
_symmetry_cell_setting 'orthorhombic'
loop_
_space_group_symop_operation_xyz
x,y,z
1/2-x,-y,z
x,1/2-y,1/2-z
1/2-x,1/2+y,1/2-z
-x,-y,-z
1/2+x,y,-z
-x,1/2+y,1/2+z
1/2+x,1/2-y,1/2+z
loop_
_atom_site_type_symbol
_atom_site_label
_atom_site_fract_x
_atom_site_fract_y
_atom_site_fract_z
Si Si1 0.761817 0.750000 0.250000
Si Si2 0.702381 0.937978 0.797754
Si Si3 0.507024 0.812995 0.163399
Si Si4 0.153591 0.357936 0.017105
Si Si5 0.587879 0.092206 0.121472
O O1 0.660008 0.797072 0.143425
O O2 0.829814 0.707341 0.091194
O O3 0.728568 0.879865 0.657145
O O4 0.553394 0.940422 0.869842
O O5 0.750000 0.000000 0.694093
O O6 0.801232 0.932591 0.979303
O O7 0.448881 0.750000 0.250000
O O8 0.471928 0.858719 0.338886
O O9 0.448390 0.840742 0.969752
O O10 0.137502 0.403282 0.838747
#
# Coordination Sequence:
#
# PCOD9410074 Si02
#       5
#     4   8   8   8   8
#     4  10  20  38  62  94 136 174 212 266 336 406
#     4  11  26  45  69  98 135 183 235 289 340 403
#     4   9  21  37  58  94 130 165 215 263 332 404
#     4  11  22  40  66  99 134 174 221 278 340 406
#     4  11  23  43  69  97 134 175 229 285 341 407
#
# _framework density 23.477253000000001
#
# number of rings (size 3 to 8) (size 9 to 14) (size 15 to 20)
#    0.667    0.889    0.000    4.667    0.000    5.333 
#    0.000    0.000    0.000    0.000    0.000    0.000 
#    0.000    0.000    0.000    0.000    0.000    0.000 
#
# Total GULP energy -200838.262517 kJ/mol
# GULP energy per Si atom -5578.840625 kJ/mol
# Density = 2.342382 g / cm^3
# Si number density = 23.477253 Si / 1000 Ang^3
#
#
#
# Elastic Constant Matrix: (Units=GPa)
#
#
# Indices 1 2 3 4 5 6 
#
# 1 101.2565 -0.1676 52.6826 0.0000 0.0000 0.0000
# 2 -0.1676 45.9007 17.4308 0.0000 0.0000 0.0000
# 3 52.6826 17.4308 142.0278 0.0000 0.0000 0.0000
# 4 0.0000 0.0000 0.0000 29.3212 0.0000 0.0000
# 5 0.0000 0.0000 0.0000 0.0000 27.7595 0.0000
# 6 0.0000 0.0000 0.0000 0.0000 0.0000 25.6587
#
#
#
# Elastic Compliance Matrix: (Units=1/GPa)
#
#
# Indices 1 2 3 4 5 6 
#
# 1 0.012390 0.001878 -0.004826 0.000000 0.000000 0.000000
# 2 0.001878 0.023136 -0.003536 0.000000 0.000000 0.000000
# 3 -0.004826 -0.003536 0.009265 0.000000 0.000000 0.000000
# 4 0.000000 0.000000 0.000000 0.034105 0.000000 0.000000
# 5 0.000000 0.000000 0.000000 0.000000 0.036024 0.000000
# 6 0.000000 0.000000 0.000000 0.000000 0.000000 0.038973
#
#
# Mechanical properties :
#
#
# Convention : Reuss Voigt Hill
#
# Bulk Modulus (GPa) = 31.42447 47.67518 39.54982
# Shear Modulus (GPa) = 28.17391 31.16383 29.66887
#
# Velocity S-wave (km/s) = 3.46793 3.64731 3.55875
# Velocity P-wave (km/s) = 5.42674 6.17156 5.81110
#
# Compressibility (1/GPa) = 0.03182234
#
# Stress axis : x y z
#
# Youngs Moduli (GPa) = 80.70945 43.22296 107.93188
#
# Poissons Ratio (x) = -0.08118 0.52092
# Poissons Ratio (y) = -0.15158 0.38165
# Poissons Ratio (z) = 0.38953 0.15284
#
# Static dielectric constant tensor:
#      x y z
#    x 1.891440 0.000000 0.000000 
#    y 0.000000 1.998610 0.000000 
#    z 0.000000 0.000000 1.840990 
# 
# From -- ./inp_files/1268.got.cif
#   From: 2010.05.17/outbox.cif.g08.bks.cpg/sg52_1_cif.got.tgz:1268.got - 2010.06.03 12:15:38.
