data_PCOD9410150
_publ_section_title
;
Structure prediction by ZEFSAII (Michael W. Deem and Ramdas Pophale) SiO2 
 PCOD9410150
Probable space group: P N N A
;
_chemical_formula_sum "Si O2"
_cell_formula_units_Z 28
_cell_length_a 5.304361
_cell_length_b 10.488082
_cell_length_c 19.581041
_cell_angle_alpha 90.000000
_cell_angle_beta 90.000000
_cell_angle_gamma 90.000000
_cell_volume 1089.343695
_symmetry_space_group_name_H-M "P N N A"
_symmetry_group_IT_number 52
_symmetry_cell_setting 'orthorhombic'
loop_
_space_group_symop_operation_xyz
x,y,z
1/2-x,-y,z
x,1/2-y,1/2-z
1/2-x,1/2+y,1/2-z
-x,-y,-z
1/2+x,y,-z
-x,1/2+y,1/2+z
1/2+x,1/2-y,1/2+z
loop_
_atom_site_type_symbol
_atom_site_label
_atom_site_fract_x
_atom_site_fract_y
_atom_site_fract_z
Si Si1 0.012853 0.425098 0.695395
Si Si2 0.698678 0.754468 0.024020
Si Si3 0.750000 0.000000 0.566800
Si Si4 0.892464 0.838396 0.345351
O O1 0.250000 0.500000 0.661322
O O2 0.942374 0.290706 0.660442
O O3 0.137455 0.382281 0.768021
O O4 0.750000 0.500000 0.704393
O O5 0.678498 0.713882 0.103246
O O6 0.461681 0.823689 0.991813
O O7 0.769708 0.623050 0.982045
O O8 0.971622 0.045612 0.616581
#
# Coordination Sequence:
#
# PCOD9410150 Si02
#       4
#     8   8   4   8
#     4  11  26  42  62  91 128 177 208 252 311 385
#     4  10  21  34  60  95 118 152 194 265 321 354
#     4  10  20  38  68  94 126 150 212 270 318 360
#     4  10  22  40  67  91 132 161 213 265 314 372
#
# _framework density 25.703548999999999
#
# number of rings (size 3 to 8) (size 9 to 14) (size 15 to 20)
#    0.000    1.714    1.429    3.429    6.000    9.143 
#    0.000    0.000    0.000   20.571    0.000    0.000 
#    0.000    0.000    0.000    0.000    0.000    0.000 
#
# Total GULP energy -156031.714077 kJ/mol
# GULP energy per Si atom -5572.561217 kJ/mol
# Density = 2.564505 g / cm^3
# Si number density = 25.703549 Si / 1000 Ang^3
#
#
#
# Elastic Constant Matrix: (Units=GPa)
#
#
# Indices 1 2 3 4 5 6 
#
# 1 137.0363 28.1029 2.1143 0.0000 0.0000 0.0000
# 2 28.1029 89.1331 -4.3793 0.0000 0.0000 0.0000
# 3 2.1143 -4.3793 49.1635 0.0000 0.0000 0.0000
# 4 0.0000 0.0000 0.0000 11.1791 0.0000 0.0000
# 5 0.0000 0.0000 0.0000 0.0000 11.9959 0.0000
# 6 0.0000 0.0000 0.0000 0.0000 0.0000 22.4161
#
#
#
# Elastic Compliance Matrix: (Units=1/GPa)
#
#
# Indices 1 2 3 4 5 6 
#
# 1 0.007817 -0.002492 -0.000558 0.000000 0.000000 0.000000
# 2 -0.002492 0.012063 0.001182 0.000000 0.000000 0.000000
# 3 -0.000558 0.001182 0.020470 0.000000 0.000000 0.000000
# 4 0.000000 0.000000 0.000000 0.089453 0.000000 0.000000
# 5 0.000000 0.000000 0.000000 0.000000 0.083362 0.000000
# 6 0.000000 0.000000 0.000000 0.000000 0.000000 0.044611
#
#
# Mechanical properties :
#
#
# Convention : Reuss Voigt Hill
#
# Bulk Modulus (GPa) = 27.31308 36.33429 31.82369
# Shear Modulus (GPa) = 18.26709 25.75122 22.00916
#
# Velocity S-wave (km/s) = 2.66876 3.16864 2.92938
# Velocity P-wave (km/s) = 4.48839 5.24916 4.88361
#
# Compressibility (1/GPa) = 0.03661250
#
# Stress axis : x y z
#
# Youngs Moduli (GPa) = 127.92620 82.89842 48.85303
#
# Poissons Ratio (x) = 0.20659 0.02727
# Poissons Ratio (y) = 0.31880 -0.05773
# Poissons Ratio (z) = 0.07140 -0.09796
#
# Static dielectric constant tensor:
#      x y z
#    x 2.280740 0.000000 0.000000 
#    y 0.000000 2.093720 0.000000 
#    z 0.000000 0.000000 2.077800 
# 
# From -- ./inp_files/34761.got.cif
#   From: 2010.05.17/outbox.cif.g08.bks.cpg/sg52_18_cif.got.tgz:34761.got - 2010.06.03 12:15:38.
