data_PCOD9410982
_publ_section_title
;
Structure prediction by ZEFSAII (Michael W. Deem and Ramdas Pophale) SiO2 
 PCOD9410982
Probable space group: P N N A
;
_chemical_formula_sum "Si O2"
_cell_formula_units_Z 48
_cell_length_a 8.913847
_cell_length_b 17.742435
_cell_length_c 14.891214
_cell_angle_alpha 90.000000
_cell_angle_beta 90.000000
_cell_angle_gamma 90.000000
_cell_volume 2355.095395
_symmetry_space_group_name_H-M "P N N A"
_symmetry_group_IT_number 52
_symmetry_cell_setting 'orthorhombic'
loop_
_space_group_symop_operation_xyz
x,y,z
1/2-x,-y,z
x,1/2-y,1/2-z
1/2-x,1/2+y,1/2-z
-x,-y,-z
1/2+x,y,-z
-x,1/2+y,1/2+z
1/2+x,1/2-y,1/2+z
loop_
_atom_site_type_symbol
_atom_site_label
_atom_site_fract_x
_atom_site_fract_y
_atom_site_fract_z
Si Si1 0.337684 0.698366 0.415531
Si Si2 0.018932 0.293173 0.608265
Si Si3 0.989851 0.645382 0.894302
Si Si4 0.811741 0.583817 0.739482
Si Si5 0.805995 0.917748 0.437637
Si Si6 0.508936 0.363014 0.209765
O O1 0.392376 0.691060 0.517666
O O2 0.431216 0.769762 0.377321
O O3 0.358499 0.626283 0.351368
O O4 0.158539 0.710419 0.413288
O O5 0.052477 0.353791 0.686329
O O6 0.049074 0.213087 0.655694
O O7 0.943668 0.593231 0.810945
O O8 0.164126 0.635009 0.915697
O O9 0.901747 0.617174 0.982196
O O10 0.750000 0.500000 0.723914
O O11 0.669843 0.626609 0.785491
O O12 0.908045 0.925219 0.348791
O O13 0.750000 0.000000 0.465726
#
# Coordination Sequence:
#
# PCOD9410982 Si02
#       6
#     8   8   8   8   8   8
#     4  11  22  40  64  94 117 165 212 259 307 378
#     4  10  21  39  64  86 122 157 211 259 304 369
#     4  12  22  38  61  92 127 166 211 260 307 387
#     4  11  23  42  64  90 128 166 211 264 318 376
#     4  12  24  38  60  94 130 166 206 257 323 379
#     4  10  21  41  61  87 122 168 202 254 322 363
#
# _framework density 20.381340000000002
#
# number of rings (size 3 to 8) (size 9 to 14) (size 15 to 20)
#    0.000    1.000    3.333    4.500    0.000    1.333 
#    3.000    4.167    0.000    0.000    0.000    0.000 
#    0.000    0.000    0.000    0.000    0.000    0.000 
#
# Total GULP energy -268264.289085 kJ/mol
# GULP energy per Si atom -5588.839356 kJ/mol
# Density = 2.033495 g / cm^3
# Si number density = 20.381340 Si / 1000 Ang^3
#
#
#
# Elastic Constant Matrix: (Units=GPa)
#
#
# Indices 1 2 3 4 5 6 
#
# 1 71.2945 4.7251 58.0487 0.0000 0.0000 0.0000
# 2 4.7251 62.1930 44.6798 0.0000 0.0000 0.0000
# 3 58.0487 44.6798 136.2494 0.0000 0.0000 0.0000
# 4 0.0000 0.0000 0.0000 19.9613 0.0000 0.0000
# 5 0.0000 0.0000 0.0000 0.0000 37.4842 0.0000
# 6 0.0000 0.0000 0.0000 0.0000 0.0000 116.8356
#
#
#
# Elastic Compliance Matrix: (Units=1/GPa)
#
#
# Indices 1 2 3 4 5 6 
#
# 1 0.023666 0.007124 -0.012419 0.000000 0.000000 0.000000
# 2 0.007124 0.023179 -0.010636 0.000000 0.000000 0.000000
# 3 -0.012419 -0.010636 0.016118 0.000000 0.000000 0.000000
# 4 0.000000 0.000000 0.000000 0.050097 0.000000 0.000000
# 5 0.000000 0.000000 0.000000 0.000000 0.026678 0.000000
# 6 0.000000 0.000000 0.000000 0.000000 0.000000 0.008559
#
#
# Mechanical properties :
#
#
# Convention : Reuss Voigt Hill
#
# Bulk Modulus (GPa) = 32.15370 53.84936 43.00153
# Shear Modulus (GPa) = 26.24323 45.67512 35.95917
#
# Velocity S-wave (km/s) = 3.59222 4.73908 4.20494
# Velocity P-wave (km/s) = 5.74593 7.51156 6.68727
#
# Compressibility (1/GPa) = 0.03110062
#
# Stress axis : x y z
#
# Youngs Moduli (GPa) = 42.25531 43.14312 62.04143
#
# Poissons Ratio (x) = -0.30734 0.77048
# Poissons Ratio (y) = -0.30101 0.65987
# Poissons Ratio (z) = 0.52476 0.45887
#
# Static dielectric constant tensor:
#      x y z
#    x 1.720570 0.000000 0.000000 
#    y 0.000000 1.777850 0.000000 
#    z 0.000000 0.000000 1.717780 
# 
# From -- ./inp_files/24718.got.cif
#   From: 2010.05.17/outbox.cif.g08.bks.cpg/sg52_13_cif.got.tgz:24718.got - 2010.06.03 12:15:38.
