data_PCOD9410987
_publ_section_title
;
Structure prediction by ZEFSAII (Michael W. Deem and Ramdas Pophale) SiO2 
 PCOD9410987
Probable space group: P N N A
;
_chemical_formula_sum "Si O2"
_cell_formula_units_Z 48
_cell_length_a 15.362462
_cell_length_b 19.343159
_cell_length_c 8.857871
_cell_angle_alpha 90.000000
_cell_angle_beta 90.000000
_cell_angle_gamma 90.000000
_cell_volume 2632.192059
_symmetry_space_group_name_H-M "P N N A"
_symmetry_group_IT_number 52
_symmetry_cell_setting 'orthorhombic'
loop_
_space_group_symop_operation_xyz
x,y,z
1/2-x,-y,z
x,1/2-y,1/2-z
1/2-x,1/2+y,1/2-z
-x,-y,-z
1/2+x,y,-z
-x,1/2+y,1/2+z
1/2+x,1/2-y,1/2+z
loop_
_atom_site_type_symbol
_atom_site_label
_atom_site_fract_x
_atom_site_fract_y
_atom_site_fract_z
Si Si1 0.784287 0.423404 0.818668
Si Si2 0.972883 0.078649 0.819519
Si Si3 0.472883 0.421351 0.680481
Si Si4 0.622003 0.173900 0.680953
Si Si5 0.784287 0.423404 0.181332
Si Si6 0.122003 0.326100 0.819047
O O1 0.750000 0.500000 0.777841
O O2 0.875316 0.409245 0.738298
O O3 0.709643 0.368399 0.779737
O O4 0.797280 0.422371 0.000000
O O5 0.040511 0.130921 0.744055
O O6 0.976996 0.085495 1.000000
O O7 0.000000 1.000000 0.779172
O O8 0.540511 0.369079 0.755945
O O9 0.375316 0.409245 0.738298
O O10 0.623877 0.250000 0.750000
O O11 0.616292 0.177484 0.500000
O O12 0.750000 0.500000 0.222159
O O13 0.709643 0.368399 0.220263
O O14 0.123877 0.250000 0.750000
#
# Coordination Sequence:
#
# PCOD9410987 Si02
#       6
#     8   8   8   8   8   8
#     4  10  21  39  64  91 120 162 209 253 304 363
#     4  11  23  38  62  94 126 162 205 254 305 363
#     4  11  23  38  62  94 126 162 205 254 305 363
#     4  11  24  42  64  90 125 162 203 255 310 368
#     4  10  21  39  64  91 120 162 209 253 304 363
#     4  11  24  42  64  90 125 162 203 255 310 368
#
# _framework density 18.235751
#
# number of rings (size 3 to 8) (size 9 to 14) (size 15 to 20)
#    0.000    1.333    3.333    2.000    0.000    6.000 
#    0.000    3.333    0.000    0.000    0.000    0.000 
#    0.000    0.000    0.000    0.000    0.000    0.000 
#
# Total GULP energy -268392.976469 kJ/mol
# GULP energy per Si atom -5591.520343 kJ/mol
# Density = 1.819425 g / cm^3
# Si number density = 18.235751 Si / 1000 Ang^3
#
#
#
# Elastic Constant Matrix: (Units=GPa)
#
#
# Indices 1 2 3 4 5 6 
#
# 1 203.3812 115.7121 79.9830 0.0000 0.0000 0.0000
# 2 115.7121 192.5833 75.5391 0.0000 0.0000 0.0000
# 3 79.9830 75.5391 58.6249 0.0000 0.0000 0.0000
# 4 0.0000 0.0000 0.0000 18.2291 0.0000 0.0000
# 5 0.0000 0.0000 0.0000 0.0000 145.7002 0.0000
# 6 0.0000 0.0000 0.0000 0.0000 0.0000 31.4576
#
#
#
# Elastic Compliance Matrix: (Units=1/GPa)
#
#
# Indices 1 2 3 4 5 6 
#
# 1 0.010802 -0.001435 -0.012888 0.000000 0.000000 0.000000
# 2 -0.001435 0.010689 -0.011816 0.000000 0.000000 0.000000
# 3 -0.012888 -0.011816 0.049866 0.000000 0.000000 0.000000
# 4 0.000000 0.000000 0.000000 0.054857 0.000000 0.000000
# 5 0.000000 0.000000 0.000000 0.000000 0.006863 0.000000
# 6 0.000000 0.000000 0.000000 0.000000 0.000000 0.031789
#
#
# Mechanical properties :
#
#
# Convention : Reuss Voigt Hill
#
# Bulk Modulus (GPa) = 52.41243 110.78419 81.59831
# Shear Modulus (GPa) = 22.37102 51.30106 36.83604
#
# Velocity S-wave (km/s) = 3.50632 5.30973 4.49931
# Velocity P-wave (km/s) = 6.72283 9.92340 8.47556
#
# Compressibility (1/GPa) = 0.01907944
#
# Stress axis : x y z
#
# Youngs Moduli (GPa) = 92.57817 93.55152 20.05382
#
# Poissons Ratio (x) = 0.13423 0.25846
# Poissons Ratio (y) = 0.13284 0.23695
# Poissons Ratio (z) = 1.19316 1.10538
#
# Static dielectric constant tensor:
#      x y z
#    x 1.587540 0.000000 0.000000 
#    y 0.000000 1.589950 0.000000 
#    z 0.000000 0.000000 1.608400 
# 
# From -- ./inp_files/10475.got.cif
#   From: 2010.05.17/outbox.cif.g08.bks.cpg/sg52_6_cif.got.tgz:10475.got - 2010.06.03 12:15:38.
