data_PCOD9410357
_publ_section_title
;
Structure prediction by ZEFSAII (Michael W. Deem and Ramdas Pophale) SiO2 
 PCOD9410357
Probable space group: P N N A
;
_chemical_formula_sum "Si O2"
_cell_formula_units_Z 48
_cell_length_a 16.538862
_cell_length_b 15.362821
_cell_length_c 7.264256
_cell_angle_alpha 90.000000
_cell_angle_beta 90.000000
_cell_angle_gamma 90.000000
_cell_volume 1845.728145
_symmetry_space_group_name_H-M "P N N A"
_symmetry_group_IT_number 52
_symmetry_cell_setting 'orthorhombic'
loop_
_space_group_symop_operation_xyz
x,y,z
1/2-x,-y,z
x,1/2-y,1/2-z
1/2-x,1/2+y,1/2-z
-x,-y,-z
1/2+x,y,-z
-x,1/2+y,1/2+z
1/2+x,1/2-y,1/2+z
loop_
_atom_site_type_symbol
_atom_site_label
_atom_site_fract_x
_atom_site_fract_y
_atom_site_fract_z
Si Si1 0.900019 0.832109 0.881210
Si Si2 0.166406 0.985363 0.243567
Si Si3 0.348204 0.900226 0.751656
Si Si4 0.321914 0.404825 0.647095
Si Si5 0.565807 0.769281 0.975236
Si Si6 0.515282 0.595710 0.930190
O O1 0.885416 0.750000 0.750000
O O2 0.877706 0.921873 0.780196
O O3 0.848104 0.840248 0.065969
O O4 0.989482 0.828979 0.969569
O O5 0.198335 0.939475 0.058573
O O6 0.094304 0.922525 0.305512
O O7 0.250000 0.000000 0.354105
O O8 0.426884 0.872046 0.638311
O O9 0.252760 0.894407 0.712166
O O10 0.365712 0.004661 0.785354
O O11 0.362528 0.315353 0.583114
O O12 0.569641 0.750000 0.750000
O O13 0.545982 0.673781 0.057398
O O14 0.500000 0.500000 0.000000
#
# Coordination Sequence:
#
# PCOD9410357 Si02
#       6
#     8   8   8   8   8   8
#     4  11  22  39  67  97 137 182 247 290 365 454
#     4  11  21  42  67 101 134 185 241 297 367 443
#     4  10  21  43  71  98 134 193 245 301 367 458
#     4  10  20  40  71  97 133 181 246 296 370 440
#     4  12  23  39  70 106 143 185 239 307 373 442
#     4  12  26  45  71 102 151 196 240 305 381 450
#
# _framework density 26.005997000000001
#
# number of rings (size 3 to 8) (size 9 to 14) (size 15 to 20)
#    0.000    1.000    6.667    2.000    0.000    4.667 
#    3.000    0.000   14.667    0.000    0.000    0.000 
#    0.000    0.000    0.000    0.000    0.000    0.000 
#
# Total GULP energy -267361.426481 kJ/mol
# GULP energy per Si atom -5570.029718 kJ/mol
# Density = 2.594681 g / cm^3
# Si number density = 26.005997 Si / 1000 Ang^3
#
#
#
# Elastic Constant Matrix: (Units=GPa)
#
#
# Indices 1 2 3 4 5 6 
#
# 1 145.3915 85.5341 46.7774 0.0000 0.0000 0.0000
# 2 85.5341 183.9429 32.8240 0.0000 0.0000 0.0000
# 3 46.7774 32.8240 92.8270 0.0000 0.0000 0.0000
# 4 0.0000 0.0000 0.0000 22.8198 0.0000 0.0000
# 5 0.0000 0.0000 0.0000 0.0000 -37.8714 0.0000
# 6 0.0000 0.0000 0.0000 0.0000 0.0000 38.8144
#
#
#
# Elastic Compliance Matrix: (Units=1/GPa)
#
#
# Indices 1 2 3 4 5 6 
#
# 1 0.010616 -0.004250 -0.003847 0.000000 0.000000 0.000000
# 2 -0.004250 0.007504 -0.000512 0.000000 0.000000 0.000000
# 3 -0.003847 -0.000512 0.012892 0.000000 0.000000 0.000000
# 4 0.000000 0.000000 0.000000 0.043822 0.000000 0.000000
# 5 0.000000 0.000000 0.000000 0.000000 -0.026405 0.000000
# 6 0.000000 0.000000 0.000000 0.000000 0.000000 0.025764
#
#
# Mechanical properties :
#
#
# Convention : Reuss Voigt Hill
#
# Bulk Modulus (GPa) = 72.48995 83.60359 78.04677
# Shear Modulus (GPa) = 52.07920 21.88762 36.98341
#
# Velocity S-wave (km/s) = 4.47988 2.90425 3.77518
# Velocity P-wave (km/s) = 7.39553 6.59271 7.00563
#
# Compressibility (1/GPa) = 0.01379502
#
# Stress axis : x y z
#
# Youngs Moduli (GPa) = 94.19850 133.26125 77.56655
#
# Poissons Ratio (x) = 0.56636 0.29838
# Poissons Ratio (y) = 0.40034 0.03970
# Poissons Ratio (z) = 0.36236 0.06820
#
# Static dielectric constant tensor:
#      x y z
#    x 2.234200 0.000000 0.000000 
#    y 0.000000 2.118940 0.000000 
#    z 0.000000 0.000000 2.217140 
# 
# From -- ./inp_files/12096.got.cif
#   From: 2010.05.17/outbox.cif.g08.bks.cpg/sg52_7_cif.got.tgz:12096.got - 2010.06.03 12:15:38.
