data_PCOD9410728
_publ_section_title
;
Structure prediction by ZEFSAII (Michael W. Deem and Ramdas Pophale) SiO2 
 PCOD9410728
Probable space group: P N N A
;
_chemical_formula_sum "Si O2"
_cell_formula_units_Z 56
_cell_length_a 14.123098
_cell_length_b 8.659362
_cell_length_c 23.612895
_cell_angle_alpha 90.000000
_cell_angle_beta 90.000000
_cell_angle_gamma 90.000000
_cell_volume 2887.786648
_symmetry_space_group_name_H-M "P N N A"
_symmetry_group_IT_number 52
_symmetry_cell_setting 'orthorhombic'
loop_
_space_group_symop_operation_xyz
x,y,z
1/2-x,-y,z
x,1/2-y,1/2-z
1/2-x,1/2+y,1/2-z
-x,-y,-z
1/2+x,y,-z
-x,1/2+y,1/2+z
1/2+x,1/2-y,1/2+z
loop_
_atom_site_type_symbol
_atom_site_label
_atom_site_fract_x
_atom_site_fract_y
_atom_site_fract_z
Si Si1 0.833780 0.221799 0.315237
Si Si2 0.252892 0.182611 0.310392
Si Si3 0.032261 0.549777 0.614777
Si Si4 0.471020 0.275991 0.314231
Si Si5 0.149840 0.131644 0.642827
Si Si6 0.323719 0.642414 0.415819
Si Si7 0.321118 0.643723 0.547005
O O1 0.863038 0.250000 0.250000
O O2 0.893641 0.329243 0.357944
O O3 0.719085 0.239764 0.318590
O O4 0.843466 0.045645 0.337788
O O5 0.218394 0.250000 0.250000
O O6 0.360924 0.238455 0.319053
O O7 0.197392 0.238488 0.365573
O O8 0.250000 0.000000 0.305553
O O9 0.082402 0.437620 0.569055
O O10 0.994931 0.447698 0.667045
O O11 0.935629 0.610779 0.588063
O O12 0.499297 0.250000 0.250000
O O13 0.539781 0.171044 0.351411
O O14 0.185500 0.196547 0.582265
O O15 0.250000 0.500000 0.405070
O O16 0.308361 0.684217 0.481362
O O17 0.250000 0.500000 0.559258
#
# Coordination Sequence:
#
# PCOD9410728 Si02
#       7
#     8   8   8   8   8   8   8
#     4  11  23  38  63  97 128 173 211 270 327 391
#     4  11  25  43  66  94 130 169 216 271 328 386
#     4  11  22  39  65  92 126 166 221 260 328 382
#     4  10  21  37  61  90 125 167 205 264 320 387
#     4  10  22  40  59  92 133 163 216 266 320 389
#     4  11  23  43  65  96 123 172 216 266 316 390
#     4  10  21  42  67  90 127 171 212 266 327 383
#
# _framework density 19.392014
#
# number of rings (size 3 to 8) (size 9 to 14) (size 15 to 20)
#    0.000    1.429    2.857    2.143    4.000    4.000 
#    2.571    0.714    0.000    0.000    0.000    0.000 
#    0.000    0.000    0.000    0.000    0.000    0.000 
#
# Total GULP energy -311830.300777 kJ/mol
# GULP energy per Si atom -5568.398228 kJ/mol
# Density = 1.934788 g / cm^3
# Si number density = 19.392014 Si / 1000 Ang^3
#
#
#
# Elastic Constant Matrix: (Units=GPa)
#
#
# Indices 1 2 3 4 5 6 
#
# 1 61.1724 10.9248 16.2967 0.0000 0.0000 0.0000
# 2 10.9248 95.4194 57.2787 0.0000 0.0000 0.0000
# 3 16.2967 57.2787 132.7472 0.0000 0.0000 0.0000
# 4 0.0000 0.0000 0.0000 32.1051 0.0000 0.0000
# 5 0.0000 0.0000 0.0000 0.0000 26.1266 0.0000
# 6 0.0000 0.0000 0.0000 0.0000 0.0000 31.0838
#
#
#
# Elastic Compliance Matrix: (Units=1/GPa)
#
#
# Indices 1 2 3 4 5 6 
#
# 1 0.016961 -0.000934 -0.001679 0.000000 0.000000 0.000000
# 2 -0.000934 0.014195 -0.006010 0.000000 0.000000 0.000000
# 3 -0.001679 -0.006010 0.010333 0.000000 0.000000 0.000000
# 4 0.000000 0.000000 0.000000 0.031148 0.000000 0.000000
# 5 0.000000 0.000000 0.000000 0.000000 0.038275 0.000000
# 6 0.000000 0.000000 0.000000 0.000000 0.000000 0.032171
#
#
# Mechanical properties :
#
#
# Convention : Reuss Voigt Hill
#
# Bulk Modulus (GPa) = 41.25077 50.92660 46.08868
# Shear Modulus (GPa) = 29.68940 31.51903 30.60421
#
# Velocity S-wave (km/s) = 3.91706 4.03595 3.97695
# Velocity P-wave (km/s) = 6.46344 6.93089 6.70124
#
# Compressibility (1/GPa) = 0.02424197
#
# Stress axis : x y z
#
# Youngs Moduli (GPa) = 58.95741 70.44822 96.78090
#
# Poissons Ratio (x) = 0.06579 0.16252
# Poissons Ratio (y) = 0.05506 0.58168
# Poissons Ratio (z) = 0.09901 0.42341
#
# Static dielectric constant tensor:
#      x y z
#    x 1.642370 0.000000 0.000000 
#    y 0.000000 1.701400 0.000000 
#    z 0.000000 0.000000 1.694150 
# 
# From -- ./inp_files/37302.got.cif
#   From: 2010.05.17/outbox.cif.g08.bks.cpg/sg52_19_cif.got.tgz:37302.got - 2010.06.03 12:15:38.
