data_PCOD9410224
_publ_section_title
;
Structure prediction by ZEFSAII (Michael W. Deem and Ramdas Pophale) SiO2 
 PCOD9410224
Probable space group: P N N A
;
_chemical_formula_sum "Si O2"
_cell_formula_units_Z 32
_cell_length_a 14.661506
_cell_length_b 11.616162
_cell_length_c 8.276266
_cell_angle_alpha 90.000000
_cell_angle_beta 90.000000
_cell_angle_gamma 90.000000
_cell_volume 1409.534412
_symmetry_space_group_name_H-M "P N N A"
_symmetry_group_IT_number 52
_symmetry_cell_setting 'orthorhombic'
loop_
_space_group_symop_operation_xyz
x,y,z
1/2-x,-y,z
x,1/2-y,1/2-z
1/2-x,1/2+y,1/2-z
-x,-y,-z
1/2+x,y,-z
-x,1/2+y,1/2+z
1/2+x,1/2-y,1/2+z
loop_
_atom_site_type_symbol
_atom_site_label
_atom_site_fract_x
_atom_site_fract_y
_atom_site_fract_z
Si Si1 0.621199 0.902088 0.546959
Si Si2 0.022900 0.250000 0.750000
Si Si3 0.822096 0.881166 0.693970
Si Si4 0.934956 0.895564 0.967616
Si Si5 0.572361 0.750000 0.250000
O O1 0.544075 0.838017 0.653325
O O2 0.720289 0.881329 0.627323
O O3 0.621550 0.842183 0.369858
O O4 0.616395 0.042734 0.567728
O O5 0.084341 0.322254 0.626525
O O6 0.839849 0.750000 0.750000
O O7 0.848824 0.938191 0.865255
O O8 0.004925 0.819718 0.863862
O O9 0.000000 0.000000 0.000000
#
# Coordination Sequence:
#
# PCOD9410224 Si02
#       5
#     8   4   8   8   4
#     4  10  22  41  67  92 140 179 219 282 350 405
#     4  10  20  39  65  94 132 176 218 280 344 410
#     4  11  22  40  67  99 132 178 225 285 343 414
#     4  11  22  39  66  96 130 173 224 281 342 412
#     4  10  24  41  65  96 132 180 224 276 346 410
#
# _framework density 22.702532999999999
#
# number of rings (size 3 to 8) (size 9 to 14) (size 15 to 20)
#    0.000    1.500    5.000    0.000    0.000    3.000 
#    0.000    6.250    0.000    0.000    0.000    0.000 
#    0.000    0.000    0.000    0.000    0.000    0.000 
#
# Total GULP energy -178145.433914 kJ/mol
# GULP energy per Si atom -5567.044810 kJ/mol
# Density = 2.265086 g / cm^3
# Si number density = 22.702533 Si / 1000 Ang^3
#
#
#
# Elastic Constant Matrix: (Units=GPa)
#
#
# Indices 1 2 3 4 5 6 
#
# 1 71.1824 9.8358 41.8515 0.0000 0.0000 0.0000
# 2 9.8358 133.1903 43.4654 0.0000 0.0000 0.0000
# 3 41.8515 43.4654 145.1030 0.0000 0.0000 0.0000
# 4 0.0000 0.0000 0.0000 57.1987 0.0000 0.0000
# 5 0.0000 0.0000 0.0000 0.0000 32.9068 0.0000
# 6 0.0000 0.0000 0.0000 0.0000 0.0000 17.7071
#
#
#
# Elastic Compliance Matrix: (Units=1/GPa)
#
#
# Indices 1 2 3 4 5 6 
#
# 1 0.016935 0.000381 -0.004998 0.000000 0.000000 0.000000
# 2 0.000381 0.008330 -0.002605 0.000000 0.000000 0.000000
# 3 -0.004998 -0.002605 0.009114 0.000000 0.000000 0.000000
# 4 0.000000 0.000000 0.000000 0.017483 0.000000 0.000000
# 5 0.000000 0.000000 0.000000 0.000000 0.030389 0.000000
# 6 0.000000 0.000000 0.000000 0.000000 0.000000 0.056475
#
#
# Mechanical properties :
#
#
# Convention : Reuss Voigt Hill
#
# Bulk Modulus (GPa) = 50.16882 59.97566 55.07224
# Shear Modulus (GPa) = 31.28625 38.51739 34.90182
#
# Velocity S-wave (km/s) = 3.71630 4.12346 3.92516
# Velocity P-wave (km/s) = 6.36874 7.01042 6.69727
#
# Compressibility (1/GPa) = 0.01993270
#
# Stress axis : x y z
#
# Youngs Moduli (GPa) = 59.05061 120.04689 109.72545
#
# Poissons Ratio (x) = -0.04569 0.54845
# Poissons Ratio (y) = -0.02247 0.28584
# Poissons Ratio (z) = 0.29516 0.31273
#
# Static dielectric constant tensor:
#      x y z
#    x 1.814130 0.000000 0.000000 
#    y 0.000000 1.999090 0.000000 
#    z 0.000000 0.000000 1.893000 
# 
# From -- ./inp_files/9631.got.cif
#   From: 2010.05.17/outbox.cif.g08.bks.cpg/sg52_5_cif.got.tgz:9631.got - 2010.06.03 12:15:38.
