data_PCOD9410038
_publ_section_title
;
Structure prediction by ZEFSAII (Michael W. Deem and Ramdas Pophale) SiO2 
 PCOD9410038
Probable space group: P N N A
;
_chemical_formula_sum "Si O2"
_cell_formula_units_Z 36
_cell_length_a 15.852956
_cell_length_b 19.197679
_cell_length_c 4.831367
_cell_angle_alpha 90.000000
_cell_angle_beta 90.000000
_cell_angle_gamma 90.000000
_cell_volume 1470.378042
_symmetry_space_group_name_H-M "P N N A"
_symmetry_group_IT_number 52
_symmetry_cell_setting 'orthorhombic'
loop_
_space_group_symop_operation_xyz
x,y,z
1/2-x,-y,z
x,1/2-y,1/2-z
1/2-x,1/2+y,1/2-z
-x,-y,-z
1/2+x,y,-z
-x,1/2+y,1/2+z
1/2+x,1/2-y,1/2+z
loop_
_atom_site_type_symbol
_atom_site_label
_atom_site_fract_x
_atom_site_fract_y
_atom_site_fract_z
Si Si1 0.274636 0.622302 0.352924
Si Si2 0.946821 0.935106 0.899146
Si Si3 0.002378 0.351969 0.904528
Si Si4 0.179279 0.668397 0.830511
Si Si5 0.884880 0.750000 0.750000
O O1 0.344746 0.563866 0.416453
O O2 0.193547 0.624788 0.549762
O O3 0.325970 0.694101 0.403040
O O4 0.247635 0.633821 0.036722
O O5 0.982222 0.870991 0.086997
O O6 0.965973 0.918325 0.581036
O O7 0.000000 0.000000 0.000000
O O8 0.907733 0.338055 0.003188
O O9 0.058785 0.290221 0.027229
O O10 0.187687 0.750000 0.750000
#
# Coordination Sequence:
#
# PCOD9410038 Si02
#       5
#     8   8   8   8   4
#     4  11  23  38  66  91 133 171 216 264 337 397
#     4  11  25  46  66  92 129 182 234 274 311 391
#     4  11  24  40  68  94 134 169 222 272 340 390
#     4  12  22  41  61 103 136 165 203 275 350 408
#     4  10  20  38  60  98 124 176 210 270 332 408
#
# _framework density 24.483498999999998
#
# number of rings (size 3 to 8) (size 9 to 14) (size 15 to 20)
#    0.000    0.889    3.333    4.667    0.000    2.667 
#    0.000    6.667    0.000    0.000    0.000    0.000 
#    0.000    0.000    0.000    0.000    0.000    0.000 
#
# Total GULP energy -201320.651957 kJ/mol
# GULP energy per Si atom -5592.240332 kJ/mol
# Density = 2.442777 g / cm^3
# Si number density = 24.483499 Si / 1000 Ang^3
#
#
#
# Elastic Constant Matrix: (Units=GPa)
#
#
# Indices 1 2 3 4 5 6 
#
# 1 90.2927 -25.5691 12.9558 0.0000 0.0000 0.0000
# 2 -25.5691 16.0042 -6.6495 0.0000 0.0000 0.0000
# 3 12.9558 -6.6495 102.6870 0.0000 0.0000 0.0000
# 4 0.0000 0.0000 0.0000 29.8115 0.0000 0.0000
# 5 0.0000 0.0000 0.0000 0.0000 41.1742 0.0000
# 6 0.0000 0.0000 0.0000 0.0000 0.0000 -4.3445
#
#
#
# Elastic Compliance Matrix: (Units=1/GPa)
#
#
# Indices 1 2 3 4 5 6 
#
# 1 0.020248 0.032153 -0.000473 0.000000 0.000000 0.000000
# 2 0.032153 0.115268 0.003408 0.000000 0.000000 0.000000
# 3 -0.000473 0.003408 0.010019 0.000000 0.000000 0.000000
# 4 0.000000 0.000000 0.000000 0.033544 0.000000 0.000000
# 5 0.000000 0.000000 0.000000 0.000000 0.024287 0.000000
# 6 0.000000 0.000000 0.000000 0.000000 0.000000 -0.230176
#
#
# Mechanical properties :
#
#
# Convention : Reuss Voigt Hill
#
# Bulk Modulus (GPa) = 4.63584 18.93981 11.78782
# Shear Modulus (GPa) = -199.34716 28.54468 -85.40124
#
# Velocity S-wave (km/s) = -9.03315 3.41819 -5.91243
# Velocity P-wave (km/s) = 10.33922 4.83025 6.46406
#
# Compressibility (1/GPa) = 0.21571063
#
# Stress axis : x y z
#
# Youngs Moduli (GPa) = 49.38772 8.67540 99.81418
#
# Poissons Ratio (x) = -0.27894 0.04717
# Poissons Ratio (y) = -1.58795 -0.34012
# Poissons Ratio (z) = 0.02334 -0.02956
#
# Static dielectric constant tensor:
#      x y z
#    x 1.977630 0.000000 0.000000 
#    y 0.000000 1.992820 0.000000 
#    z 0.000000 0.000000 1.950230 
# 
# From -- ./inp_files/3305.got.cif
#   From: 2010.05.17/outbox.cif.g08.bks.cpg/sg52_2_cif.got.tgz:3305.got - 2010.06.03 12:15:38.
