data_PCOD9410421
_publ_section_title
;
Structure prediction by ZEFSAII (Michael W. Deem and Ramdas Pophale) SiO2 
 PCOD9410421
Probable space group: P N N A
;
_chemical_formula_sum "Si O2"
_cell_formula_units_Z 32
_cell_length_a 20.481456
_cell_length_b 9.368573
_cell_length_c 9.150945
_cell_angle_alpha 90.000000
_cell_angle_beta 90.000000
_cell_angle_gamma 90.000000
_cell_volume 1755.901772
_symmetry_space_group_name_H-M "P N N A"
_symmetry_group_IT_number 52
_symmetry_cell_setting 'orthorhombic'
loop_
_space_group_symop_operation_xyz
x,y,z
1/2-x,-y,z
x,1/2-y,1/2-z
1/2-x,1/2+y,1/2-z
-x,-y,-z
1/2+x,y,-z
-x,1/2+y,1/2+z
1/2+x,1/2-y,1/2+z
loop_
_atom_site_type_symbol
_atom_site_label
_atom_site_fract_x
_atom_site_fract_y
_atom_site_fract_z
Si Si1 0.379466 0.750000 0.250000
Si Si2 0.211950 0.144946 0.505710
Si Si3 0.699037 0.631173 0.617162
Si Si4 0.376398 0.750000 0.750000
Si Si5 0.074018 0.450998 0.489993
O O1 0.333854 0.832861 0.364527
O O2 0.421929 0.648074 0.347953
O O3 0.261853 0.277086 0.502630
O O4 0.168020 0.151241 0.648117
O O5 0.250000 0.000000 0.495665
O O6 0.750000 0.500000 0.653338
O O7 0.688984 0.750000 0.750000
O O8 0.632380 0.565009 0.548758
O O9 0.411676 0.645213 0.634065
O O10 0.000000 0.500000 0.500000
#
# Coordination Sequence:
#
# PCOD9410421 Si02
#       5
#     4   8   8   4   8
#     4  10  20  42  64  90 122 168 212 260 306 376
#     4  11  22  38  67  96 129 161 213 270 322 376
#     4  12  21  39  70  98 122 170 221 265 313 386
#     4  10  24  42  62  94 132 164 208 278 328 360
#     4  11  25  44  64  90 133 171 213 262 319 388
#
# _framework density 18.224256
#
# number of rings (size 3 to 8) (size 9 to 14) (size 15 to 20)
#    0.000    1.000    6.250    2.250    5.250    0.000 
#    4.500    2.500    0.000    0.000    0.000    0.000 
#    0.000    0.000    0.000    0.000    0.000    0.000 
#
# Total GULP energy -178282.791802 kJ/mol
# GULP energy per Si atom -5571.337244 kJ/mol
# Density = 1.818278 g / cm^3
# Si number density = 18.224256 Si / 1000 Ang^3
#
#
#
# Elastic Constant Matrix: (Units=GPa)
#
#
# Indices 1 2 3 4 5 6 
#
# 1 169.8510 85.0397 71.9395 0.0000 0.0000 0.0000
# 2 85.0397 130.8612 53.2768 0.0000 0.0000 0.0000
# 3 71.9395 53.2768 123.2534 0.0000 0.0000 0.0000
# 4 0.0000 0.0000 0.0000 8.6082 0.0000 0.0000
# 5 0.0000 0.0000 0.0000 0.0000 10.7815 0.0000
# 6 0.0000 0.0000 0.0000 0.0000 0.0000 -3.5514
#
#
#
# Elastic Compliance Matrix: (Units=1/GPa)
#
#
# Indices 1 2 3 4 5 6 
#
# 1 0.009913 -0.004959 -0.003642 0.000000 0.000000 0.000000
# 2 -0.004959 0.011754 -0.002186 0.000000 0.000000 0.000000
# 3 -0.003642 -0.002186 0.011184 0.000000 0.000000 0.000000
# 4 0.000000 0.000000 0.000000 0.116168 0.000000 0.000000
# 5 0.000000 0.000000 0.000000 0.000000 0.092751 0.000000
# 6 0.000000 0.000000 0.000000 0.000000 0.000000 -0.281580
#
#
# Mechanical properties :
#
#
# Convention : Reuss Voigt Hill
#
# Bulk Modulus (GPa) = 88.68284 93.83085 91.25684
# Shear Modulus (GPa) = -345.43629 17.41499 -164.01065
#
# Velocity S-wave (km/s) = -13.78256 3.09462 -9.49690
# Velocity P-wave (km/s) = 14.30074 8.02293 8.37089
#
# Compressibility (1/GPa) = 0.01127614
#
# Stress axis : x y z
#
# Youngs Moduli (GPa) = 100.87649 85.07397 89.40994
#
# Poissons Ratio (x) = 0.42189 0.32567
# Poissons Ratio (y) = 0.50025 0.19549
# Poissons Ratio (z) = 0.36743 0.18601
#
# Static dielectric constant tensor:
#      x y z
#    x 1.634020 0.000000 0.000000 
#    y 0.000000 1.735110 0.000000 
#    z 0.000000 0.000000 1.625310 
# 
# From -- ./inp_files/12831.got.cif
#   From: 2010.05.17/outbox.cif.g08.bks.cpg/sg52_7_cif.got.tgz:12831.got - 2010.06.03 12:15:38.
