data_PCOD9410708
_publ_section_title
;
Structure prediction by ZEFSAII (Michael W. Deem and Ramdas Pophale) SiO2 
 PCOD9410708
Probable space group: P N N A
;
_chemical_formula_sum "Si O2"
_cell_formula_units_Z 40
_cell_length_a 24.412360
_cell_length_b 6.312447
_cell_length_c 12.662168
_cell_angle_alpha 90.000000
_cell_angle_beta 90.000000
_cell_angle_gamma 90.000000
_cell_volume 1951.261977
_symmetry_space_group_name_H-M "P N N A"
_symmetry_group_IT_number 52
_symmetry_cell_setting 'orthorhombic'
loop_
_space_group_symop_operation_xyz
x,y,z
1/2-x,-y,z
x,1/2-y,1/2-z
1/2-x,1/2+y,1/2-z
-x,-y,-z
1/2+x,y,-z
-x,1/2+y,1/2+z
1/2+x,1/2-y,1/2+z
loop_
_atom_site_type_symbol
_atom_site_label
_atom_site_fract_x
_atom_site_fract_y
_atom_site_fract_z
Si Si1 0.003002 0.110737 0.388595
Si Si2 0.687116 0.002979 0.044557
Si Si3 0.880963 0.345558 0.141054
Si Si4 0.653411 0.250000 0.250000
Si Si5 0.111304 0.377606 0.356158
Si Si6 0.555194 0.750000 0.750000
O O1 0.053815 0.268611 0.386272
O O2 0.944163 0.218416 0.373309
O O3 0.017759 0.926989 0.305193
O O4 0.000000 0.000000 0.500000
O O5 0.685599 0.117771 0.160032
O O6 0.750000 0.000000 0.011408
O O7 0.658354 0.770242 0.057506
O O8 0.652154 0.123696 0.954734
O O9 0.860671 0.250000 0.250000
O O10 0.879859 0.593192 0.171258
O O11 0.130192 0.250000 0.250000
O O12 0.094869 0.617799 0.326942
#
# Coordination Sequence:
#
# PCOD9410708 Si02
#       6
#     8   8   8   4   8   4
#     4  11  21  35  63  93 130 166 206 262 325 387
#     4  11  25  42  65  90 126 170 218 273 323 385
#     4  10  21  37  59  95 124 159 204 251 320 389
#     4  10  23  40  66  92 130 160 209 264 336 398
#     4  10  23  43  63  94 130 173 223 268 323 386
#     4  10  21  38  62  90 134 172 209 266 322 392
#
# _framework density 20.499552999999999
#
# number of rings (size 3 to 8) (size 9 to 14) (size 15 to 20)
#    0.000    1.600    0.000    4.800    4.200    8.000 
#    1.800    0.000    0.000    0.000    0.000    0.000 
#    0.000    0.000    0.000    0.000    0.000    0.000 
#
# Total GULP energy -222839.798767 kJ/mol
# GULP energy per Si atom -5570.994969 kJ/mol
# Density = 2.045289 g / cm^3
# Si number density = 20.499553 Si / 1000 Ang^3
#
#
#
# Elastic Constant Matrix: (Units=GPa)
#
#
# Indices 1 2 3 4 5 6 
#
# 1 147.6710 56.3261 49.7138 0.0000 0.0000 0.0000
# 2 56.3261 75.8972 25.2979 0.0000 0.0000 0.0000
# 3 49.7138 25.2979 98.9060 0.0000 0.0000 0.0000
# 4 0.0000 0.0000 0.0000 21.7119 0.0000 0.0000
# 5 0.0000 0.0000 0.0000 0.0000 15.2433 0.0000
# 6 0.0000 0.0000 0.0000 0.0000 0.0000 0.4330
#
#
#
# Elastic Compliance Matrix: (Units=1/GPa)
#
#
# Indices 1 2 3 4 5 6 
#
# 1 0.010494 -0.006592 -0.003589 0.000000 0.000000 0.000000
# 2 -0.006592 0.018545 -0.001430 0.000000 0.000000 0.000000
# 3 -0.003589 -0.001430 0.012280 0.000000 0.000000 0.000000
# 4 0.000000 0.000000 0.000000 0.046058 0.000000 0.000000
# 5 0.000000 0.000000 0.000000 0.000000 0.065602 0.000000
# 6 0.000000 0.000000 0.000000 0.000000 0.000000 2.309369
#
#
# Mechanical properties :
#
#
# Convention : Reuss Voigt Hill
#
# Bulk Modulus (GPa) = 55.25554 65.01662 60.13608
# Shear Modulus (GPa) = 2.00674 20.22007 11.11340
#
# Velocity S-wave (km/s) = 0.99048 3.14405 2.33089
# Velocity P-wave (km/s) = 5.32176 6.70560 6.05335
#
# Compressibility (1/GPa) = 0.01809773
#
# Stress axis : x y z
#
# Youngs Moduli (GPa) = 95.28903 53.92425 81.43201
#
# Poissons Ratio (x) = 0.35547 0.29224
# Poissons Ratio (y) = 0.62815 0.11644
# Poissons Ratio (z) = 0.34197 0.07710
#
# Static dielectric constant tensor:
#      x y z
#    x 1.749730 0.000000 0.000000 
#    y 0.000000 1.913670 0.000000 
#    z 0.000000 0.000000 1.769900 
# 
# From -- ./inp_files/29069.got.cif
#   From: 2010.05.17/outbox.cif.g08.bks.cpg/sg52_15_cif.got.tgz:29069.got - 2010.06.03 12:15:38.
