data_PCOD9410818
_publ_section_title
;
Structure prediction by ZEFSAII (Michael W. Deem and Ramdas Pophale) SiO2 
 PCOD9410818
Probable space group: P N N A
;
_chemical_formula_sum "Si O2"
_cell_formula_units_Z 56
_cell_length_a 21.033242
_cell_length_b 8.122940
_cell_length_c 14.856700
_cell_angle_alpha 90.000000
_cell_angle_beta 90.000000
_cell_angle_gamma 90.000000
_cell_volume 2538.293384
_symmetry_space_group_name_H-M "P N N A"
_symmetry_group_IT_number 52
_symmetry_cell_setting 'orthorhombic'
loop_
_space_group_symop_operation_xyz
x,y,z
1/2-x,-y,z
x,1/2-y,1/2-z
1/2-x,1/2+y,1/2-z
-x,-y,-z
1/2+x,y,-z
-x,1/2+y,1/2+z
1/2+x,1/2-y,1/2+z
loop_
_atom_site_type_symbol
_atom_site_label
_atom_site_fract_x
_atom_site_fract_y
_atom_site_fract_z
Si Si1 0.497853 0.889783 0.591540
Si Si2 0.387932 0.199077 0.037252
Si Si3 0.221856 0.681621 0.150690
Si Si4 0.126999 0.290002 0.652088
Si Si5 0.076980 0.839676 0.842173
Si Si6 0.834402 0.668482 0.539364
Si Si7 0.439344 0.807735 0.342357
O O1 0.540895 0.730435 0.572451
O O2 0.429137 0.837802 0.626428
O O3 0.500000 0.000000 0.500000
O O4 0.532818 0.008908 0.662487
O O5 0.341846 0.317586 0.092105
O O6 0.361581 0.015492 0.051210
O O7 0.389519 0.233305 0.930799
O O8 0.250000 0.500000 0.157278
O O9 0.209740 0.750000 0.250000
O O10 0.272424 0.794527 0.097236
O O11 0.154617 0.250000 0.750000
O O12 0.094255 0.469166 0.659216
O O13 0.173907 0.298073 0.566758
O O14 0.095763 0.750000 0.750000
O O15 0.001728 0.806005 0.853822
O O16 0.890536 0.783837 0.577356
O O17 0.406832 0.750000 0.250000
#
# Coordination Sequence:
#
# PCOD9410818 Si02
#       7
#     8   8   8   8   8   8   8
#     4  12  22  38  62  95 136 169 216 263 325 393
#     4  11  24  41  64  90 127 171 210 267 322 381
#     4  12  27  46  70  94 125 167 218 270 322 384
#     4  11  23  37  63  95 129 168 211 265 324 388
#     4  10  21  38  61  92 127 166 209 261 325 389
#     4  11  23  43  63  92 128 166 219 266 321 376
#     4  11  21  35  60  89 128 166 209 261 319 383
#
# _framework density 22.062066999999999
#
# number of rings (size 3 to 8) (size 9 to 14) (size 15 to 20)
#    0.000    0.857    2.857    5.143    0.000    4.000 
#    0.000    0.714    0.000    0.000    0.000    0.000 
#    0.000    0.000    0.000    0.000    0.000    0.000 
#
# Total GULP energy -313331.558372 kJ/mol
# GULP energy per Si atom -5595.206400 kJ/mol
# Density = 2.201185 g / cm^3
# Si number density = 22.062067 Si / 1000 Ang^3
#
#
#
# Elastic Constant Matrix: (Units=GPa)
#
#
# Indices 1 2 3 4 5 6 
#
# 1 35.2526 -2.8121 25.1526 0.0000 0.0000 0.0000
# 2 -2.8121 67.3033 19.0141 0.0000 0.0000 0.0000
# 3 25.1526 19.0141 149.5876 0.0000 0.0000 0.0000
# 4 0.0000 0.0000 0.0000 30.9637 0.0000 0.0000
# 5 0.0000 0.0000 0.0000 0.0000 16.1715 0.0000
# 6 0.0000 0.0000 0.0000 0.0000 0.0000 29.3802
#
#
#
# Elastic Compliance Matrix: (Units=1/GPa)
#
#
# Indices 1 2 3 4 5 6 
#
# 1 0.032823 0.003040 -0.005905 0.000000 0.000000 0.000000
# 2 0.003040 0.015693 -0.002506 0.000000 0.000000 0.000000
# 3 -0.005905 -0.002506 0.007997 0.000000 0.000000 0.000000
# 4 0.000000 0.000000 0.000000 0.032296 0.000000 0.000000
# 5 0.000000 0.000000 0.000000 0.000000 0.061837 0.000000
# 6 0.000000 0.000000 0.000000 0.000000 0.000000 0.034037
#
#
# Mechanical properties :
#
#
# Convention : Reuss Voigt Hill
#
# Bulk Modulus (GPa) = 21.84874 37.20586 29.52730
# Shear Modulus (GPa) = 23.73252 29.35565 26.54409
#
# Velocity S-wave (km/s) = 3.28337 3.65169 3.47242
# Velocity P-wave (km/s) = 4.92938 5.88902 5.43044
#
# Compressibility (1/GPa) = 0.04576923
#
# Stress axis : x y z
#
# Youngs Moduli (GPa) = 30.46674 63.72245 125.05412
#
# Poissons Ratio (x) = -0.19370 0.73849
# Poissons Ratio (y) = -0.09261 0.31337
# Poissons Ratio (z) = 0.17992 0.15968
#
# Static dielectric constant tensor:
#      x y z
#    x 1.782990 0.000000 0.000000 
#    y 0.000000 1.835640 0.000000 
#    z 0.000000 0.000000 1.844980 
# 
# From -- ./inp_files/28761.got.cif
#   From: 2010.05.17/outbox.cif.g08.bks.cpg/sg52_15_cif.got.tgz:28761.got - 2010.06.03 12:15:38.
