data_PCOD9410409
_publ_section_title
;
Structure prediction by ZEFSAII (Michael W. Deem and Ramdas Pophale) SiO2 
 PCOD9410409
Probable space group: P N N A
;
_chemical_formula_sum "Si O2"
_cell_formula_units_Z 40
_cell_length_a 16.420026
_cell_length_b 7.392712
_cell_length_c 16.597089
_cell_angle_alpha 90.000000
_cell_angle_beta 90.000000
_cell_angle_gamma 90.000000
_cell_volume 2014.696124
_symmetry_space_group_name_H-M "P N N A"
_symmetry_group_IT_number 52
_symmetry_cell_setting 'orthorhombic'
loop_
_space_group_symop_operation_xyz
x,y,z
1/2-x,-y,z
x,1/2-y,1/2-z
1/2-x,1/2+y,1/2-z
-x,-y,-z
1/2+x,y,-z
-x,1/2+y,1/2+z
1/2+x,1/2-y,1/2+z
loop_
_atom_site_type_symbol
_atom_site_label
_atom_site_fract_x
_atom_site_fract_y
_atom_site_fract_z
Si Si1 0.276490 0.710313 0.579907
Si Si2 0.591158 0.392156 0.313727
Si Si3 0.779272 0.707794 0.598732
Si Si4 0.670909 0.750000 0.750000
Si Si5 0.931968 0.595031 0.685208
Si Si6 0.750000 0.500000 0.209713
O O1 0.250000 0.500000 0.579698
O O2 0.370139 0.705481 0.609033
O O3 0.264452 0.783951 0.490194
O O4 0.235513 0.831109 0.649499
O O5 0.554801 0.250000 0.250000
O O6 0.520727 0.526478 0.339893
O O7 0.669497 0.469531 0.263888
O O8 0.750000 0.500000 0.596082
O O9 0.729308 0.791764 0.673267
O O10 0.874437 0.686990 0.618581
O O11 0.617780 0.575572 0.723609
O O12 0.944555 0.750000 0.750000
#
# Coordination Sequence:
#
# PCOD9410409 Si02
#       6
#     8   8   8   4   8   4
#     4  10  21  37  60  87 116 150 194 243 285 344
#     4  10  21  38  59  85 120 152 197 241 285 344
#     4   9  20  38  61  87 114 154 193 237 297 336
#     4  10  20  42  58  84 122 146 196 246 280 354
#     4  11  22  34  61  89 111 157 197 233 290 347
#     4  10  22  38  62  84 112 162 194 232 298 340
#
# _framework density 19.854112000000001
#
# number of rings (size 3 to 8) (size 9 to 14) (size 15 to 20)
#    0.000    2.000    3.000    0.000    2.800    2.400 
#    0.000    0.000    0.000    3.600    0.000    0.000 
#    0.000    0.000    0.000    0.000    0.000    0.000 
#
# Total GULP energy -222894.307910 kJ/mol
# GULP energy per Si atom -5572.357698 kJ/mol
# Density = 1.980892 g / cm^3
# Si number density = 19.854112 Si / 1000 Ang^3
#
#
#
# Elastic Constant Matrix: (Units=GPa)
#
#
# Indices 1 2 3 4 5 6 
#
# 1 75.0206 -3.2387 21.3766 0.0000 0.0000 0.0000
# 2 -3.2387 58.5793 0.2709 0.0000 0.0000 0.0000
# 3 21.3766 0.2709 107.3282 0.0000 0.0000 0.0000
# 4 0.0000 0.0000 0.0000 13.1580 0.0000 0.0000
# 5 0.0000 0.0000 0.0000 0.0000 -6.6902 0.0000
# 6 0.0000 0.0000 0.0000 0.0000 0.0000 24.2437
#
#
#
# Elastic Compliance Matrix: (Units=1/GPa)
#
#
# Indices 1 2 3 4 5 6 
#
# 1 0.014169 0.000796 -0.002824 0.000000 0.000000 0.000000
# 2 0.000796 0.017116 -0.000202 0.000000 0.000000 0.000000
# 3 -0.002824 -0.000202 0.009880 0.000000 0.000000 0.000000
# 4 0.000000 0.000000 0.000000 0.075999 0.000000 0.000000
# 5 0.000000 0.000000 0.000000 0.000000 -0.149473 0.000000
# 6 0.000000 0.000000 0.000000 0.000000 0.000000 0.041248
#
#
# Mechanical properties :
#
#
# Convention : Reuss Voigt Hill
#
# Bulk Modulus (GPa) = 27.24355 30.86063 29.05209
# Shear Modulus (GPa) = 195.06492 20.97694 108.02093
#
# Velocity S-wave (km/s) = 9.92282 3.25399 7.38413
# Velocity P-wave (km/s) = 12.04304 5.44935 9.34693
#
# Compressibility (1/GPa) = 0.03670594
#
# Stress axis : x y z
#
# Youngs Moduli (GPa) = 70.57791 58.42541 101.21268
#
# Poissons Ratio (x) = -0.04653 0.28582
# Poissons Ratio (y) = -0.05621 0.02043
# Poissons Ratio (z) = 0.19931 0.01179
#
# Static dielectric constant tensor:
#      x y z
#    x 1.710120 0.000000 0.000000 
#    y 0.000000 1.771090 0.000000 
#    z 0.000000 0.000000 1.727600 
# 
# From -- ./inp_files/26985.got.cif
#   From: 2010.05.17/outbox.cif.g08.bks.cpg/sg52_14_cif.got.tgz:26985.got - 2010.06.03 12:15:38.
