data_PCOD9410430
_publ_section_title
;
Structure prediction by ZEFSAII (Michael W. Deem and Ramdas Pophale) SiO2 
 PCOD9410430
Probable space group: P N N A
;
_chemical_formula_sum "Si O2"
_cell_formula_units_Z 48
_cell_length_a 14.920516
_cell_length_b 17.107896
_cell_length_c 9.051041
_cell_angle_alpha 90.000000
_cell_angle_beta 90.000000
_cell_angle_gamma 90.000000
_cell_volume 2310.356380
_symmetry_space_group_name_H-M "P N N A"
_symmetry_group_IT_number 52
_symmetry_cell_setting 'orthorhombic'
loop_
_space_group_symop_operation_xyz
x,y,z
1/2-x,-y,z
x,1/2-y,1/2-z
1/2-x,1/2+y,1/2-z
-x,-y,-z
1/2+x,y,-z
-x,1/2+y,1/2+z
1/2+x,1/2-y,1/2+z
loop_
_atom_site_type_symbol
_atom_site_label
_atom_site_fract_x
_atom_site_fract_y
_atom_site_fract_z
Si Si1 0.894585 0.691333 0.542313
Si Si2 0.643882 0.750000 0.250000
Si Si3 0.560688 0.045040 0.761075
Si Si4 0.484221 0.369044 0.305380
Si Si5 0.803603 0.341642 0.523004
Si Si6 0.509306 0.841578 0.459308
Si Si7 0.250000 0.500000 0.352853
O O1 0.944160 0.621625 0.633212
O O2 0.790129 0.692189 0.583268
O O3 0.932049 0.777346 0.566538
O O4 0.925598 0.666485 0.376693
O O5 0.693038 0.690737 0.358437
O O6 0.589070 0.804296 0.363947
O O7 0.518719 0.075962 0.610352
O O8 0.666763 0.027259 0.754374
O O9 0.517826 0.963960 0.817791
O O10 0.398424 0.331775 0.392349
O O11 0.473604 0.349932 0.132886
O O12 0.786424 0.433168 0.540721
#
# Coordination Sequence:
#
# PCOD9410430 Si02
#       7
#     8   4   8   8   8   8   4
#     4  11  22  42  67  91 129 172 217 259 326 387
#     4  12  24  42  62  98 128 172 216 268 330 382
#     4  10  20  42  65  96 130 174 211 268 318 389
#     4  11  23  42  68  94 128 169 218 263 324 386
#     4  10  23  42  66  93 127 171 217 271 317 389
#     4  12  23  41  64  98 132 168 216 267 324 387
#     4   8  20  42  66  96 128 172 226 254 330 390
#
# _framework density 20.776017
#
# number of rings (size 3 to 8) (size 9 to 14) (size 15 to 20)
#    0.000    1.333    3.333    1.500    2.333    2.667 
#   15.000    0.000    0.000    1.000    0.000    0.000 
#    0.000    0.000    0.000    0.000    0.000    0.000 
#
# Total GULP energy -267699.067419 kJ/mol
# GULP energy per Si atom -5577.063905 kJ/mol
# Density = 2.072873 g / cm^3
# Si number density = 20.776017 Si / 1000 Ang^3
#
#
#
# Elastic Constant Matrix: (Units=GPa)
#
#
# Indices 1 2 3 4 5 6 
#
# 1 58.2735 17.2211 9.7799 0.0000 0.0000 0.0000
# 2 17.2211 63.3717 2.0874 0.0000 0.0000 0.0000
# 3 9.7799 2.0874 80.6520 0.0000 0.0000 0.0000
# 4 0.0000 0.0000 0.0000 36.0550 0.0000 0.0000
# 5 0.0000 0.0000 0.0000 0.0000 14.5135 0.0000
# 6 0.0000 0.0000 0.0000 0.0000 0.0000 5.7585
#
#
#
# Elastic Compliance Matrix: (Units=1/GPa)
#
#
# Indices 1 2 3 4 5 6 
#
# 1 0.019033 -0.005100 -0.002176 0.000000 0.000000 0.000000
# 2 -0.005100 0.017160 0.000174 0.000000 0.000000 0.000000
# 3 -0.002176 0.000174 0.012658 0.000000 0.000000 0.000000
# 4 0.000000 0.000000 0.000000 0.027735 0.000000 0.000000
# 5 0.000000 0.000000 0.000000 0.000000 0.068901 0.000000
# 6 0.000000 0.000000 0.000000 0.000000 0.000000 0.173656
#
#
# Mechanical properties :
#
#
# Convention : Reuss Voigt Hill
#
# Bulk Modulus (GPa) = 28.86227 28.94156 28.90191
# Shear Modulus (GPa) = 14.49706 22.81264 18.65485
#
# Velocity S-wave (km/s) = 2.64442 3.31724 2.99975
# Velocity P-wave (km/s) = 4.82143 5.35095 5.09308
#
# Compressibility (1/GPa) = 0.03464731
#
# Stress axis : x y z
#
# Youngs Moduli (GPa) = 52.54042 58.27426 78.99958
#
# Poissons Ratio (x) = 0.29723 0.17190
# Poissons Ratio (y) = 0.26798 -0.01377
# Poissons Ratio (z) = 0.11432 -0.01016
#
# Static dielectric constant tensor:
#      x y z
#    x 1.768980 0.000000 0.000000 
#    y 0.000000 1.753520 0.000000 
#    z 0.000000 0.000000 1.763170 
# 
# From -- ./inp_files/10521.got.cif
#   From: 2010.05.17/outbox.cif.g08.bks.cpg/sg52_6_cif.got.tgz:10521.got - 2010.06.03 12:15:38.
