data_PCOD9410002
_publ_section_title
;
Structure prediction by ZEFSAII (Michael W. Deem and Ramdas Pophale) SiO2 
 PCOD9410002
Probable space group: P N N A
;
_chemical_formula_sum "Si O2"
_cell_formula_units_Z 48
_cell_length_a 8.292849
_cell_length_b 24.439368
_cell_length_c 11.979398
_cell_angle_alpha 90.000000
_cell_angle_beta 90.000000
_cell_angle_gamma 90.000000
_cell_volume 2427.888413
_symmetry_space_group_name_H-M "P N N A"
_symmetry_group_IT_number 52
_symmetry_cell_setting 'orthorhombic'
loop_
_space_group_symop_operation_xyz
x,y,z
1/2-x,-y,z
x,1/2-y,1/2-z
1/2-x,1/2+y,1/2-z
-x,-y,-z
1/2+x,y,-z
-x,1/2+y,1/2+z
1/2+x,1/2-y,1/2+z
loop_
_atom_site_type_symbol
_atom_site_label
_atom_site_fract_x
_atom_site_fract_y
_atom_site_fract_z
Si Si1 0.596018 0.596499 0.707752
Si Si2 0.030255 0.091935 0.224439
Si Si3 0.068156 0.796552 0.837545
Si Si4 0.944083 0.006958 0.625514
Si Si5 0.164477 0.943861 0.976619
Si Si6 0.126056 0.332477 0.559381
O O1 0.782404 0.608080 0.736309
O O2 0.517364 0.563887 0.810837
O O3 0.609553 0.554027 0.604517
O O4 0.503855 0.647586 0.651930
O O5 0.930210 0.147229 0.232937
O O6 0.986229 0.067188 0.103763
O O7 0.984521 0.044444 0.308512
O O8 0.020545 0.750000 0.750000
O O9 0.246484 0.790018 0.889128
O O10 0.953654 0.809297 0.945488
O O11 0.750000 0.000000 0.632823
O O12 0.000000 0.000000 0.500000
O O13 0.270549 0.888187 0.964294
O O14 0.250000 0.000000 0.944537
#
# Coordination Sequence:
#
# PCOD9410002 Si02
#       6
#     8   8   8   8   8   8
#     4  11  19  35  62  89 124 155 193 245 304 367
#     4  10  20  38  58  88 123 158 199 247 301 356
#     4  11  23  42  64  87 118 154 204 268 319 367
#     4  10  23  37  55  83 128 169 199 231 286 367
#     4  11  19  30  60 101 126 152 186 240 309 372
#     4  11  21  39  62  92 123 149 199 259 313 370
#
# _framework density 19.770265999999999
#
# number of rings (size 3 to 8) (size 9 to 14) (size 15 to 20)
#    0.000    1.333    5.000    2.500    0.000    5.333 
#    0.000    8.333    0.000    0.000    0.000    0.000 
#    0.000    0.000    0.000    0.000    0.000    0.000 
#
# Total GULP energy -267738.373788 kJ/mol
# GULP energy per Si atom -5577.882787 kJ/mol
# Density = 1.972527 g / cm^3
# Si number density = 19.770266 Si / 1000 Ang^3
#
#
#
# Elastic Constant Matrix: (Units=GPa)
#
#
# Indices 1 2 3 4 5 6 
#
# 1 50.7360 12.0465 22.8330 0.0000 0.0000 0.0000
# 2 12.0465 61.1103 33.4607 0.0000 0.0000 0.0000
# 3 22.8330 33.4607 116.9374 0.0000 0.0000 0.0000
# 4 0.0000 0.0000 0.0000 37.2904 0.0000 0.0000
# 5 0.0000 0.0000 0.0000 0.0000 26.2330 0.0000
# 6 0.0000 0.0000 0.0000 0.0000 0.0000 17.5404
#
#
#
# Elastic Compliance Matrix: (Units=1/GPa)
#
#
# Indices 1 2 3 4 5 6 
#
# 1 0.021888 -0.002341 -0.003604 0.000000 0.000000 0.000000
# 2 -0.002341 0.019654 -0.005167 0.000000 0.000000 0.000000
# 3 -0.003604 -0.005167 0.010734 0.000000 0.000000 0.000000
# 4 0.000000 0.000000 0.000000 0.026817 0.000000 0.000000
# 5 0.000000 0.000000 0.000000 0.000000 0.038120 0.000000
# 6 0.000000 0.000000 0.000000 0.000000 0.000000 0.057011
#
#
# Mechanical properties :
#
#
# Convention : Reuss Voigt Hill
#
# Bulk Modulus (GPa) = 33.27579 40.60710 36.94145
# Shear Modulus (GPa) = 24.21723 26.90901 25.56312
#
# Velocity S-wave (km/s) = 3.50370 3.69329 3.59974
# Velocity P-wave (km/s) = 5.76504 6.22666 6.00029
#
# Compressibility (1/GPa) = 0.03005187
#
# Stress axis : x y z
#
# Youngs Moduli (GPa) = 45.68788 50.87900 93.16468
#
# Poissons Ratio (x) = 0.11913 0.33574
# Poissons Ratio (y) = 0.10697 0.48136
# Poissons Ratio (z) = 0.16465 0.26288
#
# Static dielectric constant tensor:
#      x y z
#    x 1.793240 0.000000 0.000000 
#    y 0.000000 1.713400 0.000000 
#    z 0.000000 0.000000 1.718010 
# 
# From -- ./inp_files/17058.got.cif
#   From: 2010.05.17/outbox.cif.g08.bks.cpg/sg52_9_cif.got.tgz:17058.got - 2010.06.03 12:15:38.
