data_PCOD9410559
_publ_section_title
;
Structure prediction by ZEFSAII (Michael W. Deem and Ramdas Pophale) SiO2 
 PCOD9410559
Probable space group: P N N A
;
_chemical_formula_sum "Si O2"
_cell_formula_units_Z 64
_cell_length_a 9.038511
_cell_length_b 16.538875
_cell_length_c 25.281195
_cell_angle_alpha 90.000000
_cell_angle_beta 90.000000
_cell_angle_gamma 90.000000
_cell_volume 3779.205032
_symmetry_space_group_name_H-M "P N N A"
_symmetry_group_IT_number 52
_symmetry_cell_setting 'orthorhombic'
loop_
_space_group_symop_operation_xyz
x,y,z
1/2-x,-y,z
x,1/2-y,1/2-z
1/2-x,1/2+y,1/2-z
-x,-y,-z
1/2+x,y,-z
-x,1/2+y,1/2+z
1/2+x,1/2-y,1/2+z
loop_
_atom_site_type_symbol
_atom_site_label
_atom_site_fract_x
_atom_site_fract_y
_atom_site_fract_z
Si Si1 0.665754 0.339508 0.848960
Si Si2 0.857468 0.687337 0.298777
Si Si3 0.473318 0.201563 0.805954
Si Si4 0.501950 0.806067 0.629964
Si Si5 0.366132 0.604700 0.956969
Si Si6 0.976724 0.069581 0.434294
Si Si7 0.630503 0.440075 0.747522
Si Si8 0.111669 0.057596 0.711160
O O1 0.580064 0.255325 0.841369
O O2 0.554840 0.395517 0.882464
O O3 0.696220 0.378383 0.791097
O O4 0.825606 0.326522 0.873952
O O5 0.868941 0.750000 0.250000
O O6 0.695250 0.695512 0.324355
O O7 0.974745 0.720064 0.341305
O O8 0.867640 0.602386 0.268020
O O9 0.464719 0.250000 0.750000
O O10 0.540467 0.114440 0.793169
O O11 0.427844 0.817299 0.573014
O O12 0.421507 0.873287 0.667904
O O13 0.190172 0.599569 0.947238
O O14 0.451013 0.526801 0.931567
O O15 0.414394 0.594897 0.017758
O O16 0.750000 0.500000 0.722975
O O17 0.523740 0.497752 0.780827
O O18 0.250000 0.000000 0.697436
#
# Coordination Sequence:
#
# PCOD9410559 Si02
#       8
#     8   8   8   8   8   8   8   8
#     4  11  22  33  48  71  99 133 164 202 245 295
#     4   9  19  33  47  67  93 129 164 205 241 288
#     4   9  19  33  47  65  97 128 163 202 246 286
#     4  11  22  32  50  70  99 130 169 200 245 293
#     4  10  21  35  52  73  96 130 162 208 242 289
#     4  10  21  35  53  71 100 126 165 204 248 284
#     4  11  21  32  48  72  98 131 166 206 244 288
#     4  11  21  32  50  70  96 130 170 205 241 288
#
# _framework density 16.934778000000001
#
# number of rings (size 3 to 8) (size 9 to 14) (size 15 to 20)
#    0.000    1.750    2.500    2.250    7.000    2.500 
#    0.000    0.000    0.000    0.000    0.000    0.000 
#    0.000    2.000    0.000    0.125    0.000    0.125 
#
# Total GULP energy -356839.421000 kJ/mol
# GULP energy per Si atom -5575.615953 kJ/mol
# Density = 1.689623 g / cm^3
# Si number density = 16.934778 Si / 1000 Ang^3
#
#
#
# Elastic Constant Matrix: (Units=GPa)
#
#
# Indices 1 2 3 4 5 6 
#
# 1 73.4756 4.8891 9.0873 0.0000 0.0000 0.0000
# 2 4.8891 37.0509 12.3916 0.0000 0.0000 0.0000
# 3 9.0873 12.3916 39.5466 0.0000 0.0000 0.0000
# 4 0.0000 0.0000 0.0000 21.8291 0.0000 0.0000
# 5 0.0000 0.0000 0.0000 0.0000 21.5932 0.0000
# 6 0.0000 0.0000 0.0000 0.0000 0.0000 20.5796
#
#
#
# Elastic Compliance Matrix: (Units=1/GPa)
#
#
# Indices 1 2 3 4 5 6 
#
# 1 0.014033 -0.000864 -0.002954 0.000000 0.000000 0.000000
# 2 -0.000864 0.030203 -0.009265 0.000000 0.000000 0.000000
# 3 -0.002954 -0.009265 0.028869 0.000000 0.000000 0.000000
# 4 0.000000 0.000000 0.000000 0.045810 0.000000 0.000000
# 5 0.000000 0.000000 0.000000 0.000000 0.046311 0.000000
# 6 0.000000 0.000000 0.000000 0.000000 0.000000 0.048592
#
#
# Mechanical properties :
#
#
# Convention : Reuss Voigt Hill
#
# Bulk Modulus (GPa) = 21.30466 22.53435 21.91951
# Shear Modulus (GPa) = 19.55958 21.04738 20.30348
#
# Velocity S-wave (km/s) = 3.40221 3.52923 3.46630
# Velocity P-wave (km/s) = 5.29538 5.47200 5.38441
#
# Compressibility (1/GPa) = 0.04693808
#
# Stress axis : x y z
#
# Youngs Moduli (GPa) = 71.26183 33.10970 34.63967
#
# Poissons Ratio (x) = 0.02860 0.10232
# Poissons Ratio (y) = 0.06155 0.32095
# Poissons Ratio (z) = 0.21050 0.30677
#
# Static dielectric constant tensor:
#      x y z
#    x 1.623030 0.000000 0.000000 
#    y 0.000000 1.604110 0.000000 
#    z 0.000000 0.000000 1.584120 
# 
# From -- ./inp_files/39663.got.cif
#   From: 2010.05.17/outbox.cif.g08.bks.cpg/sg52_20_cif.got.tgz:39663.got - 2010.06.03 12:15:38.
