data_PCOD9410206
_publ_section_title
;
Structure prediction by ZEFSAII (Michael W. Deem and Ramdas Pophale) SiO2 
 PCOD9410206
Probable space group: P N N A
;
_chemical_formula_sum "Si O2"
_cell_formula_units_Z 48
_cell_length_a 9.227637
_cell_length_b 8.217958
_cell_length_c 29.989944
_cell_angle_alpha 90.000000
_cell_angle_beta 90.000000
_cell_angle_gamma 90.000000
_cell_volume 2274.207429
_symmetry_space_group_name_H-M "P N N A"
_symmetry_group_IT_number 52
_symmetry_cell_setting 'orthorhombic'
loop_
_space_group_symop_operation_xyz
x,y,z
1/2-x,-y,z
x,1/2-y,1/2-z
1/2-x,1/2+y,1/2-z
-x,-y,-z
1/2+x,y,-z
-x,1/2+y,1/2+z
1/2+x,1/2-y,1/2+z
loop_
_atom_site_type_symbol
_atom_site_label
_atom_site_fract_x
_atom_site_fract_y
_atom_site_fract_z
Si Si1 0.414722 0.054382 0.756837
Si Si2 0.863616 0.651064 0.473332
Si Si3 0.077158 0.507714 0.171007
Si Si4 0.337740 0.667374 0.883126
Si Si5 0.428272 0.161621 0.849703
Si Si6 0.599534 0.059584 0.934764
O O1 0.419874 0.250000 0.750000
O O2 0.453937 0.039951 0.808794
O O3 0.250000 0.000000 0.748255
O O4 0.519694 0.967327 0.721642
O O5 0.750000 0.500000 0.469172
O O6 0.832429 0.780774 0.434900
O O7 0.869278 0.691022 0.526053
O O8 0.023379 0.587712 0.460859
O O9 0.250000 0.500000 0.167807
O O10 0.995272 0.634125 0.138114
O O11 0.013795 0.329632 0.159144
O O12 0.250000 0.500000 0.878141
O O13 0.241498 0.796538 0.855539
O O14 0.488704 0.103733 0.896629
O O15 0.750000 0.000000 0.914985
#
# Coordination Sequence:
#
# PCOD9410206 Si02
#       6
#     8   8   8   8   8   8
#     4  10  21  40  62  87 117 156 200 243 290 357
#     4  10  20  39  64  85 119 161 200 250 303 359
#     4  10  22  40  59  86 125 155 191 253 308 353
#     4  10  21  40  64  87 117 160 205 245 296 366
#     4  10  21  39  61  86 118 159 206 244 289 366
#     4  10  22  36  58  91 123 152 202 255 302 350
#
# _framework density 21.106252999999999
#
# number of rings (size 3 to 8) (size 9 to 14) (size 15 to 20)
#    0.000    2.000    1.667    2.500    4.667    0.667 
#    0.000   11.667    0.000    0.000    0.000    0.000 
#    0.000    0.000    0.000    0.000    0.000    0.000 
#
# Total GULP energy -267761.686785 kJ/mol
# GULP energy per Si atom -5578.368475 kJ/mol
# Density = 2.105821 g / cm^3
# Si number density = 21.106253 Si / 1000 Ang^3
#
#
#
# Elastic Constant Matrix: (Units=GPa)
#
#
# Indices 1 2 3 4 5 6 
#
# 1 154.1421 12.1501 45.0596 0.0000 0.0000 0.0000
# 2 12.1501 22.0140 22.5849 0.0000 0.0000 0.0000
# 3 45.0596 22.5849 149.5792 0.0000 0.0000 0.0000
# 4 0.0000 0.0000 0.0000 12.4873 0.0000 0.0000
# 5 0.0000 0.0000 0.0000 0.0000 31.4557 0.0000
# 6 0.0000 0.0000 0.0000 0.0000 0.0000 16.9896
#
#
#
# Elastic Compliance Matrix: (Units=1/GPa)
#
#
# Indices 1 2 3 4 5 6 
#
# 1 0.007193 -0.002067 -0.001855 0.000000 0.000000 0.000000
# 2 -0.002067 0.054346 -0.007583 0.000000 0.000000 0.000000
# 3 -0.001855 -0.007583 0.008389 0.000000 0.000000 0.000000
# 4 0.000000 0.000000 0.000000 0.080082 0.000000 0.000000
# 5 0.000000 0.000000 0.000000 0.000000 0.031791 0.000000
# 6 0.000000 0.000000 0.000000 0.000000 0.000000 0.058859
#
#
# Mechanical properties :
#
#
# Convention : Reuss Voigt Hill
#
# Bulk Modulus (GPa) = 21.31357 53.92495 37.61926
# Shear Modulus (GPa) = 17.90135 28.58256 23.24196
#
# Velocity S-wave (km/s) = 2.91547 3.68397 3.32202
# Velocity P-wave (km/s) = 4.63178 6.61062 5.70761
#
# Compressibility (1/GPa) = 0.04691847
#
# Stress axis : x y z
#
# Youngs Moduli (GPa) = 139.03174 18.40055 119.20280
#
# Poissons Ratio (x) = 0.03804 0.22107
# Poissons Ratio (y) = 0.28739 0.90392
# Poissons Ratio (z) = 0.25785 0.13953
#
# Static dielectric constant tensor:
#      x y z
#    x 1.750250 0.000000 0.000000 
#    y 0.000000 1.797670 0.000000 
#    z 0.000000 0.000000 1.879180 
# 
# From -- ./inp_files/44382.got.cif
#   From: 2010.05.17/outbox.cif.g08.bks.cpg/sg52_23_cif.got.tgz:44382.got - 2010.06.03 12:15:38.
