data_PCOD9410482
_publ_section_title
;
Structure prediction by ZEFSAII (Michael W. Deem and Ramdas Pophale) SiO2 
 PCOD9410482
Probable space group: P N N A
;
_chemical_formula_sum "Si O2"
_cell_formula_units_Z 40
_cell_length_a 10.499591
_cell_length_b 30.075890
_cell_length_c 5.406595
_cell_angle_alpha 90.000000
_cell_angle_beta 90.000000
_cell_angle_gamma 90.000000
_cell_volume 1707.319136
_symmetry_space_group_name_H-M "P N N A"
_symmetry_group_IT_number 52
_symmetry_cell_setting 'orthorhombic'
loop_
_space_group_symop_operation_xyz
x,y,z
1/2-x,-y,z
x,1/2-y,1/2-z
1/2-x,1/2+y,1/2-z
-x,-y,-z
1/2+x,y,-z
-x,1/2+y,1/2+z
1/2+x,1/2-y,1/2+z
loop_
_atom_site_type_symbol
_atom_site_label
_atom_site_fract_x
_atom_site_fract_y
_atom_site_fract_z
Si Si1 0.789974 0.301933 0.696661
Si Si2 0.927593 0.426054 0.333110
Si Si3 0.779381 0.876673 0.442973
Si Si4 0.550719 0.345036 0.436916
Si Si5 0.655200 0.541132 0.839545
O O1 0.786321 0.250000 0.750000
O O2 0.797393 0.397922 0.288511
O O3 0.775622 0.331344 0.945555
O O4 0.670044 0.316625 0.529709
O O5 0.936900 0.453807 0.079162
O O6 0.026903 0.387217 0.387523
O O7 0.913747 0.455950 0.576511
O O8 0.917149 0.865505 0.333363
O O9 0.744122 0.914918 0.638035
O O10 0.076160 0.815993 0.077233
O O11 0.750000 0.500000 0.860611
#
# Coordination Sequence:
#
# PCOD9410482 Si02
#       5
#     8   8   8   8   8
#     4  12  29  45  76 110 148 204 253 324 382 462
#     4  10  22  43  73 104 149 201 246 309 383 439
#     4  10  24  44  72 102 153 197 250 308 386 442
#     4  12  24  50  70 109 150 199 257 310 392 457
#     4  10  20  43  72 111 152 197 259 312 379 451
#
# _framework density 23.428543999999999
#
# number of rings (size 3 to 8) (size 9 to 14) (size 15 to 20)
#    1.200    0.000    4.000    0.600    8.400    0.000 
#    0.000    2.000    0.000    0.000    0.000    0.000 
#    0.000    0.000    0.000    0.000    0.000    0.000 
#
# Total GULP energy -223486.034153 kJ/mol
# GULP energy per Si atom -5587.150854 kJ/mol
# Density = 2.337522 g / cm^3
# Si number density = 23.428544 Si / 1000 Ang^3
#
#
#
# Elastic Constant Matrix: (Units=GPa)
#
#
# Indices 1 2 3 4 5 6 
#
# 1 121.2897 32.2210 38.6513 0.0000 0.0000 0.0000
# 2 32.2210 119.8428 50.6893 0.0000 0.0000 0.0000
# 3 38.6513 50.6893 158.1656 0.0000 0.0000 0.0000
# 4 0.0000 0.0000 0.0000 28.0912 0.0000 0.0000
# 5 0.0000 0.0000 0.0000 0.0000 36.9601 0.0000
# 6 0.0000 0.0000 0.0000 0.0000 0.0000 19.3533
#
#
#
# Elastic Compliance Matrix: (Units=1/GPa)
#
#
# Indices 1 2 3 4 5 6 
#
# 1 0.009255 -0.001772 -0.001694 0.000000 0.000000 0.000000
# 2 -0.001772 0.009992 -0.002769 0.000000 0.000000 0.000000
# 3 -0.001694 -0.002769 0.007624 0.000000 0.000000 0.000000
# 4 0.000000 0.000000 0.000000 0.035598 0.000000 0.000000
# 5 0.000000 0.000000 0.000000 0.000000 0.027056 0.000000
# 6 0.000000 0.000000 0.000000 0.000000 0.000000 0.051671
#
#
# Mechanical properties :
#
#
# Convention : Reuss Voigt Hill
#
# Bulk Modulus (GPa) = 69.43932 71.38013 70.40972
# Shear Modulus (GPa) = 31.55234 35.39669 33.47452
#
# Velocity S-wave (km/s) = 3.67379 3.89116 3.78404
# Velocity P-wave (km/s) = 6.90643 7.12190 7.01499
#
# Compressibility (1/GPa) = 0.01440106
#
# Stress axis : x y z
#
# Youngs Moduli (GPa) = 108.04719 100.08053 131.16636
#
# Poissons Ratio (x) = 0.17734 0.22218
# Poissons Ratio (y) = 0.19145 0.36323
# Poissons Ratio (z) = 0.18302 0.27715
#
# Static dielectric constant tensor:
#      x y z
#    x 1.912250 0.000000 0.000000 
#    y 0.000000 1.820480 0.000000 
#    z 0.000000 0.000000 1.972090 
# 
# From -- ./inp_files/2359.got.cif
#   From: 2010.05.17/outbox.cif.g08.bks.cpg/sg52_2_cif.got.tgz:2359.got - 2010.06.03 12:15:38.
