data_PCOD9410492
_publ_section_title
;
Structure prediction by ZEFSAII (Michael W. Deem and Ramdas Pophale) SiO2 
 PCOD9410492
Probable space group: P N N A
;
_chemical_formula_sum "Si O2"
_cell_formula_units_Z 32
_cell_length_a 13.293220
_cell_length_b 15.934293
_cell_length_c 6.948393
_cell_angle_alpha 90.000000
_cell_angle_beta 90.000000
_cell_angle_gamma 90.000000
_cell_volume 1471.795142
_symmetry_space_group_name_H-M "P N N A"
_symmetry_group_IT_number 52
_symmetry_cell_setting 'orthorhombic'
loop_
_space_group_symop_operation_xyz
x,y,z
1/2-x,-y,z
x,1/2-y,1/2-z
1/2-x,1/2+y,1/2-z
-x,-y,-z
1/2+x,y,-z
-x,1/2+y,1/2+z
1/2+x,1/2-y,1/2+z
loop_
_atom_site_type_symbol
_atom_site_label
_atom_site_fract_x
_atom_site_fract_y
_atom_site_fract_z
Si Si1 0.935877 0.358067 0.018028
Si Si2 0.935556 0.750000 0.250000
Si Si3 0.269687 0.621819 0.824071
Si Si4 0.750000 0.000000 0.005215
Si Si5 0.896695 0.963824 0.670434
O O1 0.823732 0.331887 0.076400
O O2 0.008845 0.400965 0.175826
O O3 0.925462 0.439415 0.875430
O O4 0.994007 0.281151 0.921925
O O5 0.857497 0.674127 0.276727
O O6 0.215957 0.569791 0.656258
O O7 0.327001 0.568833 0.991747
O O8 0.665226 0.035294 0.865430
#
# Coordination Sequence:
#
# PCOD9410492 Si02
#       5
#     8   4   8   4   8
#     4  10  20  44  67  91 140 179 216 285 342 398
#     4  10  26  42  66  96 142 180 216 272 360 398
#     4  11  22  45  64 101 136 172 227 291 324 411
#     4  12  20  38  72  96 128 174 232 288 324 394
#     4  10  21  40  68  98 126 171 235 280 331 400
#
# _framework density 21.742155
#
# number of rings (size 3 to 8) (size 9 to 14) (size 15 to 20)
#    0.000    1.500    5.000    0.000    0.000    3.000 
#    4.500    2.500    0.000    0.000    0.000    0.000 
#    0.000    0.000    0.000    0.000    0.000    0.000 
#
# Total GULP energy -178419.919807 kJ/mol
# GULP energy per Si atom -5575.622494 kJ/mol
# Density = 2.169267 g / cm^3
# Si number density = 21.742155 Si / 1000 Ang^3
#
#
#
# Elastic Constant Matrix: (Units=GPa)
#
#
# Indices 1 2 3 4 5 6 
#
# 1 151.3647 34.9762 40.4556 0.0000 0.0000 0.0000
# 2 34.9762 58.0022 31.4032 0.0000 0.0000 0.0000
# 3 40.4556 31.4032 81.8814 0.0000 0.0000 0.0000
# 4 0.0000 0.0000 0.0000 20.8452 0.0000 0.0000
# 5 0.0000 0.0000 0.0000 0.0000 10.8842 0.0000
# 6 0.0000 0.0000 0.0000 0.0000 0.0000 29.1623
#
#
#
# Elastic Compliance Matrix: (Units=1/GPa)
#
#
# Indices 1 2 3 4 5 6 
#
# 1 0.008121 -0.003439 -0.002694 0.000000 0.000000 0.000000
# 2 -0.003439 0.023215 -0.007204 0.000000 0.000000 0.000000
# 3 -0.002694 -0.007204 0.016307 0.000000 0.000000 0.000000
# 4 0.000000 0.000000 0.000000 0.047973 0.000000 0.000000
# 5 0.000000 0.000000 0.000000 0.000000 0.091876 0.000000
# 6 0.000000 0.000000 0.000000 0.000000 0.000000 0.034291
#
#
# Mechanical properties :
#
#
# Convention : Reuss Voigt Hill
#
# Bulk Modulus (GPa) = 47.68911 56.10204 51.89558
# Shear Modulus (GPa) = 19.57364 24.47257 22.02310
#
# Velocity S-wave (km/s) = 3.00369 3.35861 3.18610
# Velocity P-wave (km/s) = 5.83190 6.39529 6.12008
#
# Compressibility (1/GPa) = 0.02096915
#
# Stress axis : x y z
#
# Youngs Moduli (GPa) = 123.13614 43.07575 61.32475
#
# Poissons Ratio (x) = 0.14813 0.16518
# Poissons Ratio (y) = 0.42344 0.44181
# Poissons Ratio (z) = 0.33168 0.31033
#
# Static dielectric constant tensor:
#      x y z
#    x 1.838690 0.000000 0.000000 
#    y 0.000000 1.851830 0.000000 
#    z 0.000000 0.000000 1.771010 
# 
# From -- ./inp_files/2029.got.cif
#   From: 2010.05.17/outbox.cif.g08.bks.cpg/sg52_2_cif.got.tgz:2029.got - 2010.06.03 12:15:38.
