data_PCOD9410162
_publ_section_title
;
Structure prediction by ZEFSAII (Michael W. Deem and Ramdas Pophale) SiO2 
 PCOD9410162
Probable space group: P N N A
;
_chemical_formula_sum "Si O2"
_cell_formula_units_Z 60
_cell_length_a 7.577458
_cell_length_b 28.115343
_cell_length_c 10.625856
_cell_angle_alpha 90.000000
_cell_angle_beta 90.000000
_cell_angle_gamma 90.000000
_cell_volume 2263.762441
_symmetry_space_group_name_H-M "P N N A"
_symmetry_group_IT_number 52
_symmetry_cell_setting 'orthorhombic'
loop_
_space_group_symop_operation_xyz
x,y,z
1/2-x,-y,z
x,1/2-y,1/2-z
1/2-x,1/2+y,1/2-z
-x,-y,-z
1/2+x,y,-z
-x,1/2+y,1/2+z
1/2+x,1/2-y,1/2+z
loop_
_atom_site_type_symbol
_atom_site_label
_atom_site_fract_x
_atom_site_fract_y
_atom_site_fract_z
Si Si1 0.933353 0.250000 0.250000
Si Si2 0.914008 0.717998 0.351525
Si Si3 0.368923 0.948268 0.802869
Si Si4 0.619118 0.136693 0.612343
Si Si5 0.762766 0.077202 0.937726
Si Si6 0.268664 0.643138 0.833508
Si Si7 0.911140 0.968635 0.703504
Si Si8 0.735681 0.320409 0.647146
O O1 0.769553 0.251416 0.360002
O O2 0.081486 0.281731 0.329129
O O3 0.017156 0.750000 0.250000
O O4 0.089167 0.699577 0.420762
O O5 0.845636 0.671008 0.283167
O O6 0.548499 0.928105 0.869048
O O7 0.293252 0.911618 0.701847
O O8 0.428829 0.995573 0.728792
O O9 0.241963 0.945580 0.924572
O O10 0.434714 0.158236 0.657981
O O11 0.651779 0.150933 0.470401
O O12 0.589603 0.080077 0.624782
O O13 0.761098 0.156135 0.712196
O O14 0.639085 0.048073 0.843866
O O15 0.694318 0.131731 0.932848
O O16 0.750000 0.000000 0.651530
#
# Coordination Sequence:
#
# PCOD9410162 Si02
#       8
#     4   8   8   8   8   8   8   8
#     4  10  20  38  72 106 140 182 242 294 352 434
#     4  10  21  40  69 100 141 180 236 300 342 435
#     4  11  24  43  68 101 140 183 235 294 350 429
#     4  11  25  43  71  99 140 188 234 294 364 428
#     4  10  23  40  70  95 139 184 233 288 355 421
#     4  12  25  44  70 100 140 185 237 292 360 433
#     4   9  22  44  66 100 135 181 237 293 352 424
#     4  11  20  43  71 101 141 188 233 295 362 417
#
# _framework density 26.504546000000001
#
# number of rings (size 3 to 8) (size 9 to 14) (size 15 to 20)
#    0.400    1.067    3.333    1.200    7.467    1.067 
#    0.000    1.333    2.933    0.000    0.000    0.000 
#    0.000    0.000    0.000    0.000    0.000    0.000 
#
# Total GULP energy -334239.293686 kJ/mol
# GULP energy per Si atom -5570.654895 kJ/mol
# Density = 2.644422 g / cm^3
# Si number density = 26.504546 Si / 1000 Ang^3
#
#
#
# Elastic Constant Matrix: (Units=GPa)
#
#
# Indices 1 2 3 4 5 6 
#
# 1 167.1545 39.6860 7.5516 0.0000 0.0000 0.0000
# 2 39.6860 103.4421 5.8246 0.0000 0.0000 0.0000
# 3 7.5516 5.8246 80.9438 0.0000 0.0000 0.0000
# 4 0.0000 0.0000 0.0000 6.3923 0.0000 0.0000
# 5 0.0000 0.0000 0.0000 0.0000 17.4996 0.0000
# 6 0.0000 0.0000 0.0000 0.0000 0.0000 55.0808
#
#
#
# Elastic Compliance Matrix: (Units=1/GPa)
#
#
# Indices 1 2 3 4 5 6 
#
# 1 0.006597 -0.002507 -0.000435 0.000000 0.000000 0.000000
# 2 -0.002507 0.010659 -0.000533 0.000000 0.000000 0.000000
# 3 -0.000435 -0.000533 0.012433 0.000000 0.000000 0.000000
# 4 0.000000 0.000000 0.000000 0.156438 0.000000 0.000000
# 5 0.000000 0.000000 0.000000 0.000000 0.057144 0.000000
# 6 0.000000 0.000000 0.000000 0.000000 0.000000 0.018155
#
#
# Mechanical properties :
#
#
# Convention : Reuss Voigt Hill
#
# Bulk Modulus (GPa) = 43.97592 50.85164 47.41378
# Shear Modulus (GPa) = 18.11883 35.69309 26.90596
#
# Velocity S-wave (km/s) = 2.61743 3.67369 3.18959
# Velocity P-wave (km/s) = 5.07567 6.10101 5.61181
#
# Compressibility (1/GPa) = 0.02273972
#
# Stress axis : x y z
#
# Youngs Moduli (GPa) = 151.57807 93.81814 80.42974
#
# Poissons Ratio (x) = 0.23516 0.03500
# Poissons Ratio (y) = 0.37994 0.04288
# Poissons Ratio (z) = 0.06595 0.05002
#
# Static dielectric constant tensor:
#      x y z
#    x 2.147170 0.000000 0.000000 
#    y 0.000000 2.456940 0.000000 
#    z 0.000000 0.000000 2.183320 
# 
# From -- ./inp_files/17117.got.cif
#   From: 2010.05.17/outbox.cif.g08.bks.cpg/sg52_9_cif.got.tgz:17117.got - 2010.06.03 12:15:38.
