data_PCOD9410391
_publ_section_title
;
Structure prediction by ZEFSAII (Michael W. Deem and Ramdas Pophale) SiO2 
 PCOD9410391
Probable space group: P N N A
;
_chemical_formula_sum "Si O2"
_cell_formula_units_Z 64
_cell_length_a 27.128938
_cell_length_b 8.774525
_cell_length_c 12.816538
_cell_angle_alpha 90.000000
_cell_angle_beta 90.000000
_cell_angle_gamma 90.000000
_cell_volume 3050.894136
_symmetry_space_group_name_H-M "P N N A"
_symmetry_group_IT_number 52
_symmetry_cell_setting 'orthorhombic'
loop_
_space_group_symop_operation_xyz
x,y,z
1/2-x,-y,z
x,1/2-y,1/2-z
1/2-x,1/2+y,1/2-z
-x,-y,-z
1/2+x,y,-z
-x,1/2+y,1/2+z
1/2+x,1/2-y,1/2+z
loop_
_atom_site_type_symbol
_atom_site_label
_atom_site_fract_x
_atom_site_fract_y
_atom_site_fract_z
Si Si1 0.212637 0.859019 0.848460
Si Si2 0.977958 0.896088 0.407117
Si Si3 0.374760 0.883979 0.677188
Si Si4 0.595393 0.889842 0.171384
Si Si5 0.953663 0.931669 0.758352
Si Si6 0.697636 0.575058 0.027347
Si Si7 0.950117 0.362347 0.553268
Si Si8 0.870910 0.137578 0.661724
O O1 0.224472 0.750000 0.750000
O O2 0.154583 0.897325 0.844761
O O3 0.212139 0.748347 0.946810
O O4 0.250000 0.000000 0.851855
O O5 0.918723 0.871450 0.408347
O O6 0.000504 0.730200 0.425499
O O7 0.000000 0.000000 0.500000
O O8 0.004273 0.977827 0.307077
O O9 0.351535 0.750000 0.750000
O O10 0.409915 0.957353 0.765191
O O11 0.334114 0.992533 0.621005
O O12 0.585110 0.750000 0.250000
O O13 0.564987 0.879469 0.066529
O O14 0.958445 0.750000 0.750000
O O15 0.953040 0.985533 0.878552
O O16 0.903026 0.001494 0.711306
O O17 0.750000 0.500000 0.017328
O O18 0.666351 0.572513 0.922595
O O19 0.908572 0.250172 0.601543
O O20 0.848752 0.250000 0.750000
#
# Coordination Sequence:
#
# PCOD9410391 Si02
#       8
#     8   8   8   8   8   8   8   8
#     4  11  23  40  66  93 130 168 221 268 333 405
#     4  11  23  42  69  95 134 180 225 269 334 401
#     4  12  26  42  63 100 137 172 221 279 327 403
#     4  11  21  39  64  95 130 169 220 270 332 398
#     4  10  22  41  66  98 132 170 219 271 331 398
#     4  12  25  43  66  94 132 176 221 270 346 405
#     4  10  20  41  69  92 128 179 211 264 331 404
#     4   9  19  42  69  89 122 169 219 268 331 398
#
# _framework density 20.977456
#
# number of rings (size 3 to 8) (size 9 to 14) (size 15 to 20)
#    0.000    1.250    3.750    4.500    1.750    3.500 
#    0.000    3.125    0.000    0.000    0.000    0.000 
#    0.000    0.000    0.000    0.000    0.000    0.000 
#
# Total GULP energy -356994.154009 kJ/mol
# GULP energy per Si atom -5578.033656 kJ/mol
# Density = 2.092971 g / cm^3
# Si number density = 20.977456 Si / 1000 Ang^3
#
#
#
# Elastic Constant Matrix: (Units=GPa)
#
#
# Indices 1 2 3 4 5 6 
#
# 1 124.8004 63.0649 44.6236 0.0000 0.0000 0.0000
# 2 63.0649 106.5176 59.1994 0.0000 0.0000 0.0000
# 3 44.6236 59.1994 103.5998 0.0000 0.0000 0.0000
# 4 0.0000 0.0000 0.0000 29.2301 0.0000 0.0000
# 5 0.0000 0.0000 0.0000 0.0000 17.7724 0.0000
# 6 0.0000 0.0000 0.0000 0.0000 0.0000 -27.0443
#
#
#
# Elastic Compliance Matrix: (Units=1/GPa)
#
#
# Indices 1 2 3 4 5 6 
#
# 1 0.011606 -0.005998 -0.001572 0.000000 0.000000 0.000000
# 2 -0.005998 0.016857 -0.007049 0.000000 0.000000 0.000000
# 3 -0.001572 -0.007049 0.014357 0.000000 0.000000 0.000000
# 4 0.000000 0.000000 0.000000 0.034211 0.000000 0.000000
# 5 0.000000 0.000000 0.000000 0.000000 0.056267 0.000000
# 6 0.000000 0.000000 0.000000 0.000000 0.000000 -0.036976
#
#
# Mechanical properties :
#
#
# Convention : Reuss Voigt Hill
#
# Bulk Modulus (GPa) = 73.62081 74.29930 73.96005
# Shear Modulus (GPa) = 38.43613 15.19364 26.81488
#
# Velocity S-wave (km/s) = 4.28513 2.69417 3.57917
# Velocity P-wave (km/s) = 7.72364 6.72113 7.23976
#
# Compressibility (1/GPa) = 0.01358312
#
# Stress axis : x y z
#
# Youngs Moduli (GPa) = 86.16571 59.32348 69.65040
#
# Poissons Ratio (x) = 0.35581 0.10946
# Poissons Ratio (y) = 0.51680 0.49096
# Poissons Ratio (z) = 0.13542 0.41817
#
# Static dielectric constant tensor:
#      x y z
#    x 2.898600 0.000000 0.000000 
#    y 0.000000 2.282500 0.000000 
#    z 0.000000 0.000000 1.925920 
# 
# From -- ./inp_files/23195.got.cif
#   From: 2010.05.17/outbox.cif.g08.bks.cpg/sg52_12_cif.got.tgz:23195.got - 2010.06.03 12:15:38.
