data_PCOD9410747
_publ_section_title
;
Structure prediction by ZEFSAII (Michael W. Deem and Ramdas Pophale) SiO2 
 PCOD9410747
Probable space group: P N N A
;
_chemical_formula_sum "Si O2"
_cell_formula_units_Z 64
_cell_length_a 17.996728
_cell_length_b 13.086787
_cell_length_c 13.147881
_cell_angle_alpha 90.000000
_cell_angle_beta 90.000000
_cell_angle_gamma 90.000000
_cell_volume 3096.580335
_symmetry_space_group_name_H-M "P N N A"
_symmetry_group_IT_number 52
_symmetry_cell_setting 'orthorhombic'
loop_
_space_group_symop_operation_xyz
x,y,z
1/2-x,-y,z
x,1/2-y,1/2-z
1/2-x,1/2+y,1/2-z
-x,-y,-z
1/2+x,y,-z
-x,1/2+y,1/2+z
1/2+x,1/2-y,1/2+z
loop_
_atom_site_type_symbol
_atom_site_label
_atom_site_fract_x
_atom_site_fract_y
_atom_site_fract_z
Si Si1 0.381658 0.707668 0.136508
Si Si2 0.768020 0.118236 0.540518
Si Si3 0.570542 0.625392 0.934244
Si Si4 0.496868 0.666396 0.495230
Si Si5 0.611631 0.157393 0.170713
Si Si6 0.513206 0.548237 0.140577
Si Si7 0.767763 0.277696 0.368083
Si Si8 0.899281 0.431583 0.335475
O O1 0.373141 0.750000 0.250000
O O2 0.302248 0.672908 0.092805
O O3 0.428834 0.791106 0.073180
O O4 0.436123 0.609680 0.131162
O O5 0.845092 0.123218 0.603089
O O6 0.785131 0.181149 0.437870
O O7 0.750000 0.000000 0.521078
O O8 0.512688 0.570710 0.856812
O O9 0.547158 0.737084 0.971752
O O10 0.562047 0.560326 0.038921
O O11 0.459347 0.636921 0.600926
O O12 0.543759 0.585867 0.429659
O O13 0.599737 0.250000 0.250000
O O14 0.684302 0.187834 0.106175
O O15 0.628530 0.042120 0.204938
O O16 0.555188 0.600798 0.234796
O O17 0.764466 0.250000 0.250000
O O18 0.829379 0.365160 0.371091
#
# Coordination Sequence:
#
# PCOD9410747 Si02
#       8
#     8   8   8   8   8   8   8   8
#     4  11  22  40  66  92 128 172 215 275 334 391
#     4  12  23  41  68  97 135 172 220 280 341 403
#     4  10  21  37  63  96 129 163 219 276 336 386
#     4  11  22  40  67  92 129 171 222 272 331 395
#     4  11  25  44  63  94 135 179 219 274 335 404
#     4  10  21  37  64  98 124 166 218 280 325 395
#     4  11  25  41  64  98 135 172 215 271 341 409
#     4  12  23  40  69  95 131 173 227 270 336 406
#
# _framework density 20.667960000000001
#
# number of rings (size 3 to 8) (size 9 to 14) (size 15 to 20)
#    0.000    1.000    5.000    2.250    1.750    4.000 
#    0.000    1.875    2.750    0.000    0.000    0.000 
#    0.000    0.000    0.000    0.000    0.000    0.000 
#
# Total GULP energy -356805.476095 kJ/mol
# GULP energy per Si atom -5575.085564 kJ/mol
# Density = 2.062092 g / cm^3
# Si number density = 20.667960 Si / 1000 Ang^3
#
#
#
# Elastic Constant Matrix: (Units=GPa)
#
#
# Indices 1 2 3 4 5 6 
#
# 1 97.2862 37.4508 16.0905 0.0000 0.0000 0.0000
# 2 37.4508 108.1103 27.5291 0.0000 0.0000 0.0000
# 3 16.0905 27.5291 61.5326 0.0000 0.0000 0.0000
# 4 0.0000 0.0000 0.0000 26.6268 0.0000 0.0000
# 5 0.0000 0.0000 0.0000 0.0000 11.1291 0.0000
# 6 0.0000 0.0000 0.0000 0.0000 0.0000 19.5205
#
#
#
# Elastic Compliance Matrix: (Units=1/GPa)
#
#
# Indices 1 2 3 4 5 6 
#
# 1 0.011972 -0.003781 -0.001439 0.000000 0.000000 0.000000
# 2 -0.003781 0.011633 -0.004216 0.000000 0.000000 0.000000
# 3 -0.001439 -0.004216 0.018514 0.000000 0.000000 0.000000
# 4 0.000000 0.000000 0.000000 0.037556 0.000000 0.000000
# 5 0.000000 0.000000 0.000000 0.000000 0.089855 0.000000
# 6 0.000000 0.000000 0.000000 0.000000 0.000000 0.051228
#
#
# Mechanical properties :
#
#
# Convention : Reuss Voigt Hill
#
# Bulk Modulus (GPa) = 43.01512 47.67443 45.34477
# Shear Modulus (GPa) = 20.21183 23.84585 22.02884
#
# Velocity S-wave (km/s) = 3.13058 3.40039 3.26827
# Velocity P-wave (km/s) = 5.82452 6.20756 6.01909
#
# Compressibility (1/GPa) = 0.02324764
#
# Stress axis : x y z
#
# Youngs Moduli (GPa) = 83.52490 85.96161 54.01314
#
# Poissons Ratio (x) = 0.32502 0.07773
# Poissons Ratio (y) = 0.31580 0.22771
# Poissons Ratio (z) = 0.12021 0.36240
#
# Static dielectric constant tensor:
#      x y z
#    x 1.792120 0.000000 0.000000 
#    y 0.000000 1.869260 0.000000 
#    z 0.000000 0.000000 1.769700 
# 
# From -- ./inp_files/28306.got.cif
#   From: 2010.05.17/outbox.cif.g08.bks.cpg/sg52_15_cif.got.tgz:28306.got - 2010.06.03 12:15:38.
