data_PCOD9410030
_publ_section_title
;
Structure prediction by ZEFSAII (Michael W. Deem and Ramdas Pophale) SiO2 
 PCOD9410030
Probable space group: P N N A
;
_chemical_formula_sum "Si O2"
_cell_formula_units_Z 28
_cell_length_a 15.628267
_cell_length_b 7.517287
_cell_length_c 12.534155
_cell_angle_alpha 90.000000
_cell_angle_beta 90.000000
_cell_angle_gamma 90.000000
_cell_volume 1472.539708
_symmetry_space_group_name_H-M "P N N A"
_symmetry_group_IT_number 52
_symmetry_cell_setting 'orthorhombic'
loop_
_space_group_symop_operation_xyz
x,y,z
1/2-x,-y,z
x,1/2-y,1/2-z
1/2-x,1/2+y,1/2-z
-x,-y,-z
1/2+x,y,-z
-x,1/2+y,1/2+z
1/2+x,1/2-y,1/2+z
loop_
_atom_site_type_symbol
_atom_site_label
_atom_site_fract_x
_atom_site_fract_y
_atom_site_fract_z
Si Si1 0.239074 0.750000 0.250000
Si Si2 0.070138 0.897438 0.167844
Si Si3 0.519272 0.750000 0.250000
Si Si4 0.250000 0.000000 0.428285
Si Si5 0.574926 0.857682 0.475341
O O1 0.170824 0.887256 0.196247
O O2 0.283045 0.843917 0.349077
O O3 0.031601 0.750000 0.250000
O O4 0.034999 0.088177 0.199511
O O5 0.058526 0.816155 0.050035
O O6 0.572758 0.819057 0.350377
O O7 0.167732 0.931536 0.490790
O O8 0.500000 0.000000 0.500000
#
# Coordination Sequence:
#
# PCOD9410030 Si02
#       5
#     4   8   4   4   8
#     4   8  18  35  58  89 118 152 196 271 310 331
#     4   9  19  38  61  94 116 156 215 254 310 354
#     4  12  20  37  66  89 130 170 200 251 310 391
#     4  10  20  38  60  90 128 148 210 254 302 374
#     4  11  22  39  62  92 123 166 202 258 310 369
#
# _framework density 19.014766999999999
#
# number of rings (size 3 to 8) (size 9 to 14) (size 15 to 20)
#    0.857    1.143    2.857    0.857    0.000    4.571 
#    0.000    2.857    0.000    1.714    0.000    0.000 
#    0.000    0.000    0.000    0.000    0.000    0.000 
#
# Total GULP energy -155998.807203 kJ/mol
# GULP energy per Si atom -5571.385972 kJ/mol
# Density = 1.897149 g / cm^3
# Si number density = 19.014767 Si / 1000 Ang^3
#
#
#
# Elastic Constant Matrix: (Units=GPa)
#
#
# Indices 1 2 3 4 5 6 
#
# 1 76.6190 58.6729 60.0802 0.0000 0.0000 0.0000
# 2 58.6729 114.8296 61.9101 0.0000 0.0000 0.0000
# 3 60.0802 61.9101 182.0441 0.0000 0.0000 0.0000
# 4 0.0000 0.0000 0.0000 43.0070 0.0000 0.0000
# 5 0.0000 0.0000 0.0000 0.0000 16.0376 0.0000
# 6 0.0000 0.0000 0.0000 0.0000 0.0000 33.9040
#
#
#
# Elastic Compliance Matrix: (Units=1/GPa)
#
#
# Indices 1 2 3 4 5 6 
#
# 1 0.024274 -0.009899 -0.004645 0.000000 0.000000 0.000000
# 2 -0.009899 0.014700 -0.001732 0.000000 0.000000 0.000000
# 3 -0.004645 -0.001732 0.007615 0.000000 0.000000 0.000000
# 4 0.000000 0.000000 0.000000 0.023252 0.000000 0.000000
# 5 0.000000 0.000000 0.000000 0.000000 0.062354 0.000000
# 6 0.000000 0.000000 0.000000 0.000000 0.000000 0.029495
#
#
# Mechanical properties :
#
#
# Convention : Reuss Voigt Hill
#
# Bulk Modulus (GPa) = 71.23661 81.64655 76.44158
# Shear Modulus (GPa) = 25.13555 31.44501 28.29028
#
# Velocity S-wave (km/s) = 3.63973 4.07100 3.86139
# Velocity P-wave (km/s) = 7.43026 8.07026 7.75686
#
# Compressibility (1/GPa) = 0.01403773
#
# Stress axis : x y z
#
# Youngs Moduli (GPa) = 41.19645 68.02527 131.31486
#
# Poissons Ratio (x) = 0.67336 0.60993
# Poissons Ratio (y) = 0.40779 0.22750
# Poissons Ratio (z) = 0.19135 0.11785
#
# Static dielectric constant tensor:
#      x y z
#    x 1.653140 0.000000 0.000000 
#    y 0.000000 1.761500 0.000000 
#    z 0.000000 0.000000 1.664400 
# 
# From -- ./inp_files/20122.got.cif
#   From: 2010.05.17/outbox.cif.g08.bks.cpg/sg52_11_cif.got.tgz:20122.got - 2010.06.03 12:15:38.
