data_PCOD9410205
_publ_section_title
;
Structure prediction by ZEFSAII (Michael W. Deem and Ramdas Pophale) SiO2 
 PCOD9410205
Probable space group: P N N A
;
_chemical_formula_sum "Si O2"
_cell_formula_units_Z 64
_cell_length_a 21.373446
_cell_length_b 11.968873
_cell_length_c 13.070081
_cell_angle_alpha 90.000000
_cell_angle_beta 90.000000
_cell_angle_gamma 90.000000
_cell_volume 3343.536635
_symmetry_space_group_name_H-M "P N N A"
_symmetry_group_IT_number 52
_symmetry_cell_setting 'orthorhombic'
loop_
_space_group_symop_operation_xyz
x,y,z
1/2-x,-y,z
x,1/2-y,1/2-z
1/2-x,1/2+y,1/2-z
-x,-y,-z
1/2+x,y,-z
-x,1/2+y,1/2+z
1/2+x,1/2-y,1/2+z
loop_
_atom_site_type_symbol
_atom_site_label
_atom_site_fract_x
_atom_site_fract_y
_atom_site_fract_z
Si Si1 0.422359 0.379683 0.512481
Si Si2 0.699576 0.591784 0.352379
Si Si3 0.946671 0.579916 0.628494
Si Si4 0.443986 0.373121 0.991253
Si Si5 0.836090 0.482404 0.122872
Si Si6 0.663734 0.261434 0.867948
Si Si7 0.059064 0.068002 0.366153
Si Si8 0.760271 0.811771 0.438087
O O1 0.363859 0.413630 0.582634
O O2 0.488725 0.393440 0.570632
O O3 0.424909 0.459958 0.414419
O O4 0.415993 0.248317 0.493096
O O5 0.750000 0.500000 0.386257
O O6 0.681113 0.561584 0.235816
O O7 0.732279 0.712072 0.369332
O O8 0.890163 0.668208 0.612573
O O9 0.960016 0.581152 0.749057
O O10 0.405357 0.449966 0.910846
O O11 0.512482 0.366225 0.941574
O O12 0.444239 0.441890 0.095538
O O13 0.815749 0.611632 0.111339
O O14 0.793793 0.404362 0.049141
O O15 0.685388 0.250000 0.750000
O O16 0.627663 0.379638 0.876538
O O17 0.715553 0.260421 0.955713
#
# Coordination Sequence:
#
# PCOD9410205 Si02
#       8
#     8   8   8   8   8   8   8   8
#     4  11  23  38  62  86 125 160 199 251 304 369
#     4  12  24  38  59  90 124 164 203 244 305 362
#     4  10  22  41  58  90 120 159 197 251 311 363
#     4  11  21  38  63  93 115 158 204 252 299 369
#     4  11  23  37  62  87 122 163 200 250 300 359
#     4  10  20  39  64  84 114 159 204 252 302 359
#     4  10  21  37  64  89 118 152 205 249 305 364
#     4  11  22  39  58  85 122 156 201 251 296 359
#
# _framework density 19.141408999999999
#
# number of rings (size 3 to 8) (size 9 to 14) (size 15 to 20)
#    0.000    1.250    5.000    1.875    0.000    1.500 
#    0.000    1.250    2.750    0.000    0.000    0.000 
#    0.000    0.000    0.000    0.000    0.000    0.000 
#
# Total GULP energy -357073.263648 kJ/mol
# GULP energy per Si atom -5579.269744 kJ/mol
# Density = 1.909784 g / cm^3
# Si number density = 19.141409 Si / 1000 Ang^3
#
#
#
# Elastic Constant Matrix: (Units=GPa)
#
#
# Indices 1 2 3 4 5 6 
#
# 1 38.0603 8.0691 3.7867 0.0000 0.0000 0.0000
# 2 8.0691 86.6816 17.7110 0.0000 0.0000 0.0000
# 3 3.7867 17.7110 59.7948 0.0000 0.0000 0.0000
# 4 0.0000 0.0000 0.0000 20.2222 0.0000 0.0000
# 5 0.0000 0.0000 0.0000 0.0000 25.8465 0.0000
# 6 0.0000 0.0000 0.0000 0.0000 0.0000 30.2455
#
#
#
# Elastic Compliance Matrix: (Units=1/GPa)
#
#
# Indices 1 2 3 4 5 6 
#
# 1 0.026862 -0.002292 -0.001022 0.000000 0.000000 0.000000
# 2 -0.002292 0.012475 -0.003550 0.000000 0.000000 0.000000
# 3 -0.001022 -0.003550 0.017840 0.000000 0.000000 0.000000
# 4 0.000000 0.000000 0.000000 0.049451 0.000000 0.000000
# 5 0.000000 0.000000 0.000000 0.000000 0.038690 0.000000
# 6 0.000000 0.000000 0.000000 0.000000 0.000000 0.033063
#
#
# Mechanical properties :
#
#
# Convention : Reuss Voigt Hill
#
# Bulk Modulus (GPa) = 23.01549 27.07449 25.04499
# Shear Modulus (GPa) = 24.20241 25.59417 24.89829
#
# Velocity S-wave (km/s) = 3.55970 3.66062 3.61051
# Velocity P-wave (km/s) = 5.38008 5.66057 5.52211
#
# Compressibility (1/GPa) = 0.04344899
#
# Stress axis : x y z
#
# Youngs Moduli (GPa) = 37.22781 80.15939 56.05348
#
# Poissons Ratio (x) = 0.18370 0.05731
# Poissons Ratio (y) = 0.08531 0.19899
# Poissons Ratio (z) = 0.03806 0.28456
#
# Static dielectric constant tensor:
#      x y z
#    x 1.690350 0.000000 0.000000 
#    y 0.000000 1.682940 0.000000 
#    z 0.000000 0.000000 1.653190 
# 
# From -- ./inp_files/22499.got.cif
#   From: 2010.05.17/outbox.cif.g08.bks.cpg/sg52_12_cif.got.tgz:22499.got - 2010.06.03 12:15:38.
