data_PCOD9410994
_publ_section_title
;
Structure prediction by ZEFSAII (Michael W. Deem and Ramdas Pophale) SiO2 
 PCOD9410994
Probable space group: P N N A
;
_chemical_formula_sum "Si O2"
_cell_formula_units_Z 60
_cell_length_a 14.132254
_cell_length_b 11.402700
_cell_length_c 16.239658
_cell_angle_alpha 90.000000
_cell_angle_beta 90.000000
_cell_angle_gamma 90.000000
_cell_volume 2616.953536
_symmetry_space_group_name_H-M "P N N A"
_symmetry_group_IT_number 52
_symmetry_cell_setting 'orthorhombic'
loop_
_space_group_symop_operation_xyz
x,y,z
1/2-x,-y,z
x,1/2-y,1/2-z
1/2-x,1/2+y,1/2-z
-x,-y,-z
1/2+x,y,-z
-x,1/2+y,1/2+z
1/2+x,1/2-y,1/2+z
loop_
_atom_site_type_symbol
_atom_site_label
_atom_site_fract_x
_atom_site_fract_y
_atom_site_fract_z
Si Si1 0.353029 0.851891 0.865878
Si Si2 0.250000 0.500000 0.760507
Si Si3 0.778796 0.871942 0.536854
Si Si4 0.815383 0.613459 0.558405
Si Si5 0.451385 0.423581 0.818617
Si Si6 0.951456 0.859136 0.414615
Si Si7 0.480304 0.432638 0.632628
Si Si8 0.904181 0.237412 0.460571
O O1 0.388790 0.720860 0.854953
O O2 0.276726 0.894256 0.800899
O O3 0.443334 0.935920 0.857019
O O4 0.319271 0.868681 0.959643
O O5 0.341197 0.461474 0.810515
O O6 0.790776 0.748432 0.587693
O O7 0.875642 0.894917 0.485369
O O8 0.692802 0.830740 0.476863
O O9 0.750000 0.000000 0.573250
O O10 0.750000 0.500000 0.577924
O O11 0.919331 0.582910 0.590533
O O12 0.496723 0.535474 0.863860
O O13 0.483446 0.391723 0.727536
O O14 0.457620 0.320969 0.883747
O O15 0.031112 0.782604 0.459800
O O16 0.404119 0.370176 0.571533
#
# Coordination Sequence:
#
# PCOD9410994 Si02
#       8
#     8   4   8   8   8   8   8   8
#     4  10  21  39  64  94 132 170 222 268 351 410
#     4  10  22  40  60 102 136 168 204 286 352 426
#     4  11  23  39  68 101 132 173 228 285 345 406
#     4  11  22  40  68  97 131 173 239 287 330 410
#     4  11  24  41  63  98 138 175 219 276 370 404
#     4  11  24  42  67  95 138 178 229 285 329 435
#     4  11  24  40  64  97 133 179 223 288 344 413
#     4  12  23  42  68  98 134 183 228 283 341 421
#
# _framework density 22.927423000000001
#
# number of rings (size 3 to 8) (size 9 to 14) (size 15 to 20)
#    0.000    1.067    4.667    2.800    7.467    2.133 
#    4.800    0.000    2.933    0.000    0.000    0.000 
#    0.000    0.000    0.000    0.000    0.000    0.000 
#
# Total GULP energy -335146.890337 kJ/mol
# GULP energy per Si atom -5585.781506 kJ/mol
# Density = 2.287524 g / cm^3
# Si number density = 22.927423 Si / 1000 Ang^3
#
#
#
# Elastic Constant Matrix: (Units=GPa)
#
#
# Indices 1 2 3 4 5 6 
#
# 1 62.6709 11.0323 23.6155 0.0000 0.0000 0.0000
# 2 11.0323 118.8580 3.0957 0.0000 0.0000 0.0000
# 3 23.6155 3.0957 60.4558 0.0000 0.0000 0.0000
# 4 0.0000 0.0000 0.0000 24.2033 0.0000 0.0000
# 5 0.0000 0.0000 0.0000 0.0000 25.1484 0.0000
# 6 0.0000 0.0000 0.0000 0.0000 0.0000 10.1172
#
#
#
# Elastic Compliance Matrix: (Units=1/GPa)
#
#
# Indices 1 2 3 4 5 6 
#
# 1 0.018999 -0.001572 -0.007341 0.000000 0.000000 0.000000
# 2 -0.001572 0.008555 0.000176 0.000000 0.000000 0.000000
# 3 -0.007341 0.000176 0.019400 0.000000 0.000000 0.000000
# 4 0.000000 0.000000 0.000000 0.041317 0.000000 0.000000
# 5 0.000000 0.000000 0.000000 0.000000 0.039764 0.000000
# 6 0.000000 0.000000 0.000000 0.000000 0.000000 0.098841
#
#
# Mechanical properties :
#
#
# Convention : Reuss Voigt Hill
#
# Bulk Modulus (GPa) = 33.92224 35.27463 34.59843
# Shear Modulus (GPa) = 19.67137 25.50987 22.59062
#
# Velocity S-wave (km/s) = 2.93231 3.33924 3.14237
# Velocity P-wave (km/s) = 5.12760 5.50328 5.31876
#
# Compressibility (1/GPa) = 0.02947918
#
# Stress axis : x y z
#
# Youngs Moduli (GPa) = 52.63324 116.89403 51.54746
#
# Poissons Ratio (x) = 0.18379 0.37842
# Poissons Ratio (y) = 0.08276 -0.00908
# Poissons Ratio (z) = 0.38639 -0.02059
#
# Static dielectric constant tensor:
#      x y z
#    x 1.857550 0.000000 0.000000 
#    y 0.000000 1.966880 0.000000 
#    z 0.000000 0.000000 1.816040 
# 
# From -- ./inp_files/33248.got.cif
#   From: 2010.05.17/outbox.cif.g08.bks.cpg/sg52_17_cif.got.tgz:33248.got - 2010.06.03 12:15:38.
