data_PCOD9410673
_publ_section_title
;
Structure prediction by ZEFSAII (Michael W. Deem and Ramdas Pophale) SiO2 
 PCOD9410673
Probable space group: P N N A
;
_chemical_formula_sum "Si O2"
_cell_formula_units_Z 32
_cell_length_a 5.421679
_cell_length_b 24.319097
_cell_length_c 12.064953
_cell_angle_alpha 90.000000
_cell_angle_beta 90.000000
_cell_angle_gamma 90.000000
_cell_volume 1590.768125
_symmetry_space_group_name_H-M "P N N A"
_symmetry_group_IT_number 52
_symmetry_cell_setting 'orthorhombic'
loop_
_space_group_symop_operation_xyz
x,y,z
1/2-x,-y,z
x,1/2-y,1/2-z
1/2-x,1/2+y,1/2-z
-x,-y,-z
1/2+x,y,-z
-x,1/2+y,1/2+z
1/2+x,1/2-y,1/2+z
loop_
_atom_site_type_symbol
_atom_site_label
_atom_site_fract_x
_atom_site_fract_y
_atom_site_fract_z
Si Si1 0.271586 0.339623 0.747286
Si Si2 0.273454 0.201041 0.158200
Si Si3 0.735697 0.062566 0.426410
Si Si4 0.215129 0.712119 0.966603
O O1 0.524010 0.333367 0.678551
O O2 0.261582 0.392974 0.827198
O O3 0.271272 0.288878 0.836100
O O4 0.020877 0.333688 0.677927
O O5 0.271806 0.250000 0.250000
O O6 0.282258 0.232859 0.040734
O O7 0.471016 0.067217 0.489730
O O8 0.750000 0.000000 0.381812
O O9 0.461506 0.682917 0.005369
#
# Coordination Sequence:
#
# PCOD9410673 Si02
#       4
#     8   8   8   8
#     4  12  22  37  54  77 115 150 178 225 275 312
#     4  12  23  34  51  80 106 152 191 214 261 341
#     4  10  21  37  57  81 107 145 191 226 274 334
#     4  12  21  33  50  72 108 149 177 214 262 318
#
# _framework density 20.116069
#
# number of rings (size 3 to 8) (size 9 to 14) (size 15 to 20)
#    0.000    0.500    5.000    5.250    0.000    0.000 
#    0.000    0.000    0.000    0.000    0.000    0.000 
#    0.000   20.000    0.000    3.000    0.000    0.000 
#
# Total GULP energy -178584.578389 kJ/mol
# GULP energy per Si atom -5580.768075 kJ/mol
# Density = 2.007028 g / cm^3
# Si number density = 20.116069 Si / 1000 Ang^3
#
#
#
# Elastic Constant Matrix: (Units=GPa)
#
#
# Indices 1 2 3 4 5 6 
#
# 1 176.9263 9.4651 6.0861 0.0000 0.0000 0.0000
# 2 9.4651 92.4342 34.8128 0.0000 0.0000 0.0000
# 3 6.0861 34.8128 60.9184 0.0000 0.0000 0.0000
# 4 0.0000 0.0000 0.0000 39.7481 0.0000 0.0000
# 5 0.0000 0.0000 0.0000 0.0000 41.1044 0.0000
# 6 0.0000 0.0000 0.0000 0.0000 0.0000 80.7481
#
#
#
# Elastic Compliance Matrix: (Units=1/GPa)
#
#
# Indices 1 2 3 4 5 6 
#
# 1 0.005688 -0.000469 -0.000300 0.000000 0.000000 0.000000
# 2 -0.000469 0.013824 -0.007853 0.000000 0.000000 0.000000
# 3 -0.000300 -0.007853 0.020933 0.000000 0.000000 0.000000
# 4 0.000000 0.000000 0.000000 0.025158 0.000000 0.000000
# 5 0.000000 0.000000 0.000000 0.000000 0.024328 0.000000
# 6 0.000000 0.000000 0.000000 0.000000 0.000000 0.012384
#
#
# Mechanical properties :
#
#
# Convention : Reuss Voigt Hill
#
# Bulk Modulus (GPa) = 43.10378 47.88966 45.49672
# Shear Modulus (GPa) = 39.27906 50.98111 45.13009
#
# Velocity S-wave (km/s) = 4.42364 5.03969 4.74168
# Velocity P-wave (km/s) = 6.89678 7.59757 7.25564
#
# Compressibility (1/GPa) = 0.02319982
#
# Stress axis : x y z
#
# Youngs Moduli (GPa) = 175.82414 72.33661 47.77100
#
# Poissons Ratio (x) = 0.03396 0.01433
# Poissons Ratio (y) = 0.08254 0.37516
# Poissons Ratio (z) = 0.05274 0.56807
#
# Static dielectric constant tensor:
#      x y z
#    x 1.860320 0.000000 0.000000 
#    y 0.000000 1.717460 0.000000 
#    z 0.000000 0.000000 1.724660 
# 
# From -- ./inp_files/15992.got.cif
#   From: 2010.05.17/outbox.cif.g08.bks.cpg/sg52_8_cif.got.tgz:15992.got - 2010.06.03 12:15:38.
