data_PCOD9410053
_publ_section_title
;
Structure prediction by ZEFSAII (Michael W. Deem and Ramdas Pophale) SiO2 
 PCOD9410053
Probable space group: P N N A
;
_chemical_formula_sum "Si O2"
_cell_formula_units_Z 40
_cell_length_a 20.996822
_cell_length_b 11.010277
_cell_length_c 7.871026
_cell_angle_alpha 90.000000
_cell_angle_beta 90.000000
_cell_angle_gamma 90.000000
_cell_volume 1819.630295
_symmetry_space_group_name_H-M "P N N A"
_symmetry_group_IT_number 52
_symmetry_cell_setting 'orthorhombic'
loop_
_space_group_symop_operation_xyz
x,y,z
1/2-x,-y,z
x,1/2-y,1/2-z
1/2-x,1/2+y,1/2-z
-x,-y,-z
1/2+x,y,-z
-x,1/2+y,1/2+z
1/2+x,1/2-y,1/2+z
loop_
_atom_site_type_symbol
_atom_site_label
_atom_site_fract_x
_atom_site_fract_y
_atom_site_fract_z
Si Si1 0.317378 0.504341 0.144696
Si Si2 0.566443 0.967878 0.222527
Si Si3 0.932321 0.602157 0.637696
Si Si4 0.382073 0.680647 0.926342
Si Si5 0.295918 0.117520 0.690418
O O1 0.250000 0.500000 0.240367
O O2 0.378631 0.527886 0.258451
O O3 0.321183 0.618843 0.013561
O O4 0.314479 0.393855 0.010804
O O5 0.500133 0.897253 0.231846
O O6 0.634200 0.900690 0.224895
O O7 0.572485 0.069723 0.369837
O O8 0.562236 0.033937 0.042173
O O9 0.909790 0.732848 0.570236
O O10 0.369851 0.750000 0.750000
O O11 0.272582 0.250000 0.750000
O O12 0.250000 0.000000 0.735401
#
# Coordination Sequence:
#
# PCOD9410053 Si02
#       5
#     8   8   8   8   8
#     4  10  22  37  57  90 122 158 211 265 318 381
#     4   9  21  38  61  91 124 167 216 261 318 395
#     4  10  20  38  61  93 128 165 214 272 328 380
#     4   9  19  38  63  87 123 168 210 258 326 395
#     4  10  23  42  64  92 128 173 221 269 329 403
#
# _framework density 21.982488
#
# number of rings (size 3 to 8) (size 9 to 14) (size 15 to 20)
#    0.000    2.400    0.000    0.600    0.000   19.200 
#    0.000   10.000    0.000    0.000    0.000    0.000 
#    0.000    0.000    0.000    0.000    0.000    0.000 
#
# Total GULP energy -222788.269812 kJ/mol
# GULP energy per Si atom -5569.706745 kJ/mol
# Density = 2.193245 g / cm^3
# Si number density = 21.982488 Si / 1000 Ang^3
#
#
#
# Elastic Constant Matrix: (Units=GPa)
#
#
# Indices 1 2 3 4 5 6 
#
# 1 175.0399 57.7750 37.2626 0.0000 0.0000 0.0000
# 2 57.7750 115.2862 39.7547 0.0000 0.0000 0.0000
# 3 37.2626 39.7547 84.6091 0.0000 0.0000 0.0000
# 4 0.0000 0.0000 0.0000 19.9373 0.0000 0.0000
# 5 0.0000 0.0000 0.0000 0.0000 -28.3548 0.0000
# 6 0.0000 0.0000 0.0000 0.0000 0.0000 23.4297
#
#
#
# Elastic Compliance Matrix: (Units=1/GPa)
#
#
# Indices 1 2 3 4 5 6 
#
# 1 0.007050 -0.002938 -0.001724 0.000000 0.000000 0.000000
# 2 -0.002938 0.011576 -0.004145 0.000000 0.000000 0.000000
# 3 -0.001724 -0.004145 0.014526 0.000000 0.000000 0.000000
# 4 0.000000 0.000000 0.000000 0.050157 0.000000 0.000000
# 5 0.000000 0.000000 0.000000 0.000000 -0.035267 0.000000
# 6 0.000000 0.000000 0.000000 0.000000 0.000000 0.042681
#
#
# Mechanical properties :
#
#
# Convention : Reuss Voigt Hill
#
# Bulk Modulus (GPa) = 64.36410 71.61331 67.98870
# Shear Modulus (GPa) = 44.04636 19.01197 31.52916
#
# Velocity S-wave (km/s) = 4.48113 2.94406 3.79130
# Velocity P-wave (km/s) = 7.49115 6.64867 7.08245
#
# Compressibility (1/GPa) = 0.01553661
#
# Stress axis : x y z
#
# Youngs Moduli (GPa) = 141.84558 86.38552 68.84214
#
# Poissons Ratio (x) = 0.25384 0.11870
# Poissons Ratio (y) = 0.41681 0.28535
# Poissons Ratio (z) = 0.24457 0.35807
#
# Static dielectric constant tensor:
#      x y z
#    x 1.862400 0.000000 0.000000 
#    y 0.000000 1.875620 0.000000 
#    z 0.000000 0.000000 1.843160 
# 
# From -- ./inp_files/13134.got.cif
#   From: 2010.05.17/outbox.cif.g08.bks.cpg/sg52_7_cif.got.tgz:13134.got - 2010.06.03 12:15:38.
