data_PCOD9410838
_publ_section_title
;
Structure prediction by ZEFSAII (Michael W. Deem and Ramdas Pophale) SiO2 
 PCOD9410838
Probable space group: P N N A
;
_chemical_formula_sum "Si O2"
_cell_formula_units_Z 20
_cell_length_a 21.195364
_cell_length_b 5.115510
_cell_length_c 7.026804
_cell_angle_alpha 90.000000
_cell_angle_beta 90.000000
_cell_angle_gamma 90.000000
_cell_volume 761.881902
_symmetry_space_group_name_H-M "P N N A"
_symmetry_group_IT_number 52
_symmetry_cell_setting 'orthorhombic'
loop_
_space_group_symop_operation_xyz
x,y,z
1/2-x,-y,z
x,1/2-y,1/2-z
1/2-x,1/2+y,1/2-z
-x,-y,-z
1/2+x,y,-z
-x,1/2+y,1/2+z
1/2+x,1/2-y,1/2+z
loop_
_atom_site_type_symbol
_atom_site_label
_atom_site_fract_x
_atom_site_fract_y
_atom_site_fract_z
Si Si1 0.119682 0.317384 0.970337
Si Si2 0.750000 0.000000 0.616947
Si Si3 0.937936 0.176626 0.027093
O O1 0.105812 0.250000 0.750000
O O2 0.070609 0.531141 0.054835
O O3 0.114948 0.024340 0.051446
O O4 0.188195 0.440716 0.992257
O O5 0.740600 0.750000 0.750000
O O6 0.930872 0.250000 0.250000
O O7 0.000000 0.000000 0.000000
#
# Coordination Sequence:
#
# PCOD9410838 Si02
#       3
#     8   4   8
#     4  10  23  42  63  89 125 171 214 258 321 394
#     4  12  26  42  64  98 130 166 220 280 332 378
#     4  10  21  38  62  92 124 163 212 262 317 380
#
# _framework density 26.250785
#
# number of rings (size 3 to 8) (size 9 to 14) (size 15 to 20)
#    0.000    1.600    0.000    3.600    0.000   11.200 
#    0.000    0.000    0.000    0.000    0.000    0.000 
#    0.000    0.000    0.000    0.000    0.000    0.000 
#
# Total GULP energy -111735.447166 kJ/mol
# GULP energy per Si atom -5586.772358 kJ/mol
# Density = 2.619104 g / cm^3
# Si number density = 26.250785 Si / 1000 Ang^3
#
#
#
# Elastic Constant Matrix: (Units=GPa)
#
#
# Indices 1 2 3 4 5 6 
#
# 1 140.0704 81.9842 -13.4373 0.0000 0.0000 0.0000
# 2 81.9842 298.1253 57.8256 0.0000 0.0000 0.0000
# 3 -13.4373 57.8256 64.4910 0.0000 0.0000 0.0000
# 4 0.0000 0.0000 0.0000 25.7943 0.0000 0.0000
# 5 0.0000 0.0000 0.0000 0.0000 28.3598 0.0000
# 6 0.0000 0.0000 0.0000 0.0000 0.0000 50.4396
#
#
#
# Elastic Compliance Matrix: (Units=1/GPa)
#
#
# Indices 1 2 3 4 5 6 
#
# 1 0.009865 -0.003767 0.005433 0.000000 0.000000 0.000000
# 2 -0.003767 0.005499 -0.005715 0.000000 0.000000 0.000000
# 3 0.005433 -0.005715 0.021763 0.000000 0.000000 0.000000
# 4 0.000000 0.000000 0.000000 0.038768 0.000000 0.000000
# 5 0.000000 0.000000 0.000000 0.000000 0.035261 0.000000
# 6 0.000000 0.000000 0.000000 0.000000 0.000000 0.019826
#
#
# Mechanical properties :
#
#
# Convention : Reuss Voigt Hill
#
# Bulk Modulus (GPa) = 34.44913 83.93686 59.19300
# Shear Modulus (GPa) = 33.61219 46.00634 39.80927
#
# Velocity S-wave (km/s) = 3.58219 4.19091 3.89845
# Velocity P-wave (km/s) = 5.50100 7.44733 6.54690
#
# Compressibility (1/GPa) = 0.02902831
#
# Stress axis : x y z
#
# Youngs Moduli (GPa) = 101.36728 181.86228 45.95058
#
# Poissons Ratio (x) = 0.68502 -0.24964
# Poissons Ratio (y) = 0.38182 0.26262
# Poissons Ratio (z) = -0.55071 1.03938
#
# Static dielectric constant tensor:
#      x y z
#    x 2.123140 0.000000 0.000000 
#    y 0.000000 2.117340 0.000000 
#    z 0.000000 0.000000 2.120130 
# 
# From -- ./inp_files/11184.got.cif
#   From: 2010.05.17/outbox.cif.g08.bks.cpg/sg52_6_cif.got.tgz:11184.got - 2010.06.03 12:15:38.
