data_PCOD9410946
_publ_section_title
;
Structure prediction by ZEFSAII (Michael W. Deem and Ramdas Pophale) SiO2 
 PCOD9410946
Probable space group: P N N A
;
_chemical_formula_sum "Si O2"
_cell_formula_units_Z 48
_cell_length_a 15.216835
_cell_length_b 19.216498
_cell_length_c 8.660176
_cell_angle_alpha 90.000000
_cell_angle_beta 90.000000
_cell_angle_gamma 90.000000
_cell_volume 2532.359124
_symmetry_space_group_name_H-M "P N N A"
_symmetry_group_IT_number 52
_symmetry_cell_setting 'orthorhombic'
loop_
_space_group_symop_operation_xyz
x,y,z
1/2-x,-y,z
x,1/2-y,1/2-z
1/2-x,1/2+y,1/2-z
-x,-y,-z
1/2+x,y,-z
-x,1/2+y,1/2+z
1/2+x,1/2-y,1/2+z
loop_
_atom_site_type_symbol
_atom_site_label
_atom_site_fract_x
_atom_site_fract_y
_atom_site_fract_z
Si Si1 0.915575 0.085585 0.315928
Si Si2 0.607355 0.435164 0.314974
Si Si3 0.107355 0.064838 0.185028
Si Si4 0.584424 0.914417 0.684071
Si Si5 0.239782 0.826155 0.814883
Si Si6 0.760220 0.326155 0.685116
O O1 0.922794 0.086897 0.500000
O O2 0.850201 0.144444 0.255893
O O3 0.012251 0.090812 0.241788
O O4 0.878794 0.010465 0.261740
O O5 0.605970 0.444272 0.500001
O O6 0.512252 0.409191 0.258211
O O7 0.682928 0.380469 0.274565
O O8 0.182927 0.119533 0.225434
O O9 0.121205 0.989538 0.261745
O O10 0.649798 0.855558 0.744110
O O11 0.259219 0.750000 0.750000
O O12 0.232696 0.823801 0.999999
O O13 0.740787 0.250000 0.750000
#
# Coordination Sequence:
#
# PCOD9410946 Si02
#       6
#     8   8   8   8   8   8
#     4  11  22  37  61  89 117 150 191 238 286 341
#     4  10  21  39  62  86 115 151 194 241 287 337
#     4  10  21  39  62  86 115 151 194 241 287 337
#     4  11  22  37  61  89 117 150 191 238 286 341
#     4  11  24  40  59  84 116 154 192 235 287 342
#     4  11  24  40  59  84 116 154 192 235 287 342
#
# _framework density 18.954657000000001
#
# number of rings (size 3 to 8) (size 9 to 14) (size 15 to 20)
#    0.000    1.333    0.000    8.000    0.000   10.667 
#    0.000    3.333    0.000    0.000    0.000    0.000 
#    0.000    0.000    0.000    0.000    0.000    0.000 
#
# Total GULP energy -268486.314818 kJ/mol
# GULP energy per Si atom -5593.464892 kJ/mol
# Density = 1.891151 g / cm^3
# Si number density = 18.954657 Si / 1000 Ang^3
#
#
#
# Elastic Constant Matrix: (Units=GPa)
#
#
# Indices 1 2 3 4 5 6 
#
# 1 29.8332 9.2298 -1.5307 0.0000 0.0000 0.0000
# 2 9.2298 23.9434 -6.6956 0.0000 0.0000 0.0000
# 3 -1.5307 -6.6956 46.9560 0.0000 0.0000 0.0000
# 4 0.0000 0.0000 0.0000 35.3031 0.0000 0.0000
# 5 0.0000 0.0000 0.0000 0.0000 44.8132 0.0000
# 6 0.0000 0.0000 0.0000 0.0000 0.0000 2.8989
#
#
#
# Elastic Compliance Matrix: (Units=1/GPa)
#
#
# Indices 1 2 3 4 5 6 
#
# 1 0.038094 -0.014933 -0.000888 0.000000 0.000000 0.000000
# 2 -0.014933 0.049353 0.006551 0.000000 0.000000 0.000000
# 3 -0.000888 0.006551 0.022202 0.000000 0.000000 0.000000
# 4 0.000000 0.000000 0.000000 0.028326 0.000000 0.000000
# 5 0.000000 0.000000 0.000000 0.000000 0.022315 0.000000
# 6 0.000000 0.000000 0.000000 0.000000 0.000000 0.344954
#
#
# Mechanical properties :
#
#
# Convention : Reuss Voigt Hill
#
# Bulk Modulus (GPa) = 10.97578 11.41551 11.19564
# Shear Modulus (GPa) = 9.02277 23.25166 16.13721
#
# Velocity S-wave (km/s) = 2.18415 3.50623 2.92097
# Velocity P-wave (km/s) = 3.48766 4.73573 4.15878
#
# Compressibility (1/GPa) = 0.09110972
#
# Stress axis : x y z
#
# Youngs Moduli (GPa) = 26.25073 20.26203 45.04161
#
# Poissons Ratio (x) = 0.30257 0.03998
# Poissons Ratio (y) = 0.39200 -0.29505
# Poissons Ratio (z) = 0.02330 -0.13273
#
# Static dielectric constant tensor:
#      x y z
#    x 1.644040 0.000000 0.000000 
#    y 0.000000 1.634230 0.000000 
#    z 0.000000 0.000000 1.632850 
# 
# From -- ./inp_files/10459.got.cif
#   From: 2010.05.17/outbox.cif.g08.bks.cpg/sg52_6_cif.got.tgz:10459.got - 2010.06.03 12:15:38.
