data_PCOD9410411
_publ_section_title
;
Structure prediction by ZEFSAII (Michael W. Deem and Ramdas Pophale) SiO2 
 PCOD9410411
Probable space group: P N N A
;
_chemical_formula_sum "Si O2"
_cell_formula_units_Z 48
_cell_length_a 12.375213
_cell_length_b 11.768922
_cell_length_c 18.388153
_cell_angle_alpha 90.000000
_cell_angle_beta 90.000000
_cell_angle_gamma 90.000000
_cell_volume 2678.104233
_symmetry_space_group_name_H-M "P N N A"
_symmetry_group_IT_number 52
_symmetry_cell_setting 'orthorhombic'
loop_
_space_group_symop_operation_xyz
x,y,z
1/2-x,-y,z
x,1/2-y,1/2-z
1/2-x,1/2+y,1/2-z
-x,-y,-z
1/2+x,y,-z
-x,1/2+y,1/2+z
1/2+x,1/2-y,1/2+z
loop_
_atom_site_type_symbol
_atom_site_label
_atom_site_fract_x
_atom_site_fract_y
_atom_site_fract_z
Si Si1 0.027920 0.250000 0.250000
Si Si2 0.875692 0.282805 0.388555
Si Si3 0.750000 0.500000 0.344406
Si Si4 0.538564 0.383310 0.961237
Si Si5 0.310732 0.886226 0.586499
Si Si6 0.927051 0.884654 0.264144
Si Si7 0.625278 0.468537 0.804605
O O1 0.103850 0.357328 0.242230
O O2 0.949409 0.274584 0.317372
O O3 0.819949 0.407630 0.390801
O O4 0.774754 0.199971 0.381054
O O5 0.949705 0.216168 0.448476
O O6 0.840216 0.560317 0.292075
O O7 0.585307 0.427594 0.884653
O O8 0.500000 0.500000 0.000000
O O9 0.627976 0.336867 0.017044
O O10 0.386730 0.913265 0.654362
O O11 0.250000 0.000000 0.562537
O O12 0.929855 0.750000 0.250000
O O13 0.047156 0.937755 0.267442
O O14 0.750000 0.500000 0.807907
#
# Coordination Sequence:
#
# PCOD9410411 Si02
#       7
#     4   8   4   8   8   8   8
#     4  10  20  42  60  92 124 162 206 260 328 370
#     4  11  22  37  62  89 129 161 204 266 314 379
#     4  12  22  40  64  98 126 164 208 264 330 366
#     4  11  22  37  59  92 126 161 209 260 317 371
#     4  12  20  34  63  95 122 155 207 263 312 369
#     4  12  23  36  64  97 122 158 209 264 309 372
#     4  11  24  39  61  90 127 165 205 257 321 382
#
# _framework density 17.923127000000001
#
# number of rings (size 3 to 8) (size 9 to 14) (size 15 to 20)
#    0.000    0.667    7.500    2.500    1.167    0.000 
#    0.000    0.833    0.000    0.000    0.000    0.000 
#    0.000    0.000    0.000    0.000    0.000    0.000 
#
# Total GULP energy -267405.963351 kJ/mol
# GULP energy per Si atom -5570.957570 kJ/mol
# Density = 1.788233 g / cm^3
# Si number density = 17.923127 Si / 1000 Ang^3
#
#
#
# Elastic Constant Matrix: (Units=GPa)
#
#
# Indices 1 2 3 4 5 6 
#
# 1 128.0825 67.4816 28.0147 0.0000 0.0000 0.0000
# 2 67.4816 121.3281 24.6816 0.0000 0.0000 0.0000
# 3 28.0147 24.6816 47.3805 0.0000 0.0000 0.0000
# 4 0.0000 0.0000 0.0000 -0.8748 0.0000 0.0000
# 5 0.0000 0.0000 0.0000 0.0000 47.9039 0.0000
# 6 0.0000 0.0000 0.0000 0.0000 0.0000 42.8659
#
#
#
# Elastic Compliance Matrix: (Units=1/GPa)
#
#
# Indices 1 2 3 4 5 6 
#
# 1 0.011664 -0.005687 -0.003934 0.000000 0.000000 0.000000
# 2 -0.005687 0.011992 -0.002884 0.000000 0.000000 0.000000
# 3 -0.003934 -0.002884 0.024934 0.000000 0.000000 0.000000
# 4 0.000000 0.000000 0.000000 -1.143086 0.000000 0.000000
# 5 0.000000 0.000000 0.000000 0.000000 0.020875 0.000000
# 6 0.000000 0.000000 0.000000 0.000000 0.000000 0.023329
#
#
# Mechanical properties :
#
#
# Convention : Reuss Voigt Hill
#
# Bulk Modulus (GPa) = 42.40986 59.68301 51.04643
# Shear Modulus (GPa) = -4.91439 29.75321 12.41941
#
# Velocity S-wave (km/s) = -1.65767 4.07879 2.63521
# Velocity P-wave (km/s) = 4.47768 7.45344 6.14831
#
# Compressibility (1/GPa) = 0.02357942
#
# Stress axis : x y z
#
# Youngs Moduli (GPa) = 85.73108 83.38837 40.10537
#
# Poissons Ratio (x) = 0.47426 0.15778
# Poissons Ratio (y) = 0.48758 0.11567
# Poissons Ratio (z) = 0.33728 0.24051
#
# Static dielectric constant tensor:
#      x y z
#    x 1.662290 0.000000 0.000000 
#    y 0.000000 1.601840 0.000000 
#    z 0.000000 0.000000 0.656660 
# 
# From -- ./inp_files/32241.got.cif
#   From: 2010.05.17/outbox.cif.g08.bks.cpg/sg52_17_cif.got.tgz:32241.got - 2010.06.03 12:15:38.
