data_PCOD9410922
_publ_section_title
;
Structure prediction by ZEFSAII (Michael W. Deem and Ramdas Pophale) SiO2 
 PCOD9410922
Probable space group: P N N A
;
_chemical_formula_sum "Si O2"
_cell_formula_units_Z 64
_cell_length_a 9.465391
_cell_length_b 21.257986
_cell_length_c 15.401901
_cell_angle_alpha 90.000000
_cell_angle_beta 90.000000
_cell_angle_gamma 90.000000
_cell_volume 3099.095810
_symmetry_space_group_name_H-M "P N N A"
_symmetry_group_IT_number 52
_symmetry_cell_setting 'orthorhombic'
loop_
_space_group_symop_operation_xyz
x,y,z
1/2-x,-y,z
x,1/2-y,1/2-z
1/2-x,1/2+y,1/2-z
-x,-y,-z
1/2+x,y,-z
-x,1/2+y,1/2+z
1/2+x,1/2-y,1/2+z
loop_
_atom_site_type_symbol
_atom_site_label
_atom_site_fract_x
_atom_site_fract_y
_atom_site_fract_z
Si Si1 0.452138 0.641106 0.173066
Si Si2 0.836889 0.564921 0.526834
Si Si3 0.087680 0.474950 0.282930
Si Si4 0.304352 0.191540 0.800990
Si Si5 0.943657 0.595022 0.341925
Si Si6 0.728328 0.298963 0.552947
Si Si7 0.451474 0.237594 0.538984
Si Si8 0.187850 0.683887 0.268412
O O1 0.450613 0.568411 0.201347
O O2 0.566534 0.670157 0.239891
O O3 0.501431 0.671837 0.081748
O O4 0.289339 0.659727 0.192783
O O5 0.750000 0.500000 0.516045
O O6 0.908693 0.560445 0.622483
O O7 0.936574 0.575365 0.443509
O O8 0.743812 0.628922 0.526977
O O9 0.250000 0.500000 0.274321
O O10 0.973702 0.530052 0.292281
O O11 0.233255 0.250000 0.750000
O O12 0.196716 0.134615 0.819302
O O13 0.370257 0.220808 0.888270
O O14 0.075849 0.636968 0.310298
O O15 0.587941 0.275301 0.507664
O O16 0.843404 0.245095 0.538848
O O17 0.700280 0.301464 0.655103
O O18 0.116144 0.750000 0.250000
#
# Coordination Sequence:
#
# PCOD9410922 Si02
#       8
#     8   8   8   8   8   8   8   8
#     4  11  21  42  63  84 124 172 214 262 321 379
#     4  11  23  37  54  87 135 178 207 248 304 386
#     4  11  22  39  61  91 129 177 226 255 309 398
#     4  10  21  39  58  87 129 167 212 266 317 369
#     4  12  24  36  57  92 131 169 217 265 310 379
#     4  12  22  38  64  88 124 169 217 259 320 383
#     4  11  23  40  62  92 123 169 213 271 324 378
#     4  12  21  39  64  90 121 167 217 271 314 379
#
# _framework density 20.651184000000001
#
# number of rings (size 3 to 8) (size 9 to 14) (size 15 to 20)
#    0.000    0.750    6.250    2.625    1.750    1.000 
#    0.000    0.000    0.000    0.000    0.000    3.500 
#    3.750    0.125    0.000    0.000    0.000    0.000 
#
# Total GULP energy -356812.630415 kJ/mol
# GULP energy per Si atom -5575.197350 kJ/mol
# Density = 2.060418 g / cm^3
# Si number density = 20.651184 Si / 1000 Ang^3
#
#
#
# Elastic Constant Matrix: (Units=GPa)
#
#
# Indices 1 2 3 4 5 6 
#
# 1 90.1606 38.7129 19.8338 0.0000 0.0000 0.0000
# 2 38.7129 136.4066 47.6410 0.0000 0.0000 0.0000
# 3 19.8338 47.6410 39.5118 0.0000 0.0000 0.0000
# 4 0.0000 0.0000 0.0000 30.5802 0.0000 0.0000
# 5 0.0000 0.0000 0.0000 0.0000 22.0060 0.0000
# 6 0.0000 0.0000 0.0000 0.0000 0.0000 32.7883
#
#
#
# Elastic Compliance Matrix: (Units=1/GPa)
#
#
# Indices 1 2 3 4 5 6 
#
# 1 0.012915 -0.002420 -0.003565 0.000000 0.000000 0.000000
# 2 -0.002420 0.013118 -0.014602 0.000000 0.000000 0.000000
# 3 -0.003565 -0.014602 0.044704 0.000000 0.000000 0.000000
# 4 0.000000 0.000000 0.000000 0.032701 0.000000 0.000000
# 5 0.000000 0.000000 0.000000 0.000000 0.045442 0.000000
# 6 0.000000 0.000000 0.000000 0.000000 0.000000 0.030499
#
#
# Mechanical properties :
#
#
# Convention : Reuss Voigt Hill
#
# Bulk Modulus (GPa) = 33.82559 53.16160 43.49359
# Shear Modulus (GPa) = 21.70092 27.73432 24.71762
#
# Velocity S-wave (km/s) = 3.24517 3.66866 3.46339
# Velocity P-wave (km/s) = 5.51875 6.61392 6.09100
#
# Compressibility (1/GPa) = 0.02956342
#
# Stress axis : x y z
#
# Youngs Moduli (GPa) = 77.43121 76.23341 22.36945
#
# Poissons Ratio (x) = 0.18451 0.07974
# Poissons Ratio (y) = 0.18741 0.32663
# Poissons Ratio (z) = 0.27601 1.11312
#
# Static dielectric constant tensor:
#      x y z
#    x 1.800100 0.000000 0.000000 
#    y 0.000000 1.792070 0.000000 
#    z 0.000000 0.000000 1.777460 
# 
# From -- ./inp_files/31601.got.cif
#   From: 2010.05.17/outbox.cif.g08.bks.cpg/sg52_16_cif.got.tgz:31601.got - 2010.06.03 12:15:38.
