data_PCOD9410576
_publ_section_title
;
Structure prediction by ZEFSAII (Michael W. Deem and Ramdas Pophale) SiO2 
 PCOD9410576
Probable space group: P N N A
;
_chemical_formula_sum "Si O2"
_cell_formula_units_Z 40
_cell_length_a 25.067388
_cell_length_b 7.769981
_cell_length_c 10.420172
_cell_angle_alpha 90.000000
_cell_angle_beta 90.000000
_cell_angle_gamma 90.000000
_cell_volume 2029.569500
_symmetry_space_group_name_H-M "P N N A"
_symmetry_group_IT_number 52
_symmetry_cell_setting 'orthorhombic'
loop_
_space_group_symop_operation_xyz
x,y,z
1/2-x,-y,z
x,1/2-y,1/2-z
1/2-x,1/2+y,1/2-z
-x,-y,-z
1/2+x,y,-z
-x,1/2+y,1/2+z
1/2+x,1/2-y,1/2+z
loop_
_atom_site_type_symbol
_atom_site_label
_atom_site_fract_x
_atom_site_fract_y
_atom_site_fract_z
Si Si1 0.289074 0.653383 0.628323
Si Si2 0.618956 0.935709 0.249035
Si Si3 0.439636 0.063604 0.011537
Si Si4 0.863023 0.743856 0.605372
Si Si5 0.562118 0.956082 0.519760
O O1 0.250000 0.500000 0.582533
O O2 0.262140 0.750000 0.750000
O O3 0.338960 0.572181 0.703366
O O4 0.316501 0.747559 0.504928
O O5 0.645697 0.750000 0.250000
O O6 0.590925 0.971265 0.382129
O O7 0.576169 0.922946 0.137134
O O8 0.434542 0.257664 0.066218
O O9 0.399259 0.926604 0.076249
O O10 0.500000 0.000000 0.000000
O O11 0.840629 0.750000 0.750000
O O12 0.904861 0.903187 0.599217
O O13 0.500000 0.000000 0.500000
#
# Coordination Sequence:
#
# PCOD9410576 Si02
#       5
#     8   8   8   8   8
#     4  11  22  43  73  95 119 163 222 287 343 383
#     4   9  20  37  59  91 127 156 221 276 312 387
#     4  10  21  35  58  93 129 176 223 264 312 395
#     4  11  25  43  62  95 138 175 217 271 334 409
#     4  11  21  36  63  95 134 183 215 262 329 394
#
# _framework density 19.708614000000001
#
# number of rings (size 3 to 8) (size 9 to 14) (size 15 to 20)
#    0.000    1.600    4.000    0.600    2.800    0.800 
#    0.000    1.000    0.000    0.000    0.000    0.000 
#    0.000    0.000    0.000    0.000    0.000    0.000 
#
# Total GULP energy -222818.884549 kJ/mol
# GULP energy per Si atom -5570.472114 kJ/mol
# Density = 1.966376 g / cm^3
# Si number density = 19.708614 Si / 1000 Ang^3
#
#
#
# Elastic Constant Matrix: (Units=GPa)
#
#
# Indices 1 2 3 4 5 6 
#
# 1 87.8458 18.6956 23.3557 0.0000 0.0000 0.0000
# 2 18.6956 106.0081 22.4235 0.0000 0.0000 0.0000
# 3 23.3557 22.4235 106.8013 0.0000 0.0000 0.0000
# 4 0.0000 0.0000 0.0000 20.6905 0.0000 0.0000
# 5 0.0000 0.0000 0.0000 0.0000 -48.2473 0.0000
# 6 0.0000 0.0000 0.0000 0.0000 0.0000 31.9013
#
#
#
# Elastic Compliance Matrix: (Units=1/GPa)
#
#
# Indices 1 2 3 4 5 6 
#
# 1 0.012367 -0.001684 -0.002351 0.000000 0.000000 0.000000
# 2 -0.001684 0.010101 -0.001753 0.000000 0.000000 0.000000
# 3 -0.002351 -0.001753 0.010245 0.000000 0.000000 0.000000
# 4 0.000000 0.000000 0.000000 0.048331 0.000000 0.000000
# 5 0.000000 0.000000 0.000000 0.000000 -0.020727 0.000000
# 6 0.000000 0.000000 0.000000 0.000000 0.000000 0.031347
#
#
# Mechanical properties :
#
#
# Convention : Reuss Voigt Hill
#
# Bulk Modulus (GPa) = 47.30668 47.73388 47.52028
# Shear Modulus (GPa) = 45.33698 16.61426 30.97562
#
# Velocity S-wave (km/s) = 4.80141 2.90659 3.96874
# Velocity P-wave (km/s) = 7.40225 5.96127 6.72049
#
# Compressibility (1/GPa) = 0.02113866
#
# Stress axis : x y z
#
# Youngs Moduli (GPa) = 80.86051 99.00117 97.60621
#
# Poissons Ratio (x) = 0.16669 0.22947
# Poissons Ratio (y) = 0.13615 0.17106
# Poissons Ratio (z) = 0.19010 0.17350
#
# Static dielectric constant tensor:
#      x y z
#    x 1.707170 0.000000 0.000000 
#    y 0.000000 1.758500 0.000000 
#    z 0.000000 0.000000 1.771940 
# 
# From -- ./inp_files/14805.got.cif
#   From: 2010.05.17/outbox.cif.g08.bks.cpg/sg52_8_cif.got.tgz:14805.got - 2010.06.03 12:15:38.
