data_PCOD9410216
_publ_section_title
;
Structure prediction by ZEFSAII (Michael W. Deem and Ramdas Pophale) SiO2 
 PCOD9410216
Probable space group: P N N A
;
_chemical_formula_sum "Si O2"
_cell_formula_units_Z 48
_cell_length_a 22.374771
_cell_length_b 6.302715
_cell_length_c 17.605706
_cell_angle_alpha 90.000000
_cell_angle_beta 90.000000
_cell_angle_gamma 90.000000
_cell_volume 2482.788435
_symmetry_space_group_name_H-M "P N N A"
_symmetry_group_IT_number 52
_symmetry_cell_setting 'orthorhombic'
loop_
_space_group_symop_operation_xyz
x,y,z
1/2-x,-y,z
x,1/2-y,1/2-z
1/2-x,1/2+y,1/2-z
-x,-y,-z
1/2+x,y,-z
-x,1/2+y,1/2+z
1/2+x,1/2-y,1/2+z
loop_
_atom_site_type_symbol
_atom_site_label
_atom_site_fract_x
_atom_site_fract_y
_atom_site_fract_z
Si Si1 0.250000 0.000000 0.947383
Si Si2 0.860529 0.516889 0.543998
Si Si3 0.947059 0.146746 0.577563
Si Si4 0.366376 0.847941 0.331097
Si Si5 0.194045 0.342751 0.833084
Si Si6 0.581500 0.132629 0.434178
Si Si7 0.750000 0.000000 0.717914
O O1 0.220514 0.171919 0.892283
O O2 0.196631 0.917238 0.001610
O O3 0.906507 0.353579 0.580104
O O4 0.841305 0.669318 0.612327
O O5 0.893808 0.669814 0.483531
O O6 0.015906 0.192443 0.595780
O O7 0.922509 0.963771 0.632071
O O8 0.934096 0.057530 0.492449
O O9 0.381987 0.750000 0.250000
O O10 0.312910 0.015548 0.324099
O O11 0.250000 0.500000 0.822284
O O12 0.179426 0.250000 0.750000
O O13 0.133130 0.425049 0.873598
O O14 0.744269 0.250000 0.750000
#
# Coordination Sequence:
#
# PCOD9410216 Si02
#       7
#     4   8   8   8   8   8   4
#     4  10  22  37  62  91 118 156 210 250 320 397
#     4  10  21  36  62  90 118 163 211 260 319 386
#     4  10  20  39  65  81 124 167 204 271 314 389
#     4  10  24  38  57  90 124 162 214 261 321 386
#     4  11  21  39  61  89 126 157 198 264 325 391
#     4   9  21  40  58  92 117 160 215 253 327 395
#     4  10  24  41  62  87 130 176 212 268 330 393
#
# _framework density 19.333100999999999
#
# number of rings (size 3 to 8) (size 9 to 14) (size 15 to 20)
#    0.000    2.000    0.833    1.500    7.000    0.667 
#    6.000    0.833    0.000    0.000    0.000    0.000 
#    0.000    0.000    0.000    0.000    0.000    0.000 
#
# Total GULP energy -267247.237121 kJ/mol
# GULP energy per Si atom -5567.650773 kJ/mol
# Density = 1.928910 g / cm^3
# Si number density = 19.333101 Si / 1000 Ang^3
#
#
#
# Elastic Constant Matrix: (Units=GPa)
#
#
# Indices 1 2 3 4 5 6 
#
# 1 130.4504 13.5650 49.6591 0.0000 0.0000 0.0000
# 2 13.5650 40.5020 13.1893 0.0000 0.0000 0.0000
# 3 49.6591 13.1893 99.9989 0.0000 0.0000 0.0000
# 4 0.0000 0.0000 0.0000 11.9388 0.0000 0.0000
# 5 0.0000 0.0000 0.0000 0.0000 2.6319 0.0000
# 6 0.0000 0.0000 0.0000 0.0000 0.0000 -4.3888
#
#
#
# Elastic Compliance Matrix: (Units=1/GPa)
#
#
# Indices 1 2 3 4 5 6 
#
# 1 0.009568 -0.001732 -0.004523 0.000000 0.000000 0.000000
# 2 -0.001732 0.026112 -0.002584 0.000000 0.000000 0.000000
# 3 -0.004523 -0.002584 0.012587 0.000000 0.000000 0.000000
# 4 0.000000 0.000000 0.000000 0.083760 0.000000 0.000000
# 5 0.000000 0.000000 0.000000 0.000000 0.379948 0.000000
# 6 0.000000 0.000000 0.000000 0.000000 0.000000 -0.227851
#
#
# Mechanical properties :
#
#
# Convention : Reuss Voigt Hill
#
# Bulk Modulus (GPa) = 32.69132 47.08645 39.88888
# Shear Modulus (GPa) = 16.02585 15.00558 15.51572
#
# Velocity S-wave (km/s) = 2.88224 2.78899 2.83600
# Velocity P-wave (km/s) = 5.29364 5.89741 5.60367
#
# Compressibility (1/GPa) = 0.03058916
#
# Stress axis : x y z
#
# Youngs Moduli (GPa) = 104.52032 38.29717 79.44736
#
# Poissons Ratio (x) = 0.06631 0.35933
# Poissons Ratio (y) = 0.18098 0.20530
# Poissons Ratio (z) = 0.47273 0.09896
#
# Static dielectric constant tensor:
#      x y z
#    x 1.701930 0.000000 0.000000 
#    y 0.000000 1.732630 0.000000 
#    z 0.000000 0.000000 1.695550 
# 
# From -- ./inp_files/34280.got.cif
#   From: 2010.05.17/outbox.cif.g08.bks.cpg/sg52_18_cif.got.tgz:34280.got - 2010.06.03 12:15:38.
