data_PCOD9410631
_publ_section_title
;
Structure prediction by ZEFSAII (Michael W. Deem and Ramdas Pophale) SiO2 
 PCOD9410631
Probable space group: P N N A
;
_chemical_formula_sum "Si O2"
_cell_formula_units_Z 64
_cell_length_a 18.738818
_cell_length_b 19.153826
_cell_length_c 8.058201
_cell_angle_alpha 90.000000
_cell_angle_beta 90.000000
_cell_angle_gamma 90.000000
_cell_volume 2892.249982
_symmetry_space_group_name_H-M "P N N A"
_symmetry_group_IT_number 52
_symmetry_cell_setting 'orthorhombic'
loop_
_space_group_symop_operation_xyz
x,y,z
1/2-x,-y,z
x,1/2-y,1/2-z
1/2-x,1/2+y,1/2-z
-x,-y,-z
1/2+x,y,-z
-x,1/2+y,1/2+z
1/2+x,1/2-y,1/2+z
loop_
_atom_site_type_symbol
_atom_site_label
_atom_site_fract_x
_atom_site_fract_y
_atom_site_fract_z
Si Si1 0.982370 0.295943 0.004427
Si Si2 0.825922 0.981718 0.538744
Si Si3 0.916508 0.020924 0.004483
Si Si4 0.376935 0.397165 0.831946
Si Si5 0.970897 0.347879 0.632200
Si Si6 0.369476 0.630390 0.495425
Si Si7 0.781452 0.639200 0.180296
Si Si8 0.633491 0.164450 0.631281
O O1 0.986007 0.331973 0.823763
O O2 0.946813 0.221628 0.964289
O O3 0.936512 0.341351 0.128635
O O4 0.061956 0.296650 0.077406
O O5 0.800963 0.940798 0.371005
O O6 0.875032 0.921038 0.615844
O O7 0.750000 0.000000 0.625731
O O8 0.864744 0.052199 0.489890
O O9 0.899154 0.053044 0.182694
O O10 0.916467 0.088049 0.884208
O O11 0.866580 0.954211 0.972852
O O12 0.000000 0.000000 0.000000
O O13 0.302497 0.358923 0.796699
O O14 0.047816 0.360285 0.546354
O O15 0.323644 0.655244 0.652697
O O16 0.349585 0.670355 0.325696
O O17 0.808185 0.678293 0.012910
#
# Coordination Sequence:
#
# PCOD9410631 Si02
#       8
#     8   8   8   8   8   8   8   8
#     4  11  23  40  66  88 129 178 215 268 325 388
#     4   8  17  36  56  86 123 161 204 248 314 376
#     4  10  21  36  59  97 124 156 212 267 325 386
#     4  11  21  38  63  89 134 176 201 276 330 381
#     4  10  23  41  61  93 130 164 219 270 321 391
#     4  11  20  39  66  96 125 159 217 271 322 387
#     4   9  20  41  59  93 132 163 219 258 323 390
#     4  10  21  37  66  92 122 173 210 259 327 385
#
# _framework density 22.1281
#
# number of rings (size 3 to 8) (size 9 to 14) (size 15 to 20)
#    0.750    1.250    2.500    1.500    3.500    2.500 
#    4.500    0.000    5.500    0.000    0.000    0.000 
#    0.000    0.000    0.000    0.000    0.000    0.000 
#
# Total GULP energy -356894.346210 kJ/mol
# GULP energy per Si atom -5576.474160 kJ/mol
# Density = 2.207774 g / cm^3
# Si number density = 22.128100 Si / 1000 Ang^3
#
#
#
# Elastic Constant Matrix: (Units=GPa)
#
#
# Indices 1 2 3 4 5 6 
#
# 1 63.8897 7.8789 28.3299 0.0000 0.0000 0.0000
# 2 7.8789 65.8697 30.4100 0.0000 0.0000 0.0000
# 3 28.3299 30.4100 132.4914 0.0000 0.0000 0.0000
# 4 0.0000 0.0000 0.0000 27.6379 0.0000 0.0000
# 5 0.0000 0.0000 0.0000 0.0000 4.9901 0.0000
# 6 0.0000 0.0000 0.0000 0.0000 0.0000 9.7993
#
#
#
# Elastic Compliance Matrix: (Units=1/GPa)
#
#
# Indices 1 2 3 4 5 6 
#
# 1 0.017301 -0.000404 -0.003607 0.000000 0.000000 0.000000
# 2 -0.000404 0.016990 -0.003813 0.000000 0.000000 0.000000
# 3 -0.003607 -0.003813 0.009194 0.000000 0.000000 0.000000
# 4 0.000000 0.000000 0.000000 0.036182 0.000000 0.000000
# 5 0.000000 0.000000 0.000000 0.000000 0.200397 0.000000
# 6 0.000000 0.000000 0.000000 0.000000 0.000000 0.102048
#
#
# Mechanical properties :
#
#
# Convention : Reuss Voigt Hill
#
# Bulk Modulus (GPa) = 35.92335 43.94315 39.93325
# Shear Modulus (GPa) = 12.28380 21.52759 16.90569
#
# Velocity S-wave (km/s) = 2.35866 3.12246 2.76704
# Velocity P-wave (km/s) = 4.86695 5.73596 5.31923
#
# Compressibility (1/GPa) = 0.02783705
#
# Stress axis : x y z
#
# Youngs Moduli (GPa) = 57.79985 58.85714 108.76588
#
# Poissons Ratio (x) = 0.02380 0.39227
# Poissons Ratio (y) = 0.02337 0.41475
# Poissons Ratio (z) = 0.20846 0.22443
#
# Static dielectric constant tensor:
#      x y z
#    x 1.800960 0.000000 0.000000 
#    y 0.000000 1.916630 0.000000 
#    z 0.000000 0.000000 1.956900 
# 
# From -- ./inp_files/12606.got.cif
#   From: 2010.05.17/outbox.cif.g08.bks.cpg/sg52_7_cif.got.tgz:12606.got - 2010.06.03 12:15:38.
