data_PCOD9410616
_publ_section_title
;
Structure prediction by ZEFSAII (Michael W. Deem and Ramdas Pophale) SiO2 
 PCOD9410616
Probable space group: P N N A
;
_chemical_formula_sum "Si O2"
_cell_formula_units_Z 60
_cell_length_a 11.285688
_cell_length_b 9.520938
_cell_length_c 24.622927
_cell_angle_alpha 90.000000
_cell_angle_beta 90.000000
_cell_angle_gamma 90.000000
_cell_volume 2645.741773
_symmetry_space_group_name_H-M "P N N A"
_symmetry_group_IT_number 52
_symmetry_cell_setting 'orthorhombic'
loop_
_space_group_symop_operation_xyz
x,y,z
1/2-x,-y,z
x,1/2-y,1/2-z
1/2-x,1/2+y,1/2-z
-x,-y,-z
1/2+x,y,-z
-x,1/2+y,1/2+z
1/2+x,1/2-y,1/2+z
loop_
_atom_site_type_symbol
_atom_site_label
_atom_site_fract_x
_atom_site_fract_y
_atom_site_fract_z
Si Si1 0.400138 0.173539 0.347549
Si Si2 0.544780 0.335489 0.052826
Si Si3 0.738064 0.750000 0.250000
Si Si4 0.134635 0.287189 0.146147
Si Si5 0.236979 0.169714 0.875261
Si Si6 0.377663 0.493395 0.320647
Si Si7 0.054343 0.844009 0.562125
Si Si8 0.029693 0.943586 0.722996
O O1 0.430717 0.150017 0.409360
O O2 0.261188 0.150511 0.338833
O O3 0.407450 0.339096 0.338664
O O4 0.490704 0.081609 0.311324
O O5 0.633377 0.233284 0.085915
O O6 0.597527 0.495263 0.050993
O O7 0.492788 0.285711 0.995344
O O8 0.787740 0.797317 0.189676
O O9 0.659508 0.881986 0.270999
O O10 0.140096 0.119601 0.137174
O O11 0.066697 0.352612 0.096271
O O12 0.049100 0.323370 0.195699
O O13 0.353520 0.251870 0.901155
O O14 0.250000 0.000000 0.880424
O O15 0.250000 0.500000 0.290100
O O16 0.484776 0.530174 0.282569
#
# Coordination Sequence:
#
# PCOD9410616 Si02
#       8
#     8   8   4   8   8   8   8   8
#     4  11  24  38  65 108 138 181 247 298 376 451
#     4  11  27  47  76 106 147 190 252 317 377 462
#     4  12  26  48  76 102 158 202 250 314 388 460
#     4  11  21  41  67  99 143 186 236 299 375 446
#     4  12  29  52  78 113 150 205 263 319 390 460
#     4  10  21  36  57  95 145 182 225 289 361 440
#     4  11  25  50  75 105 144 196 250 313 381 455
#     4  12  20  38  68  96 138 192 232 293 359 452
#
# _framework density 22.677951
#
# number of rings (size 3 to 8) (size 9 to 14) (size 15 to 20)
#    0.000    0.800    4.000    2.000    5.600    4.800 
#    0.000    0.000    0.000    0.000    0.000    0.000 
#    0.000    0.000    0.000    0.000    0.000    0.000 
#
# Total GULP energy -334346.602401 kJ/mol
# GULP energy per Si atom -5572.443373 kJ/mol
# Density = 2.262633 g / cm^3
# Si number density = 22.677951 Si / 1000 Ang^3
#
#
#
# Elastic Constant Matrix: (Units=GPa)
#
#
# Indices 1 2 3 4 5 6 
#
# 1 66.9330 39.4632 35.1232 0.0000 0.0000 0.0000
# 2 39.4632 158.0253 53.9906 0.0000 0.0000 0.0000
# 3 35.1232 53.9906 127.2396 0.0000 0.0000 0.0000
# 4 0.0000 0.0000 0.0000 17.6353 0.0000 0.0000
# 5 0.0000 0.0000 0.0000 0.0000 23.8549 0.0000
# 6 0.0000 0.0000 0.0000 0.0000 0.0000 47.6040
#
#
#
# Elastic Compliance Matrix: (Units=1/GPa)
#
#
# Indices 1 2 3 4 5 6 
#
# 1 0.018949 -0.003444 -0.003769 0.000000 0.000000 0.000000
# 2 -0.003444 0.008027 -0.002455 0.000000 0.000000 0.000000
# 3 -0.003769 -0.002455 0.009941 0.000000 0.000000 0.000000
# 4 0.000000 0.000000 0.000000 0.056705 0.000000 0.000000
# 5 0.000000 0.000000 0.000000 0.000000 0.041920 0.000000
# 6 0.000000 0.000000 0.000000 0.000000 0.000000 0.021007
#
#
# Mechanical properties :
#
#
# Convention : Reuss Voigt Hill
#
# Bulk Modulus (GPa) = 56.88302 67.70579 62.29441
# Shear Modulus (GPa) = 27.51088 32.72691 30.11890
#
# Velocity S-wave (km/s) = 3.48675 3.80296 3.64828
# Velocity P-wave (km/s) = 6.43019 7.01452 6.72870
#
# Compressibility (1/GPa) = 0.01757994
#
# Stress axis : x y z
#
# Youngs Moduli (GPa) = 52.77345 124.57770 100.58868
#
# Poissons Ratio (x) = 0.42908 0.37914
# Poissons Ratio (y) = 0.18177 0.24698
# Poissons Ratio (z) = 0.19891 0.30588
#
# Static dielectric constant tensor:
#      x y z
#    x 2.098910 0.000000 0.000000 
#    y 0.000000 2.545480 0.000000 
#    z 0.000000 0.000000 1.874090 
# 
# From -- ./inp_files/42791.got.cif
#   From: 2010.05.17/outbox.cif.g08.bks.cpg/sg52_22_cif.got.tgz:42791.got - 2010.06.03 12:15:38.
