data_PCOD9410156
_publ_section_title
;
Structure prediction by ZEFSAII (Michael W. Deem and Ramdas Pophale) SiO2 
 PCOD9410156
Probable space group: P N N A
;
_chemical_formula_sum "Si O2"
_cell_formula_units_Z 56
_cell_length_a 14.522722
_cell_length_b 27.427474
_cell_length_c 5.772474
_cell_angle_alpha 90.000000
_cell_angle_beta 90.000000
_cell_angle_gamma 90.000000
_cell_volume 2299.300965
_symmetry_space_group_name_H-M "P N N A"
_symmetry_group_IT_number 52
_symmetry_cell_setting 'orthorhombic'
loop_
_space_group_symop_operation_xyz
x,y,z
1/2-x,-y,z
x,1/2-y,1/2-z
1/2-x,1/2+y,1/2-z
-x,-y,-z
1/2+x,y,-z
-x,1/2+y,1/2+z
1/2+x,1/2-y,1/2+z
loop_
_atom_site_type_symbol
_atom_site_label
_atom_site_fract_x
_atom_site_fract_y
_atom_site_fract_z
Si Si1 0.744362 0.309833 0.021755
Si Si2 0.326060 0.870267 0.911073
Si Si3 0.000323 0.820430 0.980566
Si Si4 0.649667 0.026306 0.304559
Si Si5 0.861757 0.008600 0.800615
Si Si6 0.877108 0.250000 0.250000
Si Si7 0.850948 0.379277 0.738725
Si Si8 0.112051 0.250000 0.250000
O O1 0.802668 0.357596 0.963664
O O2 0.671977 0.295294 0.828452
O O3 0.691118 0.322687 0.254864
O O4 0.809868 0.262862 0.040218
O O5 0.340267 0.916673 0.746689
O O6 0.421688 0.861107 0.047385
O O7 0.233674 0.878685 0.056085
O O8 0.946807 0.768363 0.971037
O O9 0.071049 0.801311 0.784578
O O10 0.067393 0.842257 0.172602
O O11 0.750000 0.000000 0.317670
O O12 0.607746 0.018427 0.562396
O O13 0.606182 0.006085 0.061421
O O14 0.882800 0.065287 0.754276
O O15 0.750000 0.000000 0.811907
#
# Coordination Sequence:
#
# PCOD9410156 Si02
#       8
#     8   8   8   8   8   4   8   4
#     4  12  24  44  75  96 138 196 243 288 370 428
#     4  12  24  45  70 103 140 188 239 295 367 433
#     4  11  26  45  66 106 142 184 240 308 358 433
#     4  10  20  38  70 101 137 186 233 293 359 434
#     4  10  20  38  70 101 137 186 233 293 359 434
#     4  11  24  42  70 101 142 189 248 294 366 429
#     4  12  24  45  70 103 140 188 239 295 367 433
#     4  11  24  42  70 101 142 189 248 294 366 429
#
# _framework density 24.355229000000001
#
# number of rings (size 3 to 8) (size 9 to 14) (size 15 to 20)
#    0.000    0.857    5.714    3.429    0.000    3.429 
#    0.000    1.429    0.000    0.000    0.000    1.000 
#    0.000    0.000    0.000    0.000    0.000    0.000 
#
# Total GULP energy -312002.998807 kJ/mol
# GULP energy per Si atom -5571.482122 kJ/mol
# Density = 2.429980 g / cm^3
# Si number density = 24.355229 Si / 1000 Ang^3
#
#
#
# Elastic Constant Matrix: (Units=GPa)
#
#
# Indices 1 2 3 4 5 6 
#
# 1 59.6334 18.4377 18.0512 0.0000 0.0000 0.0000
# 2 18.4377 96.9651 18.6792 0.0000 0.0000 0.0000
# 3 18.0512 18.6792 117.0124 0.0000 0.0000 0.0000
# 4 0.0000 0.0000 0.0000 40.5190 0.0000 0.0000
# 5 0.0000 0.0000 0.0000 0.0000 -44.9064 0.0000
# 6 0.0000 0.0000 0.0000 0.0000 0.0000 -2.9525
#
#
#
# Elastic Compliance Matrix: (Units=1/GPa)
#
#
# Indices 1 2 3 4 5 6 
#
# 1 0.018425 -0.003050 -0.002356 0.000000 0.000000 0.000000
# 2 -0.003050 0.011145 -0.001309 0.000000 0.000000 0.000000
# 3 -0.002356 -0.001309 0.009118 0.000000 0.000000 0.000000
# 4 0.000000 0.000000 0.000000 0.024680 0.000000 0.000000
# 5 0.000000 0.000000 0.000000 0.000000 -0.022269 0.000000
# 6 0.000000 0.000000 0.000000 0.000000 0.000000 -0.338692
#
#
# Mechanical properties :
#
#
# Convention : Reuss Voigt Hill
#
# Bulk Modulus (GPa) = 39.58731 42.66079 41.12405
# Shear Modulus (GPa) = -18.13273 13.09488 -2.51893
#
# Velocity S-wave (km/s) = -2.73153 2.32127 -1.01808
# Velocity P-wave (km/s) = 2.51815 4.97378 3.94205
#
# Compressibility (1/GPa) = 0.02526062
#
# Stress axis : x y z
#
# Youngs Moduli (GPa) = 54.27381 89.72652 109.66845
#
# Poissons Ratio (x) = 0.27364 0.25833
# Poissons Ratio (y) = 0.16552 0.14352
# Poissons Ratio (z) = 0.12785 0.11742
#
# Static dielectric constant tensor:
#      x y z
#    x 2.024090 0.000000 0.000000 
#    y 0.000000 1.904790 0.000000 
#    z 0.000000 0.000000 1.946650 
# 
# From -- ./inp_files/2652.got.cif
#   From: 2010.05.17/outbox.cif.g08.bks.cpg/sg52_2_cif.got.tgz:2652.got - 2010.06.03 12:15:38.
