data_PCOD9410360
_publ_section_title
;
Structure prediction by ZEFSAII (Michael W. Deem and Ramdas Pophale) SiO2 
 PCOD9410360
Probable space group: P N N A
;
_chemical_formula_sum "Si O2"
_cell_formula_units_Z 40
_cell_length_a 17.947080
_cell_length_b 11.472368
_cell_length_c 7.154863
_cell_angle_alpha 90.000000
_cell_angle_beta 90.000000
_cell_angle_gamma 90.000000
_cell_volume 1473.154140
_symmetry_space_group_name_H-M "P N N A"
_symmetry_group_IT_number 52
_symmetry_cell_setting 'orthorhombic'
loop_
_space_group_symop_operation_xyz
x,y,z
1/2-x,-y,z
x,1/2-y,1/2-z
1/2-x,1/2+y,1/2-z
-x,-y,-z
1/2+x,y,-z
-x,1/2+y,1/2+z
1/2+x,1/2-y,1/2+z
loop_
_atom_site_type_symbol
_atom_site_label
_atom_site_fract_x
_atom_site_fract_y
_atom_site_fract_z
Si Si1 0.708223 0.886102 0.803868
Si Si2 0.506075 0.160812 0.079757
Si Si3 0.885692 0.539124 0.897866
Si Si4 0.544619 0.918684 0.277979
Si Si5 0.829878 0.775619 0.032413
O O1 0.696194 0.750000 0.750000
O O2 0.750000 0.000000 0.711195
O O3 0.629086 0.950600 0.775421
O O4 0.763285 0.861807 0.977751
O O5 0.492739 0.250000 0.250000
O O6 0.588705 0.176529 0.989081
O O7 0.523382 0.038892 0.177494
O O8 0.449479 0.166138 0.902520
O O9 0.967938 0.598565 0.892525
O O10 0.889311 0.451899 0.079055
O O11 0.832222 0.651817 0.926078
O O12 0.826157 0.750000 0.250000
#
# Coordination Sequence:
#
# PCOD9410360 Si02
#       5
#     8   8   8   8   8
#     4  12  26  48  79 112 154 215 273 340 409 493
#     4  10  20  40  73 112 152 211 270 326 415 508
#     4  11  23  47  76 113 160 209 279 344 422 499
#     4  10  22  41  73 116 157 209 272 343 415 505
#     4  11  23  48  79 109 155 219 271 327 423 506
#
# _framework density 27.152622999999998
#
# number of rings (size 3 to 8) (size 9 to 14) (size 15 to 20)
#    0.000    1.200    6.000    1.200    0.000    0.800 
#    3.600    0.000    4.400    0.000    0.000    0.000 
#    0.000    0.000    0.000    0.000    0.000    0.000 
#
# Total GULP energy -222693.856181 kJ/mol
# GULP energy per Si atom -5567.346405 kJ/mol
# Density = 2.709082 g / cm^3
# Si number density = 27.152623 Si / 1000 Ang^3
#
#
#
# Elastic Constant Matrix: (Units=GPa)
#
#
# Indices 1 2 3 4 5 6 
#
# 1 51.5266 51.2079 15.0916 0.0000 0.0000 0.0000
# 2 51.2079 134.4628 43.3844 0.0000 0.0000 0.0000
# 3 15.0916 43.3844 109.0517 0.0000 0.0000 0.0000
# 4 0.0000 0.0000 0.0000 60.0599 0.0000 0.0000
# 5 0.0000 0.0000 0.0000 0.0000 -64.9978 0.0000
# 6 0.0000 0.0000 0.0000 0.0000 0.0000 33.1938
#
#
#
# Elastic Compliance Matrix: (Units=1/GPa)
#
#
# Indices 1 2 3 4 5 6 
#
# 1 0.031247 -0.012052 0.000470 0.000000 0.000000 0.000000
# 2 -0.012052 0.013180 -0.003576 0.000000 0.000000 0.000000
# 3 0.000470 -0.003576 0.010527 0.000000 0.000000 0.000000
# 4 0.000000 0.000000 0.000000 0.016650 0.000000 0.000000
# 5 0.000000 0.000000 0.000000 0.000000 -0.015385 0.000000
# 6 0.000000 0.000000 0.000000 0.000000 0.000000 0.030126
#
#
# Mechanical properties :
#
#
# Convention : Reuss Voigt Hill
#
# Bulk Modulus (GPa) = 40.58365 57.15655 48.87010
# Shear Modulus (GPa) = 40.04066 18.00831 29.02449
#
# Velocity S-wave (km/s) = 3.84429 2.57811 3.27301
# Velocity P-wave (km/s) = 5.88928 5.47339 5.68514
#
# Compressibility (1/GPa) = 0.02464047
#
# Stress axis : x y z
#
# Youngs Moduli (GPa) = 32.00340 75.87051 94.98977
#
# Poissons Ratio (x) = 0.91436 -0.04467
# Poissons Ratio (y) = 0.38569 0.33966
# Poissons Ratio (z) = -0.01505 0.27130
#
# Static dielectric constant tensor:
#      x y z
#    x 2.780520 0.000000 0.000000 
#    y 0.000000 2.031570 0.000000 
#    z 0.000000 0.000000 2.437220 
# 
# From -- ./inp_files/13172.got.cif
#   From: 2010.05.17/outbox.cif.g08.bks.cpg/sg52_7_cif.got.tgz:13172.got - 2010.06.03 12:15:38.
