data_PCOD9410816
_publ_section_title
;
Structure prediction by ZEFSAII (Michael W. Deem and Ramdas Pophale) SiO2 
 PCOD9410816
Probable space group: P N N A
;
_chemical_formula_sum "Si O2"
_cell_formula_units_Z 56
_cell_length_a 33.317935
_cell_length_b 14.318371
_cell_length_c 5.151153
_cell_angle_alpha 90.000000
_cell_angle_beta 90.000000
_cell_angle_gamma 90.000000
_cell_volume 2457.401603
_symmetry_space_group_name_H-M "P N N A"
_symmetry_group_IT_number 52
_symmetry_cell_setting 'orthorhombic'
loop_
_space_group_symop_operation_xyz
x,y,z
1/2-x,-y,z
x,1/2-y,1/2-z
1/2-x,1/2+y,1/2-z
-x,-y,-z
1/2+x,y,-z
-x,1/2+y,1/2+z
1/2+x,1/2-y,1/2+z
loop_
_atom_site_type_symbol
_atom_site_label
_atom_site_fract_x
_atom_site_fract_y
_atom_site_fract_z
Si Si1 0.455331 0.137082 0.249921
Si Si2 0.329365 0.650536 0.886116
Si Si3 0.821173 0.451706 0.125832
Si Si4 0.003093 0.363538 0.248661
Si Si5 0.905359 0.862019 0.717880
Si Si6 0.127608 0.541293 0.401636
Si Si7 0.247076 0.689913 0.012912
O O1 0.452958 0.250000 0.250000
O O2 0.471877 0.106403 0.528967
O O3 0.412503 0.096233 0.175789
O O4 0.487748 0.108518 0.031719
O O5 0.333117 0.750000 0.750000
O O6 0.313630 0.555410 0.756113
O O7 0.292724 0.662748 0.091373
O O8 0.373293 0.626809 0.990058
O O9 0.851434 0.413944 0.346218
O O10 0.781149 0.394960 0.069477
O O11 0.842858 0.455422 0.846070
O O12 0.003280 0.250000 0.250000
O O13 0.048591 0.391324 0.182554
O O14 0.905338 0.750000 0.750000
O O15 0.886927 0.932671 0.931602
O O16 0.250374 0.750000 0.750000
O O17 0.229572 0.750000 0.250000
#
# Coordination Sequence:
#
# PCOD9410816 Si02
#       7
#     8   8   8   8   8   8   8
#     4  10  21  39  58  85 120 161 210 258 307 370
#     4  10  22  41  68  95 128 167 209 257 319 384
#     4  11  24  42  63  95 130 164 209 264 313 373
#     4   9  20  36  59  86 120 161 203 254 313 366
#     4  10  21  38  61  91 125 160 205 259 313 376
#     4  11  24  39  63  91 122 167 211 252 317 374
#     4  11  24  43  67  96 127 165 211 256 315 380
#
# _framework density 22.788297
#
# number of rings (size 3 to 8) (size 9 to 14) (size 15 to 20)
#    0.000    1.714    0.000    3.429    0.000   11.429 
#    0.000    5.714    0.000    0.000    0.000    0.000 
#    0.000    0.000    0.000    0.000    0.000    0.000 
#
# Total GULP energy -312397.137701 kJ/mol
# GULP energy per Si atom -5578.520316 kJ/mol
# Density = 2.273643 g / cm^3
# Si number density = 22.788297 Si / 1000 Ang^3
#
#
#
# Elastic Constant Matrix: (Units=GPa)
#
#
# Indices 1 2 3 4 5 6 
#
# 1 102.7091 19.7029 25.7691 0.0000 0.0000 0.0000
# 2 19.7029 57.4586 20.9849 0.0000 0.0000 0.0000
# 3 25.7691 20.9849 88.1813 0.0000 0.0000 0.0000
# 4 0.0000 0.0000 0.0000 21.0266 0.0000 0.0000
# 5 0.0000 0.0000 0.0000 0.0000 32.8775 0.0000
# 6 0.0000 0.0000 0.0000 0.0000 0.0000 15.4798
#
#
#
# Elastic Compliance Matrix: (Units=1/GPa)
#
#
# Indices 1 2 3 4 5 6 
#
# 1 0.010909 -0.002822 -0.002516 0.000000 0.000000 0.000000
# 2 -0.002822 0.019790 -0.003885 0.000000 0.000000 0.000000
# 3 -0.002516 -0.003885 0.013000 0.000000 0.000000 0.000000
# 4 0.000000 0.000000 0.000000 0.047559 0.000000 0.000000
# 5 0.000000 0.000000 0.000000 0.000000 0.030416 0.000000
# 6 0.000000 0.000000 0.000000 0.000000 0.000000 0.064600
#
#
# Mechanical properties :
#
#
# Convention : Reuss Voigt Hill
#
# Bulk Modulus (GPa) = 39.59903 42.36255 40.98079
# Shear Modulus (GPa) = 23.45896 26.00292 24.73094
#
# Velocity S-wave (km/s) = 3.21195 3.38163 3.29788
# Velocity P-wave (km/s) = 5.58303 5.82041 5.70295
#
# Compressibility (1/GPa) = 0.02525314
#
# Stress axis : x y z
#
# Youngs Moduli (GPa) = 91.66849 50.52984 76.92211
#
# Poissons Ratio (x) = 0.14258 0.19357
# Poissons Ratio (y) = 0.25866 0.29884
# Poissons Ratio (z) = 0.23067 0.19631
#
# Static dielectric constant tensor:
#      x y z
#    x 1.850030 0.000000 0.000000 
#    y 0.000000 2.012470 0.000000 
#    z 0.000000 0.000000 1.873430 
# 
# From -- ./inp_files/6401.got.cif
#   From: 2010.05.17/outbox.cif.g08.bks.cpg/sg52_4_cif.got.tgz:6401.got - 2010.06.03 12:15:38.
