data_PCOD9410340
_publ_section_title
;
Structure prediction by ZEFSAII (Michael W. Deem and Ramdas Pophale) SiO2 
 PCOD9410340
Probable space group: P N N A
;
_chemical_formula_sum "Si O2"
_cell_formula_units_Z 44
_cell_length_a 9.281895
_cell_length_b 28.872433
_cell_length_c 7.767188
_cell_angle_alpha 90.000000
_cell_angle_beta 90.000000
_cell_angle_gamma 90.000000
_cell_volume 2081.535637
_symmetry_space_group_name_H-M "P N N A"
_symmetry_group_IT_number 52
_symmetry_cell_setting 'orthorhombic'
loop_
_space_group_symop_operation_xyz
x,y,z
1/2-x,-y,z
x,1/2-y,1/2-z
1/2-x,1/2+y,1/2-z
-x,-y,-z
1/2+x,y,-z
-x,1/2+y,1/2+z
1/2+x,1/2-y,1/2+z
loop_
_atom_site_type_symbol
_atom_site_label
_atom_site_fract_x
_atom_site_fract_y
_atom_site_fract_z
Si Si1 0.984675 0.072325 0.056664
Si Si2 0.762950 0.863761 0.992138
Si Si3 0.013967 0.485367 0.771557
Si Si4 0.688866 0.302511 0.821220
Si Si5 0.345373 0.303156 0.811852
Si Si6 0.750000 0.000000 0.532204
O O1 0.825521 0.088935 0.012687
O O2 0.075251 0.119169 0.041839
O O3 0.041753 0.040090 0.904459
O O4 0.990062 0.040533 0.226979
O O5 0.728902 0.834460 0.163578
O O6 0.731538 0.834045 0.821613
O O7 0.138802 0.474346 0.906663
O O8 0.858968 0.471766 0.847977
O O9 0.700064 0.250000 0.750000
O O10 0.516833 0.313228 0.832489
O O11 0.763740 0.307976 0.006297
O O12 0.333442 0.250000 0.750000
#
# Coordination Sequence:
#
# PCOD9410340 Si02
#       6
#     8   8   8   8   8   4
#     4  11  24  44  66  90 136 178 220 268 340 405
#     4  12  24  45  64 105 134 178 228 282 328 412
#     4  10  22  44  66  92 130 180 210 276 342 390
#     4  11  25  45  70  98 134 180 224 277 345 401
#     4  11  25  45  70  98 134 180 224 277 345 401
#     4  10  20  40  68  96 120 160 236 264 324 404
#
# _framework density 21.138238999999999
#
# number of rings (size 3 to 8) (size 9 to 14) (size 15 to 20)
#    0.000    1.091    3.636    2.182    2.545    3.636 
#   19.636    0.000    0.000    0.000    0.000    0.000 
#    0.000    0.000    0.000    0.000    0.000    0.000 
#
# Total GULP energy -245506.358074 kJ/mol
# GULP energy per Si atom -5579.689956 kJ/mol
# Density = 2.109013 g / cm^3
# Si number density = 21.138239 Si / 1000 Ang^3
#
#
#
# Elastic Constant Matrix: (Units=GPa)
#
#
# Indices 1 2 3 4 5 6 
#
# 1 107.3543 28.0890 51.5894 0.0000 0.0000 0.0000
# 2 28.0890 61.1583 53.4272 0.0000 0.0000 0.0000
# 3 51.5894 53.4272 174.5890 0.0000 0.0000 0.0000
# 4 0.0000 0.0000 0.0000 16.8456 0.0000 0.0000
# 5 0.0000 0.0000 0.0000 0.0000 30.8192 0.0000
# 6 0.0000 0.0000 0.0000 0.0000 0.0000 19.0787
#
#
#
# Elastic Compliance Matrix: (Units=1/GPa)
#
#
# Indices 1 2 3 4 5 6 
#
# 1 0.011270 -0.003094 -0.002383 0.000000 0.000000 0.000000
# 2 -0.003094 0.023167 -0.006175 0.000000 0.000000 0.000000
# 3 -0.002383 -0.006175 0.008322 0.000000 0.000000 0.000000
# 4 0.000000 0.000000 0.000000 0.059363 0.000000 0.000000
# 5 0.000000 0.000000 0.000000 0.000000 0.032447 0.000000
# 6 0.000000 0.000000 0.000000 0.000000 0.000000 0.052415
#
#
# Mechanical properties :
#
#
# Convention : Reuss Voigt Hill
#
# Bulk Modulus (GPa) = 51.40548 67.70142 59.55345
# Shear Modulus (GPa) = 23.06571 27.34841 25.20706
#
# Velocity S-wave (km/s) = 3.30689 3.60083 3.45699
# Velocity P-wave (km/s) = 6.24117 7.02748 6.64596
#
# Compressibility (1/GPa) = 0.01945318
#
# Stress axis : x y z
#
# Youngs Moduli (GPa) = 88.73284 43.16569 120.16816
#
# Poissons Ratio (x) = 0.13355 0.28640
# Poissons Ratio (y) = 0.27454 0.74205
# Poissons Ratio (z) = 0.21148 0.26655
#
# Static dielectric constant tensor:
#      x y z
#    x 1.749270 0.000000 0.000000 
#    y 0.000000 1.800250 0.000000 
#    z 0.000000 0.000000 1.734050 
# 
# From -- ./inp_files/7629.got.cif
#   From: 2010.05.17/outbox.cif.g08.bks.cpg/sg52_4_cif.got.tgz:7629.got - 2010.06.03 12:15:38.
