data_PCOD9410812
_publ_section_title
;
Structure prediction by ZEFSAII (Michael W. Deem and Ramdas Pophale) SiO2 
 PCOD9410812
Probable space group: P N N A
;
_chemical_formula_sum "Si O2"
_cell_formula_units_Z 32
_cell_length_a 4.938658
_cell_length_b 8.943174
_cell_length_c 33.679889
_cell_angle_alpha 90.000000
_cell_angle_beta 90.000000
_cell_angle_gamma 90.000000
_cell_volume 1487.549014
_symmetry_space_group_name_H-M "P N N A"
_symmetry_group_IT_number 52
_symmetry_cell_setting 'orthorhombic'
loop_
_space_group_symop_operation_xyz
x,y,z
1/2-x,-y,z
x,1/2-y,1/2-z
1/2-x,1/2+y,1/2-z
-x,-y,-z
1/2+x,y,-z
-x,1/2+y,1/2+z
1/2+x,1/2-y,1/2+z
loop_
_atom_site_type_symbol
_atom_site_label
_atom_site_fract_x
_atom_site_fract_y
_atom_site_fract_z
Si Si1 0.221662 0.167128 0.359439
Si Si2 0.777546 0.674175 0.026935
Si Si3 0.015799 0.898380 0.274249
Si Si4 0.778312 0.825367 0.108757
O O1 0.341730 0.153600 0.315183
O O2 0.415557 0.276347 0.383427
O O3 0.919377 0.229210 0.362787
O O4 0.250000 0.000000 0.376686
O O5 0.750000 0.500000 0.039390
O O6 0.709495 0.778213 0.063896
O O7 0.575852 0.698039 0.990182
O O8 0.945615 0.750000 0.250000
O O9 0.750000 0.000000 0.280923
O O10 0.250000 0.000000 0.253792
O O11 0.750000 0.000000 0.115833
#
# Coordination Sequence:
#
# PCOD9410812 Si02
#       4
#     8   8   8   8
#     4  11  23  43  65  89 126 172 215 253 307 385
#     4  10  21  38  61  88 120 164 212 255 310 382
#     4  11  24  43  67  97 129 167 211 259 315 373
#     4  12  25  40  63  96 129 164 209 269 325 365
#
# _framework density 21.511896
#
# number of rings (size 3 to 8) (size 9 to 14) (size 15 to 20)
#    0.000    1.000    0.000    8.250    0.000    6.000 
#    0.000    0.000    0.000    0.000    0.000    0.000 
#    0.000    0.000    0.000    0.000    0.000    0.000 
#
# Total GULP energy -179032.012448 kJ/mol
# GULP energy per Si atom -5594.750389 kJ/mol
# Density = 2.146293 g / cm^3
# Si number density = 21.511896 Si / 1000 Ang^3
#
#
#
# Elastic Constant Matrix: (Units=GPa)
#
#
# Indices 1 2 3 4 5 6 
#
# 1 64.2134 -0.4451 -9.2335 0.0000 0.0000 0.0000
# 2 -0.4451 107.1552 17.6381 0.0000 0.0000 0.0000
# 3 -9.2335 17.6381 47.1657 0.0000 0.0000 0.0000
# 4 0.0000 0.0000 0.0000 7.5558 0.0000 0.0000
# 5 0.0000 0.0000 0.0000 0.0000 20.9315 0.0000
# 6 0.0000 0.0000 0.0000 0.0000 0.0000 39.2269
#
#
#
# Elastic Compliance Matrix: (Units=1/GPa)
#
#
# Indices 1 2 3 4 5 6 
#
# 1 0.016047 -0.000480 0.003321 0.000000 0.000000 0.000000
# 2 -0.000480 0.009959 -0.003818 0.000000 0.000000 0.000000
# 3 0.003321 -0.003818 0.023280 0.000000 0.000000 0.000000
# 4 0.000000 0.000000 0.000000 0.132348 0.000000 0.000000
# 5 0.000000 0.000000 0.000000 0.000000 0.047775 0.000000
# 6 0.000000 0.000000 0.000000 0.000000 0.000000 0.025493
#
#
# Mechanical properties :
#
#
# Convention : Reuss Voigt Hill
#
# Bulk Modulus (GPa) = 21.12752 26.05037 23.58895
# Shear Modulus (GPa) = 18.33966 27.58116 22.96041
#
# Velocity S-wave (km/s) = 2.92299 3.58458 3.27055
# Velocity P-wave (km/s) = 4.60809 5.41002 5.02507
#
# Compressibility (1/GPa) = 0.04733163
#
# Stress axis : x y z
#
# Youngs Moduli (GPa) = 62.31581 100.41432 42.95568
#
# Poissons Ratio (x) = 0.04820 -0.14266
# Poissons Ratio (y) = 0.02991 0.16401
# Poissons Ratio (z) = -0.20695 0.38339
#
# Static dielectric constant tensor:
#      x y z
#    x 1.747620 0.000000 0.000000 
#    y 0.000000 1.808050 0.000000 
#    z 0.000000 0.000000 1.780290 
# 
# From -- ./inp_files/43465.got.cif
#   From: 2010.05.17/outbox.cif.g08.bks.cpg/sg52_22_cif.got.tgz:43465.got - 2010.06.03 12:15:38.
