data_PCOD9410732
_publ_section_title
;
Structure prediction by ZEFSAII (Michael W. Deem and Ramdas Pophale) SiO2 
 PCOD9410732
Probable space group: P N N A
;
_chemical_formula_sum "Si O2"
_cell_formula_units_Z 48
_cell_length_a 27.516010
_cell_length_b 14.822901
_cell_length_c 6.162201
_cell_angle_alpha 90.000000
_cell_angle_beta 90.000000
_cell_angle_gamma 90.000000
_cell_volume 2513.359003
_symmetry_space_group_name_H-M "P N N A"
_symmetry_group_IT_number 52
_symmetry_cell_setting 'orthorhombic'
loop_
_space_group_symop_operation_xyz
x,y,z
1/2-x,-y,z
x,1/2-y,1/2-z
1/2-x,1/2+y,1/2-z
-x,-y,-z
1/2+x,y,-z
-x,1/2+y,1/2+z
1/2+x,1/2-y,1/2+z
loop_
_atom_site_type_symbol
_atom_site_label
_atom_site_fract_x
_atom_site_fract_y
_atom_site_fract_z
Si Si1 0.974066 0.904968 0.936561
Si Si2 0.204449 0.933775 0.496916
Si Si3 0.554228 0.864357 0.415306
Si Si4 0.502424 0.750000 0.750000
Si Si5 0.191970 0.750000 0.250000
Si Si6 0.355585 0.134991 0.888460
Si Si7 0.607501 0.994383 0.733976
O O1 0.920609 0.920474 0.834995
O O2 0.009046 0.874798 0.743263
O O3 0.974251 0.833718 0.136473
O O4 0.000000 0.000000 0.000000
O O5 0.214553 0.843853 0.347579
O O6 0.188259 0.902015 0.738192
O O7 0.250000 0.000000 0.501007
O O8 0.158066 0.989233 0.398810
O O9 0.538691 0.784680 0.568586
O O10 0.601804 0.846124 0.278453
O O11 0.568185 0.947327 0.573964
O O12 0.161875 0.714876 0.456517
O O13 0.379058 0.064062 0.055017
#
# Coordination Sequence:
#
# PCOD9410732 Si02
#       7
#     8   8   8   4   4   8   8
#     4  12  23  40  59  88 129 170 209 257 302 373
#     4  10  23  41  66  92 121 161 207 260 321 373
#     4  11  22  38  58  91 128 163 206 251 309 364
#     4  12  26  33  58  90 128 172 212 246 309 366
#     4  10  22  39  64  96 126 152 200 262 321 376
#     4  10  21  37  61  96 125 154 200 257 320 369
#     4  10  22  39  64  88 123 162 204 258 313 364
#
# _framework density 19.097947999999999
#
# number of rings (size 3 to 8) (size 9 to 14) (size 15 to 20)
#    0.000    1.333    3.333    1.500    0.000   18.667 
#    0.000    0.000    7.333    0.000    0.000    0.000 
#    0.000    0.000    0.000    0.000    0.000    0.000 
#
# Total GULP energy -267562.008081 kJ/mol
# GULP energy per Si atom -5574.208502 kJ/mol
# Density = 1.905448 g / cm^3
# Si number density = 19.097948 Si / 1000 Ang^3
#
#
#
# Elastic Constant Matrix: (Units=GPa)
#
#
# Indices 1 2 3 4 5 6 
#
# 1 95.4590 56.2102 43.2075 0.0000 0.0000 0.0000
# 2 56.2102 91.2119 58.7206 0.0000 0.0000 0.0000
# 3 43.2075 58.7206 133.8654 0.0000 0.0000 0.0000
# 4 0.0000 0.0000 0.0000 38.7120 0.0000 0.0000
# 5 0.0000 0.0000 0.0000 0.0000 14.1550 0.0000
# 6 0.0000 0.0000 0.0000 0.0000 0.0000 20.6386
#
#
#
# Elastic Compliance Matrix: (Units=1/GPa)
#
#
# Indices 1 2 3 4 5 6 
#
# 1 0.016582 -0.009439 -0.001212 0.000000 0.000000 0.000000
# 2 -0.009439 0.020651 -0.006012 0.000000 0.000000 0.000000
# 3 -0.001212 -0.006012 0.010499 0.000000 0.000000 0.000000
# 4 0.000000 0.000000 0.000000 0.025832 0.000000 0.000000
# 5 0.000000 0.000000 0.000000 0.000000 0.070646 0.000000
# 6 0.000000 0.000000 0.000000 0.000000 0.000000 0.048453
#
#
# Mechanical properties :
#
#
# Convention : Reuss Voigt Hill
#
# Bulk Modulus (GPa) = 69.41471 70.75700 70.08585
# Shear Modulus (GPa) = 21.66477 25.52763 23.59620
#
# Velocity S-wave (km/s) = 3.37174 3.66001 3.51883
# Velocity P-wave (km/s) = 7.18219 7.41559 7.29982
#
# Compressibility (1/GPa) = 0.01440617
#
# Stress axis : x y z
#
# Youngs Moduli (GPa) = 60.30588 48.42484 95.25166
#
# Poissons Ratio (x) = 0.45707 0.11543
# Poissons Ratio (y) = 0.56921 0.57265
# Poissons Ratio (z) = 0.07308 0.29113
#
# Static dielectric constant tensor:
#      x y z
#    x 1.649280 0.000000 0.000000 
#    y 0.000000 1.760810 0.000000 
#    z 0.000000 0.000000 1.677930 
# 
# From -- ./inp_files/6391.got.cif
#   From: 2010.05.17/outbox.cif.g08.bks.cpg/sg52_4_cif.got.tgz:6391.got - 2010.06.03 12:15:38.
