data_PCOD9410024
_publ_section_title
;
Structure prediction by ZEFSAII (Michael W. Deem and Ramdas Pophale) SiO2 
 PCOD9410024
Probable space group: P N N A
;
_chemical_formula_sum "Si O2"
_cell_formula_units_Z 40
_cell_length_a 13.169168
_cell_length_b 12.177002
_cell_length_c 11.821144
_cell_angle_alpha 90.000000
_cell_angle_beta 90.000000
_cell_angle_gamma 90.000000
_cell_volume 1895.650297
_symmetry_space_group_name_H-M "P N N A"
_symmetry_group_IT_number 52
_symmetry_cell_setting 'orthorhombic'
loop_
_space_group_symop_operation_xyz
x,y,z
1/2-x,-y,z
x,1/2-y,1/2-z
1/2-x,1/2+y,1/2-z
-x,-y,-z
1/2+x,y,-z
-x,1/2+y,1/2+z
1/2+x,1/2-y,1/2+z
loop_
_atom_site_type_symbol
_atom_site_label
_atom_site_fract_x
_atom_site_fract_y
_atom_site_fract_z
Si Si1 0.918821 0.023353 0.844207
Si Si2 0.399700 0.634360 0.008558
Si Si3 0.934877 0.433624 0.158745
Si Si4 0.108063 0.125172 0.940301
Si Si5 0.750000 0.500000 0.827616
Si Si6 0.250000 0.500000 0.733322
O O1 0.830098 0.057878 0.757883
O O2 0.995631 0.949956 0.768695
O O3 0.880155 0.948413 0.947063
O O4 0.990884 0.115834 0.898467
O O5 0.504338 0.649127 0.079441
O O6 0.317010 0.578005 0.091381
O O7 0.428135 0.548999 0.909680
O O8 0.364058 0.750275 0.963873
O O9 0.819108 0.417562 0.193333
O O10 0.176659 0.071358 0.844300
#
# Coordination Sequence:
#
# PCOD9410024 Si02
#       6
#     8   8   8   8   4   4
#     4   9  20  39  58  83 121 156 194 245 294 350
#     4  10  21  40  62  87 121 159 200 247 299 355
#     4   9  20  39  58  83 121 156 194 245 294 350
#     4  10  21  40  62  87 121 159 200 247 299 355
#     4  10  20  38  60  88 122 156 202 250 294 354
#     4  10  20  38  60  88 122 156 202 250 294 354
#
# _framework density 21.100940000000001
#
# number of rings (size 3 to 8) (size 9 to 14) (size 15 to 20)
#    0.000    2.400    0.000    1.200    0.000    6.400 
#    0.000   48.000    0.000    0.000    0.000    0.000 
#    0.000    0.000    0.000    0.000    0.000    0.000 
#
# Total GULP energy -223184.365822 kJ/mol
# GULP energy per Si atom -5579.609146 kJ/mol
# Density = 2.105291 g / cm^3
# Si number density = 21.100940 Si / 1000 Ang^3
#
#
#
# Elastic Constant Matrix: (Units=GPa)
#
#
# Indices 1 2 3 4 5 6 
#
# 1 82.2102 23.2091 14.8351 0.0000 0.0000 0.0000
# 2 23.2091 61.7506 16.9032 0.0000 0.0000 0.0000
# 3 14.8351 16.9032 69.6254 0.0000 0.0000 0.0000
# 4 0.0000 0.0000 0.0000 15.4641 0.0000 0.0000
# 5 0.0000 0.0000 0.0000 0.0000 53.0566 0.0000
# 6 0.0000 0.0000 0.0000 0.0000 0.0000 13.1814
#
#
#
# Elastic Compliance Matrix: (Units=1/GPa)
#
#
# Indices 1 2 3 4 5 6 
#
# 1 0.013816 -0.004699 -0.001803 0.000000 0.000000 0.000000
# 2 -0.004699 0.018945 -0.003598 0.000000 0.000000 0.000000
# 3 -0.001803 -0.003598 0.015620 0.000000 0.000000 0.000000
# 4 0.000000 0.000000 0.000000 0.064666 0.000000 0.000000
# 5 0.000000 0.000000 0.000000 0.000000 0.018848 0.000000
# 6 0.000000 0.000000 0.000000 0.000000 0.000000 0.075864
#
#
# Mechanical properties :
#
#
# Convention : Reuss Voigt Hill
#
# Bulk Modulus (GPa) = 35.48502 35.94234 35.71368
# Shear Modulus (GPa) = 21.06559 26.91634 23.99097
#
# Velocity S-wave (km/s) = 3.16306 3.57543 3.37554
# Velocity P-wave (km/s) = 5.49483 5.84084 5.67048
#
# Compressibility (1/GPa) = 0.02818091
#
# Stress axis : x y z
#
# Youngs Moduli (GPa) = 72.38017 52.78346 64.01937
#
# Poissons Ratio (x) = 0.24804 0.11542
# Poissons Ratio (y) = 0.34013 0.23035
# Poissons Ratio (z) = 0.13050 0.18992
#
# Static dielectric constant tensor:
#      x y z
#    x 1.824450 0.000000 0.000000 
#    y 0.000000 1.722030 0.000000 
#    z 0.000000 0.000000 1.778230 
# 
# From -- ./inp_files/18031.got.cif
#   From: 2010.05.17/outbox.cif.g08.bks.cpg/sg52_10_cif.got.tgz:18031.got - 2010.06.03 12:15:38.
