data_PCOD9410125
_publ_section_title
;
Structure prediction by ZEFSAII (Michael W. Deem and Ramdas Pophale) SiO2 
 PCOD9410125
Probable space group: P N N A
;
_chemical_formula_sum "Si O2"
_cell_formula_units_Z 40
_cell_length_a 11.997198
_cell_length_b 24.025391
_cell_length_c 6.901023
_cell_angle_alpha 90.000000
_cell_angle_beta 90.000000
_cell_angle_gamma 90.000000
_cell_volume 1989.132740
_symmetry_space_group_name_H-M "P N N A"
_symmetry_group_IT_number 52
_symmetry_cell_setting 'orthorhombic'
loop_
_space_group_symop_operation_xyz
x,y,z
1/2-x,-y,z
x,1/2-y,1/2-z
1/2-x,1/2+y,1/2-z
-x,-y,-z
1/2+x,y,-z
-x,1/2+y,1/2+z
1/2+x,1/2-y,1/2+z
loop_
_atom_site_type_symbol
_atom_site_label
_atom_site_fract_x
_atom_site_fract_y
_atom_site_fract_z
Si Si1 0.855038 0.750000 0.750000
Si Si2 0.220265 0.826985 0.512492
Si Si3 0.906731 0.582144 0.026131
Si Si4 0.250000 0.000000 0.310008
Si Si5 0.601374 0.597261 0.691689
Si Si6 0.971001 0.153844 0.204221
O O1 0.779855 0.773330 0.575945
O O2 0.933324 0.800140 0.822822
O O3 0.315068 0.870819 0.577002
O O4 0.154849 0.856743 0.335033
O O5 0.131953 0.818623 0.681619
O O6 0.841319 0.528745 0.948715
O O7 0.977622 0.607347 0.847590
O O8 0.990590 0.574188 0.203114
O O9 0.309040 0.047616 0.183982
O O10 0.570180 0.625370 0.490843
#
# Coordination Sequence:
#
# PCOD9410125 Si02
#       6
#     4   8   8   4   8   8
#     4  10  22  40  64  92 122 170 212 256 326 380
#     4   9  21  40  60  87 127 160 204 264 320 373
#     4   9  20  40  59  89 128 164 205 262 315 378
#     4  10  20  38  66  90 124 172 212 260 326 376
#     4  10  21  39  62  89 125 164 211 265 315 379
#     4  10  22  40  59  93 128 160 215 263 310 383
#
# _framework density 20.109265000000001
#
# number of rings (size 3 to 8) (size 9 to 14) (size 15 to 20)
#    0.000    2.400    0.000    0.600    2.800    5.600 
#    0.000   12.000    0.000    0.000    0.000    0.000 
#    0.000    0.000    0.000    0.000    0.000    0.000 
#
# Total GULP energy -223542.217508 kJ/mol
# GULP energy per Si atom -5588.555438 kJ/mol
# Density = 2.006350 g / cm^3
# Si number density = 20.109265 Si / 1000 Ang^3
#
#
#
# Elastic Constant Matrix: (Units=GPa)
#
#
# Indices 1 2 3 4 5 6 
#
# 1 126.1928 47.1724 77.4140 0.0000 0.0000 0.0000
# 2 47.1724 89.6970 71.8648 0.0000 0.0000 0.0000
# 3 77.4140 71.8648 95.2039 0.0000 0.0000 0.0000
# 4 0.0000 0.0000 0.0000 10.4626 0.0000 0.0000
# 5 0.0000 0.0000 0.0000 0.0000 -0.8739 0.0000
# 6 0.0000 0.0000 0.0000 0.0000 0.0000 24.6260
#
#
#
# Elastic Compliance Matrix: (Units=1/GPa)
#
#
# Indices 1 2 3 4 5 6 
#
# 1 0.016760 0.005325 -0.017648 0.000000 0.000000 0.000000
# 2 0.005325 0.029901 -0.026901 0.000000 0.000000 0.000000
# 3 -0.017648 -0.026901 0.045160 0.000000 0.000000 0.000000
# 4 0.000000 0.000000 0.000000 0.095579 0.000000 0.000000
# 5 0.000000 0.000000 0.000000 0.000000 -1.144243 0.000000
# 6 0.000000 0.000000 0.000000 0.000000 0.000000 0.040608
#
#
# Mechanical properties :
#
#
# Convention : Reuss Voigt Hill
#
# Bulk Modulus (GPa) = 74.77275 78.22179 76.49727
# Shear Modulus (GPa) = -6.00002 14.48576 4.24287
#
# Velocity S-wave (km/s) = -1.72922 2.68685 1.45413
# Velocity P-wave (km/s) = 5.76863 6.97197 6.39865
#
# Compressibility (1/GPa) = 0.01337386
#
# Stress axis : x y z
#
# Youngs Moduli (GPa) = 59.66560 33.44378 22.14336
#
# Poissons Ratio (x) = -0.17810 0.39079
# Poissons Ratio (y) = -0.31774 0.59568
# Poissons Ratio (z) = 1.05298 0.89967
#
# Static dielectric constant tensor:
#      x y z
#    x 1.729020 0.000000 0.000000 
#    y 0.000000 1.714530 0.000000 
#    z 0.000000 0.000000 1.661120 
# 
# From -- ./inp_files/1422.got.cif
#   From: 2010.05.17/outbox.cif.g08.bks.cpg/sg52_1_cif.got.tgz:1422.got - 2010.06.03 12:15:38.
