data_PCOD9410453
_publ_section_title
;
Structure prediction by ZEFSAII (Michael W. Deem and Ramdas Pophale) SiO2 
 PCOD9410453
Probable space group: P N N A
;
_chemical_formula_sum "Si O2"
_cell_formula_units_Z 32
_cell_length_a 16.037757
_cell_length_b 11.699106
_cell_length_c 6.457443
_cell_angle_alpha 90.000000
_cell_angle_beta 90.000000
_cell_angle_gamma 90.000000
_cell_volume 1211.593364
_symmetry_space_group_name_H-M "P N N A"
_symmetry_group_IT_number 52
_symmetry_cell_setting 'orthorhombic'
loop_
_space_group_symop_operation_xyz
x,y,z
1/2-x,-y,z
x,1/2-y,1/2-z
1/2-x,1/2+y,1/2-z
-x,-y,-z
1/2+x,y,-z
-x,1/2+y,1/2+z
1/2+x,1/2-y,1/2+z
loop_
_atom_site_type_symbol
_atom_site_label
_atom_site_fract_x
_atom_site_fract_y
_atom_site_fract_z
Si Si1 0.263047 0.269507 0.004691
Si Si2 0.659996 0.962027 0.936563
Si Si3 0.545271 0.378915 0.822556
Si Si4 0.365880 0.014668 0.605752
O O1 0.224978 0.250000 0.250000
O O2 0.238193 0.250000 0.750000
O O3 0.336798 0.173574 0.030461
O O4 0.303002 0.395433 0.995307
O O5 0.658562 0.012827 0.164509
O O6 0.750000 0.000000 0.855401
O O7 0.582410 0.021808 0.826373
O O8 0.540974 0.250000 0.750000
O O9 0.453789 0.418090 0.888405
O O10 0.614625 0.393389 0.000950
#
# Coordination Sequence:
#
# PCOD9410453 Si02
#       4
#     8   8   8   8
#     4  10  20  42  69  99 130 187 234 282 355 430
#     4  11  24  42  65  99 139 184 230 291 357 437
#     4  11  23  43  68 102 131 178 240 300 348 423
#     4  10  23  44  69  97 136 181 234 297 360 421
#
# _framework density 26.411501999999999
#
# number of rings (size 3 to 8) (size 9 to 14) (size 15 to 20)
#    0.000    1.500    2.500    3.000    0.000    3.000 
#   13.500    0.000    0.000    0.000    0.000    0.000 
#    0.000    0.000    0.000    0.000    0.000    0.000 
#
# Total GULP energy -178231.748318 kJ/mol
# GULP energy per Si atom -5569.742135 kJ/mol
# Density = 2.635139 g / cm^3
# Si number density = 26.411502 Si / 1000 Ang^3
#
#
#
# Elastic Constant Matrix: (Units=GPa)
#
#
# Indices 1 2 3 4 5 6 
#
# 1 88.4050 4.8196 50.6462 0.0000 0.0000 0.0000
# 2 4.8196 143.8478 42.3445 0.0000 0.0000 0.0000
# 3 50.6462 42.3445 196.1500 0.0000 0.0000 0.0000
# 4 0.0000 0.0000 0.0000 53.3420 0.0000 0.0000
# 5 0.0000 0.0000 0.0000 0.0000 36.6198 0.0000
# 6 0.0000 0.0000 0.0000 0.0000 0.0000 16.4059
#
#
#
# Elastic Compliance Matrix: (Units=1/GPa)
#
#
# Indices 1 2 3 4 5 6 
#
# 1 0.013324 0.000605 -0.003571 0.000000 0.000000 0.000000
# 2 0.000605 0.007451 -0.001765 0.000000 0.000000 0.000000
# 3 -0.003571 -0.001765 0.006401 0.000000 0.000000 0.000000
# 4 0.000000 0.000000 0.000000 0.018747 0.000000 0.000000
# 5 0.000000 0.000000 0.000000 0.000000 0.027308 0.000000
# 6 0.000000 0.000000 0.000000 0.000000 0.000000 0.060954
#
#
# Mechanical properties :
#
#
# Convention : Reuss Voigt Hill
#
# Bulk Modulus (GPa) = 56.44999 69.33592 62.89296
# Shear Modulus (GPa) = 33.43340 43.31307 38.37323
#
# Velocity S-wave (km/s) = 3.56176 4.05400 3.81583
# Velocity P-wave (km/s) = 6.19149 6.94423 6.57864
#
# Compressibility (1/GPa) = 0.01771479
#
# Stress axis : x y z
#
# Youngs Moduli (GPa) = 75.05063 134.21030 156.22305
#
# Poissons Ratio (x) = -0.08116 0.55786
# Poissons Ratio (y) = -0.04539 0.27568
# Poissons Ratio (z) = 0.26800 0.23683
#
# Static dielectric constant tensor:
#      x y z
#    x 2.071260 0.000000 0.000000 
#    y 0.000000 2.051040 0.000000 
#    z 0.000000 0.000000 2.385110 
# 
# From -- ./inp_files/3908.got.cif
#   From: 2010.05.17/outbox.cif.g08.bks.cpg/sg52_2_cif.got.tgz:3908.got - 2010.06.03 12:15:38.
