data_PCOD9410546
_publ_section_title
;
Structure prediction by ZEFSAII (Michael W. Deem and Ramdas Pophale) SiO2 
 PCOD9410546
Probable space group: P N N A
;
_chemical_formula_sum "Si O2"
_cell_formula_units_Z 56
_cell_length_a 18.869447
_cell_length_b 27.798876
_cell_length_c 4.972802
_cell_angle_alpha 90.000000
_cell_angle_beta 90.000000
_cell_angle_gamma 90.000000
_cell_volume 2608.480392
_symmetry_space_group_name_H-M "P N N A"
_symmetry_group_IT_number 52
_symmetry_cell_setting 'orthorhombic'
loop_
_space_group_symop_operation_xyz
x,y,z
1/2-x,-y,z
x,1/2-y,1/2-z
1/2-x,1/2+y,1/2-z
-x,-y,-z
1/2+x,y,-z
-x,1/2+y,1/2+z
1/2+x,1/2-y,1/2+z
loop_
_atom_site_type_symbol
_atom_site_label
_atom_site_fract_x
_atom_site_fract_y
_atom_site_fract_z
Si Si1 0.577957 0.438169 0.865261
Si Si2 0.395030 0.302355 0.822909
Si Si3 0.586210 0.197117 0.152065
Si Si4 0.019153 0.876036 0.000738
Si Si5 0.661032 0.155712 0.627557
Si Si6 0.798889 0.197046 0.820463
Si Si7 0.044284 0.966913 0.211057
O O1 0.542624 0.410214 0.614834
O O2 0.636399 0.398827 0.937856
O O3 0.600310 0.493299 0.811276
O O4 0.512489 0.447944 0.068878
O O5 0.427189 0.250000 0.750000
O O6 0.446361 0.344215 0.729770
O O7 0.327006 0.305060 0.622784
O O8 0.367033 0.306394 0.124364
O O9 0.564968 0.250000 0.250000
O O10 0.650446 0.183262 0.348345
O O11 0.520264 0.160874 0.197981
O O12 0.612146 0.184538 0.848873
O O13 0.073751 0.916462 0.103146
O O14 0.739662 0.159087 0.742323
O O15 0.768263 0.250000 0.750000
O O16 0.000000 0.000000 0.000000
#
# Coordination Sequence:
#
# PCOD9410546 Si02
#       7
#     8   8   8   8   8   8   8
#     4   9  19  33  58  88 111 141 185 236 302 346
#     4  10  23  38  56  81 114 158 198 229 267 333
#     4  11  22  33  53  86 120 148 178 232 298 345
#     4  10  21  34  56  83 119 146 188 232 291 349
#     4  11  21  37  58  84 115 149 192 240 284 341
#     4  10  21  38  56  78 110 156 202 230 267 326
#     4   9  17  35  55  85 113 143 182 231 296 361
#
# _framework density 21.468437000000002
#
# number of rings (size 3 to 8) (size 9 to 14) (size 15 to 20)
#    0.000    2.000    1.429    2.143    2.000    5.143 
#    0.000    0.000    0.000    0.857    0.000    0.000 
#    0.000    0.000    0.000    0.000    0.000    0.000 
#
# Total GULP energy -312059.246220 kJ/mol
# GULP energy per Si atom -5572.486540 kJ/mol
# Density = 2.141957 g / cm^3
# Si number density = 21.468437 Si / 1000 Ang^3
#
#
#
# Elastic Constant Matrix: (Units=GPa)
#
#
# Indices 1 2 3 4 5 6 
#
# 1 27.1354 6.8481 -7.0546 0.0000 0.0000 0.0000
# 2 6.8481 131.9756 7.0905 0.0000 0.0000 0.0000
# 3 -7.0546 7.0905 64.5430 0.0000 0.0000 0.0000
# 4 0.0000 0.0000 0.0000 30.0933 0.0000 0.0000
# 5 0.0000 0.0000 0.0000 0.0000 23.7746 0.0000
# 6 0.0000 0.0000 0.0000 0.0000 0.0000 21.2861
#
#
#
# Elastic Compliance Matrix: (Units=1/GPa)
#
#
# Indices 1 2 3 4 5 6 
#
# 1 0.038578 -0.002242 0.004463 0.000000 0.000000 0.000000
# 2 -0.002242 0.007752 -0.001097 0.000000 0.000000 0.000000
# 3 0.004463 -0.001097 0.016102 0.000000 0.000000 0.000000
# 4 0.000000 0.000000 0.000000 0.033230 0.000000 0.000000
# 5 0.000000 0.000000 0.000000 0.000000 0.042062 0.000000
# 6 0.000000 0.000000 0.000000 0.000000 0.000000 0.046979
#
#
# Mechanical properties :
#
#
# Convention : Reuss Voigt Hill
#
# Bulk Modulus (GPa) = 15.46032 26.38023 20.92027
# Shear Modulus (GPa) = 24.50806 29.48212 26.99509
#
# Velocity S-wave (km/s) = 3.38240 3.70980 3.54987
# Velocity P-wave (km/s) = 4.74038 5.53757 5.15441
#
# Compressibility (1/GPa) = 0.06468173
#
# Stress axis : x y z
#
# Youngs Moduli (GPa) = 25.92135 128.99244 62.10481
#
# Poissons Ratio (x) = 0.28915 -0.27717
# Poissons Ratio (y) = 0.05810 0.06811
# Poissons Ratio (z) = -0.11568 0.14146
#
# Static dielectric constant tensor:
#      x y z
#    x 1.826120 0.000000 0.000000 
#    y 0.000000 1.886340 0.000000 
#    z 0.000000 0.000000 1.879400 
# 
# From -- ./inp_files/4594.got.cif
#   From: 2010.05.17/outbox.cif.g08.bks.cpg/sg52_3_cif.got.tgz:4594.got - 2010.06.03 12:15:38.
