data_PCOD9410996
_publ_section_title
;
Structure prediction by ZEFSAII (Michael W. Deem and Ramdas Pophale) SiO2 
 PCOD9410996
Probable space group: P N N A
;
_chemical_formula_sum "Si O2"
_cell_formula_units_Z 64
_cell_length_a 23.252166
_cell_length_b 9.545725
_cell_length_c 14.305032
_cell_angle_alpha 90.000000
_cell_angle_beta 90.000000
_cell_angle_gamma 90.000000
_cell_volume 3175.127483
_symmetry_space_group_name_H-M "P N N A"
_symmetry_group_IT_number 52
_symmetry_cell_setting 'orthorhombic'
loop_
_space_group_symop_operation_xyz
x,y,z
1/2-x,-y,z
x,1/2-y,1/2-z
1/2-x,1/2+y,1/2-z
-x,-y,-z
1/2+x,y,-z
-x,1/2+y,1/2+z
1/2+x,1/2-y,1/2+z
loop_
_atom_site_type_symbol
_atom_site_label
_atom_site_fract_x
_atom_site_fract_y
_atom_site_fract_z
Si Si1 0.125399 0.992773 0.156577
Si Si2 0.998231 0.916758 0.904873
Si Si3 0.584723 0.919525 0.249987
Si Si4 0.631515 0.992796 0.633298
Si Si5 0.784399 0.745250 0.643379
Si Si6 0.996341 0.914212 0.593641
Si Si7 0.329034 0.233794 0.020324
Si Si8 0.795300 0.377202 0.316397
O O1 0.136169 0.932936 0.260827
O O2 0.133489 0.881040 0.074794
O O3 0.061749 0.056035 0.148092
O O4 0.172069 0.114783 0.140316
O O5 0.004015 0.751180 0.921215
O O6 0.050358 0.968256 0.840704
O O7 0.000000 0.000000 0.000000
O O8 0.581171 0.750000 0.250000
O O9 0.547096 0.965388 0.337900
O O10 0.651725 0.948884 0.239750
O O11 0.642628 0.881428 0.550818
O O12 0.678887 0.114744 0.625905
O O13 0.567980 0.058492 0.630513
O O14 0.761635 0.750000 0.750000
O O15 0.733370 0.731567 0.569983
O O16 0.000000 0.000000 0.500000
O O17 0.320517 0.192919 0.911924
O O18 0.750000 0.500000 0.337876
O O19 0.773452 0.250000 0.250000
#
# Coordination Sequence:
#
# PCOD9410996 Si02
#       8
#     8   8   8   8   8   8   8   8
#     4  11  21  39  65  94 136 176 219 278 341 400
#     4  11  22  39  64  95 130 174 224 274 337 400
#     4   9  21  43  70  90 126 175 218 269 336 400
#     4  11  23  39  65  97 136 179 221 272 338 409
#     4  10  21  39  64  95 131 179 222 268 333 403
#     4  11  24  42  66  98 128 171 224 279 335 402
#     4  12  25  40  64 100 140 177 221 277 336 403
#     4  11  26  49  73  96 130 179 232 283 338 398
#
# _framework density 20.156670999999999
#
# number of rings (size 3 to 8) (size 9 to 14) (size 15 to 20)
#    0.000    1.250    2.500    3.375    7.000    3.000 
#    0.000    0.625    0.000    0.000    0.000    0.000 
#    0.000    0.000    0.000    0.000    0.000    0.000 
#
# Total GULP energy -357607.027116 kJ/mol
# GULP energy per Si atom -5587.609799 kJ/mol
# Density = 2.011079 g / cm^3
# Si number density = 20.156671 Si / 1000 Ang^3
#
#
#
# Elastic Constant Matrix: (Units=GPa)
#
#
# Indices 1 2 3 4 5 6 
#
# 1 80.2474 10.9139 16.3137 0.0000 0.0000 0.0000
# 2 10.9139 82.1307 45.8519 0.0000 0.0000 0.0000
# 3 16.3137 45.8519 111.5775 0.0000 0.0000 0.0000
# 4 0.0000 0.0000 0.0000 28.1411 0.0000 0.0000
# 5 0.0000 0.0000 0.0000 0.0000 24.2235 0.0000
# 6 0.0000 0.0000 0.0000 0.0000 0.0000 45.0849
#
#
#
# Elastic Compliance Matrix: (Units=1/GPa)
#
#
# Indices 1 2 3 4 5 6 
#
# 1 0.012890 -0.000857 -0.001532 0.000000 0.000000 0.000000
# 2 -0.000857 0.015858 -0.006391 0.000000 0.000000 0.000000
# 3 -0.001532 -0.006391 0.011813 0.000000 0.000000 0.000000
# 4 0.000000 0.000000 0.000000 0.035535 0.000000 0.000000
# 5 0.000000 0.000000 0.000000 0.000000 0.041282 0.000000
# 6 0.000000 0.000000 0.000000 0.000000 0.000000 0.022180
#
#
# Mechanical properties :
#
#
# Convention : Reuss Voigt Hill
#
# Bulk Modulus (GPa) = 43.48134 46.67938 45.08036
# Shear Modulus (GPa) = 30.34239 32.88163 31.61201
#
# Velocity S-wave (km/s) = 3.88406 4.04332 3.96449
# Velocity P-wave (km/s) = 6.46012 6.70869 6.58558
#
# Compressibility (1/GPa) = 0.02299837
#
# Stress axis : x y z
#
# Youngs Moduli (GPa) = 77.58210 63.06066 84.65365
#
# Poissons Ratio (x) = 0.05407 0.12971
# Poissons Ratio (y) = 0.06652 0.54104
# Poissons Ratio (z) = 0.11887 0.40304
#
# Static dielectric constant tensor:
#      x y z
#    x 1.753030 0.000000 0.000000 
#    y 0.000000 1.694070 0.000000 
#    z 0.000000 0.000000 1.725790 
# 
# From -- ./inp_files/29237.got.cif
#   From: 2010.05.17/outbox.cif.g08.bks.cpg/sg52_15_cif.got.tgz:29237.got - 2010.06.03 12:15:38.
