data_PCOD9410376
_publ_section_title
;
Structure prediction by ZEFSAII (Michael W. Deem and Ramdas Pophale) SiO2 
 PCOD9410376
Probable space group: P N N A
;
_chemical_formula_sum "Si O2"
_cell_formula_units_Z 60
_cell_length_a 13.371932
_cell_length_b 8.110048
_cell_length_c 25.892111
_cell_angle_alpha 90.000000
_cell_angle_beta 90.000000
_cell_angle_gamma 90.000000
_cell_volume 2807.922030
_symmetry_space_group_name_H-M "P N N A"
_symmetry_group_IT_number 52
_symmetry_cell_setting 'orthorhombic'
loop_
_space_group_symop_operation_xyz
x,y,z
1/2-x,-y,z
x,1/2-y,1/2-z
1/2-x,1/2+y,1/2-z
-x,-y,-z
1/2+x,y,-z
-x,1/2+y,1/2+z
1/2+x,1/2-y,1/2+z
loop_
_atom_site_type_symbol
_atom_site_label
_atom_site_fract_x
_atom_site_fract_y
_atom_site_fract_z
Si Si1 0.656441 0.372341 0.396898
Si Si2 0.001078 0.190890 0.984428
Si Si3 0.159195 0.881754 0.419979
Si Si4 0.535890 0.190303 0.597769
Si Si5 0.789290 0.679430 0.655731
Si Si6 0.273955 0.691521 0.800392
Si Si7 0.425654 0.130877 0.820794
Si Si8 0.412058 0.750000 0.250000
O O1 0.750000 0.500000 0.409162
O O2 0.595876 0.301854 0.445531
O O3 0.687865 0.228449 0.357955
O O4 0.583635 0.479718 0.359874
O O5 0.900544 0.261243 0.958080
O O6 0.010653 0.286582 0.038276
O O7 0.000000 0.000000 0.000000
O O8 0.204073 0.776629 0.373658
O O9 0.250000 0.000000 0.441401
O O10 0.081010 0.010734 0.397339
O O11 0.620456 0.325037 0.613890
O O12 0.452000 0.219254 0.640292
O O13 0.750000 0.500000 0.671632
O O14 0.837708 0.782441 0.702580
O O15 0.250000 0.500000 0.796506
O O16 0.337385 0.750000 0.750000
O O17 0.180480 0.820095 0.797766
O O18 0.510274 0.121596 0.776642
#
# Coordination Sequence:
#
# PCOD9410376 Si02
#       8
#     8   8   8   8   8   8   8   4
#     4  10  24  42  66 101 135 166 234 279 341 423
#     4  12  23  42  72 100 134 185 228 280 341 416
#     4  10  24  43  63  93 140 173 221 288 335 401
#     4  10  22  41  64  94 132 172 218 271 339 392
#     4  10  22  42  65  94 130 178 225 280 334 402
#     4  11  23  42  66  93 129 168 212 281 350 408
#     4  10  20  41  63  93 129 170 212 276 333 407
#     4  10  22  36  70  90 128 170 222 270 340 390
#
# _framework density 21.368115
#
# number of rings (size 3 to 8) (size 9 to 14) (size 15 to 20)
#    0.000    1.600    2.000    2.400    3.733    5.333 
#    0.000    0.000    1.467    0.000    0.000    0.000 
#    0.000    0.000    0.000    0.000    0.000    0.000 
#
# Total GULP energy -334377.357331 kJ/mol
# GULP energy per Si atom -5572.955956 kJ/mol
# Density = 2.131948 g / cm^3
# Si number density = 21.368115 Si / 1000 Ang^3
#
#
#
# Elastic Constant Matrix: (Units=GPa)
#
#
# Indices 1 2 3 4 5 6 
#
# 1 67.4772 30.3407 53.0130 0.0000 0.0000 0.0000
# 2 30.3407 73.1758 22.6335 0.0000 0.0000 0.0000
# 3 53.0130 22.6335 133.5121 0.0000 0.0000 0.0000
# 4 0.0000 0.0000 0.0000 21.3403 0.0000 0.0000
# 5 0.0000 0.0000 0.0000 0.0000 -14.4156 0.0000
# 6 0.0000 0.0000 0.0000 0.0000 0.0000 24.8435
#
#
#
# Elastic Compliance Matrix: (Units=1/GPa)
#
#
# Indices 1 2 3 4 5 6 
#
# 1 0.025093 -0.007728 -0.008654 0.000000 0.000000 0.000000
# 2 -0.007728 0.016802 0.000220 0.000000 0.000000 0.000000
# 3 -0.008654 0.000220 0.010889 0.000000 0.000000 0.000000
# 4 0.000000 0.000000 0.000000 0.046860 0.000000 0.000000
# 5 0.000000 0.000000 0.000000 0.000000 -0.069369 0.000000
# 6 0.000000 0.000000 0.000000 0.000000 0.000000 0.040252
#
#
# Mechanical properties :
#
#
# Convention : Reuss Voigt Hill
#
# Bulk Modulus (GPa) = 48.87298 54.01550 51.44424
# Shear Modulus (GPa) = 45.59192 17.56552 31.57872
#
# Velocity S-wave (km/s) = 4.62415 2.87024 3.84844
# Velocity P-wave (km/s) = 7.17160 6.02643 6.62381
#
# Compressibility (1/GPa) = 0.02046120
#
# Stress axis : x y z
#
# Youngs Moduli (GPa) = 39.85150 59.51752 91.83856
#
# Poissons Ratio (x) = 0.45994 0.79473
# Poissons Ratio (y) = 0.30796 -0.02021
# Poissons Ratio (z) = 0.34486 -0.01310
#
# Static dielectric constant tensor:
#      x y z
#    x 1.855530 0.000000 0.000000 
#    y 0.000000 1.747750 0.000000 
#    z 0.000000 0.000000 1.857180 
# 
# From -- ./inp_files/40658.got.cif
#   From: 2010.05.17/outbox.cif.g08.bks.cpg/sg52_21_cif.got.tgz:40658.got - 2010.06.03 12:15:38.
