data_PCOD9410190
_publ_section_title
;
Structure prediction by ZEFSAII (Michael W. Deem and Ramdas Pophale) SiO2 
 PCOD9410190
Probable space group: P N N A
;
_chemical_formula_sum "Si O2"
_cell_formula_units_Z 48
_cell_length_a 25.273783
_cell_length_b 5.565805
_cell_length_c 16.351689
_cell_angle_alpha 90.000000
_cell_angle_beta 90.000000
_cell_angle_gamma 90.000000
_cell_volume 2300.174886
_symmetry_space_group_name_H-M "P N N A"
_symmetry_group_IT_number 52
_symmetry_cell_setting 'orthorhombic'
loop_
_space_group_symop_operation_xyz
x,y,z
1/2-x,-y,z
x,1/2-y,1/2-z
1/2-x,1/2+y,1/2-z
-x,-y,-z
1/2+x,y,-z
-x,1/2+y,1/2+z
1/2+x,1/2-y,1/2+z
loop_
_atom_site_type_symbol
_atom_site_label
_atom_site_fract_x
_atom_site_fract_y
_atom_site_fract_z
Si Si1 0.309788 0.494312 0.504014
Si Si2 0.615755 0.893860 0.420448
Si Si3 0.690740 0.997984 0.699326
Si Si4 0.502638 0.752053 0.051764
Si Si5 0.389645 0.694168 0.080298
Si Si6 0.698488 0.346244 0.159708
O O1 0.250000 0.500000 0.471868
O O2 0.337622 0.256154 0.536276
O O3 0.348962 0.589193 0.433764
O O4 0.306710 0.654680 0.586804
O O5 0.560852 0.755734 0.407517
O O6 0.604329 0.097407 0.487818
O O7 0.644023 0.003909 0.342050
O O8 0.687452 0.750000 0.750000
O O9 0.750000 0.000000 0.660675
O O10 0.687084 0.250000 0.750000
O O11 0.642079 0.010411 0.636620
O O12 0.449399 0.751896 0.106701
O O13 0.500000 0.500000 0.000000
O O14 0.500000 0.000000 0.000000
O O15 0.750000 0.500000 0.138993
O O16 0.706988 0.250000 0.250000
#
# Coordination Sequence:
#
# PCOD9410190 Si02
#       6
#     8   8   8   8   8   8
#     4  11  21  34  59  92 121 150 208 266 312 371
#     4  10  22  38  59  92 120 154 212 261 307 372
#     4  10  24  41  60  89 126 163 200 249 318 384
#     4  10  20  39  62  91 123 162 204 258 319 367
#     4  10  23  37  64  89 120 161 203 258 313 377
#     4  11  23  37  55  84 126 172 207 252 322 382
#
# _framework density 20.867979999999999
#
# number of rings (size 3 to 8) (size 9 to 14) (size 15 to 20)
#    0.000    1.667    3.333    0.500    4.667    0.667 
#    0.000    0.833    3.667    0.000    0.000    0.000 
#    0.000    0.000    0.000    0.000    0.000    0.000 
#
# Total GULP energy -267428.544072 kJ/mol
# GULP energy per Si atom -5571.428002 kJ/mol
# Density = 2.082048 g / cm^3
# Si number density = 20.867980 Si / 1000 Ang^3
#
#
#
# Elastic Constant Matrix: (Units=GPa)
#
#
# Indices 1 2 3 4 5 6 
#
# 1 182.7381 17.4853 11.5550 0.0000 0.0000 0.0000
# 2 17.4853 76.2719 4.6085 0.0000 0.0000 0.0000
# 3 11.5550 4.6085 25.0217 0.0000 0.0000 0.0000
# 4 0.0000 0.0000 0.0000 18.8407 0.0000 0.0000
# 5 0.0000 0.0000 0.0000 0.0000 -4.2323 0.0000
# 6 0.0000 0.0000 0.0000 0.0000 0.0000 27.4128
#
#
#
# Elastic Compliance Matrix: (Units=1/GPa)
#
#
# Indices 1 2 3 4 5 6 
#
# 1 0.005738 -0.001168 -0.002435 0.000000 0.000000 0.000000
# 2 -0.001168 0.013496 -0.001946 0.000000 0.000000 0.000000
# 3 -0.002435 -0.001946 0.041448 0.000000 0.000000 0.000000
# 4 0.000000 0.000000 0.000000 0.053077 0.000000 0.000000
# 5 0.000000 0.000000 0.000000 0.000000 -0.236280 0.000000
# 6 0.000000 0.000000 0.000000 0.000000 0.000000 0.036479
#
#
# Mechanical properties :
#
#
# Convention : Reuss Voigt Hill
#
# Bulk Modulus (GPa) = 20.16772 39.03659 29.60215
# Shear Modulus (GPa) = -85.59471 25.09643 -30.24914
#
# Velocity S-wave (km/s) = -6.41142 3.47166 -3.81142
# Velocity P-wave (km/s) = 6.71736 5.90059 2.27003
#
# Compressibility (1/GPa) = 0.04958419
#
# Stress axis : x y z
#
# Youngs Moduli (GPa) = 174.27512 74.09367 24.12653
#
# Poissons Ratio (x) = 0.08657 0.05874
# Poissons Ratio (y) = 0.20361 0.04696
# Poissons Ratio (z) = 0.42430 0.14420
#
# Static dielectric constant tensor:
#      x y z
#    x 1.806280 0.000000 0.000000 
#    y 0.000000 1.982620 0.000000 
#    z 0.000000 0.000000 1.748050 
# 
# From -- ./inp_files/29416.got.cif
#   From: 2010.05.17/outbox.cif.g08.bks.cpg/sg52_15_cif.got.tgz:29416.got - 2010.06.03 12:15:38.
