data_PCOD9410730
_publ_section_title
;
Structure prediction by ZEFSAII (Michael W. Deem and Ramdas Pophale) SiO2 
 PCOD9410730
Probable space group: P N N A
;
_chemical_formula_sum "Si O2"
_cell_formula_units_Z 32
_cell_length_a 5.217687
_cell_length_b 15.075978
_cell_length_c 16.608071
_cell_angle_alpha 90.000000
_cell_angle_beta 90.000000
_cell_angle_gamma 90.000000
_cell_volume 1306.419670
_symmetry_space_group_name_H-M "P N N A"
_symmetry_group_IT_number 52
_symmetry_cell_setting 'orthorhombic'
loop_
_space_group_symop_operation_xyz
x,y,z
1/2-x,-y,z
x,1/2-y,1/2-z
1/2-x,1/2+y,1/2-z
-x,-y,-z
1/2+x,y,-z
-x,1/2+y,1/2+z
1/2+x,1/2-y,1/2+z
loop_
_atom_site_type_symbol
_atom_site_label
_atom_site_fract_x
_atom_site_fract_y
_atom_site_fract_z
Si Si1 0.827686 0.348792 0.281734
Si Si2 0.156530 0.595331 0.194627
Si Si3 0.689544 0.360230 0.466929
Si Si4 0.054293 0.156494 0.530652
O O1 0.762773 0.250000 0.250000
O O2 0.624599 0.257929 0.490629
O O3 0.603474 0.409660 0.245482
O O4 0.110575 0.367794 0.248056
O O5 0.250000 0.500000 0.165398
O O6 0.697249 0.642625 0.377407
O O7 0.081048 0.652615 0.116913
O O8 0.407068 0.400910 0.475870
O O9 0.839724 0.115198 0.471556
#
# Coordination Sequence:
#
# PCOD9410730 Si02
#       4
#     8   8   8   8
#     4  12  24  42  69  95 126 172 220 268 314 379
#     4  12  26  42  63  96 136 174 212 264 325 381
#     4  10  21  38  64  96 126 158 212 274 318 368
#     4  10  21  37  61  93 133 169 209 250 313 393
#
# _framework density 24.494425
#
# number of rings (size 3 to 8) (size 9 to 14) (size 15 to 20)
#    0.000    1.000    2.500    4.500    7.000    1.000 
#    0.000    0.000    0.000   15.000    0.000    0.000 
#    0.000    0.000    0.000    0.000    0.000    0.000 
#
# Total GULP energy -178859.454549 kJ/mol
# GULP energy per Si atom -5589.357955 kJ/mol
# Density = 2.443867 g / cm^3
# Si number density = 24.494425 Si / 1000 Ang^3
#
#
#
# Elastic Constant Matrix: (Units=GPa)
#
#
# Indices 1 2 3 4 5 6 
#
# 1 253.0218 28.2500 91.1076 0.0000 0.0000 0.0000
# 2 28.2500 53.7708 -2.0944 0.0000 0.0000 0.0000
# 3 91.1076 -2.0944 119.8139 0.0000 0.0000 0.0000
# 4 0.0000 0.0000 0.0000 -3.7170 0.0000 0.0000
# 5 0.0000 0.0000 0.0000 0.0000 48.8367 0.0000
# 6 0.0000 0.0000 0.0000 0.0000 0.0000 29.8778
#
#
#
# Elastic Compliance Matrix: (Units=1/GPa)
#
#
# Indices 1 2 3 4 5 6 
#
# 1 0.005982 -0.003322 -0.004607 0.000000 0.000000 0.000000
# 2 -0.003322 0.020455 0.002884 0.000000 0.000000 0.000000
# 3 -0.004607 0.002884 0.011900 0.000000 0.000000 0.000000
# 4 0.000000 0.000000 0.000000 -0.269038 0.000000 0.000000
# 5 0.000000 0.000000 0.000000 0.000000 0.020476 0.000000
# 6 0.000000 0.000000 0.000000 0.000000 0.000000 0.033470
#
#
# Mechanical properties :
#
#
# Convention : Reuss Voigt Hill
#
# Bulk Modulus (GPa) = 35.40265 73.45920 54.43093
# Shear Modulus (GPa) = -31.79678 35.62240 1.91281
#
# Velocity S-wave (km/s) = -3.60686 3.81767 0.88465
# Velocity P-wave (km/s) = 1.69150 7.03478 4.82840
#
# Compressibility (1/GPa) = 0.02824647
#
# Stress axis : x y z
#
# Youngs Moduli (GPa) = 167.16900 48.88734 84.03535
#
# Poissons Ratio (x) = 0.16242 0.38714
# Poissons Ratio (y) = 0.55537 -0.24234
# Poissons Ratio (z) = 0.77012 -0.14098
#
# Static dielectric constant tensor:
#      x y z
#    x 2.078920 0.000000 0.000000 
#    y 0.000000 1.993050 0.000000 
#    z 0.000000 0.000000 1.940500 
# 
# From -- ./inp_files/15955.got.cif
#   From: 2010.05.17/outbox.cif.g08.bks.cpg/sg52_8_cif.got.tgz:15955.got - 2010.06.03 12:15:38.
