data_PCOD9410919
_publ_section_title
;
Structure prediction by ZEFSAII (Michael W. Deem and Ramdas Pophale) SiO2 
 PCOD9410919
Probable space group: P N N A
;
_chemical_formula_sum "Si O2"
_cell_formula_units_Z 32
_cell_length_a 10.321763
_cell_length_b 12.581739
_cell_length_c 9.968672
_cell_angle_alpha 90.000000
_cell_angle_beta 90.000000
_cell_angle_gamma 90.000000
_cell_volume 1294.588847
_symmetry_space_group_name_H-M "P N N A"
_symmetry_group_IT_number 52
_symmetry_cell_setting 'orthorhombic'
loop_
_space_group_symop_operation_xyz
x,y,z
1/2-x,-y,z
x,1/2-y,1/2-z
1/2-x,1/2+y,1/2-z
-x,-y,-z
1/2+x,y,-z
-x,1/2+y,1/2+z
1/2+x,1/2-y,1/2+z
loop_
_atom_site_type_symbol
_atom_site_label
_atom_site_fract_x
_atom_site_fract_y
_atom_site_fract_z
Si Si1 0.949495 0.446126 0.365618
Si Si2 0.363024 0.381167 0.021100
Si Si3 0.793975 0.633508 0.256141
Si Si4 0.608118 0.124164 0.627765
O O1 0.902880 0.547382 0.278362
O O2 0.815507 0.379231 0.372649
O O3 0.000000 0.500000 0.500000
O O4 0.051588 0.379406 0.278037
O O5 0.384222 0.499315 0.081458
O O6 0.252202 0.330102 0.114214
O O7 0.286611 0.385478 0.879308
O O8 0.500533 0.331351 0.977045
O O9 0.848749 0.750000 0.250000
#
# Coordination Sequence:
#
# PCOD9410919 Si02
#       4
#     8   8   8   8
#     4  10  21  39  59  84 122 167 196 250 330 377
#     4   9  16  30  55  89 109 144 201 252 291 344
#     4  10  21  39  58  83 123 163 200 253 315 372
#     4   9  16  31  58  87 110 150 203 248 289 362
#
# _framework density 24.718273
#
# number of rings (size 3 to 8) (size 9 to 14) (size 15 to 20)
#    0.000    2.500    0.000    7.500    0.000    4.000 
#   13.500    0.000    0.000    3.000    0.000    0.000 
#    0.000    0.000    0.000    0.000    0.000    0.000 
#
# Total GULP energy -178579.385474 kJ/mol
# GULP energy per Si atom -5580.605796 kJ/mol
# Density = 2.466201 g / cm^3
# Si number density = 24.718273 Si / 1000 Ang^3
#
#
#
# Elastic Constant Matrix: (Units=GPa)
#
#
# Indices 1 2 3 4 5 6 
#
# 1 144.2597 3.8693 38.6023 0.0000 0.0000 0.0000
# 2 3.8693 68.8040 5.1479 0.0000 0.0000 0.0000
# 3 38.6023 5.1479 95.1332 0.0000 0.0000 0.0000
# 4 0.0000 0.0000 0.0000 22.4433 0.0000 0.0000
# 5 0.0000 0.0000 0.0000 0.0000 31.5178 0.0000
# 6 0.0000 0.0000 0.0000 0.0000 0.0000 13.0984
#
#
#
# Elastic Compliance Matrix: (Units=1/GPa)
#
#
# Indices 1 2 3 4 5 6 
#
# 1 0.007779 -0.000202 -0.003146 0.000000 0.000000 0.000000
# 2 -0.000202 0.014598 -0.000708 0.000000 0.000000 0.000000
# 3 -0.003146 -0.000708 0.011826 0.000000 0.000000 0.000000
# 4 0.000000 0.000000 0.000000 0.044557 0.000000 0.000000
# 5 0.000000 0.000000 0.000000 0.000000 0.031728 0.000000
# 6 0.000000 0.000000 0.000000 0.000000 0.000000 0.076345
#
#
# Mechanical properties :
#
#
# Convention : Reuss Voigt Hill
#
# Bulk Modulus (GPa) = 38.32528 44.82622 41.57575
# Shear Modulus (GPa) = 24.55279 30.78372 27.66826
#
# Velocity S-wave (km/s) = 3.15509 3.53283 3.34929
# Velocity P-wave (km/s) = 5.36762 5.90046 5.64033
#
# Compressibility (1/GPa) = 0.02609244
#
# Stress axis : x y z
#
# Youngs Moduli (GPa) = 128.54970 68.50075 84.55747
#
# Poissons Ratio (x) = 0.01385 0.26598
# Poissons Ratio (y) = 0.02598 0.05986
# Poissons Ratio (z) = 0.40437 0.04849
#
# Static dielectric constant tensor:
#      x y z
#    x 2.056250 0.000000 0.000000 
#    y 0.000000 2.025400 0.000000 
#    z 0.000000 0.000000 2.026800 
# 
# From -- ./inp_files/8214.got.cif
#   From: 2010.05.17/outbox.cif.g08.bks.cpg/sg52_5_cif.got.tgz:8214.got - 2010.06.03 12:15:38.
