data_PCOD9410997
_publ_section_title
;
Structure prediction by ZEFSAII (Michael W. Deem and Ramdas Pophale) SiO2 
 PCOD9410997
Probable space group: P N N A
;
_chemical_formula_sum "Si O2"
_cell_formula_units_Z 48
_cell_length_a 17.603417
_cell_length_b 5.776144
_cell_length_c 19.904285
_cell_angle_alpha 90.000000
_cell_angle_beta 90.000000
_cell_angle_gamma 90.000000
_cell_volume 2023.865141
_symmetry_space_group_name_H-M "P N N A"
_symmetry_group_IT_number 52
_symmetry_cell_setting 'orthorhombic'
loop_
_space_group_symop_operation_xyz
x,y,z
1/2-x,-y,z
x,1/2-y,1/2-z
1/2-x,1/2+y,1/2-z
-x,-y,-z
1/2+x,y,-z
-x,1/2+y,1/2+z
1/2+x,1/2-y,1/2+z
loop_
_atom_site_type_symbol
_atom_site_label
_atom_site_fract_x
_atom_site_fract_y
_atom_site_fract_z
Si Si1 0.234334 0.254616 0.864883
Si Si2 0.035988 0.391192 0.317089
Si Si3 0.934668 0.839664 0.101809
Si Si4 0.920516 0.497620 0.914379
Si Si5 0.323285 0.144296 0.136352
Si Si6 0.356214 0.289421 0.515295
O O1 0.250000 0.500000 0.829536
O O2 0.146462 0.270622 0.885120
O O3 0.288723 0.244257 0.931641
O O4 0.250000 0.000000 0.833411
O O5 0.031437 0.250000 0.250000
O O6 0.050831 0.230920 0.382361
O O7 0.153500 0.916833 0.369597
O O8 0.959664 0.529722 0.330169
O O9 0.007800 0.678707 0.088867
O O10 0.917821 0.039249 0.047259
O O11 0.891067 0.053402 0.817627
O O12 0.890331 0.456933 0.989729
O O13 0.250000 0.000000 0.157762
O O14 0.332185 0.095097 0.055810
#
# Coordination Sequence:
#
# PCOD9410997 Si02
#       6
#     8   8   8   8   8   8
#     4  10  22  38  63 102 142 178 214 273 354 431
#     4  11  25  43  62  94 129 181 247 284 329 406
#     4  10  21  39  64  95 138 172 217 283 353 419
#     4   9  22  36  63  91 126 172 215 274 348 406
#     4   9  20  40  58  91 132 168 218 275 342 417
#     4   9  20  39  60 100 135 165 212 278 361 428
#
# _framework density 23.716994
#
# number of rings (size 3 to 8) (size 9 to 14) (size 15 to 20)
#    1.000    1.333    0.000    2.000    4.667    8.000 
#    3.000    0.000    0.000    0.000   39.000    0.000 
#    0.000    0.000    0.000    0.000    0.000    0.000 
#
# Total GULP energy -267314.177901 kJ/mol
# GULP energy per Si atom -5569.045373 kJ/mol
# Density = 2.366301 g / cm^3
# Si number density = 23.716994 Si / 1000 Ang^3
#
#
#
# Elastic Constant Matrix: (Units=GPa)
#
#
# Indices 1 2 3 4 5 6 
#
# 1 118.7905 18.9039 12.1399 0.0000 0.0000 0.0000
# 2 18.9039 74.6910 6.1839 0.0000 0.0000 0.0000
# 3 12.1399 6.1839 52.6799 0.0000 0.0000 0.0000
# 4 0.0000 0.0000 0.0000 20.2467 0.0000 0.0000
# 5 0.0000 0.0000 0.0000 0.0000 -0.3838 0.0000
# 6 0.0000 0.0000 0.0000 0.0000 0.0000 21.0648
#
#
#
# Elastic Compliance Matrix: (Units=1/GPa)
#
#
# Indices 1 2 3 4 5 6 
#
# 1 0.008940 -0.002113 -0.001812 0.000000 0.000000 0.000000
# 2 -0.002113 0.014019 -0.001159 0.000000 0.000000 0.000000
# 3 -0.001812 -0.001159 0.019536 0.000000 0.000000 0.000000
# 4 0.000000 0.000000 0.000000 0.049391 0.000000 0.000000
# 5 0.000000 0.000000 0.000000 0.000000 -2.605544 0.000000
# 6 0.000000 0.000000 0.000000 0.000000 0.000000 0.047473
#
#
# Mechanical properties :
#
#
# Convention : Reuss Voigt Hill
#
# Bulk Modulus (GPa) = 30.93299 35.62409 33.27854
# Shear Modulus (GPa) = -2.04479 22.11445 10.03483
#
# Velocity S-wave (km/s) = -0.92953 3.05689 2.05919
# Velocity P-wave (km/s) = 3.45236 5.24524 4.44023
#
# Compressibility (1/GPa) = 0.03232794
#
# Stress axis : x y z
#
# Youngs Moduli (GPa) = 111.86238 71.33124 51.18699
#
# Poissons Ratio (x) = 0.15069 0.09276
# Poissons Ratio (y) = 0.23631 0.05932
# Poissons Ratio (z) = 0.20271 0.08266
#
# Static dielectric constant tensor:
#      x y z
#    x 1.878350 0.000000 0.000000 
#    y 0.000000 2.037610 0.000000 
#    z 0.000000 0.000000 1.871690 
# 
# From -- ./inp_files/40805.got.cif
#   From: 2010.05.17/outbox.cif.g08.bks.cpg/sg52_21_cif.got.tgz:40805.got - 2010.06.03 12:15:38.
