data_PCOD9410466
_publ_section_title
;
Structure prediction by ZEFSAII (Michael W. Deem and Ramdas Pophale) SiO2 
 PCOD9410466
Probable space group: P N N A
;
_chemical_formula_sum "Si O2"
_cell_formula_units_Z 56
_cell_length_a 14.633104
_cell_length_b 29.674936
_cell_length_c 5.933734
_cell_angle_alpha 90.000000
_cell_angle_beta 90.000000
_cell_angle_gamma 90.000000
_cell_volume 2576.643437
_symmetry_space_group_name_H-M "P N N A"
_symmetry_group_IT_number 52
_symmetry_cell_setting 'orthorhombic'
loop_
_space_group_symop_operation_xyz
x,y,z
1/2-x,-y,z
x,1/2-y,1/2-z
1/2-x,1/2+y,1/2-z
-x,-y,-z
1/2+x,y,-z
-x,1/2+y,1/2+z
1/2+x,1/2-y,1/2+z
loop_
_atom_site_type_symbol
_atom_site_label
_atom_site_fract_x
_atom_site_fract_y
_atom_site_fract_z
Si Si1 0.749929 0.663434 0.029649
Si Si2 0.931367 0.458023 0.000468
Si Si3 0.107693 0.296031 0.336844
Si Si4 0.840857 0.394041 0.690799
Si Si5 0.991772 0.384217 0.362600
Si Si6 0.282529 0.750000 0.750000
Si Si7 0.250000 0.000000 0.709384
Si Si8 0.827407 0.590988 0.394039
O O1 0.815939 0.684347 0.835154
O O2 0.667792 0.638009 0.905714
O O3 0.722890 0.709473 0.151760
O O4 0.799895 0.626970 0.196415
O O5 0.976086 0.419001 0.157268
O O6 0.832459 0.474263 0.087339
O O7 0.900294 0.437197 0.762312
O O8 0.000000 0.500000 0.000000
O O9 0.065339 0.250000 0.250000
O O10 0.155082 0.278526 0.569887
O O11 0.034723 0.335390 0.329045
O O12 0.894531 0.375970 0.477727
O O13 0.737472 0.401071 0.610544
O O14 0.068200 0.404644 0.532684
O O15 0.197452 0.040243 0.831663
#
# Coordination Sequence:
#
# PCOD9410466 Si02
#       8
#     8   8   8   8   8   4   4   8
#     4  11  21  45  73 108 142 195 241 303 372 442
#     4  12  30  46  73 110 144 194 252 304 379 451
#     4  10  23  41  80 104 146 192 241 304 380 445
#     4  12  25  45  72 103 148 192 241 303 372 446
#     4  12  26  47  74 107 145 194 246 312 372 448
#     4  10  20  42  76 112 138 190 252 292 380 440
#     4  12  26  48  68 106 150 188 246 308 360 452
#     4  12  26  46  75 103 146 191 247 309 370 440
#
# _framework density 21.733703999999999
#
# number of rings (size 3 to 8) (size 9 to 14) (size 15 to 20)
#    0.000    0.571    5.714    0.857    8.000    1.143 
#    0.000    0.000   40.857    0.000    0.000    0.000 
#    0.000    0.000    0.000    0.000    0.000    0.000 
#
# Total GULP energy -312273.243125 kJ/mol
# GULP energy per Si atom -5576.307913 kJ/mol
# Density = 2.168424 g / cm^3
# Si number density = 21.733704 Si / 1000 Ang^3
#
#
#
# Elastic Constant Matrix: (Units=GPa)
#
#
# Indices 1 2 3 4 5 6 
#
# 1 67.8247 21.2359 2.1732 0.0000 0.0000 0.0000
# 2 21.2359 151.9324 36.6324 0.0000 0.0000 0.0000
# 3 2.1732 36.6324 62.7358 0.0000 0.0000 0.0000
# 4 0.0000 0.0000 0.0000 38.9210 0.0000 0.0000
# 5 0.0000 0.0000 0.0000 0.0000 116.3503 0.0000
# 6 0.0000 0.0000 0.0000 0.0000 0.0000 29.2527
#
#
#
# Elastic Compliance Matrix: (Units=1/GPa)
#
#
# Indices 1 2 3 4 5 6 
#
# 1 0.015457 -0.002364 0.000845 0.000000 0.000000 0.000000
# 2 -0.002364 0.008022 -0.004602 0.000000 0.000000 0.000000
# 3 0.000845 -0.004602 0.018598 0.000000 0.000000 0.000000
# 4 0.000000 0.000000 0.000000 0.025693 0.000000 0.000000
# 5 0.000000 0.000000 0.000000 0.000000 0.008595 0.000000
# 6 0.000000 0.000000 0.000000 0.000000 0.000000 0.034185
#
#
# Mechanical properties :
#
#
# Convention : Reuss Voigt Hill
#
# Bulk Modulus (GPa) = 33.51868 44.73065 39.12466
# Shear Modulus (GPa) = 37.66844 51.73490 44.70167
#
# Velocity S-wave (km/s) = 4.16767 4.88423 4.54011
# Velocity P-wave (km/s) = 6.21411 7.24110 6.74717
#
# Compressibility (1/GPa) = 0.02983411
#
# Stress axis : x y z
#
# Youngs Moduli (GPa) = 64.69544 124.65761 53.76952
#
# Poissons Ratio (x) = 0.29472 -0.04544
# Poissons Ratio (y) = 0.15295 0.24746
# Poissons Ratio (z) = -0.05467 0.57371
#
# Static dielectric constant tensor:
#      x y z
#    x 1.868260 0.000000 0.000000 
#    y 0.000000 1.626130 0.000000 
#    z 0.000000 0.000000 1.951960 
# 
# From -- ./inp_files/2677.got.cif
#   From: 2010.05.17/outbox.cif.g08.bks.cpg/sg52_2_cif.got.tgz:2677.got - 2010.06.03 12:15:38.
