data_PCOD9410296
_publ_section_title
;
Structure prediction by ZEFSAII (Michael W. Deem and Ramdas Pophale) SiO2 
 PCOD9410296
Probable space group: P N N A
;
_chemical_formula_sum "Si O2"
_cell_formula_units_Z 52
_cell_length_a 22.571280
_cell_length_b 5.317187
_cell_length_c 22.140930
_cell_angle_alpha 90.000000
_cell_angle_beta 90.000000
_cell_angle_gamma 90.000000
_cell_volume 2657.259580
_symmetry_space_group_name_H-M "P N N A"
_symmetry_group_IT_number 52
_symmetry_cell_setting 'orthorhombic'
loop_
_space_group_symop_operation_xyz
x,y,z
1/2-x,-y,z
x,1/2-y,1/2-z
1/2-x,1/2+y,1/2-z
-x,-y,-z
1/2+x,y,-z
-x,1/2+y,1/2+z
1/2+x,1/2-y,1/2+z
loop_
_atom_site_type_symbol
_atom_site_label
_atom_site_fract_x
_atom_site_fract_y
_atom_site_fract_z
Si Si1 0.750000 0.000000 0.461893
Si Si2 0.791650 0.750000 0.750000
Si Si3 0.313111 0.854073 0.879929
Si Si4 0.709804 0.250000 0.250000
Si Si5 0.323340 0.224184 0.051906
Si Si6 0.648751 0.206675 0.621024
Si Si7 0.586865 0.901144 0.041753
Si Si8 0.468109 0.689145 0.047271
O O1 0.698628 0.105096 0.419265
O O2 0.770687 0.225538 0.504931
O O3 0.750000 0.500000 0.749328
O O4 0.833023 0.751524 0.690217
O O5 0.326559 0.789327 0.810999
O O6 0.250000 0.000000 0.879183
O O7 0.363191 0.012836 0.912207
O O8 0.750000 0.500000 0.240871
O O9 0.320301 0.449350 0.099413
O O10 0.329173 0.954782 0.083954
O O11 0.380961 0.271014 0.008914
O O12 0.580206 0.157021 0.600633
O O13 0.528238 0.806824 0.074758
O O14 0.564831 0.127577 0.999544
O O15 0.500000 0.500000 0.000000
#
# Coordination Sequence:
#
# PCOD9410296 Si02
#       8
#     4   4   8   4   8   8   8   8
#     4  12  22  34  58  96 134 160 206 272 338 406
#     4  12  28  50  70  98 136 188 234 282 336 420
#     4  11  22  38  60  91 131 173 214 260 327 398
#     4  10  22  42  60  80 126 178 208 242 308 382
#     4  11  23  37  63 100 127 166 207 273 338 403
#     4  11  25  44  67  92 132 174 221 271 339 403
#     4  10  21  37  60  95 128 165 212 272 332 395
#     4  10  20  40  64  91 129 166 215 275 343 389
#
# _framework density 19.569033000000001
#
# number of rings (size 3 to 8) (size 9 to 14) (size 15 to 20)
#    0.000    1.231    3.846    2.769    3.231    0.000 
#    0.000    0.000    3.385    0.000    0.000    0.000 
#    0.000    0.000    0.000    0.000    0.000    0.000 
#
# Total GULP energy -289874.798191 kJ/mol
# GULP energy per Si atom -5574.515350 kJ/mol
# Density = 1.952449 g / cm^3
# Si number density = 19.569033 Si / 1000 Ang^3
#
#
#
# Elastic Constant Matrix: (Units=GPa)
#
#
# Indices 1 2 3 4 5 6 
#
# 1 115.5419 26.5380 74.2626 0.0000 0.0000 0.0000
# 2 26.5380 94.2128 38.5115 0.0000 0.0000 0.0000
# 3 74.2626 38.5115 155.7872 0.0000 0.0000 0.0000
# 4 0.0000 0.0000 0.0000 27.6725 0.0000 0.0000
# 5 0.0000 0.0000 0.0000 0.0000 21.6512 0.0000
# 6 0.0000 0.0000 0.0000 0.0000 0.0000 23.3013
#
#
#
# Elastic Compliance Matrix: (Units=1/GPa)
#
#
# Indices 1 2 3 4 5 6 
#
# 1 0.012602 -0.001217 -0.005706 0.000000 0.000000 0.000000
# 2 -0.001217 0.011925 -0.002368 0.000000 0.000000 0.000000
# 3 -0.005706 -0.002368 0.009725 0.000000 0.000000 0.000000
# 4 0.000000 0.000000 0.000000 0.036137 0.000000 0.000000
# 5 0.000000 0.000000 0.000000 0.000000 0.046187 0.000000
# 6 0.000000 0.000000 0.000000 0.000000 0.000000 0.042916
#
#
# Mechanical properties :
#
#
# Convention : Reuss Voigt Hill
#
# Bulk Modulus (GPa) = 63.82021 71.57403 67.69712
# Shear Modulus (GPa) = 27.27811 29.60700 28.44255
#
# Velocity S-wave (km/s) = 3.73760 3.89389 3.81655
# Velocity P-wave (km/s) = 7.16309 7.54129 7.35462
#
# Compressibility (1/GPa) = 0.01566902
#
# Stress axis : x y z
#
# Youngs Moduli (GPa) = 79.35146 83.85762 102.83246
#
# Poissons Ratio (x) = 0.10207 0.58681
# Poissons Ratio (y) = 0.09658 0.24348
# Poissons Ratio (z) = 0.45282 0.19855
#
# Static dielectric constant tensor:
#      x y z
#    x 1.755970 0.000000 0.000000 
#    y 0.000000 1.798160 0.000000 
#    z 0.000000 0.000000 1.675420 
# 
# From -- ./inp_files/37917.got.cif
#   From: 2010.05.17/outbox.cif.g08.bks.cpg/sg52_19_cif.got.tgz:37917.got - 2010.06.03 12:15:38.
