data_PCOD9410322
_publ_section_title
;
Structure prediction by ZEFSAII (Michael W. Deem and Ramdas Pophale) SiO2 
 PCOD9410322
Probable space group: P N N A
;
_chemical_formula_sum "Si O2"
_cell_formula_units_Z 48
_cell_length_a 23.742983
_cell_length_b 10.613119
_cell_length_c 7.936698
_cell_angle_alpha 90.000000
_cell_angle_beta 90.000000
_cell_angle_gamma 90.000000
_cell_volume 1999.945544
_symmetry_space_group_name_H-M "P N N A"
_symmetry_group_IT_number 52
_symmetry_cell_setting 'orthorhombic'
loop_
_space_group_symop_operation_xyz
x,y,z
1/2-x,-y,z
x,1/2-y,1/2-z
1/2-x,1/2+y,1/2-z
-x,-y,-z
1/2+x,y,-z
-x,1/2+y,1/2+z
1/2+x,1/2-y,1/2+z
loop_
_atom_site_type_symbol
_atom_site_label
_atom_site_fract_x
_atom_site_fract_y
_atom_site_fract_z
Si Si1 0.810186 0.742212 0.545097
Si Si2 0.886718 0.521353 0.952293
Si Si3 0.073096 0.680444 0.574689
Si Si4 0.472373 0.800680 0.569569
Si Si5 0.091189 0.428218 0.438450
Si Si6 0.682444 0.768918 0.548150
O O1 0.808742 0.750000 0.750000
O O2 0.845867 0.863737 0.495579
O O3 0.847429 0.620511 0.499475
O O4 0.746030 0.751752 0.486732
O O5 0.900162 0.523462 0.752200
O O6 0.849405 0.399678 0.991254
O O7 0.945280 0.563065 0.039419
O O8 0.064459 0.750000 0.750000
O O9 0.059454 0.533632 0.548887
O O10 0.139137 0.672740 0.532911
O O11 0.038623 0.771579 0.447920
O O12 0.454010 0.750000 0.750000
O O13 0.445674 0.699847 0.438265
O O14 0.682968 0.750000 0.750000
#
# Coordination Sequence:
#
# PCOD9410322 Si02
#       6
#     8   8   8   8   8   8
#     4   8  18  36  67  96 123 163 215 268 322 389
#     4  10  20  40  67  96 131 166 218 268 330 397
#     4  12  26  42  61  91 134 173 217 273 336 396
#     4  11  25  42  66  94 124 174 224 275 328 396
#     4  10  21  43  66  94 127 172 217 270 335 398
#     4  11  21  38  64 100 130 163 215 270 328 397
#
# _framework density 24.000654999999998
#
# number of rings (size 3 to 8) (size 9 to 14) (size 15 to 20)
#    0.000    1.667    1.667    4.000    2.333    1.333 
#    0.000    3.333    3.667    0.000    0.000    0.000 
#    0.000    0.000    0.000    0.000    0.000    0.000 
#
# Total GULP energy -268070.733057 kJ/mol
# GULP energy per Si atom -5584.806939 kJ/mol
# Density = 2.394603 g / cm^3
# Si number density = 24.000655 Si / 1000 Ang^3
#
#
#
# Elastic Constant Matrix: (Units=GPa)
#
#
# Indices 1 2 3 4 5 6 
#
# 1 171.5742 44.4576 13.6267 0.0000 0.0000 0.0000
# 2 44.4576 124.4690 18.7340 0.0000 0.0000 0.0000
# 3 13.6267 18.7340 66.7594 0.0000 0.0000 0.0000
# 4 0.0000 0.0000 0.0000 31.5287 0.0000 0.0000
# 5 0.0000 0.0000 0.0000 0.0000 10.8994 0.0000
# 6 0.0000 0.0000 0.0000 0.0000 0.0000 28.2189
#
#
#
# Elastic Compliance Matrix: (Units=1/GPa)
#
#
# Indices 1 2 3 4 5 6 
#
# 1 0.006454 -0.002200 -0.000700 0.000000 0.000000 0.000000
# 2 -0.002200 0.009138 -0.002115 0.000000 0.000000 0.000000
# 3 -0.000700 -0.002115 0.015716 0.000000 0.000000 0.000000
# 4 0.000000 0.000000 0.000000 0.031717 0.000000 0.000000
# 5 0.000000 0.000000 0.000000 0.000000 0.091748 0.000000
# 6 0.000000 0.000000 0.000000 0.000000 0.000000 0.035437
#
#
# Mechanical properties :
#
#
# Convention : Reuss Voigt Hill
#
# Bulk Modulus (GPa) = 46.99820 57.38212 52.19016
# Shear Modulus (GPa) = 24.11575 33.19502 28.65538
#
# Velocity S-wave (km/s) = 3.17329 3.72302 3.45909
# Velocity P-wave (km/s) = 5.74899 6.51473 6.14380
#
# Compressibility (1/GPa) = 0.02127741
#
# Stress axis : x y z
#
# Youngs Moduli (GPa) = 154.94272 109.43007 63.63083
#
# Poissons Ratio (x) = 0.24073 0.04454
# Poissons Ratio (y) = 0.34085 0.13460
# Poissons Ratio (z) = 0.10847 0.23148
#
# Static dielectric constant tensor:
#      x y z
#    x 1.957190 0.000000 0.000000 
#    y 0.000000 1.832820 0.000000 
#    z 0.000000 0.000000 1.947640 
# 
# From -- ./inp_files/14267.got.cif
#   From: 2010.05.17/outbox.cif.g08.bks.cpg/sg52_8_cif.got.tgz:14267.got - 2010.06.03 12:15:38.
