data_PCOD9410984
_publ_section_title
;
Structure prediction by ZEFSAII (Michael W. Deem and Ramdas Pophale) SiO2 
 PCOD9410984
Probable space group: P N N A
;
_chemical_formula_sum "Si O2"
_cell_formula_units_Z 40
_cell_length_a 13.840776
_cell_length_b 13.690897
_cell_length_c 10.928296
_cell_angle_alpha 90.000000
_cell_angle_beta 90.000000
_cell_angle_gamma 90.000000
_cell_volume 2070.831645
_symmetry_space_group_name_H-M "P N N A"
_symmetry_group_IT_number 52
_symmetry_cell_setting 'orthorhombic'
loop_
_space_group_symop_operation_xyz
x,y,z
1/2-x,-y,z
x,1/2-y,1/2-z
1/2-x,1/2+y,1/2-z
-x,-y,-z
1/2+x,y,-z
-x,1/2+y,1/2+z
1/2+x,1/2-y,1/2+z
loop_
_atom_site_type_symbol
_atom_site_label
_atom_site_fract_x
_atom_site_fract_y
_atom_site_fract_z
Si Si1 0.985092 0.102154 0.430932
Si Si2 0.809043 0.225934 0.388249
Si Si3 0.587260 0.173465 0.349459
Si Si4 0.346422 0.432287 0.488943
Si Si5 0.497208 0.001797 0.802875
O O1 0.038478 0.179174 0.518175
O O2 0.875007 0.136797 0.431048
O O3 0.023035 0.087672 0.293092
O O4 0.000000 0.000000 0.500000
O O5 0.843678 0.250000 0.250000
O O6 0.699414 0.192432 0.372027
O O7 0.818486 0.320779 0.475701
O O8 0.549850 0.250000 0.250000
O O9 0.563469 0.072832 0.281264
O O10 0.250000 0.500000 0.490861
O O11 0.422523 0.463442 0.594218
O O12 0.408966 0.452375 0.365516
#
# Coordination Sequence:
#
# PCOD9410984 Si02
#       5
#     8   8   8   8   8
#     4  10  22  40  62  91 125 167 210 271 331 390
#     4  11  21  38  64  92 120 164 226 264 316 407
#     4  10  21  39  64  90 123 163 211 268 329 388
#     4  11  22  39  63  91 130 170 218 268 334 396
#     4  10  22  39  61  90 126 167 213 271 324 398
#
# _framework density 19.315911
#
# number of rings (size 3 to 8) (size 9 to 14) (size 15 to 20)
#    0.000    1.600    2.000    3.600    0.000    4.000 
#    7.200    0.000    0.000    0.000    0.000    0.000 
#    0.000    0.000    0.000    0.000    0.000    0.000 
#
# Total GULP energy -222863.536416 kJ/mol
# GULP energy per Si atom -5571.588410 kJ/mol
# Density = 1.927195 g / cm^3
# Si number density = 19.315911 Si / 1000 Ang^3
#
#
#
# Elastic Constant Matrix: (Units=GPa)
#
#
# Indices 1 2 3 4 5 6 
#
# 1 84.3353 32.5889 56.9932 0.0000 0.0000 0.0000
# 2 32.5889 57.2814 32.6060 0.0000 0.0000 0.0000
# 3 56.9932 32.6060 106.4350 0.0000 0.0000 0.0000
# 4 0.0000 0.0000 0.0000 41.1265 0.0000 0.0000
# 5 0.0000 0.0000 0.0000 0.0000 9.2713 0.0000
# 6 0.0000 0.0000 0.0000 0.0000 0.0000 25.2615
#
#
#
# Elastic Compliance Matrix: (Units=1/GPa)
#
#
# Indices 1 2 3 4 5 6 
#
# 1 0.020418 -0.006532 -0.008932 0.000000 0.000000 0.000000
# 2 -0.006532 0.023235 -0.003620 0.000000 0.000000 0.000000
# 3 -0.008932 -0.003620 0.015287 0.000000 0.000000 0.000000
# 4 0.000000 0.000000 0.000000 0.024315 0.000000 0.000000
# 5 0.000000 0.000000 0.000000 0.000000 0.107860 0.000000
# 6 0.000000 0.000000 0.000000 0.000000 0.000000 0.039586
#
#
# Mechanical properties :
#
#
# Convention : Reuss Voigt Hill
#
# Bulk Modulus (GPa) = 48.14338 54.71422 51.42880
# Shear Modulus (GPa) = 18.12952 23.52275 20.82614
#
# Velocity S-wave (km/s) = 3.06695 3.49347 3.28714
# Velocity P-wave (km/s) = 6.12535 6.68281 6.41014
#
# Compressibility (1/GPa) = 0.02077129
#
# Stress axis : x y z
#
# Youngs Moduli (GPa) = 48.97692 43.03944 65.41334
#
# Poissons Ratio (x) = 0.28113 0.58429
# Poissons Ratio (y) = 0.31991 0.23681
# Poissons Ratio (z) = 0.43747 0.15581
#
# Static dielectric constant tensor:
#      x y z
#    x 1.659790 0.000000 0.000000 
#    y 0.000000 1.574870 0.000000 
#    z 0.000000 0.000000 1.730000 
# 
# From -- ./inp_files/17979.got.cif
#   From: 2010.05.17/outbox.cif.g08.bks.cpg/sg52_9_cif.got.tgz:17979.got - 2010.06.03 12:15:38.
