data_PCOD9410321
_publ_section_title
;
Structure prediction by ZEFSAII (Michael W. Deem and Ramdas Pophale) SiO2 
 PCOD9410321
Probable space group: P N N A
;
_chemical_formula_sum "Si O2"
_cell_formula_units_Z 32
_cell_length_a 12.603577
_cell_length_b 14.841538
_cell_length_c 6.855717
_cell_angle_alpha 90.000000
_cell_angle_beta 90.000000
_cell_angle_gamma 90.000000
_cell_volume 1282.406201
_symmetry_space_group_name_H-M "P N N A"
_symmetry_group_IT_number 52
_symmetry_cell_setting 'orthorhombic'
loop_
_space_group_symop_operation_xyz
x,y,z
1/2-x,-y,z
x,1/2-y,1/2-z
1/2-x,1/2+y,1/2-z
-x,-y,-z
1/2+x,y,-z
-x,1/2+y,1/2+z
1/2+x,1/2-y,1/2+z
loop_
_atom_site_type_symbol
_atom_site_label
_atom_site_fract_x
_atom_site_fract_y
_atom_site_fract_z
Si Si1 0.810068 0.146651 0.304048
Si Si2 0.995675 0.976014 0.730088
Si Si3 0.806717 0.596033 0.532113
Si Si4 0.617985 0.654551 0.754768
O O1 0.836554 0.250000 0.250000
O O2 0.827864 0.135395 0.535089
O O3 0.894726 0.073507 0.224040
O O4 0.698701 0.120174 0.199241
O O5 0.907195 0.909761 0.824959
O O6 0.959777 0.073887 0.807919
O O7 0.000000 0.000000 0.500000
O O8 0.750000 0.500000 0.562865
O O9 0.719074 0.664190 0.614993
O O10 0.559348 0.750000 0.750000
#
# Coordination Sequence:
#
# PCOD9410321 Si02
#       4
#     8   8   8   8
#     4  11  22  41  68  99 143 186 233 304 364 436
#     4   9  22  42  71 101 137 191 245 297 369 442
#     4  10  22  40  67  97 137 185 236 296 365 427
#     4  10  20  40  67  95 143 186 234 302 359 427
#
# _framework density 24.953092999999999
#
# number of rings (size 3 to 8) (size 9 to 14) (size 15 to 20)
#    0.000    2.000    2.500    0.000    0.000   10.000 
#    0.000    2.500    5.500    0.000    0.000    0.000 
#    0.000    0.000    0.000    0.000    0.000    0.000 
#
# Total GULP energy -178313.367027 kJ/mol
# GULP energy per Si atom -5572.292720 kJ/mol
# Density = 2.489630 g / cm^3
# Si number density = 24.953093 Si / 1000 Ang^3
#
#
#
# Elastic Constant Matrix: (Units=GPa)
#
#
# Indices 1 2 3 4 5 6 
#
# 1 113.0396 40.3158 40.5229 0.0000 0.0000 0.0000
# 2 40.3158 130.5573 -0.7561 0.0000 0.0000 0.0000
# 3 40.5229 -0.7561 156.7443 0.0000 0.0000 0.0000
# 4 0.0000 0.0000 0.0000 29.3055 0.0000 0.0000
# 5 0.0000 0.0000 0.0000 0.0000 23.4649 0.0000
# 6 0.0000 0.0000 0.0000 0.0000 0.0000 29.9648
#
#
#
# Elastic Compliance Matrix: (Units=1/GPa)
#
#
# Indices 1 2 3 4 5 6 
#
# 1 0.011112 -0.003448 -0.002889 0.000000 0.000000 0.000000
# 2 -0.003448 0.008730 0.000934 0.000000 0.000000 0.000000
# 3 -0.002889 0.000934 0.007131 0.000000 0.000000 0.000000
# 4 0.000000 0.000000 0.000000 0.034123 0.000000 0.000000
# 5 0.000000 0.000000 0.000000 0.000000 0.042617 0.000000
# 6 0.000000 0.000000 0.000000 0.000000 0.000000 0.033372
#
#
# Mechanical properties :
#
#
# Convention : Reuss Voigt Hill
#
# Bulk Modulus (GPa) = 61.86184 62.27848 62.07016
# Shear Modulus (GPa) = 32.61964 37.89762 35.25863
#
# Velocity S-wave (km/s) = 3.61950 3.90135 3.76306
# Velocity P-wave (km/s) = 6.50483 6.73100 6.61888
#
# Compressibility (1/GPa) = 0.01616505
#
# Stress axis : x y z
#
# Youngs Moduli (GPa) = 89.99244 114.55212 140.22653
#
# Poissons Ratio (x) = 0.39499 0.40517
# Poissons Ratio (y) = 0.31030 -0.13091
# Poissons Ratio (z) = 0.26003 -0.10694
#
# Static dielectric constant tensor:
#      x y z
#    x 1.991870 0.000000 0.000000 
#    y 0.000000 2.081060 0.000000 
#    z 0.000000 0.000000 2.121060 
# 
# From -- ./inp_files/8316.got.cif
#   From: 2010.05.17/outbox.cif.g08.bks.cpg/sg52_5_cif.got.tgz:8316.got - 2010.06.03 12:15:38.
