data_PCOD9410873
_publ_section_title
;
Structure prediction by ZEFSAII (Michael W. Deem and Ramdas Pophale) SiO2 
 PCOD9410873
Probable space group: P N N A
;
_chemical_formula_sum "Si O2"
_cell_formula_units_Z 32
_cell_length_a 20.636912
_cell_length_b 9.507604
_cell_length_c 7.375574
_cell_angle_alpha 90.000000
_cell_angle_beta 90.000000
_cell_angle_gamma 90.000000
_cell_volume 1447.143578
_symmetry_space_group_name_H-M "P N N A"
_symmetry_group_IT_number 52
_symmetry_cell_setting 'orthorhombic'
loop_
_space_group_symop_operation_xyz
x,y,z
1/2-x,-y,z
x,1/2-y,1/2-z
1/2-x,1/2+y,1/2-z
-x,-y,-z
1/2+x,y,-z
-x,1/2+y,1/2+z
1/2+x,1/2-y,1/2+z
loop_
_atom_site_type_symbol
_atom_site_label
_atom_site_fract_x
_atom_site_fract_y
_atom_site_fract_z
Si Si1 0.554712 0.352995 0.448766
Si Si2 0.922276 0.072247 0.781039
Si Si3 0.801116 0.250000 0.750000
Si Si4 0.892832 0.540263 0.101048
Si Si5 0.250000 0.500000 0.013411
O O1 0.568485 0.416073 0.643695
O O2 0.480209 0.347633 0.384537
O O3 0.582077 0.469748 0.305823
O O4 0.588042 0.202446 0.436244
O O5 0.853878 0.141815 0.836675
O O6 0.922128 0.054483 0.561830
O O7 0.758649 0.356169 0.870000
O O8 0.816274 0.515947 0.095463
#
# Coordination Sequence:
#
# PCOD9410873 Si02
#       5
#     8   8   4   8   4
#     4  10  21  38  65  95 120 159 203 260 317 359
#     4  10  21  39  63  92 122 160 201 258 311 369
#     4  10  22  40  64  88 122 166 214 242 310 366
#     4  10  21  40  58  89 124 162 206 253 300 363
#     4  10  24  40  60  88 124 172 208 252 298 374
#
# _framework density 22.112527
#
# number of rings (size 3 to 8) (size 9 to 14) (size 15 to 20)
#    0.000    2.000    0.000    3.000    7.000    2.000 
#    9.000    8.750    0.000    0.000    0.000    0.000 
#    0.000    0.000    0.000    0.000    0.000    0.000 
#
# Total GULP energy -178244.865089 kJ/mol
# GULP energy per Si atom -5570.152034 kJ/mol
# Density = 2.206220 g / cm^3
# Si number density = 22.112527 Si / 1000 Ang^3
#
#
#
# Elastic Constant Matrix: (Units=GPa)
#
#
# Indices 1 2 3 4 5 6 
#
# 1 101.9785 5.2729 25.6020 0.0000 0.0000 0.0000
# 2 5.2729 77.8528 11.5024 0.0000 0.0000 0.0000
# 3 25.6020 11.5024 74.5749 0.0000 0.0000 0.0000
# 4 0.0000 0.0000 0.0000 24.1538 0.0000 0.0000
# 5 0.0000 0.0000 0.0000 0.0000 23.3321 0.0000
# 6 0.0000 0.0000 0.0000 0.0000 0.0000 19.9553
#
#
#
# Elastic Compliance Matrix: (Units=1/GPa)
#
#
# Indices 1 2 3 4 5 6 
#
# 1 0.010734 -0.000187 -0.003656 0.000000 0.000000 0.000000
# 2 -0.000187 0.013148 -0.001964 0.000000 0.000000 0.000000
# 3 -0.003656 -0.001964 0.014967 0.000000 0.000000 0.000000
# 4 0.000000 0.000000 0.000000 0.041401 0.000000 0.000000
# 5 0.000000 0.000000 0.000000 0.000000 0.042859 0.000000
# 6 0.000000 0.000000 0.000000 0.000000 0.000000 0.050112
#
#
# Mechanical properties :
#
#
# Convention : Reuss Voigt Hill
#
# Bulk Modulus (GPa) = 36.71719 37.68454 37.20087
# Shear Modulus (GPa) = 25.78478 27.62350 26.70414
#
# Velocity S-wave (km/s) = 3.41848 3.53827 3.47889
# Velocity P-wave (km/s) = 5.67645 5.81134 5.74429
#
# Compressibility (1/GPa) = 0.02723520
#
# Stress axis : x y z
#
# Youngs Moduli (GPa) = 93.16618 76.05986 66.81204
#
# Poissons Ratio (x) = 0.01421 0.24427
# Poissons Ratio (y) = 0.01740 0.13120
# Poissons Ratio (z) = 0.34062 0.14936
#
# Static dielectric constant tensor:
#      x y z
#    x 1.814960 0.000000 0.000000 
#    y 0.000000 1.848880 0.000000 
#    z 0.000000 0.000000 1.854380 
# 
# From -- ./inp_files/12877.got.cif
#   From: 2010.05.17/outbox.cif.g08.bks.cpg/sg52_7_cif.got.tgz:12877.got - 2010.06.03 12:15:38.
