data_PCOD9410901
_publ_section_title
;
Structure prediction by ZEFSAII (Michael W. Deem and Ramdas Pophale) SiO2 
 PCOD9410901
Probable space group: P N N A
;
_chemical_formula_sum "Si O2"
_cell_formula_units_Z 64
_cell_length_a 9.516313
_cell_length_b 21.404597
_cell_length_c 15.665371
_cell_angle_alpha 90.000000
_cell_angle_beta 90.000000
_cell_angle_gamma 90.000000
_cell_volume 3190.923982
_symmetry_space_group_name_H-M "P N N A"
_symmetry_group_IT_number 52
_symmetry_cell_setting 'orthorhombic'
loop_
_space_group_symop_operation_xyz
x,y,z
1/2-x,-y,z
x,1/2-y,1/2-z
1/2-x,1/2+y,1/2-z
-x,-y,-z
1/2+x,y,-z
-x,1/2+y,1/2+z
1/2+x,1/2-y,1/2+z
loop_
_atom_site_type_symbol
_atom_site_label
_atom_site_fract_x
_atom_site_fract_y
_atom_site_fract_z
Si Si1 0.600372 0.464629 0.064199
Si Si2 0.247876 0.678091 0.760314
Si Si3 0.011766 0.557694 0.437096
Si Si4 0.585535 0.746090 0.002059
Si Si5 0.958261 0.792036 0.825725
Si Si6 0.671550 0.173375 0.451470
Si Si7 0.781317 0.864764 0.960773
Si Si8 0.117760 0.047074 0.760478
O O1 0.750000 0.500000 0.063453
O O2 0.610357 0.393950 0.029787
O O3 0.557470 0.460991 0.164601
O O4 0.500000 0.500000 0.000000
O O5 0.298647 0.750000 0.750000
O O6 0.252470 0.666901 0.860883
O O7 0.335971 0.619559 0.726897
O O8 0.094078 0.676362 0.718124
O O9 0.899521 0.609928 0.473076
O O10 0.978579 0.535430 0.341686
O O11 0.000000 0.500000 0.500000
O O12 0.169974 0.581969 0.441445
O O13 0.520894 0.749808 0.097403
O O14 0.704044 0.694110 0.986617
O O15 0.449273 0.726533 0.947696
O O16 0.677836 0.808841 0.992258
O O17 0.892712 0.750000 0.750000
O O18 0.858379 0.839414 0.875838
O O19 0.250000 0.000000 0.766135
#
# Coordination Sequence:
#
# PCOD9410901 Si02
#       8
#     8   8   8   8   8   8   8   8
#     4  10  22  45  69  98 132 175 229 289 349 410
#     4  10  21  38  67  95 131 176 224 283 353 412
#     4  12  26  46  68 100 138 191 242 289 355 428
#     4  12  21  40  64  97 133 177 223 275 354 416
#     4  11  22  40  64  97 138 177 224 287 356 413
#     4  11  22  38  67  97 129 175 226 276 343 434
#     4  12  25  43  69  97 144 185 230 297 353 424
#     4  10  23  42  70 101 133 182 237 287 349 431
#
# _framework density 20.056885000000001
#
# number of rings (size 3 to 8) (size 9 to 14) (size 15 to 20)
#    0.000    1.000    5.000    2.625    3.500    0.000 
#    4.500    1.250    0.000    0.000    0.000    0.000 
#    0.000    0.000    0.000    0.000    0.000    0.000 
#
# Total GULP energy -356790.964720 kJ/mol
# GULP energy per Si atom -5574.858824 kJ/mol
# Density = 2.001123 g / cm^3
# Si number density = 20.056885 Si / 1000 Ang^3
#
#
#
# Elastic Constant Matrix: (Units=GPa)
#
#
# Indices 1 2 3 4 5 6 
#
# 1 92.8481 28.2471 60.9730 0.0000 0.0000 0.0000
# 2 28.2471 102.4002 34.2484 0.0000 0.0000 0.0000
# 3 60.9730 34.2484 104.8431 0.0000 0.0000 0.0000
# 4 0.0000 0.0000 0.0000 33.1647 0.0000 0.0000
# 5 0.0000 0.0000 0.0000 0.0000 32.1222 0.0000
# 6 0.0000 0.0000 0.0000 0.0000 0.0000 31.2933
#
#
#
# Elastic Compliance Matrix: (Units=1/GPa)
#
#
# Indices 1 2 3 4 5 6 
#
# 1 0.017659 -0.001613 -0.009743 0.000000 0.000000 0.000000
# 2 -0.001613 0.011111 -0.002692 0.000000 0.000000 0.000000
# 3 -0.009743 -0.002692 0.016084 0.000000 0.000000 0.000000
# 4 0.000000 0.000000 0.000000 0.030153 0.000000 0.000000
# 5 0.000000 0.000000 0.000000 0.000000 0.031131 0.000000
# 6 0.000000 0.000000 0.000000 0.000000 0.000000 0.031956
#
#
# Mechanical properties :
#
#
# Convention : Reuss Voigt Hill
#
# Bulk Modulus (GPa) = 59.67064 60.78093 60.22578
# Shear Modulus (GPa) = 29.10805 31.09091 30.09948
#
# Velocity S-wave (km/s) = 3.81369 3.94145 3.87810
# Velocity P-wave (km/s) = 7.01481 7.14727 7.08135
#
# Compressibility (1/GPa) = 0.01675866
#
# Stress axis : x y z
#
# Youngs Moduli (GPa) = 56.62771 90.00351 62.17519
#
# Poissons Ratio (x) = 0.14514 0.60578
# Poissons Ratio (y) = 0.09132 0.16735
# Poissons Ratio (z) = 0.55173 0.24225
#
# Static dielectric constant tensor:
#      x y z
#    x 1.719380 0.000000 0.000000 
#    y 0.000000 1.825400 0.000000 
#    z 0.000000 0.000000 1.708750 
# 
# From -- ./inp_files/25143.got.cif
#   From: 2010.05.17/outbox.cif.g08.bks.cpg/sg52_13_cif.got.tgz:25143.got - 2010.06.03 12:15:38.
