data_PCOD9410127
_publ_section_title
;
Structure prediction by ZEFSAII (Michael W. Deem and Ramdas Pophale) SiO2 
 PCOD9410127
Probable space group: P N N A
;
_chemical_formula_sum "Si O2"
_cell_formula_units_Z 60
_cell_length_a 18.347879
_cell_length_b 23.760313
_cell_length_c 6.158580
_cell_angle_alpha 90.000000
_cell_angle_beta 90.000000
_cell_angle_gamma 90.000000
_cell_volume 2684.841252
_symmetry_space_group_name_H-M "P N N A"
_symmetry_group_IT_number 52
_symmetry_cell_setting 'orthorhombic'
loop_
_space_group_symop_operation_xyz
x,y,z
1/2-x,-y,z
x,1/2-y,1/2-z
1/2-x,1/2+y,1/2-z
-x,-y,-z
1/2+x,y,-z
-x,1/2+y,1/2+z
1/2+x,1/2-y,1/2+z
loop_
_atom_site_type_symbol
_atom_site_label
_atom_site_fract_x
_atom_site_fract_y
_atom_site_fract_z
Si Si1 0.739594 0.126388 0.963519
Si Si2 0.965230 0.141484 0.659301
Si Si3 0.376806 0.250000 0.250000
Si Si4 0.574898 0.968253 0.943121
Si Si5 0.636951 0.608624 0.210274
Si Si6 0.237471 0.814857 0.455105
Si Si7 0.635487 0.362543 0.158262
Si Si8 0.189216 0.462699 0.153108
O O1 0.814068 0.134595 0.095676
O O2 0.667669 0.122844 0.108156
O O3 0.735940 0.175345 0.788669
O O4 0.737934 0.067834 0.836561
O O5 0.926423 0.195262 0.766623
O O6 0.934695 0.131329 0.413591
O O7 0.051261 0.149928 0.653610
O O8 0.945682 0.087841 0.807540
O O9 0.323568 0.232748 0.449897
O O10 0.613441 0.949519 0.171726
O O11 0.500000 0.000000 0.000000
O O12 0.626324 0.003769 0.781028
O O13 0.695482 0.626700 0.022468
O O14 0.310398 0.811648 0.591404
O O15 0.652986 0.415014 0.997970
O O16 0.250000 0.500000 0.028321
#
# Coordination Sequence:
#
# PCOD9410127 Si02
#       8
#     8   8   4   8   8   8   8   8
#     4  10  20  41  63  95 134 175 230 275 332 407
#     4  11  25  45  66  99 140 176 230 290 355 418
#     4  10  22  46  76  90 134 178 226 296 346 412
#     4  12  25  41  64 101 140 180 222 275 349 427
#     4  10  20  38  66  92 130 175 223 273 336 408
#     4   9  21  43  69  96 129 176 233 286 337 413
#     4  10  23  42  66  97 141 178 222 291 348 409
#     4  11  23  37  63  99 134 181 229 270 335 419
#
# _framework density 22.347688999999999
#
# number of rings (size 3 to 8) (size 9 to 14) (size 15 to 20)
#    0.000    1.600    1.333    3.200    5.600    4.800 
#    2.400   16.000    0.000    0.000    0.000    0.000 
#    0.000    0.000    0.000    0.000    0.000    0.000 
#
# Total GULP energy -334297.930984 kJ/mol
# GULP energy per Si atom -5571.632183 kJ/mol
# Density = 2.229683 g / cm^3
# Si number density = 22.347689 Si / 1000 Ang^3
#
#
#
# Elastic Constant Matrix: (Units=GPa)
#
#
# Indices 1 2 3 4 5 6 
#
# 1 166.3392 52.1841 37.2034 0.0000 0.0000 0.0000
# 2 52.1841 110.8936 26.3957 0.0000 0.0000 0.0000
# 3 37.2034 26.3957 59.6752 0.0000 0.0000 0.0000
# 4 0.0000 0.0000 0.0000 21.2830 0.0000 0.0000
# 5 0.0000 0.0000 0.0000 0.0000 26.2820 0.0000
# 6 0.0000 0.0000 0.0000 0.0000 0.0000 39.9198
#
#
#
# Elastic Compliance Matrix: (Units=1/GPa)
#
#
# Indices 1 2 3 4 5 6 
#
# 1 0.007676 -0.002764 -0.003563 0.000000 0.000000 0.000000
# 2 -0.002764 0.011074 -0.003175 0.000000 0.000000 0.000000
# 3 -0.003563 -0.003175 0.020383 0.000000 0.000000 0.000000
# 4 0.000000 0.000000 0.000000 0.046986 0.000000 0.000000
# 5 0.000000 0.000000 0.000000 0.000000 0.038049 0.000000
# 6 0.000000 0.000000 0.000000 0.000000 0.000000 0.025050
#
#
# Mechanical properties :
#
#
# Convention : Reuss Voigt Hill
#
# Bulk Modulus (GPa) = 49.67952 63.16381 56.42167
# Shear Modulus (GPa) = 28.58266 32.23862 30.41064
#
# Velocity S-wave (km/s) = 3.58019 3.80227 3.69290
# Velocity P-wave (km/s) = 6.27446 6.89941 6.59434
#
# Compressibility (1/GPa) = 0.02012902
#
# Stress axis : x y z
#
# Youngs Moduli (GPa) = 130.27979 90.30062 49.06066
#
# Poissons Ratio (x) = 0.24959 0.17479
# Poissons Ratio (y) = 0.36010 0.15577
# Poissons Ratio (z) = 0.46415 0.28672
#
# Static dielectric constant tensor:
#      x y z
#    x 1.812570 0.000000 0.000000 
#    y 0.000000 1.931190 0.000000 
#    z 0.000000 0.000000 1.867440 
# 
# From -- ./inp_files/3583.got.cif
#   From: 2010.05.17/outbox.cif.g08.bks.cpg/sg52_2_cif.got.tgz:3583.got - 2010.06.03 12:15:38.
