data_PCOD9410863
_publ_section_title
;
Structure prediction by ZEFSAII (Michael W. Deem and Ramdas Pophale) SiO2 
 PCOD9410863
Probable space group: P N N A
;
_chemical_formula_sum "Si O2"
_cell_formula_units_Z 48
_cell_length_a 7.630872
_cell_length_b 17.921774
_cell_length_c 14.222845
_cell_angle_alpha 90.000000
_cell_angle_beta 90.000000
_cell_angle_gamma 90.000000
_cell_volume 1945.098694
_symmetry_space_group_name_H-M "P N N A"
_symmetry_group_IT_number 52
_symmetry_cell_setting 'orthorhombic'
loop_
_space_group_symop_operation_xyz
x,y,z
1/2-x,-y,z
x,1/2-y,1/2-z
1/2-x,1/2+y,1/2-z
-x,-y,-z
1/2+x,y,-z
-x,1/2+y,1/2+z
1/2+x,1/2-y,1/2+z
loop_
_atom_site_type_symbol
_atom_site_label
_atom_site_fract_x
_atom_site_fract_y
_atom_site_fract_z
Si Si1 0.551232 0.969604 0.400533
Si Si2 0.547741 0.517518 0.293223
Si Si3 0.506242 0.741320 0.864394
Si Si4 0.390564 0.102469 0.076051
Si Si5 0.894196 0.692518 0.937593
Si Si6 0.497929 0.349200 0.616174
O O1 0.467665 0.005434 0.306889
O O2 0.487237 0.884085 0.409828
O O3 0.750000 0.000000 0.389952
O O4 0.500000 0.000000 0.500000
O O5 0.750000 0.500000 0.304109
O O6 0.446862 0.472809 0.373922
O O7 0.551183 0.607940 0.290488
O O8 0.481301 0.750000 0.750000
O O9 0.488228 0.828088 0.894549
O O10 0.701650 0.707576 0.890178
O O11 0.391241 0.700037 0.946958
O O12 0.200092 0.128477 0.105878
O O13 0.396400 0.104963 0.964202
O O14 0.011065 0.762060 0.899642
#
# Coordination Sequence:
#
# PCOD9410863 Si02
#       6
#     8   8   8   8   8   8
#     4  11  26  44  66  95 135 182 229 287 349 418
#     4  11  24  40  62  95 133 174 229 274 351 421
#     4  10  23  42  72 101 138 186 235 291 367 418
#     4  10  21  38  64  96 133 168 225 284 343 420
#     4  10  23  44  69 101 139 175 239 293 345 437
#     4  10  21  39  66  97 129 177 216 288 353 404
#
# _framework density 24.677409000000001
#
# number of rings (size 3 to 8) (size 9 to 14) (size 15 to 20)
#    0.000    1.667    0.000    3.000    7.000    2.667 
#    0.000    0.833    0.000    0.000    0.000    0.000 
#    0.000    0.000    0.000    0.000    0.000    0.000 
#
# Total GULP energy -267476.032934 kJ/mol
# GULP energy per Si atom -5572.417353 kJ/mol
# Density = 2.462124 g / cm^3
# Si number density = 24.677409 Si / 1000 Ang^3
#
#
#
# Elastic Constant Matrix: (Units=GPa)
#
#
# Indices 1 2 3 4 5 6 
#
# 1 67.2392 23.2966 -8.0954 0.0000 0.0000 0.0000
# 2 23.2966 142.0216 20.3030 0.0000 0.0000 0.0000
# 3 -8.0954 20.3030 97.0945 0.0000 0.0000 0.0000
# 4 0.0000 0.0000 0.0000 9.7544 0.0000 0.0000
# 5 0.0000 0.0000 0.0000 0.0000 9.4357 0.0000
# 6 0.0000 0.0000 0.0000 0.0000 0.0000 26.0099
#
#
#
# Elastic Compliance Matrix: (Units=1/GPa)
#
#
# Indices 1 2 3 4 5 6 
#
# 1 0.016121 -0.002924 0.001956 0.000000 0.000000 0.000000
# 2 -0.002924 0.007788 -0.001872 0.000000 0.000000 0.000000
# 3 0.001956 -0.001872 0.010854 0.000000 0.000000 0.000000
# 4 0.000000 0.000000 0.000000 0.102518 0.000000 0.000000
# 5 0.000000 0.000000 0.000000 0.000000 0.105980 0.000000
# 6 0.000000 0.000000 0.000000 0.000000 0.000000 0.038447
#
#
# Mechanical properties :
#
#
# Convention : Reuss Voigt Hill
#
# Bulk Modulus (GPa) = 34.38621 41.92930 38.15776
# Shear Modulus (GPa) = 16.83028 27.09675 21.96352
#
# Velocity S-wave (km/s) = 2.61437 3.31726 2.98657
# Velocity P-wave (km/s) = 4.80393 5.63029 5.23345
#
# Compressibility (1/GPa) = 0.02908142
#
# Stress axis : x y z
#
# Youngs Moduli (GPa) = 62.03174 128.39464 92.13347
#
# Poissons Ratio (x) = 0.37542 -0.18017
# Poissons Ratio (y) = 0.18138 0.17251
# Poissons Ratio (z) = -0.12130 0.24041
#
# Static dielectric constant tensor:
#      x y z
#    x 1.932330 0.000000 0.000000 
#    y 0.000000 1.911110 0.000000 
#    z 0.000000 0.000000 2.156760 
# 
# From -- ./inp_files/24735.got.cif
#   From: 2010.05.17/outbox.cif.g08.bks.cpg/sg52_13_cif.got.tgz:24735.got - 2010.06.03 12:15:38.
