data_PCOD9410153
_publ_section_title
;
Structure prediction by ZEFSAII (Michael W. Deem and Ramdas Pophale) SiO2 
 PCOD9410153
Probable space group: P N N A
;
_chemical_formula_sum "Si O2"
_cell_formula_units_Z 40
_cell_length_a 13.575528
_cell_length_b 4.901759
_cell_length_c 25.431492
_cell_angle_alpha 90.000000
_cell_angle_beta 90.000000
_cell_angle_gamma 90.000000
_cell_volume 1692.312353
_symmetry_space_group_name_H-M "P N N A"
_symmetry_group_IT_number 52
_symmetry_cell_setting 'orthorhombic'
loop_
_space_group_symop_operation_xyz
x,y,z
1/2-x,-y,z
x,1/2-y,1/2-z
1/2-x,1/2+y,1/2-z
-x,-y,-z
1/2+x,y,-z
-x,1/2+y,1/2+z
1/2+x,1/2-y,1/2+z
loop_
_atom_site_type_symbol
_atom_site_label
_atom_site_fract_x
_atom_site_fract_y
_atom_site_fract_z
Si Si1 0.821597 0.745620 0.018758
Si Si2 0.350549 0.882724 0.087230
Si Si3 0.634745 0.982202 0.372707
Si Si4 0.017648 0.456697 0.656775
Si Si5 0.091822 0.250000 0.250000
Si Si6 0.750000 0.500000 0.823504
O O1 0.750000 0.500000 0.001414
O O2 0.875190 0.623960 0.070099
O O3 0.750000 0.000000 0.036205
O O4 0.893628 0.782348 0.968374
O O5 0.425846 0.078511 0.116737
O O6 0.302963 0.699974 0.133567
O O7 0.250000 0.000000 0.064235
O O8 0.572039 0.174810 0.334646
O O9 0.750000 0.000000 0.360138
O O10 0.590479 0.681228 0.368836
O O11 0.973545 0.587748 0.708707
O O12 0.161201 0.468020 0.219185
#
# Coordination Sequence:
#
# PCOD9410153 Si02
#       6
#     8   8   8   8   4   4
#     4  10  20  38  68  98 136 182 221 271 343 411
#     4  10  23  39  66 104 146 174 213 270 342 435
#     4  11  24  46  69  94 133 181 235 295 337 383
#     4  11  26  42  69 102 132 180 234 282 339 407
#     4  10  26  40  70 102 136 188 228 284 338 428
#     4  10  22  42  64  98 144 186 206 270 350 414
#
# _framework density 23.636296999999999
#
# number of rings (size 3 to 8) (size 9 to 14) (size 15 to 20)
#    0.000    1.600    1.000    3.000   11.200    2.400 
#    0.000    2.000    0.000    1.200    0.000    0.000 
#    0.000    0.000    0.000    0.000    0.000    0.000 
#
# Total GULP energy -222813.920928 kJ/mol
# GULP energy per Si atom -5570.348023 kJ/mol
# Density = 2.358250 g / cm^3
# Si number density = 23.636297 Si / 1000 Ang^3
#
#
#
# Elastic Constant Matrix: (Units=GPa)
#
#
# Indices 1 2 3 4 5 6 
#
# 1 90.9155 8.4929 11.4130 0.0000 0.0000 0.0000
# 2 8.4929 75.7211 -13.1369 0.0000 0.0000 0.0000
# 3 11.4130 -13.1369 88.0463 0.0000 0.0000 0.0000
# 4 0.0000 0.0000 0.0000 13.6019 0.0000 0.0000
# 5 0.0000 0.0000 0.0000 0.0000 19.1990 0.0000
# 6 0.0000 0.0000 0.0000 0.0000 0.0000 37.0607
#
#
#
# Elastic Compliance Matrix: (Units=1/GPa)
#
#
# Indices 1 2 3 4 5 6 
#
# 1 0.011360 -0.001570 -0.001707 0.000000 0.000000 0.000000
# 2 -0.001570 0.013774 0.002259 0.000000 0.000000 0.000000
# 3 -0.001707 0.002259 0.011916 0.000000 0.000000 0.000000
# 4 0.000000 0.000000 0.000000 0.073519 0.000000 0.000000
# 5 0.000000 0.000000 0.000000 0.000000 0.052086 0.000000
# 6 0.000000 0.000000 0.000000 0.000000 0.000000 0.026983
#
#
# Mechanical properties :
#
#
# Convention : Reuss Voigt Hill
#
# Bulk Modulus (GPa) = 28.56027 29.80231 29.18129
# Shear Modulus (GPa) = 24.58861 30.49992 27.54427
#
# Velocity S-wave (km/s) = 3.22885 3.59609 3.41741
# Velocity P-wave (km/s) = 5.10001 5.46613 5.28624
#
# Compressibility (1/GPa) = 0.03501368
#
# Stress axis : x y z
#
# Youngs Moduli (GPa) = 88.02677 72.59866 83.92132
#
# Poissons Ratio (x) = 0.11400 0.14324
# Poissons Ratio (y) = 0.13823 -0.18956
# Poissons Ratio (z) = 0.15025 -0.16398
#
# Static dielectric constant tensor:
#      x y z
#    x 1.915850 0.000000 0.000000 
#    y 0.000000 2.016530 0.000000 
#    z 0.000000 0.000000 2.066040 
# 
# From -- ./inp_files/42575.got.cif
#   From: 2010.05.17/outbox.cif.g08.bks.cpg/sg52_22_cif.got.tgz:42575.got - 2010.06.03 12:15:38.
