data_PCOD9410069
_publ_section_title
;
Structure prediction by ZEFSAII (Michael W. Deem and Ramdas Pophale) SiO2 
 PCOD9410069
Probable space group: P N N A
;
_chemical_formula_sum "Si O2"
_cell_formula_units_Z 60
_cell_length_a 11.669465
_cell_length_b 18.216765
_cell_length_c 12.348635
_cell_angle_alpha 90.000000
_cell_angle_beta 90.000000
_cell_angle_gamma 90.000000
_cell_volume 2625.071613
_symmetry_space_group_name_H-M "P N N A"
_symmetry_group_IT_number 52
_symmetry_cell_setting 'orthorhombic'
loop_
_space_group_symop_operation_xyz
x,y,z
1/2-x,-y,z
x,1/2-y,1/2-z
1/2-x,1/2+y,1/2-z
-x,-y,-z
1/2+x,y,-z
-x,1/2+y,1/2+z
1/2+x,1/2-y,1/2+z
loop_
_atom_site_type_symbol
_atom_site_label
_atom_site_fract_x
_atom_site_fract_y
_atom_site_fract_z
Si Si1 0.855065 0.750000 0.750000
Si Si2 0.417265 0.641669 0.896822
Si Si3 0.057098 0.987315 0.129168
Si Si4 0.980535 0.728766 0.519155
Si Si5 0.713396 0.123796 0.597210
Si Si6 0.141952 0.131782 0.846131
Si Si7 0.413783 0.017318 0.367385
Si Si8 0.119098 0.903013 0.930658
O O1 0.932726 0.735062 0.642264
O O2 0.783205 0.818936 0.697904
O O3 0.386210 0.660909 0.773720
O O4 0.465849 0.557862 0.889766
O O5 0.507559 0.696216 0.954695
O O6 0.312438 0.655522 0.978681
O O7 0.116939 0.975871 0.241243
O O8 0.946278 0.934371 0.132754
O O9 0.132533 0.959316 0.030305
O O10 0.999670 0.067166 0.121353
O O11 0.887955 0.688297 0.441668
O O12 0.090923 0.676882 0.523250
O O13 0.819091 0.069533 0.581502
O O14 0.603829 0.068541 0.612046
O O15 0.271026 0.102420 0.855663
#
# Coordination Sequence:
#
# PCOD9410069 Si02
#       8
#     4   8   8   8   8   8   8   8
#     4  10  22  40  60  92 128 156 212 272 308 384
#     4  10  22  43  60  89 130 163 214 268 315 384
#     4   9  20  38  60  95 125 158 211 262 320 391
#     4  10  22  39  59  89 126 161 210 264 319 378
#     4  10  22  41  63  95 120 169 216 259 323 384
#     4  10  21  39  63  89 125 167 206 265 321 390
#     4  10  21  41  65  91 124 172 209 264 321 381
#     4  10  20  38  62  92 122 167 206 260 331 382
#
# _framework density 22.856518999999999
#
# number of rings (size 3 to 8) (size 9 to 14) (size 15 to 20)
#    0.000    2.133    0.000    2.000    1.867    2.133 
#   28.800    0.000    0.000    0.000    0.000    0.000 
#    0.000    0.000    0.000    0.000    0.000    0.000 
#
# Total GULP energy -334300.812845 kJ/mol
# GULP energy per Si atom -5571.680214 kJ/mol
# Density = 2.280450 g / cm^3
# Si number density = 22.856519 Si / 1000 Ang^3
#
#
#
# Elastic Constant Matrix: (Units=GPa)
#
#
# Indices 1 2 3 4 5 6 
#
# 1 38.0736 6.4330 13.8650 0.0000 0.0000 0.0000
# 2 6.4330 91.3381 24.7400 0.0000 0.0000 0.0000
# 3 13.8650 24.7400 153.0210 0.0000 0.0000 0.0000
# 4 0.0000 0.0000 0.0000 25.2677 0.0000 0.0000
# 5 0.0000 0.0000 0.0000 0.0000 13.1150 0.0000
# 6 0.0000 0.0000 0.0000 0.0000 0.0000 22.1968
#
#
#
# Elastic Compliance Matrix: (Units=1/GPa)
#
#
# Indices 1 2 3 4 5 6 
#
# 1 0.027310 -0.001311 -0.002263 0.000000 0.000000 0.000000
# 2 -0.001311 0.011513 -0.001743 0.000000 0.000000 0.000000
# 3 -0.002263 -0.001743 0.007022 0.000000 0.000000 0.000000
# 4 0.000000 0.000000 0.000000 0.039576 0.000000 0.000000
# 5 0.000000 0.000000 0.000000 0.000000 0.076249 0.000000
# 6 0.000000 0.000000 0.000000 0.000000 0.000000 0.045052
#
#
# Mechanical properties :
#
#
# Convention : Reuss Voigt Hill
#
# Bulk Modulus (GPa) = 28.39854 41.38985 34.89420
# Shear Modulus (GPa) = 21.82541 27.94221 24.88381
#
# Velocity S-wave (km/s) = 3.09348 3.50023 3.30312
# Velocity P-wave (km/s) = 5.02107 5.87225 5.46326
#
# Compressibility (1/GPa) = 0.03521308
#
# Stress axis : x y z
#
# Youngs Moduli (GPa) = 36.61621 86.86110 142.41363
#
# Poissons Ratio (x) = 0.11384 0.32223
# Poissons Ratio (y) = 0.04799 0.24817
# Poissons Ratio (z) = 0.08285 0.15136
#
# Static dielectric constant tensor:
#      x y z
#    x 1.889890 0.000000 0.000000 
#    y 0.000000 2.086090 0.000000 
#    z 0.000000 0.000000 1.875400 
# 
# From -- ./inp_files/18390.got.cif
#   From: 2010.05.17/outbox.cif.g08.bks.cpg/sg52_10_cif.got.tgz:18390.got - 2010.06.03 12:15:38.
