data_PCOD9410079
_publ_section_title
;
Structure prediction by ZEFSAII (Michael W. Deem and Ramdas Pophale) SiO2 
 PCOD9410079
Probable space group: P N N A
;
_chemical_formula_sum "Si O2"
_cell_formula_units_Z 52
_cell_length_a 20.140789
_cell_length_b 14.217465
_cell_length_c 8.039104
_cell_angle_alpha 90.000000
_cell_angle_beta 90.000000
_cell_angle_gamma 90.000000
_cell_volume 2302.005169
_symmetry_space_group_name_H-M "P N N A"
_symmetry_group_IT_number 52
_symmetry_cell_setting 'orthorhombic'
loop_
_space_group_symop_operation_xyz
x,y,z
1/2-x,-y,z
x,1/2-y,1/2-z
1/2-x,1/2+y,1/2-z
-x,-y,-z
1/2+x,y,-z
-x,1/2+y,1/2+z
1/2+x,1/2-y,1/2+z
loop_
_atom_site_type_symbol
_atom_site_label
_atom_site_fract_x
_atom_site_fract_y
_atom_site_fract_z
Si Si1 0.411951 0.784311 0.058097
Si Si2 0.750000 0.000000 0.209003
Si Si3 0.140929 0.881831 0.962150
Si Si4 0.455867 0.453074 0.826343
Si Si5 0.643531 0.399723 0.059662
Si Si6 0.056994 0.774926 0.444343
Si Si7 0.392031 0.967472 0.211814
O O1 0.408213 0.750000 0.250000
O O2 0.386107 0.890498 0.063784
O O3 0.368809 0.711400 0.951780
O O4 0.488933 0.774405 0.008951
O O5 0.790054 0.076117 0.100121
O O6 0.700508 0.059395 0.325480
O O7 0.087328 0.915695 0.826423
O O8 0.124036 0.772620 0.983151
O O9 0.125072 0.932625 0.136450
O O10 0.424511 0.552685 0.874942
O O11 0.531477 0.460063 0.768953
O O12 0.446487 0.379559 0.978691
O O13 0.651067 0.437854 0.870694
O O14 0.056757 0.750000 0.250000
#
# Coordination Sequence:
#
# PCOD9410079 Si02
#       7
#     8   4   8   8   8   8   8
#     4  10  20  38  63 100 140 165 213 284 355 409
#     4  10  26  48  64  92 134 196 240 264 328 418
#     4  11  24  42  68  94 136 184 225 279 337 413
#     4  11  21  40  63 102 137 168 214 286 357 405
#     4  10  22  40  68  92 137 180 223 278 337 407
#     4  12  23  36  65 106 138 170 220 280 357 419
#     4  11  21  39  68 103 132 169 222 287 353 404
#
# _framework density 22.589003999999999
#
# number of rings (size 3 to 8) (size 9 to 14) (size 15 to 20)
#    0.000    1.231    4.615    2.308    2.154    1.846 
#    0.000    6.154    0.000   10.154    0.000    0.000 
#    0.000    0.000    0.000    0.000    0.000    0.000 
#
# Total GULP energy -290803.987301 kJ/mol
# GULP energy per Si atom -5592.384371 kJ/mol
# Density = 2.253759 g / cm^3
# Si number density = 22.589004 Si / 1000 Ang^3
#
#
#
# Elastic Constant Matrix: (Units=GPa)
#
#
# Indices 1 2 3 4 5 6 
#
# 1 97.5029 34.3959 29.4736 0.0000 0.0000 0.0000
# 2 34.3959 88.8824 11.2523 0.0000 0.0000 0.0000
# 3 29.4736 11.2523 82.5782 0.0000 0.0000 0.0000
# 4 0.0000 0.0000 0.0000 25.0609 0.0000 0.0000
# 5 0.0000 0.0000 0.0000 0.0000 2.0435 0.0000
# 6 0.0000 0.0000 0.0000 0.0000 0.0000 23.6612
#
#
#
# Elastic Compliance Matrix: (Units=1/GPa)
#
#
# Indices 1 2 3 4 5 6 
#
# 1 0.013086 -0.004551 -0.004050 0.000000 0.000000 0.000000
# 2 -0.004551 0.013031 -0.000151 0.000000 0.000000 0.000000
# 3 -0.004050 -0.000151 0.013576 0.000000 0.000000 0.000000
# 4 0.000000 0.000000 0.000000 0.039903 0.000000 0.000000
# 5 0.000000 0.000000 0.000000 0.000000 0.489345 0.000000
# 6 0.000000 0.000000 0.000000 0.000000 0.000000 0.042263
#
#
# Mechanical properties :
#
#
# Convention : Reuss Voigt Hill
#
# Bulk Modulus (GPa) = 45.07078 46.57857 45.82468
# Shear Modulus (GPa) = 7.86032 23.07589 15.46811
#
# Velocity S-wave (km/s) = 1.86742 3.19964 2.61964
# Velocity P-wave (km/s) = 4.96443 5.85791 5.42958
#
# Compressibility (1/GPa) = 0.02218732
#
# Stress axis : x y z
#
# Youngs Moduli (GPa) = 76.41730 76.73866 73.65932
#
# Poissons Ratio (x) = 0.34926 0.29835
# Poissons Ratio (y) = 0.34780 0.01114
# Poissons Ratio (z) = 0.30953 0.01161
#
# Static dielectric constant tensor:
#      x y z
#    x 1.793580 0.000000 0.000000 
#    y 0.000000 1.891040 0.000000 
#    z 0.000000 0.000000 1.867450 
# 
# From -- ./inp_files/13376.got.cif
#   From: 2010.05.17/outbox.cif.g08.bks.cpg/sg52_7_cif.got.tgz:13376.got - 2010.06.03 12:15:38.
