data_PCOD9410939
_publ_section_title
;
Structure prediction by ZEFSAII (Michael W. Deem and Ramdas Pophale) SiO2 
 PCOD9410939
Probable space group: P N N A
;
_chemical_formula_sum "Si O2"
_cell_formula_units_Z 64
_cell_length_a 18.343214
_cell_length_b 9.264593
_cell_length_c 17.715647
_cell_angle_alpha 90.000000
_cell_angle_beta 90.000000
_cell_angle_gamma 90.000000
_cell_volume 3010.639782
_symmetry_space_group_name_H-M "P N N A"
_symmetry_group_IT_number 52
_symmetry_cell_setting 'orthorhombic'
loop_
_space_group_symop_operation_xyz
x,y,z
1/2-x,-y,z
x,1/2-y,1/2-z
1/2-x,1/2+y,1/2-z
-x,-y,-z
1/2+x,y,-z
-x,1/2+y,1/2+z
1/2+x,1/2-y,1/2+z
loop_
_atom_site_type_symbol
_atom_site_label
_atom_site_fract_x
_atom_site_fract_y
_atom_site_fract_z
Si Si1 0.468156 0.918635 0.223347
Si Si2 0.807675 0.602012 0.237362
Si Si3 0.327222 0.074181 0.255924
Si Si4 0.562549 0.224588 0.490128
Si Si5 0.061728 0.029143 0.645799
Si Si6 0.664348 0.504380 0.933205
Si Si7 0.604311 0.491577 0.383000
Si Si8 0.595926 0.725140 0.049584
O O1 0.462889 0.750000 0.250000
O O2 0.498324 0.002187 0.296485
O O3 0.390720 0.994502 0.207766
O O4 0.529762 0.955580 0.160394
O O5 0.750000 0.500000 0.199239
O O6 0.767413 0.750000 0.250000
O O7 0.877097 0.626023 0.184736
O O8 0.839472 0.542714 0.315711
O O9 0.326826 0.250000 0.250000
O O10 0.340631 0.032703 0.343931
O O11 0.250000 0.000000 0.235412
O O12 0.589216 0.359495 0.440077
O O13 0.489266 0.259231 0.534713
O O14 0.537408 0.103486 0.430136
O O15 0.622783 0.142858 0.541186
O O16 0.097608 0.877958 0.622700
O O17 0.750000 0.500000 0.952651
O O18 0.629335 0.634986 0.980978
O O19 0.633353 0.625073 0.431747
#
# Coordination Sequence:
#
# PCOD9410939 Si02
#       8
#     8   8   8   8   8   8   8   8
#     4  11  22  38  66  94 133 171 212 275 322 372
#     4  11  25  41  63  91 129 174 215 269 316 380
#     4  11  25  46  70  99 125 167 219 270 334 398
#     4  11  22  42  65  93 129 171 216 267 316 390
#     4  10  21  39  61  90 127 167 218 257 314 384
#     4  10  24  44  68  92 129 172 217 258 326 400
#     4  11  25  40  62 101 133 164 224 266 321 378
#     4  11  22  40  65  93 128 169 212 264 322 383
#
# _framework density 21.257940000000001
#
# number of rings (size 3 to 8) (size 9 to 14) (size 15 to 20)
#    0.000    1.250    2.500    3.750    5.250    3.000 
#    0.000    0.000    0.000    0.000    0.000    0.000 
#    0.000    0.000    0.000    0.000    0.000    0.000 
#
# Total GULP energy -357329.435738 kJ/mol
# GULP energy per Si atom -5583.272433 kJ/mol
# Density = 2.120956 g / cm^3
# Si number density = 21.257940 Si / 1000 Ang^3
#
#
#
# Elastic Constant Matrix: (Units=GPa)
#
#
# Indices 1 2 3 4 5 6 
#
# 1 75.1631 4.9272 5.6692 0.0000 0.0000 0.0000
# 2 4.9272 92.7271 8.3173 0.0000 0.0000 0.0000
# 3 5.6692 8.3173 50.2342 0.0000 0.0000 0.0000
# 4 0.0000 0.0000 0.0000 33.2813 0.0000 0.0000
# 5 0.0000 0.0000 0.0000 0.0000 -5.1936 0.0000
# 6 0.0000 0.0000 0.0000 0.0000 0.0000 22.3921
#
#
#
# Elastic Compliance Matrix: (Units=1/GPa)
#
#
# Indices 1 2 3 4 5 6 
#
# 1 0.013450 -0.000587 -0.001421 0.000000 0.000000 0.000000
# 2 -0.000587 0.010973 -0.001750 0.000000 0.000000 0.000000
# 3 -0.001421 -0.001750 0.020357 0.000000 0.000000 0.000000
# 4 0.000000 0.000000 0.000000 0.030047 0.000000 0.000000
# 5 0.000000 0.000000 0.000000 0.000000 -0.192546 0.000000
# 6 0.000000 0.000000 0.000000 0.000000 0.000000 0.044659
#
#
# Mechanical properties :
#
#
# Convention : Reuss Voigt Hill
#
# Bulk Modulus (GPa) = 26.83649 28.43911 27.63780
# Shear Modulus (GPa) = -94.12095 23.37668 -35.37214
#
# Velocity S-wave (km/s) = -6.66122 3.31972 -4.08358
# Velocity P-wave (km/s) = 6.81988 5.30106 3.03394
#
# Compressibility (1/GPa) = 0.03726270
#
# Stress axis : x y z
#
# Youngs Moduli (GPa) = 74.34919 91.13651 49.12335
#
# Poissons Ratio (x) = 0.05352 0.06979
# Poissons Ratio (y) = 0.04366 0.08599
# Poissons Ratio (z) = 0.10563 0.15953
#
# Static dielectric constant tensor:
#      x y z
#    x 1.759120 0.000000 0.000000 
#    y 0.000000 1.751860 0.000000 
#    z 0.000000 0.000000 1.762970 
# 
# From -- ./inp_files/37678.got.cif
#   From: 2010.05.17/outbox.cif.g08.bks.cpg/sg52_19_cif.got.tgz:37678.got - 2010.06.03 12:15:38.
