data_PCOD9410499
_publ_section_title
;
Structure prediction by ZEFSAII (Michael W. Deem and Ramdas Pophale) SiO2 
 PCOD9410499
Probable space group: P N N A
;
_chemical_formula_sum "Si O2"
_cell_formula_units_Z 36
_cell_length_a 22.641223
_cell_length_b 7.348494
_cell_length_c 9.904502
_cell_angle_alpha 90.000000
_cell_angle_beta 90.000000
_cell_angle_gamma 90.000000
_cell_volume 1647.900062
_symmetry_space_group_name_H-M "P N N A"
_symmetry_group_IT_number 52
_symmetry_cell_setting 'orthorhombic'
loop_
_space_group_symop_operation_xyz
x,y,z
1/2-x,-y,z
x,1/2-y,1/2-z
1/2-x,1/2+y,1/2-z
-x,-y,-z
1/2+x,y,-z
-x,1/2+y,1/2+z
1/2+x,1/2-y,1/2+z
loop_
_atom_site_type_symbol
_atom_site_label
_atom_site_fract_x
_atom_site_fract_y
_atom_site_fract_z
Si Si1 0.455448 0.250000 0.750000
Si Si2 0.149045 0.210826 0.100631
Si Si3 0.252857 0.283216 0.589991
Si Si4 0.955749 0.511175 0.875674
Si Si5 0.622061 0.704981 0.520557
O O1 0.499551 0.424325 0.759193
O O2 0.414295 0.284929 0.620324
O O3 0.175173 0.250000 0.250000
O O4 0.089623 0.173844 0.402185
O O5 0.132215 0.999318 0.076013
O O6 0.194174 0.279550 0.986541
O O7 0.250000 0.500000 0.572884
O O8 0.253629 0.250000 0.750000
O O9 0.312714 0.220605 0.516832
O O10 0.915332 0.332712 0.879912
O O11 0.000000 0.500000 0.000000
#
# Coordination Sequence:
#
# PCOD9410499 Si02
#       5
#     4   8   8   8   8
#     4  10  20  44  72 102 138 174 246 284 344 422
#     4  11  25  47  64 103 146 178 234 290 350 429
#     4  10  23  43  73 103 132 183 236 294 352 413
#     4  10  23  42  67 101 132 186 225 281 352 415
#     4  10  23  45  70  98 140 184 234 290 351 418
#
# _framework density 21.845986
#
# number of rings (size 3 to 8) (size 9 to 14) (size 15 to 20)
#    0.000    1.778    2.222    0.000    3.111    6.222 
#   16.000    0.000    0.000    0.000    0.000    0.000 
#    0.000    0.000    0.000    0.000    0.000    0.000 
#
# Total GULP energy -200938.162760 kJ/mol
# GULP energy per Si atom -5581.615632 kJ/mol
# Density = 2.179626 g / cm^3
# Si number density = 21.845986 Si / 1000 Ang^3
#
#
#
# Elastic Constant Matrix: (Units=GPa)
#
#
# Indices 1 2 3 4 5 6 
#
# 1 112.4644 29.3098 22.8826 0.0000 0.0000 0.0000
# 2 29.3098 115.0028 30.0754 0.0000 0.0000 0.0000
# 3 22.8826 30.0754 80.8266 0.0000 0.0000 0.0000
# 4 0.0000 0.0000 0.0000 32.3029 0.0000 0.0000
# 5 0.0000 0.0000 0.0000 0.0000 -312.9245 0.0000
# 6 0.0000 0.0000 0.0000 0.0000 0.0000 -16.4037
#
#
#
# Elastic Compliance Matrix: (Units=1/GPa)
#
#
# Indices 1 2 3 4 5 6 
#
# 1 0.009821 -0.001967 -0.002048 0.000000 0.000000 0.000000
# 2 -0.001967 0.010027 -0.003174 0.000000 0.000000 0.000000
# 3 -0.002048 -0.003174 0.014133 0.000000 0.000000 0.000000
# 4 0.000000 0.000000 0.000000 0.030957 0.000000 0.000000
# 5 0.000000 0.000000 0.000000 0.000000 -0.003196 0.000000
# 6 0.000000 0.000000 0.000000 0.000000 0.000000 -0.060962
#
#
# Mechanical properties :
#
#
# Convention : Reuss Voigt Hill
#
# Bulk Modulus (GPa) = 51.01601 52.53659 51.77630
# Shear Modulus (GPa) = 230.47679 -44.33666 93.07006
#
# Velocity S-wave (km/s) = 10.28250 -4.50990 6.53416
# Velocity P-wave (km/s) = 12.82093 1.73726 8.98216
#
# Compressibility (1/GPa) = 0.01960169
#
# Stress axis : x y z
#
# Youngs Moduli (GPa) = 101.82054 99.73168 70.75574
#
# Poissons Ratio (x) = 0.19621 0.14494
# Poissons Ratio (y) = 0.20032 0.22458
# Poissons Ratio (z) = 0.20857 0.31655
#
# Static dielectric constant tensor:
#      x y z
#    x 1.770490 0.000000 0.000000 
#    y 0.000000 1.709670 0.000000 
#    z 0.000000 0.000000 1.801220 
# 
# From -- ./inp_files/12947.got.cif
#   From: 2010.05.17/outbox.cif.g08.bks.cpg/sg52_7_cif.got.tgz:12947.got - 2010.06.03 12:15:38.
