data_PCOD9410451
_publ_section_title
;
Structure prediction by ZEFSAII (Michael W. Deem and Ramdas Pophale) SiO2 
 PCOD9410451
Probable space group: P N N A
;
_chemical_formula_sum "Si O2"
_cell_formula_units_Z 48
_cell_length_a 22.475114
_cell_length_b 5.357768
_cell_length_c 19.487869
_cell_angle_alpha 90.000000
_cell_angle_beta 90.000000
_cell_angle_gamma 90.000000
_cell_volume 2346.659937
_symmetry_space_group_name_H-M "P N N A"
_symmetry_group_IT_number 52
_symmetry_cell_setting 'orthorhombic'
loop_
_space_group_symop_operation_xyz
x,y,z
1/2-x,-y,z
x,1/2-y,1/2-z
1/2-x,1/2+y,1/2-z
-x,-y,-z
1/2+x,y,-z
-x,1/2+y,1/2+z
1/2+x,1/2-y,1/2+z
loop_
_atom_site_type_symbol
_atom_site_label
_atom_site_fract_x
_atom_site_fract_y
_atom_site_fract_z
Si Si1 0.314229 0.346587 0.172991
Si Si2 0.250000 0.000000 0.078746
Si Si3 0.788977 0.250000 0.250000
Si Si4 0.532205 0.793587 0.044699
Si Si5 0.156863 0.692270 0.604459
Si Si6 0.085707 0.430578 0.072148
Si Si7 0.182722 0.292199 0.974270
O O1 0.250000 0.500000 0.174947
O O2 0.327526 0.250000 0.250000
O O3 0.301410 0.101631 0.127400
O O4 0.368881 0.483807 0.132684
O O5 0.232973 0.229152 0.029955
O O6 0.750000 0.500000 0.248943
O O7 0.827669 0.254400 0.318095
O O8 0.587059 0.851476 0.093246
O O9 0.478394 0.681316 0.090784
O O10 0.563575 0.633371 0.983964
O O11 0.500000 0.000000 0.000000
O O12 0.185355 0.431606 0.579878
O O13 0.178537 0.937548 0.561306
O O14 0.124367 0.254794 0.021883
#
# Coordination Sequence:
#
# PCOD9410451 Si02
#       7
#     8   4   4   8   8   8   8
#     4  12  25  44  63  96 145 191 225 277 353 434
#     4  12  24  38  66  98 136 176 234 286 344 408
#     4  12  28  50  68  98 148 188 230 278 356 444
#     4  10  20  42  69 100 133 171 235 303 347 404
#     4  11  25  44  69 102 137 184 225 289 356 413
#     4  10  22  40  66 100 133 177 233 295 347 406
#     4  11  23  39  70 105 130 170 235 290 344 403
#
# _framework density 20.454602999999999
#
# number of rings (size 3 to 8) (size 9 to 14) (size 15 to 20)
#    0.000    1.000    4.167    3.000    3.500    0.000 
#    0.000    1.667    0.000    0.000    0.000    0.000 
#    0.000    0.000    0.000    0.000    0.000    0.000 
#
# Total GULP energy -267556.905379 kJ/mol
# GULP energy per Si atom -5574.102195 kJ/mol
# Density = 2.040805 g / cm^3
# Si number density = 20.454603 Si / 1000 Ang^3
#
#
#
# Elastic Constant Matrix: (Units=GPa)
#
#
# Indices 1 2 3 4 5 6 
#
# 1 141.7232 36.8795 79.5427 0.0000 0.0000 0.0000
# 2 36.8795 95.7865 41.5313 0.0000 0.0000 0.0000
# 3 79.5427 41.5313 149.3387 0.0000 0.0000 0.0000
# 4 0.0000 0.0000 0.0000 29.6508 0.0000 0.0000
# 5 0.0000 0.0000 0.0000 0.0000 35.4043 0.0000
# 6 0.0000 0.0000 0.0000 0.0000 0.0000 27.7436
#
#
#
# Elastic Compliance Matrix: (Units=1/GPa)
#
#
# Indices 1 2 3 4 5 6 
#
# 1 0.010334 -0.001811 -0.005001 0.000000 0.000000 0.000000
# 2 -0.001811 0.012189 -0.002425 0.000000 0.000000 0.000000
# 3 -0.005001 -0.002425 0.010034 0.000000 0.000000 0.000000
# 4 0.000000 0.000000 0.000000 0.033726 0.000000 0.000000
# 5 0.000000 0.000000 0.000000 0.000000 0.028245 0.000000
# 6 0.000000 0.000000 0.000000 0.000000 0.000000 0.036044
#
#
# Mechanical properties :
#
#
# Convention : Reuss Voigt Hill
#
# Bulk Modulus (GPa) = 71.00454 78.08394 74.54424
# Shear Modulus (GPa) = 32.52261 33.81940 33.17100
#
# Velocity S-wave (km/s) = 3.99179 4.07060 4.03139
# Velocity P-wave (km/s) = 7.48562 7.76854 7.62839
#
# Compressibility (1/GPa) = 0.01408361
#
# Stress axis : x y z
#
# Youngs Moduli (GPa) = 96.77038 82.04430 99.65971
#
# Poissons Ratio (x) = 0.14854 0.49836
# Poissons Ratio (y) = 0.17520 0.24171
# Poissons Ratio (z) = 0.48391 0.19898
#
# Static dielectric constant tensor:
#      x y z
#    x 1.848300 0.000000 0.000000 
#    y 0.000000 1.832490 0.000000 
#    z 0.000000 0.000000 1.908410 
# 
# From -- ./inp_files/34290.got.cif
#   From: 2010.05.17/outbox.cif.g08.bks.cpg/sg52_18_cif.got.tgz:34290.got - 2010.06.03 12:15:38.
