data_PCOD9410029
_publ_section_title
;
Structure prediction by ZEFSAII (Michael W. Deem and Ramdas Pophale) SiO2 
 PCOD9410029
Probable space group: P N N A
;
_chemical_formula_sum "Si O2"
_cell_formula_units_Z 56
_cell_length_a 13.496280
_cell_length_b 8.122084
_cell_length_c 24.149248
_cell_angle_alpha 90.000000
_cell_angle_beta 90.000000
_cell_angle_gamma 90.000000
_cell_volume 2647.190332
_symmetry_space_group_name_H-M "P N N A"
_symmetry_group_IT_number 52
_symmetry_cell_setting 'orthorhombic'
loop_
_space_group_symop_operation_xyz
x,y,z
1/2-x,-y,z
x,1/2-y,1/2-z
1/2-x,1/2+y,1/2-z
-x,-y,-z
1/2+x,y,-z
-x,1/2+y,1/2+z
1/2+x,1/2-y,1/2+z
loop_
_atom_site_type_symbol
_atom_site_label
_atom_site_fract_x
_atom_site_fract_y
_atom_site_fract_z
Si Si1 0.984818 0.467831 0.082507
Si Si2 0.702549 0.162959 0.398305
Si Si3 0.876543 0.253571 0.592894
Si Si4 0.269392 0.804850 0.310938
Si Si5 0.378703 0.178504 0.969044
Si Si6 0.073756 0.064359 0.877372
Si Si7 0.004073 0.747466 0.813878
O O1 0.894939 0.593589 0.070304
O O2 0.968308 0.307654 0.044387
O O3 0.087913 0.565393 0.079952
O O4 0.970668 0.404899 0.145790
O O5 0.784431 0.238759 0.438873
O O6 0.660970 0.310691 0.361129
O O7 0.750000 0.000000 0.371458
O O8 0.788980 0.265323 0.636566
O O9 0.859322 0.335696 0.533675
O O10 0.971694 0.337058 0.620870
O O11 0.232870 0.750000 0.250000
O O12 0.383994 0.751438 0.315409
O O13 0.250000 0.000000 0.313092
O O14 0.401613 0.008135 0.938326
O O15 0.055895 0.904944 0.840793
O O16 0.032907 0.750000 0.750000
#
# Coordination Sequence:
#
# PCOD9410029 Si02
#       7
#     8   8   8   8   8   8   8
#     4   9  19  38  60  89 122 162 209 264 304 380
#     4   9  19  38  63  87 121 165 200 259 326 369
#     4  11  22  37  60  92 123 169 213 250 317 383
#     4  11  25  42  63  91 130 164 212 266 318 379
#     4  10  20  38  60  90 127 167 204 258 319 377
#     4  10  22  39  60  92 127 162 209 266 309 381
#     4  10  22  42  65  89 125 168 211 258 322 379
#
# _framework density 21.154505
#
# number of rings (size 3 to 8) (size 9 to 14) (size 15 to 20)
#    0.000    2.000    1.429    1.286    4.000    1.714 
#   15.429    2.143    0.000   25.714    0.000    1.000 
#    0.000    0.000    0.000    0.000    0.000    0.000 
#
# Total GULP energy -312536.326168 kJ/mol
# GULP energy per Si atom -5581.005824 kJ/mol
# Density = 2.110636 g / cm^3
# Si number density = 21.154505 Si / 1000 Ang^3
#
#
#
# Elastic Constant Matrix: (Units=GPa)
#
#
# Indices 1 2 3 4 5 6 
#
# 1 64.3183 13.1519 26.2487 0.0000 0.0000 0.0000
# 2 13.1519 64.9350 6.4291 0.0000 0.0000 0.0000
# 3 26.2487 6.4291 116.9919 0.0000 0.0000 0.0000
# 4 0.0000 0.0000 0.0000 11.5637 0.0000 0.0000
# 5 0.0000 0.0000 0.0000 0.0000 -7.3221 0.0000
# 6 0.0000 0.0000 0.0000 0.0000 0.0000 27.8044
#
#
#
# Elastic Compliance Matrix: (Units=1/GPa)
#
#
# Indices 1 2 3 4 5 6 
#
# 1 0.017760 -0.003220 -0.003808 0.000000 0.000000 0.000000
# 2 -0.003220 0.016068 -0.000161 0.000000 0.000000 0.000000
# 3 -0.003808 -0.000161 0.009411 0.000000 0.000000 0.000000
# 4 0.000000 0.000000 0.000000 0.086478 0.000000 0.000000
# 5 0.000000 0.000000 0.000000 0.000000 -0.136573 0.000000
# 6 0.000000 0.000000 0.000000 0.000000 0.000000 0.035966
#
#
# Mechanical properties :
#
#
# Convention : Reuss Voigt Hill
#
# Bulk Modulus (GPa) = 34.64746 37.54496 36.09621
# Shear Modulus (GPa) = 94.15019 19.77023 56.96021
#
# Velocity S-wave (km/s) = 6.67852 3.06038 5.19464
# Velocity P-wave (km/s) = 8.71114 5.50222 7.28555
#
# Compressibility (1/GPa) = 0.02886215
#
# Stress axis : x y z
#
# Youngs Moduli (GPa) = 56.30602 62.23507 106.26158
#
# Poissons Ratio (x) = 0.20040 0.40462
# Poissons Ratio (y) = 0.18131 0.01706
# Poissons Ratio (z) = 0.21440 0.00999
#
# Static dielectric constant tensor:
#      x y z
#    x 1.781200 0.000000 0.000000 
#    y 0.000000 1.833640 0.000000 
#    z 0.000000 0.000000 1.749860 
# 
# From -- ./inp_files/37323.got.cif
#   From: 2010.05.17/outbox.cif.g08.bks.cpg/sg52_19_cif.got.tgz:37323.got - 2010.06.03 12:15:38.
