data_PCOD9410813
_publ_section_title
;
Structure prediction by ZEFSAII (Michael W. Deem and Ramdas Pophale) SiO2 
 PCOD9410813
Probable space group: P N N A
;
_chemical_formula_sum "Si O2"
_cell_formula_units_Z 32
_cell_length_a 34.646779
_cell_length_b 7.739394
_cell_length_c 5.003772
_cell_angle_alpha 90.000000
_cell_angle_beta 90.000000
_cell_angle_gamma 90.000000
_cell_volume 1341.736811
_symmetry_space_group_name_H-M "P N N A"
_symmetry_group_IT_number 52
_symmetry_cell_setting 'orthorhombic'
loop_
_space_group_symop_operation_xyz
x,y,z
1/2-x,-y,z
x,1/2-y,1/2-z
1/2-x,1/2+y,1/2-z
-x,-y,-z
1/2+x,y,-z
-x,1/2+y,1/2+z
1/2+x,1/2-y,1/2+z
loop_
_atom_site_type_symbol
_atom_site_label
_atom_site_fract_x
_atom_site_fract_y
_atom_site_fract_z
Si Si1 0.535582 0.456363 0.195203
Si Si2 0.576116 0.044085 0.796214
Si Si3 0.838492 0.439557 0.624536
Si Si4 0.793720 0.560195 0.125841
O O1 0.535411 0.250000 0.250000
O O2 0.544335 0.526438 0.492309
O O3 0.500000 0.500000 0.000000
O O4 0.570436 0.522008 0.004549
O O5 0.570996 0.250000 0.750000
O O6 0.618222 0.009047 0.908425
O O7 0.840246 0.250000 0.750000
O O8 0.815372 0.446269 0.349012
O O9 0.816306 0.550908 0.848101
O O10 0.750000 0.500000 0.084049
O O11 0.793805 0.750000 0.250000
#
# Coordination Sequence:
#
# PCOD9410813 Si02
#       4
#     8   8   8   8
#     4  10  21  38  61  89 122 161 209 263 319 380
#     4  10  21  39  62  89 123 166 211 261 321 384
#     4  12  25  43  66  98 132 170 220 274 326 386
#     4  12  25  44  68  96 132 175 218 268 326 390
#
# _framework density 23.849682999999999
#
# number of rings (size 3 to 8) (size 9 to 14) (size 15 to 20)
#    0.000    1.000    0.000    7.500    0.000    3.000 
#    0.000    2.500    0.000    0.000    0.000    0.000 
#    0.000    0.000    0.000    0.000    0.000    0.000 
#
# Total GULP energy -178940.410846 kJ/mol
# GULP energy per Si atom -5591.887839 kJ/mol
# Density = 2.379540 g / cm^3
# Si number density = 23.849683 Si / 1000 Ang^3
#
#
#
# Elastic Constant Matrix: (Units=GPa)
#
#
# Indices 1 2 3 4 5 6 
#
# 1 142.0085 -0.1053 64.6360 0.0000 0.0000 0.0000
# 2 -0.1053 50.9722 29.9949 0.0000 0.0000 0.0000
# 3 64.6360 29.9949 163.8649 0.0000 0.0000 0.0000
# 4 0.0000 0.0000 0.0000 17.1309 0.0000 0.0000
# 5 0.0000 0.0000 0.0000 0.0000 42.7089 0.0000
# 6 0.0000 0.0000 0.0000 0.0000 0.0000 -31.6059
#
#
#
# Elastic Compliance Matrix: (Units=1/GPa)
#
#
# Indices 1 2 3 4 5 6 
#
# 1 0.008820 0.002315 -0.003903 0.000000 0.000000 0.000000
# 2 0.002315 0.022594 -0.005049 0.000000 0.000000 0.000000
# 3 -0.003903 -0.005049 0.008566 0.000000 0.000000 0.000000
# 4 0.000000 0.000000 0.000000 0.058374 0.000000 0.000000
# 5 0.000000 0.000000 0.000000 0.000000 0.023414 0.000000
# 6 0.000000 0.000000 0.000000 0.000000 0.000000 -0.031640
#
#
# Mechanical properties :
#
#
# Convention : Reuss Voigt Hill
#
# Bulk Modulus (GPa) = 37.44356 60.65518 49.04937
# Shear Modulus (GPa) = 44.52161 23.13478 33.82819
#
# Velocity S-wave (km/s) = 4.32529 3.11790 3.77024
# Velocity P-wave (km/s) = 6.37793 6.20074 6.28996
#
# Compressibility (1/GPa) = 0.02670686
#
# Stress axis : x y z
#
# Youngs Moduli (GPa) = 113.38021 44.25881 116.73828
#
# Poissons Ratio (x) = -0.10245 0.45559
# Poissons Ratio (y) = -0.26245 0.58940
# Poissons Ratio (z) = 0.44249 0.22346
#
# Static dielectric constant tensor:
#      x y z
#    x 1.920020 0.000000 0.000000 
#    y 0.000000 1.920200 0.000000 
#    z 0.000000 0.000000 1.882210 
# 
# From -- ./inp_files/6129.got.cif
#   From: 2010.05.17/outbox.cif.g08.bks.cpg/sg52_4_cif.got.tgz:6129.got - 2010.06.03 12:15:38.
