data_PCOD9410750
_publ_section_title
;
Structure prediction by ZEFSAII (Michael W. Deem and Ramdas Pophale) SiO2 
 PCOD9410750
Probable space group: P N N A
;
_chemical_formula_sum "Si O2"
_cell_formula_units_Z 44
_cell_length_a 12.729299
_cell_length_b 20.352942
_cell_length_c 8.177065
_cell_angle_alpha 90.000000
_cell_angle_beta 90.000000
_cell_angle_gamma 90.000000
_cell_volume 2118.503241
_symmetry_space_group_name_H-M "P N N A"
_symmetry_group_IT_number 52
_symmetry_cell_setting 'orthorhombic'
loop_
_space_group_symop_operation_xyz
x,y,z
1/2-x,-y,z
x,1/2-y,1/2-z
1/2-x,1/2+y,1/2-z
-x,-y,-z
1/2+x,y,-z
-x,1/2+y,1/2+z
1/2+x,1/2-y,1/2+z
loop_
_atom_site_type_symbol
_atom_site_label
_atom_site_fract_x
_atom_site_fract_y
_atom_site_fract_z
Si Si1 0.985994 0.428258 0.690961
Si Si2 0.458508 0.583903 0.324378
Si Si3 0.185620 0.750000 0.750000
Si Si4 0.162095 0.150681 0.634423
Si Si5 0.510943 0.206570 0.608205
Si Si6 0.258875 0.422050 0.172940
O O1 0.984933 0.507471 0.703706
O O2 0.875310 0.405996 0.766523
O O3 0.998142 0.403391 0.504939
O O4 0.086940 0.402284 0.785090
O O5 0.501982 0.633855 0.187515
O O6 0.332195 0.590612 0.307652
O O7 0.259611 0.812915 0.756112
O O8 0.104021 0.760756 0.600505
O O9 0.081772 0.202286 0.549953
O O10 0.227019 0.118273 0.486991
O O11 0.566013 0.250000 0.750000
O O12 0.250000 0.500000 0.136666
#
# Coordination Sequence:
#
# PCOD9410750 Si02
#       6
#     8   8   4   8   8   8
#     4  10  21  37  64  91 120 150 196 249 300 356
#     4   9  20  40  61  89 118 155 193 248 303 350
#     4  10  24  38  58  84 118 152 208 242 282 358
#     4  11  22  38  62  88 117 162 199 241 301 348
#     4   9  22  42  58  80 124 156 194 249 285 350
#     4   9  20  39  61  89 121 149 192 243 299 360
#
# _framework density 20.769379000000001
#
# number of rings (size 3 to 8) (size 9 to 14) (size 15 to 20)
#    0.545    1.818    0.000    1.091    2.545    9.455 
#    3.273    4.545    4.000    0.000    0.000    0.000 
#    0.000    0.000    0.000    0.000    0.000    0.000 
#
# Total GULP energy -245363.707045 kJ/mol
# GULP energy per Si atom -5576.447887 kJ/mol
# Density = 2.072211 g / cm^3
# Si number density = 20.769379 Si / 1000 Ang^3
#
#
#
# Elastic Constant Matrix: (Units=GPa)
#
#
# Indices 1 2 3 4 5 6 
#
# 1 145.1105 48.4720 56.1507 0.0000 0.0000 0.0000
# 2 48.4720 35.5121 20.5863 0.0000 0.0000 0.0000
# 3 56.1507 20.5863 56.1489 0.0000 0.0000 0.0000
# 4 0.0000 0.0000 0.0000 17.8084 0.0000 0.0000
# 5 0.0000 0.0000 0.0000 0.0000 -2.8829 0.0000
# 6 0.0000 0.0000 0.0000 0.0000 0.0000 28.6072
#
#
#
# Elastic Compliance Matrix: (Units=1/GPa)
#
#
# Indices 1 2 3 4 5 6 
#
# 1 0.016353 -0.016306 -0.010375 0.000000 0.000000 0.000000
# 2 -0.016306 0.052020 -0.002766 0.000000 0.000000 0.000000
# 3 -0.010375 -0.002766 0.029199 0.000000 0.000000 0.000000
# 4 0.000000 0.000000 0.000000 0.056153 0.000000 0.000000
# 5 0.000000 0.000000 0.000000 0.000000 -0.346875 0.000000
# 6 0.000000 0.000000 0.000000 0.000000 0.000000 0.034956
#
#
# Mechanical properties :
#
#
# Convention : Reuss Voigt Hill
#
# Bulk Modulus (GPa) = 25.85446 54.13216 39.99331
# Shear Modulus (GPa) = -57.86455 16.14404 -20.86026
#
# Velocity S-wave (km/s) = -5.28403 2.79103 -3.17263
# Velocity P-wave (km/s) = 4.97520 6.04206 2.42424
#
# Compressibility (1/GPa) = 0.03867804
#
# Stress axis : x y z
#
# Youngs Moduli (GPa) = 61.15211 19.22347 34.24795
#
# Poissons Ratio (x) = 0.31346 0.35531
# Poissons Ratio (y) = 0.99716 0.09472
# Poissons Ratio (z) = 0.63444 0.05317
#
# Static dielectric constant tensor:
#      x y z
#    x 1.747820 0.000000 0.000000 
#    y 0.000000 1.772460 0.000000 
#    z 0.000000 0.000000 1.749400 
# 
# From -- ./inp_files/8798.got.cif
#   From: 2010.05.17/outbox.cif.g08.bks.cpg/sg52_5_cif.got.tgz:8798.got - 2010.06.03 12:15:38.
