data_PCOD9410194
_publ_section_title
;
Structure prediction by ZEFSAII (Michael W. Deem and Ramdas Pophale) SiO2 
 PCOD9410194
Probable space group: P N N A
;
_chemical_formula_sum "Si O2"
_cell_formula_units_Z 36
_cell_length_a 11.188214
_cell_length_b 5.950626
_cell_length_c 24.828909
_cell_angle_alpha 90.000000
_cell_angle_beta 90.000000
_cell_angle_gamma 90.000000
_cell_volume 1653.031224
_symmetry_space_group_name_H-M "P N N A"
_symmetry_group_IT_number 52
_symmetry_cell_setting 'orthorhombic'
loop_
_space_group_symop_operation_xyz
x,y,z
1/2-x,-y,z
x,1/2-y,1/2-z
1/2-x,1/2+y,1/2-z
-x,-y,-z
1/2+x,y,-z
-x,1/2+y,1/2+z
1/2+x,1/2-y,1/2+z
loop_
_atom_site_type_symbol
_atom_site_label
_atom_site_fract_x
_atom_site_fract_y
_atom_site_fract_z
Si Si1 0.434349 0.166301 0.042034
Si Si2 0.948696 0.814256 0.865420
Si Si3 0.616771 0.392050 0.303647
Si Si4 0.880108 0.953438 0.404320
Si Si5 0.250000 0.000000 0.416802
O O1 0.535621 0.350406 0.051424
O O2 0.313528 0.315437 0.044286
O O3 0.416142 0.015714 0.095107
O O4 0.500000 0.000000 0.000000
O O5 0.844756 0.628333 0.876706
O O6 0.066054 0.688352 0.886358
O O7 0.005314 0.934608 0.812469
O O8 0.750000 0.500000 0.300387
O O9 0.596709 0.250000 0.250000
O O10 0.620407 0.219803 0.354177
O O11 0.750000 0.000000 0.424285
#
# Coordination Sequence:
#
# PCOD9410194 Si02
#       5
#     8   8   8   8   4
#     4  10  23  43  64 100 131 178 231 279 330 406
#     4  10  22  42  63  98 132 181 223 274 338 402
#     4  11  22  36  65 105 138 169 219 284 347 410
#     4  10  20  39  62  95 135 176 210 277 343 399
#     4  10  22  44  70  92 136 194 222 280 338 408
#
# _framework density 21.778175000000001
#
# number of rings (size 3 to 8) (size 9 to 14) (size 15 to 20)
#    0.000    1.778    2.222    1.333    0.000    3.556 
#   12.000    0.000    0.000    0.000  208.000    0.000 
#    0.000    0.000    0.000    0.000    0.000    0.000 
#
# Total GULP energy -200495.688250 kJ/mol
# GULP energy per Si atom -5569.324674 kJ/mol
# Density = 2.172861 g / cm^3
# Si number density = 21.778175 Si / 1000 Ang^3
#
#
#
# Elastic Constant Matrix: (Units=GPa)
#
#
# Indices 1 2 3 4 5 6 
#
# 1 125.3595 37.6002 31.5529 0.0000 0.0000 0.0000
# 2 37.6002 97.9115 35.8203 0.0000 0.0000 0.0000
# 3 31.5529 35.8203 82.9616 0.0000 0.0000 0.0000
# 4 0.0000 0.0000 0.0000 18.1662 0.0000 0.0000
# 5 0.0000 0.0000 0.0000 0.0000 46.4163 0.0000
# 6 0.0000 0.0000 0.0000 0.0000 0.0000 53.2607
#
#
#
# Elastic Compliance Matrix: (Units=1/GPa)
#
#
# Indices 1 2 3 4 5 6 
#
# 1 0.009400 -0.002734 -0.002395 0.000000 0.000000 0.000000
# 2 -0.002734 0.012924 -0.004541 0.000000 0.000000 0.000000
# 3 -0.002395 -0.004541 0.014925 0.000000 0.000000 0.000000
# 4 0.000000 0.000000 0.000000 0.055047 0.000000 0.000000
# 5 0.000000 0.000000 0.000000 0.000000 0.021544 0.000000
# 6 0.000000 0.000000 0.000000 0.000000 0.000000 0.018776
#
#
# Mechanical properties :
#
#
# Convention : Reuss Voigt Hill
#
# Bulk Modulus (GPa) = 55.83120 57.35324 56.59222
# Shear Modulus (GPa) = 31.66076 36.98593 34.32335
#
# Velocity S-wave (km/s) = 3.81699 4.12552 3.97425
# Velocity P-wave (km/s) = 6.71698 7.00611 6.86307
#
# Compressibility (1/GPa) = 0.01791113
#
# Stress axis : x y z
#
# Youngs Moduli (GPa) = 106.38609 77.37411 67.00140
#
# Poissons Ratio (x) = 0.21151 0.16045
# Poissons Ratio (y) = 0.29082 0.30423
# Poissons Ratio (z) = 0.25477 0.35133
#
# Static dielectric constant tensor:
#      x y z
#    x 1.820160 0.000000 0.000000 
#    y 0.000000 1.920240 0.000000 
#    z 0.000000 0.000000 1.829370 
# 
# From -- ./inp_files/39915.got.cif
#   From: 2010.05.17/outbox.cif.g08.bks.cpg/sg52_20_cif.got.tgz:39915.got - 2010.06.03 12:15:38.
