data_PCOD9410264
_publ_section_title
;
Structure prediction by ZEFSAII (Michael W. Deem and Ramdas Pophale) SiO2 
 PCOD9410264
Probable space group: P N N A
;
_chemical_formula_sum "Si O2"
_cell_formula_units_Z 48
_cell_length_a 32.260224
_cell_length_b 7.985676
_cell_length_c 9.301747
_cell_angle_alpha 90.000000
_cell_angle_beta 90.000000
_cell_angle_gamma 90.000000
_cell_volume 2396.313240
_symmetry_space_group_name_H-M "P N N A"
_symmetry_group_IT_number 52
_symmetry_cell_setting 'orthorhombic'
loop_
_space_group_symop_operation_xyz
x,y,z
1/2-x,-y,z
x,1/2-y,1/2-z
1/2-x,1/2+y,1/2-z
-x,-y,-z
1/2+x,y,-z
-x,1/2+y,1/2+z
1/2+x,1/2-y,1/2+z
loop_
_atom_site_type_symbol
_atom_site_label
_atom_site_fract_x
_atom_site_fract_y
_atom_site_fract_z
Si Si1 0.898718 0.439249 0.705054
Si Si2 0.635968 0.068415 0.520605
Si Si3 0.424770 0.436423 0.801855
Si Si4 0.364105 0.949434 0.923714
Si Si5 0.007925 0.943861 0.174717
Si Si6 0.797278 0.551628 0.212998
O O1 0.902275 0.250000 0.750000
O O2 0.880641 0.434018 0.546650
O O3 0.945513 0.508327 0.701622
O O4 0.867509 0.532069 0.812004
O O5 0.637827 0.265956 0.491854
O O6 0.675453 0.006605 0.427537
O O7 0.594072 0.983088 0.455887
O O8 0.413999 0.250000 0.750000
O O9 0.398582 0.558819 0.699483
O O10 0.472669 0.465115 0.767879
O O11 0.322654 0.018275 0.849448
O O12 0.006207 0.750000 0.250000
O O13 0.000000 0.000000 0.000000
O O14 0.750000 0.500000 0.201056
O O15 0.799238 0.750000 0.250000
#
# Coordination Sequence:
#
# PCOD9410264 Si02
#       6
#     8   8   8   8   8   8
#     4  11  23  38  60  88 122 158 210 256 312 364
#     4  10  22  38  61  89 118 162 199 251 309 377
#     4  11  22  37  60  85 117 159 213 256 307 363
#     4  10  20  40  60  84 121 157 200 248 309 372
#     4  11  24  42  62  86 128 169 214 271 320 379
#     4   9  20  38  63  91 117 150 195 247 306 378
#
# _framework density 20.030768999999999
#
# number of rings (size 3 to 8) (size 9 to 14) (size 15 to 20)
#    0.000    1.667    1.667    4.000    2.333    6.000 
#    0.000    0.833    0.000    0.000    0.000    0.000 
#    0.000    0.000    0.000    0.000    0.000    0.000 
#
# Total GULP energy -267215.981630 kJ/mol
# GULP energy per Si atom -5566.999617 kJ/mol
# Density = 1.998518 g / cm^3
# Si number density = 20.030769 Si / 1000 Ang^3
#
#
#
# Elastic Constant Matrix: (Units=GPa)
#
#
# Indices 1 2 3 4 5 6 
#
# 1 135.7109 5.0679 33.1553 0.0000 0.0000 0.0000
# 2 5.0679 36.1628 9.4312 0.0000 0.0000 0.0000
# 3 33.1553 9.4312 79.5880 0.0000 0.0000 0.0000
# 4 0.0000 0.0000 0.0000 36.4637 0.0000 0.0000
# 5 0.0000 0.0000 0.0000 0.0000 15.1621 0.0000
# 6 0.0000 0.0000 0.0000 0.0000 0.0000 25.0522
#
#
#
# Elastic Compliance Matrix: (Units=1/GPa)
#
#
# Indices 1 2 3 4 5 6 
#
# 1 0.008206 -0.000267 -0.003387 0.000000 0.000000 0.000000
# 2 -0.000267 0.028543 -0.003271 0.000000 0.000000 0.000000
# 3 -0.003387 -0.003271 0.014363 0.000000 0.000000 0.000000
# 4 0.000000 0.000000 0.000000 0.027425 0.000000 0.000000
# 5 0.000000 0.000000 0.000000 0.000000 0.065954 0.000000
# 6 0.000000 0.000000 0.000000 0.000000 0.000000 0.039917
#
#
# Mechanical properties :
#
#
# Convention : Reuss Voigt Hill
#
# Bulk Modulus (GPa) = 26.83646 38.53008 32.68327
# Shear Modulus (GPa) = 23.73284 28.92274 26.32779
#
# Velocity S-wave (km/s) = 3.44585 3.80401 3.62935
# Velocity P-wave (km/s) = 5.40912 6.21057 5.82365
#
# Compressibility (1/GPa) = 0.03726274
#
# Stress axis : x y z
#
# Youngs Moduli (GPa) = 121.86178 35.03459 69.62189
#
# Poissons Ratio (x) = 0.00934 0.23580
# Poissons Ratio (y) = 0.03250 0.22775
# Poissons Ratio (z) = 0.41274 0.11461
#
# Static dielectric constant tensor:
#      x y z
#    x 1.709640 0.000000 0.000000 
#    y 0.000000 1.764840 0.000000 
#    z 0.000000 0.000000 1.785100 
# 
# From -- ./inp_files/15500.got.cif
#   From: 2010.05.17/outbox.cif.g08.bks.cpg/sg52_8_cif.got.tgz:15500.got - 2010.06.03 12:15:38.
