data_PCOD9410661
_publ_section_title
;
Structure prediction by ZEFSAII (Michael W. Deem and Ramdas Pophale) SiO2 
 PCOD9410661
Probable space group: P N N A
;
_chemical_formula_sum "Si O2"
_cell_formula_units_Z 40
_cell_length_a 13.100013
_cell_length_b 5.064995
_cell_length_c 29.631788
_cell_angle_alpha 90.000000
_cell_angle_beta 90.000000
_cell_angle_gamma 90.000000
_cell_volume 1966.113592
_symmetry_space_group_name_H-M "P N N A"
_symmetry_group_IT_number 52
_symmetry_cell_setting 'orthorhombic'
loop_
_space_group_symop_operation_xyz
x,y,z
1/2-x,-y,z
x,1/2-y,1/2-z
1/2-x,1/2+y,1/2-z
-x,-y,-z
1/2+x,y,-z
-x,1/2+y,1/2+z
1/2+x,1/2-y,1/2+z
loop_
_atom_site_type_symbol
_atom_site_label
_atom_site_fract_x
_atom_site_fract_y
_atom_site_fract_z
Si Si1 0.324587 0.250000 0.250000
Si Si2 0.352728 0.656069 0.915418
Si Si3 0.358498 0.131592 0.154647
Si Si4 0.750000 0.000000 0.583664
Si Si5 0.976423 0.364684 0.403233
Si Si6 0.584810 0.219737 0.514260
O O1 0.250000 0.500000 0.242703
O O2 0.390072 0.231754 0.203981
O O3 0.250000 0.500000 0.904310
O O4 0.439401 0.436059 0.905121
O O5 0.385467 0.930197 0.892800
O O6 0.351620 0.741389 0.968082
O O7 0.325914 0.338156 0.116172
O O8 0.250000 0.000000 0.164368
O O9 0.436931 0.928520 0.132791
O O10 0.672885 0.150639 0.550587
O O11 0.020442 0.424717 0.454206
O O12 0.500000 0.000000 0.500000
#
# Coordination Sequence:
#
# PCOD9410661 Si02
#       6
#     4   8   8   4   8   8
#     4  10  22  38  60  86 122 156 190 240 296 382
#     4  11  23  41  59  83 117 159 208 254 296 335
#     4  11  22  37  59  89 122 154 197 235 309 362
#     4  12  20  38  56  82 120 164 198 244 292 340
#     4  11  23  39  60  84 117 156 203 252 293 357
#     4  10  21  37  54  80 115 159 207 246 281 340
#
# _framework density 20.344705999999999
#
# number of rings (size 3 to 8) (size 9 to 14) (size 15 to 20)
#    0.000    1.200    4.000    3.600    0.000    1.600 
#    3.600    0.000    0.000    0.000    0.000    2.800 
#    0.000    0.000    0.000    0.000    0.000    0.000 
#
# Total GULP energy -222881.725594 kJ/mol
# GULP energy per Si atom -5572.043140 kJ/mol
# Density = 2.029840 g / cm^3
# Si number density = 20.344706 Si / 1000 Ang^3
#
#
#
# Elastic Constant Matrix: (Units=GPa)
#
#
# Indices 1 2 3 4 5 6 
#
# 1 75.9332 10.9456 24.6325 0.0000 0.0000 0.0000
# 2 10.9456 77.2034 17.9859 0.0000 0.0000 0.0000
# 3 24.6325 17.9859 110.3996 0.0000 0.0000 0.0000
# 4 0.0000 0.0000 0.0000 21.7641 0.0000 0.0000
# 5 0.0000 0.0000 0.0000 0.0000 -0.2846 0.0000
# 6 0.0000 0.0000 0.0000 0.0000 0.0000 31.9014
#
#
#
# Elastic Compliance Matrix: (Units=1/GPa)
#
#
# Indices 1 2 3 4 5 6 
#
# 1 0.014329 -0.001337 -0.002979 0.000000 0.000000 0.000000
# 2 -0.001337 0.013589 -0.001915 0.000000 0.000000 0.000000
# 3 -0.002979 -0.001915 0.010035 0.000000 0.000000 0.000000
# 4 0.000000 0.000000 0.000000 0.045947 0.000000 0.000000
# 5 0.000000 0.000000 0.000000 0.000000 -3.513917 0.000000
# 6 0.000000 0.000000 0.000000 0.000000 0.000000 0.031347
#
#
# Mechanical properties :
#
#
# Convention : Reuss Voigt Hill
#
# Bulk Modulus (GPa) = 39.23391 41.18489 40.20940
# Shear Modulus (GPa) = -1.48029 24.67434 11.59702
#
# Velocity S-wave (km/s) = -0.85392 3.48633 2.39011
# Velocity P-wave (km/s) = 4.28418 6.04098 5.23678
#
# Compressibility (1/GPa) = 0.02548815
#
# Stress axis : x y z
#
# Youngs Moduli (GPa) = 69.79011 73.59090 99.65353
#
# Poissons Ratio (x) = 0.09842 0.29688
# Poissons Ratio (y) = 0.09334 0.19088
# Poissons Ratio (z) = 0.20791 0.14096
#
# Static dielectric constant tensor:
#      x y z
#    x 1.782290 0.000000 0.000000 
#    y 0.000000 1.808210 0.000000 
#    z 0.000000 0.000000 1.842380 
# 
# From -- ./inp_files/44896.got.cif
#   From: 2010.05.17/outbox.cif.g08.bks.cpg/sg52_23_cif.got.tgz:44896.got - 2010.06.03 12:15:38.
