data_PCOD9410104
_publ_section_title
;
Structure prediction by ZEFSAII (Michael W. Deem and Ramdas Pophale) SiO2 
 PCOD9410104
Probable space group: P N N A
;
_chemical_formula_sum "Si O2"
_cell_formula_units_Z 36
_cell_length_a 10.030480
_cell_length_b 16.296974
_cell_length_c 8.908940
_cell_angle_alpha 90.000000
_cell_angle_beta 90.000000
_cell_angle_gamma 90.000000
_cell_volume 1456.312989
_symmetry_space_group_name_H-M "P N N A"
_symmetry_group_IT_number 52
_symmetry_cell_setting 'orthorhombic'
loop_
_space_group_symop_operation_xyz
x,y,z
1/2-x,-y,z
x,1/2-y,1/2-z
1/2-x,1/2+y,1/2-z
-x,-y,-z
1/2+x,y,-z
-x,1/2+y,1/2+z
1/2+x,1/2-y,1/2+z
loop_
_atom_site_type_symbol
_atom_site_label
_atom_site_fract_x
_atom_site_fract_y
_atom_site_fract_z
Si Si1 0.754545 0.250000 0.750000
Si Si2 0.262377 0.181432 0.539234
Si Si3 0.087789 0.104763 0.089081
Si Si4 0.389071 0.544658 0.092648
Si Si5 0.708472 0.634302 0.362229
O O1 0.834873 0.200331 0.621273
O O2 0.660174 0.184411 0.835380
O O3 0.249110 0.271922 0.606103
O O4 0.312100 0.128765 0.682318
O O5 0.131405 0.135611 0.476840
O O6 0.090041 0.042767 0.228739
O O7 0.250000 0.000000 0.434647
O O8 0.174163 0.083469 0.942526
O O9 0.566770 0.621044 0.442088
O O10 0.500000 0.500000 0.000000
#
# Coordination Sequence:
#
# PCOD9410104 Si02
#       5
#     4   8   8   8   8
#     4   8  16  34  60  90 120 152 202 268 314 380
#     4   9  19  37  64  92 122 161 210 267 336 389
#     4  10  21  38  60  90 125 163 212 264 327 387
#     4  11  24  42  63  90 129 178 222 266 330 421
#     4  10  20  38  64  93 123 157 209 284 335 380
#
# _framework density 24.719961999999999
#
# number of rings (size 3 to 8) (size 9 to 14) (size 15 to 20)
#    0.000    2.222    0.000    2.667    0.000    5.333 
#    0.000   34.444    0.000    0.000    0.000    0.000 
#    0.000    0.000    0.000    0.000    0.000    0.000 
#
# Total GULP energy -200706.604289 kJ/mol
# GULP energy per Si atom -5575.183452 kJ/mol
# Density = 2.466370 g / cm^3
# Si number density = 24.719962 Si / 1000 Ang^3
#
#
#
# Elastic Constant Matrix: (Units=GPa)
#
#
# Indices 1 2 3 4 5 6 
#
# 1 115.1363 30.2070 83.3762 0.0000 0.0000 0.0000
# 2 30.2070 58.9256 25.7679 0.0000 0.0000 0.0000
# 3 83.3762 25.7679 184.6637 0.0000 0.0000 0.0000
# 4 0.0000 0.0000 0.0000 33.6135 0.0000 0.0000
# 5 0.0000 0.0000 0.0000 0.0000 54.8512 0.0000
# 6 0.0000 0.0000 0.0000 0.0000 0.0000-4549.4152
#
#
#
# Elastic Compliance Matrix: (Units=1/GPa)
#
#
# Indices 1 2 3 4 5 6 
#
# 1 0.014034 -0.004711 -0.005679 0.000000 0.000000 0.000000
# 2 -0.004711 0.019655 -0.000616 0.000000 0.000000 0.000000
# 3 -0.005679 -0.000616 0.008065 0.000000 0.000000 0.000000
# 4 0.000000 0.000000 0.000000 0.029750 0.000000 0.000000
# 5 0.000000 0.000000 0.000000 0.000000 0.018231 0.000000
# 6 0.000000 0.000000 0.000000 0.000000 0.000000 -0.000220
#
#
# Mechanical properties :
#
#
# Convention : Reuss Voigt Hill
#
# Bulk Modulus (GPa) = 50.65117 70.82530 60.73823
# Shear Modulus (GPa) = 42.33475 -877.56513 -417.61519
#
# Velocity S-wave (km/s) = 4.14281 -18.86195 -13.01173
# Velocity P-wave (km/s) = 6.58926 21.11045 14.18155
#
# Compressibility (1/GPa) = 0.01974288
#
# Stress axis : x y z
#
# Youngs Moduli (GPa) = 71.25739 50.87857 123.98943
#
# Poissons Ratio (x) = 0.23967 0.70412
# Poissons Ratio (y) = 0.33567 0.07634
# Poissons Ratio (z) = 0.40466 0.03133
#
# Static dielectric constant tensor:
#      x y z
#    x 1.890190 0.000000 0.000000 
#    y 0.000000 2.032380 0.000000 
#    z 0.000000 0.000000 2.052660 
# 
# From -- ./inp_files/9960.got.cif
#   From: 2010.05.17/outbox.cif.g08.bks.cpg/sg52_5_cif.got.tgz:9960.got - 2010.06.03 12:15:38.
