data_PCOD9410952
_publ_section_title
;
Structure prediction by ZEFSAII (Michael W. Deem and Ramdas Pophale) SiO2 
 PCOD9410952
Probable space group: P N N A
;
_chemical_formula_sum "Si O2"
_cell_formula_units_Z 60
_cell_length_a 25.832670
_cell_length_b 5.273965
_cell_length_c 20.331711
_cell_angle_alpha 90.000000
_cell_angle_beta 90.000000
_cell_angle_gamma 90.000000
_cell_volume 2770.004454
_symmetry_space_group_name_H-M "P N N A"
_symmetry_group_IT_number 52
_symmetry_cell_setting 'orthorhombic'
loop_
_space_group_symop_operation_xyz
x,y,z
1/2-x,-y,z
x,1/2-y,1/2-z
1/2-x,1/2+y,1/2-z
-x,-y,-z
1/2+x,y,-z
-x,1/2+y,1/2+z
1/2+x,1/2-y,1/2+z
loop_
_atom_site_type_symbol
_atom_site_label
_atom_site_fract_x
_atom_site_fract_y
_atom_site_fract_z
Si Si1 0.858586 0.080869 0.416562
Si Si2 0.394570 0.642890 0.427923
Si Si3 0.933130 0.995760 0.292884
Si Si4 0.019503 0.025544 0.392008
Si Si5 0.366136 0.497150 0.294941
Si Si6 0.691467 0.089891 0.031154
Si Si7 0.952857 0.271708 0.487266
Si Si8 0.250000 0.500000 0.293621
O O1 0.889390 0.036109 0.348947
O O2 0.833595 0.358234 0.426768
O O3 0.904191 0.087714 0.471558
O O4 0.818545 0.854586 0.430838
O O5 0.420969 0.891580 0.396430
O O6 0.398080 0.471228 0.362178
O O7 0.338568 0.638234 0.462091
O O8 0.428209 0.530153 0.487708
O O9 0.935977 0.250000 0.250000
O O10 0.989423 0.951444 0.327022
O O11 0.920463 0.750000 0.250000
O O12 0.985668 0.263346 0.420611
O O13 0.014536 0.826787 0.451017
O O14 0.375730 0.750000 0.250000
O O15 0.307147 0.518215 0.323187
O O16 0.371731 0.250000 0.250000
O O17 0.750000 0.000000 0.019723
O O18 0.246532 0.750000 0.250000
#
# Coordination Sequence:
#
# PCOD9410952 Si02
#       8
#     8   8   8   8   8   8   8   4
#     4  10  21  43  68  93 136 170 211 271 330 393
#     4  11  23  37  62  88 129 161 214 265 322 372
#     4  11  25  43  67 100 131 176 219 262 320 397
#     4  10  21  39  62  88 127 166 209 259 314 389
#     4  10  23  39  57  80 116 165 207 248 301 359
#     4  11  23  40  68 102 128 164 217 279 336 381
#     4   9  20  38  62  89 119 168 211 253 326 386
#     4   8  16  36  56  72  98 148 206 236 274 342
#
# _framework density 21.660613000000001
#
# number of rings (size 3 to 8) (size 9 to 14) (size 15 to 20)
#    0.000    1.867    1.333    1.600    4.667    0.533 
#    0.000    0.000    0.000    8.000    0.000    0.000 
#    0.000    0.000    0.000    0.000    0.000    0.000 
#
# Total GULP energy -334216.879636 kJ/mol
# GULP energy per Si atom -5570.281327 kJ/mol
# Density = 2.161131 g / cm^3
# Si number density = 21.660613 Si / 1000 Ang^3
#
#
#
# Elastic Constant Matrix: (Units=GPa)
#
#
# Indices 1 2 3 4 5 6 
#
# 1 79.1432 22.2260 22.9974 0.0000 0.0000 0.0000
# 2 22.2260 115.6707 25.7138 0.0000 0.0000 0.0000
# 3 22.9974 25.7138 89.4418 0.0000 0.0000 0.0000
# 4 0.0000 0.0000 0.0000 44.5106 0.0000 0.0000
# 5 0.0000 0.0000 0.0000 0.0000 20.4448 0.0000
# 6 0.0000 0.0000 0.0000 0.0000 0.0000 34.0131
#
#
#
# Elastic Compliance Matrix: (Units=1/GPa)
#
#
# Indices 1 2 3 4 5 6 
#
# 1 0.014089 -0.002032 -0.003038 0.000000 0.000000 0.000000
# 2 -0.002032 0.009528 -0.002217 0.000000 0.000000 0.000000
# 3 -0.003038 -0.002217 0.012599 0.000000 0.000000 0.000000
# 4 0.000000 0.000000 0.000000 0.022467 0.000000 0.000000
# 5 0.000000 0.000000 0.000000 0.000000 0.048912 0.000000
# 6 0.000000 0.000000 0.000000 0.000000 0.000000 0.029400
#
#
# Mechanical properties :
#
#
# Convention : Reuss Voigt Hill
#
# Bulk Modulus (GPa) = 46.20620 47.34781 46.77700
# Shear Modulus (GPa) = 31.48940 34.01495 32.75218
#
# Velocity S-wave (km/s) = 3.81696 3.96708 3.89274
# Velocity P-wave (km/s) = 6.38778 6.54904 6.46892
#
# Compressibility (1/GPa) = 0.02164212
#
# Stress axis : x y z
#
# Youngs Moduli (GPa) = 70.97839 104.94881 79.37098
#
# Poissons Ratio (x) = 0.21322 0.24116
# Poissons Ratio (y) = 0.14421 0.17596
# Poissons Ratio (z) = 0.21566 0.23267
#
# Static dielectric constant tensor:
#      x y z
#    x 1.915060 0.000000 0.000000 
#    y 0.000000 1.848510 0.000000 
#    z 0.000000 0.000000 1.766830 
# 
# From -- ./inp_files/34490.got.cif
#   From: 2010.05.17/outbox.cif.g08.bks.cpg/sg52_18_cif.got.tgz:34490.got - 2010.06.03 12:15:38.
