data_PCOD9410561
_publ_section_title
;
Structure prediction by ZEFSAII (Michael W. Deem and Ramdas Pophale) SiO2 
 PCOD9410561
Probable space group: P N N A
;
_chemical_formula_sum "Si O2"
_cell_formula_units_Z 48
_cell_length_a 32.740624
_cell_length_b 9.537335
_cell_length_c 8.079704
_cell_angle_alpha 90.000000
_cell_angle_beta 90.000000
_cell_angle_gamma 90.000000
_cell_volume 2522.954629
_symmetry_space_group_name_H-M "P N N A"
_symmetry_group_IT_number 52
_symmetry_cell_setting 'orthorhombic'
loop_
_space_group_symop_operation_xyz
x,y,z
1/2-x,-y,z
x,1/2-y,1/2-z
1/2-x,1/2+y,1/2-z
-x,-y,-z
1/2+x,y,-z
-x,1/2+y,1/2+z
1/2+x,1/2-y,1/2+z
loop_
_atom_site_type_symbol
_atom_site_label
_atom_site_fract_x
_atom_site_fract_y
_atom_site_fract_z
Si Si1 0.115366 0.588742 0.249535
Si Si2 0.789237 0.905232 0.307728
Si Si3 0.951593 0.094235 0.181452
Si Si4 0.628821 0.437491 0.398885
Si Si5 0.345838 0.665465 0.079237
Si Si6 0.977516 0.100064 0.793577
O O1 0.129166 0.750000 0.250000
O O2 0.126865 0.524713 0.429079
O O3 0.132625 0.480378 0.117725
O O4 0.066936 0.588906 0.213743
O O5 0.778671 0.750000 0.250000
O O6 0.829339 0.957098 0.204719
O O7 0.803968 0.880127 0.494477
O O8 0.750000 0.000000 0.289126
O O9 0.943873 0.250000 0.250000
O O10 0.911629 0.994874 0.192847
O O11 0.965455 0.100184 0.988317
O O12 0.991296 0.020274 0.259412
O O13 0.630455 0.273628 0.456387
O O14 0.340714 0.750000 0.250000
O O15 0.996309 0.250000 0.750000
#
# Coordination Sequence:
#
# PCOD9410561 Si02
#       6
#     8   8   8   8   8   8
#     4   9  18  34  56  82 109 144 187 226 266 315
#     4  10  22  39  59  83 109 140 177 221 275 328
#     4  10  21  35  53  79 109 143 187 229 266 318
#     4   9  20  37  55  79 110 143 180 222 274 330
#     4   9  19  38  59  78 108 144 179 219 272 333
#     4   9  20  35  50  76 111 144 182 225 272 317
#
# _framework density 19.025313000000001
#
# number of rings (size 3 to 8) (size 9 to 14) (size 15 to 20)
#    0.000    2.667    0.000    0.000    0.000   13.333 
#    0.000    8.333    0.000    0.000    0.000    0.000 
#    0.000    0.000    0.000    0.000    0.000    0.000 
#
# Total GULP energy -267371.054992 kJ/mol
# GULP energy per Si atom -5570.230312 kJ/mol
# Density = 1.898201 g / cm^3
# Si number density = 19.025313 Si / 1000 Ang^3
#
#
#
# Elastic Constant Matrix: (Units=GPa)
#
#
# Indices 1 2 3 4 5 6 
#
# 1 111.1194 85.8269 34.8422 0.0000 0.0000 0.0000
# 2 85.8269 126.6848 30.5632 0.0000 0.0000 0.0000
# 3 34.8422 30.5632 33.0955 0.0000 0.0000 0.0000
# 4 0.0000 0.0000 0.0000 19.5398 0.0000 0.0000
# 5 0.0000 0.0000 0.0000 0.0000 -23.2250 0.0000
# 6 0.0000 0.0000 0.0000 0.0000 0.0000 41.3274
#
#
#
# Elastic Compliance Matrix: (Units=1/GPa)
#
#
# Indices 1 2 3 4 5 6 
#
# 1 0.022122 -0.012054 -0.012158 0.000000 0.000000 0.000000
# 2 -0.012054 0.016725 -0.002755 0.000000 0.000000 0.000000
# 3 -0.012158 -0.002755 0.045559 0.000000 0.000000 0.000000
# 4 0.000000 0.000000 0.000000 0.051178 0.000000 0.000000
# 5 0.000000 0.000000 0.000000 0.000000 -0.043057 0.000000
# 6 0.000000 0.000000 0.000000 0.000000 0.000000 0.024197
#
#
# Mechanical properties :
#
#
# Convention : Reuss Voigt Hill
#
# Bulk Modulus (GPa) = 32.81653 63.70714 48.26183
# Shear Modulus (GPa) = 27.65294 15.50628 21.57961
#
# Velocity S-wave (km/s) = 3.81659 2.85798 3.37153
# Velocity P-wave (km/s) = 6.05873 6.66700 6.37013
#
# Compressibility (1/GPa) = 0.03047245
#
# Stress axis : x y z
#
# Youngs Moduli (GPa) = 45.20435 59.79203 21.94974
#
# Poissons Ratio (x) = 0.72074 0.26685
# Poissons Ratio (y) = 0.54490 0.06046
# Poissons Ratio (z) = 0.54957 0.16471
#
# Static dielectric constant tensor:
#      x y z
#    x 1.647810 0.000000 0.000000 
#    y 0.000000 1.775670 0.000000 
#    z 0.000000 0.000000 1.728290 
# 
# From -- ./inp_files/15529.got.cif
#   From: 2010.05.17/outbox.cif.g08.bks.cpg/sg52_8_cif.got.tgz:15529.got - 2010.06.03 12:15:38.
