data_PCOD9410990
_publ_section_title
;
Structure prediction by ZEFSAII (Michael W. Deem and Ramdas Pophale) SiO2 
 PCOD9410990
Probable space group: P N N A
;
_chemical_formula_sum "Si O2"
_cell_formula_units_Z 64
_cell_length_a 18.093925
_cell_length_b 7.621191
_cell_length_c 20.686871
_cell_angle_alpha 90.000000
_cell_angle_beta 90.000000
_cell_angle_gamma 90.000000
_cell_volume 2852.662795
_symmetry_space_group_name_H-M "P N N A"
_symmetry_group_IT_number 52
_symmetry_cell_setting 'orthorhombic'
loop_
_space_group_symop_operation_xyz
x,y,z
1/2-x,-y,z
x,1/2-y,1/2-z
1/2-x,1/2+y,1/2-z
-x,-y,-z
1/2+x,y,-z
-x,1/2+y,1/2+z
1/2+x,1/2-y,1/2+z
loop_
_atom_site_type_symbol
_atom_site_label
_atom_site_fract_x
_atom_site_fract_y
_atom_site_fract_z
Si Si1 0.224258 0.305487 0.895564
Si Si2 0.259232 0.289547 0.320639
Si Si3 0.623316 0.802514 0.109232
Si Si4 0.476599 0.438496 0.721649
Si Si5 0.923154 0.575520 0.150028
Si Si6 0.925621 0.222096 0.843690
Si Si7 0.082612 0.525400 0.477956
Si Si8 0.210416 0.306088 0.459297
O O1 0.250000 0.500000 0.876459
O O2 0.291302 0.188391 0.868902
O O3 0.140464 0.286962 0.870465
O O4 0.227903 0.289613 0.973562
O O5 0.250000 0.500000 0.325759
O O6 0.225741 0.250000 0.250000
O O7 0.344428 0.224175 0.320306
O O8 0.227489 0.223213 0.389513
O O9 0.568104 0.901943 0.156539
O O10 0.594828 0.600836 0.110047
O O11 0.620459 0.880061 0.038111
O O12 0.502069 0.250000 0.750000
O O13 0.421442 0.520191 0.774789
O O14 0.541147 0.574597 0.704741
O O15 0.007170 0.643005 0.144362
O O16 0.911552 0.135406 0.913110
O O17 0.123360 0.344366 0.463362
O O18 0.000000 0.500000 0.500000
O O19 0.250000 0.500000 0.461299
#
# Coordination Sequence:
#
# PCOD9410990 Si02
#       8
#     8   8   8   8   8   8   8   8
#     4  10  21  39  64  93 132 170 215 272 322 384
#     4  11  24  43  65  94 129 170 219 269 332 400
#     4  10  21  40  64  93 129 170 220 273 324 396
#     4  10  22  41  61  87 131 172 212 268 324 388
#     4  10  23  40  61  94 132 172 216 267 337 393
#     4  12  22  42  65  94 130 170 217 282 328 397
#     4  12  22  39  69  98 123 167 226 270 332 400
#     4  11  21  42  65  92 127 169 218 266 322 391
#
# _framework density 22.435179000000002
#
# number of rings (size 3 to 8) (size 9 to 14) (size 15 to 20)
#    0.000    1.250    5.000    1.875    0.000    1.500 
#    0.000   12.500    0.000    0.000    0.000    0.000 
#    0.000    0.000    0.000    0.000    0.000    0.000 
#
# Total GULP energy -357298.755119 kJ/mol
# GULP energy per Si atom -5582.793049 kJ/mol
# Density = 2.238412 g / cm^3
# Si number density = 22.435179 Si / 1000 Ang^3
#
#
#
# Elastic Constant Matrix: (Units=GPa)
#
#
# Indices 1 2 3 4 5 6 
#
# 1 120.2656 17.6654 12.9338 0.0000 0.0000 0.0000
# 2 17.6654 46.3595 3.6404 0.0000 0.0000 0.0000
# 3 12.9338 3.6404 97.3067 0.0000 0.0000 0.0000
# 4 0.0000 0.0000 0.0000 28.8876 0.0000 0.0000
# 5 0.0000 0.0000 0.0000 0.0000 11.2634 0.0000
# 6 0.0000 0.0000 0.0000 0.0000 0.0000 17.5286
#
#
#
# Elastic Compliance Matrix: (Units=1/GPa)
#
#
# Indices 1 2 3 4 5 6 
#
# 1 0.008916 -0.003314 -0.001061 0.000000 0.000000 0.000000
# 2 -0.003314 0.022866 -0.000415 0.000000 0.000000 0.000000
# 3 -0.001061 -0.000415 0.010433 0.000000 0.000000 0.000000
# 4 0.000000 0.000000 0.000000 0.034617 0.000000 0.000000
# 5 0.000000 0.000000 0.000000 0.000000 0.088783 0.000000
# 6 0.000000 0.000000 0.000000 0.000000 0.000000 0.057049
#
#
# Mechanical properties :
#
#
# Convention : Reuss Voigt Hill
#
# Bulk Modulus (GPa) = 30.64200 36.93453 33.78827
# Shear Modulus (GPa) = 20.56567 26.84873 23.70720
#
# Velocity S-wave (km/s) = 3.03094 3.46312 3.25422
# Velocity P-wave (km/s) = 5.09279 5.69995 5.40490
#
# Compressibility (1/GPa) = 0.03263494
#
# Stress axis : x y z
#
# Youngs Moduli (GPa) = 112.15996 43.73305 95.84649
#
# Poissons Ratio (x) = 0.14494 0.10170
# Poissons Ratio (y) = 0.37171 0.03977
# Poissons Ratio (z) = 0.11901 0.01815
#
# Static dielectric constant tensor:
#      x y z
#    x 1.899080 0.000000 0.000000 
#    y 0.000000 1.873420 0.000000 
#    z 0.000000 0.000000 1.813120 
# 
# From -- ./inp_files/37677.got.cif
#   From: 2010.05.17/outbox.cif.g08.bks.cpg/sg52_19_cif.got.tgz:37677.got - 2010.06.03 12:15:38.
