data_PCOD9410094
_publ_section_title
;
Structure prediction by ZEFSAII (Michael W. Deem and Ramdas Pophale) SiO2 
 PCOD9410094
Probable space group: P N N A
;
_chemical_formula_sum "Si O2"
_cell_formula_units_Z 64
_cell_length_a 22.630239
_cell_length_b 15.729566
_cell_length_c 8.922679
_cell_angle_alpha 90.000000
_cell_angle_beta 90.000000
_cell_angle_gamma 90.000000
_cell_volume 3176.151062
_symmetry_space_group_name_H-M "P N N A"
_symmetry_group_IT_number 52
_symmetry_cell_setting 'orthorhombic'
loop_
_space_group_symop_operation_xyz
x,y,z
1/2-x,-y,z
x,1/2-y,1/2-z
1/2-x,1/2+y,1/2-z
-x,-y,-z
1/2+x,y,-z
-x,1/2+y,1/2+z
1/2+x,1/2-y,1/2+z
loop_
_atom_site_type_symbol
_atom_site_label
_atom_site_fract_x
_atom_site_fract_y
_atom_site_fract_z
Si Si1 0.981764 0.739229 0.426693
Si Si2 0.405080 0.462911 0.506063
Si Si3 0.115201 0.774565 0.077842
Si Si4 0.795661 0.920403 0.486012
Si Si5 0.513988 0.086754 0.858282
Si Si6 0.603871 0.172066 0.642755
Si Si7 0.737890 0.755200 0.071609
Si Si8 0.199905 0.071377 0.873070
O O1 0.979665 0.750000 0.250000
O O2 0.977010 0.644594 0.493301
O O3 0.925810 0.787906 0.495123
O O4 0.050375 0.760276 0.470857
O O5 0.381927 0.376336 0.437599
O O6 0.445027 0.434988 0.649103
O O7 0.449979 0.501958 0.386865
O O8 0.357323 0.532870 0.547688
O O9 0.123906 0.750000 0.250000
O O10 0.170306 0.748951 0.978359
O O11 0.851867 0.904434 0.595867
O O12 0.766076 0.827750 0.501595
O O13 0.811572 0.922641 0.307264
O O14 0.750000 0.000000 0.514791
O O15 0.546085 0.136972 0.728441
O O16 0.627215 0.250000 0.750000
O O17 0.738978 0.750000 0.250000
O O18 0.775039 0.842576 0.049826
O O19 0.250000 0.000000 0.888398
#
# Coordination Sequence:
#
# PCOD9410094 Si02
#       8
#     8   8   8   8   8   8   8   8
#     4   9  20  37  62  92 125 168 212 261 321 383
#     4  10  20  38  64  86 129 167 208 267 319 387
#     4  10  21  39  61  91 127 163 213 263 321 384
#     4  10  24  42  61  92 131 166 215 273 317 380
#     4   9  21  38  59  91 126 163 207 263 328 381
#     4  10  22  41  62  94 125 163 217 262 326 391
#     4  10  22  39  63  92 123 171 216 259 318 381
#     4  10  20  39  65  96 121 166 221 259 316 390
#
# _framework density 20.150175999999998
#
# number of rings (size 3 to 8) (size 9 to 14) (size 15 to 20)
#    0.000    2.250    1.250    0.000    5.250    4.500 
#    0.000    1.250    0.000    0.000    0.000    0.000 
#    0.000    0.000    0.000    0.000    0.000    0.000 
#
# Total GULP energy -356270.041114 kJ/mol
# GULP energy per Si atom -5566.719392 kJ/mol
# Density = 2.010431 g / cm^3
# Si number density = 20.150176 Si / 1000 Ang^3
#
#
#
# Elastic Constant Matrix: (Units=GPa)
#
#
# Indices 1 2 3 4 5 6 
#
# 1 85.0934 43.9597 33.4957 0.0000 0.0000 0.0000
# 2 43.9597 79.8471 16.1734 0.0000 0.0000 0.0000
# 3 33.4957 16.1734 31.0905 0.0000 0.0000 0.0000
# 4 0.0000 0.0000 0.0000 6.2615 0.0000 0.0000
# 5 0.0000 0.0000 0.0000 0.0000 18.2437 0.0000
# 6 0.0000 0.0000 0.0000 0.0000 0.0000 27.1454
#
#
#
# Elastic Compliance Matrix: (Units=1/GPa)
#
#
# Indices 1 2 3 4 5 6 
#
# 1 0.025543 -0.009488 -0.022583 0.000000 0.000000 0.000000
# 2 -0.009488 0.017524 0.001107 0.000000 0.000000 0.000000
# 3 -0.022583 0.001107 0.055919 0.000000 0.000000 0.000000
# 4 0.000000 0.000000 0.000000 0.159707 0.000000 0.000000
# 5 0.000000 0.000000 0.000000 0.000000 0.054813 0.000000
# 6 0.000000 0.000000 0.000000 0.000000 0.000000 0.036839
#
#
# Mechanical properties :
#
#
# Convention : Reuss Voigt Hill
#
# Bulk Modulus (GPa) = 26.98660 42.58761 34.78710
# Shear Modulus (GPa) = 11.77506 17.15693 14.46600
#
# Velocity S-wave (km/s) = 2.41999 2.92113 2.68229
# Velocity P-wave (km/s) = 4.60763 5.70599 5.18597
#
# Compressibility (1/GPa) = 0.03705543
#
# Stress axis : x y z
#
# Youngs Moduli (GPa) = 39.14951 57.06589 17.88305
#
# Poissons Ratio (x) = 0.54146 0.40386
# Poissons Ratio (y) = 0.37147 -0.01979
# Poissons Ratio (z) = 0.88412 -0.06315
#
# Static dielectric constant tensor:
#      x y z
#    x 2.011840 0.000000 0.000000 
#    y 0.000000 1.772940 0.000000 
#    z 0.000000 0.000000 1.711950 
# 
# From -- ./inp_files/14491.got.cif
#   From: 2010.05.17/outbox.cif.g08.bks.cpg/sg52_8_cif.got.tgz:14491.got - 2010.06.03 12:15:38.
