data_PCOD9410557
_publ_section_title
;
Structure prediction by ZEFSAII (Michael W. Deem and Ramdas Pophale) SiO2 
 PCOD9410557
Probable space group: P N N A
;
_chemical_formula_sum "Si O2"
_cell_formula_units_Z 52
_cell_length_a 8.819182
_cell_length_b 13.257498
_cell_length_c 18.202332
_cell_angle_alpha 90.000000
_cell_angle_beta 90.000000
_cell_angle_gamma 90.000000
_cell_volume 2128.221895
_symmetry_space_group_name_H-M "P N N A"
_symmetry_group_IT_number 52
_symmetry_cell_setting 'orthorhombic'
loop_
_space_group_symop_operation_xyz
x,y,z
1/2-x,-y,z
x,1/2-y,1/2-z
1/2-x,1/2+y,1/2-z
-x,-y,-z
1/2+x,y,-z
-x,1/2+y,1/2+z
1/2+x,1/2-y,1/2+z
loop_
_atom_site_type_symbol
_atom_site_label
_atom_site_fract_x
_atom_site_fract_y
_atom_site_fract_z
Si Si1 0.808383 0.167476 0.573686
Si Si2 0.049121 0.649063 0.918341
Si Si3 0.780416 0.356871 0.387612
Si Si4 0.569829 0.616505 0.624962
Si Si5 0.820840 0.370194 0.232882
Si Si6 0.535664 0.866182 0.721803
Si Si7 0.750000 0.500000 0.521862
O O1 0.629465 0.153342 0.571839
O O2 0.878245 0.124115 0.497851
O O3 0.841891 0.287022 0.590565
O O4 0.882699 0.116402 0.645090
O O5 0.122875 0.758567 0.903316
O O6 0.088369 0.597096 0.839648
O O7 0.602487 0.342525 0.369529
O O8 0.849061 0.412155 0.315445
O O9 0.761214 0.410729 0.464478
O O10 0.608024 0.581660 0.707265
O O11 0.605631 0.520493 0.573673
O O12 0.842386 0.250000 0.250000
O O13 0.643796 0.384908 0.214321
O O14 0.555900 0.750000 0.750000
#
# Coordination Sequence:
#
# PCOD9410557 Si02
#       7
#     8   8   8   8   8   8   4
#     4  11  20  31  51  76 102 131 171 217 264 312
#     4  11  20  31  51  76 102 131 171 217 264 312
#     4  10  21  35  49  71 104 141 177 213 254 301
#     4  10  21  35  49  71 104 141 177 213 254 301
#     4   8  16  32  50  68  98 134 169 213 262 304
#     4   8  16  32  50  68  98 134 169 213 262 304
#     4  12  22  32  56  78 108 148 182 206 242 312
#
# _framework density 24.433541000000002
#
# number of rings (size 3 to 8) (size 9 to 14) (size 15 to 20)
#    0.000    2.154    1.538    5.077    0.000    6.769 
#    0.000    0.000    0.000    0.000    0.000    1.077 
#    0.000    7.385    0.000    0.000    0.000    0.000 
#
# Total GULP energy -290088.347977 kJ/mol
# GULP energy per Si atom -5578.622076 kJ/mol
# Density = 2.437793 g / cm^3
# Si number density = 24.433541 Si / 1000 Ang^3
#
#
#
# Elastic Constant Matrix: (Units=GPa)
#
#
# Indices 1 2 3 4 5 6 
#
# 1 148.7336 4.2592 85.4475 0.0000 0.0000 0.0000
# 2 4.2592 39.5598 18.8820 0.0000 0.0000 0.0000
# 3 85.4475 18.8820 263.7167 0.0000 0.0000 0.0000
# 4 0.0000 0.0000 0.0000 22.7236 0.0000 0.0000
# 5 0.0000 0.0000 0.0000 0.0000 45.8772 0.0000
# 6 0.0000 0.0000 0.0000 0.0000 0.0000 8.8673
#
#
#
# Elastic Compliance Matrix: (Units=1/GPa)
#
#
# Indices 1 2 3 4 5 6 
#
# 1 0.008267 0.000402 -0.002708 0.000000 0.000000 0.000000
# 2 0.000402 0.026192 -0.002006 0.000000 0.000000 0.000000
# 3 -0.002708 -0.002006 0.004813 0.000000 0.000000 0.000000
# 4 0.000000 0.000000 0.000000 0.044007 0.000000 0.000000
# 5 0.000000 0.000000 0.000000 0.000000 0.021797 0.000000
# 6 0.000000 0.000000 0.000000 0.000000 0.000000 0.112774
#
#
# Mechanical properties :
#
#
# Convention : Reuss Voigt Hill
#
# Bulk Modulus (GPa) = 32.62596 74.35418 53.49007
# Shear Modulus (GPa) = 21.12470 38.38837 29.75654
#
# Velocity S-wave (km/s) = 2.94356 3.96805 3.49357
# Velocity P-wave (km/s) = 4.99346 7.17574 6.18166
#
# Compressibility (1/GPa) = 0.03065044
#
# Stress axis : x y z
#
# Youngs Moduli (GPa) = 120.95709 38.17929 207.77796
#
# Poissons Ratio (x) = -0.01536 0.56257
# Poissons Ratio (y) = -0.04865 0.41674
# Poissons Ratio (z) = 0.32750 0.07658
#
# Static dielectric constant tensor:
#      x y z
#    x 1.892850 0.000000 0.000000 
#    y 0.000000 1.744610 0.000000 
#    z 0.000000 0.000000 2.104160 
# 
# From -- ./inp_files/31414.got.cif
#   From: 2010.05.17/outbox.cif.g08.bks.cpg/sg52_16_cif.got.tgz:31414.got - 2010.06.03 12:15:38.
