data_PCOD9410431
_publ_section_title
;
Structure prediction by ZEFSAII (Michael W. Deem and Ramdas Pophale) SiO2 
 PCOD9410431
Probable space group: P N N A
;
_chemical_formula_sum "Si O2"
_cell_formula_units_Z 40
_cell_length_a 5.787640
_cell_length_b 10.010233
_cell_length_c 27.922820
_cell_angle_alpha 90.000000
_cell_angle_beta 90.000000
_cell_angle_gamma 90.000000
_cell_volume 1617.726026
_symmetry_space_group_name_H-M "P N N A"
_symmetry_group_IT_number 52
_symmetry_cell_setting 'orthorhombic'
loop_
_space_group_symop_operation_xyz
x,y,z
1/2-x,-y,z
x,1/2-y,1/2-z
1/2-x,1/2+y,1/2-z
-x,-y,-z
1/2+x,y,-z
-x,1/2+y,1/2+z
1/2+x,1/2-y,1/2+z
loop_
_atom_site_type_symbol
_atom_site_label
_atom_site_fract_x
_atom_site_fract_y
_atom_site_fract_z
Si Si1 0.770967 0.200829 0.613510
Si Si2 0.250000 0.500000 0.580394
Si Si3 0.397591 0.320825 0.666035
Si Si4 0.574233 0.122665 0.300675
Si Si5 0.750000 0.500000 0.726371
Si Si6 0.250000 0.000000 0.074396
Si Si7 0.250000 0.500000 0.027765
O O1 0.546476 0.196034 0.647208
O O2 0.777731 0.360950 0.603717
O O3 0.750053 0.127779 0.563068
O O4 0.967314 0.133596 0.645580
O O5 0.278795 0.380169 0.618554
O O6 0.491936 0.495020 0.552334
O O7 0.207629 0.263127 0.700911
O O8 0.559783 0.426195 0.693472
O O9 0.750000 0.000000 0.294688
O O10 0.372767 0.101712 0.262530
O O11 0.500000 0.500000 0.000000
#
# Coordination Sequence:
#
# PCOD9410431 Si02
#       7
#     8   4   8   8   4   4   4
#     4  11  25  51  78 111 151 208 261 320 402 478
#     4  10  20  42  66 102 131 198 257 317 366 431
#     4  11  25  47  70  98 155 203 275 320 390 460
#     4  12  27  47  71 104 156 216 270 331 389 470
#     4  12  30  46  60 118 153 214 277 344 383 446
#     4  10  21  42  82 108 144 190 270 313 376 471
#     4  12  31  52  86 126 160 192 246 328 413 510
#
# _framework density 24.726067
#
# number of rings (size 3 to 8) (size 9 to 14) (size 15 to 20)
#    0.000    0.800    2.000    5.400    5.600    4.800 
#    3.600    1.000    0.000    0.000    0.000    0.000 
#    0.000    0.000    0.000    0.000    0.000    0.000 
#
# Total GULP energy -223452.545966 kJ/mol
# GULP energy per Si atom -5586.313649 kJ/mol
# Density = 2.466979 g / cm^3
# Si number density = 24.726067 Si / 1000 Ang^3
#
#
#
# Elastic Constant Matrix: (Units=GPa)
#
#
# Indices 1 2 3 4 5 6 
#
# 1 194.7558 36.6584 69.0455 0.0000 0.0000 0.0000
# 2 36.6584 129.0511 47.1529 0.0000 0.0000 0.0000
# 3 69.0455 47.1529 153.7320 0.0000 0.0000 0.0000
# 4 0.0000 0.0000 0.0000 -28.8250 0.0000 0.0000
# 5 0.0000 0.0000 0.0000 0.0000 -20.8930 0.0000
# 6 0.0000 0.0000 0.0000 0.0000 0.0000 55.4993
#
#
#
# Elastic Compliance Matrix: (Units=1/GPa)
#
#
# Indices 1 2 3 4 5 6 
#
# 1 0.006186 -0.000836 -0.002522 0.000000 0.000000 0.000000
# 2 -0.000836 0.008840 -0.002336 0.000000 0.000000 0.000000
# 3 -0.002522 -0.002336 0.008354 0.000000 0.000000 0.000000
# 4 0.000000 0.000000 0.000000 -0.034692 0.000000 0.000000
# 5 0.000000 0.000000 0.000000 0.000000 -0.047863 0.000000
# 6 0.000000 0.000000 0.000000 0.000000 0.000000 0.018018
#
#
# Mechanical properties :
#
#
# Convention : Reuss Voigt Hill
#
# Bulk Modulus (GPa) = 83.38600 87.02805 85.20703
# Shear Modulus (GPa) = -194.00939 22.80174 -85.60383
#
# Velocity S-wave (km/s) = -8.86757 3.04003 -5.89033
# Velocity P-wave (km/s) = 8.42900 6.89896 3.42435
#
# Compressibility (1/GPa) = 0.01199242
#
# Stress axis : x y z
#
# Youngs Moduli (GPa) = 161.65406 113.12470 119.70265
#
# Poissons Ratio (x) = 0.09454 0.30189
# Poissons Ratio (y) = 0.13510 0.27963
# Poissons Ratio (z) = 0.40769 0.26426
#
# Static dielectric constant tensor:
#      x y z
#    x 2.110660 0.000000 0.000000 
#    y 0.000000 2.018920 0.000000 
#    z 0.000000 0.000000 1.890130 
# 
# From -- ./inp_files/41542.got.cif
#   From: 2010.05.17/outbox.cif.g08.bks.cpg/sg52_21_cif.got.tgz:41542.got - 2010.06.03 12:15:38.
