data_PCOD9410144
_publ_section_title
;
Structure prediction by ZEFSAII (Michael W. Deem and Ramdas Pophale) SiO2 
 PCOD9410144
Probable space group: P N N A
;
_chemical_formula_sum "Si O2"
_cell_formula_units_Z 56
_cell_length_a 15.545154
_cell_length_b 19.534549
_cell_length_c 8.437170
_cell_angle_alpha 90.000000
_cell_angle_beta 90.000000
_cell_angle_gamma 90.000000
_cell_volume 2562.094933
_symmetry_space_group_name_H-M "P N N A"
_symmetry_group_IT_number 52
_symmetry_cell_setting 'orthorhombic'
loop_
_space_group_symop_operation_xyz
x,y,z
1/2-x,-y,z
x,1/2-y,1/2-z
1/2-x,1/2+y,1/2-z
-x,-y,-z
1/2+x,y,-z
-x,1/2+y,1/2+z
1/2+x,1/2-y,1/2+z
loop_
_atom_site_type_symbol
_atom_site_label
_atom_site_fract_x
_atom_site_fract_y
_atom_site_fract_z
Si Si1 0.113940 0.574606 0.696118
Si Si2 0.042751 0.324534 0.702651
Si Si3 0.666286 0.953707 0.841644
Si Si4 0.999883 0.031217 0.672739
Si Si5 0.961392 0.674970 0.680687
Si Si6 0.262922 0.675053 0.312243
Si Si7 0.243077 0.176273 0.804683
O O1 0.126133 0.568986 0.508163
O O2 0.086283 0.499422 0.749238
O O3 0.032593 0.621914 0.738661
O O4 0.199004 0.613371 0.755321
O O5 0.008534 0.250000 0.750000
O O6 0.000660 0.387654 0.794822
O O7 0.144059 0.327447 0.746932
O O8 0.035700 0.328914 0.511664
O O9 0.589585 0.991737 0.753113
O O10 0.701721 0.885830 0.755069
O O11 0.750000 0.000000 0.870924
O O12 0.000000 0.000000 0.500000
O O13 0.981683 0.750000 0.750000
O O14 0.862693 0.661140 0.729764
O O15 0.239724 0.750000 0.250000
O O16 0.257359 0.675276 0.503783
O O17 0.278312 0.250000 0.750000
#
# Coordination Sequence:
#
# PCOD9410144 Si02
#       7
#     8   8   8   8   8   8   8
#     4  11  23  40  69  93 131 168 228 278 334 411
#     4  10  23  44  65  91 136 177 221 275 343 411
#     4  11  24  44  67  94 131 179 226 280 343 417
#     4  12  28  45  64  99 138 183 227 290 351 413
#     4  10  20  38  68 100 128 172 219 280 337 405
#     4   9  20  37  63  94 126 167 213 269 333 394
#     4   9  20  39  62  95 125 170 219 267 332 410
#
# _framework density 21.857112999999998
#
# number of rings (size 3 to 8) (size 9 to 14) (size 15 to 20)
#    0.000    1.714    1.429    1.714    8.000    1.714 
#    7.714    0.000    0.000    0.000    0.000    0.000 
#    0.000    0.000    0.000    0.000    0.000    0.000 
#
# Total GULP energy -312778.682732 kJ/mol
# GULP energy per Si atom -5585.333620 kJ/mol
# Density = 2.180737 g / cm^3
# Si number density = 21.857113 Si / 1000 Ang^3
#
#
#
# Elastic Constant Matrix: (Units=GPa)
#
#
# Indices 1 2 3 4 5 6 
#
# 1 80.8518 38.6509 11.9752 0.0000 0.0000 0.0000
# 2 38.6509 122.7730 10.4889 0.0000 0.0000 0.0000
# 3 11.9752 10.4889 25.1409 0.0000 0.0000 0.0000
# 4 0.0000 0.0000 0.0000 33.5866 0.0000 0.0000
# 5 0.0000 0.0000 0.0000 0.0000 9.8449 0.0000
# 6 0.0000 0.0000 0.0000 0.0000 0.0000 48.1767
#
#
#
# Elastic Compliance Matrix: (Units=1/GPa)
#
#
# Indices 1 2 3 4 5 6 
#
# 1 0.015248 -0.004334 -0.005455 0.000000 0.000000 0.000000
# 2 -0.004334 0.009678 -0.001973 0.000000 0.000000 0.000000
# 3 -0.005455 -0.001973 0.043197 0.000000 0.000000 0.000000
# 4 0.000000 0.000000 0.000000 0.029774 0.000000 0.000000
# 5 0.000000 0.000000 0.000000 0.000000 0.101576 0.000000
# 6 0.000000 0.000000 0.000000 0.000000 0.000000 0.020757
#
#
# Mechanical properties :
#
#
# Convention : Reuss Voigt Hill
#
# Bulk Modulus (GPa) = 22.42203 38.99951 30.71077
# Shear Modulus (GPa) = 19.33329 29.49836 24.41582
#
# Velocity S-wave (km/s) = 2.97733 3.67768 3.34588
# Velocity P-wave (km/s) = 4.70107 5.99295 5.38588
#
# Compressibility (1/GPa) = 0.04459900
#
# Stress axis : x y z
#
# Youngs Moduli (GPa) = 65.58126 103.32473 23.14959
#
# Poissons Ratio (x) = 0.44785 0.12628
# Poissons Ratio (y) = 0.28425 0.04568
# Poissons Ratio (z) = 0.35773 0.20388
#
# Static dielectric constant tensor:
#      x y z
#    x 1.808500 0.000000 0.000000 
#    y 0.000000 1.886000 0.000000 
#    z 0.000000 0.000000 1.791160 
# 
# From -- ./inp_files/10830.got.cif
#   From: 2010.05.17/outbox.cif.g08.bks.cpg/sg52_6_cif.got.tgz:10830.got - 2010.06.03 12:15:38.
