data_PCOD9410081
_publ_section_title
;
Structure prediction by ZEFSAII (Michael W. Deem and Ramdas Pophale) SiO2 
 PCOD9410081
Probable space group: P N N A
;
_chemical_formula_sum "Si O2"
_cell_formula_units_Z 52
_cell_length_a 19.552535
_cell_length_b 7.214766
_cell_length_c 15.149458
_cell_angle_alpha 90.000000
_cell_angle_beta 90.000000
_cell_angle_gamma 90.000000
_cell_volume 2137.088057
_symmetry_space_group_name_H-M "P N N A"
_symmetry_group_IT_number 52
_symmetry_cell_setting 'orthorhombic'
loop_
_space_group_symop_operation_xyz
x,y,z
1/2-x,-y,z
x,1/2-y,1/2-z
1/2-x,1/2+y,1/2-z
-x,-y,-z
1/2+x,y,-z
-x,1/2+y,1/2+z
1/2+x,1/2-y,1/2+z
loop_
_atom_site_type_symbol
_atom_site_label
_atom_site_fract_x
_atom_site_fract_y
_atom_site_fract_z
Si Si1 0.894014 0.721739 0.647228
Si Si2 0.753824 0.274492 0.385863
Si Si3 0.744846 0.725529 0.589810
Si Si4 0.594449 0.719541 0.648780
Si Si5 0.602498 0.645226 0.325349
Si Si6 0.141499 0.250000 0.750000
Si Si7 0.009453 0.717399 0.514293
O O1 0.911765 0.750000 0.750000
O O2 0.815838 0.787614 0.633846
O O3 0.898979 0.500534 0.634551
O O4 0.943800 0.793857 0.568163
O O5 0.750000 0.500000 0.386910
O O6 0.754175 0.217927 0.487217
O O7 0.824667 0.254165 0.336258
O O8 0.692378 0.189238 0.329354
O O9 0.750000 0.500000 0.592971
O O10 0.672552 0.786476 0.631565
O O11 0.574487 0.750000 0.750000
O O12 0.537874 0.792536 0.578940
O O13 0.561754 0.750000 0.250000
O O14 0.605058 0.429116 0.295022
O O15 0.570568 0.703399 0.417014
O O16 0.000000 0.500000 0.500000
#
# Coordination Sequence:
#
# PCOD9410081 Si02
#       7
#     8   8   8   8   8   4   8
#     4  10  21  38  60  86 118 157 204 256 314 378
#     4   9  17  31  56  88 122 159 203 255 309 374
#     4   9  17  33  61  85 115 160 204 254 315 372
#     4  10  20  38  63  88 115 156 213 255 313 386
#     4  11  21  39  64  89 133 170 206 265 323 382
#     4  10  22  34  60 100 124 162 222 248 316 396
#     4  10  22  40  62  85 121 171 208 250 325 393
#
# _framework density 24.332173000000001
#
# number of rings (size 3 to 8) (size 9 to 14) (size 15 to 20)
#    0.000    2.154    2.308    0.923    6.462    0.000 
#    5.538    2.308    3.385    0.000    0.000    0.000 
#    0.000    0.000    0.000    0.000    0.000    0.000 
#
# Total GULP energy -290002.336419 kJ/mol
# GULP energy per Si atom -5576.968008 kJ/mol
# Density = 2.427679 g / cm^3
# Si number density = 24.332173 Si / 1000 Ang^3
#
#
#
# Elastic Constant Matrix: (Units=GPa)
#
#
# Indices 1 2 3 4 5 6 
#
# 1 129.5147 1.1683 79.0386 0.0000 0.0000 0.0000
# 2 1.1683 90.0351 -8.1289 0.0000 0.0000 0.0000
# 3 79.0386 -8.1289 198.6617 0.0000 0.0000 0.0000
# 4 0.0000 0.0000 0.0000 27.3517 0.0000 0.0000
# 5 0.0000 0.0000 0.0000 0.0000 -15.2941 0.0000
# 6 0.0000 0.0000 0.0000 0.0000 0.0000 -95.6052
#
#
#
# Elastic Compliance Matrix: (Units=1/GPa)
#
#
# Indices 1 2 3 4 5 6 
#
# 1 0.010219 -0.000502 -0.004086 0.000000 0.000000 0.000000
# 2 -0.000502 0.011173 0.000657 0.000000 0.000000 0.000000
# 3 -0.004086 0.000657 0.006686 0.000000 0.000000 0.000000
# 4 0.000000 0.000000 0.000000 0.036561 0.000000 0.000000
# 5 0.000000 0.000000 0.000000 0.000000 -0.065385 0.000000
# 6 0.000000 0.000000 0.000000 0.000000 0.000000 -0.010460
#
#
# Mechanical properties :
#
#
# Convention : Reuss Voigt Hill
#
# Bulk Modulus (GPa) = 49.46598 62.48528 55.97563
# Shear Modulus (GPa) = 1472.44243 6.36606 739.40425
#
# Velocity S-wave (km/s) = 24.62633 1.61926 17.45104
# Velocity P-wave (km/s) = 28.79204 5.40665 20.71489
#
# Compressibility (1/GPa) = 0.02021591
#
# Stress axis : x y z
#
# Youngs Moduli (GPa) = 97.85270 89.50488 149.55859
#
# Poissons Ratio (x) = 0.04489 0.61115
# Poissons Ratio (y) = 0.04908 -0.09822
# Poissons Ratio (z) = 0.39986 -0.05878
#
# Static dielectric constant tensor:
#      x y z
#    x 1.944920 0.000000 0.000000 
#    y 0.000000 1.994160 0.000000 
#    z 0.000000 0.000000 5.615180 
# 
# From -- ./inp_files/28691.got.cif
#   From: 2010.05.17/outbox.cif.g08.bks.cpg/sg52_15_cif.got.tgz:28691.got - 2010.06.03 12:15:38.
