data_PCOD9410184
_publ_section_title
;
Structure prediction by ZEFSAII (Michael W. Deem and Ramdas Pophale) SiO2 
 PCOD9410184
Probable space group: P N N A
;
_chemical_formula_sum "Si O2"
_cell_formula_units_Z 60
_cell_length_a 9.606874
_cell_length_b 28.623312
_cell_length_c 10.970456
_cell_angle_alpha 90.000000
_cell_angle_beta 90.000000
_cell_angle_gamma 90.000000
_cell_volume 3016.662045
_symmetry_space_group_name_H-M "P N N A"
_symmetry_group_IT_number 52
_symmetry_cell_setting 'orthorhombic'
loop_
_space_group_symop_operation_xyz
x,y,z
1/2-x,-y,z
x,1/2-y,1/2-z
1/2-x,1/2+y,1/2-z
-x,-y,-z
1/2+x,y,-z
-x,1/2+y,1/2+z
1/2+x,1/2-y,1/2+z
loop_
_atom_site_type_symbol
_atom_site_label
_atom_site_fract_x
_atom_site_fract_y
_atom_site_fract_z
Si Si1 0.212964 0.051257 0.356565
Si Si2 0.796243 0.907266 0.398430
Si Si3 0.000731 0.567106 0.538105
Si Si4 0.870779 0.683999 0.943835
Si Si5 0.545396 0.604424 0.735574
Si Si6 0.928556 0.291965 0.842964
Si Si7 0.250000 0.000000 0.989470
Si Si8 0.519332 0.614506 0.226160
O O1 0.247265 0.055702 0.499758
O O2 0.305382 0.087024 0.279493
O O3 0.057944 0.069957 0.336021
O O4 0.250000 0.000000 0.313596
O O5 0.822330 0.861320 0.479787
O O6 0.679326 0.892805 0.303913
O O7 0.933802 0.920016 0.324846
O O8 0.862493 0.535041 0.551469
O O9 0.016630 0.587051 0.401291
O O10 0.137007 0.535449 0.571008
O O11 0.992238 0.609564 0.631624
O O12 0.730937 0.707167 0.892024
O O13 0.962102 0.661486 0.835229
O O14 0.969030 0.710867 0.039758
O O15 0.541097 0.659357 0.770037
O O16 0.949784 0.250000 0.750000
#
# Coordination Sequence:
#
# PCOD9410184 Si02
#       8
#     8   8   8   8   8   8   4   8
#     4  11  23  37  59  90 127 172 223 271 322 385
#     4  10  20  39  61  91 125 171 211 267 324 385
#     4  11  24  40  60  88 127 183 225 269 330 387
#     4  10  20  44  70  97 134 169 213 268 343 393
#     4  11  23  41  65  92 131 170 220 273 332 400
#     4  11  23  46  75 100 133 173 216 283 344 408
#     4  10  24  40  54  84 132 180 226 274 314 382
#     4  11  21  38  66  87 128 178 216 264 329 394
#
# _framework density 19.889534000000001
#
# number of rings (size 3 to 8) (size 9 to 14) (size 15 to 20)
#    0.000    1.333    4.000    3.200    5.600    2.133 
#    4.800    2.000    0.000    0.000    0.000    0.000 
#    0.000    0.000    0.000    0.000    0.000    0.000 
#
# Total GULP energy -334682.395570 kJ/mol
# GULP energy per Si atom -5578.039926 kJ/mol
# Density = 1.984426 g / cm^3
# Si number density = 19.889534 Si / 1000 Ang^3
#
#
#
# Elastic Constant Matrix: (Units=GPa)
#
#
# Indices 1 2 3 4 5 6 
#
# 1 87.8981 11.0727 20.9821 0.0000 0.0000 0.0000
# 2 11.0727 64.8380 41.2442 0.0000 0.0000 0.0000
# 3 20.9821 41.2442 135.0443 0.0000 0.0000 0.0000
# 4 0.0000 0.0000 0.0000 27.4095 0.0000 0.0000
# 5 0.0000 0.0000 0.0000 0.0000 12.4424 0.0000
# 6 0.0000 0.0000 0.0000 0.0000 0.0000 12.8763
#
#
#
# Elastic Compliance Matrix: (Units=1/GPa)
#
#
# Indices 1 2 3 4 5 6 
#
# 1 0.011873 -0.001060 -0.001521 0.000000 0.000000 0.000000
# 2 -0.001060 0.019237 -0.005710 0.000000 0.000000 0.000000
# 3 -0.001521 -0.005710 0.009385 0.000000 0.000000 0.000000
# 4 0.000000 0.000000 0.000000 0.036484 0.000000 0.000000
# 5 0.000000 0.000000 0.000000 0.000000 0.080370 0.000000
# 6 0.000000 0.000000 0.000000 0.000000 0.000000 0.077662
#
#
# Mechanical properties :
#
#
# Convention : Reuss Voigt Hill
#
# Bulk Modulus (GPa) = 41.81958 48.26426 45.04192
# Shear Modulus (GPa) = 19.26298 24.84440 22.05369
#
# Velocity S-wave (km/s) = 3.11545 3.53812 3.33349
# Velocity P-wave (km/s) = 5.83206 6.40390 6.12466
#
# Compressibility (1/GPa) = 0.02391224
#
# Stress axis : x y z
#
# Youngs Moduli (GPa) = 84.22158 51.98445 106.54941
#
# Poissons Ratio (x) = 0.05511 0.16206
# Poissons Ratio (y) = 0.08929 0.60844
# Poissons Ratio (z) = 0.12810 0.29685
#
# Static dielectric constant tensor:
#      x y z
#    x 1.695440 0.000000 0.000000 
#    y 0.000000 1.691280 0.000000 
#    z 0.000000 0.000000 1.733610 
# 
# From -- ./inp_files/17152.got.cif
#   From: 2010.05.17/outbox.cif.g08.bks.cpg/sg52_9_cif.got.tgz:17152.got - 2010.06.03 12:15:38.
