data_PCOD9410065
_publ_section_title
;
Structure prediction by ZEFSAII (Michael W. Deem and Ramdas Pophale) SiO2 
 PCOD9410065
Probable space group: P N N A
;
_chemical_formula_sum "Si O2"
_cell_formula_units_Z 48
_cell_length_a 5.518579
_cell_length_b 14.021929
_cell_length_c 30.232243
_cell_angle_alpha 90.000000
_cell_angle_beta 90.000000
_cell_angle_gamma 90.000000
_cell_volume 2339.404912
_symmetry_space_group_name_H-M "P N N A"
_symmetry_group_IT_number 52
_symmetry_cell_setting 'orthorhombic'
loop_
_space_group_symop_operation_xyz
x,y,z
1/2-x,-y,z
x,1/2-y,1/2-z
1/2-x,1/2+y,1/2-z
-x,-y,-z
1/2+x,y,-z
-x,1/2+y,1/2+z
1/2+x,1/2-y,1/2+z
loop_
_atom_site_type_symbol
_atom_site_label
_atom_site_fract_x
_atom_site_fract_y
_atom_site_fract_z
Si Si1 0.533944 0.676277 0.320846
Si Si2 0.421064 0.643612 0.612265
Si Si3 0.492985 0.055617 0.410956
Si Si4 0.845696 0.181923 0.667761
Si Si5 0.617712 0.250000 0.250000
Si Si6 0.750000 0.500000 0.659457
Si Si7 0.456179 0.757995 0.527554
O O1 0.653139 0.651863 0.367952
O O2 0.429008 0.783475 0.325292
O O3 0.723313 0.682293 0.281271
O O4 0.351529 0.589014 0.312508
O O5 0.555215 0.728847 0.638853
O O6 0.545775 0.547509 0.628601
O O7 0.443726 0.668989 0.561306
O O8 0.415133 0.092917 0.362125
O O9 0.537308 0.146249 0.442623
O O10 0.250000 0.000000 0.427216
O O11 0.750000 0.000000 0.409374
O O12 0.962132 0.187647 0.715942
O O13 0.708615 0.757027 0.500730
#
# Coordination Sequence:
#
# PCOD9410065 Si02
#       7
#     8   8   8   8   4   4   8
#     4  10  20  38  67  88 125 170 216 266 326 389
#     4   9  21  38  65  88 126 165 212 255 324 389
#     4  11  25  42  67  95 133 174 217 271 328 391
#     4   9  21  38  62  88 122 174 215 262 319 392
#     4  10  20  38  62  90 124 168 214 266 318 380
#     4  10  20  38  64  98 118 170 214 266 318 402
#     4  11  25  42  68  99 130 170 216 269 330 394
#
# _framework density 20.518039000000002
#
# number of rings (size 3 to 8) (size 9 to 14) (size 15 to 20)
#    0.000    2.000    0.000    2.000   14.000    2.000 
#    0.000    7.500    7.333    0.000    0.000    0.000 
#    0.000    0.000    0.000    0.000    0.000    0.000 
#
# Total GULP energy -267557.976943 kJ/mol
# GULP energy per Si atom -5574.124520 kJ/mol
# Density = 2.047134 g / cm^3
# Si number density = 20.518039 Si / 1000 Ang^3
#
#
#
# Elastic Constant Matrix: (Units=GPa)
#
#
# Indices 1 2 3 4 5 6 
#
# 1 116.8565 29.2353 49.9645 0.0000 0.0000 0.0000
# 2 29.2353 53.7942 20.0662 0.0000 0.0000 0.0000
# 3 49.9645 20.0662 118.7944 0.0000 0.0000 0.0000
# 4 0.0000 0.0000 0.0000 19.3929 0.0000 0.0000
# 5 0.0000 0.0000 0.0000 0.0000 18.6369 0.0000
# 6 0.0000 0.0000 0.0000 0.0000 0.0000 25.1350
#
#
#
# Elastic Compliance Matrix: (Units=1/GPa)
#
#
# Indices 1 2 3 4 5 6 
#
# 1 0.011460 -0.004728 -0.004021 0.000000 0.000000 0.000000
# 2 -0.004728 0.021790 -0.001692 0.000000 0.000000 0.000000
# 3 -0.004021 -0.001692 0.010395 0.000000 0.000000 0.000000
# 4 0.000000 0.000000 0.000000 0.051565 0.000000 0.000000
# 5 0.000000 0.000000 0.000000 0.000000 0.053657 0.000000
# 6 0.000000 0.000000 0.000000 0.000000 0.000000 0.039785
#
#
# Mechanical properties :
#
#
# Convention : Reuss Voigt Hill
#
# Bulk Modulus (GPa) = 43.93265 54.21968 49.07616
# Shear Modulus (GPa) = 23.02849 25.31156 24.17003
#
# Velocity S-wave (km/s) = 3.35379 3.51611 3.43591
# Velocity P-wave (km/s) = 6.03783 6.55491 6.30167
#
# Compressibility (1/GPa) = 0.02276212
#
# Stress axis : x y z
#
# Youngs Moduli (GPa) = 87.26189 45.89250 96.19938
#
# Poissons Ratio (x) = 0.21698 0.38685
# Poissons Ratio (y) = 0.41257 0.16278
# Poissons Ratio (z) = 0.35091 0.07765
#
# Static dielectric constant tensor:
#      x y z
#    x 1.866280 0.000000 0.000000 
#    y 0.000000 1.739380 0.000000 
#    z 0.000000 0.000000 1.716680 
# 
# From -- ./inp_files/41716.got.cif
#   From: 2010.05.17/outbox.cif.g08.bks.cpg/sg52_21_cif.got.tgz:41716.got - 2010.06.03 12:15:38.
