data_PCOD9410476
_publ_section_title
;
Structure prediction by ZEFSAII (Michael W. Deem and Ramdas Pophale) SiO2 
 PCOD9410476
Probable space group: P N N A
;
_chemical_formula_sum "Si O2"
_cell_formula_units_Z 40
_cell_length_a 24.507499
_cell_length_b 7.569744
_cell_length_c 9.314132
_cell_angle_alpha 90.000000
_cell_angle_beta 90.000000
_cell_angle_gamma 90.000000
_cell_volume 1727.915795
_symmetry_space_group_name_H-M "P N N A"
_symmetry_group_IT_number 52
_symmetry_cell_setting 'orthorhombic'
loop_
_space_group_symop_operation_xyz
x,y,z
1/2-x,-y,z
x,1/2-y,1/2-z
1/2-x,1/2+y,1/2-z
-x,-y,-z
1/2+x,y,-z
-x,1/2+y,1/2+z
1/2+x,1/2-y,1/2+z
loop_
_atom_site_type_symbol
_atom_site_label
_atom_site_fract_x
_atom_site_fract_y
_atom_site_fract_z
Si Si1 0.399120 0.433813 0.680117
Si Si2 0.306460 0.250000 0.250000
Si Si3 0.317993 0.750000 0.750000
Si Si4 0.721068 0.303862 0.542451
Si Si5 0.886819 0.957698 0.856020
Si Si6 0.010894 0.548032 0.175219
O O1 0.380798 0.250000 0.750000
O O2 0.356238 0.582664 0.723533
O O3 0.405692 0.453319 0.507547
O O4 0.456745 0.475981 0.751276
O O5 0.263954 0.193675 0.369611
O O6 0.345805 0.093286 0.214700
O O7 0.280937 0.770722 0.614096
O O8 0.750000 0.500000 0.541380
O O9 0.657789 0.307849 0.597258
O O10 0.936865 0.945786 0.743746
O O11 0.016336 0.750000 0.250000
O O12 0.000000 0.500000 0.000000
#
# Coordination Sequence:
#
# PCOD9410476 Si02
#       6
#     8   4   4   8   8   8
#     4  11  24  46  73 107 148 192 242 301 377 453
#     4  10  20  43  66  96 138 185 250 288 370 432
#     4  10  22  47  72 102 150 181 246 300 376 438
#     4   9  21  43  66 102 136 189 243 300 363 437
#     4  10  22  44  69  97 146 190 240 305 369 441
#     4  12  25  45  75 111 147 196 251 304 385 466
#
# _framework density 23.149274999999999
#
# number of rings (size 3 to 8) (size 9 to 14) (size 15 to 20)
#    0.000    1.600    2.000    1.800    0.000    1.600 
#   25.200    0.000    0.000    0.000    0.000    0.000 
#    0.000    0.000    0.000    0.000    0.000    0.000 
#
# Total GULP energy -222884.654235 kJ/mol
# GULP energy per Si atom -5572.116356 kJ/mol
# Density = 2.309659 g / cm^3
# Si number density = 23.149275 Si / 1000 Ang^3
#
#
#
# Elastic Constant Matrix: (Units=GPa)
#
#
# Indices 1 2 3 4 5 6 
#
# 1 124.5742 10.0519 109.3643 0.0000 0.0000 0.0000
# 2 10.0519 94.6691 43.5618 0.0000 0.0000 0.0000
# 3 109.3643 43.5618 225.5567 0.0000 0.0000 0.0000
# 4 0.0000 0.0000 0.0000 17.1275 0.0000 0.0000
# 5 0.0000 0.0000 0.0000 0.0000 53.3129 0.0000
# 6 0.0000 0.0000 0.0000 0.0000 0.0000 6.2911
#
#
#
# Elastic Compliance Matrix: (Units=1/GPa)
#
#
# Indices 1 2 3 4 5 6 
#
# 1 0.014260 0.001830 -0.007268 0.000000 0.000000 0.000000
# 2 0.001830 0.011828 -0.003172 0.000000 0.000000 0.000000
# 3 -0.007268 -0.003172 0.008570 0.000000 0.000000 0.000000
# 4 0.000000 0.000000 0.000000 0.058386 0.000000 0.000000
# 5 0.000000 0.000000 0.000000 0.000000 0.018757 0.000000
# 6 0.000000 0.000000 0.000000 0.000000 0.000000 0.158956
#
#
# Mechanical properties :
#
#
# Convention : Reuss Voigt Hill
#
# Bulk Modulus (GPa) = 57.34107 85.63954 71.49030
# Shear Modulus (GPa) = 17.01907 34.13444 25.57676
#
# Velocity S-wave (km/s) = 2.71438 3.84413 3.32755
# Velocity P-wave (km/s) = 5.88623 7.53511 6.76113
#
# Compressibility (1/GPa) = 0.01743951
#
# Stress axis : x y z
#
# Youngs Moduli (GPa) = 70.12680 84.54337 116.68903
#
# Poissons Ratio (x) = -0.15472 0.84804
# Poissons Ratio (y) = -0.12833 0.37010
# Poissons Ratio (z) = 0.50965 0.26815
#
# Static dielectric constant tensor:
#      x y z
#    x 2.150440 0.000000 0.000000 
#    y 0.000000 1.987780 0.000000 
#    z 0.000000 0.000000 1.949760 
# 
# From -- ./inp_files/14050.got.cif
#   From: 2010.05.17/outbox.cif.g08.bks.cpg/sg52_8_cif.got.tgz:14050.got - 2010.06.03 12:15:38.
