data_PCOD9410161
_publ_section_title
;
Structure prediction by ZEFSAII (Michael W. Deem and Ramdas Pophale) SiO2 
 PCOD9410161
Probable space group: P N N A
;
_chemical_formula_sum "Si O2"
_cell_formula_units_Z 40
_cell_length_a 9.147234
_cell_length_b 9.127912
_cell_length_c 24.173628
_cell_angle_alpha 90.000000
_cell_angle_beta 90.000000
_cell_angle_gamma 90.000000
_cell_volume 2018.380623
_symmetry_space_group_name_H-M "P N N A"
_symmetry_group_IT_number 52
_symmetry_cell_setting 'orthorhombic'
loop_
_space_group_symop_operation_xyz
x,y,z
1/2-x,-y,z
x,1/2-y,1/2-z
1/2-x,1/2+y,1/2-z
-x,-y,-z
1/2+x,y,-z
-x,1/2+y,1/2+z
1/2+x,1/2-y,1/2+z
loop_
_atom_site_type_symbol
_atom_site_label
_atom_site_fract_x
_atom_site_fract_y
_atom_site_fract_z
Si Si1 0.672211 0.659635 0.693792
Si Si2 0.403895 0.747289 0.394376
Si Si3 0.211475 0.164915 0.988459
Si Si4 0.095810 0.579952 0.953012
Si Si5 0.413924 0.948927 0.876987
O O1 0.750000 0.500000 0.701837
O O2 0.666647 0.750000 0.750000
O O3 0.774332 0.743386 0.649376
O O4 0.511869 0.637460 0.666964
O O5 0.343810 0.742176 0.456739
O O6 0.505625 0.891013 0.396880
O O7 0.495025 0.597965 0.386175
O O8 0.351769 0.258234 0.971295
O O9 0.108713 0.142162 0.934398
O O10 0.250000 0.000000 0.004985
O O11 0.250000 0.500000 0.944590
O O12 0.000000 0.500000 0.000000
O O13 0.250000 0.000000 0.860748
#
# Coordination Sequence:
#
# PCOD9410161 Si02
#       5
#     8   8   8   8   8
#     4  10  24  47  69  95 127 176 231 277 330 397
#     4  11  22  40  65  94 132 177 220 270 321 408
#     4  11  21  37  66  98 128 171 217 263 334 406
#     4  12  25  38  55  96 149 174 208 269 344 406
#     4  10  20  38  71  99 125 158 225 277 321 394
#
# _framework density 19.817868000000001
#
# number of rings (size 3 to 8) (size 9 to 14) (size 15 to 20)
#    0.000    1.200    6.000    2.400    2.800    0.000 
#    7.200    4.000    0.000    0.000    0.000    0.000 
#    0.000    0.000    0.000    0.000    0.000    0.000 
#
# Total GULP energy -223149.220375 kJ/mol
# GULP energy per Si atom -5578.730509 kJ/mol
# Density = 1.977276 g / cm^3
# Si number density = 19.817868 Si / 1000 Ang^3
#
#
#
# Elastic Constant Matrix: (Units=GPa)
#
#
# Indices 1 2 3 4 5 6 
#
# 1 129.4788 22.9374 92.8657 0.0000 0.0000 0.0000
# 2 22.9374 51.5303 36.8254 0.0000 0.0000 0.0000
# 3 92.8657 36.8254 136.0790 0.0000 0.0000 0.0000
# 4 0.0000 0.0000 0.0000 35.9240 0.0000 0.0000
# 5 0.0000 0.0000 0.0000 0.0000 23.2426 0.0000
# 6 0.0000 0.0000 0.0000 0.0000 0.0000 28.5394
#
#
#
# Elastic Compliance Matrix: (Units=1/GPa)
#
#
# Indices 1 2 3 4 5 6 
#
# 1 0.015154 0.000800 -0.010558 0.000000 0.000000 0.000000
# 2 0.000800 0.024101 -0.007068 0.000000 0.000000 0.000000
# 3 -0.010558 -0.007068 0.016467 0.000000 0.000000 0.000000
# 4 0.000000 0.000000 0.000000 0.027837 0.000000 0.000000
# 5 0.000000 0.000000 0.000000 0.000000 0.043024 0.000000
# 6 0.000000 0.000000 0.000000 0.000000 0.000000 0.035039
#
#
# Mechanical properties :
#
#
# Convention : Reuss Voigt Hill
#
# Bulk Modulus (GPa) = 45.31210 69.14947 57.23079
# Shear Modulus (GPa) = 24.67525 28.50515 26.59020
#
# Velocity S-wave (km/s) = 3.53243 3.79668 3.66694
# Velocity P-wave (km/s) = 6.28898 7.36125 6.84614
#
# Compressibility (1/GPa) = 0.02206916
#
# Stress axis : x y z
#
# Youngs Moduli (GPa) = 65.98776 41.49190 60.72802
#
# Poissons Ratio (x) = -0.03319 0.64119
# Poissons Ratio (y) = -0.05278 0.42923
# Poissons Ratio (z) = 0.69672 0.29327
#
# Static dielectric constant tensor:
#      x y z
#    x 5.520580 0.000000 0.000000 
#    y 0.000000 0.421210 0.000000 
#    z 0.000000 0.000000 1.670830 
# 
# From -- ./inp_files/39228.got.cif
#   From: 2010.05.17/outbox.cif.g08.bks.cpg/sg52_20_cif.got.tgz:39228.got - 2010.06.03 12:15:38.
