data_PCOD9410249
_publ_section_title
;
Structure prediction by ZEFSAII (Michael W. Deem and Ramdas Pophale) SiO2 
 PCOD9410249
Probable space group: P N N A
;
_chemical_formula_sum "Si O2"
_cell_formula_units_Z 48
_cell_length_a 17.755743
_cell_length_b 20.712171
_cell_length_c 5.380485
_cell_angle_alpha 90.000000
_cell_angle_beta 90.000000
_cell_angle_gamma 90.000000
_cell_volume 1978.727084
_symmetry_space_group_name_H-M "P N N A"
_symmetry_group_IT_number 52
_symmetry_cell_setting 'orthorhombic'
loop_
_space_group_symop_operation_xyz
x,y,z
1/2-x,-y,z
x,1/2-y,1/2-z
1/2-x,1/2+y,1/2-z
-x,-y,-z
1/2+x,y,-z
-x,1/2+y,1/2+z
1/2+x,1/2-y,1/2+z
loop_
_atom_site_type_symbol
_atom_site_label
_atom_site_fract_x
_atom_site_fract_y
_atom_site_fract_z
Si Si1 0.009734 0.767484 0.990951
Si Si2 0.352613 0.911483 0.713260
Si Si3 0.839767 0.050517 0.101570
Si Si4 0.138142 0.840539 0.505835
Si Si5 0.974462 0.407664 0.660907
Si Si6 0.772157 0.877182 0.794096
O O1 0.962829 0.750000 0.750000
O O2 0.085915 0.723423 0.977149
O O3 0.971934 0.750000 0.250000
O O4 0.026381 0.842455 0.995568
O O5 0.442158 0.914839 0.741790
O O6 0.326249 0.889549 0.440992
O O7 0.325564 0.985152 0.751693
O O8 0.320475 0.870197 0.950746
O O9 0.832651 0.117481 0.259817
O O10 0.924940 0.042947 0.996476
O O11 0.783565 0.063860 0.872609
O O12 0.078430 0.890605 0.391338
O O13 0.208397 0.829072 0.319598
#
# Coordination Sequence:
#
# PCOD9410249 Si02
#       6
#     8   8   8   8   8   8
#     4  10  20  39  69  94 120 168 225 288 323 385
#     4  12  27  40  67 101 149 177 221 289 350 416
#     4  11  23  41  68 100 137 188 232 269 339 423
#     4  10  22  42  71  97 130 179 242 275 331 417
#     4  10  24  42  67 102 136 177 231 288 348 402
#     4  11  26  42  64  98 140 187 224 274 344 412
#
# _framework density 24.258016999999999
#
# number of rings (size 3 to 8) (size 9 to 14) (size 15 to 20)
#    0.000    1.333    3.333    1.000    9.333    0.667 
#    0.000    0.000    0.000   40.000    0.000    0.000 
#    0.000    0.000    0.000    0.000    0.000    0.000 
#
# Total GULP energy -267575.458977 kJ/mol
# GULP energy per Si atom -5574.488729 kJ/mol
# Density = 2.420281 g / cm^3
# Si number density = 24.258017 Si / 1000 Ang^3
#
#
#
# Elastic Constant Matrix: (Units=GPa)
#
#
# Indices 1 2 3 4 5 6 
#
# 1 118.1607 -11.6568 40.6608 0.0000 0.0000 0.0000
# 2 -11.6568 41.7899 5.4464 0.0000 0.0000 0.0000
# 3 40.6608 5.4464 166.9723 0.0000 0.0000 0.0000
# 4 0.0000 0.0000 0.0000 -919.9747 0.0000 0.0000
# 5 0.0000 0.0000 0.0000 0.0000 27.7892 0.0000
# 6 0.0000 0.0000 0.0000 0.0000 0.0000 13.1807
#
#
#
# Elastic Compliance Matrix: (Units=1/GPa)
#
#
# Indices 1 2 3 4 5 6 
#
# 1 0.009596 0.002994 -0.002435 0.000000 0.000000 0.000000
# 2 0.002994 0.024966 -0.001543 0.000000 0.000000 0.000000
# 3 -0.002435 -0.001543 0.006632 0.000000 0.000000 0.000000
# 4 0.000000 0.000000 0.000000 -0.001087 0.000000 0.000000
# 5 0.000000 0.000000 0.000000 0.000000 0.035985 0.000000
# 6 0.000000 0.000000 0.000000 0.000000 0.000000 0.075868
#
#
# Mechanical properties :
#
#
# Convention : Reuss Voigt Hill
#
# Bulk Modulus (GPa) = 25.49326 43.98042 34.73684
# Shear Modulus (GPa) = 29.93948 -156.30279 -63.18166
#
# Velocity S-wave (km/s) = 3.51694 -8.03575 -5.10903
# Velocity P-wave (km/s) = 5.19845 8.24185 4.52240
#
# Compressibility (1/GPa) = 0.03922605
#
# Stress axis : x y z
#
# Youngs Moduli (GPa) = 104.20830 40.05524 150.77940
#
# Poissons Ratio (x) = -0.11993 0.36707
# Poissons Ratio (y) = -0.31200 0.23272
# Poissons Ratio (z) = 0.25370 0.06182
#
# Static dielectric constant tensor:
#      x y z
#    x 1.991980 0.000000 0.000000 
#    y 0.000000 2.004320 0.000000 
#    z 0.000000 0.000000 2.068910 
# 
# From -- ./inp_files/3454.got.cif
#   From: 2010.05.17/outbox.cif.g08.bks.cpg/sg52_2_cif.got.tgz:3454.got - 2010.06.03 12:15:38.
