data_PCOD9410417
_publ_section_title
;
Structure prediction by ZEFSAII (Michael W. Deem and Ramdas Pophale) SiO2 
 PCOD9410417
Probable space group: P N N A
;
_chemical_formula_sum "Si O2"
_cell_formula_units_Z 28
_cell_length_a 13.177565
_cell_length_b 7.213956
_cell_length_c 12.833381
_cell_angle_alpha 90.000000
_cell_angle_beta 90.000000
_cell_angle_gamma 90.000000
_cell_volume 1219.971666
_symmetry_space_group_name_H-M "P N N A"
_symmetry_group_IT_number 52
_symmetry_cell_setting 'orthorhombic'
loop_
_space_group_symop_operation_xyz
x,y,z
1/2-x,-y,z
x,1/2-y,1/2-z
1/2-x,1/2+y,1/2-z
-x,-y,-z
1/2+x,y,-z
-x,1/2+y,1/2+z
1/2+x,1/2-y,1/2+z
loop_
_atom_site_type_symbol
_atom_site_label
_atom_site_fract_x
_atom_site_fract_y
_atom_site_fract_z
Si Si1 0.250000 0.500000 0.474951
Si Si2 0.455748 0.500738 0.357175
Si Si3 0.546959 0.633033 0.159041
Si Si4 0.146041 0.232876 0.628030
O O1 0.347266 0.458834 0.403707
O O2 0.224775 0.327641 0.550566
O O3 0.461894 0.531049 0.231487
O O4 0.493103 0.701584 0.401546
O O5 0.543515 0.354900 0.378678
O O6 0.604838 0.750000 0.250000
O O7 0.384356 0.520066 0.893396
O O8 0.174925 0.250000 0.750000
#
# Coordination Sequence:
#
# PCOD9410417 Si02
#       4
#     4   8   8   8
#     4  12  22  36  66 104 124 156 236 276 300 388
#     4   8  19  39  60  91 127 167 209 268 313 379
#     4   7  17  40  65  80 127 183 206 241 342 381
#     4  10  20  42  63  86 130 180 203 267 334 377
#
# _framework density 22.951353999999998
#
# number of rings (size 3 to 8) (size 9 to 14) (size 15 to 20)
#    1.714    1.143    0.000    0.857    0.000    1.143 
#   25.714    2.857    0.000    0.000    0.000    0.000 
#    0.000    0.000    0.000    0.000    0.000    0.000 
#
# Total GULP energy -156145.950315 kJ/mol
# GULP energy per Si atom -5576.641083 kJ/mol
# Density = 2.289912 g / cm^3
# Si number density = 22.951354 Si / 1000 Ang^3
#
#
#
# Elastic Constant Matrix: (Units=GPa)
#
#
# Indices 1 2 3 4 5 6 
#
# 1 160.5638 65.8280 52.0491 0.0000 0.0000 0.0000
# 2 65.8280 144.3155 19.8185 0.0000 0.0000 0.0000
# 3 52.0491 19.8185 73.4223 0.0000 0.0000 0.0000
# 4 0.0000 0.0000 0.0000 -9.4057 0.0000 0.0000
# 5 0.0000 0.0000 0.0000 0.0000 -3.7172 0.0000
# 6 0.0000 0.0000 0.0000 0.0000 0.0000 -106.4048
#
#
#
# Elastic Compliance Matrix: (Units=1/GPa)
#
#
# Indices 1 2 3 4 5 6 
#
# 1 0.009581 -0.003570 -0.005828 0.000000 0.000000 0.000000
# 2 -0.003570 0.008526 0.000229 0.000000 0.000000 0.000000
# 3 -0.005828 0.000229 0.017690 0.000000 0.000000 0.000000
# 4 0.000000 0.000000 0.000000 -0.106319 0.000000 0.000000
# 5 0.000000 0.000000 0.000000 0.000000 -0.269019 0.000000
# 6 0.000000 0.000000 0.000000 0.000000 0.000000 -0.009398
#
#
# Mechanical properties :
#
#
# Convention : Reuss Voigt Hill
#
# Bulk Modulus (GPa) = 57.27747 72.63253 64.95500
# Shear Modulus (GPa) = -15.39495 -7.86514 -11.63004
#
# Velocity S-wave (km/s) = -2.59272 -1.85319 -2.25350
# Velocity P-wave (km/s) = 4.00590 5.20921 4.64668
#
# Compressibility (1/GPa) = 0.01745887
#
# Stress axis : x y z
#
# Youngs Moduli (GPa) = 104.37351 117.28641 56.53011
#
# Poissons Ratio (x) = 0.41870 0.32948
# Poissons Ratio (y) = 0.37260 -0.01296
# Poissons Ratio (z) = 0.60833 -0.02689
#
# Static dielectric constant tensor:
#      x y z
#    x 1.854070 0.000000 0.000000 
#    y 0.000000 1.908840 0.000000 
#    z 0.000000 0.000000 1.940620 
# 
# From -- ./inp_files/18780.got.cif
#   From: 2010.05.17/outbox.cif.g08.bks.cpg/sg52_10_cif.got.tgz:18780.got - 2010.06.03 12:15:38.
