data_PCOD9410395
_publ_section_title
;
Structure prediction by ZEFSAII (Michael W. Deem and Ramdas Pophale) SiO2 
 PCOD9410395
Probable space group: P N N A
;
_chemical_formula_sum "Si O2"
_cell_formula_units_Z 40
_cell_length_a 23.520039
_cell_length_b 9.360278
_cell_length_c 8.129888
_cell_angle_alpha 90.000000
_cell_angle_beta 90.000000
_cell_angle_gamma 90.000000
_cell_volume 1789.828205
_symmetry_space_group_name_H-M "P N N A"
_symmetry_group_IT_number 52
_symmetry_cell_setting 'orthorhombic'
loop_
_space_group_symop_operation_xyz
x,y,z
1/2-x,-y,z
x,1/2-y,1/2-z
1/2-x,1/2+y,1/2-z
-x,-y,-z
1/2+x,y,-z
-x,1/2+y,1/2+z
1/2+x,1/2-y,1/2+z
loop_
_atom_site_type_symbol
_atom_site_label
_atom_site_fract_x
_atom_site_fract_y
_atom_site_fract_z
Si Si1 0.189648 0.543101 0.530962
Si Si2 0.115631 0.709708 0.942195
Si Si3 0.997253 0.827806 0.067596
Si Si4 0.187614 0.042360 0.584268
Si Si5 0.875967 0.789123 0.934404
O O1 0.250000 0.500000 0.459052
O O2 0.172700 0.705521 0.508085
O O3 0.190245 0.501710 0.723993
O O4 0.138378 0.454158 0.457002
O O5 0.108710 0.750000 0.750000
O O6 0.133321 0.548278 0.978824
O O7 0.058009 0.762491 0.021443
O O8 0.987733 0.750000 0.250000
O O9 0.941869 0.768112 0.973856
O O10 0.000000 0.000000 0.000000
O O11 0.168198 0.203080 0.550260
O O12 0.250000 0.000000 0.516919
O O13 0.862619 0.750000 0.750000
#
# Coordination Sequence:
#
# PCOD9410395 Si02
#       5
#     8   8   8   8   8
#     4  10  20  41  69  97 133 180 227 280 348 426
#     4  10  22  40  68  99 135 175 232 289 353 421
#     4  12  27  47  74 100 139 190 242 300 371 443
#     4  10  22  41  69 102 134 179 233 289 349 433
#     4  12  26  42  66  99 140 180 232 290 361 424
#
# _framework density 22.348514000000002
#
# number of rings (size 3 to 8) (size 9 to 14) (size 15 to 20)
#    0.000    1.200    2.000    3.600    5.600    4.800 
#    0.000    2.000    0.000    0.000    0.000    0.000 
#    0.000    0.000    0.000    0.000    0.000    0.000 
#
# Total GULP energy -222706.944914 kJ/mol
# GULP energy per Si atom -5567.673623 kJ/mol
# Density = 2.229765 g / cm^3
# Si number density = 22.348514 Si / 1000 Ang^3
#
#
#
# Elastic Constant Matrix: (Units=GPa)
#
#
# Indices 1 2 3 4 5 6 
#
# 1 115.5984 1.2114 5.0953 0.0000 0.0000 0.0000
# 2 1.2114 63.3956 2.9119 0.0000 0.0000 0.0000
# 3 5.0953 2.9119 30.9874 0.0000 0.0000 0.0000
# 4 0.0000 0.0000 0.0000 10.0176 0.0000 0.0000
# 5 0.0000 0.0000 0.0000 0.0000 -37.6367 0.0000
# 6 0.0000 0.0000 0.0000 0.0000 0.0000 17.1353
#
#
#
# Elastic Compliance Matrix: (Units=1/GPa)
#
#
# Indices 1 2 3 4 5 6 
#
# 1 0.008714 -0.000101 -0.001423 0.000000 0.000000 0.000000
# 2 -0.000101 0.015844 -0.001472 0.000000 0.000000 0.000000
# 3 -0.001423 -0.001472 0.032644 0.000000 0.000000 0.000000
# 4 0.000000 0.000000 0.000000 0.099825 0.000000 0.000000
# 5 0.000000 0.000000 0.000000 0.000000 -0.026570 0.000000
# 6 0.000000 0.000000 0.000000 0.000000 0.000000 0.058359
#
#
# Mechanical properties :
#
#
# Convention : Reuss Voigt Hill
#
# Bulk Modulus (GPa) = 19.52821 25.37985 22.45403
# Shear Modulus (GPa) = 23.59845 11.28742 17.44293
#
# Velocity S-wave (km/s) = 3.25303 2.24980 2.79677
# Velocity P-wave (km/s) = 4.78191 4.25792 4.52750
#
# Compressibility (1/GPa) = 0.05120798
#
# Stress axis : x y z
#
# Youngs Moduli (GPa) = 114.75205 63.11724 30.63391
#
# Poissons Ratio (x) = 0.00638 0.04361
# Poissons Ratio (y) = 0.01161 0.04510
# Poissons Ratio (z) = 0.16334 0.09292
#
# Static dielectric constant tensor:
#      x y z
#    x 1.769690 0.000000 0.000000 
#    y 0.000000 1.836870 0.000000 
#    z 0.000000 0.000000 1.903790 
# 
# From -- ./inp_files/13967.got.cif
#   From: 2010.05.17/outbox.cif.g08.bks.cpg/sg52_7_cif.got.tgz:13967.got - 2010.06.03 12:15:38.
