data_PCOD9410752
_publ_section_title
;
Structure prediction by ZEFSAII (Michael W. Deem and Ramdas Pophale) SiO2 
 PCOD9410752
Probable space group: P N N A
;
_chemical_formula_sum "Si O2"
_cell_formula_units_Z 36
_cell_length_a 15.496646
_cell_length_b 15.296557
_cell_length_c 7.233350
_cell_angle_alpha 90.000000
_cell_angle_beta 90.000000
_cell_angle_gamma 90.000000
_cell_volume 1714.631829
_symmetry_space_group_name_H-M "P N N A"
_symmetry_group_IT_number 52
_symmetry_cell_setting 'orthorhombic'
loop_
_space_group_symop_operation_xyz
x,y,z
1/2-x,-y,z
x,1/2-y,1/2-z
1/2-x,1/2+y,1/2-z
-x,-y,-z
1/2+x,y,-z
-x,1/2+y,1/2+z
1/2+x,1/2-y,1/2+z
loop_
_atom_site_type_symbol
_atom_site_label
_atom_site_fract_x
_atom_site_fract_y
_atom_site_fract_z
Si Si1 0.750000 0.000000 0.248459
Si Si2 0.136070 0.262844 0.977520
Si Si3 0.981288 0.330354 0.604747
Si Si4 0.301211 0.318201 0.582989
Si Si5 0.073147 0.446994 0.897911
O O1 0.747169 0.907547 0.142555
O O2 0.840499 0.000921 0.356774
O O3 0.141718 0.250000 0.750000
O O4 0.230240 0.233553 0.038686
O O5 0.108661 0.362004 0.006032
O O6 0.055934 0.202833 0.033967
O O7 0.966786 0.250000 0.750000
O O8 0.890040 0.345913 0.511672
O O9 0.024958 0.409502 0.715756
O O10 0.322408 0.250000 0.750000
O O11 0.000000 0.500000 0.000000
#
# Coordination Sequence:
#
# PCOD9410752 Si02
#       5
#     4   8   8   8   8
#     4  12  22  38  66  88 126 172 208 252 338 390
#     4   8  16  38  56  83 121 158 198 259 312 372
#     4   9  20  39  61  87 123 163 213 263 313 373
#     4  11  21  39  64  89 124 171 209 259 327 387
#     4  10  21  37  64  94 124 164 219 265 313 389
#
# _framework density 20.995761000000002
#
# number of rings (size 3 to 8) (size 9 to 14) (size 15 to 20)
#    0.000    2.667    6.667    0.000    6.222    0.889 
#    0.000    4.444    0.000    0.000    0.000    0.000 
#    0.000    0.000    0.000    0.000    0.000    0.000 
#
# Total GULP energy -200531.633905 kJ/mol
# GULP energy per Si atom -5570.323164 kJ/mol
# Density = 2.094797 g / cm^3
# Si number density = 20.995761 Si / 1000 Ang^3
#
#
#
# Elastic Constant Matrix: (Units=GPa)
#
#
# Indices 1 2 3 4 5 6 
#
# 1 207.2709 40.1034 27.5393 0.0000 0.0000 0.0000
# 2 40.1034 93.5804 19.4650 0.0000 0.0000 0.0000
# 3 27.5393 19.4650 35.4542 0.0000 0.0000 0.0000
# 4 0.0000 0.0000 0.0000 6.6746 0.0000 0.0000
# 5 0.0000 0.0000 0.0000 0.0000 30.0498 0.0000
# 6 0.0000 0.0000 0.0000 0.0000 0.0000 55.0790
#
#
#
# Elastic Compliance Matrix: (Units=1/GPa)
#
#
# Indices 1 2 3 4 5 6 
#
# 1 0.005607 -0.001690 -0.003427 0.000000 0.000000 0.000000
# 2 -0.001690 0.012573 -0.005590 0.000000 0.000000 0.000000
# 3 -0.003427 -0.005590 0.033937 0.000000 0.000000 0.000000
# 4 0.000000 0.000000 0.000000 0.149822 0.000000 0.000000
# 5 0.000000 0.000000 0.000000 0.000000 0.033278 0.000000
# 6 0.000000 0.000000 0.000000 0.000000 0.000000 0.018156
#
#
# Mechanical properties :
#
#
# Convention : Reuss Voigt Hill
#
# Bulk Modulus (GPa) = 32.57149 56.72455 44.64802
# Shear Modulus (GPa) = 17.54255 34.97386 26.25821
#
# Velocity S-wave (km/s) = 2.89369 4.08580 3.54028
# Velocity P-wave (km/s) = 5.16833 7.02383 6.16627
#
# Compressibility (1/GPa) = 0.03070170
#
# Stress axis : x y z
#
# Youngs Moduli (GPa) = 178.34952 79.53570 29.46657
#
# Poissons Ratio (x) = 0.13441 0.10100
# Poissons Ratio (y) = 0.30140 0.16472
# Poissons Ratio (z) = 0.61129 0.44461
#
# Static dielectric constant tensor:
#      x y z
#    x 1.802430 0.000000 0.000000 
#    y 0.000000 1.786350 0.000000 
#    z 0.000000 0.000000 1.848630 
# 
# From -- ./inp_files/9941.got.cif
#   From: 2010.05.17/outbox.cif.g08.bks.cpg/sg52_5_cif.got.tgz:9941.got - 2010.06.03 12:15:38.
