data_PCOD9410969
_publ_section_title
;
Structure prediction by ZEFSAII (Michael W. Deem and Ramdas Pophale) SiO2 
 PCOD9410969
Probable space group: P N N A
;
_chemical_formula_sum "Si O2"
_cell_formula_units_Z 56
_cell_length_a 21.520423
_cell_length_b 9.223708
_cell_length_c 15.439136
_cell_angle_alpha 90.000000
_cell_angle_beta 90.000000
_cell_angle_gamma 90.000000
_cell_volume 3064.639127
_symmetry_space_group_name_H-M "P N N A"
_symmetry_group_IT_number 52
_symmetry_cell_setting 'orthorhombic'
loop_
_space_group_symop_operation_xyz
x,y,z
1/2-x,-y,z
x,1/2-y,1/2-z
1/2-x,1/2+y,1/2-z
-x,-y,-z
1/2+x,y,-z
-x,1/2+y,1/2+z
1/2+x,1/2-y,1/2+z
loop_
_atom_site_type_symbol
_atom_site_label
_atom_site_fract_x
_atom_site_fract_y
_atom_site_fract_z
Si Si1 0.253926 0.326069 0.656005
Si Si2 0.066031 0.065498 0.460304
Si Si3 0.599955 0.082620 0.264357
Si Si4 0.492653 0.328074 0.506911
Si Si5 0.034129 0.844011 0.332659
Si Si6 0.105566 0.678589 0.654939
Si Si7 0.684385 0.076237 0.418154
O O1 0.250000 0.500000 0.661041
O O2 0.248836 0.250000 0.750000
O O3 0.324201 0.292445 0.626872
O O4 0.203788 0.245009 0.595831
O O5 0.128466 0.047846 0.515780
O O6 0.052165 0.236894 0.460356
O O7 0.073430 0.977083 0.371184
O O8 0.000000 0.000000 0.500000
O O9 0.612874 0.250000 0.250000
O O10 0.532349 0.084468 0.307914
O O11 0.653500 0.024893 0.327393
O O12 0.599081 0.991580 0.177415
O O13 0.500000 0.500000 0.500000
O O14 0.475882 0.267291 0.411933
O O15 0.440768 0.286104 0.578060
O O16 0.055263 0.750000 0.250000
O O17 0.092380 0.750000 0.750000
O O18 0.750000 0.000000 0.435559
#
# Coordination Sequence:
#
# PCOD9410969 Si02
#       7
#     8   8   8   8   8   8   8
#     4  11  23  37  54  87 133 177 207 237 294 388
#     4  10  22  40  61  86 121 160 207 265 303 372
#     4  11  20  35  58  86 127 169 201 232 303 377
#     4  11  22  36  58  89 124 158 209 258 309 362
#     4  10  21  39  63  85 117 166 213 260 315 359
#     4  11  23  34  56  86 128 163 197 246 301 372
#     4  12  23  36  61  89 127 169 211 244 306 382
#
# _framework density 18.272950000000002
#
# number of rings (size 3 to 8) (size 9 to 14) (size 15 to 20)
#    0.000    1.143    2.857    6.857    8.000    0.000 
#    0.000    0.000    0.000    0.000    0.000    6.000 
#    0.000    0.000    0.000    0.000    0.000    0.000 
#
# Total GULP energy -312388.108098 kJ/mol
# GULP energy per Si atom -5578.359073 kJ/mol
# Density = 1.823136 g / cm^3
# Si number density = 18.272950 Si / 1000 Ang^3
#
#
#
# Elastic Constant Matrix: (Units=GPa)
#
#
# Indices 1 2 3 4 5 6 
#
# 1 113.0633 16.2750 40.7805 0.0000 0.0000 0.0000
# 2 16.2750 124.2682 27.6418 0.0000 0.0000 0.0000
# 3 40.7805 27.6418 90.2662 0.0000 0.0000 0.0000
# 4 0.0000 0.0000 0.0000 33.1220 0.0000 0.0000
# 5 0.0000 0.0000 0.0000 0.0000 34.1508 0.0000
# 6 0.0000 0.0000 0.0000 0.0000 0.0000 26.3334
#
#
#
# Elastic Compliance Matrix: (Units=1/GPa)
#
#
# Indices 1 2 3 4 5 6 
#
# 1 0.010580 -0.000346 -0.004674 0.000000 0.000000 0.000000
# 2 -0.000346 0.008647 -0.002492 0.000000 0.000000 0.000000
# 3 -0.004674 -0.002492 0.013953 0.000000 0.000000 0.000000
# 4 0.000000 0.000000 0.000000 0.030191 0.000000 0.000000
# 5 0.000000 0.000000 0.000000 0.000000 0.029282 0.000000
# 6 0.000000 0.000000 0.000000 0.000000 0.000000 0.037975
#
#
# Mechanical properties :
#
#
# Convention : Reuss Voigt Hill
#
# Bulk Modulus (GPa) = 55.07573 55.22136 55.14854
# Shear Modulus (GPa) = 32.95916 34.91462 33.93689
#
# Velocity S-wave (km/s) = 4.25162 4.37593 4.31422
# Velocity P-wave (km/s) = 7.36938 7.47111 7.42042
#
# Compressibility (1/GPa) = 0.01815682
#
# Stress axis : x y z
#
# Youngs Moduli (GPa) = 94.51561 115.65200 71.66947
#
# Poissons Ratio (x) = 0.04001 0.33498
# Poissons Ratio (y) = 0.03270 0.17856
# Poissons Ratio (z) = 0.44177 0.28815
#
# Static dielectric constant tensor:
#      x y z
#    x 1.648600 0.000000 0.000000 
#    y 0.000000 1.747770 0.000000 
#    z 0.000000 0.000000 1.667310 
# 
# From -- ./inp_files/28760.got.cif
#   From: 2010.05.17/outbox.cif.g08.bks.cpg/sg52_15_cif.got.tgz:28760.got - 2010.06.03 12:15:38.
