data_PCOD9410615
_publ_section_title
;
Structure prediction by ZEFSAII (Michael W. Deem and Ramdas Pophale) SiO2 
 PCOD9410615
Probable space group: P N N A
;
_chemical_formula_sum "Si O2"
_cell_formula_units_Z 56
_cell_length_a 20.625212
_cell_length_b 5.396635
_cell_length_c 24.079350
_cell_angle_alpha 90.000000
_cell_angle_beta 90.000000
_cell_angle_gamma 90.000000
_cell_volume 2680.193973
_symmetry_space_group_name_H-M "P N N A"
_symmetry_group_IT_number 52
_symmetry_cell_setting 'orthorhombic'
loop_
_space_group_symop_operation_xyz
x,y,z
1/2-x,-y,z
x,1/2-y,1/2-z
1/2-x,1/2+y,1/2-z
-x,-y,-z
1/2+x,y,-z
-x,1/2+y,1/2+z
1/2+x,1/2-y,1/2+z
loop_
_atom_site_type_symbol
_atom_site_label
_atom_site_fract_x
_atom_site_fract_y
_atom_site_fract_z
Si Si1 0.178309 0.395550 0.020614
Si Si2 0.324715 0.494776 0.284458
Si Si3 0.915990 0.658151 0.438546
Si Si4 0.486795 0.753992 0.312456
Si Si5 0.887624 0.870452 0.891890
Si Si6 0.432378 0.748392 0.813395
Si Si7 0.444885 0.257808 0.479656
O O1 0.250000 0.500000 0.011070
O O2 0.174260 0.244385 0.077941
O O3 0.117512 0.583390 0.027486
O O4 0.149589 0.226559 0.971431
O O5 0.250000 0.500000 0.301478
O O6 0.331870 0.750000 0.250000
O O7 0.366191 0.471322 0.339727
O O8 0.338418 0.250000 0.250000
O O9 0.900823 0.705955 0.374027
O O10 0.936795 0.382600 0.459199
O O11 0.980790 0.809938 0.461313
O O12 0.459908 0.750000 0.250000
O O13 0.436043 0.815730 0.360777
O O14 0.516584 0.477670 0.316520
O O15 0.538581 0.972933 0.315739
O O16 0.927714 0.019164 0.937153
O O17 0.402683 0.750000 0.750000
#
# Coordination Sequence:
#
# PCOD9410615 Si02
#       7
#     8   8   8   8   8   8   8
#     4  11  26  40  62  94 127 173 219 277 332 395
#     4  10  24  40  57  81 117 173 226 270 321 377
#     4  10  21  40  64  94 126 168 211 277 326 402
#     4  10  21  36  57  92 130 164 213 268 326 382
#     4  11  23  36  59  84 122 170 221 273 323 380
#     4  10  21  37  63  97 129 165 207 267 336 400
#     4  10  22  39  64  91 125 166 224 262 336 383
#
# _framework density 20.894010000000002
#
# number of rings (size 3 to 8) (size 9 to 14) (size 15 to 20)
#    0.000    1.714    1.429    1.714    6.000    4.000 
#    0.000    0.000    0.000    0.000    3.714    0.000 
#    0.000    0.000    0.000    0.000    0.000    0.000 
#
# Total GULP energy -311763.280734 kJ/mol
# GULP energy per Si atom -5567.201442 kJ/mol
# Density = 2.084645 g / cm^3
# Si number density = 20.894010 Si / 1000 Ang^3
#
#
#
# Elastic Constant Matrix: (Units=GPa)
#
#
# Indices 1 2 3 4 5 6 
#
# 1 85.2678 14.9880 14.5819 0.0000 0.0000 0.0000
# 2 14.9880 48.5685 5.8811 0.0000 0.0000 0.0000
# 3 14.5819 5.8811 130.0758 0.0000 0.0000 0.0000
# 4 0.0000 0.0000 0.0000 20.3746 0.0000 0.0000
# 5 0.0000 0.0000 0.0000 0.0000 25.4863 0.0000
# 6 0.0000 0.0000 0.0000 0.0000 0.0000 23.8269
#
#
#
# Elastic Compliance Matrix: (Units=1/GPa)
#
#
# Indices 1 2 3 4 5 6 
#
# 1 0.012597 -0.003737 -0.001243 0.000000 0.000000 0.000000
# 2 -0.003737 0.021811 -0.000567 0.000000 0.000000 0.000000
# 3 -0.001243 -0.000567 0.007853 0.000000 0.000000 0.000000
# 4 0.000000 0.000000 0.000000 0.049081 0.000000 0.000000
# 5 0.000000 0.000000 0.000000 0.000000 0.039237 0.000000
# 6 0.000000 0.000000 0.000000 0.000000 0.000000 0.041969
#
#
# Mechanical properties :
#
#
# Convention : Reuss Voigt Hill
#
# Bulk Modulus (GPa) = 32.08553 37.20154 34.64354
# Shear Modulus (GPa) = 25.76897 29.16831 27.46864
#
# Velocity S-wave (km/s) = 3.51567 3.74038 3.62977
# Velocity P-wave (km/s) = 5.64532 6.04131 5.84667
#
# Compressibility (1/GPa) = 0.03116670
#
# Stress axis : x y z
#
# Youngs Moduli (GPa) = 79.38265 45.84771 127.34241
#
# Poissons Ratio (x) = 0.17133 0.15832
# Poissons Ratio (y) = 0.29664 0.07223
# Poissons Ratio (z) = 0.09869 0.02601
#
# Static dielectric constant tensor:
#      x y z
#    x 1.765420 0.000000 0.000000 
#    y 0.000000 1.752750 0.000000 
#    z 0.000000 0.000000 1.792940 
# 
# From -- ./inp_files/40990.got.cif
#   From: 2010.05.17/outbox.cif.g08.bks.cpg/sg52_21_cif.got.tgz:40990.got - 2010.06.03 12:15:38.
