data_PCOD9410331
_publ_section_title
;
Structure prediction by ZEFSAII (Michael W. Deem and Ramdas Pophale) SiO2 
 PCOD9410331
Probable space group: P N N A
;
_chemical_formula_sum "Si O2"
_cell_formula_units_Z 40
_cell_length_a 11.160934
_cell_length_b 17.577685
_cell_length_c 8.214782
_cell_angle_alpha 90.000000
_cell_angle_beta 90.000000
_cell_angle_gamma 90.000000
_cell_volume 1611.603716
_symmetry_space_group_name_H-M "P N N A"
_symmetry_group_IT_number 52
_symmetry_cell_setting 'orthorhombic'
loop_
_space_group_symop_operation_xyz
x,y,z
1/2-x,-y,z
x,1/2-y,1/2-z
1/2-x,1/2+y,1/2-z
-x,-y,-z
1/2+x,y,-z
-x,1/2+y,1/2+z
1/2+x,1/2-y,1/2+z
loop_
_atom_site_type_symbol
_atom_site_label
_atom_site_fract_x
_atom_site_fract_y
_atom_site_fract_z
Si Si1 0.910760 0.750000 0.250000
Si Si2 0.250000 0.000000 0.814355
Si Si3 0.235374 0.245591 0.432326
Si Si4 0.318371 0.577147 0.119397
Si Si5 0.169852 0.899444 0.096637
Si Si6 0.970508 0.913870 0.346172
O O1 0.834147 0.725843 0.408650
O O2 0.974668 0.823591 0.319595
O O3 0.152206 0.050065 0.720529
O O4 0.325069 0.057329 0.928761
O O5 0.177758 0.250000 0.250000
O O6 0.247511 0.153994 0.451473
O O7 0.341738 0.307976 0.421705
O O8 0.250000 0.500000 0.073966
O O9 0.298065 0.588024 0.312084
O O10 0.450928 0.575075 0.040724
O O11 0.076778 0.936155 0.224510
#
# Coordination Sequence:
#
# PCOD9410331 Si02
#       6
#     4   4   8   8   8   8
#     4  10  20  40  68  90 126 174 214 270 336 380
#     4  12  22  44  60  98 136 174 220 278 322 404
#     4   9  20  38  65  91 129 168 213 273 326 394
#     4  10  21  41  63  97 128 164 216 283 324 392
#     4  11  23  42  67  91 132 179 217 271 342 394
#     4  11  24  40  67  93 128 176 218 271 338 399
#
# _framework density 24.819996
#
# number of rings (size 3 to 8) (size 9 to 14) (size 15 to 20)
#    0.000    1.600    4.000    0.600    4.200    0.800 
#    0.000    0.000    2.200    0.000    0.000    0.000 
#    0.000    0.000    0.000    0.000    0.000    0.000 
#
# Total GULP energy -222824.921142 kJ/mol
# GULP energy per Si atom -5570.623029 kJ/mol
# Density = 2.476350 g / cm^3
# Si number density = 24.819996 Si / 1000 Ang^3
#
#
#
# Elastic Constant Matrix: (Units=GPa)
#
#
# Indices 1 2 3 4 5 6 
#
# 1 53.0601 11.0429 9.9916 0.0000 0.0000 0.0000
# 2 11.0429 158.8703 -4.4009 0.0000 0.0000 0.0000
# 3 9.9916 -4.4009 94.8956 0.0000 0.0000 0.0000
# 4 0.0000 0.0000 0.0000 36.2104 0.0000 0.0000
# 5 0.0000 0.0000 0.0000 0.0000 26.3367 0.0000
# 6 0.0000 0.0000 0.0000 0.0000 0.0000 35.7347
#
#
#
# Elastic Compliance Matrix: (Units=1/GPa)
#
#
# Indices 1 2 3 4 5 6 
#
# 1 0.019541 -0.001417 -0.002123 0.000000 0.000000 0.000000
# 2 -0.001417 0.006405 0.000446 0.000000 0.000000 0.000000
# 3 -0.002123 0.000446 0.010782 0.000000 0.000000 0.000000
# 4 0.000000 0.000000 0.000000 0.027616 0.000000 0.000000
# 5 0.000000 0.000000 0.000000 0.000000 0.037970 0.000000
# 6 0.000000 0.000000 0.000000 0.000000 0.000000 0.027984
#
#
# Mechanical properties :
#
#
# Convention : Reuss Voigt Hill
#
# Bulk Modulus (GPa) = 32.74330 37.78813 35.26571
# Shear Modulus (GPa) = 34.09078 39.00254 36.54666
#
# Velocity S-wave (km/s) = 3.71012 3.96841 3.84144
# Velocity P-wave (km/s) = 5.61910 6.02126 5.82366
#
# Compressibility (1/GPa) = 0.03054060
#
# Stress axis : x y z
#
# Youngs Moduli (GPa) = 51.17365 156.12059 92.74587
#
# Poissons Ratio (x) = 0.22124 0.19692
# Poissons Ratio (y) = 0.07252 -0.04139
# Poissons Ratio (z) = 0.10865 -0.06967
#
# Static dielectric constant tensor:
#      x y z
#    x 2.100940 0.000000 0.000000 
#    y 0.000000 2.048530 0.000000 
#    z 0.000000 0.000000 1.978280 
# 
# From -- ./inp_files/8549.got.cif
#   From: 2010.05.17/outbox.cif.g08.bks.cpg/sg52_5_cif.got.tgz:8549.got - 2010.06.03 12:15:38.
