data_PCOD9410028
_publ_section_title
;
Structure prediction by ZEFSAII (Michael W. Deem and Ramdas Pophale) SiO2 
 PCOD9410028
Probable space group: P N N A
;
_chemical_formula_sum "Si O2"
_cell_formula_units_Z 36
_cell_length_a 11.416588
_cell_length_b 6.702836
_cell_length_c 18.471910
_cell_angle_alpha 90.000000
_cell_angle_beta 90.000000
_cell_angle_gamma 90.000000
_cell_volume 1413.535520
_symmetry_space_group_name_H-M "P N N A"
_symmetry_group_IT_number 52
_symmetry_cell_setting 'orthorhombic'
loop_
_space_group_symop_operation_xyz
x,y,z
1/2-x,-y,z
x,1/2-y,1/2-z
1/2-x,1/2+y,1/2-z
-x,-y,-z
1/2+x,y,-z
-x,1/2+y,1/2+z
1/2+x,1/2-y,1/2+z
loop_
_atom_site_type_symbol
_atom_site_label
_atom_site_fract_x
_atom_site_fract_y
_atom_site_fract_z
Si Si1 0.191905 0.250000 0.750000
Si Si2 0.250000 0.500000 0.875339
Si Si3 0.978839 0.696149 0.064327
Si Si4 0.750000 0.000000 0.834047
Si Si5 0.910346 0.809074 0.594853
Si Si6 0.500966 0.486242 0.690947
O O1 0.258134 0.305571 0.822901
O O2 0.103474 0.435525 0.739280
O O3 0.136815 0.440712 0.921405
O O4 0.084375 0.545718 0.084781
O O5 0.983998 0.880062 0.118410
O O6 0.966534 0.760032 0.981369
O O7 0.794221 0.818013 0.885462
O O8 0.634465 0.963132 0.785889
O O9 0.988838 0.739857 0.663591
#
# Coordination Sequence:
#
# PCOD9410028 Si02
#       6
#     4   4   8   4   8   8
#     4  10  22  40  62  82 132 162 218 260 312 392
#     4  10  24  38  59  94 115 174 210 256 320 386
#     4  10  20  38  60  90 125 159 207 254 321 381
#     4   8  20  36  59  88 119 162 202 254 334 358
#     4   9  20  37  62  88 126 156 201 266 318 376
#     4   9  20  40  56  89 118 163 204 261 310 378
#
# _framework density 25.468055
#
# number of rings (size 3 to 8) (size 9 to 14) (size 15 to 20)
#    1.333    1.333    0.000    0.667    3.111    4.444 
#    0.000    4.444    0.000    0.000    0.000    0.000 
#    0.000    0.000    0.000    0.000    0.000    0.000 
#
# Total GULP energy -200640.224979 kJ/mol
# GULP energy per Si atom -5573.339583 kJ/mol
# Density = 2.541009 g / cm^3
# Si number density = 25.468055 Si / 1000 Ang^3
#
#
#
# Elastic Constant Matrix: (Units=GPa)
#
#
# Indices 1 2 3 4 5 6 
#
# 1 124.9344 27.9607 14.1272 0.0000 0.0000 0.0000
# 2 27.9607 83.0664 11.4321 0.0000 0.0000 0.0000
# 3 14.1272 11.4321 48.6650 0.0000 0.0000 0.0000
# 4 0.0000 0.0000 0.0000 47.2971 0.0000 0.0000
# 5 0.0000 0.0000 0.0000 0.0000 24.6533 0.0000
# 6 0.0000 0.0000 0.0000 0.0000 0.0000 50.3630
#
#
#
# Elastic Compliance Matrix: (Units=1/GPa)
#
#
# Indices 1 2 3 4 5 6 
#
# 1 0.008828 -0.002706 -0.001927 0.000000 0.000000 0.000000
# 2 -0.002706 0.013270 -0.002332 0.000000 0.000000 0.000000
# 3 -0.001927 -0.002332 0.021656 0.000000 0.000000 0.000000
# 4 0.000000 0.000000 0.000000 0.021143 0.000000 0.000000
# 5 0.000000 0.000000 0.000000 0.000000 0.040562 0.000000
# 6 0.000000 0.000000 0.000000 0.000000 0.000000 0.019856
#
#
# Mechanical properties :
#
#
# Convention : Reuss Voigt Hill
#
# Bulk Modulus (GPa) = 33.53002 40.41174 36.97088
# Shear Modulus (GPa) = 33.51508 38.00575 35.76042
#
# Velocity S-wave (km/s) = 3.63156 3.86721 3.75124
# Velocity P-wave (km/s) = 5.54783 5.98686 5.77152
#
# Compressibility (1/GPa) = 0.02982402
#
# Stress axis : x y z
#
# Youngs Moduli (GPa) = 113.27889 75.35548 46.17700
#
# Poissons Ratio (x) = 0.20393 0.08898
# Poissons Ratio (y) = 0.30657 0.10767
# Poissons Ratio (z) = 0.21828 0.17571
#
# Static dielectric constant tensor:
#      x y z
#    x 2.068680 0.000000 0.000000 
#    y 0.000000 2.075050 0.000000 
#    z 0.000000 0.000000 1.937750 
# 
# From -- ./inp_files/40055.got.cif
#   From: 2010.05.17/outbox.cif.g08.bks.cpg/sg52_21_cif.got.tgz:40055.got - 2010.06.03 12:15:38.
