data_PCOD9410389
_publ_section_title
;
Structure prediction by ZEFSAII (Michael W. Deem and Ramdas Pophale) SiO2 
 PCOD9410389
Probable space group: P N N A
;
_chemical_formula_sum "Si O2"
_cell_formula_units_Z 48
_cell_length_a 14.241378
_cell_length_b 33.424745
_cell_length_c 5.094364
_cell_angle_alpha 90.000000
_cell_angle_beta 90.000000
_cell_angle_gamma 90.000000
_cell_volume 2424.990766
_symmetry_space_group_name_H-M "P N N A"
_symmetry_group_IT_number 52
_symmetry_cell_setting 'orthorhombic'
loop_
_space_group_symop_operation_xyz
x,y,z
1/2-x,-y,z
x,1/2-y,1/2-z
1/2-x,1/2+y,1/2-z
-x,-y,-z
1/2+x,y,-z
-x,1/2+y,1/2+z
1/2+x,1/2-y,1/2+z
loop_
_atom_site_type_symbol
_atom_site_label
_atom_site_fract_x
_atom_site_fract_y
_atom_site_fract_z
Si Si1 0.250000 0.000000 0.399271
Si Si2 0.864399 0.067229 0.371733
Si Si3 0.335812 0.704648 0.857322
Si Si4 0.949931 0.750000 0.750000
Si Si5 0.924297 0.473203 0.641220
Si Si6 0.024073 0.688093 0.400757
Si Si7 0.361860 0.339751 0.897892
O O1 0.225723 0.960960 0.568662
O O2 0.160226 0.003143 0.214395
O O3 0.940621 0.048947 0.580136
O O4 0.847546 0.113035 0.436332
O O5 0.892836 0.059448 0.072934
O O6 0.321604 0.750000 0.750000
O O7 0.416540 0.681357 0.694436
O O8 0.237968 0.681878 0.857985
O O9 0.384266 0.714703 0.137832
O O10 0.014772 0.732837 0.520367
O O11 0.000000 0.500000 0.500000
O O12 0.069949 0.664989 0.645801
O O13 0.088470 0.679797 0.150458
#
# Coordination Sequence:
#
# PCOD9410389 Si02
#       7
#     4   8   8   4   8   8   8
#     4   8  22  38  68  90 132 164 212 272 312 398
#     4  10  22  43  62 101 132 164 224 271 328 409
#     4  10  25  43  68  98 131 181 233 269 333 421
#     4  10  22  46  66  94 138 170 242 266 330 420
#     4  10  20  41  68  91 127 173 217 261 326 400
#     4  11  25  44  65  97 136 176 221 286 328 400
#     4  12  26  43  70  99 140 176 221 288 352 387
#
# _framework density 19.793890999999999
#
# number of rings (size 3 to 8) (size 9 to 14) (size 15 to 20)
#    1.000    0.667    1.667    2.000    5.833    0.000 
#    3.000    3.333    0.000    0.000    0.000    0.000 
#    0.000    0.000    0.000    0.000    0.000    0.000 
#
# Total GULP energy -267259.641586 kJ/mol
# GULP energy per Si atom -5567.909200 kJ/mol
# Density = 1.974884 g / cm^3
# Si number density = 19.793891 Si / 1000 Ang^3
#
#
#
# Elastic Constant Matrix: (Units=GPa)
#
#
# Indices 1 2 3 4 5 6 
#
# 1 86.7997 52.2729 23.7189 0.0000 0.0000 0.0000
# 2 52.2729 98.1272 17.9705 0.0000 0.0000 0.0000
# 3 23.7189 17.9705 114.2782 0.0000 0.0000 0.0000
# 4 0.0000 0.0000 0.0000 12.3962 0.0000 0.0000
# 5 0.0000 0.0000 0.0000 0.0000 17.3345 0.0000
# 6 0.0000 0.0000 0.0000 0.0000 0.0000 8.6145
#
#
#
# Elastic Compliance Matrix: (Units=1/GPa)
#
#
# Indices 1 2 3 4 5 6 
#
# 1 0.017498 -0.008913 -0.002230 0.000000 0.000000 0.000000
# 2 -0.008913 0.015033 -0.000514 0.000000 0.000000 0.000000
# 3 -0.002230 -0.000514 0.009294 0.000000 0.000000 0.000000
# 4 0.000000 0.000000 0.000000 0.080670 0.000000 0.000000
# 5 0.000000 0.000000 0.000000 0.000000 0.057688 0.000000
# 6 0.000000 0.000000 0.000000 0.000000 0.000000 0.116084
#
#
# Mechanical properties :
#
#
# Convention : Reuss Voigt Hill
#
# Bulk Modulus (GPa) = 54.02218 54.12553 54.07385
# Shear Modulus (GPa) = 15.34914 21.35188 18.35051
#
# Velocity S-wave (km/s) = 2.78771 3.28794 3.04810
# Velocity P-wave (km/s) = 6.14112 6.46668 6.30600
#
# Compressibility (1/GPa) = 0.01851092
#
# Stress axis : x y z
#
# Youngs Moduli (GPa) = 57.15073 66.52118 107.59281
#
# Poissons Ratio (x) = 0.59288 0.23995
# Poissons Ratio (y) = 0.50936 0.05531
# Poissons Ratio (z) = 0.12746 0.03420
#
# Static dielectric constant tensor:
#      x y z
#    x 1.696250 0.000000 0.000000 
#    y 0.000000 1.693140 0.000000 
#    z 0.000000 0.000000 1.764140 
# 
# From -- ./inp_files/2598.got.cif
#   From: 2010.05.17/outbox.cif.g08.bks.cpg/sg52_2_cif.got.tgz:2598.got - 2010.06.03 12:15:38.
