data_PCOD9410719
_publ_section_title
;
Structure prediction by ZEFSAII (Michael W. Deem and Ramdas Pophale) SiO2 
 PCOD9410719
Probable space group: P N N A
;
_chemical_formula_sum "Si O2"
_cell_formula_units_Z 44
_cell_length_a 16.815950
_cell_length_b 23.450114
_cell_length_c 5.116706
_cell_angle_alpha 90.000000
_cell_angle_beta 90.000000
_cell_angle_gamma 90.000000
_cell_volume 2017.701093
_symmetry_space_group_name_H-M "P N N A"
_symmetry_group_IT_number 52
_symmetry_cell_setting 'orthorhombic'
loop_
_space_group_symop_operation_xyz
x,y,z
1/2-x,-y,z
x,1/2-y,1/2-z
1/2-x,1/2+y,1/2-z
-x,-y,-z
1/2+x,y,-z
-x,1/2+y,1/2+z
1/2+x,1/2-y,1/2+z
loop_
_atom_site_type_symbol
_atom_site_label
_atom_site_fract_x
_atom_site_fract_y
_atom_site_fract_z
Si Si1 0.855448 0.314198 0.201406
Si Si2 0.750000 0.500000 0.601565
Si Si3 0.603349 0.563576 0.385936
Si Si4 0.126982 0.412365 0.241743
Si Si5 0.967749 0.945792 0.258672
Si Si6 0.751549 0.687728 0.701581
O O1 0.891394 0.250000 0.250000
O O2 0.901006 0.372983 0.268587
O O3 0.783021 0.315986 0.410288
O O4 0.820983 0.318262 0.908683
O O5 0.694086 0.542318 0.430883
O O6 0.810388 0.535875 0.776164
O O7 0.557538 0.512749 0.231877
O O8 0.558045 0.562378 0.666036
O O9 0.082492 0.421443 0.514188
O O10 0.181182 0.357412 0.244438
O O11 0.064820 0.414377 0.009539
O O12 0.785362 0.750000 0.750000
#
# Coordination Sequence:
#
# PCOD9410719 Si02
#       6
#     8   4   8   8   8   8
#     4  10  21  37  62  89 118 159 206 267 309 357
#     4  10  22  34  68  88 124 160 218 260 306 374
#     4  10  22  42  59  94 129 168 210 263 313 390
#     4  11  22  40  59  94 117 167 206 255 316 385
#     4  10  25  38  60  87 136 166 197 256 334 369
#     4  10  21  37  60  90 121 153 207 267 310 359
#
# _framework density 21.806998
#
# number of rings (size 3 to 8) (size 9 to 14) (size 15 to 20)
#    0.000    1.818    1.818    1.091    5.091    8.727 
#    0.000    0.909    0.000    0.000    0.000    0.000 
#    0.000    0.000    0.000    0.000    0.000    0.000 
#
# Total GULP energy -245963.120787 kJ/mol
# GULP energy per Si atom -5590.070927 kJ/mol
# Density = 2.175736 g / cm^3
# Si number density = 21.806998 Si / 1000 Ang^3
#
#
#
# Elastic Constant Matrix: (Units=GPa)
#
#
# Indices 1 2 3 4 5 6 
#
# 1 74.5484 30.1506 12.7032 0.0000 0.0000 0.0000
# 2 30.1506 162.7962 13.8357 0.0000 0.0000 0.0000
# 3 12.7032 13.8357 75.3920 0.0000 0.0000 0.0000
# 4 0.0000 0.0000 0.0000 18.9724 0.0000 0.0000
# 5 0.0000 0.0000 0.0000 0.0000 22.9110 0.0000
# 6 0.0000 0.0000 0.0000 0.0000 0.0000 36.4738
#
#
#
# Elastic Compliance Matrix: (Units=1/GPa)
#
#
# Indices 1 2 3 4 5 6 
#
# 1 0.014798 -0.002569 -0.002022 0.000000 0.000000 0.000000
# 2 -0.002569 0.006686 -0.000794 0.000000 0.000000 0.000000
# 3 -0.002022 -0.000794 0.013750 0.000000 0.000000 0.000000
# 4 0.000000 0.000000 0.000000 0.052708 0.000000 0.000000
# 5 0.000000 0.000000 0.000000 0.000000 0.043647 0.000000
# 6 0.000000 0.000000 0.000000 0.000000 0.000000 0.027417
#
#
# Mechanical properties :
#
#
# Convention : Reuss Voigt Hill
#
# Bulk Modulus (GPa) = 40.87598 47.34619 44.11108
# Shear Modulus (GPa) = 28.10085 32.74124 30.42105
#
# Velocity S-wave (km/s) = 3.59362 3.87901 3.73904
# Velocity P-wave (km/s) = 6.00033 6.46690 6.23798
#
# Compressibility (1/GPa) = 0.02446425
#
# Stress axis : x y z
#
# Youngs Moduli (GPa) = 67.57876 149.56882 72.72502
#
# Poissons Ratio (x) = 0.38420 0.14704
# Poissons Ratio (y) = 0.17359 0.05775
# Poissons Ratio (z) = 0.13664 0.11878
#
# Static dielectric constant tensor:
#      x y z
#    x 1.788320 0.000000 0.000000 
#    y 0.000000 1.828830 0.000000 
#    z 0.000000 0.000000 1.827810 
# 
# From -- ./inp_files/3394.got.cif
#   From: 2010.05.17/outbox.cif.g08.bks.cpg/sg52_2_cif.got.tgz:3394.got - 2010.06.03 12:15:38.
