data_PCOD9410796
_publ_section_title
;
Structure prediction by ZEFSAII (Michael W. Deem and Ramdas Pophale) SiO2 
 PCOD9410796
Probable space group: P N N A
;
_chemical_formula_sum "Si O2"
_cell_formula_units_Z 40
_cell_length_a 15.541657
_cell_length_b 10.859954
_cell_length_c 9.859556
_cell_angle_alpha 90.000000
_cell_angle_beta 90.000000
_cell_angle_gamma 90.000000
_cell_volume 1664.112427
_symmetry_space_group_name_H-M "P N N A"
_symmetry_group_IT_number 52
_symmetry_cell_setting 'orthorhombic'
loop_
_space_group_symop_operation_xyz
x,y,z
1/2-x,-y,z
x,1/2-y,1/2-z
1/2-x,1/2+y,1/2-z
-x,-y,-z
1/2+x,y,-z
-x,1/2+y,1/2+z
1/2+x,1/2-y,1/2+z
loop_
_atom_site_type_symbol
_atom_site_label
_atom_site_fract_x
_atom_site_fract_y
_atom_site_fract_z
Si Si1 0.579434 0.613861 0.279763
Si Si2 0.575263 0.982646 0.660115
Si Si3 0.193978 0.620513 0.961998
Si Si4 0.654678 0.260689 0.907947
Si Si5 0.852292 0.492476 0.549986
O O1 0.540585 0.750000 0.250000
O O2 0.519942 0.506616 0.216257
O O3 0.666866 0.616008 0.192844
O O4 0.601206 0.586143 0.434824
O O5 0.599473 0.114524 0.590821
O O6 0.630490 0.954163 0.794919
O O7 0.606438 0.884088 0.550024
O O8 0.250000 0.500000 0.997632
O O9 0.259080 0.725982 0.004183
O O10 0.680349 0.250000 0.750000
O O11 0.611387 0.133418 0.952066
O O12 0.750000 0.500000 0.528181
#
# Coordination Sequence:
#
# PCOD9410796 Si02
#       5
#     8   8   8   8   8
#     4  12  24  37  55  87 125 157 192 247 312 370
#     4  10  21  39  61  84 114 154 201 252 304 363
#     4  10  21  38  60  83 113 152 198 249 302 359
#     4   9  18  37  62  86 110 151 207 255 299 365
#     4  11  21  37  61  86 116 158 204 249 302 369
#
# _framework density 24.036836999999998
#
# number of rings (size 3 to 8) (size 9 to 14) (size 15 to 20)
#    0.000    1.600    0.000    7.800    0.000    0.000 
#    0.000    3.000    0.000    9.600    0.000    0.000 
#    0.000    0.000    0.000    0.000    0.000    0.000 
#
# Total GULP energy -223514.075645 kJ/mol
# GULP energy per Si atom -5587.851891 kJ/mol
# Density = 2.398213 g / cm^3
# Si number density = 24.036837 Si / 1000 Ang^3
#
#
#
# Elastic Constant Matrix: (Units=GPa)
#
#
# Indices 1 2 3 4 5 6 
#
# 1 70.3974 -0.2446 22.3219 0.0000 0.0000 0.0000
# 2 -0.2446 63.6402 41.2484 0.0000 0.0000 0.0000
# 3 22.3219 41.2484 110.8977 0.0000 0.0000 0.0000
# 4 0.0000 0.0000 0.0000 25.1513 0.0000 0.0000
# 5 0.0000 0.0000 0.0000 0.0000 23.7672 0.0000
# 6 0.0000 0.0000 0.0000 0.0000 0.0000 9.9562
#
#
#
# Elastic Compliance Matrix: (Units=1/GPa)
#
#
# Indices 1 2 3 4 5 6 
#
# 1 0.015530 0.002748 -0.004148 0.000000 0.000000 0.000000
# 2 0.002748 0.021191 -0.008435 0.000000 0.000000 0.000000
# 3 -0.004148 -0.008435 0.012990 0.000000 0.000000 0.000000
# 4 0.000000 0.000000 0.000000 0.039759 0.000000 0.000000
# 5 0.000000 0.000000 0.000000 0.000000 0.042075 0.000000
# 6 0.000000 0.000000 0.000000 0.000000 0.000000 0.100440
#
#
# Mechanical properties :
#
#
# Convention : Reuss Voigt Hill
#
# Bulk Modulus (GPa) = 33.28817 41.28741 37.28779
# Shear Modulus (GPa) = 19.10809 23.88223 21.49516
#
# Velocity S-wave (km/s) = 2.82255 3.15551 2.99366
# Velocity P-wave (km/s) = 4.94987 5.52181 5.24364
#
# Compressibility (1/GPa) = 0.03004070
#
# Stress axis : x y z
#
# Youngs Moduli (GPa) = 64.39179 47.18938 76.98371
#
# Poissons Ratio (x) = -0.12969 0.31934
# Poissons Ratio (y) = -0.17697 0.64938
# Poissons Ratio (z) = 0.26711 0.39805
#
# Static dielectric constant tensor:
#      x y z
#    x 1.964830 0.000000 0.000000 
#    y 0.000000 2.019350 0.000000 
#    z 0.000000 0.000000 1.855880 
# 
# From -- ./inp_files/11634.got.cif
#   From: 2010.05.17/outbox.cif.g08.bks.cpg/sg52_6_cif.got.tgz:11634.got - 2010.06.03 12:15:38.
