data_PCOD9410681
_publ_section_title
;
Structure prediction by ZEFSAII (Michael W. Deem and Ramdas Pophale) SiO2 
 PCOD9410681
Probable space group: P N N A
;
_chemical_formula_sum "Si O2"
_cell_formula_units_Z 40
_cell_length_a 27.865689
_cell_length_b 4.995043
_cell_length_c 13.417264
_cell_angle_alpha 90.000000
_cell_angle_beta 90.000000
_cell_angle_gamma 90.000000
_cell_volume 1867.553200
_symmetry_space_group_name_H-M "P N N A"
_symmetry_group_IT_number 52
_symmetry_cell_setting 'orthorhombic'
loop_
_space_group_symop_operation_xyz
x,y,z
1/2-x,-y,z
x,1/2-y,1/2-z
1/2-x,1/2+y,1/2-z
-x,-y,-z
1/2+x,y,-z
-x,1/2+y,1/2+z
1/2+x,1/2-y,1/2+z
loop_
_atom_site_type_symbol
_atom_site_label
_atom_site_fract_x
_atom_site_fract_y
_atom_site_fract_z
Si Si1 0.845078 0.890481 0.438533
Si Si2 0.451268 0.284080 0.070277
Si Si3 0.147342 0.607705 0.422120
Si Si4 0.280961 0.250000 0.250000
Si Si5 0.445334 0.716730 0.569102
Si Si6 0.750000 0.500000 0.183721
O O1 0.845882 0.683276 0.530731
O O2 0.894501 0.799502 0.382383
O O3 0.795418 0.888495 0.378700
O O4 0.848788 0.184564 0.485982
O O5 0.404342 0.178644 0.126084
O O6 0.503272 0.261238 0.120558
O O7 0.446840 0.583066 0.027145
O O8 0.448551 0.083953 0.973664
O O9 0.187322 0.655286 0.341483
O O10 0.250000 0.500000 0.215220
O O11 0.732618 0.750000 0.250000
#
# Coordination Sequence:
#
# PCOD9410681 Si02
#       6
#     8   8   8   4   8   4
#     4  10  21  37  62  83 112 153 195 233 287 362
#     4   8  14  27  50  78 111 135 183 229 275 329
#     4  10  21  37  57  86 114 155 193 232 284 343
#     4  12  26  38  54  84 126 156 194 246 278 322
#     4   8  14  27  50  83 103 138 182 231 272 335
#     4  12  26  42  60  86 116 152 192 256 306 342
#
# _framework density 21.418399999999998
#
# number of rings (size 3 to 8) (size 9 to 14) (size 15 to 20)
#    0.000    2.400    0.000    2.400    4.200    0.000 
#    0.000    0.000    2.200    0.000    2.600    0.000 
#    0.000    0.000    0.000    0.000    0.000    0.000 
#
# Total GULP energy -222876.327422 kJ/mol
# GULP energy per Si atom -5571.908186 kJ/mol
# Density = 2.136965 g / cm^3
# Si number density = 21.418400 Si / 1000 Ang^3
#
#
#
# Elastic Constant Matrix: (Units=GPa)
#
#
# Indices 1 2 3 4 5 6 
#
# 1 190.5654 15.8440 36.1869 0.0000 0.0000 0.0000
# 2 15.8440 92.1871 3.7529 0.0000 0.0000 0.0000
# 3 36.1869 3.7529 27.2887 0.0000 0.0000 0.0000
# 4 0.0000 0.0000 0.0000 13.8850 0.0000 0.0000
# 5 0.0000 0.0000 0.0000 0.0000 -183.6669 0.0000
# 6 0.0000 0.0000 0.0000 0.0000 0.0000 59.2948
#
#
#
# Elastic Compliance Matrix: (Units=1/GPa)
#
#
# Indices 1 2 3 4 5 6 
#
# 1 0.007078 -0.000839 -0.009270 0.000000 0.000000 0.000000
# 2 -0.000839 0.011008 -0.000401 0.000000 0.000000 0.000000
# 3 -0.009270 -0.000401 0.048993 0.000000 0.000000 0.000000
# 4 0.000000 0.000000 0.000000 0.072020 0.000000 0.000000
# 5 0.000000 0.000000 0.000000 0.000000 -0.005445 0.000000
# 6 0.000000 0.000000 0.000000 0.000000 0.000000 0.016865
#
#
# Mechanical properties :
#
#
# Convention : Reuss Voigt Hill
#
# Bulk Modulus (GPa) = 21.71169 46.84543 34.27856
# Shear Modulus (GPa) = 26.75328 -5.14694 10.80317
#
# Velocity S-wave (km/s) = 3.53807 -1.55186 2.24829
# Velocity P-wave (km/s) = 5.18165 4.32528 4.77271
#
# Compressibility (1/GPa) = 0.04605815
#
# Stress axis : x y z
#
# Youngs Moduli (GPa) = 141.29046 90.84269 20.41098
#
# Poissons Ratio (x) = 0.07622 0.18921
# Poissons Ratio (y) = 0.11855 0.00819
# Poissons Ratio (z) = 1.30977 0.03645
#
# Static dielectric constant tensor:
#      x y z
#    x 1.917060 0.000000 0.000000 
#    y 0.000000 1.737360 0.000000 
#    z 0.000000 0.000000 1.854240 
# 
# From -- ./inp_files/29322.got.cif
#   From: 2010.05.17/outbox.cif.g08.bks.cpg/sg52_15_cif.got.tgz:29322.got - 2010.06.03 12:15:38.
