data_PCOD9410731
_publ_section_title
;
Structure prediction by ZEFSAII (Michael W. Deem and Ramdas Pophale) SiO2 
 PCOD9410731
Probable space group: P N N A
;
_chemical_formula_sum "Si O2"
_cell_formula_units_Z 48
_cell_length_a 8.369946
_cell_length_b 14.175218
_cell_length_c 17.784498
_cell_angle_alpha 90.000000
_cell_angle_beta 90.000000
_cell_angle_gamma 90.000000
_cell_volume 2110.056156
_symmetry_space_group_name_H-M "P N N A"
_symmetry_group_IT_number 52
_symmetry_cell_setting 'orthorhombic'
loop_
_space_group_symop_operation_xyz
x,y,z
1/2-x,-y,z
x,1/2-y,1/2-z
1/2-x,1/2+y,1/2-z
-x,-y,-z
1/2+x,y,-z
-x,1/2+y,1/2+z
1/2+x,1/2-y,1/2+z
loop_
_atom_site_type_symbol
_atom_site_label
_atom_site_fract_x
_atom_site_fract_y
_atom_site_fract_z
Si Si1 0.499295 0.810370 0.073034
Si Si2 0.323227 0.898982 0.771352
Si Si3 0.035342 0.353142 0.268124
Si Si4 0.504345 0.912713 0.612955
Si Si5 0.876722 0.791852 0.083393
Si Si6 0.116966 0.100812 0.386519
O O1 0.441748 0.872650 0.144087
O O2 0.688283 0.803554 0.077500
O O3 0.438157 0.704463 0.090236
O O4 0.450415 0.840134 0.990070
O O5 0.154947 0.849367 0.751120
O O6 0.432070 0.909297 0.697737
O O7 0.414005 0.841607 0.836780
O O8 0.250000 0.000000 0.797427
O O9 0.103651 0.250000 0.250000
O O10 0.108976 0.416014 0.203686
O O11 0.424696 0.818541 0.579482
O O12 0.694462 0.902567 0.598583
O O13 0.490985 0.021473 0.584649
#
# Coordination Sequence:
#
# PCOD9410731 Si02
#       6
#     8   8   8   8   8   8
#     4  10  22  39  59  83 124 157 204 246 306 375
#     4  11  21  38  63  87 120 158 208 253 300 366
#     4   9  18  36  60  83 113 154 198 249 302 354
#     4  11  22  36  62  92 124 150 206 251 313 370
#     4  11  24  39  60  90 120 169 201 253 314 373
#     4  10  21  37  61  94 119 159 195 257 307 368
#
# _framework density 22.748208000000002
#
# number of rings (size 3 to 8) (size 9 to 14) (size 15 to 20)
#    0.000    1.667    1.667    4.500    0.000    6.000 
#    0.000    3.333    3.667    0.000    0.000    0.000 
#    0.000    0.000    0.000    0.000    0.000    0.000 
#
# Total GULP energy -267457.241073 kJ/mol
# GULP energy per Si atom -5572.025856 kJ/mol
# Density = 2.269643 g / cm^3
# Si number density = 22.748208 Si / 1000 Ang^3
#
#
#
# Elastic Constant Matrix: (Units=GPa)
#
#
# Indices 1 2 3 4 5 6 
#
# 1 20.3193 -10.3723 9.5429 0.0000 0.0000 0.0000
# 2 -10.3723 40.6553 -12.3788 0.0000 0.0000 0.0000
# 3 9.5429 -12.3788 85.1970 0.0000 0.0000 0.0000
# 4 0.0000 0.0000 0.0000 5.6619 0.0000 0.0000
# 5 0.0000 0.0000 0.0000 0.0000 32.2143 0.0000
# 6 0.0000 0.0000 0.0000 0.0000 0.0000 17.7564
#
#
#
# Elastic Compliance Matrix: (Units=1/GPa)
#
#
# Indices 1 2 3 4 5 6 
#
# 1 0.058233 0.013467 -0.004566 0.000000 0.000000 0.000000
# 2 0.013467 0.028850 0.002683 0.000000 0.000000 0.000000
# 3 -0.004566 0.002683 0.012639 0.000000 0.000000 0.000000
# 4 0.000000 0.000000 0.000000 0.176618 0.000000 0.000000
# 5 0.000000 0.000000 0.000000 0.000000 0.031042 0.000000
# 6 0.000000 0.000000 0.000000 0.000000 0.000000 0.056318
#
#
# Mechanical properties :
#
#
# Convention : Reuss Voigt Hill
#
# Bulk Modulus (GPa) = 8.13739 13.30613 10.72176
# Shear Modulus (GPa) = 13.10635 21.75185 17.42910
#
# Velocity S-wave (km/s) = 2.40291 3.09560 2.77099
# Velocity P-wave (km/s) = 3.35910 4.31729 3.86798
#
# Compressibility (1/GPa) = 0.12288953
#
# Stress axis : x y z
#
# Youngs Moduli (GPa) = 17.17238 34.66231 79.12122
#
# Poissons Ratio (x) = -0.46678 0.36127
# Poissons Ratio (y) = -0.23125 -0.21231
# Poissons Ratio (z) = 0.07841 -0.09301
#
# Static dielectric constant tensor:
#      x y z
#    x 1.809800 0.000000 0.000000 
#    y 0.000000 1.971920 0.000000 
#    z 0.000000 0.000000 1.978600 
# 
# From -- ./inp_files/31213.got.cif
#   From: 2010.05.17/outbox.cif.g08.bks.cpg/sg52_16_cif.got.tgz:31213.got - 2010.06.03 12:15:38.
