data_PCOD9410684
_publ_section_title
;
Structure prediction by ZEFSAII (Michael W. Deem and Ramdas Pophale) SiO2 
 PCOD9410684
Probable space group: P N N A
;
_chemical_formula_sum "Si O2"
_cell_formula_units_Z 48
_cell_length_a 26.375526
_cell_length_b 15.919214
_cell_length_c 5.482138
_cell_angle_alpha 90.000000
_cell_angle_beta 90.000000
_cell_angle_gamma 90.000000
_cell_volume 2301.827181
_symmetry_space_group_name_H-M "P N N A"
_symmetry_group_IT_number 52
_symmetry_cell_setting 'orthorhombic'
loop_
_space_group_symop_operation_xyz
x,y,z
1/2-x,-y,z
x,1/2-y,1/2-z
1/2-x,1/2+y,1/2-z
-x,-y,-z
1/2+x,y,-z
-x,1/2+y,1/2+z
1/2+x,1/2-y,1/2+z
loop_
_atom_site_type_symbol
_atom_site_label
_atom_site_fract_x
_atom_site_fract_y
_atom_site_fract_z
Si Si1 0.351401 0.900784 0.338519
Si Si2 0.259795 0.833425 0.589332
Si Si3 0.158870 0.584834 0.943444
Si Si4 0.053745 0.303478 0.998044
Si Si5 0.561759 0.803480 0.501561
Si Si6 0.698874 0.475201 0.447711
O O1 0.306692 0.836103 0.405121
O O2 0.402973 0.872016 0.459610
O O3 0.344966 0.914504 0.051633
O O4 0.339660 0.996495 0.417574
O O5 0.258446 0.750000 0.750000
O O6 0.204484 0.853115 0.480919
O O7 0.273882 0.915243 0.750309
O O8 0.105147 0.627353 0.980989
O O9 0.170983 0.555865 0.665645
O O10 0.056424 0.250000 0.250000
O O11 0.996078 0.336466 0.981520
O O12 0.062985 0.250000 0.750000
O O13 0.564921 0.750000 0.250000
O O14 0.569958 0.750000 0.750000
O O15 0.750000 0.500000 0.600476
#
# Coordination Sequence:
#
# PCOD9410684 Si02
#       6
#     8   8   8   8   8   8
#     4  11  22  36  61  89 126 167 208 259 318 382
#     4  10  21  37  57  89 123 163 211 256 316 374
#     4  10  22  39  61  88 126 166 212 261 316 383
#     4  10  24  43  66  93 127 165 212 269 319 375
#     4  10  23  45  66  92 126 165 213 268 320 371
#     4   9  20  37  56  85 128 164 202 258 316 379
#
# _framework density 20.853000999999999
#
# number of rings (size 3 to 8) (size 9 to 14) (size 15 to 20)
#    0.000    2.000    0.000    3.500    9.333    0.667 
#    3.000    0.833    0.000    0.000    0.000    0.000 
#    0.000    0.000    0.000    0.000    0.000    0.000 
#
# Total GULP energy -267350.856428 kJ/mol
# GULP energy per Si atom -5569.809509 kJ/mol
# Density = 2.080554 g / cm^3
# Si number density = 20.853001 Si / 1000 Ang^3
#
#
#
# Elastic Constant Matrix: (Units=GPa)
#
#
# Indices 1 2 3 4 5 6 
#
# 1 142.8898 58.2624 43.1327 0.0000 0.0000 0.0000
# 2 58.2624 73.0529 16.2297 0.0000 0.0000 0.0000
# 3 43.1327 16.2297 72.3726 0.0000 0.0000 0.0000
# 4 0.0000 0.0000 0.0000 28.3654 0.0000 0.0000
# 5 0.0000 0.0000 0.0000 0.0000 19.9945 0.0000
# 6 0.0000 0.0000 0.0000 0.0000 0.0000 31.5646
#
#
#
# Elastic Compliance Matrix: (Units=1/GPa)
#
#
# Indices 1 2 3 4 5 6 
#
# 1 0.012024 -0.008417 -0.005278 0.000000 0.000000 0.000000
# 2 -0.008417 0.020298 0.000464 0.000000 0.000000 0.000000
# 3 -0.005278 0.000464 0.016859 0.000000 0.000000 0.000000
# 4 0.000000 0.000000 0.000000 0.035254 0.000000 0.000000
# 5 0.000000 0.000000 0.000000 0.000000 0.050014 0.000000
# 6 0.000000 0.000000 0.000000 0.000000 0.000000 0.031681
#
#
# Mechanical properties :
#
#
# Convention : Reuss Voigt Hill
#
# Bulk Modulus (GPa) = 44.01545 58.17389 51.09467
# Shear Modulus (GPa) = 24.97950 27.36427 26.17189
#
# Velocity S-wave (km/s) = 3.46480 3.62642 3.54653
# Velocity P-wave (km/s) = 6.09588 6.74480 6.42853
#
# Compressibility (1/GPa) = 0.02271930
#
# Stress axis : x y z
#
# Youngs Moduli (GPa) = 83.17036 49.26578 59.31515
#
# Poissons Ratio (x) = 0.41465 0.31309
# Poissons Ratio (y) = 0.70001 -0.02753
# Poissons Ratio (z) = 0.43900 -0.02287
#
# Static dielectric constant tensor:
#      x y z
#    x 1.775680 0.000000 0.000000 
#    y 0.000000 1.731430 0.000000 
#    z 0.000000 0.000000 2.022770 
# 
# From -- ./inp_files/5807.got.cif
#   From: 2010.05.17/outbox.cif.g08.bks.cpg/sg52_3_cif.got.tgz:5807.got - 2010.06.03 12:15:38.
