data_PCOD9410372
_publ_section_title
;
Structure prediction by ZEFSAII (Michael W. Deem and Ramdas Pophale) SiO2 
 PCOD9410372
Probable space group: P N N A
;
_chemical_formula_sum "Si O2"
_cell_formula_units_Z 44
_cell_length_a 8.493463
_cell_length_b 8.532840
_cell_length_c 28.803990
_cell_angle_alpha 90.000000
_cell_angle_beta 90.000000
_cell_angle_gamma 90.000000
_cell_volume 2087.521960
_symmetry_space_group_name_H-M "P N N A"
_symmetry_group_IT_number 52
_symmetry_cell_setting 'orthorhombic'
loop_
_space_group_symop_operation_xyz
x,y,z
1/2-x,-y,z
x,1/2-y,1/2-z
1/2-x,1/2+y,1/2-z
-x,-y,-z
1/2+x,y,-z
-x,1/2+y,1/2+z
1/2+x,1/2-y,1/2+z
loop_
_atom_site_type_symbol
_atom_site_label
_atom_site_fract_x
_atom_site_fract_y
_atom_site_fract_z
Si Si1 0.250000 0.500000 0.486966
Si Si2 0.250000 0.000000 0.298222
Si Si3 0.435787 0.009733 0.448836
Si Si4 0.472272 0.250000 0.250000
Si Si5 0.969760 0.100265 0.356636
Si Si6 0.951868 0.856341 0.063816
Si Si7 0.341091 0.742104 0.659318
O O1 0.399418 0.456704 0.454868
O O2 0.183124 0.372323 0.524111
O O3 0.361035 0.110769 0.267957
O O4 0.137240 0.103984 0.331234
O O5 0.483156 0.182195 0.434070
O O6 0.250000 0.000000 0.447780
O O7 0.500000 0.000000 0.500000
O O8 0.508901 0.888498 0.412153
O O9 0.581356 0.307730 0.292426
O O10 0.845451 0.227028 0.339256
O O11 0.905845 0.922320 0.347904
O O12 0.887046 0.870627 0.116272
#
# Coordination Sequence:
#
# PCOD9410372 Si02
#       7
#     4   4   8   4   8   8   8
#     4  10  22  41  58  78 128 178 203 254 304 380
#     4  10  20  41  62  94 120 162 203 264 318 380
#     4  11  22  33  59  96 118 151 203 257 305 370
#     4  10  22  40  66  92 124 158 216 262 324 378
#     4   9  19  37  58  87 125 154 191 255 328 353
#     4  10  22  40  57  84 122 164 209 246 313 377
#     4   9  20  38  60  85 120 159 199 261 313 376
#
# _framework density 21.077621000000001
#
# number of rings (size 3 to 8) (size 9 to 14) (size 15 to 20)
#    0.000    2.182    0.909    1.091    7.636    1.455 
#    0.000    5.455    0.000    0.000    0.000    0.000 
#    0.000    0.000    0.000    0.000    0.000    0.000 
#
# Total GULP energy -245410.333389 kJ/mol
# GULP energy per Si atom -5577.507577 kJ/mol
# Density = 2.102965 g / cm^3
# Si number density = 21.077621 Si / 1000 Ang^3
#
#
#
# Elastic Constant Matrix: (Units=GPa)
#
#
# Indices 1 2 3 4 5 6 
#
# 1 136.6038 25.7703 79.5525 0.0000 0.0000 0.0000
# 2 25.7703 29.3288 29.7066 0.0000 0.0000 0.0000
# 3 79.5525 29.7066 173.1864 0.0000 0.0000 0.0000
# 4 0.0000 0.0000 0.0000 25.1325 0.0000 0.0000
# 5 0.0000 0.0000 0.0000 0.0000 43.8596 0.0000
# 6 0.0000 0.0000 0.0000 0.0000 0.0000 28.9448
#
#
#
# Elastic Compliance Matrix: (Units=1/GPa)
#
#
# Indices 1 2 3 4 5 6 
#
# 1 0.010639 -0.005323 -0.003974 0.000000 0.000000 0.000000
# 2 -0.005323 0.043929 -0.005090 0.000000 0.000000 0.000000
# 3 -0.003974 -0.005090 0.008473 0.000000 0.000000 0.000000
# 4 0.000000 0.000000 0.000000 0.039789 0.000000 0.000000
# 5 0.000000 0.000000 0.000000 0.000000 0.022800 0.000000
# 6 0.000000 0.000000 0.000000 0.000000 0.000000 0.034548
#
#
# Mechanical properties :
#
#
# Convention : Reuss Voigt Hill
#
# Bulk Modulus (GPa) = 29.18288 67.68642 48.43465
# Shear Modulus (GPa) = 24.95335 33.19337 29.07336
#
# Velocity S-wave (km/s) = 3.44449 3.97270 3.71799
# Velocity P-wave (km/s) = 5.44929 7.29560 6.43897
#
# Compressibility (1/GPa) = 0.03426667
#
# Stress axis : x y z
#
# Youngs Moduli (GPa) = 93.99526 22.76403 118.02765
#
# Poissons Ratio (x) = 0.12117 0.46903
# Poissons Ratio (y) = 0.50033 0.60076
# Poissons Ratio (z) = 0.37352 0.11587
#
# Static dielectric constant tensor:
#      x y z
#    x 1.784870 0.000000 0.000000 
#    y 0.000000 1.771380 0.000000 
#    z 0.000000 0.000000 1.834270 
# 
# From -- ./inp_files/44296.got.cif
#   From: 2010.05.17/outbox.cif.g08.bks.cpg/sg52_23_cif.got.tgz:44296.got - 2010.06.03 12:15:38.
