data_PCOD9410488
_publ_section_title
;
Structure prediction by ZEFSAII (Michael W. Deem and Ramdas Pophale) SiO2 
 PCOD9410488
Probable space group: P N N A
;
_chemical_formula_sum "Si O2"
_cell_formula_units_Z 48
_cell_length_a 7.716921
_cell_length_b 12.326993
_cell_length_c 25.647406
_cell_angle_alpha 90.000000
_cell_angle_beta 90.000000
_cell_angle_gamma 90.000000
_cell_volume 2439.746201
_symmetry_space_group_name_H-M "P N N A"
_symmetry_group_IT_number 52
_symmetry_cell_setting 'orthorhombic'
loop_
_space_group_symop_operation_xyz
x,y,z
1/2-x,-y,z
x,1/2-y,1/2-z
1/2-x,1/2+y,1/2-z
-x,-y,-z
1/2+x,y,-z
-x,1/2+y,1/2+z
1/2+x,1/2-y,1/2+z
loop_
_atom_site_type_symbol
_atom_site_label
_atom_site_fract_x
_atom_site_fract_y
_atom_site_fract_z
Si Si1 0.250000 0.000000 0.505273
Si Si2 0.750000 0.500000 0.463583
Si Si3 0.250000 0.500000 0.361164
Si Si4 0.532083 0.631095 0.932611
Si Si5 0.050141 0.520636 0.722570
Si Si6 0.870213 0.394904 0.814468
Si Si7 0.922204 0.374734 0.555990
Si Si8 0.617561 0.250000 0.750000
O O1 0.298502 0.095796 0.465156
O O2 0.105239 0.047444 0.543619
O O3 0.832322 0.410152 0.502206
O O4 0.586688 0.452406 0.433489
O O5 0.415883 0.501104 0.324097
O O6 0.220534 0.602028 0.399611
O O7 0.545638 0.625798 0.870377
O O8 0.503490 0.755397 0.946190
O O9 0.250000 0.500000 0.709493
O O10 0.999101 0.436270 0.768933
O O11 0.001984 0.645276 0.737955
O O12 0.750000 0.500000 0.822099
O O13 0.749988 0.295549 0.794426
#
# Coordination Sequence:
#
# PCOD9410488 Si02
#       8
#     4   4   4   8   8   8   8   4
#     4  10  24  37  60  88 134 153 224 252 306 380
#     4   9  20  40  58  94 124 156 212 267 312 392
#     4  11  22  43  62  98 130 159 208 281 320 388
#     4  11  21  40  60  91 119 174 201 264 311 378
#     4  11  24  42  63  93 129 165 216 267 317 392
#     4  10  21  40  66  88 130 165 212 261 324 376
#     4  10  21  37  66  87 125 166 209 260 331 374
#     4  10  20  44  66  90 122 176 206 262 330 388
#
# _framework density 19.674178000000001
#
# number of rings (size 3 to 8) (size 9 to 14) (size 15 to 20)
#    0.000    1.667    3.333    2.000    2.333    0.667 
#    0.000    0.000    0.000    0.000    0.000    0.000 
#    0.000    0.000    0.000    0.000    0.000    0.000 
#
# Total GULP energy -267544.378757 kJ/mol
# GULP energy per Si atom -5573.841224 kJ/mol
# Density = 1.962940 g / cm^3
# Si number density = 19.674178 Si / 1000 Ang^3
#
#
#
# Elastic Constant Matrix: (Units=GPa)
#
#
# Indices 1 2 3 4 5 6 
#
# 1 100.1004 25.6816 43.8276 0.0000 0.0000 0.0000
# 2 25.6816 75.6391 41.4623 0.0000 0.0000 0.0000
# 3 43.8276 41.4623 103.6716 0.0000 0.0000 0.0000
# 4 0.0000 0.0000 0.0000 19.2060 0.0000 0.0000
# 5 0.0000 0.0000 0.0000 0.0000 9.2026 0.0000
# 6 0.0000 0.0000 0.0000 0.0000 0.0000 22.7599
#
#
#
# Elastic Compliance Matrix: (Units=1/GPa)
#
#
# Indices 1 2 3 4 5 6 
#
# 1 0.012431 -0.001716 -0.004569 0.000000 0.000000 0.000000
# 2 -0.001716 0.017170 -0.006141 0.000000 0.000000 0.000000
# 3 -0.004569 -0.006141 0.014033 0.000000 0.000000 0.000000
# 4 0.000000 0.000000 0.000000 0.052067 0.000000 0.000000
# 5 0.000000 0.000000 0.000000 0.000000 0.108665 0.000000
# 6 0.000000 0.000000 0.000000 0.000000 0.000000 0.043937
#
#
# Mechanical properties :
#
#
# Convention : Reuss Voigt Hill
#
# Bulk Modulus (GPa) = 53.24421 55.70601 54.47511
# Shear Modulus (GPa) = 17.89450 21.46301 19.67876
#
# Velocity S-wave (km/s) = 3.01913 3.30650 3.16608
# Velocity P-wave (km/s) = 6.26700 6.55385 6.41203
#
# Compressibility (1/GPa) = 0.01878139
#
# Stress axis : x y z
#
# Youngs Moduli (GPa) = 80.44647 58.24186 71.25832
#
# Poissons Ratio (x) = 0.09995 0.32556
# Poissons Ratio (y) = 0.13806 0.43762
# Poissons Ratio (z) = 0.36754 0.35768
#
# Static dielectric constant tensor:
#      x y z
#    x 1.737130 0.000000 0.000000 
#    y 0.000000 1.717620 0.000000 
#    z 0.000000 0.000000 1.710860 
# 
# From -- ./inp_files/39540.got.cif
#   From: 2010.05.17/outbox.cif.g08.bks.cpg/sg52_20_cif.got.tgz:39540.got - 2010.06.03 12:15:38.
