data_PCOD9410711
_publ_section_title
;
Structure prediction by ZEFSAII (Michael W. Deem and Ramdas Pophale) SiO2 
 PCOD9410711
Probable space group: P N N A
;
_chemical_formula_sum "Si O2"
_cell_formula_units_Z 60
_cell_length_a 8.981924
_cell_length_b 12.392259
_cell_length_c 27.303144
_cell_angle_alpha 90.000000
_cell_angle_beta 90.000000
_cell_angle_gamma 90.000000
_cell_volume 3039.012716
_symmetry_space_group_name_H-M "P N N A"
_symmetry_group_IT_number 52
_symmetry_cell_setting 'orthorhombic'
loop_
_space_group_symop_operation_xyz
x,y,z
1/2-x,-y,z
x,1/2-y,1/2-z
1/2-x,1/2+y,1/2-z
-x,-y,-z
1/2+x,y,-z
-x,1/2+y,1/2+z
1/2+x,1/2-y,1/2+z
loop_
_atom_site_type_symbol
_atom_site_label
_atom_site_fract_x
_atom_site_fract_y
_atom_site_fract_z
Si Si1 0.947229 0.799271 0.104287
Si Si2 0.750000 0.000000 0.727637
Si Si3 0.427582 0.015627 0.947488
Si Si4 0.616193 0.865517 0.538956
Si Si5 0.095828 0.713944 0.615644
Si Si6 0.563905 0.339409 0.709990
Si Si7 0.956282 0.897037 0.562251
Si Si8 0.134241 0.721915 0.194625
O O1 0.974944 0.924325 0.091530
O O2 0.771681 0.777790 0.107628
O O3 0.025243 0.732811 0.061048
O O4 0.019685 0.757693 0.154150
O O5 0.621574 0.054239 0.761726
O O6 0.819470 0.096534 0.695885
O O7 0.250000 0.000000 0.952470
O O8 0.462391 0.133119 0.926262
O O9 0.500000 0.000000 0.000000
O O10 0.792781 0.855003 0.546471
O O11 0.572179 0.880261 0.482341
O O12 0.564372 0.974584 0.567059
O O13 0.056240 0.658280 0.667251
O O14 0.016787 0.829148 0.607957
O O15 0.516790 0.250000 0.750000
O O16 0.715103 0.290311 0.686776
O O17 0.084496 0.750000 0.250000
#
# Coordination Sequence:
#
# PCOD9410711 Si02
#       8
#     8   4   8   8   8   8   8   8
#     4  11  23  38  58  87 120 156 198 240 300 350
#     4   8  18  38  62  86 116 144 200 244 306 348
#     4  10  24  41  57  85 121 159 200 245 289 349
#     4  10  21  37  60  82 119 150 191 245 288 359
#     4  11  23  38  60  84 122 155 197 245 292 359
#     4   9  20  37  60  85 113 151 194 246 295 356
#     4  10  21  38  57  87 113 153 194 237 300 342
#     4   9  20  37  60  87 115 151 193 248 293 361
#
# _framework density 19.743252999999999
#
# number of rings (size 3 to 8) (size 9 to 14) (size 15 to 20)
#    0.000    2.400    0.000    2.400    3.733    9.600 
#    0.000    0.000    0.000    0.000    0.000    0.000 
#    0.000    0.000    0.000    0.000    0.000    0.000 
#
# Total GULP energy -334975.846120 kJ/mol
# GULP energy per Si atom -5582.930769 kJ/mol
# Density = 1.969832 g / cm^3
# Si number density = 19.743253 Si / 1000 Ang^3
#
#
#
# Elastic Constant Matrix: (Units=GPa)
#
#
# Indices 1 2 3 4 5 6 
#
# 1 43.7841 24.8904 6.9043 0.0000 0.0000 0.0000
# 2 24.8904 79.4513 5.0106 0.0000 0.0000 0.0000
# 3 6.9043 5.0106 43.0383 0.0000 0.0000 0.0000
# 4 0.0000 0.0000 0.0000 10.6136 0.0000 0.0000
# 5 0.0000 0.0000 0.0000 0.0000 20.6924 0.0000
# 6 0.0000 0.0000 0.0000 0.0000 0.0000 18.8410
#
#
#
# Elastic Compliance Matrix: (Units=1/GPa)
#
#
# Indices 1 2 3 4 5 6 
#
# 1 0.028312 -0.008647 -0.003535 0.000000 0.000000 0.000000
# 2 -0.008647 0.015320 -0.000396 0.000000 0.000000 0.000000
# 3 -0.003535 -0.000396 0.023848 0.000000 0.000000 0.000000
# 4 0.000000 0.000000 0.000000 0.094219 0.000000 0.000000
# 5 0.000000 0.000000 0.000000 0.000000 0.048327 0.000000
# 6 0.000000 0.000000 0.000000 0.000000 0.000000 0.053076
#
#
# Mechanical properties :
#
#
# Convention : Reuss Voigt Hill
#
# Bulk Modulus (GPa) = 23.62727 26.65381 25.14054
# Shear Modulus (GPa) = 16.53618 18.66062 17.59840
#
# Velocity S-wave (km/s) = 2.89720 3.07769 2.98881
# Velocity P-wave (km/s) = 4.81508 5.11459 4.96709
#
# Compressibility (1/GPa) = 0.04232398
#
# Stress axis : x y z
#
# Youngs Moduli (GPa) = 35.32030 65.27344 41.93153
#
# Poissons Ratio (x) = 0.56440 0.14824
# Poissons Ratio (y) = 0.30540 0.01662
# Poissons Ratio (z) = 0.12487 0.02588
#
# Static dielectric constant tensor:
#      x y z
#    x 1.669430 0.000000 0.000000 
#    y 0.000000 1.708630 0.000000 
#    z 0.000000 0.000000 1.704200 
# 
# From -- ./inp_files/44575.got.cif
#   From: 2010.05.17/outbox.cif.g08.bks.cpg/sg52_23_cif.got.tgz:44575.got - 2010.06.03 12:15:38.
