data_PCOD9410181
_publ_section_title
;
Structure prediction by ZEFSAII (Michael W. Deem and Ramdas Pophale) SiO2 
 PCOD9410181
Probable space group: P N N A
;
_chemical_formula_sum "Si O2"
_cell_formula_units_Z 52
_cell_length_a 12.232049
_cell_length_b 26.455021
_cell_length_c 7.499412
_cell_angle_alpha 90.000000
_cell_angle_beta 90.000000
_cell_angle_gamma 90.000000
_cell_volume 2426.803072
_symmetry_space_group_name_H-M "P N N A"
_symmetry_group_IT_number 52
_symmetry_cell_setting 'orthorhombic'
loop_
_space_group_symop_operation_xyz
x,y,z
1/2-x,-y,z
x,1/2-y,1/2-z
1/2-x,1/2+y,1/2-z
-x,-y,-z
1/2+x,y,-z
-x,1/2+y,1/2+z
1/2+x,1/2-y,1/2+z
loop_
_atom_site_type_symbol
_atom_site_label
_atom_site_fract_x
_atom_site_fract_y
_atom_site_fract_z
Si Si1 0.476652 0.750000 0.250000
Si Si2 0.459271 0.592274 0.096850
Si Si3 0.764931 0.866637 0.150124
Si Si4 0.599517 0.546288 0.400790
Si Si5 0.449991 0.938453 0.790150
Si Si6 0.793540 0.666526 0.741928
Si Si7 0.130712 0.683904 0.954450
O O1 0.396043 0.703756 0.289245
O O2 0.556568 0.731955 0.092886
O O3 0.500087 0.562792 0.270803
O O4 0.345746 0.619126 0.150424
O O5 0.547464 0.636137 0.047414
O O6 0.453568 0.557663 0.922511
O O7 0.696396 0.918360 0.163908
O O8 0.888958 0.885304 0.175241
O O9 0.717286 0.828217 0.295592
O O10 0.749735 0.846934 0.951408
O O11 0.563811 0.559401 0.602441
O O12 0.612640 0.486784 0.373053
O O13 0.699711 0.688890 0.866738
#
# Coordination Sequence:
#
# PCOD9410181 Si02
#       7
#     4   8   8   8   8   8   8
#     4  10  26  44  64 100 118 154 218 264 316 398
#     4  10  20  39  60  89 123 166 207 254 313 369
#     4  11  22  39  64  88 120 169 202 248 318 367
#     4  10  22  36  58  90 129 158 215 255 284 372
#     4  11  20  37  61  89 123 168 205 251 306 352
#     4  11  22  43  65  89 128 160 207 263 320 386
#     4  10  23  43  64  89 124 156 208 261 316 388
#
# _framework density 21.427367
#
# number of rings (size 3 to 8) (size 9 to 14) (size 15 to 20)
#    0.000    1.538    3.077    1.846    2.154    0.000 
#    0.000    1.538    0.000    0.000    0.000    0.000 
#    0.000    0.000    0.000    0.000    0.000    0.000 
#
# Total GULP energy -290406.534437 kJ/mol
# GULP energy per Si atom -5584.741047 kJ/mol
# Density = 2.137860 g / cm^3
# Si number density = 21.427367 Si / 1000 Ang^3
#
#
#
# Elastic Constant Matrix: (Units=GPa)
#
#
# Indices 1 2 3 4 5 6 
#
# 1 36.6869 8.9192 4.6146 0.0000 0.0000 0.0000
# 2 8.9192 42.2796 10.5954 0.0000 0.0000 0.0000
# 3 4.6146 10.5954 97.6430 0.0000 0.0000 0.0000
# 4 0.0000 0.0000 0.0000 26.5615 0.0000 0.0000
# 5 0.0000 0.0000 0.0000 0.0000 -8.3164 0.0000
# 6 0.0000 0.0000 0.0000 0.0000 0.0000 27.3414
#
#
#
# Elastic Compliance Matrix: (Units=1/GPa)
#
#
# Indices 1 2 3 4 5 6 
#
# 1 0.028780 -0.005891 -0.000721 0.000000 0.000000 0.000000
# 2 -0.005891 0.025519 -0.002491 0.000000 0.000000 0.000000
# 3 -0.000721 -0.002491 0.010546 0.000000 0.000000 0.000000
# 4 0.000000 0.000000 0.000000 0.037648 0.000000 0.000000
# 5 0.000000 0.000000 0.000000 0.000000 -0.120244 0.000000
# 6 0.000000 0.000000 0.000000 0.000000 0.000000 0.036575
#
#
# Mechanical properties :
#
#
# Convention : Reuss Voigt Hill
#
# Bulk Modulus (GPa) = 21.44066 24.98530 23.21298
# Shear Modulus (GPa) = 95.10125 19.28267 57.19196
#
# Velocity S-wave (km/s) = 6.66929 3.00310 5.17195
# Velocity P-wave (km/s) = 8.32669 4.86935 6.82072
#
# Compressibility (1/GPa) = 0.04664035
#
# Stress axis : x y z
#
# Youngs Moduli (GPa) = 34.74575 39.18660 94.82514
#
# Poissons Ratio (x) = 0.23084 0.06836
# Poissons Ratio (y) = 0.20468 0.23618
# Poissons Ratio (z) = 0.02505 0.09760
#
# Static dielectric constant tensor:
#      x y z
#    x 1.792840 0.000000 0.000000 
#    y 0.000000 1.797260 0.000000 
#    z 0.000000 0.000000 1.752030 
# 
# From -- ./inp_files/8987.got.cif
#   From: 2010.05.17/outbox.cif.g08.bks.cpg/sg52_5_cif.got.tgz:8987.got - 2010.06.03 12:15:38.
