data_PCOD9410112
_publ_section_title
;
Structure prediction by ZEFSAII (Michael W. Deem and Ramdas Pophale) SiO2 
 PCOD9410112
Probable space group: P N N A
;
_chemical_formula_sum "Si O2"
_cell_formula_units_Z 48
_cell_length_a 25.516006
_cell_length_b 13.679319
_cell_length_c 6.569415
_cell_angle_alpha 90.000000
_cell_angle_beta 90.000000
_cell_angle_gamma 90.000000
_cell_volume 2292.999029
_symmetry_space_group_name_H-M "P N N A"
_symmetry_group_IT_number 52
_symmetry_cell_setting 'orthorhombic'
loop_
_space_group_symop_operation_xyz
x,y,z
1/2-x,-y,z
x,1/2-y,1/2-z
1/2-x,1/2+y,1/2-z
-x,-y,-z
1/2+x,y,-z
-x,1/2+y,1/2+z
1/2+x,1/2-y,1/2+z
loop_
_atom_site_type_symbol
_atom_site_label
_atom_site_fract_x
_atom_site_fract_y
_atom_site_fract_z
Si Si1 0.971866 0.849004 0.873542
Si Si2 0.227018 0.750000 0.750000
Si Si3 0.011738 0.750000 0.250000
Si Si4 0.044405 0.580785 0.944814
Si Si5 0.621024 0.023363 0.703182
Si Si6 0.179307 0.843249 0.125588
Si Si7 0.728077 0.394357 0.925786
O O1 0.959622 0.750000 0.750000
O O2 0.926202 0.923829 0.818650
O O3 0.027322 0.886393 0.780352
O O4 0.977948 0.821534 0.107215
O O5 0.190474 0.685270 0.604445
O O6 0.261606 0.816835 0.602197
O O7 0.040274 0.676142 0.092480
O O8 0.098311 0.527785 0.998854
O O9 0.000000 0.500000 0.000000
O O10 0.668468 0.094208 0.643395
O O11 0.643960 0.937060 0.841226
O O12 0.157625 0.750000 0.250000
O O13 0.234877 0.866096 0.235737
O O14 0.750000 0.500000 0.994866
#
# Coordination Sequence:
#
# PCOD9410112 Si02
#       7
#     8   4   4   8   8   8   8
#     4   9  20  40  62  90 124 164 206 255 314 375
#     4  10  20  40  63  86 124 168 204 250 315 368
#     4  10  20  40  63  84 128 168 198 260 321 360
#     4   9  20  38  61  87 121 157 206 255 311 370
#     4  10  20  38  65  90 123 162 210 261 311 375
#     4   9  20  39  61  87 129 161 202 261 313 367
#     4   9  20  39  60  87 125 162 200 259 314 367
#
# _framework density 20.933284
#
# number of rings (size 3 to 8) (size 9 to 14) (size 15 to 20)
#    0.000    2.667    0.000    0.000    1.167    6.667 
#    0.000   35.000    7.333    0.000    0.000    0.000 
#    0.000    0.000    0.000    0.000    0.000    0.000 
#
# Total GULP energy -267992.890716 kJ/mol
# GULP energy per Si atom -5583.185223 kJ/mol
# Density = 2.088564 g / cm^3
# Si number density = 20.933284 Si / 1000 Ang^3
#
#
#
# Elastic Constant Matrix: (Units=GPa)
#
#
# Indices 1 2 3 4 5 6 
#
# 1 86.1361 31.9000 49.6151 0.0000 0.0000 0.0000
# 2 31.9000 75.0146 34.3335 0.0000 0.0000 0.0000
# 3 49.6151 34.3335 116.6343 0.0000 0.0000 0.0000
# 4 0.0000 0.0000 0.0000 32.7981 0.0000 0.0000
# 5 0.0000 0.0000 0.0000 0.0000 -4.7672 0.0000
# 6 0.0000 0.0000 0.0000 0.0000 0.0000 21.9891
#
#
#
# Elastic Compliance Matrix: (Units=1/GPa)
#
#
# Indices 1 2 3 4 5 6 
#
# 1 0.016550 -0.004410 -0.005742 0.000000 0.000000 0.000000
# 2 -0.004410 0.016581 -0.003005 0.000000 0.000000 0.000000
# 3 -0.005742 -0.003005 0.011901 0.000000 0.000000 0.000000
# 4 0.000000 0.000000 0.000000 0.030490 0.000000 0.000000
# 5 0.000000 0.000000 0.000000 0.000000 -0.209767 0.000000
# 6 0.000000 0.000000 0.000000 0.000000 0.000000 0.045477
#
#
# Mechanical properties :
#
#
# Convention : Reuss Voigt Hill
#
# Bulk Modulus (GPa) = 53.42333 56.60913 55.01623
# Shear Modulus (GPa) = -88.94562 20.79976 -34.07293
#
# Velocity S-wave (km/s) = -6.52551 3.15560 -4.03884
# Velocity P-wave (km/s) = 5.58572 6.35440 2.14222
#
# Compressibility (1/GPa) = 0.01871841
#
# Stress axis : x y z
#
# Youngs Moduli (GPa) = 60.42209 60.30831 84.02581
#
# Poissons Ratio (x) = 0.26595 0.48249
# Poissons Ratio (y) = 0.26645 0.25251
# Poissons Ratio (z) = 0.34696 0.18124
#
# Static dielectric constant tensor:
#      x y z
#    x 1.751110 0.000000 0.000000 
#    y 0.000000 1.791190 0.000000 
#    z 0.000000 0.000000 1.744230 
# 
# From -- ./inp_files/5827.got.cif
#   From: 2010.05.17/outbox.cif.g08.bks.cpg/sg52_3_cif.got.tgz:5827.got - 2010.06.03 12:15:38.
