data_PCOD9410960
_publ_section_title
;
Structure prediction by ZEFSAII (Michael W. Deem and Ramdas Pophale) SiO2 
 PCOD9410960
Probable space group: P N N A
;
_chemical_formula_sum "Si O2"
_cell_formula_units_Z 36
_cell_length_a 11.358055
_cell_length_b 25.322513
_cell_length_c 4.850433
_cell_angle_alpha 90.000000
_cell_angle_beta 90.000000
_cell_angle_gamma 90.000000
_cell_volume 1395.054840
_symmetry_space_group_name_H-M "P N N A"
_symmetry_group_IT_number 52
_symmetry_cell_setting 'orthorhombic'
loop_
_space_group_symop_operation_xyz
x,y,z
1/2-x,-y,z
x,1/2-y,1/2-z
1/2-x,1/2+y,1/2-z
-x,-y,-z
1/2+x,y,-z
-x,1/2+y,1/2+z
1/2+x,1/2-y,1/2+z
loop_
_atom_site_type_symbol
_atom_site_label
_atom_site_fract_x
_atom_site_fract_y
_atom_site_fract_z
Si Si1 0.962058 0.169156 0.050480
Si Si2 0.296177 0.330437 0.051481
Si Si3 0.049424 0.556060 0.409213
Si Si4 0.129035 0.250000 0.750000
Si Si5 0.303218 0.443321 0.908942
O O1 0.844858 0.174319 0.859068
O O2 0.013276 0.110389 0.994341
O O3 0.050110 0.213019 0.944890
O O4 0.913525 0.173349 0.358972
O O5 0.208449 0.286687 0.944660
O O6 0.243094 0.388989 0.000501
O O7 0.170424 0.559681 0.585349
O O8 0.000000 0.500000 0.500000
O O9 0.076076 0.557501 0.086359
O O10 0.250000 0.500000 0.972955
#
# Coordination Sequence:
#
# PCOD9410960 Si02
#       5
#     8   8   8   4   8
#     4  10  24  43  62  96 131 164 214 269 315 374
#     4  10  24  43  62  95 132 162 213 271 314 373
#     4  10  21  39  62  91 127 161 203 265 315 375
#     4  12  24  42  72  90 126 182 216 254 328 398
#     4  10  21  39  62  91 127 161 203 264 317 372
#
# _framework density 25.805437999999999
#
# number of rings (size 3 to 8) (size 9 to 14) (size 15 to 20)
#    0.000    1.778    0.000    2.667    3.111    3.556 
#    0.000    0.000    0.000    0.000    0.000    0.000 
#    0.000    0.000    0.000    0.000    0.000    0.000 
#
# Total GULP energy -201713.241695 kJ/mol
# GULP energy per Si atom -5603.145603 kJ/mol
# Density = 2.574670 g / cm^3
# Si number density = 25.805438 Si / 1000 Ang^3
#
#
#
# Elastic Constant Matrix: (Units=GPa)
#
#
# Indices 1 2 3 4 5 6 
#
# 1 47.6067 63.2958 7.8912 0.0000 0.0000 0.0000
# 2 63.2958 253.6202 17.9980 0.0000 0.0000 0.0000
# 3 7.8912 17.9980 94.2876 0.0000 0.0000 0.0000
# 4 0.0000 0.0000 0.0000 40.3002 0.0000 0.0000
# 5 0.0000 0.0000 0.0000 0.0000 21.8112 0.0000
# 6 0.0000 0.0000 0.0000 0.0000 0.0000 32.2373
#
#
#
# Elastic Compliance Matrix: (Units=1/GPa)
#
#
# Indices 1 2 3 4 5 6 
#
# 1 0.031560 -0.007795 -0.001153 0.000000 0.000000 0.000000
# 2 -0.007795 0.005922 -0.000478 0.000000 0.000000 0.000000
# 3 -0.001153 -0.000478 0.010794 0.000000 0.000000 0.000000
# 4 0.000000 0.000000 0.000000 0.024814 0.000000 0.000000
# 5 0.000000 0.000000 0.000000 0.000000 0.045848 0.000000
# 6 0.000000 0.000000 0.000000 0.000000 0.000000 0.031020
#
#
# Mechanical properties :
#
#
# Convention : Reuss Voigt Hill
#
# Bulk Modulus (GPa) = 33.98650 63.76494 48.87572
# Shear Modulus (GPa) = 27.99280 39.29171 33.64226
#
# Velocity S-wave (km/s) = 3.29715 3.90630 3.61458
# Velocity P-wave (km/s) = 5.26249 6.71633 6.03336
#
# Compressibility (1/GPa) = 0.02942345
#
# Stress axis : x y z
#
# Youngs Moduli (GPa) = 31.68579 168.85888 92.64714
#
# Poissons Ratio (x) = 1.31617 0.10687
# Poissons Ratio (y) = 0.24698 0.04429
# Poissons Ratio (z) = 0.03655 0.08073
#
# Static dielectric constant tensor:
#      x y z
#    x 2.040080 0.000000 0.000000 
#    y 0.000000 2.047540 0.000000 
#    z 0.000000 0.000000 1.940130 
# 
# From -- ./inp_files/1234.got.cif
#   From: 2010.05.17/outbox.cif.g08.bks.cpg/sg52_1_cif.got.tgz:1234.got - 2010.06.03 12:15:38.
