data_PCOD9410289
_publ_section_title
;
Structure prediction by ZEFSAII (Michael W. Deem and Ramdas Pophale) SiO2 
 PCOD9410289
Probable space group: P N N A
;
_chemical_formula_sum "Si O2"
_cell_formula_units_Z 48
_cell_length_a 9.323251
_cell_length_b 16.814692
_cell_length_c 14.687813
_cell_angle_alpha 90.000000
_cell_angle_beta 90.000000
_cell_angle_gamma 90.000000
_cell_volume 2302.573105
_symmetry_space_group_name_H-M "P N N A"
_symmetry_group_IT_number 52
_symmetry_cell_setting 'orthorhombic'
loop_
_space_group_symop_operation_xyz
x,y,z
1/2-x,-y,z
x,1/2-y,1/2-z
1/2-x,1/2+y,1/2-z
-x,-y,-z
1/2+x,y,-z
-x,1/2+y,1/2+z
1/2+x,1/2-y,1/2+z
loop_
_atom_site_type_symbol
_atom_site_label
_atom_site_fract_x
_atom_site_fract_y
_atom_site_fract_z
Si Si1 0.875363 0.601565 0.563525
Si Si2 0.367658 0.568977 0.938344
Si Si3 0.553464 0.658875 0.280146
Si Si4 0.608793 0.455220 0.862764
Si Si5 0.554438 0.580651 0.611009
Si Si6 0.628800 0.156705 0.259000
O O1 0.707685 0.616653 0.580900
O O2 0.917087 0.513303 0.600591
O O3 0.972129 0.657519 0.624746
O O4 0.929879 0.603701 0.460383
O O5 0.250000 0.500000 0.926206
O O6 0.512283 0.525602 0.905446
O O7 0.348281 0.637630 0.865177
O O8 0.360422 0.593772 0.043780
O O9 0.555355 0.750000 0.250000
O O10 0.470795 0.600146 0.209935
O O11 0.719157 0.632971 0.286134
O O12 0.750000 0.500000 0.826155
O O13 0.497137 0.607718 0.709195
O O14 0.600392 0.250000 0.250000
#
# Coordination Sequence:
#
# PCOD9410289 Si02
#       6
#     8   8   8   8   8   8
#     4  10  22  40  63  91 120 158 209 253 307 362
#     4  10  20  40  63  88 119 161 206 255 302 361
#     4  11  24  40  60  90 128 166 200 255 317 370
#     4  10  22  38  63  90 119 160 208 254 306 367
#     4  10  22  40  64  91 119 160 205 256 303 366
#     4  11  24  40  61  91 127 166 204 251 317 372
#
# _framework density 20.846243999999999
#
# number of rings (size 3 to 8) (size 9 to 14) (size 15 to 20)
#    0.000    1.667    1.667    2.000    4.667    3.333 
#    0.000    0.000    0.000    0.000    0.000    0.000 
#    0.000    0.000    0.000    0.000    0.000    0.000 
#
# Total GULP energy -267978.302624 kJ/mol
# GULP energy per Si atom -5582.881305 kJ/mol
# Density = 2.079880 g / cm^3
# Si number density = 20.846244 Si / 1000 Ang^3
#
#
#
# Elastic Constant Matrix: (Units=GPa)
#
#
# Indices 1 2 3 4 5 6 
#
# 1 118.9099 8.6815 15.0507 0.0000 0.0000 0.0000
# 2 8.6815 24.2702 17.7292 0.0000 0.0000 0.0000
# 3 15.0507 17.7292 98.7948 0.0000 0.0000 0.0000
# 4 0.0000 0.0000 0.0000 15.4946 0.0000 0.0000
# 5 0.0000 0.0000 0.0000 0.0000 55.5903 0.0000
# 6 0.0000 0.0000 0.0000 0.0000 0.0000 18.1221
#
#
#
# Elastic Compliance Matrix: (Units=1/GPa)
#
#
# Indices 1 2 3 4 5 6 
#
# 1 0.008702 -0.002468 -0.000883 0.000000 0.000000 0.000000
# 2 -0.002468 0.048119 -0.008259 0.000000 0.000000 0.000000
# 3 -0.000883 -0.008259 0.011739 0.000000 0.000000 0.000000
# 4 0.000000 0.000000 0.000000 0.064539 0.000000 0.000000
# 5 0.000000 0.000000 0.000000 0.000000 0.017989 0.000000
# 6 0.000000 0.000000 0.000000 0.000000 0.000000 0.055181
#
#
# Mechanical properties :
#
#
# Convention : Reuss Voigt Hill
#
# Bulk Modulus (GPa) = 22.05574 36.09974 29.07774
# Shear Modulus (GPa) = 20.44148 31.20896 25.82522
#
# Velocity S-wave (km/s) = 3.13482 3.87344 3.52354
# Velocity P-wave (km/s) = 4.86888 6.11224 5.52564
#
# Compressibility (1/GPa) = 0.04533968
#
# Stress axis : x y z
#
# Youngs Moduli (GPa) = 114.92094 20.78185 85.18881
#
# Poissons Ratio (x) = 0.05128 0.07520
# Poissons Ratio (y) = 0.28359 0.70359
# Poissons Ratio (z) = 0.10145 0.17164
#
# Static dielectric constant tensor:
#      x y z
#    x 1.821090 0.000000 0.000000 
#    y 0.000000 1.719930 0.000000 
#    z 0.000000 0.000000 1.803450 
# 
# From -- ./inp_files/24739.got.cif
#   From: 2010.05.17/outbox.cif.g08.bks.cpg/sg52_13_cif.got.tgz:24739.got - 2010.06.03 12:15:38.
