data_PCOD9410686
_publ_section_title
;
Structure prediction by ZEFSAII (Michael W. Deem and Ramdas Pophale) SiO2 
 PCOD9410686
Probable space group: P N N A
;
_chemical_formula_sum "Si O2"
_cell_formula_units_Z 48
_cell_length_a 23.801940
_cell_length_b 6.661714
_cell_length_c 16.907239
_cell_angle_alpha 90.000000
_cell_angle_beta 90.000000
_cell_angle_gamma 90.000000
_cell_volume 2680.840844
_symmetry_space_group_name_H-M "P N N A"
_symmetry_group_IT_number 52
_symmetry_cell_setting 'orthorhombic'
loop_
_space_group_symop_operation_xyz
x,y,z
1/2-x,-y,z
x,1/2-y,1/2-z
1/2-x,1/2+y,1/2-z
-x,-y,-z
1/2+x,y,-z
-x,1/2+y,1/2+z
1/2+x,1/2-y,1/2+z
loop_
_atom_site_type_symbol
_atom_site_label
_atom_site_fract_x
_atom_site_fract_y
_atom_site_fract_z
Si Si1 0.309892 0.464958 0.540571
Si Si2 0.375542 0.727529 0.844245
Si Si3 0.493190 0.314441 0.160827
Si Si4 0.994300 0.816981 0.562702
Si Si5 0.575485 0.566792 0.531779
Si Si6 0.694772 0.865331 0.330085
O O1 0.250000 0.500000 0.500039
O O2 0.339157 0.631601 0.598241
O O3 0.358555 0.413386 0.479078
O O4 0.293787 0.291083 0.601675
O O5 0.362832 0.750000 0.750000
O O6 0.442018 0.749203 0.855461
O O7 0.356089 0.501877 0.859701
O O8 0.481060 0.250000 0.250000
O O9 0.490124 0.554302 0.143000
O O10 0.451774 0.193409 0.103032
O O11 0.046667 0.668049 0.546214
O O12 0.943147 0.664939 0.544402
O O13 0.000000 0.000000 0.500000
O O14 0.680011 0.750000 0.250000
O O15 0.750000 0.000000 0.315281
#
# Coordination Sequence:
#
# PCOD9410686 Si02
#       6
#     8   8   8   8   8   8
#     4  12  23  36  54  80 113 154 198 233 278 341
#     4  11  21  35  53  82 116 148 190 231 274 341
#     4  10  22  38  60  88 113 147 194 247 302 354
#     4   9  17  35  57  81 114 146 182 227 290 346
#     4  10  21  37  58  81 114 156 189 240 296 342
#     4  12  22  36  52  76 114 162 195 229 276 326
#
# _framework density 17.904831000000001
#
# number of rings (size 3 to 8) (size 9 to 14) (size 15 to 20)
#    0.000    1.333    3.333    5.000    0.000    2.000 
#    0.000    0.000    0.000    0.000    4.333    0.000 
#    0.000    0.000    0.000    0.000    0.000    0.000 
#
# Total GULP energy -267637.725594 kJ/mol
# GULP energy per Si atom -5575.785950 kJ/mol
# Density = 1.786408 g / cm^3
# Si number density = 17.904831 Si / 1000 Ang^3
#
#
#
# Elastic Constant Matrix: (Units=GPa)
#
#
# Indices 1 2 3 4 5 6 
#
# 1 128.4879 18.9009 38.4198 0.0000 0.0000 0.0000
# 2 18.9009 93.7646 32.5655 0.0000 0.0000 0.0000
# 3 38.4198 32.5655 72.0442 0.0000 0.0000 0.0000
# 4 0.0000 0.0000 0.0000 30.7712 0.0000 0.0000
# 5 0.0000 0.0000 0.0000 0.0000 28.9655 0.0000
# 6 0.0000 0.0000 0.0000 0.0000 0.0000 10.2210
#
#
#
# Elastic Compliance Matrix: (Units=1/GPa)
#
#
# Indices 1 2 3 4 5 6 
#
# 1 0.009262 -0.000180 -0.004858 0.000000 0.000000 0.000000
# 2 -0.000180 0.012655 -0.005624 0.000000 0.000000 0.000000
# 3 -0.004858 -0.005624 0.019013 0.000000 0.000000 0.000000
# 4 0.000000 0.000000 0.000000 0.032498 0.000000 0.000000
# 5 0.000000 0.000000 0.000000 0.000000 0.034524 0.000000
# 6 0.000000 0.000000 0.000000 0.000000 0.000000 0.097838
#
#
# Mechanical properties :
#
#
# Convention : Reuss Voigt Hill
#
# Bulk Modulus (GPa) = 51.00522 52.67434 51.83978
# Shear Modulus (GPa) = 21.39966 27.61891 24.50929
#
# Velocity S-wave (km/s) = 3.46090 3.93178 3.70383
# Velocity P-wave (km/s) = 6.67227 7.07777 6.87801
#
# Compressibility (1/GPa) = 0.01960584
#
# Stress axis : x y z
#
# Youngs Moduli (GPa) = 107.96959 79.02256 52.59480
#
# Poissons Ratio (x) = 0.01421 0.25550
# Poissons Ratio (y) = 0.01941 0.29581
# Poissons Ratio (z) = 0.52451 0.44444
#
# Static dielectric constant tensor:
#      x y z
#    x 1.635790 0.000000 0.000000 
#    y 0.000000 1.453950 0.000000 
#    z 0.000000 0.000000 1.649050 
# 
# From -- ./inp_files/34250.got.cif
#   From: 2010.05.17/outbox.cif.g08.bks.cpg/sg52_18_cif.got.tgz:34250.got - 2010.06.03 12:15:38.
