data_PCOD9410113
_publ_section_title
;
Structure prediction by ZEFSAII (Michael W. Deem and Ramdas Pophale) SiO2 
 PCOD9410113
Probable space group: P N N A
;
_chemical_formula_sum "Si O2"
_cell_formula_units_Z 40
_cell_length_a 8.184599
_cell_length_b 14.850883
_cell_length_c 14.318321
_cell_angle_alpha 90.000000
_cell_angle_beta 90.000000
_cell_angle_gamma 90.000000
_cell_volume 1740.370757
_symmetry_space_group_name_H-M "P N N A"
_symmetry_group_IT_number 52
_symmetry_cell_setting 'orthorhombic'
loop_
_space_group_symop_operation_xyz
x,y,z
1/2-x,-y,z
x,1/2-y,1/2-z
1/2-x,1/2+y,1/2-z
-x,-y,-z
1/2+x,y,-z
-x,1/2+y,1/2+z
1/2+x,1/2-y,1/2+z
loop_
_atom_site_type_symbol
_atom_site_label
_atom_site_fract_x
_atom_site_fract_y
_atom_site_fract_z
Si Si1 0.054322 0.511184 0.892336
Si Si2 0.373800 0.565540 0.549639
Si Si3 0.487359 0.176809 0.330614
Si Si4 0.627527 0.694488 0.538674
Si Si5 0.123108 0.792132 0.649456
O O1 0.250000 0.500000 0.888199
O O2 0.975895 0.431906 0.828390
O O3 0.028150 0.614104 0.861620
O O4 0.000000 0.500000 0.000000
O O5 0.250000 0.500000 0.604233
O O6 0.500000 0.500000 0.500000
O O7 0.485995 0.640747 0.594811
O O8 0.271120 0.623330 0.474738
O O9 0.453198 0.250000 0.250000
O O10 0.361910 0.210634 0.410637
O O11 0.679902 0.190978 0.357652
O O12 0.581602 0.722235 0.432917
O O13 0.091508 0.750000 0.750000
#
# Coordination Sequence:
#
# PCOD9410113 Si02
#       5
#     8   8   8   8   8
#     4  10  20  38  65  90 125 168 216 264 323 389
#     4   9  20  36  55  86 119 161 206 246 319 393
#     4  10  21  38  61  94 127 168 217 272 323 382
#     4  11  18  37  64  86 122 167 210 268 323 378
#     4  10  21  38  61  94 123 168 219 266 317 393
#
# _framework density 22.983609000000001
#
# number of rings (size 3 to 8) (size 9 to 14) (size 15 to 20)
#    0.000    2.000    4.000    0.000    0.000    0.000 
#   10.800    1.000    0.000    0.000    0.000    0.000 
#    0.000    0.000    0.000    0.000    0.000    0.000 
#
# Total GULP energy -222724.293793 kJ/mol
# GULP energy per Si atom -5568.107345 kJ/mol
# Density = 2.293130 g / cm^3
# Si number density = 22.983609 Si / 1000 Ang^3
#
#
#
# Elastic Constant Matrix: (Units=GPa)
#
#
# Indices 1 2 3 4 5 6 
#
# 1 35.9046 48.0428 9.1705 0.0000 0.0000 0.0000
# 2 48.0428 194.4584 57.4285 0.0000 0.0000 0.0000
# 3 9.1705 57.4285 94.7796 0.0000 0.0000 0.0000
# 4 0.0000 0.0000 0.0000 30.7852 0.0000 0.0000
# 5 0.0000 0.0000 0.0000 0.0000 16.3533 0.0000
# 6 0.0000 0.0000 0.0000 0.0000 0.0000 41.6949
#
#
#
# Elastic Compliance Matrix: (Units=1/GPa)
#
#
# Indices 1 2 3 4 5 6 
#
# 1 0.042173 -0.011222 0.002719 0.000000 0.000000 0.000000
# 2 -0.011222 0.009250 -0.004519 0.000000 0.000000 0.000000
# 3 0.002719 -0.004519 0.013026 0.000000 0.000000 0.000000
# 4 0.000000 0.000000 0.000000 0.032483 0.000000 0.000000
# 5 0.000000 0.000000 0.000000 0.000000 0.061150 0.000000
# 6 0.000000 0.000000 0.000000 0.000000 0.000000 0.023984
#
#
# Mechanical properties :
#
#
# Convention : Reuss Voigt Hill
#
# Bulk Modulus (GPa) = 26.03822 61.60294 43.82058
# Shear Modulus (GPa) = 22.63360 31.80005 27.21682
#
# Velocity S-wave (km/s) = 3.14151 3.72371 3.44493
# Velocity P-wave (km/s) = 4.95100 6.73418 5.91023
#
# Compressibility (1/GPa) = 0.03840508
#
# Stress axis : x y z
#
# Youngs Moduli (GPa) = 23.71161 108.11325 76.77198
#
# Poissons Ratio (x) = 1.21329 -0.20877
# Poissons Ratio (y) = 0.26610 0.34690
# Poissons Ratio (z) = -0.06448 0.48852
#
# Static dielectric constant tensor:
#      x y z
#    x 1.934180 0.000000 0.000000 
#    y 0.000000 1.963490 0.000000 
#    z 0.000000 0.000000 1.786150 
# 
# From -- ./inp_files/24384.got.cif
#   From: 2010.05.17/outbox.cif.g08.bks.cpg/sg52_13_cif.got.tgz:24384.got - 2010.06.03 12:15:38.
