data_PCOD9410723
_publ_section_title
;
Structure prediction by ZEFSAII (Michael W. Deem and Ramdas Pophale) SiO2 
 PCOD9410723
Probable space group: P N N A
;
_chemical_formula_sum "Si O2"
_cell_formula_units_Z 64
_cell_length_a 12.400712
_cell_length_b 8.753223
_cell_length_c 30.628703
_cell_angle_alpha 90.000000
_cell_angle_beta 90.000000
_cell_angle_gamma 90.000000
_cell_volume 3324.629245
_symmetry_space_group_name_H-M "P N N A"
_symmetry_group_IT_number 52
_symmetry_cell_setting 'orthorhombic'
loop_
_space_group_symop_operation_xyz
x,y,z
1/2-x,-y,z
x,1/2-y,1/2-z
1/2-x,1/2+y,1/2-z
-x,-y,-z
1/2+x,y,-z
-x,1/2+y,1/2+z
1/2+x,1/2-y,1/2+z
loop_
_atom_site_type_symbol
_atom_site_label
_atom_site_fract_x
_atom_site_fract_y
_atom_site_fract_z
Si Si1 0.155860 0.601102 0.987623
Si Si2 0.512257 0.853832 0.144832
Si Si3 0.841977 0.111641 0.223287
Si Si4 0.627877 0.436987 0.853379
Si Si5 0.413232 0.808127 0.861099
Si Si6 0.486509 0.397014 0.066208
Si Si7 0.012280 0.387507 0.781962
Si Si8 0.208301 0.659802 0.582923
O O1 0.250000 0.500000 0.008042
O O2 0.212453 0.716606 0.954690
O O3 0.076637 0.497739 0.958142
O O4 0.088115 0.667380 0.027626
O O5 0.584254 0.810901 0.186708
O O6 0.407291 0.744193 0.146241
O O7 0.587168 0.831996 0.102052
O O8 0.516904 0.039150 0.148730
O O9 0.790485 0.250000 0.250000
O O10 0.750000 0.000000 0.205506
O O11 0.916949 0.004807 0.253655
O O12 0.750000 0.500000 0.853556
O O13 0.575106 0.499768 0.898177
O O14 0.573829 0.516517 0.810625
O O15 0.464062 0.734377 0.904231
O O16 0.420137 0.698166 0.819722
O O17 0.289585 0.823563 0.876249
O O18 0.971651 0.250000 0.750000
O O19 0.250000 0.500000 0.563814
#
# Coordination Sequence:
#
# PCOD9410723 Si02
#       8
#     8   8   8   8   8   8   8   8
#     4  11  20  38  64  91 124 161 208 257 325 401
#     4  11  22  40  62  91 128 169 210 261 317 389
#     4  12  24  38  61  99 137 173 210 263 332 394
#     4  11  24  45  64  88 124 172 221 270 323 368
#     4  10  21  39  63  93 134 162 203 258 328 386
#     4  10  22  39  62  93 121 160 212 267 316 387
#     4  11  23  41  61  93 131 165 219 267 306 390
#     4  10  21  37  60  95 129 164 196 252 328 397
#
# _framework density 19.250266
#
# number of rings (size 3 to 8) (size 9 to 14) (size 15 to 20)
#    0.000    1.250    5.000    1.875    1.750    0.000 
#    2.250    7.500    0.000    0.000    0.000    0.000 
#    0.000    0.000    0.000    0.000    0.000    0.000 
#
# Total GULP energy -356542.090563 kJ/mol
# GULP energy per Si atom -5570.970165 kJ/mol
# Density = 1.920645 g / cm^3
# Si number density = 19.250266 Si / 1000 Ang^3
#
#
#
# Elastic Constant Matrix: (Units=GPa)
#
#
# Indices 1 2 3 4 5 6 
#
# 1 83.4428 22.4094 18.0165 0.0000 0.0000 0.0000
# 2 22.4094 63.5232 13.3452 0.0000 0.0000 0.0000
# 3 18.0165 13.3452 78.9579 0.0000 0.0000 0.0000
# 4 0.0000 0.0000 0.0000 21.2048 0.0000 0.0000
# 5 0.0000 0.0000 0.0000 0.0000 18.6746 0.0000
# 6 0.0000 0.0000 0.0000 0.0000 0.0000 28.1967
#
#
#
# Elastic Compliance Matrix: (Units=1/GPa)
#
#
# Indices 1 2 3 4 5 6 
#
# 1 0.013659 -0.004317 -0.002387 0.000000 0.000000 0.000000
# 2 -0.004317 0.017686 -0.002004 0.000000 0.000000 0.000000
# 3 -0.002387 -0.002004 0.013548 0.000000 0.000000 0.000000
# 4 0.000000 0.000000 0.000000 0.047159 0.000000 0.000000
# 5 0.000000 0.000000 0.000000 0.000000 0.053549 0.000000
# 6 0.000000 0.000000 0.000000 0.000000 0.000000 0.035465
#
#
# Mechanical properties :
#
#
# Convention : Reuss Voigt Hill
#
# Bulk Modulus (GPa) = 36.39402 37.05180 36.72291
# Shear Modulus (GPa) = 24.07983 25.09205 24.58594
#
# Velocity S-wave (km/s) = 3.54062 3.61427 3.57763
# Velocity P-wave (km/s) = 5.97172 6.05859 6.01531
#
# Compressibility (1/GPa) = 0.02747704
#
# Stress axis : x y z
#
# Youngs Moduli (GPa) = 73.21147 56.54098 73.80943
#
# Poissons Ratio (x) = 0.24409 0.17619
# Poissons Ratio (y) = 0.31606 0.14793
# Poissons Ratio (z) = 0.17476 0.11332
#
# Static dielectric constant tensor:
#      x y z
#    x 1.682890 0.000000 0.000000 
#    y 0.000000 1.708260 0.000000 
#    z 0.000000 0.000000 1.653050 
# 
# From -- ./inp_files/44844.got.cif
#   From: 2010.05.17/outbox.cif.g08.bks.cpg/sg52_23_cif.got.tgz:44844.got - 2010.06.03 12:15:38.
