data_PCOD9410339
_publ_section_title
;
Structure prediction by ZEFSAII (Michael W. Deem and Ramdas Pophale) SiO2 
 PCOD9410339
Probable space group: P N N A
;
_chemical_formula_sum "Si O2"
_cell_formula_units_Z 56
_cell_length_a 25.988115
_cell_length_b 12.561370
_cell_length_c 7.759994
_cell_angle_alpha 90.000000
_cell_angle_beta 90.000000
_cell_angle_gamma 90.000000
_cell_volume 2533.221548
_symmetry_space_group_name_H-M "P N N A"
_symmetry_group_IT_number 52
_symmetry_cell_setting 'orthorhombic'
loop_
_space_group_symop_operation_xyz
x,y,z
1/2-x,-y,z
x,1/2-y,1/2-z
1/2-x,1/2+y,1/2-z
-x,-y,-z
1/2+x,y,-z
-x,1/2+y,1/2+z
1/2+x,1/2-y,1/2+z
loop_
_atom_site_type_symbol
_atom_site_label
_atom_site_fract_x
_atom_site_fract_y
_atom_site_fract_z
Si Si1 0.224419 0.768986 0.949916
Si Si2 0.297375 0.945208 0.004635
Si Si3 0.198574 0.549474 0.122138
Si Si4 0.008979 0.150896 0.483273
Si Si5 0.875060 0.087477 0.115364
Si Si6 0.911946 0.029404 0.483407
Si Si7 0.011947 0.617394 0.569565
O O1 0.239386 0.750000 0.750000
O O2 0.200657 0.987517 0.180434
O O3 0.206544 0.671326 0.068451
O O4 0.172448 0.837911 0.928473
O O5 0.250000 0.000000 0.898107
O O6 0.352447 0.969062 0.921888
O O7 0.274444 0.828222 0.029564
O O8 0.250000 0.500000 0.037241
O O9 0.498930 0.626267 0.224082
O O10 0.141674 0.510385 0.076355
O O11 0.014260 0.276972 0.507521
O O12 0.955926 0.105343 0.564619
O O13 0.056595 0.079803 0.546308
O O14 0.891573 0.412477 0.187167
O O15 0.927201 0.125720 0.028702
O O16 0.000000 0.500000 0.500000
#
# Coordination Sequence:
#
# PCOD9410339 Si02
#       7
#     8   8   8   8   8   8   8
#     4  11  22  41  72  98 129 185 233 279 345 423
#     4   9  23  41  61  97 138 163 224 287 331 410
#     4  11  24  40  67  98 135 177 222 281 352 410
#     4   9  21  41  65  95 133 174 228 287 341 410
#     4  10  21  39  68  95 131 172 233 282 340 408
#     4  10  20  40  68  95 131 179 227 286 347 409
#     4  10  21  39  65  96 132 176 223 285 353 422
#
# _framework density 22.106237
#
# number of rings (size 3 to 8) (size 9 to 14) (size 15 to 20)
#    0.000    2.000    1.429    0.857    6.000    5.143 
#    2.571    6.429    0.000    0.000    0.000    0.000 
#    0.000    0.000    0.000    0.000    0.000    0.000 
#
# Total GULP energy -311752.518645 kJ/mol
# GULP energy per Si atom -5567.009262 kJ/mol
# Density = 2.205592 g / cm^3
# Si number density = 22.106237 Si / 1000 Ang^3
#
#
#
# Elastic Constant Matrix: (Units=GPa)
#
#
# Indices 1 2 3 4 5 6 
#
# 1 93.6207 45.1452 22.1802 0.0000 0.0000 0.0000
# 2 45.1452 133.3070 24.7544 0.0000 0.0000 0.0000
# 3 22.1802 24.7544 48.3588 0.0000 0.0000 0.0000
# 4 0.0000 0.0000 0.0000 21.5084 0.0000 0.0000
# 5 0.0000 0.0000 0.0000 0.0000 2.0766 0.0000
# 6 0.0000 0.0000 0.0000 0.0000 0.0000 29.9607
#
#
#
# Elastic Compliance Matrix: (Units=1/GPa)
#
#
# Indices 1 2 3 4 5 6 
#
# 1 0.013517 -0.003786 -0.004261 0.000000 0.000000 0.000000
# 2 -0.003786 0.009350 -0.003050 0.000000 0.000000 0.000000
# 3 -0.004261 -0.003050 0.024194 0.000000 0.000000 0.000000
# 4 0.000000 0.000000 0.000000 0.046494 0.000000 0.000000
# 5 0.000000 0.000000 0.000000 0.000000 0.481557 0.000000
# 6 0.000000 0.000000 0.000000 0.000000 0.000000 0.033377
#
#
# Mechanical properties :
#
#
# Convention : Reuss Voigt Hill
#
# Bulk Modulus (GPa) = 40.21456 51.04957 45.63207
# Shear Modulus (GPa) = 7.82507 22.92291 15.37399
#
# Velocity S-wave (km/s) = 1.88347 3.22365 2.64002
# Velocity P-wave (km/s) = 4.79175 6.08267 5.47539
#
# Compressibility (1/GPa) = 0.02486662
#
# Stress axis : x y z
#
# Youngs Moduli (GPa) = 73.98219 106.95186 41.33190
#
# Poissons Ratio (x) = 0.40494 0.17613
# Poissons Ratio (y) = 0.28011 0.12605
# Poissons Ratio (z) = 0.31527 0.32616
#
# Static dielectric constant tensor:
#      x y z
#    x 1.953880 0.000000 0.000000 
#    y 0.000000 1.925430 0.000000 
#    z 0.000000 0.000000 1.955090 
# 
# From -- ./inp_files/33801.got.cif
#   From: 2010.05.17/outbox.cif.g08.bks.cpg/sg52_17_cif.got.tgz:33801.got - 2010.06.03 12:15:38.
