data_PCOD9410204
_publ_section_title
;
Structure prediction by ZEFSAII (Michael W. Deem and Ramdas Pophale) SiO2 
 PCOD9410204
Probable space group: P N N A
;
_chemical_formula_sum "Si O2"
_cell_formula_units_Z 56
_cell_length_a 12.142835
_cell_length_b 13.826372
_cell_length_c 15.087310
_cell_angle_alpha 90.000000
_cell_angle_beta 90.000000
_cell_angle_gamma 90.000000
_cell_volume 2533.028902
_symmetry_space_group_name_H-M "P N N A"
_symmetry_group_IT_number 52
_symmetry_cell_setting 'orthorhombic'
loop_
_space_group_symop_operation_xyz
x,y,z
1/2-x,-y,z
x,1/2-y,1/2-z
1/2-x,1/2+y,1/2-z
-x,-y,-z
1/2+x,y,-z
-x,1/2+y,1/2+z
1/2+x,1/2-y,1/2+z
loop_
_atom_site_type_symbol
_atom_site_label
_atom_site_fract_x
_atom_site_fract_y
_atom_site_fract_z
Si Si1 0.698573 0.128316 0.419317
Si Si2 0.654016 0.250000 0.750000
Si Si3 0.718617 0.610714 0.879330
Si Si4 0.968025 0.583248 0.689670
Si Si5 0.750000 0.500000 0.598979
Si Si6 0.078292 0.925418 0.623993
Si Si7 0.585299 0.911045 0.021915
Si Si8 0.011874 0.800124 0.458299
O O1 0.738543 0.129431 0.520986
O O2 0.808687 0.135423 0.361553
O O3 0.606702 0.209049 0.413051
O O4 0.631413 0.028380 0.403490
O O5 0.726052 0.324216 0.804999
O O6 0.576200 0.307636 0.683798
O O7 0.750000 0.500000 0.861066
O O8 0.593400 0.646577 0.889343
O O9 0.858780 0.525242 0.656622
O O10 0.003188 0.563883 0.790160
O O11 0.075444 0.579526 0.627731
O O12 0.700377 0.577247 0.529519
O O13 0.014525 0.872475 0.543859
O O14 0.545786 0.805935 0.990206
O O15 0.500000 0.000000 0.000000
#
# Coordination Sequence:
#
# PCOD9410204 Si02
#       8
#     8   4   8   8   4   8   8   8
#     4  10  20  39  64 102 133 173 222 278 347 428
#     4  12  26  38  64 100 136 176 220 282 356 400
#     4  11  23  41  65 100 135 180 229 291 348 418
#     4  11  23  41  63  95 135 170 232 293 343 416
#     4  10  24  44  66  88 128 190 232 280 344 412
#     4  10  21  36  64 103 136 170 219 280 360 408
#     4  10  23  43  65  92 127 183 236 277 339 424
#     4  11  21  39  70  95 132 180 231 275 347 428
#
# _framework density 22.10792
#
# number of rings (size 3 to 8) (size 9 to 14) (size 15 to 20)
#    0.000    1.429    2.857    3.857    3.000    4.571 
#    0.000    0.000    0.000   14.571    0.000    0.000 
#    0.000    0.000    0.000    0.000    0.000    0.000 
#
# Total GULP energy -312318.027012 kJ/mol
# GULP energy per Si atom -5577.107625 kJ/mol
# Density = 2.205760 g / cm^3
# Si number density = 22.107920 Si / 1000 Ang^3
#
#
#
# Elastic Constant Matrix: (Units=GPa)
#
#
# Indices 1 2 3 4 5 6 
#
# 1 131.1000 11.0510 50.8510 0.0000 0.0000 0.0000
# 2 11.0510 58.8117 22.3424 0.0000 0.0000 0.0000
# 3 50.8510 22.3424 92.7146 0.0000 0.0000 0.0000
# 4 0.0000 0.0000 0.0000 16.4232 0.0000 0.0000
# 5 0.0000 0.0000 0.0000 0.0000 64.4898 0.0000
# 6 0.0000 0.0000 0.0000 0.0000 0.0000 21.6807
#
#
#
# Elastic Compliance Matrix: (Units=1/GPa)
#
#
# Indices 1 2 3 4 5 6 
#
# 1 0.009692 0.000218 -0.005368 0.000000 0.000000 0.000000
# 2 0.000218 0.018722 -0.004631 0.000000 0.000000 0.000000
# 3 -0.005368 -0.004631 0.014846 0.000000 0.000000 0.000000
# 4 0.000000 0.000000 0.000000 0.060889 0.000000 0.000000
# 5 0.000000 0.000000 0.000000 0.000000 0.015506 0.000000
# 6 0.000000 0.000000 0.000000 0.000000 0.000000 0.046124
#
#
# Mechanical properties :
#
#
# Convention : Reuss Voigt Hill
#
# Bulk Modulus (GPa) = 42.19919 50.12391 46.16155
# Shear Modulus (GPa) = 25.87450 33.74421 29.80936
#
# Velocity S-wave (km/s) = 3.42478 3.91108 3.67598
# Velocity P-wave (km/s) = 5.89645 6.56635 6.24040
#
# Compressibility (1/GPa) = 0.02369714
#
# Stress axis : x y z
#
# Youngs Moduli (GPa) = 103.18278 53.41361 67.35794
#
# Poissons Ratio (x) = -0.01166 0.36158
# Poissons Ratio (y) = -0.02252 0.31195
# Poissons Ratio (z) = 0.55389 0.24737
#
# Static dielectric constant tensor:
#      x y z
#    x 1.918690 0.000000 0.000000 
#    y 0.000000 1.853480 0.000000 
#    z 0.000000 0.000000 1.832440 
# 
# From -- ./inp_files/26184.got.cif
#   From: 2010.05.17/outbox.cif.g08.bks.cpg/sg52_14_cif.got.tgz:26184.got - 2010.06.03 12:15:38.
