data_PCOD9410713
_publ_section_title
;
Structure prediction by ZEFSAII (Michael W. Deem and Ramdas Pophale) SiO2 
 PCOD9410713
Probable space group: P N N A
;
_chemical_formula_sum "Si O2"
_cell_formula_units_Z 40
_cell_length_a 9.644877
_cell_length_b 14.512287
_cell_length_c 14.234190
_cell_angle_alpha 90.000000
_cell_angle_beta 90.000000
_cell_angle_gamma 90.000000
_cell_volume 1992.348516
_symmetry_space_group_name_H-M "P N N A"
_symmetry_group_IT_number 52
_symmetry_cell_setting 'orthorhombic'
loop_
_space_group_symop_operation_xyz
x,y,z
1/2-x,-y,z
x,1/2-y,1/2-z
1/2-x,1/2+y,1/2-z
-x,-y,-z
1/2+x,y,-z
-x,1/2+y,1/2+z
1/2+x,1/2-y,1/2+z
loop_
_atom_site_type_symbol
_atom_site_label
_atom_site_fract_x
_atom_site_fract_y
_atom_site_fract_z
Si Si1 0.043511 0.874831 0.842393
Si Si2 0.729722 0.104064 0.314378
Si Si3 0.239800 0.233575 0.955649
Si Si4 0.041771 0.086205 0.866749
Si Si5 0.234391 0.690991 0.340280
O O1 0.133422 0.870720 0.746587
O O2 0.115722 0.804186 0.913505
O O3 0.884528 0.853158 0.823190
O O4 0.059538 0.977805 0.883911
O O5 0.701151 0.177954 0.394275
O O6 0.609456 0.103861 0.235903
O O7 0.750000 0.000000 0.349949
O O8 0.129931 0.151206 0.936092
O O9 0.251921 0.251549 0.065496
O O10 0.882914 0.116104 0.863363
O O11 0.192760 0.750000 0.250000
#
# Coordination Sequence:
#
# PCOD9410713 Si02
#       5
#     8   8   8   8   8
#     4  10  21  37  60  87 112 142 183 233 284 330
#     4   9  19  39  63  83 107 144 190 231 270 330
#     4  11  21  37  61  82 110 150 189 227 271 333
#     4  10  21  37  60  87 112 142 183 233 284 330
#     4  12  24  36  53  81 120 154 183 226 279 327
#
# _framework density 20.076809000000001
#
# number of rings (size 3 to 8) (size 9 to 14) (size 15 to 20)
#    0.000    1.600    0.000    8.400    0.000    4.800 
#    0.000    2.000    0.000    9.600    0.000    0.000 
#    0.000    0.000    0.000    0.000    0.000    0.000 
#
# Total GULP energy -223696.062052 kJ/mol
# GULP energy per Si atom -5592.401551 kJ/mol
# Density = 2.003111 g / cm^3
# Si number density = 20.076809 Si / 1000 Ang^3
#
#
#
# Elastic Constant Matrix: (Units=GPa)
#
#
# Indices 1 2 3 4 5 6 
#
# 1 81.1506 -18.6167 -32.0002 0.0000 0.0000 0.0000
# 2 -18.6167 54.8459 24.8966 0.0000 0.0000 0.0000
# 3 -32.0002 24.8966 80.0827 0.0000 0.0000 0.0000
# 4 0.0000 0.0000 0.0000 5.3865 0.0000 0.0000
# 5 0.0000 0.0000 0.0000 0.0000 7.8074 0.0000
# 6 0.0000 0.0000 0.0000 0.0000 0.0000 26.6226
#
#
#
# Elastic Compliance Matrix: (Units=1/GPa)
#
#
# Indices 1 2 3 4 5 6 
#
# 1 0.014977 0.002756 0.005128 0.000000 0.000000 0.000000
# 2 0.002756 0.021736 -0.005656 0.000000 0.000000 0.000000
# 3 0.005128 -0.005656 0.016295 0.000000 0.000000 0.000000
# 4 0.000000 0.000000 0.000000 0.185648 0.000000 0.000000
# 5 0.000000 0.000000 0.000000 0.000000 0.128084 0.000000
# 6 0.000000 0.000000 0.000000 0.000000 0.000000 0.037562
#
#
# Mechanical properties :
#
#
# Convention : Reuss Voigt Hill
#
# Bulk Modulus (GPa) = 17.40245 18.29318 17.84781
# Shear Modulus (GPa) = 11.93316 24.08326 18.00821
#
# Velocity S-wave (km/s) = 2.44063 3.46722 2.99819
# Velocity P-wave (km/s) = 4.07786 5.01599 4.57106
#
# Compressibility (1/GPa) = 0.05746318
#
# Stress axis : x y z
#
# Youngs Moduli (GPa) = 66.76857 46.00674 61.37015
#
# Poissons Ratio (x) = -0.12680 -0.31470
# Poissons Ratio (y) = -0.18402 0.34712
# Poissons Ratio (z) = -0.34238 0.26022
#
# Static dielectric constant tensor:
#      x y z
#    x 1.713240 0.000000 0.000000 
#    y 0.000000 1.698910 0.000000 
#    z 0.000000 0.000000 1.713510 
# 
# From -- ./inp_files/24427.got.cif
#   From: 2010.05.17/outbox.cif.g08.bks.cpg/sg52_13_cif.got.tgz:24427.got - 2010.06.03 12:15:38.
