data_PCOD9410662
_publ_section_title
;
Structure prediction by ZEFSAII (Michael W. Deem and Ramdas Pophale) SiO2 
 PCOD9410662
Probable space group: P N N A
;
_chemical_formula_sum "Si O2"
_cell_formula_units_Z 40
_cell_length_a 8.863025
_cell_length_b 7.832564
_cell_length_c 25.462404
_cell_angle_alpha 90.000000
_cell_angle_beta 90.000000
_cell_angle_gamma 90.000000
_cell_volume 1767.605447
_symmetry_space_group_name_H-M "P N N A"
_symmetry_group_IT_number 52
_symmetry_cell_setting 'orthorhombic'
loop_
_space_group_symop_operation_xyz
x,y,z
1/2-x,-y,z
x,1/2-y,1/2-z
1/2-x,1/2+y,1/2-z
-x,-y,-z
1/2+x,y,-z
-x,1/2+y,1/2+z
1/2+x,1/2-y,1/2+z
loop_
_atom_site_type_symbol
_atom_site_label
_atom_site_fract_x
_atom_site_fract_y
_atom_site_fract_z
Si Si1 0.087790 0.402570 0.331056
Si Si2 0.917007 0.911586 0.374919
Si Si3 0.982549 0.782645 0.565906
Si Si4 0.571927 0.023604 0.722299
Si Si5 0.300740 0.805718 0.963226
O O1 0.250000 0.500000 0.338405
O O2 0.024103 0.362857 0.388937
O O3 0.073704 0.211434 0.305070
O O4 0.008984 0.496589 0.281607
O O5 0.895994 0.748851 0.412059
O O6 0.750000 0.000000 0.368414
O O7 0.033485 0.036026 0.405732
O O8 0.989775 0.897255 0.317801
O O9 0.876694 0.737003 0.518094
O O10 0.147568 0.799274 0.541283
O O11 0.750000 0.000000 0.728067
O O12 0.250000 0.000000 0.962017
#
# Coordination Sequence:
#
# PCOD9410662 Si02
#       5
#     8   8   8   8   8
#     4   9  18  34  55  80 110 144 188 241 296 350
#     4   9  20  37  55  79 114 152 191 237 295 357
#     4  10  21  37  55  78 113 154 193 237 290 353
#     4   9  18  33  57  82 106 143 190 240 293 353
#     4  11  22  35  54  81 112 148 190 238 291 348
#
# _framework density 22.629483
#
# number of rings (size 3 to 8) (size 9 to 14) (size 15 to 20)
#    0.000    2.400    0.000    1.800    0.000    4.800 
#    0.000    2.000    0.000   19.200    0.000    0.000 
#    0.000    0.000    0.000    0.000    0.000    0.000 
#
# Total GULP energy -222691.412012 kJ/mol
# GULP energy per Si atom -5567.285300 kJ/mol
# Density = 2.257798 g / cm^3
# Si number density = 22.629483 Si / 1000 Ang^3
#
#
#
# Elastic Constant Matrix: (Units=GPa)
#
#
# Indices 1 2 3 4 5 6 
#
# 1 46.2500 13.2282 71.5481 0.0000 0.0000 0.0000
# 2 13.2282 68.9325 29.6764 0.0000 0.0000 0.0000
# 3 71.5481 29.6764 186.5843 0.0000 0.0000 0.0000
# 4 0.0000 0.0000 0.0000 30.3871 0.0000 0.0000
# 5 0.0000 0.0000 0.0000 0.0000 23.3526 0.0000
# 6 0.0000 0.0000 0.0000 0.0000 0.0000 28.7329
#
#
#
# Elastic Compliance Matrix: (Units=1/GPa)
#
#
# Indices 1 2 3 4 5 6 
#
# 1 0.053303 -0.001534 -0.020196 0.000000 0.000000 0.000000
# 2 -0.001534 0.015617 -0.001896 0.000000 0.000000 0.000000
# 3 -0.020196 -0.001896 0.013405 0.000000 0.000000 0.000000
# 4 0.000000 0.000000 0.000000 0.032909 0.000000 0.000000
# 5 0.000000 0.000000 0.000000 0.000000 0.042822 0.000000
# 6 0.000000 0.000000 0.000000 0.000000 0.000000 0.034803
#
#
# Mechanical properties :
#
#
# Convention : Reuss Voigt Hill
#
# Bulk Modulus (GPa) = 28.51083 58.96359 43.73721
# Shear Modulus (GPa) = 19.85686 28.98211 24.41949
#
# Velocity S-wave (km/s) = 2.96544 3.58260 3.28853
# Velocity P-wave (km/s) = 4.93472 6.57465 5.81281
#
# Compressibility (1/GPa) = 0.03507439
#
# Stress axis : x y z
#
# Youngs Moduli (GPa) = 18.76072 64.03088 74.59757
#
# Poissons Ratio (x) = 0.09825 1.50654
# Poissons Ratio (y) = 0.02879 0.14141
# Poissons Ratio (z) = 0.37888 0.12138
#
# Static dielectric constant tensor:
#      x y z
#    x 1.855940 0.000000 0.000000 
#    y 0.000000 1.861200 0.000000 
#    z 0.000000 0.000000 1.887220 
# 
# From -- ./inp_files/42108.got.cif
#   From: 2010.05.17/outbox.cif.g08.bks.cpg/sg52_22_cif.got.tgz:42108.got - 2010.06.03 12:15:38.
