data_PCOD9410773
_publ_section_title
;
Structure prediction by ZEFSAII (Michael W. Deem and Ramdas Pophale) SiO2 
 PCOD9410773
Probable space group: P N N A
;
_chemical_formula_sum "Si O2"
_cell_formula_units_Z 40
_cell_length_a 15.844655
_cell_length_b 9.222774
_cell_length_c 14.461407
_cell_angle_alpha 90.000000
_cell_angle_beta 90.000000
_cell_angle_gamma 90.000000
_cell_volume 2113.269587
_symmetry_space_group_name_H-M "P N N A"
_symmetry_group_IT_number 52
_symmetry_cell_setting 'orthorhombic'
loop_
_space_group_symop_operation_xyz
x,y,z
1/2-x,-y,z
x,1/2-y,1/2-z
1/2-x,1/2+y,1/2-z
-x,-y,-z
1/2+x,y,-z
-x,1/2+y,1/2+z
1/2+x,1/2-y,1/2+z
loop_
_atom_site_type_symbol
_atom_site_label
_atom_site_fract_x
_atom_site_fract_y
_atom_site_fract_z
Si Si1 0.033853 0.595411 0.414098
Si Si2 0.443261 0.594386 0.929826
Si Si3 0.826558 0.888536 0.594077
Si Si4 0.010092 0.082842 0.273832
Si Si5 0.290297 0.150480 0.164215
O O1 0.019355 0.504968 0.320580
O O2 0.134171 0.628333 0.408483
O O3 0.000000 0.500000 0.500000
O O4 0.986456 0.750008 0.413011
O O5 0.441678 0.499571 0.837144
O O6 0.500000 0.500000 0.000000
O O7 0.359424 0.614342 0.989293
O O8 0.903198 0.921318 0.665311
O O9 0.788015 0.734955 0.620678
O O10 0.750000 0.000000 0.601142
O O11 0.991813 0.250000 0.250000
O O12 0.321349 0.250000 0.250000
O O13 0.250000 0.000000 0.196326
#
# Coordination Sequence:
#
# PCOD9410773 Si02
#       5
#     8   8   8   8   8
#     4  12  23  37  59  87 119 159 198 237 286 348
#     4  10  21  38  57  83 117 156 196 235 284 348
#     4  11  22  38  61  88 119 150 190 243 298 345
#     4  11  22  38  60  89 120 153 193 239 290 352
#     4  12  22  35  57  89 123 152 186 240 299 347
#
# _framework density 18.928016
#
# number of rings (size 3 to 8) (size 9 to 14) (size 15 to 20)
#    0.000    0.800    0.000   12.600    0.000    0.000 
#    0.000    0.000    0.000    8.400    0.000    0.000 
#    0.000    0.000    0.000    0.000    0.000    0.000 
#
# Total GULP energy -223478.701648 kJ/mol
# GULP energy per Si atom -5586.967541 kJ/mol
# Density = 1.888493 g / cm^3
# Si number density = 18.928016 Si / 1000 Ang^3
#
#
#
# Elastic Constant Matrix: (Units=GPa)
#
#
# Indices 1 2 3 4 5 6 
#
# 1 73.6602 40.9345 58.5572 0.0000 0.0000 0.0000
# 2 40.9345 166.8344 62.1573 0.0000 0.0000 0.0000
# 3 58.5572 62.1573 140.6759 0.0000 0.0000 0.0000
# 4 0.0000 0.0000 0.0000 14.9855 0.0000 0.0000
# 5 0.0000 0.0000 0.0000 0.0000 39.0411 0.0000
# 6 0.0000 0.0000 0.0000 0.0000 0.0000 26.8455
#
#
#
# Elastic Compliance Matrix: (Units=1/GPa)
#
#
# Indices 1 2 3 4 5 6 
#
# 1 0.020983 -0.002268 -0.007732 0.000000 0.000000 0.000000
# 2 -0.002268 0.007420 -0.002335 0.000000 0.000000 0.000000
# 3 -0.007732 -0.002335 0.011359 0.000000 0.000000 0.000000
# 4 0.000000 0.000000 0.000000 0.066731 0.000000 0.000000
# 5 0.000000 0.000000 0.000000 0.000000 0.025614 0.000000
# 6 0.000000 0.000000 0.000000 0.000000 0.000000 0.037250
#
#
# Mechanical properties :
#
#
# Convention : Reuss Voigt Hill
#
# Bulk Modulus (GPa) = 66.25741 78.27426 72.26583
# Shear Modulus (GPa) = 25.11839 30.80919 27.96379
#
# Velocity S-wave (km/s) = 3.64682 4.03886 3.84783
# Velocity P-wave (km/s) = 7.26728 7.94942 7.61599
#
# Compressibility (1/GPa) = 0.01509265
#
# Stress axis : x y z
#
# Youngs Moduli (GPa) = 47.65781 134.76787 88.03777
#
# Poissons Ratio (x) = 0.30559 0.68074
# Poissons Ratio (y) = 0.10807 0.20554
# Poissons Ratio (z) = 0.36851 0.31464
#
# Static dielectric constant tensor:
#      x y z
#    x 1.676990 0.000000 0.000000 
#    y 0.000000 1.613590 0.000000 
#    z 0.000000 0.000000 1.649880 
# 
# From -- ./inp_files/20288.got.cif
#   From: 2010.05.17/outbox.cif.g08.bks.cpg/sg52_11_cif.got.tgz:20288.got - 2010.06.03 12:15:38.
