data_PCOD9410317
_publ_section_title
;
Structure prediction by ZEFSAII (Michael W. Deem and Ramdas Pophale) SiO2 
 PCOD9410317
Probable space group: P N N A
;
_chemical_formula_sum "Si O2"
_cell_formula_units_Z 60
_cell_length_a 26.158762
_cell_length_b 8.212475
_cell_length_c 12.220144
_cell_angle_alpha 90.000000
_cell_angle_beta 90.000000
_cell_angle_gamma 90.000000
_cell_volume 2625.231282
_symmetry_space_group_name_H-M "P N N A"
_symmetry_group_IT_number 52
_symmetry_cell_setting 'orthorhombic'
loop_
_space_group_symop_operation_xyz
x,y,z
1/2-x,-y,z
x,1/2-y,1/2-z
1/2-x,1/2+y,1/2-z
-x,-y,-z
1/2+x,y,-z
-x,1/2+y,1/2+z
1/2+x,1/2-y,1/2+z
loop_
_atom_site_type_symbol
_atom_site_label
_atom_site_fract_x
_atom_site_fract_y
_atom_site_fract_z
Si Si1 0.769983 0.688869 0.128823
Si Si2 0.032832 0.493191 0.889148
Si Si3 0.823698 0.230332 0.997383
Si Si4 0.669566 0.750000 0.750000
Si Si5 0.388833 0.588812 0.225095
Si Si6 0.566119 0.658124 0.456005
Si Si7 0.982449 0.456474 0.664744
Si Si8 0.869164 0.594755 0.020439
O O1 0.750000 0.500000 0.132263
O O2 0.781522 0.750000 0.250000
O O3 0.723899 0.791431 0.076367
O O4 0.820172 0.699185 0.052691
O O5 0.053518 0.680118 0.885710
O O6 0.084335 0.388387 0.896641
O O7 0.001197 0.426865 0.787442
O O8 0.000000 0.500000 0.000000
O O9 0.873670 0.124362 0.027794
O O10 0.846650 0.411293 0.017307
O O11 0.805604 0.228170 0.870287
O O12 0.636683 0.585720 0.759940
O O13 0.355869 0.750000 0.250000
O O14 0.437486 0.587048 0.306043
O O15 0.396563 0.609048 0.096310
O O16 0.544420 0.667537 0.580592
O O17 0.532201 0.521326 0.398284
#
# Coordination Sequence:
#
# PCOD9410317 Si02
#       8
#     8   8   8   4   8   8   8   8
#     4  10  22  45  70  96 130 175 226 292 356 415
#     4  11  21  36  59  87 125 180 223 263 346 416
#     4   9  19  39  70  89 124 174 228 277 344 418
#     4  10  20  40  66  98 128 176 232 278 354 424
#     4  11  21  38  65  93 139 178 220 287 346 405
#     4  10  22  37  57  90 132 176 225 278 333 416
#     4  11  22  37  58  94 138 177 231 281 335 414
#     4   9  21  40  61  93 128 172 219 281 343 404
#
# _framework density 22.855128000000001
#
# number of rings (size 3 to 8) (size 9 to 14) (size 15 to 20)
#    0.000    1.867    2.667    1.200    0.000    3.733 
#    6.000    0.000    0.000    0.000    0.000    0.000 
#    0.000    0.000    0.000    0.000    0.000    0.000 
#
# Total GULP energy -334428.926552 kJ/mol
# GULP energy per Si atom -5573.815443 kJ/mol
# Density = 2.280311 g / cm^3
# Si number density = 22.855128 Si / 1000 Ang^3
#
#
#
# Elastic Constant Matrix: (Units=GPa)
#
#
# Indices 1 2 3 4 5 6 
#
# 1 99.0383 17.2082 40.3440 0.0000 0.0000 0.0000
# 2 17.2082 58.0184 12.7823 0.0000 0.0000 0.0000
# 3 40.3440 12.7823 120.3249 0.0000 0.0000 0.0000
# 4 0.0000 0.0000 0.0000 27.7120 0.0000 0.0000
# 5 0.0000 0.0000 0.0000 0.0000 -2.5826 0.0000
# 6 0.0000 0.0000 0.0000 0.0000 0.0000 18.3443
#
#
#
# Elastic Compliance Matrix: (Units=1/GPa)
#
#
# Indices 1 2 3 4 5 6 
#
# 1 0.012112 -0.002762 -0.003768 0.000000 0.000000 0.000000
# 2 -0.002762 0.018279 -0.001016 0.000000 0.000000 0.000000
# 3 -0.003768 -0.001016 0.009682 0.000000 0.000000 0.000000
# 4 0.000000 0.000000 0.000000 0.036085 0.000000 0.000000
# 5 0.000000 0.000000 0.000000 0.000000 -0.387199 0.000000
# 6 0.000000 0.000000 0.000000 0.000000 0.000000 0.054513
#
#
# Mechanical properties :
#
#
# Convention : Reuss Voigt Hill
#
# Bulk Modulus (GPa) = 40.02918 46.45006 43.23962
# Shear Modulus (GPa) = -21.44906 22.49789 0.52442
#
# Velocity S-wave (km/s) = -3.06678 3.14087 0.47953
# Velocity P-wave (km/s) = 2.23878 5.78975 4.38938
#
# Compressibility (1/GPa) = 0.02498177
#
# Stress axis : x y z
#
# Youngs Moduli (GPa) = 82.56409 54.70770 103.28494
#
# Poissons Ratio (x) = 0.15112 0.38913
# Poissons Ratio (y) = 0.22807 0.10490
# Poissons Ratio (z) = 0.31106 0.05556
#
# Static dielectric constant tensor:
#      x y z
#    x 1.836610 0.000000 0.000000 
#    y 0.000000 1.970040 0.000000 
#    z 0.000000 0.000000 1.870000 
# 
# From -- ./inp_files/22922.got.cif
#   From: 2010.05.17/outbox.cif.g08.bks.cpg/sg52_12_cif.got.tgz:22922.got - 2010.06.03 12:15:38.
