data_PCOD9410359
_publ_section_title
;
Structure prediction by ZEFSAII (Michael W. Deem and Ramdas Pophale) SiO2 
 PCOD9410359
Probable space group: P N N A
;
_chemical_formula_sum "Si O2"
_cell_formula_units_Z 40
_cell_length_a 8.892767
_cell_length_b 11.251013
_cell_length_c 17.572498
_cell_angle_alpha 90.000000
_cell_angle_beta 90.000000
_cell_angle_gamma 90.000000
_cell_volume 1758.174766
_symmetry_space_group_name_H-M "P N N A"
_symmetry_group_IT_number 52
_symmetry_cell_setting 'orthorhombic'
loop_
_space_group_symop_operation_xyz
x,y,z
1/2-x,-y,z
x,1/2-y,1/2-z
1/2-x,1/2+y,1/2-z
-x,-y,-z
1/2+x,y,-z
-x,1/2+y,1/2+z
1/2+x,1/2-y,1/2+z
loop_
_atom_site_type_symbol
_atom_site_label
_atom_site_fract_x
_atom_site_fract_y
_atom_site_fract_z
Si Si1 0.549906 0.901069 0.060071
Si Si2 0.931275 0.158933 0.651368
Si Si3 0.174973 0.250000 0.250000
Si Si4 0.843317 0.752718 0.468625
Si Si5 0.568740 0.010420 0.785349
Si Si6 0.750000 0.000000 0.538939
O O1 0.710819 0.840846 0.047045
O O2 0.526079 0.964799 0.140117
O O3 0.434912 0.794065 0.041697
O O4 0.500000 0.000000 0.000000
O O5 0.788543 0.237445 0.678154
O O6 0.048110 0.236469 0.604344
O O7 0.981547 0.094079 0.729246
O O8 0.876391 0.053499 0.595356
O O9 0.070695 0.136256 0.256996
O O10 0.790834 0.886093 0.488133
O O11 0.750000 0.000000 0.802233
#
# Coordination Sequence:
#
# PCOD9410359 Si02
#       6
#     8   8   4   8   8   4
#     4  12  27  47  72 108 148 199 247 311 381 456
#     4  11  23  42  72 108 141 191 249 308 375 457
#     4  10  20  40  72  98 138 188 236 292 376 450
#     4  12  27  44  78 105 152 190 256 315 377 460
#     4  10  22  40  72 101 140 188 245 301 371 454
#     4  12  22  48  74 110 138 190 254 308 382 438
#
# _framework density 22.750868000000001
#
# number of rings (size 3 to 8) (size 9 to 14) (size 15 to 20)
#    0.000    0.800    5.000    3.600    5.600    0.000 
#    0.000    3.000    0.000    0.000    0.000    0.000 
#    0.000    0.000    0.000    0.000    0.000    0.000 
#
# Total GULP energy -223544.139965 kJ/mol
# GULP energy per Si atom -5588.603499 kJ/mol
# Density = 2.269909 g / cm^3
# Si number density = 22.750868 Si / 1000 Ang^3
#
#
#
# Elastic Constant Matrix: (Units=GPa)
#
#
# Indices 1 2 3 4 5 6 
#
# 1 79.3829 18.9328 50.1013 0.0000 0.0000 0.0000
# 2 18.9328 117.6659 29.7500 0.0000 0.0000 0.0000
# 3 50.1013 29.7500 125.5074 0.0000 0.0000 0.0000
# 4 0.0000 0.0000 0.0000 30.8251 0.0000 0.0000
# 5 0.0000 0.0000 0.0000 0.0000 41.3781 0.0000
# 6 0.0000 0.0000 0.0000 0.0000 0.0000 25.7512
#
#
#
# Elastic Compliance Matrix: (Units=1/GPa)
#
#
# Indices 1 2 3 4 5 6 
#
# 1 0.016969 -0.001083 -0.006517 0.000000 0.000000 0.000000
# 2 -0.001083 0.009110 -0.001727 0.000000 0.000000 0.000000
# 3 -0.006517 -0.001727 0.010979 0.000000 0.000000 0.000000
# 4 0.000000 0.000000 0.000000 0.032441 0.000000 0.000000
# 5 0.000000 0.000000 0.000000 0.000000 0.024167 0.000000
# 6 0.000000 0.000000 0.000000 0.000000 0.000000 0.038833
#
#
# Mechanical properties :
#
#
# Convention : Reuss Voigt Hill
#
# Bulk Modulus (GPa) = 54.33867 57.79160 56.06514
# Shear Modulus (GPa) = 31.78921 34.50902 33.14911
#
# Velocity S-wave (km/s) = 3.74207 3.89887 3.82127
# Velocity P-wave (km/s) = 6.52739 6.76205 6.64575
#
# Compressibility (1/GPa) = 0.01840310
#
# Stress axis : x y z
#
# Youngs Moduli (GPa) = 58.93272 109.77544 91.08625
#
# Poissons Ratio (x) = 0.11884 0.59361
# Poissons Ratio (y) = 0.06380 0.15732
# Poissons Ratio (z) = 0.38407 0.18960
#
# Static dielectric constant tensor:
#      x y z
#    x 1.865200 0.000000 0.000000 
#    y 0.000000 1.838520 0.000000 
#    z 0.000000 0.000000 1.640900 
# 
# From -- ./inp_files/30906.got.cif
#   From: 2010.05.17/outbox.cif.g08.bks.cpg/sg52_16_cif.got.tgz:30906.got - 2010.06.03 12:15:38.
