data_PCOD9410766
_publ_section_title
;
Structure prediction by ZEFSAII (Michael W. Deem and Ramdas Pophale) SiO2 
 PCOD9410766
Probable space group: P N N A
;
_chemical_formula_sum "Si O2"
_cell_formula_units_Z 48
_cell_length_a 30.360983
_cell_length_b 8.700102
_cell_length_c 8.726641
_cell_angle_alpha 90.000000
_cell_angle_beta 90.000000
_cell_angle_gamma 90.000000
_cell_volume 2305.086797
_symmetry_space_group_name_H-M "P N N A"
_symmetry_group_IT_number 52
_symmetry_cell_setting 'orthorhombic'
loop_
_space_group_symop_operation_xyz
x,y,z
1/2-x,-y,z
x,1/2-y,1/2-z
1/2-x,1/2+y,1/2-z
-x,-y,-z
1/2+x,y,-z
-x,1/2+y,1/2+z
1/2+x,1/2-y,1/2+z
loop_
_atom_site_type_symbol
_atom_site_label
_atom_site_fract_x
_atom_site_fract_y
_atom_site_fract_z
Si Si1 0.589479 0.424386 0.810795
Si Si2 0.797864 0.068762 0.219814
Si Si3 0.148408 0.030335 0.039965
Si Si4 0.132141 0.349295 0.892609
Si Si5 0.489456 0.114248 0.165815
Si Si6 0.435925 0.363289 0.606841
O O1 0.582158 0.250000 0.750000
O O2 0.632545 0.482806 0.715408
O O3 0.547383 0.517720 0.755211
O O4 0.598132 0.429194 0.992040
O O5 0.800578 0.250000 0.250000
O O6 0.750000 0.000000 0.253730
O O7 0.809176 0.042021 0.039892
O O8 0.832896 0.969377 0.321491
O O9 0.151527 0.211750 0.998943
O O10 0.108872 0.944168 0.947087
O O11 0.114396 0.250000 0.750000
O O12 0.513239 0.250000 0.250000
O O13 0.528217 0.997300 0.129124
O O14 0.460498 0.208181 0.039412
O O15 0.430726 0.250000 0.750000
#
# Coordination Sequence:
#
# PCOD9410766 Si02
#       6
#     8   8   8   8   8   8
#     4   9  18  36  59  82 114 150 186 232 284 336
#     4  11  22  38  59  84 114 148 187 231 278 334
#     4   9  19  36  58  83 111 146 186 233 285 339
#     4   9  19  35  59  85 110 145 187 227 276 335
#     4  10  22  35  53  81 113 150 191 239 286 334
#     4  10  21  38  55  78 112 150 194 236 284 343
#
# _framework density 20.823511
#
# number of rings (size 3 to 8) (size 9 to 14) (size 15 to 20)
#    0.000    2.333    0.000    2.500    0.000    9.333 
#    0.000    0.833    0.000    2.000    0.000    0.000 
#    0.000    0.000    0.000    0.000    0.000    0.000 
#
# Total GULP energy -267335.029334 kJ/mol
# GULP energy per Si atom -5569.479778 kJ/mol
# Density = 2.077612 g / cm^3
# Si number density = 20.823511 Si / 1000 Ang^3
#
#
#
# Elastic Constant Matrix: (Units=GPa)
#
#
# Indices 1 2 3 4 5 6 
#
# 1 50.1156 3.2561 30.0471 0.0000 0.0000 0.0000
# 2 3.2561 62.6486 16.1596 0.0000 0.0000 0.0000
# 3 30.0471 16.1596 85.3254 0.0000 0.0000 0.0000
# 4 0.0000 0.0000 0.0000 34.1402 0.0000 0.0000
# 5 0.0000 0.0000 0.0000 0.0000 -37.1645 0.0000
# 6 0.0000 0.0000 0.0000 0.0000 0.0000 0.9839
#
#
#
# Elastic Compliance Matrix: (Units=1/GPa)
#
#
# Indices 1 2 3 4 5 6 
#
# 1 0.025358 0.001036 -0.009126 0.000000 0.000000 0.000000
# 2 0.001036 0.016824 -0.003551 0.000000 0.000000 0.000000
# 3 -0.009126 -0.003551 0.015606 0.000000 0.000000 0.000000
# 4 0.000000 0.000000 0.000000 0.029291 0.000000 0.000000
# 5 0.000000 0.000000 0.000000 0.000000 -0.026907 0.000000
# 6 0.000000 0.000000 0.000000 0.000000 0.000000 1.016410
#
#
# Mechanical properties :
#
#
# Convention : Reuss Voigt Hill
#
# Bulk Modulus (GPa) = 28.98035 33.00169 30.99102
# Shear Modulus (GPa) = 4.49897 9.50036 6.99966
#
# Velocity S-wave (km/s) = 1.47147 2.13828 1.83541
# Velocity P-wave (km/s) = 4.10296 4.68818 4.40530
#
# Compressibility (1/GPa) = 0.03450614
#
# Stress axis : x y z
#
# Youngs Moduli (GPa) = 39.43508 59.43825 64.07753
#
# Poissons Ratio (x) = -0.06158 0.58477
# Poissons Ratio (y) = -0.04086 0.22755
# Poissons Ratio (z) = 0.35989 0.21107
#
# Static dielectric constant tensor:
#      x y z
#    x 1.717400 0.000000 0.000000 
#    y 0.000000 1.753220 0.000000 
#    z 0.000000 0.000000 1.968320 
# 
# From -- ./inp_files/15551.got.cif
#   From: 2010.05.17/outbox.cif.g08.bks.cpg/sg52_8_cif.got.tgz:15551.got - 2010.06.03 12:15:38.
