data_PCOD9410591
_publ_section_title
;
Structure prediction by ZEFSAII (Michael W. Deem and Ramdas Pophale) SiO2 
 PCOD9410591
Probable space group: P N N A
;
_chemical_formula_sum "Si O2"
_cell_formula_units_Z 48
_cell_length_a 15.089205
_cell_length_b 9.943231
_cell_length_c 18.109022
_cell_angle_alpha 90.000000
_cell_angle_beta 90.000000
_cell_angle_gamma 90.000000
_cell_volume 2716.995282
_symmetry_space_group_name_H-M "P N N A"
_symmetry_group_IT_number 52
_symmetry_cell_setting 'orthorhombic'
loop_
_space_group_symop_operation_xyz
x,y,z
1/2-x,-y,z
x,1/2-y,1/2-z
1/2-x,1/2+y,1/2-z
-x,-y,-z
1/2+x,y,-z
-x,1/2+y,1/2+z
1/2+x,1/2-y,1/2+z
loop_
_atom_site_type_symbol
_atom_site_label
_atom_site_fract_x
_atom_site_fract_y
_atom_site_fract_z
Si Si1 0.250000 0.000000 0.928796
Si Si2 0.933989 0.595034 0.274825
Si Si3 0.518856 0.156042 0.694085
Si Si4 0.750000 0.500000 0.206188
Si Si5 0.500328 0.147972 0.530840
Si Si6 0.155149 0.762734 0.622784
Si Si7 0.435935 0.904713 0.952051
O O1 0.290565 0.127224 0.885424
O O2 0.164965 0.056800 0.971171
O O3 0.948921 0.750000 0.250000
O O4 0.833400 0.554532 0.252484
O O5 0.946394 0.580331 0.363300
O O6 0.993898 0.487621 0.229378
O O7 0.572482 0.250000 0.750000
O O8 0.428707 0.243464 0.677603
O O9 0.550780 0.143615 0.610007
O O10 0.783777 0.379507 0.154421
O O11 0.399186 0.195340 0.549325
O O12 0.543557 0.253418 0.475878
O O13 0.500000 0.000000 0.500000
O O14 0.500000 0.000000 0.000000
#
# Coordination Sequence:
#
# PCOD9410591 Si02
#       7
#     4   8   8   4   8   8   8
#     4  12  21  36  56  86 116 165 196 252 297 360
#     4  11  21  33  55  84 116 156 197 245 294 367
#     4   9  18  35  52  78 112 152 195 236 297 359
#     4  10  21  36  52  90 122 159 200 234 313 390
#     4  10  21  38  55  80 124 165 198 243 303 376
#     4   9  21  34  56  82 124 161 193 241 300 375
#     4  12  23  38  56  88 126 161 206 249 307 369
#
# _framework density 17.666575000000002
#
# number of rings (size 3 to 8) (size 9 to 14) (size 15 to 20)
#    1.000    0.667    1.667    4.500    2.333    4.000 
#    0.000    0.000    0.000    0.000    0.000    3.500 
#    0.000    0.000    0.000    0.000    0.000    0.000 
#
# Total GULP energy -267376.913499 kJ/mol
# GULP energy per Si atom -5570.352365 kJ/mol
# Density = 1.762636 g / cm^3
# Si number density = 17.666575 Si / 1000 Ang^3
#
#
#
# Elastic Constant Matrix: (Units=GPa)
#
#
# Indices 1 2 3 4 5 6 
#
# 1 51.1522 33.1922 25.4616 0.0000 0.0000 0.0000
# 2 33.1922 151.6494 43.5264 0.0000 0.0000 0.0000
# 3 25.4616 43.5264 84.7943 0.0000 0.0000 0.0000
# 4 0.0000 0.0000 0.0000 38.9262 0.0000 0.0000
# 5 0.0000 0.0000 0.0000 0.0000 20.6544 0.0000
# 6 0.0000 0.0000 0.0000 0.0000 0.0000 19.1614
#
#
#
# Elastic Compliance Matrix: (Units=1/GPa)
#
#
# Indices 1 2 3 4 5 6 
#
# 1 0.024768 -0.003854 -0.005459 0.000000 0.000000 0.000000
# 2 -0.003854 0.008333 -0.003120 0.000000 0.000000 0.000000
# 3 -0.005459 -0.003120 0.015034 0.000000 0.000000 0.000000
# 4 0.000000 0.000000 0.000000 0.025690 0.000000 0.000000
# 5 0.000000 0.000000 0.000000 0.000000 0.048416 0.000000
# 6 0.000000 0.000000 0.000000 0.000000 0.000000 0.052188
#
#
# Mechanical properties :
#
#
# Convention : Reuss Voigt Hill
#
# Bulk Modulus (GPa) = 42.97638 54.66181 48.81910
# Shear Modulus (GPa) = 24.14862 28.10946 26.12904
#
# Velocity S-wave (km/s) = 3.70119 3.99320 3.84996
# Velocity P-wave (km/s) = 6.53025 7.22972 6.88887
#
# Compressibility (1/GPa) = 0.02326859
#
# Stress axis : x y z
#
# Youngs Moduli (GPa) = 40.37530 119.99973 66.51575
#
# Poissons Ratio (x) = 0.46251 0.36308
# Poissons Ratio (y) = 0.15562 0.20755
# Poissons Ratio (z) = 0.22039 0.37444
#
# Static dielectric constant tensor:
#      x y z
#    x 1.596630 0.000000 0.000000 
#    y 0.000000 1.640050 0.000000 
#    z 0.000000 0.000000 1.652330 
# 
# From -- ./inp_files/33093.got.cif
#   From: 2010.05.17/outbox.cif.g08.bks.cpg/sg52_17_cif.got.tgz:33093.got - 2010.06.03 12:15:38.
