data_PCOD9410077
_publ_section_title
;
Structure prediction by ZEFSAII (Michael W. Deem and Ramdas Pophale) SiO2 
 PCOD9410077
Probable space group: P N N A
;
_chemical_formula_sum "Si O2"
_cell_formula_units_Z 28
_cell_length_a 13.519140
_cell_length_b 4.977727
_cell_length_c 19.635502
_cell_angle_alpha 90.000000
_cell_angle_beta 90.000000
_cell_angle_gamma 90.000000
_cell_volume 1321.363021
_symmetry_space_group_name_H-M "P N N A"
_symmetry_group_IT_number 52
_symmetry_cell_setting 'orthorhombic'
loop_
_space_group_symop_operation_xyz
x,y,z
1/2-x,-y,z
x,1/2-y,1/2-z
1/2-x,1/2+y,1/2-z
-x,-y,-z
1/2+x,y,-z
-x,1/2+y,1/2+z
1/2+x,1/2-y,1/2+z
loop_
_atom_site_type_symbol
_atom_site_label
_atom_site_fract_x
_atom_site_fract_y
_atom_site_fract_z
Si Si1 0.815395 0.750000 0.750000
Si Si2 0.864902 0.048223 0.881972
Si Si3 0.519917 0.441028 0.921623
Si Si4 0.867761 0.001001 0.298956
O O1 0.750000 0.500000 0.779884
O O2 0.873636 0.916232 0.806595
O O3 0.939382 0.860551 0.922360
O O4 0.750000 0.000000 0.900081
O O5 0.897659 0.352016 0.892829
O O6 0.429539 0.479910 0.868662
O O7 0.500000 0.500000 0.000000
O O8 0.891250 0.750000 0.250000
O O9 0.750000 0.000000 0.314293
O O10 0.889101 0.250000 0.250000
#
# Coordination Sequence:
#
# PCOD9410077 Si02
#       4
#     4   8   8   8
#     4  10  20  38  62  96 128 166 216 262 328 406
#     4  11  24  42  65  97 137 174 214 267 340 410
#     4  12  26  43  66 101 135 179 226 279 346 413
#     4  10  23  44  69  96 126 173 233 288 332 387
#
# _framework density 21.190238999999998
#
# number of rings (size 3 to 8) (size 9 to 14) (size 15 to 20)
#    0.000    1.143    0.000    6.857    6.000    2.286 
#    0.000    2.857    0.000    0.000    0.000    0.000 
#    0.000    0.000    0.000    0.000    0.000    0.000 
#
# Total GULP energy -156342.437446 kJ/mol
# GULP energy per Si atom -5583.658480 kJ/mol
# Density = 2.114201 g / cm^3
# Si number density = 21.190239 Si / 1000 Ang^3
#
#
#
# Elastic Constant Matrix: (Units=GPa)
#
#
# Indices 1 2 3 4 5 6 
#
# 1 106.3697 15.4620 60.1970 0.0000 0.0000 0.0000
# 2 15.4620 106.2786 12.3901 0.0000 0.0000 0.0000
# 3 60.1970 12.3901 152.4303 0.0000 0.0000 0.0000
# 4 0.0000 0.0000 0.0000 8.4631 0.0000 0.0000
# 5 0.0000 0.0000 0.0000 0.0000 3.0686 0.0000
# 6 0.0000 0.0000 0.0000 0.0000 0.0000 88.0230
#
#
#
# Elastic Compliance Matrix: (Units=1/GPa)
#
#
# Indices 1 2 3 4 5 6 
#
# 1 0.012265 -0.001231 -0.004743 0.000000 0.000000 0.000000
# 2 -0.001231 0.009623 -0.000296 0.000000 0.000000 0.000000
# 3 -0.004743 -0.000296 0.008458 0.000000 0.000000 0.000000
# 4 0.000000 0.000000 0.000000 0.118160 0.000000 0.000000
# 5 0.000000 0.000000 0.000000 0.000000 0.325885 0.000000
# 6 0.000000 0.000000 0.000000 0.000000 0.000000 0.011361
#
#
# Mechanical properties :
#
#
# Convention : Reuss Voigt Hill
#
# Bulk Modulus (GPa) = 56.16763 60.13078 58.14921
# Shear Modulus (GPa) = 9.91618 38.37957 24.14787
#
# Velocity S-wave (km/s) = 2.16558 4.26043 3.37942
# Velocity P-wave (km/s) = 5.72861 7.25533 6.53670
#
# Compressibility (1/GPa) = 0.01780385
#
# Stress axis : x y z
#
# Youngs Moduli (GPa) = 81.53593 103.91912 118.23611
#
# Poissons Ratio (x) = 0.12796 0.56084
# Poissons Ratio (y) = 0.10040 0.03499
# Poissons Ratio (z) = 0.38675 0.03075
#
# Static dielectric constant tensor:
#      x y z
#    x 1.405750 0.000000 0.000000 
#    y 0.000000 3.004950 0.000000 
#    z 0.000000 0.000000 1.299740 
# 
# From -- ./inp_files/36366.got.cif
#   From: 2010.05.17/outbox.cif.g08.bks.cpg/sg52_19_cif.got.tgz:36366.got - 2010.06.03 12:15:38.
