data_PCOD9410388
_publ_section_title
;
Structure prediction by ZEFSAII (Michael W. Deem and Ramdas Pophale) SiO2 
 PCOD9410388
Probable space group: P N N A
;
_chemical_formula_sum "Si O2"
_cell_formula_units_Z 28
_cell_length_a 12.923595
_cell_length_b 13.301855
_cell_length_c 6.828723
_cell_angle_alpha 90.000000
_cell_angle_beta 90.000000
_cell_angle_gamma 90.000000
_cell_volume 1173.910657
_symmetry_space_group_name_H-M "P N N A"
_symmetry_group_IT_number 52
_symmetry_cell_setting 'orthorhombic'
loop_
_space_group_symop_operation_xyz
x,y,z
1/2-x,-y,z
x,1/2-y,1/2-z
1/2-x,1/2+y,1/2-z
-x,-y,-z
1/2+x,y,-z
-x,1/2+y,1/2+z
1/2+x,1/2-y,1/2+z
loop_
_atom_site_type_symbol
_atom_site_label
_atom_site_fract_x
_atom_site_fract_y
_atom_site_fract_z
Si Si1 0.487874 0.153285 0.033430
Si Si2 0.153126 0.189508 0.454693
Si Si3 0.172104 0.750000 0.750000
Si Si4 0.129958 0.492619 0.291683
O O1 0.554501 0.254340 0.046034
O O2 0.402269 0.173903 0.865897
O O3 0.572152 0.073366 0.955991
O O4 0.424891 0.100528 0.207749
O O5 0.173979 0.250000 0.250000
O O6 0.251703 0.198233 0.593673
O O7 0.126108 0.075253 0.401943
O O8 0.250000 0.500000 0.343332
#
# Coordination Sequence:
#
# PCOD9410388 Si02
#       4
#     8   8   4   8
#     4  10  20  41  72 101 147 192 252 315 376 450
#     4  10  22  44  66 108 147 191 251 312 383 452
#     4  12  22  44  76 102 146 202 252 308 386 462
#     4  10  20  41  68 101 146 191 241 315 370 447
#
# _framework density 23.851897999999998
#
# number of rings (size 3 to 8) (size 9 to 14) (size 15 to 20)
#    0.000    1.714    4.286    3.429    0.000    0.000 
#    7.714   12.857    0.000    0.000    0.000    0.000 
#    0.000    0.000    0.000    0.000    0.000    0.000 
#
# Total GULP energy -156552.385775 kJ/mol
# GULP energy per Si atom -5591.156635 kJ/mol
# Density = 2.379761 g / cm^3
# Si number density = 23.851898 Si / 1000 Ang^3
#
#
#
# Elastic Constant Matrix: (Units=GPa)
#
#
# Indices 1 2 3 4 5 6 
#
# 1 205.6500 95.7102 59.5374 0.0000 0.0000 0.0000
# 2 95.7102 117.2294 46.6299 0.0000 0.0000 0.0000
# 3 59.5374 46.6299 94.5085 0.0000 0.0000 0.0000
# 4 0.0000 0.0000 0.0000 40.7088 0.0000 0.0000
# 5 0.0000 0.0000 0.0000 0.0000 33.0447 0.0000
# 6 0.0000 0.0000 0.0000 0.0000 0.0000 37.6414
#
#
#
# Elastic Compliance Matrix: (Units=1/GPa)
#
#
# Indices 1 2 3 4 5 6 
#
# 1 0.008234 -0.005797 -0.002327 0.000000 0.000000 0.000000
# 2 -0.005797 0.014695 -0.003598 0.000000 0.000000 0.000000
# 3 -0.002327 -0.003598 0.013822 0.000000 0.000000 0.000000
# 4 0.000000 0.000000 0.000000 0.024565 0.000000 0.000000
# 5 0.000000 0.000000 0.000000 0.000000 0.030262 0.000000
# 6 0.000000 0.000000 0.000000 0.000000 0.000000 0.026566
#
#
# Mechanical properties :
#
#
# Convention : Reuss Voigt Hill
#
# Bulk Modulus (GPa) = 75.15179 91.23809 83.19494
# Shear Modulus (GPa) = 34.24076 36.64635 35.44355
#
# Velocity S-wave (km/s) = 3.79298 3.92396 3.85903
# Velocity P-wave (km/s) = 7.12449 7.67235 7.40349
#
# Compressibility (1/GPa) = 0.01330640
#
# Stress axis : x y z
#
# Youngs Moduli (GPa) = 121.44212 68.05251 72.34652
#
# Poissons Ratio (x) = 0.39451 0.16836
# Poissons Ratio (y) = 0.70402 0.26031
# Poissons Ratio (z) = 0.28261 0.24486
#
# Static dielectric constant tensor:
#      x y z
#    x 1.856440 0.000000 0.000000 
#    y 0.000000 1.979820 0.000000 
#    z 0.000000 0.000000 1.956920 
# 
# From -- ./inp_files/8126.got.cif
#   From: 2010.05.17/outbox.cif.g08.bks.cpg/sg52_5_cif.got.tgz:8126.got - 2010.06.03 12:15:38.
