data_PCOD9410570
_publ_section_title
;
Structure prediction by ZEFSAII (Michael W. Deem and Ramdas Pophale) SiO2 
 PCOD9410570
Probable space group: P N N A
;
_chemical_formula_sum "Si O2"
_cell_formula_units_Z 40
_cell_length_a 5.151655
_cell_length_b 11.640087
_cell_length_c 33.523085
_cell_angle_alpha 90.000000
_cell_angle_beta 90.000000
_cell_angle_gamma 90.000000
_cell_volume 2010.235674
_symmetry_space_group_name_H-M "P N N A"
_symmetry_group_IT_number 52
_symmetry_cell_setting 'orthorhombic'
loop_
_space_group_symop_operation_xyz
x,y,z
1/2-x,-y,z
x,1/2-y,1/2-z
1/2-x,1/2+y,1/2-z
-x,-y,-z
1/2+x,y,-z
-x,1/2+y,1/2+z
1/2+x,1/2-y,1/2+z
loop_
_atom_site_type_symbol
_atom_site_label
_atom_site_fract_x
_atom_site_fract_y
_atom_site_fract_z
Si Si1 0.760700 0.135213 0.876590
Si Si2 0.158195 0.879447 0.682116
Si Si3 0.156648 0.742489 0.203640
Si Si4 0.239811 0.719830 0.900717
Si Si5 0.057715 0.869503 0.515752
O O1 0.789745 0.157051 0.828589
O O2 0.497009 0.193806 0.891688
O O3 0.998070 0.205411 0.896895
O O4 0.750000 0.000000 0.884782
O O5 0.351319 0.785623 0.701104
O O6 0.231509 0.869381 0.635693
O O7 0.855027 0.855233 0.687579
O O8 0.250000 0.000000 0.699004
O O9 0.225459 0.750000 0.250000
O O10 0.183974 0.651165 0.941325
O O11 0.771352 0.816483 0.513860
O O12 0.000000 0.000000 0.500000
#
# Coordination Sequence:
#
# PCOD9410570 Si02
#       5
#     8   8   8   8   8
#     4  10  21  38  61  84 110 164 206 234 290 337
#     4  10  21  35  56  83 115 153 182 227 307 347
#     4  10  21  38  55  84 118 147 197 249 283 343
#     4  10  21  38  58  85 122 146 191 250 273 361
#     4  10  21  36  57  89 118 149 185 226 310 361
#
# _framework density 19.898164999999999
#
# number of rings (size 3 to 8) (size 9 to 14) (size 15 to 20)
#    0.000    2.000    0.000    3.000    2.800    1.600 
#    7.200    0.000    0.000   12.000    0.000    0.000 
#    0.000    0.000    0.000    0.000    0.000    0.000 
#
# Total GULP energy -222696.281600 kJ/mol
# GULP energy per Si atom -5567.407040 kJ/mol
# Density = 1.985288 g / cm^3
# Si number density = 19.898165 Si / 1000 Ang^3
#
#
#
# Elastic Constant Matrix: (Units=GPa)
#
#
# Indices 1 2 3 4 5 6 
#
# 1 123.5404 9.3404 7.0252 0.0000 0.0000 0.0000
# 2 9.3404 70.6244 15.4418 0.0000 0.0000 0.0000
# 3 7.0252 15.4418 109.3980 0.0000 0.0000 0.0000
# 4 0.0000 0.0000 0.0000 0.3750 0.0000 0.0000
# 5 0.0000 0.0000 0.0000 0.0000 18.2064 0.0000
# 6 0.0000 0.0000 0.0000 0.0000 0.0000 10.5390
#
#
#
# Elastic Compliance Matrix: (Units=1/GPa)
#
#
# Indices 1 2 3 4 5 6 
#
# 1 0.008192 -0.000999 -0.000385 0.000000 0.000000 0.000000
# 2 -0.000999 0.014732 -0.002015 0.000000 0.000000 0.000000
# 3 -0.000385 -0.002015 0.009450 0.000000 0.000000 0.000000
# 4 0.000000 0.000000 0.000000 2.666479 0.000000 0.000000
# 5 0.000000 0.000000 0.000000 0.000000 0.054926 0.000000
# 6 0.000000 0.000000 0.000000 0.000000 0.000000 0.094886
#
#
# Mechanical properties :
#
#
# Convention : Reuss Voigt Hill
#
# Bulk Modulus (GPa) = 39.10048 40.79753 39.94901
# Shear Modulus (GPa) = 1.74582 23.94110 12.84346
#
# Velocity S-wave (km/s) = 0.93770 3.47245 2.54335
# Velocity P-wave (km/s) = 4.56786 6.05185 5.36145
#
# Compressibility (1/GPa) = 0.02557513
#
# Stress axis : x y z
#
# Youngs Moduli (GPa) = 122.07093 67.87845 105.81874
#
# Poissons Ratio (x) = 0.06783 0.04074
# Poissons Ratio (y) = 0.12198 0.21326
# Poissons Ratio (z) = 0.04700 0.13680
#
# Static dielectric constant tensor:
#      x y z
#    x 1.778110 0.000000 0.000000 
#    y 0.000000 1.734380 0.000000 
#    z 0.000000 0.000000 1.745220 
# 
# From -- ./inp_files/41496.got.cif
#   From: 2010.05.17/outbox.cif.g08.bks.cpg/sg52_21_cif.got.tgz:41496.got - 2010.06.03 12:15:38.
