data_PCOD9410941
_publ_section_title
;
Structure prediction by ZEFSAII (Michael W. Deem and Ramdas Pophale) SiO2 
 PCOD9410941
Probable space group: P N N A
;
_chemical_formula_sum "Si O2"
_cell_formula_units_Z 48
_cell_length_a 8.471030
_cell_length_b 14.215724
_cell_length_c 19.984582
_cell_angle_alpha 90.000000
_cell_angle_beta 90.000000
_cell_angle_gamma 90.000000
_cell_volume 2406.579826
_symmetry_space_group_name_H-M "P N N A"
_symmetry_group_IT_number 52
_symmetry_cell_setting 'orthorhombic'
loop_
_space_group_symop_operation_xyz
x,y,z
1/2-x,-y,z
x,1/2-y,1/2-z
1/2-x,1/2+y,1/2-z
-x,-y,-z
1/2+x,y,-z
-x,1/2+y,1/2+z
1/2+x,1/2-y,1/2+z
loop_
_atom_site_type_symbol
_atom_site_label
_atom_site_fract_x
_atom_site_fract_y
_atom_site_fract_z
Si Si1 0.552379 0.707012 0.911856
Si Si2 0.372774 0.585384 0.814944
Si Si3 0.912011 0.613637 0.334602
Si Si4 0.430596 0.968730 0.070540
Si Si5 0.912324 0.744563 0.941795
Si Si6 0.370099 0.247163 0.821568
O O1 0.493866 0.613066 0.873678
O O2 0.510655 0.798656 0.865950
O O3 0.737357 0.708759 0.927217
O O4 0.463804 0.719687 0.982945
O O5 0.250000 0.500000 0.825455
O O6 0.450602 0.584105 0.741546
O O7 0.266061 0.677788 0.810095
O O8 0.729718 0.651614 0.336750
O O9 0.958202 0.523346 0.377715
O O10 0.423109 0.856727 0.068738
O O11 0.250000 0.000000 0.080229
O O12 0.500000 0.000000 0.000000
O O13 0.031588 0.713715 0.883641
O O14 0.460259 0.250000 0.750000
#
# Coordination Sequence:
#
# PCOD9410941 Si02
#       6
#     8   8   8   8   8   8
#     4  11  22  42  62  93 131 175 211 270 331 391
#     4  10  23  43  67  90 122 170 226 271 324 381
#     4  10  21  39  61  92 132 169 209 266 328 397
#     4  12  24  36  59  97 134 167 211 257 323 395
#     4  12  23  40  64  94 133 171 216 263 329 403
#     4   9  22  40  62  92 124 172 215 264 338 390
#
# _framework density 19.945318
#
# number of rings (size 3 to 8) (size 9 to 14) (size 15 to 20)
#    0.000    1.333    3.333    3.500    7.000    1.333 
#    0.000    4.167    0.000    0.000    0.000    0.000 
#    0.000    0.000    0.000    0.000    0.000    0.000 
#
# Total GULP energy -267627.537102 kJ/mol
# GULP energy per Si atom -5575.573690 kJ/mol
# Density = 1.989992 g / cm^3
# Si number density = 19.945318 Si / 1000 Ang^3
#
#
#
# Elastic Constant Matrix: (Units=GPa)
#
#
# Indices 1 2 3 4 5 6 
#
# 1 93.2297 26.7764 71.7549 0.0000 0.0000 0.0000
# 2 26.7764 61.1110 54.0213 0.0000 0.0000 0.0000
# 3 71.7549 54.0213 165.8160 0.0000 0.0000 0.0000
# 4 0.0000 0.0000 0.0000 31.0920 0.0000 0.0000
# 5 0.0000 0.0000 0.0000 0.0000 23.6288 0.0000
# 6 0.0000 0.0000 0.0000 0.0000 0.0000 35.7277
#
#
#
# Elastic Compliance Matrix: (Units=1/GPa)
#
#
# Indices 1 2 3 4 5 6 
#
# 1 0.016152 -0.001262 -0.006578 0.000000 0.000000 0.000000
# 2 -0.001262 0.023081 -0.006974 0.000000 0.000000 0.000000
# 3 -0.006578 -0.006974 0.011149 0.000000 0.000000 0.000000
# 4 0.000000 0.000000 0.000000 0.032163 0.000000 0.000000
# 5 0.000000 0.000000 0.000000 0.000000 0.042321 0.000000
# 6 0.000000 0.000000 0.000000 0.000000 0.000000 0.027990
#
#
# Mechanical properties :
#
#
# Convention : Reuss Voigt Hill
#
# Bulk Modulus (GPa) = 48.18188 69.47353 58.82770
# Shear Modulus (GPa) = 26.39896 29.26329 27.83112
#
# Velocity S-wave (km/s) = 3.64203 3.83453 3.73952
# Velocity P-wave (km/s) = 6.47266 7.38325 6.94290
#
# Compressibility (1/GPa) = 0.02075469
#
# Stress axis : x y z
#
# Youngs Moduli (GPa) = 61.91306 43.32545 89.69082
#
# Poissons Ratio (x) = 0.05467 0.59002
# Poissons Ratio (y) = 0.07812 0.62547
# Poissons Ratio (z) = 0.40729 0.30213
#
# Static dielectric constant tensor:
#      x y z
#    x 1.663920 0.000000 0.000000 
#    y 0.000000 1.723770 0.000000 
#    z 0.000000 0.000000 1.719000 
# 
# From -- ./inp_files/31239.got.cif
#   From: 2010.05.17/outbox.cif.g08.bks.cpg/sg52_16_cif.got.tgz:31239.got - 2010.06.03 12:15:38.
