data_PCOD9410507
_publ_section_title
;
Structure prediction by ZEFSAII (Michael W. Deem and Ramdas Pophale) SiO2 
 PCOD9410507
Probable space group: P N N A
;
_chemical_formula_sum "Si O2"
_cell_formula_units_Z 60
_cell_length_a 15.734611
_cell_length_b 17.011094
_cell_length_c 11.443065
_cell_angle_alpha 90.000000
_cell_angle_beta 90.000000
_cell_angle_gamma 90.000000
_cell_volume 3062.884498
_symmetry_space_group_name_H-M "P N N A"
_symmetry_group_IT_number 52
_symmetry_cell_setting 'orthorhombic'
loop_
_space_group_symop_operation_xyz
x,y,z
1/2-x,-y,z
x,1/2-y,1/2-z
1/2-x,1/2+y,1/2-z
-x,-y,-z
1/2+x,y,-z
-x,1/2+y,1/2+z
1/2+x,1/2-y,1/2+z
loop_
_atom_site_type_symbol
_atom_site_label
_atom_site_fract_x
_atom_site_fract_y
_atom_site_fract_z
Si Si1 0.736279 0.250000 0.750000
Si Si2 0.002792 0.245691 0.052959
Si Si3 0.805684 0.926433 0.475370
Si Si4 0.192426 0.774562 0.502137
Si Si5 0.655988 0.033348 0.215266
Si Si6 0.902434 0.626962 0.800100
Si Si7 0.347221 0.794362 0.874095
Si Si8 0.492252 0.060265 0.890457
O O1 0.790056 0.239711 0.634096
O O2 0.674425 0.325115 0.740397
O O3 0.991614 0.152567 0.077623
O O4 0.032085 0.305549 0.155267
O O5 0.907956 0.273012 0.020093
O O6 0.081041 0.244317 0.958726
O O7 0.738891 0.855341 0.461479
O O8 0.849442 0.944668 0.352088
O O9 0.869750 0.908717 0.579076
O O10 0.750000 0.000000 0.510937
O O11 0.252371 0.713589 0.572404
O O12 0.636516 0.113457 0.145494
O O13 0.750000 0.000000 0.195157
O O14 0.591800 0.966464 0.176342
O O15 0.935282 0.561922 0.709755
O O16 0.349697 0.750000 0.750000
O O17 0.500000 0.000000 0.000000
#
# Coordination Sequence:
#
# PCOD9410507 Si02
#       8
#     4   8   8   8   8   8   8   8
#     4  10  20  46  66  90 134 172 220 278 332 402
#     4  12  24  43  71 102 131 179 239 273 347 419
#     4  10  23  46  65 101 133 174 226 282 345 404
#     4  11  24  41  69  97 128 178 230 275 335 416
#     4  11  24  42  66  95 139 173 222 287 344 400
#     4  11  22  46  73  92 135 183 223 284 337 412
#     4  12  22  44  67  96 139 178 226 289 343 399
#     4  12  25  43  65  99 136 174 221 277 343 410
#
# _framework density 19.589376999999999
#
# number of rings (size 3 to 8) (size 9 to 14) (size 15 to 20)
#    0.000    0.800    6.667    0.800    4.667    1.600 
#    7.200    0.000    0.000    0.000    0.000    0.000 
#    0.000    0.000    0.000    0.000    0.000    0.000 
#
# Total GULP energy -334769.920871 kJ/mol
# GULP energy per Si atom -5579.498681 kJ/mol
# Density = 1.954479 g / cm^3
# Si number density = 19.589377 Si / 1000 Ang^3
#
#
#
# Elastic Constant Matrix: (Units=GPa)
#
#
# Indices 1 2 3 4 5 6 
#
# 1 85.7055 8.5545 53.4862 0.0000 0.0000 0.0000
# 2 8.5545 77.5052 40.4182 0.0000 0.0000 0.0000
# 3 53.4862 40.4182 83.5832 0.0000 0.0000 0.0000
# 4 0.0000 0.0000 0.0000 36.0824 0.0000 0.0000
# 5 0.0000 0.0000 0.0000 0.0000 -4.5684 0.0000
# 6 0.0000 0.0000 0.0000 0.0000 0.0000 23.2053
#
#
#
# Elastic Compliance Matrix: (Units=1/GPa)
#
#
# Indices 1 2 3 4 5 6 
#
# 1 0.021594 0.006449 -0.016937 0.000000 0.000000 0.000000
# 2 0.006449 0.019179 -0.013401 0.000000 0.000000 0.000000
# 3 -0.016937 -0.013401 0.029283 0.000000 0.000000 0.000000
# 4 0.000000 0.000000 0.000000 0.027714 0.000000 0.000000
# 5 0.000000 0.000000 0.000000 0.000000 -0.218897 0.000000
# 6 0.000000 0.000000 0.000000 0.000000 0.000000 0.043094
#
#
# Mechanical properties :
#
#
# Convention : Reuss Voigt Hill
#
# Bulk Modulus (GPa) = 44.88812 50.19020 47.53916
# Shear Modulus (GPa) = -219.02224 20.56618 -99.22803
#
# Velocity S-wave (km/s) = -10.58534 3.24368 -7.12488
# Velocity P-wave (km/s) = 11.24433 6.30122 6.58519
#
# Compressibility (1/GPa) = 0.02227761
#
# Stress axis : x y z
#
# Youngs Moduli (GPa) = 46.30934 52.13985 34.14986
#
# Poissons Ratio (x) = -0.33625 0.57839
# Poissons Ratio (y) = -0.29865 0.45765
# Poissons Ratio (z) = 0.78433 0.69874
#
# Static dielectric constant tensor:
#      x y z
#    x 1.689570 0.000000 0.000000 
#    y 0.000000 1.794740 0.000000 
#    z 0.000000 0.000000 1.724190 
# 
# From -- ./inp_files/19827.got.cif
#   From: 2010.05.17/outbox.cif.g08.bks.cpg/sg52_10_cif.got.tgz:19827.got - 2010.06.03 12:15:38.
