data_PCOD9410611
_publ_section_title
;
Structure prediction by ZEFSAII (Michael W. Deem and Ramdas Pophale) SiO2 
 PCOD9410611
Probable space group: P N N A
;
_chemical_formula_sum "Si O2"
_cell_formula_units_Z 60
_cell_length_a 10.478453
_cell_length_b 16.918879
_cell_length_c 15.696673
_cell_angle_alpha 90.000000
_cell_angle_beta 90.000000
_cell_angle_gamma 90.000000
_cell_volume 2782.763928
_symmetry_space_group_name_H-M "P N N A"
_symmetry_group_IT_number 52
_symmetry_cell_setting 'orthorhombic'
loop_
_space_group_symop_operation_xyz
x,y,z
1/2-x,-y,z
x,1/2-y,1/2-z
1/2-x,1/2+y,1/2-z
-x,-y,-z
1/2+x,y,-z
-x,1/2+y,1/2+z
1/2+x,1/2-y,1/2+z
loop_
_atom_site_type_symbol
_atom_site_label
_atom_site_fract_x
_atom_site_fract_y
_atom_site_fract_z
Si Si1 0.451661 0.234666 0.050468
Si Si2 0.156454 0.679770 0.895845
Si Si3 0.241647 0.412470 0.286847
Si Si4 0.330155 0.795955 0.073990
Si Si5 0.717641 0.250000 0.250000
Si Si6 0.502913 0.855923 0.701054
Si Si7 0.635357 0.061586 0.436458
Si Si8 0.408513 0.884820 0.379112
O O1 0.317703 0.189048 0.049904
O O2 0.466674 0.280527 0.139549
O O3 0.418846 0.301951 0.981292
O O4 0.573459 0.193266 0.006128
O O5 0.193135 0.749436 0.832754
O O6 0.288906 0.643942 0.924577
O O7 0.055200 0.624004 0.849397
O O8 0.250000 0.500000 0.325643
O O9 0.157424 0.353907 0.345374
O O10 0.381463 0.376617 0.263757
O O11 0.174694 0.420444 0.195354
O O12 0.351099 0.704521 0.104792
O O13 0.626145 0.173252 0.252320
O O14 0.470375 0.928490 0.636869
O O15 0.593243 0.063642 0.534375
O O16 0.750000 0.000000 0.423456
#
# Coordination Sequence:
#
# PCOD9410611 Si02
#       8
#     8   8   8   8   4   8   8   8
#     4  11  20  40  67  93 119 160 220 279 313 373
#     4  10  21  36  56  92 123 154 213 257 319 365
#     4  12  27  41  61  95 136 173 209 263 337 399
#     4  11  22  41  68  96 123 163 223 275 324 385
#     4  10  22  36  62  90 120 160 212 276 310 376
#     4  11  21  42  62  91 128 171 218 258 329 383
#     4  11  22  37  59  90 133 173 206 250 321 403
#     4  11  22  38  61  92 126 167 209 266 314 388
#
# _framework density 21.561298000000001
#
# number of rings (size 3 to 8) (size 9 to 14) (size 15 to 20)
#    0.000    1.067    5.333    2.400    5.600    0.533 
#    0.000    0.667    0.000    0.000    0.000    0.000 
#    0.000    0.000    0.000    0.000    0.000    0.000 
#
# Total GULP energy -334550.888868 kJ/mol
# GULP energy per Si atom -5575.848148 kJ/mol
# Density = 2.151222 g / cm^3
# Si number density = 21.561298 Si / 1000 Ang^3
#
#
#
# Elastic Constant Matrix: (Units=GPa)
#
#
# Indices 1 2 3 4 5 6 
#
# 1 100.1766 7.5496 17.5227 0.0000 0.0000 0.0000
# 2 7.5496 61.2961 29.8082 0.0000 0.0000 0.0000
# 3 17.5227 29.8082 47.1753 0.0000 0.0000 0.0000
# 4 0.0000 0.0000 0.0000 25.8561 0.0000 0.0000
# 5 0.0000 0.0000 0.0000 0.0000 36.9490 0.0000
# 6 0.0000 0.0000 0.0000 0.0000 0.0000 27.2750
#
#
#
# Elastic Compliance Matrix: (Units=1/GPa)
#
#
# Indices 1 2 3 4 5 6 
#
# 1 0.010709 0.000888 -0.004539 0.000000 0.000000 0.000000
# 2 0.000888 0.023624 -0.015257 0.000000 0.000000 0.000000
# 3 -0.004539 -0.015257 0.032524 0.000000 0.000000 0.000000
# 4 0.000000 0.000000 0.000000 0.038676 0.000000 0.000000
# 5 0.000000 0.000000 0.000000 0.000000 0.027064 0.000000
# 6 0.000000 0.000000 0.000000 0.000000 0.000000 0.036664
#
#
# Mechanical properties :
#
#
# Convention : Reuss Voigt Hill
#
# Bulk Modulus (GPa) = 34.43335 35.37875 34.90605
# Shear Modulus (GPa) = 23.06716 28.26718 25.66717
#
# Velocity S-wave (km/s) = 3.27439 3.62472 3.45400
# Velocity P-wave (km/s) = 5.50456 5.82771 5.66844
#
# Compressibility (1/GPa) = 0.02904162
#
# Stress axis : x y z
#
# Youngs Moduli (GPa) = 93.37583 42.32901 30.74650
#
# Poissons Ratio (x) = -0.03760 0.13956
# Poissons Ratio (y) = -0.08295 0.46911
# Poissons Ratio (z) = 0.42385 0.64583
#
# Static dielectric constant tensor:
#      x y z
#    x 1.873860 0.000000 0.000000 
#    y 0.000000 1.851110 0.000000 
#    z 0.000000 0.000000 1.880830 
# 
# From -- ./inp_files/26321.got.cif
#   From: 2010.05.17/outbox.cif.g08.bks.cpg/sg52_14_cif.got.tgz:26321.got - 2010.06.03 12:15:38.
