data_PCOD9410613
_publ_section_title
;
Structure prediction by ZEFSAII (Michael W. Deem and Ramdas Pophale) SiO2 
 PCOD9410613
Probable space group: P N N A
;
_chemical_formula_sum "Si O2"
_cell_formula_units_Z 60
_cell_length_a 8.829836
_cell_length_b 14.907123
_cell_length_c 23.300075
_cell_angle_alpha 90.000000
_cell_angle_beta 90.000000
_cell_angle_gamma 90.000000
_cell_volume 3066.929488
_symmetry_space_group_name_H-M "P N N A"
_symmetry_group_IT_number 52
_symmetry_cell_setting 'orthorhombic'
loop_
_space_group_symop_operation_xyz
x,y,z
1/2-x,-y,z
x,1/2-y,1/2-z
1/2-x,1/2+y,1/2-z
-x,-y,-z
1/2+x,y,-z
-x,1/2+y,1/2+z
1/2+x,1/2-y,1/2+z
loop_
_atom_site_type_symbol
_atom_site_label
_atom_site_fract_x
_atom_site_fract_y
_atom_site_fract_z
Si Si1 0.250000 0.000000 0.659734
Si Si2 0.390154 0.058303 0.960054
Si Si3 0.697873 0.903290 0.821340
Si Si4 0.478677 0.242464 0.373580
Si Si5 0.294620 0.312530 0.895399
Si Si6 0.800619 0.261646 0.521141
Si Si7 0.597341 0.559148 0.807864
Si Si8 0.938377 0.694083 0.618895
O O1 0.224828 0.914212 0.620633
O O2 0.422520 0.982024 0.687768
O O3 0.250000 0.000000 0.938453
O O4 0.477020 0.109313 0.909488
O O5 0.176401 0.862676 0.999506
O O6 0.500000 0.000000 0.000000
O O7 0.582052 0.840319 0.855945
O O8 0.632786 0.920608 0.758678
O O9 0.845928 0.840638 0.826761
O O10 0.750000 0.000000 0.845947
O O11 0.656764 0.240253 0.366564
O O12 0.442432 0.231055 0.440833
O O13 0.409514 0.155780 0.340729
O O14 0.445263 0.271892 0.868893
O O15 0.289509 0.295504 0.963557
O O16 0.667390 0.266523 0.567874
O O17 0.750000 0.500000 0.826520
#
# Coordination Sequence:
#
# PCOD9410613 Si02
#       8
#     4   8   8   8   8   8   8   8
#     4  10  24  44  74  94 132 170 222 282 332 398
#     4  11  21  32  53  83 127 174 209 251 314 383
#     4  10  23  41  65  91 124 164 219 266 327 393
#     4  10  22  40  65  89 133 171 207 272 330 380
#     4  10  21  41  60 100 128 168 216 265 327 393
#     4  10  21  36  57  88 132 168 211 256 316 395
#     4  10  23  47  69  95 125 167 222 282 337 383
#     4  10  22  35  59  89 127 170 214 264 322 395
#
# _framework density 19.563541000000001
#
# number of rings (size 3 to 8) (size 9 to 14) (size 15 to 20)
#    0.000    1.867    1.333    2.000    9.333    0.000 
#    6.000    2.000    0.000    0.000    0.000    0.000 
#    0.000    0.000    0.000    0.000    0.000    0.000 
#
# Total GULP energy -334097.037161 kJ/mol
# GULP energy per Si atom -5568.283953 kJ/mol
# Density = 1.951901 g / cm^3
# Si number density = 19.563541 Si / 1000 Ang^3
#
#
#
# Elastic Constant Matrix: (Units=GPa)
#
#
# Indices 1 2 3 4 5 6 
#
# 1 107.9170 47.7944 23.7736 0.0000 0.0000 0.0000
# 2 47.7944 95.6400 41.4451 0.0000 0.0000 0.0000
# 3 23.7736 41.4451 47.6210 0.0000 0.0000 0.0000
# 4 0.0000 0.0000 0.0000 33.8028 0.0000 0.0000
# 5 0.0000 0.0000 0.0000 0.0000 4.1676 0.0000
# 6 0.0000 0.0000 0.0000 0.0000 0.0000 35.4890
#
#
#
# Elastic Compliance Matrix: (Units=1/GPa)
#
#
# Indices 1 2 3 4 5 6 
#
# 1 0.011945 -0.005435 -0.001233 0.000000 0.000000 0.000000
# 2 -0.005435 0.019260 -0.014049 0.000000 0.000000 0.000000
# 3 -0.001233 -0.014049 0.033842 0.000000 0.000000 0.000000
# 4 0.000000 0.000000 0.000000 0.029583 0.000000 0.000000
# 5 0.000000 0.000000 0.000000 0.000000 0.239945 0.000000
# 6 0.000000 0.000000 0.000000 0.000000 0.000000 0.028178
#
#
# Mechanical properties :
#
#
# Convention : Reuss Voigt Hill
#
# Bulk Modulus (GPa) = 42.35015 53.02269 47.68642
# Shear Modulus (GPa) = 12.13423 23.90287 18.01855
#
# Velocity S-wave (km/s) = 2.49318 3.49923 3.03814
# Velocity P-wave (km/s) = 5.47562 6.59453 6.06095
#
# Compressibility (1/GPa) = 0.02361267
#
# Stress axis : x y z
#
# Youngs Moduli (GPa) = 83.71644 51.92146 29.54940
#
# Poissons Ratio (x) = 0.28219 0.03644
# Poissons Ratio (y) = 0.45499 0.41513
# Poissons Ratio (z) = 0.10324 0.72943
#
# Static dielectric constant tensor:
#      x y z
#    x 1.801640 0.000000 0.000000 
#    y 0.000000 1.707710 0.000000 
#    z 0.000000 0.000000 1.664180 
# 
# From -- ./inp_files/39641.got.cif
#   From: 2010.05.17/outbox.cif.g08.bks.cpg/sg52_20_cif.got.tgz:39641.got - 2010.06.03 12:15:38.
