data_PCOD9410244
_publ_section_title
;
Structure prediction by ZEFSAII (Michael W. Deem and Ramdas Pophale) SiO2 
 PCOD9410244
Probable space group: P N N A
;
_chemical_formula_sum "Si O2"
_cell_formula_units_Z 64
_cell_length_a 14.307229
_cell_length_b 30.745269
_cell_length_c 5.536368
_cell_angle_alpha 90.000000
_cell_angle_beta 90.000000
_cell_angle_gamma 90.000000
_cell_volume 2435.335365
_symmetry_space_group_name_H-M "P N N A"
_symmetry_group_IT_number 52
_symmetry_cell_setting 'orthorhombic'
loop_
_space_group_symop_operation_xyz
x,y,z
1/2-x,-y,z
x,1/2-y,1/2-z
1/2-x,1/2+y,1/2-z
-x,-y,-z
1/2+x,y,-z
-x,1/2+y,1/2+z
1/2+x,1/2-y,1/2+z
loop_
_atom_site_type_symbol
_atom_site_label
_atom_site_fract_x
_atom_site_fract_y
_atom_site_fract_z
Si Si1 0.075570 0.912038 0.690286
Si Si2 0.437674 0.335116 0.183436
Si Si3 0.425743 0.864806 0.044410
Si Si4 0.283434 0.284202 0.943490
Si Si5 0.906332 0.789152 0.631253
Si Si6 0.269949 0.617046 0.832178
Si Si7 0.172568 0.040068 0.337752
Si Si8 0.863128 0.993133 0.181858
O O1 0.083103 0.881997 0.444539
O O2 0.176911 0.898994 0.804768
O O3 0.084506 0.962515 0.754440
O O4 0.972532 0.898580 0.775383
O O5 0.356153 0.299928 0.147970
O O6 0.526806 0.314025 0.050308
O O7 0.477408 0.343729 0.446016
O O8 0.360983 0.884439 0.838226
O O9 0.373947 0.826512 0.184398
O O10 0.322017 0.250000 0.750000
O O11 0.249886 0.331886 0.857143
O O12 0.183475 0.265687 0.021229
O O13 0.962628 0.750000 0.750000
O O14 0.280694 0.586776 0.076600
O O15 0.250000 0.000000 0.343767
O O16 0.111265 0.033804 0.578800
O O17 0.125632 0.028872 0.079785
O O18 0.750000 0.000000 0.186664
#
# Coordination Sequence:
#
# PCOD9410244 Si02
#       8
#     8   8   8   8   8   8   8   8
#     4  10  23  42  69 102 142 191 243 315 372 463
#     4  10  24  45  69 101 150 191 248 310 384 458
#     4  11  25  43  69 109 138 200 251 309 396 454
#     4  11  24  45  74 110 145 195 253 303 384 466
#     4  11  24  45  68 102 147 190 249 315 375 453
#     4  11  22  45  74 101 148 192 251 311 377 469
#     4  10  21  39  67 105 140 195 249 307 386 452
#     4  10  20  39  68 104 141 188 250 304 389 449
#
# _framework density 26.279748999999999
#
# number of rings (size 3 to 8) (size 9 to 14) (size 15 to 20)
#    0.000    1.500    3.750    1.125    3.500    2.000 
#    4.500    1.250    0.000    0.000    0.000    0.000 
#    0.000    0.000    0.000    0.000    0.000    0.000 
#
# Total GULP energy -356651.528564 kJ/mol
# GULP energy per Si atom -5572.680134 kJ/mol
# Density = 2.621994 g / cm^3
# Si number density = 26.279749 Si / 1000 Ang^3
#
#
#
# Elastic Constant Matrix: (Units=GPa)
#
#
# Indices 1 2 3 4 5 6 
#
# 1 110.3301 7.0692 12.0921 0.0000 0.0000 0.0000
# 2 7.0692 136.2476 37.1731 0.0000 0.0000 0.0000
# 3 12.0921 37.1731 101.5968 0.0000 0.0000 0.0000
# 4 0.0000 0.0000 0.0000 37.4364 0.0000 0.0000
# 5 0.0000 0.0000 0.0000 0.0000 38.7914 0.0000
# 6 0.0000 0.0000 0.0000 0.0000 0.0000 75.0097
#
#
#
# Elastic Compliance Matrix: (Units=1/GPa)
#
#
# Indices 1 2 3 4 5 6 
#
# 1 0.009188 -0.000198 -0.001021 0.000000 0.000000 0.000000
# 2 -0.000198 0.008158 -0.002961 0.000000 0.000000 0.000000
# 3 -0.001021 -0.002961 0.011048 0.000000 0.000000 0.000000
# 4 0.000000 0.000000 0.000000 0.026712 0.000000 0.000000
# 5 0.000000 0.000000 0.000000 0.000000 0.025779 0.000000
# 6 0.000000 0.000000 0.000000 0.000000 0.000000 0.013332
#
#
# Mechanical properties :
#
#
# Convention : Reuss Voigt Hill
#
# Bulk Modulus (GPa) = 49.91774 51.20481 50.56127
# Shear Modulus (GPa) = 45.76447 49.70352 47.73400
#
# Velocity S-wave (km/s) = 4.17758 4.35365 4.26652
# Velocity P-wave (km/s) = 6.50427 6.69322 6.59942
#
# Compressibility (1/GPa) = 0.02003296
#
# Stress axis : x y z
#
# Youngs Moduli (GPa) = 108.83390 122.58215 90.51536
#
# Poissons Ratio (x) = 0.02429 0.09242
# Poissons Ratio (y) = 0.02156 0.26804
# Poissons Ratio (z) = 0.11113 0.36300
#
# Static dielectric constant tensor:
#      x y z
#    x 2.178770 0.000000 0.000000 
#    y 0.000000 1.536970 0.000000 
#    z 0.000000 0.000000 2.176070 
# 
# From -- ./inp_files/3676.got.cif
#   From: 2010.05.17/outbox.cif.g08.bks.cpg/sg52_2_cif.got.tgz:3676.got - 2010.06.03 12:15:38.
