data_PCOD9410414
_publ_section_title
;
Structure prediction by ZEFSAII (Michael W. Deem and Ramdas Pophale) SiO2 
 PCOD9410414
Probable space group: P N N A
;
_chemical_formula_sum "Si O2"
_cell_formula_units_Z 60
_cell_length_a 12.817190
_cell_length_b 12.049389
_cell_length_c 20.027253
_cell_angle_alpha 90.000000
_cell_angle_beta 90.000000
_cell_angle_gamma 90.000000
_cell_volume 3092.995098
_symmetry_space_group_name_H-M "P N N A"
_symmetry_group_IT_number 52
_symmetry_cell_setting 'orthorhombic'
loop_
_space_group_symop_operation_xyz
x,y,z
1/2-x,-y,z
x,1/2-y,1/2-z
1/2-x,1/2+y,1/2-z
-x,-y,-z
1/2+x,y,-z
-x,1/2+y,1/2+z
1/2+x,1/2-y,1/2+z
loop_
_atom_site_type_symbol
_atom_site_label
_atom_site_fract_x
_atom_site_fract_y
_atom_site_fract_z
Si Si1 0.702750 0.882449 0.643838
Si Si2 0.226942 0.290603 0.463812
Si Si3 0.660839 0.250000 0.750000
Si Si4 0.070887 0.916896 0.046510
Si Si5 0.631035 0.489282 0.321877
Si Si6 0.606621 0.229021 0.091388
Si Si7 0.942917 0.607177 0.636092
Si Si8 0.518109 0.138819 0.293122
O O1 0.716616 0.798265 0.582876
O O2 0.768047 0.827104 0.703741
O O3 0.586430 0.898153 0.670454
O O4 0.750000 0.000000 0.625307
O O5 0.313778 0.385513 0.477577
O O6 0.186132 0.243463 0.533183
O O7 0.124284 0.332598 0.422549
O O8 0.595228 0.331663 0.702354
O O9 0.004198 0.805727 0.058404
O O10 0.085851 0.979195 0.118034
O O11 0.000000 0.000000 0.000000
O O12 0.750000 0.500000 0.300437
O O13 0.635408 0.387700 0.374054
O O14 0.568700 0.591923 0.356470
O O15 0.564279 0.450389 0.257819
O O16 0.595359 0.320325 0.148486
O O17 0.495288 0.250000 0.250000
#
# Coordination Sequence:
#
# PCOD9410414 Si02
#       8
#     8   8   4   8   8   8   8   8
#     4  11  22  38  65  90 125 163 208 259 315 380
#     4  11  23  38  61  95 130 162 210 262 327 377
#     4  10  22  38  60  92 124 160 204 264 308 374
#     4  11  21  35  60  94 126 159 199 262 326 377
#     4  10  23  38  62  90 123 162 212 257 317 382
#     4  10  22  37  60  86 124 164 204 254 314 381
#     4  10  22  36  58  93 126 156 204 256 321 372
#     4  10  20  42  61  87 122 167 208 251 313 386
#
# _framework density 19.398672999999999
#
# number of rings (size 3 to 8) (size 9 to 14) (size 15 to 20)
#    0.000    1.600    3.333    1.200    3.733    3.200 
#    3.600    1.333    2.933    0.000    0.000    0.000 
#    0.000    0.000    0.000    0.000    0.000    0.000 
#
# Total GULP energy -334358.824171 kJ/mol
# GULP energy per Si atom -5572.647070 kJ/mol
# Density = 1.935452 g / cm^3
# Si number density = 19.398673 Si / 1000 Ang^3
#
#
#
# Elastic Constant Matrix: (Units=GPa)
#
#
# Indices 1 2 3 4 5 6 
#
# 1 95.8220 42.4254 54.0359 0.0000 0.0000 0.0000
# 2 42.4254 41.3940 18.1758 0.0000 0.0000 0.0000
# 3 54.0359 18.1758 104.5506 0.0000 0.0000 0.0000
# 4 0.0000 0.0000 0.0000 24.6498 0.0000 0.0000
# 5 0.0000 0.0000 0.0000 0.0000 21.1904 0.0000
# 6 0.0000 0.0000 0.0000 0.0000 0.0000 13.1928
#
#
#
# Elastic Compliance Matrix: (Units=1/GPa)
#
#
# Indices 1 2 3 4 5 6 
#
# 1 0.025408 -0.021951 -0.009316 0.000000 0.000000 0.000000
# 2 -0.021951 0.045118 0.003501 0.000000 0.000000 0.000000
# 3 -0.009316 0.003501 0.013771 0.000000 0.000000 0.000000
# 4 0.000000 0.000000 0.000000 0.040568 0.000000 0.000000
# 5 0.000000 0.000000 0.000000 0.000000 0.047191 0.000000
# 6 0.000000 0.000000 0.000000 0.000000 0.000000 0.075799
#
#
# Mechanical properties :
#
#
# Convention : Reuss Voigt Hill
#
# Bulk Modulus (GPa) = 34.76228 52.33789 43.55008
# Shear Modulus (GPa) = 15.97571 20.28191 18.12881
#
# Velocity S-wave (km/s) = 2.87286 3.23697 3.06034
# Velocity P-wave (km/s) = 5.38175 6.40386 5.91492
#
# Compressibility (1/GPa) = 0.02876682
#
# Stress axis : x y z
#
# Youngs Moduli (GPa) = 39.35742 22.16393 72.61702
#
# Poissons Ratio (x) = 0.48651 0.67649
# Poissons Ratio (y) = 0.86392 -0.25426
# Poissons Ratio (z) = 0.36665 -0.07760
#
# Static dielectric constant tensor:
#      x y z
#    x 1.743350 0.000000 0.000000 
#    y 0.000000 1.680770 0.000000 
#    z 0.000000 0.000000 1.706460 
# 
# From -- ./inp_files/36864.got.cif
#   From: 2010.05.17/outbox.cif.g08.bks.cpg/sg52_19_cif.got.tgz:36864.got - 2010.06.03 12:15:38.
