data_PCOD9410900
_publ_section_title
;
Structure prediction by ZEFSAII (Michael W. Deem and Ramdas Pophale) SiO2 
 PCOD9410900
Probable space group: P N N A
;
_chemical_formula_sum "Si O2"
_cell_formula_units_Z 40
_cell_length_a 17.299756
_cell_length_b 18.493126
_cell_length_c 5.396659
_cell_angle_alpha 90.000000
_cell_angle_beta 90.000000
_cell_angle_gamma 90.000000
_cell_volume 1726.534590
_symmetry_space_group_name_H-M "P N N A"
_symmetry_group_IT_number 52
_symmetry_cell_setting 'orthorhombic'
loop_
_space_group_symop_operation_xyz
x,y,z
1/2-x,-y,z
x,1/2-y,1/2-z
1/2-x,1/2+y,1/2-z
-x,-y,-z
1/2+x,y,-z
-x,1/2+y,1/2+z
1/2+x,1/2-y,1/2+z
loop_
_atom_site_type_symbol
_atom_site_label
_atom_site_fract_x
_atom_site_fract_y
_atom_site_fract_z
Si Si1 0.223678 0.326000 0.649373
Si Si2 0.049344 0.568782 0.279506
Si Si3 0.892607 0.293814 0.503277
Si Si4 0.388065 0.947493 0.898978
Si Si5 0.194994 0.556122 0.961077
O O1 0.193463 0.250000 0.750000
O O2 0.300469 0.310560 0.490386
O O3 0.159230 0.376646 0.528940
O O4 0.256214 0.375396 0.874110
O O5 0.062893 0.630133 0.487375
O O6 0.071569 0.489357 0.377352
O O7 0.959326 0.570631 0.214322
O O8 0.116521 0.583596 0.083626
O O9 0.914471 0.250000 0.750000
O O10 0.906401 0.250000 0.250000
O O11 0.332804 0.005843 0.767356
O O12 0.250000 0.500000 0.112929
#
# Coordination Sequence:
#
# PCOD9410900 Si02
#       5
#     8   8   8   8   8
#     4  10  21  42  63  90 127 168 221 271 334 394
#     4  11  22  39  65  92 130 171 219 272 341 392
#     4  11  24  42  68  97 133 177 227 275 330 400
#     4  10  23  40  61  94 130 168 218 279 332 403
#     4  10  21  38  67  95 126 172 222 276 326 396
#
# _framework density 23.167794000000001
#
# number of rings (size 3 to 8) (size 9 to 14) (size 15 to 20)
#    0.000    1.600    2.000    3.000    2.800    0.800 
#    0.000    1.000    0.000    0.000    0.000    0.000 
#    0.000    0.000    0.000    0.000    0.000    0.000 
#
# Total GULP energy -223508.970766 kJ/mol
# GULP energy per Si atom -5587.724269 kJ/mol
# Density = 2.311506 g / cm^3
# Si number density = 23.167794 Si / 1000 Ang^3
#
#
#
# Elastic Constant Matrix: (Units=GPa)
#
#
# Indices 1 2 3 4 5 6 
#
# 1 78.1023 35.1997 11.9349 0.0000 0.0000 0.0000
# 2 35.1997 160.1708 30.7557 0.0000 0.0000 0.0000
# 3 11.9349 30.7557 60.0787 0.0000 0.0000 0.0000
# 4 0.0000 0.0000 0.0000 16.8405 0.0000 0.0000
# 5 0.0000 0.0000 0.0000 0.0000 14.4281 0.0000
# 6 0.0000 0.0000 0.0000 0.0000 0.0000 31.7464
#
#
#
# Elastic Compliance Matrix: (Units=1/GPa)
#
#
# Indices 1 2 3 4 5 6 
#
# 1 0.014312 -0.002883 -0.001367 0.000000 0.000000 0.000000
# 2 -0.002883 0.007505 -0.003269 0.000000 0.000000 0.000000
# 3 -0.001367 -0.003269 0.018590 0.000000 0.000000 0.000000
# 4 0.000000 0.000000 0.000000 0.059381 0.000000 0.000000
# 5 0.000000 0.000000 0.000000 0.000000 0.069309 0.000000
# 6 0.000000 0.000000 0.000000 0.000000 0.000000 0.031500
#
#
# Mechanical properties :
#
#
# Convention : Reuss Voigt Hill
#
# Bulk Modulus (GPa) = 39.41963 50.45915 44.93939
# Shear Modulus (GPa) = 22.31246 27.30044 24.80645
#
# Velocity S-wave (km/s) = 3.10672 3.43648 3.27575
# Velocity P-wave (km/s) = 5.46998 6.12968 5.80920
#
# Compressibility (1/GPa) = 0.02536807
#
# Stress axis : x y z
#
# Youngs Moduli (GPa) = 69.87216 133.25214 53.79232
#
# Poissons Ratio (x) = 0.38412 0.07356
# Poissons Ratio (y) = 0.20142 0.17585
# Poissons Ratio (z) = 0.09554 0.43562
#
# Static dielectric constant tensor:
#      x y z
#    x 1.938860 0.000000 0.000000 
#    y 0.000000 1.898690 0.000000 
#    z 0.000000 0.000000 1.977260 
# 
# From -- ./inp_files/3167.got.cif
#   From: 2010.05.17/outbox.cif.g08.bks.cpg/sg52_2_cif.got.tgz:3167.got - 2010.06.03 12:15:38.
