data_PCOD9410908
_publ_section_title
;
Structure prediction by ZEFSAII (Michael W. Deem and Ramdas Pophale) SiO2 
 PCOD9410908
Probable space group: P N N A
;
_chemical_formula_sum "Si O2"
_cell_formula_units_Z 60
_cell_length_a 28.198316
_cell_length_b 20.003048
_cell_length_c 5.151949
_cell_angle_alpha 90.000000
_cell_angle_beta 90.000000
_cell_angle_gamma 90.000000
_cell_volume 2905.968520
_symmetry_space_group_name_H-M "P N N A"
_symmetry_group_IT_number 52
_symmetry_cell_setting 'orthorhombic'
loop_
_space_group_symop_operation_xyz
x,y,z
1/2-x,-y,z
x,1/2-y,1/2-z
1/2-x,1/2+y,1/2-z
-x,-y,-z
1/2+x,y,-z
-x,1/2+y,1/2+z
1/2+x,1/2-y,1/2+z
loop_
_atom_site_type_symbol
_atom_site_label
_atom_site_fract_x
_atom_site_fract_y
_atom_site_fract_z
Si Si1 0.864311 0.633345 0.573444
Si Si2 0.717605 0.138146 0.580465
Si Si3 0.052979 0.048552 0.254294
Si Si4 0.203147 0.475387 0.693915
Si Si5 0.183135 0.250000 0.750000
Si Si6 0.307613 0.174611 0.147258
Si Si7 0.442199 0.460497 0.750466
Si Si8 0.150457 0.610464 0.850325
O O1 0.837229 0.640693 0.843436
O O2 0.917091 0.610824 0.643421
O O3 0.834814 0.571587 0.448988
O O4 0.850476 0.699827 0.414746
O O5 0.724661 0.070899 0.421629
O O6 0.719698 0.203881 0.408069
O O7 0.753728 0.147948 0.815881
O O8 0.996901 0.061389 0.278782
O O9 0.068035 0.018200 0.532989
O O10 0.061422 0.991405 0.036946
O O11 0.250000 0.500000 0.539884
O O12 0.174830 0.539146 0.793802
O O13 0.310121 0.250000 0.250000
O O14 0.337671 0.132338 0.358631
O O15 0.327185 0.160897 0.861146
O O16 0.404904 0.401934 0.799281
#
# Coordination Sequence:
#
# PCOD9410908 Si02
#       8
#     8   8   8   8   4   8   8   8
#     4  11  22  38  61  90 129 167 214 264 321 390
#     4  11  24  39  62  87 132 168 220 258 314 384
#     4  10  21  38  69  94 133 161 209 258 330 404
#     4  11  22  36  58  96 128 166 203 269 327 373
#     4  10  24  40  58  88 122 178 216 262 310 380
#     4  12  27  43  66  87 125 184 219 255 307 388
#     4  10  21  41  63 102 125 164 203 268 333 380
#     4  12  24  42  65  94 130 161 216 272 321 372
#
# _framework density 20.647161000000001
#
# number of rings (size 3 to 8) (size 9 to 14) (size 15 to 20)
#    0.000    1.067    2.667    4.000    7.467    0.533 
#    0.000    0.000    1.467    1.600    0.000    0.000 
#    0.000    0.000    0.000    0.000    0.000    0.000 
#
# Total GULP energy -335227.092255 kJ/mol
# GULP energy per Si atom -5587.118204 kJ/mol
# Density = 2.060017 g / cm^3
# Si number density = 20.647161 Si / 1000 Ang^3
#
#
#
# Elastic Constant Matrix: (Units=GPa)
#
#
# Indices 1 2 3 4 5 6 
#
# 1 107.6750 21.5687 8.2312 0.0000 0.0000 0.0000
# 2 21.5687 94.1788 5.3954 0.0000 0.0000 0.0000
# 3 8.2312 5.3954 62.0365 0.0000 0.0000 0.0000
# 4 0.0000 0.0000 0.0000 25.8470 0.0000 0.0000
# 5 0.0000 0.0000 0.0000 0.0000 24.5447 0.0000
# 6 0.0000 0.0000 0.0000 0.0000 0.0000 13.8360
#
#
#
# Elastic Compliance Matrix: (Units=1/GPa)
#
#
# Indices 1 2 3 4 5 6 
#
# 1 0.009809 -0.002183 -0.001112 0.000000 0.000000 0.000000
# 2 -0.002183 0.011157 -0.000681 0.000000 0.000000 0.000000
# 3 -0.001112 -0.000681 0.016326 0.000000 0.000000 0.000000
# 4 0.000000 0.000000 0.000000 0.038689 0.000000 0.000000
# 5 0.000000 0.000000 0.000000 0.000000 0.040742 0.000000
# 6 0.000000 0.000000 0.000000 0.000000 0.000000 0.072275
#
#
# Mechanical properties :
#
#
# Convention : Reuss Voigt Hill
#
# Bulk Modulus (GPa) = 34.08063 37.14231 35.61147
# Shear Modulus (GPa) = 24.18610 28.09188 26.13899
#
# Velocity S-wave (km/s) = 3.42629 3.69259 3.56193
# Velocity P-wave (km/s) = 5.67403 6.01734 5.84821
#
# Compressibility (1/GPa) = 0.02934218
#
# Stress axis : x y z
#
# Youngs Moduli (GPa) = 101.94261 89.62978 61.25103
#
# Poissons Ratio (x) = 0.19565 0.06809
# Poissons Ratio (y) = 0.22253 0.04169
# Poissons Ratio (z) = 0.11333 0.06101
#
# Static dielectric constant tensor:
#      x y z
#    x 1.744400 0.000000 0.000000 
#    y 0.000000 1.864420 0.000000 
#    z 0.000000 0.000000 1.799460 
# 
# From -- ./inp_files/5946.got.cif
#   From: 2010.05.17/outbox.cif.g08.bks.cpg/sg52_3_cif.got.tgz:5946.got - 2010.06.03 12:15:38.
