data_PCOD9410967
_publ_section_title
;
Structure prediction by ZEFSAII (Michael W. Deem and Ramdas Pophale) SiO2 
 PCOD9410967
Probable space group: P N N A
;
_chemical_formula_sum "Si O2"
_cell_formula_units_Z 40
_cell_length_a 26.478857
_cell_length_b 5.611694
_cell_length_c 12.051759
_cell_angle_alpha 90.000000
_cell_angle_beta 90.000000
_cell_angle_gamma 90.000000
_cell_volume 1790.785850
_symmetry_space_group_name_H-M "P N N A"
_symmetry_group_IT_number 52
_symmetry_cell_setting 'orthorhombic'
loop_
_space_group_symop_operation_xyz
x,y,z
1/2-x,-y,z
x,1/2-y,1/2-z
1/2-x,1/2+y,1/2-z
-x,-y,-z
1/2+x,y,-z
-x,1/2+y,1/2+z
1/2+x,1/2-y,1/2+z
loop_
_atom_site_type_symbol
_atom_site_label
_atom_site_fract_x
_atom_site_fract_y
_atom_site_fract_z
Si Si1 0.750000 0.000000 0.184932
Si Si2 0.006633 0.507855 0.183862
Si Si3 0.916672 0.501250 0.023921
Si Si4 0.750000 0.000000 0.561109
Si Si5 0.843170 0.714934 0.630446
Si Si6 0.170472 0.655573 0.528201
O O1 0.755078 0.250000 0.250000
O O2 0.801700 0.977410 0.111901
O O3 0.018826 0.750000 0.250000
O O4 0.045056 0.514617 0.079920
O O5 0.008487 0.250000 0.250000
O O6 0.951136 0.548927 0.130221
O O7 0.876511 0.687522 0.972290
O O8 0.883252 0.269415 0.053808
O O9 0.710825 0.155699 0.630977
O O10 0.786474 0.148232 0.482881
O O11 0.867812 0.750000 0.750000
O O12 0.834224 0.445091 0.596504
#
# Coordination Sequence:
#
# PCOD9410967 Si02
#       6
#     4   8   8   4   8   8
#     4  12  27  47  74 104 150 204 241 297 356 426
#     4  11  27  51  78 108 147 190 242 307 381 436
#     4  10  27  45  74 108 145 187 246 306 365 450
#     4  10  21  39  62  98 144 188 231 301 352 424
#     4  11  24  39  71 102 143 190 241 299 370 430
#     4  11  24  46  67 104 148 188 251 298 356 436
#
# _framework density 22.336563999999999
#
# number of rings (size 3 to 8) (size 9 to 14) (size 15 to 20)
#    0.000    1.200    2.000    1.200   14.000    4.000 
#    0.000    0.000    0.000    0.000    0.000    0.000 
#    0.000    0.000    0.000    0.000    0.000    0.000 
#
# Total GULP energy -222959.023897 kJ/mol
# GULP energy per Si atom -5573.975597 kJ/mol
# Density = 2.228572 g / cm^3
# Si number density = 22.336564 Si / 1000 Ang^3
#
#
#
# Elastic Constant Matrix: (Units=GPa)
#
#
# Indices 1 2 3 4 5 6 
#
# 1 100.6351 11.5531 12.2855 0.0000 0.0000 0.0000
# 2 11.5531 65.7923 23.8294 0.0000 0.0000 0.0000
# 3 12.2855 23.8294 76.8404 0.0000 0.0000 0.0000
# 4 0.0000 0.0000 0.0000 -220.8812 0.0000 0.0000
# 5 0.0000 0.0000 0.0000 0.0000 -11.9565 0.0000
# 6 0.0000 0.0000 0.0000 0.0000 0.0000 22.6455
#
#
#
# Elastic Compliance Matrix: (Units=1/GPa)
#
#
# Indices 1 2 3 4 5 6 
#
# 1 0.010241 -0.001358 -0.001216 0.000000 0.000000 0.000000
# 2 -0.001358 0.017303 -0.005149 0.000000 0.000000 0.000000
# 3 -0.001216 -0.005149 0.014805 0.000000 0.000000 0.000000
# 4 0.000000 0.000000 0.000000 -0.004527 0.000000 0.000000
# 5 0.000000 0.000000 0.000000 0.000000 -0.083637 0.000000
# 6 0.000000 0.000000 0.000000 0.000000 0.000000 0.044159
#
#
# Mechanical properties :
#
#
# Convention : Reuss Voigt Hill
#
# Bulk Modulus (GPa) = 37.17015 37.62264 37.39640
# Shear Modulus (GPa) = 219.71067 -28.99844 95.35612
#
# Velocity S-wave (km/s) = 9.92861 -3.60703 6.54089
# Velocity P-wave (km/s) = 12.17018 0.68373 8.59203
#
# Compressibility (1/GPa) = 0.02690331
#
# Stress axis : x y z
#
# Youngs Moduli (GPa) = 97.64429 57.79480 67.54401
#
# Poissons Ratio (x) = 0.07847 0.08216
# Poissons Ratio (y) = 0.13258 0.34776
# Poissons Ratio (z) = 0.11877 0.29757
#
# Static dielectric constant tensor:
#      x y z
#    x 2.089210 0.000000 0.000000 
#    y 0.000000 2.012540 0.000000 
#    z 0.000000 0.000000 1.877330 
# 
# From -- ./inp_files/22705.got.cif
#   From: 2010.05.17/outbox.cif.g08.bks.cpg/sg52_12_cif.got.tgz:22705.got - 2010.06.03 12:15:38.
