data_PCOD9410258
_publ_section_title
;
Structure prediction by ZEFSAII (Michael W. Deem and Ramdas Pophale) SiO2 
 PCOD9410258
Probable space group: P N N A
;
_chemical_formula_sum "Si O2"
_cell_formula_units_Z 24
_cell_length_a 8.325471
_cell_length_b 9.604030
_cell_length_c 11.169080
_cell_angle_alpha 90.000000
_cell_angle_beta 90.000000
_cell_angle_gamma 90.000000
_cell_volume 893.058117
_symmetry_space_group_name_H-M "P N N A"
_symmetry_group_IT_number 52
_symmetry_cell_setting 'orthorhombic'
loop_
_space_group_symop_operation_xyz
x,y,z
1/2-x,-y,z
x,1/2-y,1/2-z
1/2-x,1/2+y,1/2-z
-x,-y,-z
1/2+x,y,-z
-x,1/2+y,1/2+z
1/2+x,1/2-y,1/2+z
loop_
_atom_site_type_symbol
_atom_site_label
_atom_site_fract_x
_atom_site_fract_y
_atom_site_fract_z
Si Si1 0.581265 0.514108 0.673969
Si Si2 0.413209 0.354926 0.848336
Si Si3 0.402975 0.725475 0.534618
O O1 0.750000 0.500000 0.741410
O O2 0.431692 0.489074 0.764929
O O3 0.539806 0.664264 0.620635
O O4 0.608472 0.404737 0.561359
O O5 0.486419 0.250000 0.750000
O O6 0.254158 0.277111 0.895869
O O7 0.531138 0.354096 0.959774
#
# Coordination Sequence:
#
# PCOD9410258 Si02
#       3
#     8   8   8
#     4  10  20  39  74 103 135 189 237 283 365 425
#     4  10  22  39  68 103 137 180 235 289 354 421
#     4  10  20  41  68 100 140 177 234 299 348 421
#
# _framework density 26.873951999999999
#
# number of rings (size 3 to 8) (size 9 to 14) (size 15 to 20)
#    0.000    2.000    3.333    0.000    0.000    0.000 
#    6.000    1.667    0.000    6.000    0.000    0.000 
#    0.000    0.000    0.000    0.000    0.000    0.000 
#
# Total GULP energy -133753.707517 kJ/mol
# GULP energy per Si atom -5573.071147 kJ/mol
# Density = 2.681279 g / cm^3
# Si number density = 26.873952 Si / 1000 Ang^3
#
#
#
# Elastic Constant Matrix: (Units=GPa)
#
#
# Indices 1 2 3 4 5 6 
#
# 1 155.9945 14.7822 58.3045 0.0000 0.0000 0.0000
# 2 14.7822 60.3552 47.1433 0.0000 0.0000 0.0000
# 3 58.3045 47.1433 113.0873 0.0000 0.0000 0.0000
# 4 0.0000 0.0000 0.0000 27.4223 0.0000 0.0000
# 5 0.0000 0.0000 0.0000 0.0000 73.1600 0.0000
# 6 0.0000 0.0000 0.0000 0.0000 0.0000 25.5763
#
#
#
# Elastic Compliance Matrix: (Units=1/GPa)
#
#
# Indices 1 2 3 4 5 6 
#
# 1 0.008084 0.001891 -0.004956 0.000000 0.000000 0.000000
# 2 0.001891 0.025011 -0.011402 0.000000 0.000000 0.000000
# 3 -0.004956 -0.011402 0.016151 0.000000 0.000000 0.000000
# 4 0.000000 0.000000 0.000000 0.036467 0.000000 0.000000
# 5 0.000000 0.000000 0.000000 0.000000 0.013669 0.000000
# 6 0.000000 0.000000 0.000000 0.000000 0.000000 0.039099
#
#
# Mechanical properties :
#
#
# Convention : Reuss Voigt Hill
#
# Bulk Modulus (GPa) = 49.22960 63.32188 56.27574
# Shear Modulus (GPa) = 28.70532 39.17887 33.94209
#
# Velocity S-wave (km/s) = 3.27180 3.82236 3.55774
# Velocity P-wave (km/s) = 5.71239 6.56462 6.15327
#
# Compressibility (1/GPa) = 0.02031298
#
# Stress axis : x y z
#
# Youngs Moduli (GPa) = 123.70617 39.98216 61.91546
#
# Poissons Ratio (x) = -0.07562 0.30686
# Poissons Ratio (y) = -0.23398 0.70594
# Poissons Ratio (z) = 0.61311 0.45586
#
# Static dielectric constant tensor:
#      x y z
#    x 2.122950 0.000000 0.000000 
#    y 0.000000 2.411530 0.000000 
#    z 0.000000 0.000000 2.114050 
# 
# From -- ./inp_files/6980.got.cif
#   From: 2010.05.17/outbox.cif.g08.bks.cpg/sg52_4_cif.got.tgz:6980.got - 2010.06.03 12:15:38.
