data_PCOD9410534
_publ_section_title
;
Structure prediction by ZEFSAII (Michael W. Deem and Ramdas Pophale) SiO2 
 PCOD9410534
Probable space group: P N N A
;
_chemical_formula_sum "Si O2"
_cell_formula_units_Z 24
_cell_length_a 9.053770
_cell_length_b 5.089961
_cell_length_c 25.147105
_cell_angle_alpha 90.000000
_cell_angle_beta 90.000000
_cell_angle_gamma 90.000000
_cell_volume 1158.862494
_symmetry_space_group_name_H-M "P N N A"
_symmetry_group_IT_number 52
_symmetry_cell_setting 'orthorhombic'
loop_
_space_group_symop_operation_xyz
x,y,z
1/2-x,-y,z
x,1/2-y,1/2-z
1/2-x,1/2+y,1/2-z
-x,-y,-z
1/2+x,y,-z
-x,1/2+y,1/2+z
1/2+x,1/2-y,1/2+z
loop_
_atom_site_type_symbol
_atom_site_label
_atom_site_fract_x
_atom_site_fract_y
_atom_site_fract_z
Si Si1 0.144778 0.743681 0.029178
Si Si2 0.642048 0.749306 0.192255
Si Si3 0.579816 0.586344 0.417138
O O1 0.250000 0.500000 0.040813
O O2 0.250000 0.000000 0.027556
O O3 0.073728 0.731003 0.969816
O O4 0.019506 0.832845 0.070345
O O5 0.750000 0.500000 0.185733
O O6 0.564261 0.750000 0.250000
O O7 0.544884 0.780987 0.139202
O O8 0.750000 0.000000 0.195761
O O9 0.750000 0.500000 0.413400
#
# Coordination Sequence:
#
# PCOD9410534 Si02
#       3
#     8   8   8
#     4  10  21  34  49  75 110 145 180 220 274 335
#     4   9  17  29  47  74 103 130 169 224 278 323
#     4   9  19  33  53  76 106 143 181 224 275 333
#
# _framework density 20.709962999999998
#
# number of rings (size 3 to 8) (size 9 to 14) (size 15 to 20)
#    0.000    2.667    0.000    1.000    0.000   17.333 
#    0.000    0.000    0.000    0.000    0.000   21.000 
#    0.000    0.000    0.000    0.000    0.000    0.000 
#
# Total GULP energy -133889.946378 kJ/mol
# GULP energy per Si atom -5578.747766 kJ/mol
# Density = 2.066283 g / cm^3
# Si number density = 20.709963 Si / 1000 Ang^3
#
#
#
# Elastic Constant Matrix: (Units=GPa)
#
#
# Indices 1 2 3 4 5 6 
#
# 1 83.8119 36.0972 46.2179 0.0000 0.0000 0.0000
# 2 36.0972 147.9666 46.4388 0.0000 0.0000 0.0000
# 3 46.2179 46.4388 201.4089 0.0000 0.0000 0.0000
# 4 0.0000 0.0000 0.0000 24.9462 0.0000 0.0000
# 5 0.0000 0.0000 0.0000 0.0000 12.0245 0.0000
# 6 0.0000 0.0000 0.0000 0.0000 0.0000 34.9066
#
#
#
# Elastic Compliance Matrix: (Units=1/GPa)
#
#
# Indices 1 2 3 4 5 6 
#
# 1 0.014601 -0.002706 -0.002726 0.000000 0.000000 0.000000
# 2 -0.002706 0.007787 -0.001174 0.000000 0.000000 0.000000
# 3 -0.002726 -0.001174 0.005861 0.000000 0.000000 0.000000
# 4 0.000000 0.000000 0.000000 0.040086 0.000000 0.000000
# 5 0.000000 0.000000 0.000000 0.000000 0.083163 0.000000
# 6 0.000000 0.000000 0.000000 0.000000 0.000000 0.028648
#
#
# Mechanical properties :
#
#
# Convention : Reuss Voigt Hill
#
# Bulk Modulus (GPa) = 66.51218 76.74391 71.62804
# Shear Modulus (GPa) = 25.20511 34.67103 29.93807
#
# Velocity S-wave (km/s) = 3.49241 4.09604 3.80621
# Velocity P-wave (km/s) = 6.96048 7.71408 7.34695
#
# Compressibility (1/GPa) = 0.01503484
#
# Stress axis : x y z
#
# Youngs Moduli (GPa) = 68.49072 128.41797 170.60567
#
# Poissons Ratio (x) = 0.34752 0.46515
# Poissons Ratio (y) = 0.18535 0.20037
# Poissons Ratio (z) = 0.18674 0.15082
#
# Static dielectric constant tensor:
#      x y z
#    x 1.742620 0.000000 0.000000 
#    y 0.000000 1.745250 0.000000 
#    z 0.000000 0.000000 1.870450 
# 
# From -- ./inp_files/39017.got.cif
#   From: 2010.05.17/outbox.cif.g08.bks.cpg/sg52_20_cif.got.tgz:39017.got - 2010.06.03 12:15:38.
