data_PCOD9410509
_publ_section_title
;
Structure prediction by ZEFSAII (Michael W. Deem and Ramdas Pophale) SiO2 
 PCOD9410509
Probable space group: P N N A
;
_chemical_formula_sum "Si O2"
_cell_formula_units_Z 36
_cell_length_a 16.357864
_cell_length_b 16.701930
_cell_length_c 5.475027
_cell_angle_alpha 90.000000
_cell_angle_beta 90.000000
_cell_angle_gamma 90.000000
_cell_volume 1495.820626
_symmetry_space_group_name_H-M "P N N A"
_symmetry_group_IT_number 52
_symmetry_cell_setting 'orthorhombic'
loop_
_space_group_symop_operation_xyz
x,y,z
1/2-x,-y,z
x,1/2-y,1/2-z
1/2-x,1/2+y,1/2-z
-x,-y,-z
1/2+x,y,-z
-x,1/2+y,1/2+z
1/2+x,1/2-y,1/2+z
loop_
_atom_site_type_symbol
_atom_site_label
_atom_site_fract_x
_atom_site_fract_y
_atom_site_fract_z
Si Si1 0.202939 0.156128 0.706000
Si Si2 0.287253 0.105464 0.190687
Si Si3 0.410027 0.250000 0.250000
Si Si4 0.475139 0.863630 0.523301
Si Si5 0.433188 0.994336 0.209543
O O1 0.221207 0.250000 0.750000
O O2 0.244544 0.123569 0.453996
O O3 0.105263 0.146489 0.686413
O O4 0.234712 0.112167 0.945896
O O5 0.353398 0.177992 0.162568
O O6 0.159158 0.975413 0.181823
O O7 0.469678 0.214509 0.458504
O O8 0.437660 0.901103 0.280167
O O9 0.533685 0.936879 0.604270
O O10 0.500000 0.000000 0.000000
#
# Coordination Sequence:
#
# PCOD9410509 Si02
#       5
#     8   8   4   8   8
#     4  12  24  47  69 110 140 186 240 307 368 435
#     4  11  26  44  73 101 149 185 238 297 373 430
#     4  10  20  46  70 104 132 196 230 310 350 426
#     4  10  24  44  71 101 140 182 248 292 359 430
#     4  10  25  47  69 103 139 197 243 292 358 450
#
# _framework density 24.067055
#
# number of rings (size 3 to 8) (size 9 to 14) (size 15 to 20)
#    0.000    1.333    3.333    0.000   12.444    0.889 
#    0.000    0.000    0.000    0.000    0.000    0.000 
#    0.000    0.000    0.000    0.000    0.000    0.000 
#
# Total GULP energy -201003.561813 kJ/mol
# GULP energy per Si atom -5583.432273 kJ/mol
# Density = 2.401228 g / cm^3
# Si number density = 24.067055 Si / 1000 Ang^3
#
#
#
# Elastic Constant Matrix: (Units=GPa)
#
#
# Indices 1 2 3 4 5 6 
#
# 1 136.2295 27.3186 58.5626 0.0000 0.0000 0.0000
# 2 27.3186 103.0309 44.2465 0.0000 0.0000 0.0000
# 3 58.5626 44.2465 132.9934 0.0000 0.0000 0.0000
# 4 0.0000 0.0000 0.0000 30.8561 0.0000 0.0000
# 5 0.0000 0.0000 0.0000 0.0000 17.0441 0.0000
# 6 0.0000 0.0000 0.0000 0.0000 0.0000 49.6477
#
#
#
# Elastic Compliance Matrix: (Units=1/GPa)
#
#
# Indices 1 2 3 4 5 6 
#
# 1 0.009112 -0.000808 -0.003743 0.000000 0.000000 0.000000
# 2 -0.000808 0.011395 -0.003435 0.000000 0.000000 0.000000
# 3 -0.003743 -0.003435 0.010310 0.000000 0.000000 0.000000
# 4 0.000000 0.000000 0.000000 0.032408 0.000000 0.000000
# 5 0.000000 0.000000 0.000000 0.000000 0.058671 0.000000
# 6 0.000000 0.000000 0.000000 0.000000 0.000000 0.020142
#
#
# Mechanical properties :
#
#
# Convention : Reuss Voigt Hill
#
# Bulk Modulus (GPa) = 67.36886 70.27880 68.82383
# Shear Modulus (GPa) = 30.68207 35.65133 33.16670
#
# Velocity S-wave (km/s) = 3.57439 3.85298 3.71630
# Velocity P-wave (km/s) = 6.71475 7.00419 6.86100
#
# Compressibility (1/GPa) = 0.01484365
#
# Stress axis : x y z
#
# Youngs Moduli (GPa) = 109.74678 87.75438 96.98901
#
# Poissons Ratio (x) = 0.07094 0.36307
# Poissons Ratio (y) = 0.08872 0.33318
# Poissons Ratio (z) = 0.41083 0.30146
#
# Static dielectric constant tensor:
#      x y z
#    x 2.081870 0.000000 0.000000 
#    y 0.000000 1.951680 0.000000 
#    z 0.000000 0.000000 1.895180 
# 
# From -- ./inp_files/2123.got.cif
#   From: 2010.05.17/outbox.cif.g08.bks.cpg/sg52_2_cif.got.tgz:2123.got - 2010.06.03 12:15:38.
