data_PCOD9410374
_publ_section_title
;
Structure prediction by ZEFSAII (Michael W. Deem and Ramdas Pophale) SiO2 
 PCOD9410374
Probable space group: P N N A
;
_chemical_formula_sum "Si O2"
_cell_formula_units_Z 52
_cell_length_a 9.403863
_cell_length_b 14.636766
_cell_length_c 19.555118
_cell_angle_alpha 90.000000
_cell_angle_beta 90.000000
_cell_angle_gamma 90.000000
_cell_volume 2691.608333
_symmetry_space_group_name_H-M "P N N A"
_symmetry_group_IT_number 52
_symmetry_cell_setting 'orthorhombic'
loop_
_space_group_symop_operation_xyz
x,y,z
1/2-x,-y,z
x,1/2-y,1/2-z
1/2-x,1/2+y,1/2-z
-x,-y,-z
1/2+x,y,-z
-x,1/2+y,1/2+z
1/2+x,1/2-y,1/2+z
loop_
_atom_site_type_symbol
_atom_site_label
_atom_site_fract_x
_atom_site_fract_y
_atom_site_fract_z
Si Si1 0.756838 0.314734 0.685742
Si Si2 0.133309 0.274994 0.924583
Si Si3 0.250000 0.000000 0.353176
Si Si4 0.232371 0.889714 0.698422
Si Si5 0.204193 0.685821 0.064679
Si Si6 0.464918 0.550801 0.260625
Si Si7 0.921459 0.880741 0.173202
O O1 0.731546 0.250000 0.750000
O O2 0.733458 0.260711 0.616462
O O3 0.655318 0.399868 0.696162
O O4 0.921219 0.342541 0.686151
O O5 0.205942 0.336236 0.865642
O O6 0.131240 0.170480 0.895136
O O7 0.967967 0.303685 0.936090
O O8 0.224511 0.294610 0.992023
O O9 0.243859 0.911393 0.401298
O O10 0.384712 0.002678 0.301057
O O11 0.320248 0.857051 0.764024
O O12 0.068643 0.880291 0.720406
O O13 0.250000 0.000000 0.687930
O O14 0.556104 0.489122 0.313448
#
# Coordination Sequence:
#
# PCOD9410374 Si02
#       7
#     8   8   4   8   8   8   8
#     4  11  19  37  62  92 122 162 217 264 320 378
#     4  11  25  43  60  87 133 172 212 256 322 388
#     4  12  22  40  62  94 130 162 212 262 322 392
#     4  10  22  37  61  94 119 158 208 264 320 375
#     4  11  26  39  61  88 127 175 208 262 322 390
#     4  11  21  37  69  97 122 159 218 272 317 377
#     4  10  20  41  63  88 125 170 209 263 325 374
#
# _framework density 19.319303999999999
#
# number of rings (size 3 to 8) (size 9 to 14) (size 15 to 20)
#    0.000    1.231    3.077    4.154    3.231    3.077 
#    0.000    0.769    0.000    3.692    0.000    0.000 
#    0.000    0.000    0.000    0.000    0.000    0.000 
#
# Total GULP energy -290093.668512 kJ/mol
# GULP energy per Si atom -5578.724394 kJ/mol
# Density = 1.927533 g / cm^3
# Si number density = 19.319304 Si / 1000 Ang^3
#
#
#
# Elastic Constant Matrix: (Units=GPa)
#
#
# Indices 1 2 3 4 5 6 
#
# 1 83.6439 31.8157 55.3430 0.0000 0.0000 0.0000
# 2 31.8157 64.6550 53.7883 0.0000 0.0000 0.0000
# 3 55.3430 53.7883 132.9785 0.0000 0.0000 0.0000
# 4 0.0000 0.0000 0.0000 22.0487 0.0000 0.0000
# 5 0.0000 0.0000 0.0000 0.0000 30.3159 0.0000
# 6 0.0000 0.0000 0.0000 0.0000 0.0000 1462.7621
#
#
#
# Elastic Compliance Matrix: (Units=1/GPa)
#
#
# Indices 1 2 3 4 5 6 
#
# 1 0.017083 -0.003755 -0.005591 0.000000 0.000000 0.000000
# 2 -0.003755 0.024136 -0.008200 0.000000 0.000000 0.000000
# 3 -0.005591 -0.008200 0.013164 0.000000 0.000000 0.000000
# 4 0.000000 0.000000 0.000000 0.045354 0.000000 0.000000
# 5 0.000000 0.000000 0.000000 0.000000 0.032986 0.000000
# 6 0.000000 0.000000 0.000000 0.000000 0.000000 0.000684
#
#
# Mechanical properties :
#
#
# Convention : Reuss Voigt Hill
#
# Bulk Modulus (GPa) = 51.83749 62.57461 57.20605
# Shear Modulus (GPa) = 28.58304 312.38068 170.48186
#
# Velocity S-wave (km/s) = 3.85061 12.72967 9.40404
# Velocity P-wave (km/s) = 6.83080 15.76450 12.14865
#
# Compressibility (1/GPa) = 0.01929106
#
# Stress axis : x y z
#
# Youngs Moduli (GPa) = 58.53820 41.43113 75.96739
#
# Poissons Ratio (x) = 0.15558 0.42470
# Poissons Ratio (y) = 0.21982 0.62294
# Poissons Ratio (z) = 0.32726 0.33974
#
# Static dielectric constant tensor:
#      x y z
#    x 1.698300 0.000000 0.000000 
#    y 0.000000 1.750090 0.000000 
#    z 0.000000 0.000000 1.662530 
# 
# From -- ./inp_files/35951.got.cif
#   From: 2010.05.17/outbox.cif.g08.bks.cpg/sg52_18_cif.got.tgz:35951.got - 2010.06.03 12:15:38.
