data_PCOD9410325
_publ_section_title
;
Structure prediction by ZEFSAII (Michael W. Deem and Ramdas Pophale) SiO2 
 PCOD9410325
Probable space group: P N N A
;
_chemical_formula_sum "Si O2"
_cell_formula_units_Z 32
_cell_length_a 8.366479
_cell_length_b 8.658541
_cell_length_c 20.358901
_cell_angle_alpha 90.000000
_cell_angle_beta 90.000000
_cell_angle_gamma 90.000000
_cell_volume 1474.829356
_symmetry_space_group_name_H-M "P N N A"
_symmetry_group_IT_number 52
_symmetry_cell_setting 'orthorhombic'
loop_
_space_group_symop_operation_xyz
x,y,z
1/2-x,-y,z
x,1/2-y,1/2-z
1/2-x,1/2+y,1/2-z
-x,-y,-z
1/2+x,y,-z
-x,1/2+y,1/2+z
1/2+x,1/2-y,1/2+z
loop_
_atom_site_type_symbol
_atom_site_label
_atom_site_fract_x
_atom_site_fract_y
_atom_site_fract_z
Si Si1 0.907819 0.250000 0.750000
Si Si2 0.750000 0.500000 0.660499
Si Si3 0.939088 0.525455 0.144315
Si Si4 0.444562 0.718936 0.405591
Si Si5 0.854992 0.347108 0.975411
O O1 0.797995 0.355547 0.704532
O O2 0.010600 0.363737 0.796332
O O3 0.584533 0.449356 0.623946
O O4 0.750000 0.500000 0.142633
O O5 0.020973 0.355908 0.146237
O O6 0.010964 0.599337 0.076933
O O7 0.571395 0.756549 0.463058
O O8 0.271020 0.743526 0.437527
O O9 0.750000 0.500000 0.991756
#
# Coordination Sequence:
#
# PCOD9410325 Si02
#       5
#     4   4   8   8   8
#     4  12  26  46  66  94 134 176 234 268 324 394
#     4  12  26  44  68  96 132 182 222 276 328 392
#     4  11  23  43  69  97 131 177 222 273 330 392
#     4  11  22  41  69 101 134 175 217 274 335 395
#     4  10  20  40  68 103 132 173 219 268 336 400
#
# _framework density 21.697424999999999
#
# number of rings (size 3 to 8) (size 9 to 14) (size 15 to 20)
#    0.000    1.000    2.500    6.750    1.750    3.000 
#    0.000    0.000    0.000    0.000    0.000    0.000 
#    0.000    0.000    0.000    0.000    0.000    0.000 
#
# Total GULP energy -178711.362832 kJ/mol
# GULP energy per Si atom -5584.730088 kJ/mol
# Density = 2.164804 g / cm^3
# Si number density = 21.697425 Si / 1000 Ang^3
#
#
#
# Elastic Constant Matrix: (Units=GPa)
#
#
# Indices 1 2 3 4 5 6 
#
# 1 126.9537 36.3039 56.7779 0.0000 0.0000 0.0000
# 2 36.3039 85.6931 41.6912 0.0000 0.0000 0.0000
# 3 56.7779 41.6912 97.0350 0.0000 0.0000 0.0000
# 4 0.0000 0.0000 0.0000 27.0981 0.0000 0.0000
# 5 0.0000 0.0000 0.0000 0.0000 34.7372 0.0000
# 6 0.0000 0.0000 0.0000 0.0000 0.0000 34.7789
#
#
#
# Elastic Compliance Matrix: (Units=1/GPa)
#
#
# Indices 1 2 3 4 5 6 
#
# 1 0.010912 -0.001917 -0.005561 0.000000 0.000000 0.000000
# 2 -0.001917 0.015090 -0.005362 0.000000 0.000000 0.000000
# 3 -0.005561 -0.005362 0.015863 0.000000 0.000000 0.000000
# 4 0.000000 0.000000 0.000000 0.036903 0.000000 0.000000
# 5 0.000000 0.000000 0.000000 0.000000 0.028788 0.000000
# 6 0.000000 0.000000 0.000000 0.000000 0.000000 0.028753
#
#
# Mechanical properties :
#
#
# Convention : Reuss Voigt Hill
#
# Bulk Modulus (GPa) = 61.78446 64.35863 63.07154
# Shear Modulus (GPa) = 29.87112 30.98342 30.42727
#
# Velocity S-wave (km/s) = 3.71443 3.78296 3.74885
# Velocity P-wave (km/s) = 6.85079 6.98622 6.91884
#
# Compressibility (1/GPa) = 0.01618530
#
# Stress axis : x y z
#
# Youngs Moduli (GPa) = 91.63896 66.26726 63.03849
#
# Poissons Ratio (x) = 0.12706 0.35058
# Poissons Ratio (y) = 0.17570 0.33799
# Poissons Ratio (z) = 0.50964 0.35531
#
# Static dielectric constant tensor:
#      x y z
#    x 1.783770 0.000000 0.000000 
#    y 0.000000 1.885420 0.000000 
#    z 0.000000 0.000000 1.876240 
# 
# From -- ./inp_files/35513.got.cif
#   From: 2010.05.17/outbox.cif.g08.bks.cpg/sg52_18_cif.got.tgz:35513.got - 2010.06.03 12:15:38.
