data_PCOD9410082
_publ_section_title
;
Structure prediction by ZEFSAII (Michael W. Deem and Ramdas Pophale) SiO2 
 PCOD9410082
Probable space group: P N N A
;
_chemical_formula_sum "Si O2"
_cell_formula_units_Z 64
_cell_length_a 22.884428
_cell_length_b 15.291447
_cell_length_c 9.215465
_cell_angle_alpha 90.000000
_cell_angle_beta 90.000000
_cell_angle_gamma 90.000000
_cell_volume 3224.823125
_symmetry_space_group_name_H-M "P N N A"
_symmetry_group_IT_number 52
_symmetry_cell_setting 'orthorhombic'
loop_
_space_group_symop_operation_xyz
x,y,z
1/2-x,-y,z
x,1/2-y,1/2-z
1/2-x,1/2+y,1/2-z
-x,-y,-z
1/2+x,y,-z
-x,1/2+y,1/2+z
1/2+x,1/2-y,1/2+z
loop_
_atom_site_type_symbol
_atom_site_label
_atom_site_fract_x
_atom_site_fract_y
_atom_site_fract_z
Si Si1 0.912154 0.766633 0.416953
Si Si2 0.277231 0.765640 0.586229
Si Si3 0.284063 0.921109 0.072092
Si Si4 0.914619 0.568982 0.505507
Si Si5 0.489168 0.323355 0.878085
Si Si6 0.005698 0.491748 0.733854
Si Si7 0.711031 0.845025 0.671870
Si Si8 0.077223 0.663183 0.151819
O O1 0.931289 0.750000 0.250000
O O2 0.844927 0.796953 0.410614
O O3 0.916468 0.673130 0.495445
O O4 0.952954 0.823258 0.520517
O O5 0.256731 0.750000 0.750000
O O6 0.279134 0.670156 0.512058
O O7 0.238485 0.828399 0.486351
O O8 0.253467 0.903050 0.227428
O O9 0.250000 0.000000 0.997636
O O10 0.350949 0.950953 0.067152
O O11 0.961511 0.529096 0.613131
O O12 0.934703 0.537852 0.345919
O O13 0.492376 0.250000 0.750000
O O14 0.481298 0.422797 0.827417
O O15 0.436735 0.303992 0.989430
O O16 0.970192 0.410957 0.804402
O O17 0.710276 0.750000 0.750000
O O18 0.643307 0.872947 0.665419
O O19 0.071755 0.750000 0.250000
#
# Coordination Sequence:
#
# PCOD9410082 Si02
#       8
#     8   8   8   8   8   8   8   8
#     4  10  20  38  63  89 121 166 210 258 321 374
#     4   9  20  38  62  89 122 158 203 266 321 372
#     4  10  20  38  63  89 116 161 210 254 311 372
#     4  10  21  37  62  90 124 159 205 265 308 372
#     4  12  24  38  61  95 124 164 216 260 315 383
#     4  11  23  39  60  94 128 161 208 260 318 369
#     4   9  20  39  62  87 114 159 210 250 305 382
#     4  11  24  42  63  87 128 170 204 256 325 386
#
# _framework density 19.846050000000002
#
# number of rings (size 3 to 8) (size 9 to 14) (size 15 to 20)
#    0.000    1.750    1.250    3.000    3.500    1.000 
#    2.250    0.625    0.000    0.000    0.000    0.000 
#    0.000    0.000    0.000    0.000    0.000    0.000 
#
# Total GULP energy -356848.698268 kJ/mol
# GULP energy per Si atom -5575.760910 kJ/mol
# Density = 1.980088 g / cm^3
# Si number density = 19.846050 Si / 1000 Ang^3
#
#
#
# Elastic Constant Matrix: (Units=GPa)
#
#
# Indices 1 2 3 4 5 6 
#
# 1 109.9891 28.4863 54.2487 0.0000 0.0000 0.0000
# 2 28.4863 58.9895 21.8169 0.0000 0.0000 0.0000
# 3 54.2487 21.8169 119.5170 0.0000 0.0000 0.0000
# 4 0.0000 0.0000 0.0000 26.3275 0.0000 0.0000
# 5 0.0000 0.0000 0.0000 0.0000 25.1576 0.0000
# 6 0.0000 0.0000 0.0000 0.0000 0.0000 -60.6711
#
#
#
# Elastic Compliance Matrix: (Units=1/GPa)
#
#
# Indices 1 2 3 4 5 6 
#
# 1 0.012644 -0.004272 -0.004959 0.000000 0.000000 0.000000
# 2 -0.004272 0.019623 -0.001643 0.000000 0.000000 0.000000
# 3 -0.004959 -0.001643 0.010918 0.000000 0.000000 0.000000
# 4 0.000000 0.000000 0.000000 0.037983 0.000000 0.000000
# 5 0.000000 0.000000 0.000000 0.000000 0.039749 0.000000
# 6 0.000000 0.000000 0.000000 0.000000 0.000000 -0.016482
#
#
# Mechanical properties :
#
#
# Convention : Reuss Voigt Hill
#
# Bulk Modulus (GPa) = 46.64937 55.28882 50.96909
# Shear Modulus (GPa) = 37.50122 10.42573 23.96347
#
# Velocity S-wave (km/s) = 4.35168 2.29449 3.47863
# Velocity P-wave (km/s) = 6.98614 5.91092 6.47090
#
# Compressibility (1/GPa) = 0.02143652
#
# Stress axis : x y z
#
# Youngs Moduli (GPa) = 79.08730 50.96150 91.59168
#
# Poissons Ratio (x) = 0.21769 0.45424
# Poissons Ratio (y) = 0.33784 0.15049
# Poissons Ratio (z) = 0.39223 0.08373
#
# Static dielectric constant tensor:
#      x y z
#    x 1.740820 0.000000 0.000000 
#    y 0.000000 1.699340 0.000000 
#    z 0.000000 0.000000 1.733070 
# 
# From -- ./inp_files/13601.got.cif
#   From: 2010.05.17/outbox.cif.g08.bks.cpg/sg52_7_cif.got.tgz:13601.got - 2010.06.03 12:15:38.
