data_PCOD9410942
_publ_section_title
;
Structure prediction by ZEFSAII (Michael W. Deem and Ramdas Pophale) SiO2 
 PCOD9410942
Probable space group: P N N A
;
_chemical_formula_sum "Si O2"
_cell_formula_units_Z 48
_cell_length_a 16.632880
_cell_length_b 11.626206
_cell_length_c 11.842913
_cell_angle_alpha 90.000000
_cell_angle_beta 90.000000
_cell_angle_gamma 90.000000
_cell_volume 2290.150413
_symmetry_space_group_name_H-M "P N N A"
_symmetry_group_IT_number 52
_symmetry_cell_setting 'orthorhombic'
loop_
_space_group_symop_operation_xyz
x,y,z
1/2-x,-y,z
x,1/2-y,1/2-z
1/2-x,1/2+y,1/2-z
-x,-y,-z
1/2+x,y,-z
-x,1/2+y,1/2+z
1/2+x,1/2-y,1/2+z
loop_
_atom_site_type_symbol
_atom_site_label
_atom_site_fract_x
_atom_site_fract_y
_atom_site_fract_z
Si Si1 0.608366 0.995942 0.480112
Si Si2 0.934658 0.968411 0.094504
Si Si3 0.750000 0.000000 0.323427
Si Si4 0.831840 0.743449 0.499284
Si Si5 0.968680 0.980395 0.691166
Si Si6 0.622882 0.250000 0.750000
Si Si7 0.306022 0.166648 0.842385
O O1 0.682559 0.955437 0.406742
O O2 0.625131 0.133979 0.475355
O O3 0.599428 0.961317 0.611178
O O4 0.533303 0.953712 0.406612
O O5 0.870538 0.072421 0.115665
O O6 0.888298 0.856976 0.049503
O O7 0.984227 0.952669 0.211388
O O8 0.000000 0.000000 0.000000
O O9 0.737784 0.104027 0.236221
O O10 0.827353 0.738060 0.634871
O O11 0.745074 0.723447 0.442206
O O12 0.931882 0.863916 0.740515
O O13 0.346623 0.250000 0.750000
#
# Coordination Sequence:
#
# PCOD9410942 Si02
#       7
#     8   8   4   8   8   4   8
#     4  10  22  38  63  91 130 166 213 263 325 380
#     4  12  24  40  65  97 127 166 220 270 323 385
#     4  12  20  38  62  98 124 164 216 268 314 386
#     4  11  22  41  64  94 128 174 217 269 329 385
#     4  10  21  39  61  93 125 171 211 259 317 389
#     4  10  22  40  66  92 134 180 212 264 330 388
#     4  12  24  39  69  95 126 167 220 270 321 387
#
# _framework density 20.959320999999999
#
# number of rings (size 3 to 8) (size 9 to 14) (size 15 to 20)
#    0.000    1.000    6.667    0.000    1.167    0.000 
#    0.000    3.333    0.000    0.000    0.000    0.000 
#    0.000    0.000    0.000    0.000    0.000    0.000 
#
# Total GULP energy -267503.631542 kJ/mol
# GULP energy per Si atom -5572.992324 kJ/mol
# Density = 2.091162 g / cm^3
# Si number density = 20.959321 Si / 1000 Ang^3
#
#
#
# Elastic Constant Matrix: (Units=GPa)
#
#
# Indices 1 2 3 4 5 6 
#
# 1 75.4083 26.5544 53.1704 0.0000 0.0000 0.0000
# 2 26.5544 88.3130 50.7960 0.0000 0.0000 0.0000
# 3 53.1704 50.7960 171.2799 0.0000 0.0000 0.0000
# 4 0.0000 0.0000 0.0000 34.4537 0.0000 0.0000
# 5 0.0000 0.0000 0.0000 0.0000 46.6658 0.0000
# 6 0.0000 0.0000 0.0000 0.0000 0.0000 24.6136
#
#
#
# Elastic Compliance Matrix: (Units=1/GPa)
#
#
# Indices 1 2 3 4 5 6 
#
# 1 0.017448 -0.002569 -0.004654 0.000000 0.000000 0.000000
# 2 -0.002569 0.014030 -0.003363 0.000000 0.000000 0.000000
# 3 -0.004654 -0.003363 0.008281 0.000000 0.000000 0.000000
# 4 0.000000 0.000000 0.000000 0.029024 0.000000 0.000000
# 5 0.000000 0.000000 0.000000 0.000000 0.021429 0.000000
# 6 0.000000 0.000000 0.000000 0.000000 0.000000 0.040628
#
#
# Mechanical properties :
#
#
# Convention : Reuss Voigt Hill
#
# Bulk Modulus (GPa) = 53.80695 66.22698 60.01697
# Shear Modulus (GPa) = 31.60378 34.77866 33.19122
#
# Velocity S-wave (km/s) = 3.88733 4.07792 3.98377
# Velocity P-wave (km/s) = 6.77320 7.33751 7.06100
#
# Compressibility (1/GPa) = 0.01858496
#
# Stress axis : x y z
#
# Youngs Moduli (GPa) = 57.31447 71.27357 120.76241
#
# Poissons Ratio (x) = 0.18311 0.56207
# Poissons Ratio (y) = 0.14725 0.40618
# Poissons Ratio (z) = 0.26676 0.23972
#
# Static dielectric constant tensor:
#      x y z
#    x 1.918120 0.000000 0.000000 
#    y 0.000000 1.900800 0.000000 
#    z 0.000000 0.000000 1.781230 
# 
# From -- ./inp_files/20662.got.cif
#   From: 2010.05.17/outbox.cif.g08.bks.cpg/sg52_11_cif.got.tgz:20662.got - 2010.06.03 12:15:38.
