data_PCOD9410474
_publ_section_title
;
Structure prediction by ZEFSAII (Michael W. Deem and Ramdas Pophale) SiO2 
 PCOD9410474
Probable space group: P N N A
;
_chemical_formula_sum "Si O2"
_cell_formula_units_Z 48
_cell_length_a 8.335314
_cell_length_b 17.200182
_cell_length_c 16.332790
_cell_angle_alpha 90.000000
_cell_angle_beta 90.000000
_cell_angle_gamma 90.000000
_cell_volume 2341.614427
_symmetry_space_group_name_H-M "P N N A"
_symmetry_group_IT_number 52
_symmetry_cell_setting 'orthorhombic'
loop_
_space_group_symop_operation_xyz
x,y,z
1/2-x,-y,z
x,1/2-y,1/2-z
1/2-x,1/2+y,1/2-z
-x,-y,-z
1/2+x,y,-z
-x,1/2+y,1/2+z
1/2+x,1/2-y,1/2+z
loop_
_atom_site_type_symbol
_atom_site_label
_atom_site_fract_x
_atom_site_fract_y
_atom_site_fract_z
Si Si1 0.191191 0.785266 0.956668
Si Si2 0.068473 0.473303 0.243403
Si Si3 0.578808 0.683000 0.190607
Si Si4 0.441457 0.635245 0.771312
Si Si5 0.921004 0.041137 0.079098
Si Si6 0.461412 0.273972 0.381355
O O1 0.109263 0.719910 0.898758
O O2 0.114205 0.868768 0.938016
O O3 0.375739 0.785701 0.931831
O O4 0.178271 0.773605 0.053435
O O5 0.250000 0.500000 0.232304
O O6 0.026746 0.393854 0.197058
O O7 0.959256 0.544834 0.212763
O O8 0.028476 0.463825 0.339702
O O9 0.511613 0.750000 0.250000
O O10 0.754675 0.660431 0.228643
O O11 0.529044 0.658593 0.686537
O O12 0.524534 0.691621 0.836501
O O13 0.750000 0.000000 0.095853
O O14 0.000000 0.000000 0.000000
#
# Coordination Sequence:
#
# PCOD9410474 Si02
#       6
#     8   8   8   8   8   8
#     4  11  21  37  62  91 122 160 208 255 310 370
#     4  12  25  39  60  94 127 162 208 266 318 374
#     4  11  20  43  66  87 120 171 215 249 314 384
#     4  10  20  43  66  87 121 169 218 249 310 388
#     4  12  23  37  60  90 130 166 206 258 315 380
#     4  10  21  38  63  91 122 163 207 256 311 368
#
# _framework density 20.498678999999999
#
# number of rings (size 3 to 8) (size 9 to 14) (size 15 to 20)
#    0.000    1.000    5.000    5.000    0.000    2.667 
#    3.000    0.833    0.000    0.000    0.000    0.000 
#    0.000    0.000    0.000    0.000    0.000    0.000 
#
# Total GULP energy -268537.560131 kJ/mol
# GULP energy per Si atom -5594.532503 kJ/mol
# Density = 2.045202 g / cm^3
# Si number density = 20.498679 Si / 1000 Ang^3
#
#
#
# Elastic Constant Matrix: (Units=GPa)
#
#
# Indices 1 2 3 4 5 6 
#
# 1 39.7042 32.4047 19.4835 0.0000 0.0000 0.0000
# 2 32.4047 139.7233 24.7398 0.0000 0.0000 0.0000
# 3 19.4835 24.7398 67.7173 0.0000 0.0000 0.0000
# 4 0.0000 0.0000 0.0000 20.3693 0.0000 0.0000
# 5 0.0000 0.0000 0.0000 0.0000 27.2272 0.0000
# 6 0.0000 0.0000 0.0000 0.0000 0.0000 21.6932
#
#
#
# Elastic Compliance Matrix: (Units=1/GPa)
#
#
# Indices 1 2 3 4 5 6 
#
# 1 0.034240 -0.006625 -0.007431 0.000000 0.000000 0.000000
# 2 -0.006625 0.008934 -0.001358 0.000000 0.000000 0.000000
# 3 -0.007431 -0.001358 0.017401 0.000000 0.000000 0.000000
# 4 0.000000 0.000000 0.000000 0.049094 0.000000 0.000000
# 5 0.000000 0.000000 0.000000 0.000000 0.036728 0.000000
# 6 0.000000 0.000000 0.000000 0.000000 0.000000 0.046097
#
#
# Mechanical properties :
#
#
# Convention : Reuss Voigt Hill
#
# Bulk Modulus (GPa) = 33.61647 44.48900 39.05274
# Shear Modulus (GPa) = 21.43736 25.22572 23.33154
#
# Velocity S-wave (km/s) = 3.23738 3.51180 3.37738
# Velocity P-wave (km/s) = 5.51445 6.18014 5.85676
#
# Compressibility (1/GPa) = 0.02974732
#
# Stress axis : x y z
#
# Youngs Moduli (GPa) = 29.20571 111.93294 57.46684
#
# Poissons Ratio (x) = 0.74158 0.42704
# Poissons Ratio (y) = 0.19349 0.07802
# Poissons Ratio (z) = 0.21703 0.15198
#
# Static dielectric constant tensor:
#      x y z
#    x 1.767380 0.000000 0.000000 
#    y 0.000000 1.720140 0.000000 
#    z 0.000000 0.000000 1.750350 
# 
# From -- ./inp_files/24746.got.cif
#   From: 2010.05.17/outbox.cif.g08.bks.cpg/sg52_13_cif.got.tgz:24746.got - 2010.06.03 12:15:38.
