data_PCOD9410674
_publ_section_title
;
Structure prediction by ZEFSAII (Michael W. Deem and Ramdas Pophale) SiO2 
 PCOD9410674
Probable space group: P N N A
;
_chemical_formula_sum "Si O2"
_cell_formula_units_Z 32
_cell_length_a 8.005121
_cell_length_b 8.701796
_cell_length_c 23.704924
_cell_angle_alpha 90.000000
_cell_angle_beta 90.000000
_cell_angle_gamma 90.000000
_cell_volume 1651.259639
_symmetry_space_group_name_H-M "P N N A"
_symmetry_group_IT_number 52
_symmetry_cell_setting 'orthorhombic'
loop_
_space_group_symop_operation_xyz
x,y,z
1/2-x,-y,z
x,1/2-y,1/2-z
1/2-x,1/2+y,1/2-z
-x,-y,-z
1/2+x,y,-z
-x,1/2+y,1/2+z
1/2+x,1/2-y,1/2+z
loop_
_atom_site_type_symbol
_atom_site_label
_atom_site_fract_x
_atom_site_fract_y
_atom_site_fract_z
Si Si1 0.383833 0.700820 0.578692
Si Si2 0.584302 0.401022 0.608308
Si Si3 0.693631 0.675457 0.310820
Si Si4 0.220123 0.680294 0.026965
O O1 0.454672 0.526289 0.582120
O O2 0.315825 0.742863 0.640615
O O3 0.240751 0.735152 0.533042
O O4 0.541444 0.796175 0.556153
O O5 0.750000 0.500000 0.623054
O O6 0.489966 0.328272 0.661412
O O7 0.646630 0.269240 0.566247
O O8 0.750000 0.500000 0.304270
O O9 0.700810 0.750000 0.250000
O O10 0.250000 0.500000 0.020525
#
# Coordination Sequence:
#
# PCOD9410674 Si02
#       4
#     8   8   8   8
#     4  10  21  37  57  82 116 153 188 227 287 351
#     4   9  20  39  58  81 112 151 188 226 285 354
#     4  10  22  40  61  82 109 149 193 234 278 335
#     4  11  21  34  57  89 118 145 186 241 289 334
#
# _framework density 19.379145000000001
#
# number of rings (size 3 to 8) (size 9 to 14) (size 15 to 20)
#    0.000    2.000    0.000    3.000    0.000   10.000 
#    0.000   12.500    0.000    0.000    0.000    0.000 
#    0.000    0.000    0.000    0.000    0.000    0.000 
#
# Total GULP energy -178668.321014 kJ/mol
# GULP energy per Si atom -5583.385032 kJ/mol
# Density = 1.933504 g / cm^3
# Si number density = 19.379145 Si / 1000 Ang^3
#
#
#
# Elastic Constant Matrix: (Units=GPa)
#
#
# Indices 1 2 3 4 5 6 
#
# 1 122.1645 44.9164 75.6104 0.0000 0.0000 0.0000
# 2 44.9164 60.9441 59.1123 0.0000 0.0000 0.0000
# 3 75.6104 59.1123 188.7260 0.0000 0.0000 0.0000
# 4 0.0000 0.0000 0.0000 37.2184 0.0000 0.0000
# 5 0.0000 0.0000 0.0000 0.0000 28.6752 0.0000
# 6 0.0000 0.0000 0.0000 0.0000 0.0000 17.4840
#
#
#
# Elastic Compliance Matrix: (Units=1/GPa)
#
#
# Indices 1 2 3 4 5 6 
#
# 1 0.012308 -0.006160 -0.003002 0.000000 0.000000 0.000000
# 2 -0.006160 0.026651 -0.005880 0.000000 0.000000 0.000000
# 3 -0.003002 -0.005880 0.008343 0.000000 0.000000 0.000000
# 4 0.000000 0.000000 0.000000 0.026868 0.000000 0.000000
# 5 0.000000 0.000000 0.000000 0.000000 0.034873 0.000000
# 6 0.000000 0.000000 0.000000 0.000000 0.000000 0.057195
#
#
# Mechanical properties :
#
#
# Convention : Reuss Voigt Hill
#
# Bulk Modulus (GPa) = 58.07248 81.23475 69.65362
# Shear Modulus (GPa) = 24.74481 29.48855 27.11668
#
# Velocity S-wave (km/s) = 3.57722 3.90508 3.74474
# Velocity P-wave (km/s) = 6.86247 7.89573 7.39716
#
# Compressibility (1/GPa) = 0.01721986
#
# Stress axis : x y z
#
# Youngs Moduli (GPa) = 81.24557 37.52140 119.86102
#
# Poissons Ratio (x) = 0.23112 0.35980
# Poissons Ratio (y) = 0.50046 0.70477
# Poissons Ratio (z) = 0.24388 0.22062
#
# Static dielectric constant tensor:
#      x y z
#    x 1.747580 0.000000 0.000000 
#    y 0.000000 1.662110 0.000000 
#    z 0.000000 0.000000 1.663540 
# 
# From -- ./inp_files/35427.got.cif
#   From: 2010.05.17/outbox.cif.g08.bks.cpg/sg52_18_cif.got.tgz:35427.got - 2010.06.03 12:15:38.
