data_PCOD9410052
_publ_section_title
;
Structure prediction by ZEFSAII (Michael W. Deem and Ramdas Pophale) SiO2 
 PCOD9410052
Probable space group: P N N A
;
_chemical_formula_sum "Si O2"
_cell_formula_units_Z 36
_cell_length_a 8.145279
_cell_length_b 22.312967
_cell_length_c 6.964693
_cell_angle_alpha 90.000000
_cell_angle_beta 90.000000
_cell_angle_gamma 90.000000
_cell_volume 1265.800508
_symmetry_space_group_name_H-M "P N N A"
_symmetry_group_IT_number 52
_symmetry_cell_setting 'orthorhombic'
loop_
_space_group_symop_operation_xyz
x,y,z
1/2-x,-y,z
x,1/2-y,1/2-z
1/2-x,1/2+y,1/2-z
-x,-y,-z
1/2+x,y,-z
-x,1/2+y,1/2+z
1/2+x,1/2-y,1/2+z
loop_
_atom_site_type_symbol
_atom_site_label
_atom_site_fract_x
_atom_site_fract_y
_atom_site_fract_z
Si Si1 0.635315 0.137821 0.647093
Si Si2 0.365986 0.250000 0.250000
Si Si3 0.161939 0.091751 0.784116
Si Si4 0.159804 0.802947 0.869826
Si Si5 0.499741 0.480402 0.776546
O O1 0.766490 0.189961 0.683596
O O2 0.622647 0.123509 0.419544
O O3 0.470050 0.166838 0.728904
O O4 0.641861 0.069829 0.737646
O O5 0.432958 0.274073 0.450694
O O6 0.211479 0.145422 0.924114
O O7 0.328655 0.054084 0.756602
O O8 0.020271 0.043831 0.834700
O O9 0.243032 0.750000 0.750000
O O10 0.500000 0.500000 0.000000
#
# Coordination Sequence:
#
# PCOD9410052 Si02
#       5
#     8   4   8   8   8
#     4  10  20  38  61  92 128 168 223 264 333 399
#     4  12  24  40  60  92 130 178 216 274 326 390
#     4   9  17  36  65  93 130 168 213 277 327 392
#     4  11  22  40  60  92 129 168 219 269 327 404
#     4   8  16  32  64  99 125 166 215 270 330 395
#
# _framework density 28.440501000000001
#
# number of rings (size 3 to 8) (size 9 to 14) (size 15 to 20)
#    0.000    2.222    3.333    0.000    0.000    0.000 
#    6.000    1.111    0.000   18.667    0.000    0.000 
#    0.000    0.000    0.000    0.000    0.000    0.000 
#
# Total GULP energy -201373.241571 kJ/mol
# GULP energy per Si atom -5593.701155 kJ/mol
# Density = 2.837577 g / cm^3
# Si number density = 28.440501 Si / 1000 Ang^3
#
#
#
# Elastic Constant Matrix: (Units=GPa)
#
#
# Indices 1 2 3 4 5 6 
#
# 1 76.7293 54.9538 30.2470 0.0000 0.0000 0.0000
# 2 54.9538 170.1834 57.4655 0.0000 0.0000 0.0000
# 3 30.2470 57.4655 115.2969 0.0000 0.0000 0.0000
# 4 0.0000 0.0000 0.0000 71.3550 0.0000 0.0000
# 5 0.0000 0.0000 0.0000 0.0000 38.6749 0.0000
# 6 0.0000 0.0000 0.0000 0.0000 0.0000 45.0051
#
#
#
# Elastic Compliance Matrix: (Units=1/GPa)
#
#
# Indices 1 2 3 4 5 6 
#
# 1 0.017373 -0.004895 -0.002118 0.000000 0.000000 0.000000
# 2 -0.004895 0.008444 -0.002925 0.000000 0.000000 0.000000
# 3 -0.002118 -0.002925 0.010687 0.000000 0.000000 0.000000
# 4 0.000000 0.000000 0.000000 0.014014 0.000000 0.000000
# 5 0.000000 0.000000 0.000000 0.000000 0.025857 0.000000
# 6 0.000000 0.000000 0.000000 0.000000 0.000000 0.022220
#
#
# Mechanical properties :
#
#
# Convention : Reuss Voigt Hill
#
# Bulk Modulus (GPa) = 60.13527 71.94914 66.04220
# Shear Modulus (GPa) = 40.31835 45.64321 42.98078
#
# Velocity S-wave (km/s) = 3.76924 4.01042 3.89170
# Velocity P-wave (km/s) = 6.33506 6.84089 6.59283
#
# Compressibility (1/GPa) = 0.01662918
#
# Stress axis : x y z
#
# Youngs Moduli (GPa) = 57.55893 118.42528 93.57541
#
# Poissons Ratio (x) = 0.57967 0.19820
# Poissons Ratio (y) = 0.28174 0.27367
# Poissons Ratio (z) = 0.12192 0.34634
#
# Static dielectric constant tensor:
#      x y z
#    x 2.183310 0.000000 0.000000 
#    y 0.000000 2.261380 0.000000 
#    z 0.000000 0.000000 2.207270 
# 
# From -- ./inp_files/1254.got.cif
#   From: 2010.05.17/outbox.cif.g08.bks.cpg/sg52_1_cif.got.tgz:1254.got - 2010.06.03 12:15:38.
