data_PCOD9410315
_publ_section_title
;
Structure prediction by ZEFSAII (Michael W. Deem and Ramdas Pophale) SiO2 
 PCOD9410315
Probable space group: P N N A
;
_chemical_formula_sum "Si O2"
_cell_formula_units_Z 40
_cell_length_a 13.290476
_cell_length_b 8.925485
_cell_length_c 16.516783
_cell_angle_alpha 90.000000
_cell_angle_beta 90.000000
_cell_angle_gamma 90.000000
_cell_volume 1959.285945
_symmetry_space_group_name_H-M "P N N A"
_symmetry_group_IT_number 52
_symmetry_cell_setting 'orthorhombic'
loop_
_space_group_symop_operation_xyz
x,y,z
1/2-x,-y,z
x,1/2-y,1/2-z
1/2-x,1/2+y,1/2-z
-x,-y,-z
1/2+x,y,-z
-x,1/2+y,1/2+z
1/2+x,1/2-y,1/2+z
loop_
_atom_site_type_symbol
_atom_site_label
_atom_site_fract_x
_atom_site_fract_y
_atom_site_fract_z
Si Si1 0.952027 0.080575 0.601597
Si Si2 0.879840 0.765594 0.009536
Si Si3 0.366514 0.509131 0.649985
Si Si4 0.022947 0.255323 0.156541
Si Si5 0.750000 0.000000 0.509110
Si Si6 0.993517 0.750000 0.250000
O O1 0.023278 0.172466 0.541290
O O2 0.939389 0.180846 0.680191
O O3 0.002358 0.926219 0.632307
O O4 0.846686 0.042628 0.561754
O O5 0.872281 0.916419 0.060734
O O6 0.787381 0.654057 0.032024
O O7 0.897079 0.791520 0.913720
O O8 0.250000 0.500000 0.673119
O O9 0.427226 0.354000 0.651398
O O10 0.423716 0.623831 0.709465
O O11 0.059503 0.250000 0.250000
#
# Coordination Sequence:
#
# PCOD9410315 Si02
#       6
#     8   8   8   8   4   4
#     4  10  22  42  66  89 132 167 209 261 315 389
#     4  10  24  42  67  93 131 167 214 264 318 382
#     4  11  25  39  65  94 129 168 219 262 323 382
#     4  11  21  41  66  90 126 166 206 267 322 369
#     4  10  20  40  66  96 112 174 222 244 328 378
#     4  10  22  44  56  94 130 166 202 272 318 370
#
# _framework density 20.415600000000001
#
# number of rings (size 3 to 8) (size 9 to 14) (size 15 to 20)
#    0.000    1.600    2.000    3.000    7.000    0.000 
#   10.800    0.000    2.200    0.000    0.000    0.000 
#    0.000    0.000    0.000    0.000    0.000    0.000 
#
# Total GULP energy -223242.462684 kJ/mol
# GULP energy per Si atom -5581.061567 kJ/mol
# Density = 2.036913 g / cm^3
# Si number density = 20.415600 Si / 1000 Ang^3
#
#
#
# Elastic Constant Matrix: (Units=GPa)
#
#
# Indices 1 2 3 4 5 6 
#
# 1 53.5550 21.4635 -16.7701 0.0000 0.0000 0.0000
# 2 21.4635 66.6615 2.1430 0.0000 0.0000 0.0000
# 3 -16.7701 2.1430 96.9682 0.0000 0.0000 0.0000
# 4 0.0000 0.0000 0.0000 16.3376 0.0000 0.0000
# 5 0.0000 0.0000 0.0000 0.0000 3.0351 0.0000
# 6 0.0000 0.0000 0.0000 0.0000 0.0000 21.7751
#
#
#
# Elastic Compliance Matrix: (Units=1/GPa)
#
#
# Indices 1 2 3 4 5 6 
#
# 1 0.022989 -0.007535 0.004142 0.000000 0.000000 0.000000
# 2 -0.007535 0.017482 -0.001690 0.000000 0.000000 0.000000
# 3 0.004142 -0.001690 0.011066 0.000000 0.000000 0.000000
# 4 0.000000 0.000000 0.000000 0.061208 0.000000 0.000000
# 5 0.000000 0.000000 0.000000 0.000000 0.329479 0.000000
# 6 0.000000 0.000000 0.000000 0.000000 0.000000 0.045924
#
#
# Mechanical properties :
#
#
# Convention : Reuss Voigt Hill
#
# Bulk Modulus (GPa) = 24.17047 25.65085 24.91066
# Shear Modulus (GPa) = 9.76363 22.25278 16.00820
#
# Velocity S-wave (km/s) = 2.18925 3.30508 2.80325
# Velocity P-wave (km/s) = 4.27263 5.21118 4.76506
#
# Compressibility (1/GPa) = 0.04137281
#
# Stress axis : x y z
#
# Youngs Moduli (GPa) = 43.49816 57.20277 90.36356
#
# Poissons Ratio (x) = 0.43104 -0.37432
# Poissons Ratio (y) = 0.32777 0.15267
# Poissons Ratio (z) = -0.18019 0.09665
#
# Static dielectric constant tensor:
#      x y z
#    x 1.682610 0.000000 0.000000 
#    y 0.000000 1.773690 0.000000 
#    z 0.000000 0.000000 1.772370 
# 
# From -- ./inp_files/32033.got.cif
#   From: 2010.05.17/outbox.cif.g08.bks.cpg/sg52_17_cif.got.tgz:32033.got - 2010.06.03 12:15:38.
