data_PCOD9410265
_publ_section_title
;
Structure prediction by ZEFSAII (Michael W. Deem and Ramdas Pophale) SiO2 
 PCOD9410265
Probable space group: P N N A
;
_chemical_formula_sum "Si O2"
_cell_formula_units_Z 48
_cell_length_a 8.820005
_cell_length_b 9.692966
_cell_length_c 31.340720
_cell_angle_alpha 90.000000
_cell_angle_beta 90.000000
_cell_angle_gamma 90.000000
_cell_volume 2679.381103
_symmetry_space_group_name_H-M "P N N A"
_symmetry_group_IT_number 52
_symmetry_cell_setting 'orthorhombic'
loop_
_space_group_symop_operation_xyz
x,y,z
1/2-x,-y,z
x,1/2-y,1/2-z
1/2-x,1/2+y,1/2-z
-x,-y,-z
1/2+x,y,-z
-x,1/2+y,1/2+z
1/2+x,1/2-y,1/2+z
loop_
_atom_site_type_symbol
_atom_site_label
_atom_site_fract_x
_atom_site_fract_y
_atom_site_fract_z
Si Si1 0.402779 0.410726 0.735439
Si Si2 0.569818 0.494952 0.817789
Si Si3 0.932084 0.988210 0.452809
Si Si4 0.926494 0.787653 0.609498
Si Si5 0.938826 0.221753 0.613969
Si Si6 0.430758 0.482276 0.638080
O O1 0.250000 0.500000 0.737979
O O2 0.383046 0.250000 0.750000
O O3 0.510116 0.479194 0.770603
O O4 0.460708 0.435526 0.687215
O O5 0.750000 0.500000 0.816690
O O6 0.527086 0.362851 0.846301
O O7 0.518131 0.626893 0.845108
O O8 0.983629 0.850565 0.427009
O O9 0.750000 0.000000 0.453139
O O10 0.000000 0.000000 0.500000
O O11 0.006958 0.113595 0.426554
O O12 0.743522 0.783443 0.607930
O O13 0.000844 0.638392 0.609087
O O14 0.992309 0.374549 0.624933
O O15 0.250000 0.500000 0.633538
#
# Coordination Sequence:
#
# PCOD9410265 Si02
#       6
#     8   8   8   8   8   8
#     4  11  24  38  55  82 119 158 207 254 303 353
#     4   9  20  37  57  79 110 155 202 246 295 351
#     4  11  22  40  67  95 122 154 193 239 292 363
#     4  10  20  40  60  86 120 154 199 247 299 360
#     4  10  22  38  61  88 117 157 199 245 302 357
#     4  11  23  37  56  86 119 160 203 251 304 355
#
# _framework density 17.914584999999999
#
# number of rings (size 3 to 8) (size 9 to 14) (size 15 to 20)
#    0.000    1.667    1.667    4.000    4.667    4.000 
#    0.000    0.833    0.000    0.000    0.000    0.000 
#    0.000    0.000    0.000    0.000    0.000    0.000 
#
# Total GULP energy -267829.108871 kJ/mol
# GULP energy per Si atom -5579.773101 kJ/mol
# Density = 1.787381 g / cm^3
# Si number density = 17.914585 Si / 1000 Ang^3
#
#
#
# Elastic Constant Matrix: (Units=GPa)
#
#
# Indices 1 2 3 4 5 6 
#
# 1 82.0178 49.6719 50.7716 0.0000 0.0000 0.0000
# 2 49.6719 163.2358 62.0826 0.0000 0.0000 0.0000
# 3 50.7716 62.0826 115.7724 0.0000 0.0000 0.0000
# 4 0.0000 0.0000 0.0000 9.8592 0.0000 0.0000
# 5 0.0000 0.0000 0.0000 0.0000 28.1720 0.0000
# 6 0.0000 0.0000 0.0000 0.0000 0.0000 30.7642
#
#
#
# Elastic Compliance Matrix: (Units=1/GPa)
#
#
# Indices 1 2 3 4 5 6 
#
# 1 0.017897 -0.003091 -0.006191 0.000000 0.000000 0.000000
# 2 -0.003091 0.008230 -0.003057 0.000000 0.000000 0.000000
# 3 -0.006191 -0.003057 0.012992 0.000000 0.000000 0.000000
# 4 0.000000 0.000000 0.000000 0.101428 0.000000 0.000000
# 5 0.000000 0.000000 0.000000 0.000000 0.035496 0.000000
# 6 0.000000 0.000000 0.000000 0.000000 0.000000 0.032505
#
#
# Mechanical properties :
#
#
# Convention : Reuss Voigt Hill
#
# Bulk Modulus (GPa) = 69.25502 76.23091 72.74296
# Shear Modulus (GPa) = 21.00481 26.99242 23.99861
#
# Velocity S-wave (km/s) = 3.42789 3.88587 3.66404
# Velocity P-wave (km/s) = 7.37629 7.92327 7.65466
#
# Compressibility (1/GPa) = 0.01443939
#
# Stress axis : x y z
#
# Youngs Moduli (GPa) = 55.87495 121.51250 76.96953
#
# Poissons Ratio (x) = 0.37565 0.47651
# Poissons Ratio (y) = 0.17273 0.23532
# Poissons Ratio (z) = 0.34592 0.37151
#
# Static dielectric constant tensor:
#      x y z
#    x 1.615550 0.000000 0.000000 
#    y 0.000000 1.610930 0.000000 
#    z 0.000000 0.000000 1.642420 
# 
# From -- ./inp_files/44363.got.cif
#   From: 2010.05.17/outbox.cif.g08.bks.cpg/sg52_23_cif.got.tgz:44363.got - 2010.06.03 12:15:38.
