data_PCOD9410784
_publ_section_title
;
Structure prediction by ZEFSAII (Michael W. Deem and Ramdas Pophale) SiO2 
 PCOD9410784
Probable space group: P N N A
;
_chemical_formula_sum "Si O2"
_cell_formula_units_Z 64
_cell_length_a 14.916258
_cell_length_b 9.339211
_cell_length_c 23.248220
_cell_angle_alpha 90.000000
_cell_angle_beta 90.000000
_cell_angle_gamma 90.000000
_cell_volume 3238.618414
_symmetry_space_group_name_H-M "P N N A"
_symmetry_group_IT_number 52
_symmetry_cell_setting 'orthorhombic'
loop_
_space_group_symop_operation_xyz
x,y,z
1/2-x,-y,z
x,1/2-y,1/2-z
1/2-x,1/2+y,1/2-z
-x,-y,-z
1/2+x,y,-z
-x,1/2+y,1/2+z
1/2+x,1/2-y,1/2+z
loop_
_atom_site_type_symbol
_atom_site_label
_atom_site_fract_x
_atom_site_fract_y
_atom_site_fract_z
Si Si1 0.994230 0.294952 0.163409
Si Si2 0.095753 0.340451 0.048701
Si Si3 0.853354 0.020667 0.392026
Si Si4 0.168561 0.387352 0.782418
Si Si5 0.988677 0.991382 0.765286
Si Si6 0.190273 0.858627 0.199038
Si Si7 0.273911 0.331345 0.434368
Si Si8 0.578305 0.645715 0.987376
O O1 0.051138 0.279249 0.106039
O O2 0.993986 0.144410 0.194441
O O3 0.037386 0.416422 0.204524
O O4 0.894716 0.352999 0.148155
O O5 0.191787 0.267218 0.043511
O O6 0.025192 0.311236 0.996918
O O7 0.096224 0.513323 0.055646
O O8 0.896336 0.067473 0.452308
O O9 0.750000 0.000000 0.406561
O O10 0.867389 0.884667 0.348914
O O11 0.250000 0.500000 0.783684
O O12 0.205416 0.250000 0.750000
O O13 0.082333 0.431411 0.745508
O O14 0.912366 0.092796 0.790564
O O15 0.214617 0.750000 0.250000
O O16 0.207476 0.805564 0.133810
O O17 0.250000 0.000000 0.205516
O O18 0.250000 0.500000 0.441069
O O19 0.360161 0.277951 0.470005
#
# Coordination Sequence:
#
# PCOD9410784 Si02
#       8
#     8   8   8   8   8   8   8   8
#     4   9  19  33  62  86 119 165 206 261 320 379
#     4  10  21  40  66  94 119 164 219 266 319 382
#     4   9  18  34  61  87 123 151 210 264 307 376
#     4  10  22  37  64  92 127 166 207 259 323 382
#     4  10  21  38  58  87 129 163 209 256 323 381
#     4  11  26  40  61  94 130 168 216 266 324 396
#     4  11  24  41  64  94 134 170 209 274 336 389
#     4  10  22  41  68  93 119 168 221 265 320 382
#
# _framework density 19.761513000000001
#
# number of rings (size 3 to 8) (size 9 to 14) (size 15 to 20)
#    0.000    2.000    0.000    3.000   10.500    0.500 
#    4.500    0.000   11.000    0.000    0.000    0.000 
#    0.000    0.000    0.000    0.000    0.000    0.000 
#
# Total GULP energy -356353.475340 kJ/mol
# GULP energy per Si atom -5568.023052 kJ/mol
# Density = 1.971653 g / cm^3
# Si number density = 19.761513 Si / 1000 Ang^3
#
#
#
# Elastic Constant Matrix: (Units=GPa)
#
#
# Indices 1 2 3 4 5 6 
#
# 1 94.7268 17.6144 21.4672 0.0000 0.0000 0.0000
# 2 17.6144 54.4460 35.7028 0.0000 0.0000 0.0000
# 3 21.4672 35.7028 85.0402 0.0000 0.0000 0.0000
# 4 0.0000 0.0000 0.0000 23.8448 0.0000 0.0000
# 5 0.0000 0.0000 0.0000 0.0000 26.4107 0.0000
# 6 0.0000 0.0000 0.0000 0.0000 0.0000 30.7164
#
#
#
# Elastic Compliance Matrix: (Units=1/GPa)
#
#
# Indices 1 2 3 4 5 6 
#
# 1 0.011437 -0.002493 -0.001840 0.000000 0.000000 0.000000
# 2 -0.002493 0.025888 -0.010239 0.000000 0.000000 0.000000
# 3 -0.001840 -0.010239 0.016522 0.000000 0.000000 0.000000
# 4 0.000000 0.000000 0.000000 0.041938 0.000000 0.000000
# 5 0.000000 0.000000 0.000000 0.000000 0.037863 0.000000
# 6 0.000000 0.000000 0.000000 0.000000 0.000000 0.032556
#
#
# Mechanical properties :
#
#
# Convention : Reuss Voigt Hill
#
# Bulk Modulus (GPa) = 40.48294 42.64240 41.56267
# Shear Modulus (GPa) = 24.55980 26.82294 25.69137
#
# Velocity S-wave (km/s) = 3.52917 3.68820 3.60956
# Velocity P-wave (km/s) = 6.09401 6.30574 6.20078
#
# Compressibility (1/GPa) = 0.02470177
#
# Stress axis : x y z
#
# Youngs Moduli (GPa) = 87.43250 38.62825 60.52365
#
# Poissons Ratio (x) = 0.09632 0.11139
# Poissons Ratio (y) = 0.21800 0.61971
# Poissons Ratio (z) = 0.16091 0.39552
#
# Static dielectric constant tensor:
#      x y z
#    x 1.739240 0.000000 0.000000 
#    y 0.000000 1.699960 0.000000 
#    z 0.000000 0.000000 1.771850 
# 
# From -- ./inp_files/40671.got.cif
#   From: 2010.05.17/outbox.cif.g08.bks.cpg/sg52_21_cif.got.tgz:40671.got - 2010.06.03 12:15:38.
