data_PCOD9410715
_publ_section_title
;
Structure prediction by ZEFSAII (Michael W. Deem and Ramdas Pophale) SiO2 
 PCOD9410715
Probable space group: P N N A
;
_chemical_formula_sum "Si O2"
_cell_formula_units_Z 52
_cell_length_a 14.746177
_cell_length_b 9.090342
_cell_length_c 19.574170
_cell_angle_alpha 90.000000
_cell_angle_beta 90.000000
_cell_angle_gamma 90.000000
_cell_volume 2623.874271
_symmetry_space_group_name_H-M "P N N A"
_symmetry_group_IT_number 52
_symmetry_cell_setting 'orthorhombic'
loop_
_space_group_symop_operation_xyz
x,y,z
1/2-x,-y,z
x,1/2-y,1/2-z
1/2-x,1/2+y,1/2-z
-x,-y,-z
1/2+x,y,-z
-x,1/2+y,1/2+z
1/2+x,1/2-y,1/2+z
loop_
_atom_site_type_symbol
_atom_site_label
_atom_site_fract_x
_atom_site_fract_y
_atom_site_fract_z
Si Si1 0.365914 0.250000 0.750000
Si Si2 0.652190 0.954139 0.378430
Si Si3 0.017717 0.214671 0.610560
Si Si4 0.004995 0.216645 0.451605
Si Si5 0.355006 0.005681 0.380387
Si Si6 0.828119 0.589550 0.727602
Si Si7 0.486763 0.045088 0.846322
O O1 0.326454 0.150204 0.687588
O O2 0.421144 0.128999 0.793794
O O3 0.587869 0.872538 0.433958
O O4 0.750000 0.000000 0.406562
O O5 0.588448 0.094426 0.359550
O O6 0.026343 0.371485 0.646948
O O7 0.034526 0.226800 0.529539
O O8 0.914850 0.152206 0.611158
O O9 0.083877 0.124622 0.412644
O O10 0.984531 0.375015 0.419340
O O11 0.351828 0.986334 0.298973
O O12 0.250000 0.000000 0.404084
O O13 0.750000 0.500000 0.691351
O O14 0.796888 0.750000 0.750000
O O15 0.915458 0.587760 0.682145
#
# Coordination Sequence:
#
# PCOD9410715 Si02
#       7
#     4   8   8   8   8   8   8
#     4  10  22  40  62  82 118 150 192 248 306 344
#     4  10  22  41  63  87 115 154 193 249 302 347
#     4  11  24  36  61  89 114 155 207 237 280 362
#     4  10  21  41  59  85 120 157 195 242 293 342
#     4  10  21  37  60  87 117 154 194 235 293 351
#     4  11  22  36  57  86 121 155 189 239 291 351
#     4  11  21  39  59  84 120 158 190 244 296 343
#
# _framework density 19.818023
#
# number of rings (size 3 to 8) (size 9 to 14) (size 15 to 20)
#    0.000    1.538    2.308    4.154    4.308    5.538 
#    0.000    2.308    0.000    5.538    0.000    0.000 
#    0.000    0.000    0.000    0.000    0.000    0.000 
#
# Total GULP energy -289838.338048 kJ/mol
# GULP energy per Si atom -5573.814193 kJ/mol
# Density = 1.977292 g / cm^3
# Si number density = 19.818023 Si / 1000 Ang^3
#
#
#
# Elastic Constant Matrix: (Units=GPa)
#
#
# Indices 1 2 3 4 5 6 
#
# 1 102.4126 21.7263 -4.9629 0.0000 0.0000 0.0000
# 2 21.7263 120.4720 0.6469 0.0000 0.0000 0.0000
# 3 -4.9629 0.6469 51.4926 0.0000 0.0000 0.0000
# 4 0.0000 0.0000 0.0000 23.5773 0.0000 0.0000
# 5 0.0000 0.0000 0.0000 0.0000 15.1374 0.0000
# 6 0.0000 0.0000 0.0000 0.0000 0.0000 -73.7370
#
#
#
# Elastic Compliance Matrix: (Units=1/GPa)
#
#
# Indices 1 2 3 4 5 6 
#
# 1 0.010205 -0.001846 0.001007 0.000000 0.000000 0.000000
# 2 -0.001846 0.008635 -0.000286 0.000000 0.000000 0.000000
# 3 0.001007 -0.000286 0.019521 0.000000 0.000000 0.000000
# 4 0.000000 0.000000 0.000000 0.042414 0.000000 0.000000
# 5 0.000000 0.000000 0.000000 0.000000 0.066061 0.000000
# 6 0.000000 0.000000 0.000000 0.000000 0.000000 -0.013562
#
#
# Mechanical properties :
#
#
# Convention : Reuss Voigt Hill
#
# Bulk Modulus (GPa) = 27.69322 34.35532 31.02427
# Shear Modulus (GPa) = 33.88412 10.12666 22.00539
#
# Velocity S-wave (km/s) = 4.13941 2.26294 3.33584
# Velocity P-wave (km/s) = 6.07045 4.91944 5.52500
#
# Compressibility (1/GPa) = 0.03610992
#
# Stress axis : x y z
#
# Youngs Moduli (GPa) = 97.99326 115.80647 51.22720
#
# Poissons Ratio (x) = 0.21375 -0.05157
# Poissons Ratio (y) = 0.18087 0.01467
# Poissons Ratio (z) = -0.09865 0.03316
#
# Static dielectric constant tensor:
#      x y z
#    x 1.712610 0.000000 0.000000 
#    y 0.000000 1.750160 0.000000 
#    z 0.000000 0.000000 1.713810 
# 
# From -- ./inp_files/37265.got.cif
#   From: 2010.05.17/outbox.cif.g08.bks.cpg/sg52_19_cif.got.tgz:37265.got - 2010.06.03 12:15:38.
