data_PCOD9410014
_publ_section_title
;
Structure prediction by ZEFSAII (Michael W. Deem and Ramdas Pophale) SiO2 
 PCOD9410014
Probable space group: P N N A
;
_chemical_formula_sum "Si O2"
_cell_formula_units_Z 32
_cell_length_a 15.665312
_cell_length_b 13.287568
_cell_length_c 7.944363
_cell_angle_alpha 90.000000
_cell_angle_beta 90.000000
_cell_angle_gamma 90.000000
_cell_volume 1653.650129
_symmetry_space_group_name_H-M "P N N A"
_symmetry_group_IT_number 52
_symmetry_cell_setting 'orthorhombic'
loop_
_space_group_symop_operation_xyz
x,y,z
1/2-x,-y,z
x,1/2-y,1/2-z
1/2-x,1/2+y,1/2-z
-x,-y,-z
1/2+x,y,-z
-x,1/2+y,1/2+z
1/2+x,1/2-y,1/2+z
loop_
_atom_site_type_symbol
_atom_site_label
_atom_site_fract_x
_atom_site_fract_y
_atom_site_fract_z
Si Si1 0.784343 0.105170 0.664394
Si Si2 0.101985 0.750000 0.750000
Si Si3 0.473846 0.385555 0.038255
Si Si4 0.748728 0.310481 0.480897
Si Si5 0.603062 0.250000 0.250000
O O1 0.886165 0.112302 0.645659
O O2 0.747841 0.197367 0.556800
O O3 0.755654 0.119446 0.857051
O O4 0.750000 0.000000 0.597664
O O5 0.047746 0.823240 0.631422
O O6 0.166352 0.685133 0.632904
O O7 0.544569 0.323057 0.138913
O O8 0.500000 0.500000 0.000000
O O9 0.665491 0.317517 0.366218
#
# Coordination Sequence:
#
# PCOD9410014 Si02
#       5
#     8   4   8   8   4
#     4  10  20  38  59  83 114 152 190 228 286 356
#     4   9  20  40  58  77 116 154 188 233 288 346
#     4  11  23  38  60  89 118 150 192 245 291 334
#     4   9  20  38  59  80 110 154 190 229 285 347
#     4  11  22  38  58  85 116 146 194 247 286 332
#
# _framework density 19.351130000000001
#
# number of rings (size 3 to 8) (size 9 to 14) (size 15 to 20)
#    0.000    2.000    0.000    4.500    0.000    6.000 
#    0.000    6.250    0.000    0.000    0.000    0.000 
#    0.000    0.000    0.000    0.000    0.000    0.000 
#
# Total GULP energy -178724.984011 kJ/mol
# GULP energy per Si atom -5585.155750 kJ/mol
# Density = 1.930709 g / cm^3
# Si number density = 19.351130 Si / 1000 Ang^3
#
#
#
# Elastic Constant Matrix: (Units=GPa)
#
#
# Indices 1 2 3 4 5 6 
#
# 1 113.3394 50.6596 66.0868 0.0000 0.0000 0.0000
# 2 50.6596 107.7795 39.6103 0.0000 0.0000 0.0000
# 3 66.0868 39.6103 117.9303 0.0000 0.0000 0.0000
# 4 0.0000 0.0000 0.0000 10.7650 0.0000 0.0000
# 5 0.0000 0.0000 0.0000 0.0000 -1.5500 0.0000
# 6 0.0000 0.0000 0.0000 0.0000 0.0000 15.0287
#
#
#
# Elastic Compliance Matrix: (Units=1/GPa)
#
#
# Indices 1 2 3 4 5 6 
#
# 1 0.014764 -0.004448 -0.006780 0.000000 0.000000 0.000000
# 2 -0.004448 0.011925 -0.001513 0.000000 0.000000 0.000000
# 3 -0.006780 -0.001513 0.012787 0.000000 0.000000 0.000000
# 4 0.000000 0.000000 0.000000 0.092893 0.000000 0.000000
# 5 0.000000 0.000000 0.000000 0.000000 -0.645160 0.000000
# 6 0.000000 0.000000 0.000000 0.000000 0.000000 0.066539
#
#
# Mechanical properties :
#
#
# Convention : Reuss Voigt Hill
#
# Bulk Modulus (GPa) = 71.45307 72.41806 71.93556
# Shear Modulus (GPa) = -12.01620 17.02825 2.50602
#
# Velocity S-wave (km/s) = -2.49460 2.96963 1.13923
# Velocity P-wave (km/s) = 5.35792 7.01874 6.24380
#
# Compressibility (1/GPa) = 0.01399520
#
# Stress axis : x y z
#
# Youngs Moduli (GPa) = 67.73023 83.85848 78.20450
#
# Poissons Ratio (x) = 0.37301 0.53021
# Poissons Ratio (y) = 0.30127 0.11830
# Poissons Ratio (z) = 0.45920 0.12685
#
# Static dielectric constant tensor:
#      x y z
#    x 1.674570 0.000000 0.000000 
#    y 0.000000 1.634900 0.000000 
#    z 0.000000 0.000000 1.649810 
# 
# From -- ./inp_files/8347.got.cif
#   From: 2010.05.17/outbox.cif.g08.bks.cpg/sg52_5_cif.got.tgz:8347.got - 2010.06.03 12:15:38.
