data_PCOD9410027
_publ_section_title
;
Structure prediction by ZEFSAII (Michael W. Deem and Ramdas Pophale) SiO2 
 PCOD9410027
Probable space group: P N N A
;
_chemical_formula_sum "Si O2"
_cell_formula_units_Z 40
_cell_length_a 19.639714
_cell_length_b 16.368240
_cell_length_c 5.269971
_cell_angle_alpha 90.000000
_cell_angle_beta 90.000000
_cell_angle_gamma 90.000000
_cell_volume 1694.124678
_symmetry_space_group_name_H-M "P N N A"
_symmetry_group_IT_number 52
_symmetry_cell_setting 'orthorhombic'
loop_
_space_group_symop_operation_xyz
x,y,z
1/2-x,-y,z
x,1/2-y,1/2-z
1/2-x,1/2+y,1/2-z
-x,-y,-z
1/2+x,y,-z
-x,1/2+y,1/2+z
1/2+x,1/2-y,1/2+z
loop_
_atom_site_type_symbol
_atom_site_label
_atom_site_fract_x
_atom_site_fract_y
_atom_site_fract_z
Si Si1 0.983715 0.151332 0.742015
Si Si2 0.676490 0.459042 0.228874
Si Si3 0.714275 0.340103 0.838160
Si Si4 0.940874 0.846863 0.762790
Si Si5 0.651974 0.945655 0.770972
O O1 0.985290 0.250000 0.750000
O O2 0.906538 0.121666 0.754183
O O3 0.024942 0.121377 0.495175
O O4 0.022581 0.119676 0.989846
O O5 0.750000 0.500000 0.245465
O O6 0.643447 0.499217 0.478359
O O7 0.694357 0.365754 0.131805
O O8 0.643768 0.499085 0.978528
O O9 0.737399 0.250000 0.750000
O O10 0.640439 0.349075 0.709986
O O11 0.773323 0.402493 0.748112
O O12 0.956058 0.750000 0.750000
#
# Coordination Sequence:
#
# PCOD9410027 Si02
#       5
#     8   8   8   8   8
#     4  10  20  38  60  89 127 168 211 264 321 377
#     4  10  22  40  60  90 131 164 199 265 333 371
#     4  10  22  43  70  97 123 169 226 266 311 392
#     4   9  20  37  60  90 128 164 207 269 325 366
#     4  11  22  40  64  92 126 167 210 262 323 384
#
# _framework density 23.611013
#
# number of rings (size 3 to 8) (size 9 to 14) (size 15 to 20)
#    0.000    2.000    0.000    3.600    0.000    4.800 
#    0.000   25.000    0.000    0.000    0.000    0.000 
#    0.000    0.000    0.000    0.000    0.000    0.000 
#
# Total GULP energy -223149.963537 kJ/mol
# GULP energy per Si atom -5578.749088 kJ/mol
# Density = 2.355727 g / cm^3
# Si number density = 23.611013 Si / 1000 Ang^3
#
#
#
# Elastic Constant Matrix: (Units=GPa)
#
#
# Indices 1 2 3 4 5 6 
#
# 1 129.3857 18.8437 60.7492 0.0000 0.0000 0.0000
# 2 18.8437 97.2499 63.7408 0.0000 0.0000 0.0000
# 3 60.7492 63.7408 204.5105 0.0000 0.0000 0.0000
# 4 0.0000 0.0000 0.0000 1.2198 0.0000 0.0000
# 5 0.0000 0.0000 0.0000 0.0000 29.0339 0.0000
# 6 0.0000 0.0000 0.0000 0.0000 0.0000 42.7614
#
#
#
# Elastic Compliance Matrix: (Units=1/GPa)
#
#
# Indices 1 2 3 4 5 6 
#
# 1 0.008981 0.000010 -0.002671 0.000000 0.000000 0.000000
# 2 0.000010 0.012923 -0.004031 0.000000 0.000000 0.000000
# 3 -0.002671 -0.004031 0.006939 0.000000 0.000000 0.000000
# 4 0.000000 0.000000 0.000000 0.819803 0.000000 0.000000
# 5 0.000000 0.000000 0.000000 0.000000 0.034443 0.000000
# 6 0.000000 0.000000 0.000000 0.000000 0.000000 0.023386
#
#
# Mechanical properties :
#
#
# Convention : Reuss Voigt Hill
#
# Bulk Modulus (GPa) = 64.68034 79.75707 72.21871
# Shear Modulus (GPa) = 5.40534 33.79052 19.59793
#
# Velocity S-wave (km/s) = 1.51469 3.78714 2.88416
# Velocity P-wave (km/s) = 5.52383 7.27847 6.46099
#
# Compressibility (1/GPa) = 0.01546065
#
# Stress axis : x y z
#
# Youngs Moduli (GPa) = 111.34029 77.38337 144.10291
#
# Poissons Ratio (x) = -0.00081 0.38493
# Poissons Ratio (y) = -0.00117 0.58085
# Poissons Ratio (z) = 0.29741 0.31192
#
# Static dielectric constant tensor:
#      x y z
#    x 1.844370 0.000000 0.000000 
#    y 0.000000 1.960520 0.000000 
#    z 0.000000 0.000000 1.976930 
# 
# From -- ./inp_files/3208.got.cif
#   From: 2010.05.17/outbox.cif.g08.bks.cpg/sg52_2_cif.got.tgz:3208.got - 2010.06.03 12:15:38.
