data_PCOD9410008
_publ_section_title
;
Structure prediction by ZEFSAII (Michael W. Deem and Ramdas Pophale) SiO2 
 PCOD9410008
Probable space group: P N N A
;
_chemical_formula_sum "Si O2"
_cell_formula_units_Z 40
_cell_length_a 9.452137
_cell_length_b 12.661827
_cell_length_c 11.941114
_cell_angle_alpha 90.000000
_cell_angle_beta 90.000000
_cell_angle_gamma 90.000000
_cell_volume 1429.128327
_symmetry_space_group_name_H-M "P N N A"
_symmetry_group_IT_number 52
_symmetry_cell_setting 'orthorhombic'
loop_
_space_group_symop_operation_xyz
x,y,z
1/2-x,-y,z
x,1/2-y,1/2-z
1/2-x,1/2+y,1/2-z
-x,-y,-z
1/2+x,y,-z
-x,1/2+y,1/2+z
1/2+x,1/2-y,1/2+z
loop_
_atom_site_type_symbol
_atom_site_label
_atom_site_fract_x
_atom_site_fract_y
_atom_site_fract_z
Si Si1 0.817562 0.884402 0.414547
Si Si2 0.668454 0.887741 0.970207
Si Si3 0.664352 0.193840 0.645274
Si Si4 0.131568 0.902571 0.773833
Si Si5 0.060890 0.918170 0.254065
O O1 0.888668 0.862187 0.534348
O O2 0.691430 0.839054 0.333485
O O3 0.947133 0.863992 0.331652
O O4 0.750000 0.000000 0.436302
O O5 0.761716 0.792177 0.923458
O O6 0.544743 0.894358 0.877697
O O7 0.750000 0.000000 0.960024
O O8 0.621972 0.870420 0.097030
O O9 0.586073 0.250000 0.750000
O O10 0.790151 0.123394 0.701010
O O11 0.250000 0.000000 0.781453
O O12 0.984931 0.959301 0.737535
#
# Coordination Sequence:
#
# PCOD9410008 Si02
#       5
#     8   8   8   8   8
#     4   9  20  40  66  93 124 166 213 266 323 379
#     4  10  20  38  58  95 132 164 208 262 313 384
#     4  10  22  39  59  92 127 168 214 266 319 375
#     4   8  17  35  61  95 123 161 206 254 319 376
#     4   9  19  39  63  87 120 167 208 255 316 384
#
# _framework density 27.989089
#
# number of rings (size 3 to 8) (size 9 to 14) (size 15 to 20)
#    0.000    3.200    0.000    0.600    0.000    7.200 
#   36.000    0.000    0.000    0.000    0.000    0.000 
#    0.000    0.000    0.000    0.000    0.000    0.000 
#
# Total GULP energy -223129.386483 kJ/mol
# GULP energy per Si atom -5578.234662 kJ/mol
# Density = 2.792538 g / cm^3
# Si number density = 27.989089 Si / 1000 Ang^3
#
#
#
# Elastic Constant Matrix: (Units=GPa)
#
#
# Indices 1 2 3 4 5 6 
#
# 1 113.2587 12.4652 53.2403 0.0000 0.0000 0.0000
# 2 12.4652 63.3705 24.4075 0.0000 0.0000 0.0000
# 3 53.2403 24.4075 329.3397 0.0000 0.0000 0.0000
# 4 0.0000 0.0000 0.0000 23.9462 0.0000 0.0000
# 5 0.0000 0.0000 0.0000 0.0000 27.6533 0.0000
# 6 0.0000 0.0000 0.0000 0.0000 0.0000 1.7969
#
#
#
# Elastic Compliance Matrix: (Units=1/GPa)
#
#
# Indices 1 2 3 4 5 6 
#
# 1 0.009664 -0.001337 -0.001463 0.000000 0.000000 0.000000
# 2 -0.001337 0.016429 -0.001001 0.000000 0.000000 0.000000
# 3 -0.001463 -0.001001 0.003347 0.000000 0.000000 0.000000
# 4 0.000000 0.000000 0.000000 0.041760 0.000000 0.000000
# 5 0.000000 0.000000 0.000000 0.000000 0.036162 0.000000
# 6 0.000000 0.000000 0.000000 0.000000 0.000000 0.556504
#
#
# Mechanical properties :
#
#
# Convention : Reuss Voigt Hill
#
# Bulk Modulus (GPa) = 45.79499 76.24390 61.01945
# Shear Modulus (GPa) = 7.36649 38.40302 22.88475
#
# Velocity S-wave (km/s) = 1.62408 3.70817 2.86253
# Velocity P-wave (km/s) = 4.46252 6.75527 5.72485
#
# Compressibility (1/GPa) = 0.02183645
#
# Stress axis : x y z
#
# Youngs Moduli (GPa) = 103.47300 60.86812 298.76374
#
# Poissons Ratio (x) = 0.08141 0.43715
# Poissons Ratio (y) = 0.13839 0.29917
# Poissons Ratio (z) = 0.15140 0.06095
#
# Static dielectric constant tensor:
#      x y z
#    x 2.247400 0.000000 0.000000 
#    y 0.000000 2.591270 0.000000 
#    z 0.000000 0.000000 2.286990 
# 
# From -- ./inp_files/17972.got.cif
#   From: 2010.05.17/outbox.cif.g08.bks.cpg/sg52_9_cif.got.tgz:17972.got - 2010.06.03 12:15:38.
