data_PCOD9410044
_publ_section_title
;
Structure prediction by ZEFSAII (Michael W. Deem and Ramdas Pophale) SiO2 
 PCOD9410044
Probable space group: P N N A
;
_chemical_formula_sum "Si O2"
_cell_formula_units_Z 32
_cell_length_a 14.238625
_cell_length_b 11.088066
_cell_length_c 8.107522
_cell_angle_alpha 90.000000
_cell_angle_beta 90.000000
_cell_angle_gamma 90.000000
_cell_volume 1280.005956
_symmetry_space_group_name_H-M "P N N A"
_symmetry_group_IT_number 52
_symmetry_cell_setting 'orthorhombic'
loop_
_space_group_symop_operation_xyz
x,y,z
1/2-x,-y,z
x,1/2-y,1/2-z
1/2-x,1/2+y,1/2-z
-x,-y,-z
1/2+x,y,-z
-x,1/2+y,1/2+z
1/2+x,1/2-y,1/2+z
loop_
_atom_site_type_symbol
_atom_site_label
_atom_site_fract_x
_atom_site_fract_y
_atom_site_fract_z
Si Si1 0.968947 0.369451 0.862090
Si Si2 0.375824 0.740887 0.059225
Si Si3 0.323711 0.254346 0.936957
Si Si4 0.639028 0.504651 0.591206
O O1 0.953163 0.250000 0.750000
O O2 0.929750 0.474400 0.746182
O O3 0.901552 0.352066 0.019736
O O4 0.070781 0.351599 0.941245
O O5 0.406245 0.750000 0.250000
O O6 0.386349 0.880416 0.999954
O O7 0.265112 0.717751 0.051477
O O8 0.291825 0.250000 0.750000
O O9 0.365011 0.122229 0.977336
O O10 0.750000 0.500000 0.642345
#
# Coordination Sequence:
#
# PCOD9410044 Si02
#       4
#     8   8   8   8
#     4  10  21  38  61  89 122 160 205 255 305 363
#     4  11  22  39  61  89 126 164 205 254 306 363
#     4  10  20  38  61  87 122 162 206 256 307 363
#     4   9  20  40  63  88 124 165 203 252 310 362
#
# _framework density 24.999881999999999
#
# number of rings (size 3 to 8) (size 9 to 14) (size 15 to 20)
#    0.000    2.000    0.000    5.250    0.000    5.000 
#    0.000   16.250    0.000    4.500    0.000    0.000 
#    0.000    0.000    0.000    0.000    0.000    0.000 
#
# Total GULP energy -178897.056280 kJ/mol
# GULP energy per Si atom -5590.533009 kJ/mol
# Density = 2.494298 g / cm^3
# Si number density = 24.999882 Si / 1000 Ang^3
#
#
#
# Elastic Constant Matrix: (Units=GPa)
#
#
# Indices 1 2 3 4 5 6 
#
# 1 84.8581 20.7230 8.3298 0.0000 0.0000 0.0000
# 2 20.7230 86.5964 13.1884 0.0000 0.0000 0.0000
# 3 8.3298 13.1884 92.0188 0.0000 0.0000 0.0000
# 4 0.0000 0.0000 0.0000 17.7655 0.0000 0.0000
# 5 0.0000 0.0000 0.0000 0.0000 19.6272 0.0000
# 6 0.0000 0.0000 0.0000 0.0000 0.0000 7.5177
#
#
#
# Elastic Compliance Matrix: (Units=1/GPa)
#
#
# Indices 1 2 3 4 5 6 
#
# 1 0.012563 -0.002896 -0.000722 0.000000 0.000000 0.000000
# 2 -0.002896 0.012473 -0.001526 0.000000 0.000000 0.000000
# 3 -0.000722 -0.001526 0.011151 0.000000 0.000000 0.000000
# 4 0.000000 0.000000 0.000000 0.056289 0.000000 0.000000
# 5 0.000000 0.000000 0.000000 0.000000 0.050950 0.000000
# 6 0.000000 0.000000 0.000000 0.000000 0.000000 0.133019
#
#
# Mechanical properties :
#
#
# Convention : Reuss Voigt Hill
#
# Bulk Modulus (GPa) = 38.61106 38.66175 38.63641
# Shear Modulus (GPa) = 16.92813 23.73087 20.32950
#
# Velocity S-wave (km/s) = 2.60499 3.08432 2.85473
# Velocity P-wave (km/s) = 4.95237 5.30870 5.13363
#
# Compressibility (1/GPa) = 0.02589931
#
# Stress axis : x y z
#
# Youngs Moduli (GPa) = 79.60159 80.17150 89.67524
#
# Poissons Ratio (x) = 0.23220 0.06475
# Poissons Ratio (y) = 0.23055 0.13680
# Poissons Ratio (z) = 0.05748 0.12230
#
# Static dielectric constant tensor:
#      x y z
#    x 1.964340 0.000000 0.000000 
#    y 0.000000 2.006750 0.000000 
#    z 0.000000 0.000000 1.935520 
# 
# From -- ./inp_files/9565.got.cif
#   From: 2010.05.17/outbox.cif.g08.bks.cpg/sg52_5_cif.got.tgz:9565.got - 2010.06.03 12:15:38.
