data_PCOD9410749
_publ_section_title
;
Structure prediction by ZEFSAII (Michael W. Deem and Ramdas Pophale) SiO2 
 PCOD9410749
Probable space group: P N N A
;
_chemical_formula_sum "Si O2"
_cell_formula_units_Z 28
_cell_length_a 7.938995
_cell_length_b 7.678203
_cell_length_c 21.599339
_cell_angle_alpha 90.000000
_cell_angle_beta 90.000000
_cell_angle_gamma 90.000000
_cell_volume 1316.635556
_symmetry_space_group_name_H-M "P N N A"
_symmetry_group_IT_number 52
_symmetry_cell_setting 'orthorhombic'
loop_
_space_group_symop_operation_xyz
x,y,z
1/2-x,-y,z
x,1/2-y,1/2-z
1/2-x,1/2+y,1/2-z
-x,-y,-z
1/2+x,y,-z
-x,1/2+y,1/2+z
1/2+x,1/2-y,1/2+z
loop_
_atom_site_type_symbol
_atom_site_label
_atom_site_fract_x
_atom_site_fract_y
_atom_site_fract_z
Si Si1 0.250000 0.500000 0.362389
Si Si2 0.798823 0.804442 0.413205
Si Si3 0.320715 0.196871 0.456710
Si Si4 0.906423 0.598980 0.296007
O O1 0.241572 0.331405 0.407647
O O2 0.422702 0.491138 0.321891
O O3 0.691727 0.741936 0.472055
O O4 0.808943 0.682439 0.354506
O O5 0.985855 0.813411 0.439684
O O6 0.750000 0.000000 0.395791
O O7 0.250000 0.000000 0.453333
O O8 0.750000 0.500000 0.263476
O O9 0.966453 0.750000 0.250000
#
# Coordination Sequence:
#
# PCOD9410749 Si02
#       4
#     4   8   8   8
#     4  10  26  44  68 100 130 170 226 270 334 394
#     4  10  21  37  64  97 133 169 214 265 331 394
#     4  10  21  37  64 100 131 172 205 268 340 381
#     4  11  26  45  66  96 127 179 225 272 332 389
#
# _framework density 21.266325999999999
#
# number of rings (size 3 to 8) (size 9 to 14) (size 15 to 20)
#    0.000    1.714    0.000    4.286   10.000    3.429 
#   10.286    0.000    0.000    0.000    0.000    0.000 
#    0.000    0.000    0.000    0.000    0.000    0.000 
#
# Total GULP energy -156332.240395 kJ/mol
# GULP energy per Si atom -5583.294300 kJ/mol
# Density = 2.121792 g / cm^3
# Si number density = 21.266326 Si / 1000 Ang^3
#
#
#
# Elastic Constant Matrix: (Units=GPa)
#
#
# Indices 1 2 3 4 5 6 
#
# 1 69.9278 38.0649 28.8221 0.0000 0.0000 0.0000
# 2 38.0649 70.3708 36.2747 0.0000 0.0000 0.0000
# 3 28.8221 36.2747 75.8824 0.0000 0.0000 0.0000
# 4 0.0000 0.0000 0.0000 26.5975 0.0000 0.0000
# 5 0.0000 0.0000 0.0000 0.0000 -118.7202 0.0000
# 6 0.0000 0.0000 0.0000 0.0000 0.0000 40.4285
#
#
#
# Elastic Compliance Matrix: (Units=1/GPa)
#
#
# Indices 1 2 3 4 5 6 
#
# 1 0.020895 -0.009570 -0.003362 0.000000 0.000000 0.000000
# 2 -0.009570 0.023240 -0.007475 0.000000 0.000000 0.000000
# 3 -0.003362 -0.007475 0.018028 0.000000 0.000000 0.000000
# 4 0.000000 0.000000 0.000000 0.037598 0.000000 0.000000
# 5 0.000000 0.000000 0.000000 0.000000 -0.008423 0.000000
# 6 0.000000 0.000000 0.000000 0.000000 0.000000 0.024735
#
#
# Mechanical properties :
#
#
# Convention : Reuss Voigt Hill
#
# Bulk Modulus (GPa) = 46.83620 46.94493 46.89057
# Shear Modulus (GPa) = 30.48728 -2.80421 13.84153
#
# Velocity S-wave (km/s) = 3.79039 -1.14956 2.55398
# Velocity P-wave (km/s) = 6.42087 4.51229 5.54925
#
# Compressibility (1/GPa) = 0.02135101
#
# Stress axis : x y z
#
# Youngs Moduli (GPa) = 47.85753 43.02938 55.46790
#
# Poissons Ratio (x) = 0.41178 0.18648
# Poissons Ratio (y) = 0.45798 0.41461
# Poissons Ratio (z) = 0.16089 0.32163
#
# Static dielectric constant tensor:
#      x y z
#    x 1.798480 0.000000 0.000000 
#    y 0.000000 1.884790 0.000000 
#    z 0.000000 0.000000 1.832010 
# 
# From -- ./inp_files/35390.got.cif
#   From: 2010.05.17/outbox.cif.g08.bks.cpg/sg52_18_cif.got.tgz:35390.got - 2010.06.03 12:15:38.
