data_PCOD9410505
_publ_section_title
;
Structure prediction by ZEFSAII (Michael W. Deem and Ramdas Pophale) SiO2 
 PCOD9410505
Probable space group: P N N A
;
_chemical_formula_sum "Si O2"
_cell_formula_units_Z 48
_cell_length_a 16.333210
_cell_length_b 16.403728
_cell_length_c 8.186977
_cell_angle_alpha 90.000000
_cell_angle_beta 90.000000
_cell_angle_gamma 90.000000
_cell_volume 2193.500186
_symmetry_space_group_name_H-M "P N N A"
_symmetry_group_IT_number 52
_symmetry_cell_setting 'orthorhombic'
loop_
_space_group_symop_operation_xyz
x,y,z
1/2-x,-y,z
x,1/2-y,1/2-z
1/2-x,1/2+y,1/2-z
-x,-y,-z
1/2+x,y,-z
-x,1/2+y,1/2+z
1/2+x,1/2-y,1/2+z
loop_
_atom_site_type_symbol
_atom_site_label
_atom_site_fract_x
_atom_site_fract_y
_atom_site_fract_z
Si Si1 0.473145 0.893849 0.321243
Si Si2 0.713741 0.732796 0.508051
Si Si3 0.090692 0.750000 0.750000
Si Si4 0.864057 0.632313 0.497108
Si Si5 0.750000 0.000000 0.855768
Si Si6 0.537415 0.077292 0.320067
Si Si7 0.350893 0.372585 0.188310
O O1 0.533290 0.816473 0.334875
O O2 0.419798 0.873234 0.160111
O O3 0.428839 0.906060 0.496882
O O4 0.521298 0.979948 0.297405
O O5 0.653752 0.703418 0.366539
O O6 0.809247 0.714057 0.486931
O O7 0.680006 0.682514 0.661681
O O8 0.692023 0.827565 0.537076
O O9 0.796228 0.563303 0.529568
O O10 0.912661 0.613095 0.332064
O O11 0.815798 0.040276 0.735720
O O12 0.447828 0.119634 0.319905
#
# Coordination Sequence:
#
# PCOD9410505 Si02
#       7
#     8   8   4   8   4   8   8
#     4  11  25  43  74 106 137 188 237 294 350 425
#     4  10  24  43  68  98 139 189 224 294 359 418
#     4  12  24  46  66  98 146 184 240 286 358 420
#     4  11  24  45  69 104 142 181 241 286 358 424
#     4  10  22  38  72 100 138 192 222 304 360 416
#     4  11  23  46  73 107 137 183 244 295 346 427
#     4  10  20  45  69  95 138 183 235 282 361 414
#
# _framework density 21.882833999999999
#
# number of rings (size 3 to 8) (size 9 to 14) (size 15 to 20)
#    0.000    1.333    3.333    1.500    4.667    2.667 
#   12.000    0.833    0.000    0.000    0.000    0.000 
#    0.000    0.000    0.000    0.000    0.000    0.000 
#
# Total GULP energy -267831.005694 kJ/mol
# GULP energy per Si atom -5579.812619 kJ/mol
# Density = 2.183303 g / cm^3
# Si number density = 21.882834 Si / 1000 Ang^3
#
#
#
# Elastic Constant Matrix: (Units=GPa)
#
#
# Indices 1 2 3 4 5 6 
#
# 1 91.4650 44.1888 64.4414 0.0000 0.0000 0.0000
# 2 44.1888 75.6847 30.1400 0.0000 0.0000 0.0000
# 3 64.4414 30.1400 129.2991 0.0000 0.0000 0.0000
# 4 0.0000 0.0000 0.0000 14.4574 0.0000 0.0000
# 5 0.0000 0.0000 0.0000 0.0000 -4.0170 0.0000
# 6 0.0000 0.0000 0.0000 0.0000 0.0000 49.3100
#
#
#
# Elastic Compliance Matrix: (Units=1/GPa)
#
#
# Indices 1 2 3 4 5 6 
#
# 1 0.021296 -0.009047 -0.008505 0.000000 0.000000 0.000000
# 2 -0.009047 0.018408 0.000218 0.000000 0.000000 0.000000
# 3 -0.008505 0.000218 0.011922 0.000000 0.000000 0.000000
# 4 0.000000 0.000000 0.000000 0.069169 0.000000 0.000000
# 5 0.000000 0.000000 0.000000 0.000000 -0.248941 0.000000
# 6 0.000000 0.000000 0.000000 0.000000 0.000000 0.020280
#
#
# Mechanical properties :
#
#
# Convention : Reuss Voigt Hill
#
# Bulk Modulus (GPa) = 58.96816 63.77657 61.37236
# Shear Modulus (GPa) = -74.02330 22.46200 -25.78065
#
# Velocity S-wave (km/s) = -5.82242 3.20733 -3.43610
# Velocity P-wave (km/s) = 4.26556 6.55162 3.51630
#
# Compressibility (1/GPa) = 0.01695830
#
# Stress axis : x y z
#
# Youngs Moduli (GPa) = 46.95732 54.32432 83.87894
#
# Poissons Ratio (x) = 0.49146 0.71338
# Poissons Ratio (y) = 0.42481 -0.01828
# Poissons Ratio (z) = 0.39936 -0.01184
#
# Static dielectric constant tensor:
#      x y z
#    x 1.787770 0.000000 0.000000 
#    y 0.000000 1.884130 0.000000 
#    z 0.000000 0.000000 1.759690 
# 
# From -- ./inp_files/10551.got.cif
#   From: 2010.05.17/outbox.cif.g08.bks.cpg/sg52_6_cif.got.tgz:10551.got - 2010.06.03 12:15:38.
