data_PCOD9410141
_publ_section_title
;
Structure prediction by ZEFSAII (Michael W. Deem and Ramdas Pophale) SiO2 
 PCOD9410141
Probable space group: P N N A
;
_chemical_formula_sum "Si O2"
_cell_formula_units_Z 32
_cell_length_a 23.106288
_cell_length_b 7.413853
_cell_length_c 6.992724
_cell_angle_alpha 90.000000
_cell_angle_beta 90.000000
_cell_angle_gamma 90.000000
_cell_volume 1197.899931
_symmetry_space_group_name_H-M "P N N A"
_symmetry_group_IT_number 52
_symmetry_cell_setting 'orthorhombic'
loop_
_space_group_symop_operation_xyz
x,y,z
1/2-x,-y,z
x,1/2-y,1/2-z
1/2-x,1/2+y,1/2-z
-x,-y,-z
1/2+x,y,-z
-x,1/2+y,1/2+z
1/2+x,1/2-y,1/2+z
loop_
_atom_site_type_symbol
_atom_site_label
_atom_site_fract_x
_atom_site_fract_y
_atom_site_fract_z
Si Si1 0.209948 0.750000 0.250000
Si Si2 0.494916 0.964939 0.774357
Si Si3 0.627798 0.037105 0.202662
Si Si4 0.879717 0.954510 0.754507
Si Si5 0.750000 0.500000 0.416169
O O1 0.166296 0.594042 0.170339
O O2 0.245072 0.664956 0.428911
O O3 0.496593 0.750000 0.750000
O O4 0.431917 0.037377 0.709279
O O5 0.553833 0.041298 0.684795
O O6 0.500000 0.000000 0.000000
O O7 0.626472 0.250000 0.250000
O O8 0.619737 0.998300 0.978007
O O9 0.694428 0.984968 0.220598
O O10 0.860015 0.750000 0.750000
#
# Coordination Sequence:
#
# PCOD9410141 Si02
#       5
#     4   8   8   8   4
#     4  10  22  38  64  96 122 158 224 280 314 370
#     4   9  17  35  62  86 126 165 205 271 333 393
#     4   9  20  39  58  85 127 170 201 260 329 388
#     4  10  20  38  67  96 117 161 216 272 324 385
#     4  10  22  40  62  90 128 178 218 266 326 388
#
# _framework density 26.713418000000001
#
# number of rings (size 3 to 8) (size 9 to 14) (size 15 to 20)
#    0.000    2.500    1.250    0.000    7.000    0.000 
#    4.500   12.500    0.000    0.000    0.000    0.000 
#    0.000    0.000    0.000    0.000    0.000    0.000 
#
# Total GULP energy -178651.061794 kJ/mol
# GULP energy per Si atom -5582.845681 kJ/mol
# Density = 2.665262 g / cm^3
# Si number density = 26.713418 Si / 1000 Ang^3
#
#
#
# Elastic Constant Matrix: (Units=GPa)
#
#
# Indices 1 2 3 4 5 6 
#
# 1 238.1832 43.8962 28.1483 0.0000 0.0000 0.0000
# 2 43.8962 153.3247 6.5433 0.0000 0.0000 0.0000
# 3 28.1483 6.5433 126.6895 0.0000 0.0000 0.0000
# 4 0.0000 0.0000 0.0000 39.5354 0.0000 0.0000
# 5 0.0000 0.0000 0.0000 0.0000 28.8613 0.0000
# 6 0.0000 0.0000 0.0000 0.0000 0.0000 -65.1312
#
#
#
# Elastic Compliance Matrix: (Units=1/GPa)
#
#
# Indices 1 2 3 4 5 6 
#
# 1 0.004542 -0.001260 -0.000944 0.000000 0.000000 0.000000
# 2 -0.001260 0.006886 -0.000076 0.000000 0.000000 0.000000
# 3 -0.000944 -0.000076 0.008107 0.000000 0.000000 0.000000
# 4 0.000000 0.000000 0.000000 0.025294 0.000000 0.000000
# 5 0.000000 0.000000 0.000000 0.000000 0.034648 0.000000
# 6 0.000000 0.000000 0.000000 0.000000 0.000000 -0.015354
#
#
# Mechanical properties :
#
#
# Convention : Reuss Voigt Hill
#
# Bulk Modulus (GPa) = 66.77582 75.04144 70.90863
# Shear Modulus (GPa) = 67.86498 29.96041 48.91270
#
# Velocity S-wave (km/s) = 5.04579 3.35259 4.28368
# Velocity P-wave (km/s) = 7.68102 6.56801 7.14621
#
# Compressibility (1/GPa) = 0.01497548
#
# Stress axis : x y z
#
# Youngs Moduli (GPa) = 220.15451 145.21989 123.35029
#
# Poissons Ratio (x) = 0.18300 0.11646
# Poissons Ratio (y) = 0.27743 0.00933
# Poissons Ratio (z) = 0.20786 0.01099
#
# Static dielectric constant tensor:
#      x y z
#    x 2.252050 0.000000 0.000000 
#    y 0.000000 2.073260 0.000000 
#    z 0.000000 0.000000 2.069420 
# 
# From -- ./inp_files/14730.got.cif
#   From: 2010.05.17/outbox.cif.g08.bks.cpg/sg52_8_cif.got.tgz:14730.got - 2010.06.03 12:15:38.
