data_PCOD9410140
_publ_section_title
;
Structure prediction by ZEFSAII (Michael W. Deem and Ramdas Pophale) SiO2 
 PCOD9410140
Probable space group: P N N A
;
_chemical_formula_sum "Si O2"
_cell_formula_units_Z 48
_cell_length_a 10.210168
_cell_length_b 8.935567
_cell_length_c 27.933161
_cell_angle_alpha 90.000000
_cell_angle_beta 90.000000
_cell_angle_gamma 90.000000
_cell_volume 2548.443962
_symmetry_space_group_name_H-M "P N N A"
_symmetry_group_IT_number 52
_symmetry_cell_setting 'orthorhombic'
loop_
_space_group_symop_operation_xyz
x,y,z
1/2-x,-y,z
x,1/2-y,1/2-z
1/2-x,1/2+y,1/2-z
-x,-y,-z
1/2+x,y,-z
-x,1/2+y,1/2+z
1/2+x,1/2-y,1/2+z
loop_
_atom_site_type_symbol
_atom_site_label
_atom_site_fract_x
_atom_site_fract_y
_atom_site_fract_z
Si Si1 0.971536 0.347430 0.528877
Si Si2 0.040262 0.430489 0.635068
Si Si3 0.259761 0.826271 0.519798
Si Si4 0.623951 0.904314 0.279333
Si Si5 0.194587 0.741465 0.627720
Si Si6 0.389183 0.079423 0.234022
O O1 0.836148 0.274400 0.512294
O O2 0.000000 0.500000 0.500000
O O3 0.974638 0.382598 0.585289
O O4 0.092522 0.235780 0.517900
O O5 0.102117 0.595387 0.628004
O O6 0.162636 0.318591 0.644008
O O7 0.945766 0.429234 0.680259
O O8 0.210421 0.804156 0.574452
O O9 0.250000 0.000000 0.506575
O O10 0.621264 0.750000 0.250000
O O11 0.640994 0.860891 0.334698
O O12 0.750000 0.000000 0.263713
O O13 0.494489 0.996038 0.267465
O O14 0.378035 0.250000 0.250000
O O15 0.250000 0.000000 0.236882
#
# Coordination Sequence:
#
# PCOD9410140 Si02
#       6
#     8   8   8   8   8   8
#     4  11  22  41  68  93 127 173 216 256 313 386
#     4  10  21  41  65  95 126 165 219 263 311 382
#     4  11  23  40  63  98 135 164 209 271 323 370
#     4  12  22  37  65  94 122 160 208 260 317 378
#     4  10  20  38  67  95 123 163 212 268 313 370
#     4  12  27  45  63  90 129 169 210 263 325 385
#
# _framework density 18.835023
#
# number of rings (size 3 to 8) (size 9 to 14) (size 15 to 20)
#    0.000    1.000    3.333    4.500    0.000    2.667 
#    0.000    0.833    0.000    0.000    0.000    0.000 
#    0.000    0.000    0.000    0.000    0.000    0.000 
#
# Total GULP energy -268545.070693 kJ/mol
# GULP energy per Si atom -5594.688973 kJ/mol
# Density = 1.879215 g / cm^3
# Si number density = 18.835023 Si / 1000 Ang^3
#
#
#
# Elastic Constant Matrix: (Units=GPa)
#
#
# Indices 1 2 3 4 5 6 
#
# 1 93.0339 25.6379 27.0985 0.0000 0.0000 0.0000
# 2 25.6379 98.4800 5.9564 0.0000 0.0000 0.0000
# 3 27.0985 5.9564 64.3603 0.0000 0.0000 0.0000
# 4 0.0000 0.0000 0.0000 -4.7524 0.0000 0.0000
# 5 0.0000 0.0000 0.0000 0.0000 -21.5096 0.0000
# 6 0.0000 0.0000 0.0000 0.0000 0.0000 31.5577
#
#
#
# Elastic Compliance Matrix: (Units=1/GPa)
#
#
# Indices 1 2 3 4 5 6 
#
# 1 0.013130 -0.003101 -0.005241 0.000000 0.000000 0.000000
# 2 -0.003101 0.010944 0.000293 0.000000 0.000000 0.000000
# 3 -0.005241 0.000293 0.017717 0.000000 0.000000 0.000000
# 4 0.000000 0.000000 0.000000 -0.210419 0.000000 0.000000
# 5 0.000000 0.000000 0.000000 0.000000 -0.046491 0.000000
# 6 0.000000 0.000000 0.000000 0.000000 0.000000 0.031688
#
#
# Mechanical properties :
#
#
# Convention : Reuss Voigt Hill
#
# Bulk Modulus (GPa) = 38.92257 41.47332 40.19794
# Shear Modulus (GPa) = -31.49263 14.20457 -8.64403
#
# Velocity S-wave (km/s) = -4.09348 2.74917 -2.14460
# Velocity P-wave (km/s) = 1.27758 5.66960 3.90590
#
# Compressibility (1/GPa) = 0.02569203
#
# Stress axis : x y z
#
# Youngs Moduli (GPa) = 76.16106 91.37434 56.44220
#
# Poissons Ratio (x) = 0.28337 0.29583
# Poissons Ratio (y) = 0.23619 -0.01653
# Poissons Ratio (z) = 0.39919 -0.02677
#
# Static dielectric constant tensor:
#      x y z
#    x 1.619220 0.000000 0.000000 
#    y 0.000000 1.641070 0.000000 
#    z 0.000000 0.000000 1.642880 
# 
# From -- ./inp_files/44403.got.cif
#   From: 2010.05.17/outbox.cif.g08.bks.cpg/sg52_23_cif.got.tgz:44403.got - 2010.06.03 12:15:38.
