data_PCOD9410805
_publ_section_title
;
Structure prediction by ZEFSAII (Michael W. Deem and Ramdas Pophale) SiO2 
 PCOD9410805
Probable space group: P N N A
;
_chemical_formula_sum "Si O2"
_cell_formula_units_Z 48
_cell_length_a 13.635487
_cell_length_b 9.391374
_cell_length_c 17.352107
_cell_angle_alpha 90.000000
_cell_angle_beta 90.000000
_cell_angle_gamma 90.000000
_cell_volume 2222.040687
_symmetry_space_group_name_H-M "P N N A"
_symmetry_group_IT_number 52
_symmetry_cell_setting 'orthorhombic'
loop_
_space_group_symop_operation_xyz
x,y,z
1/2-x,-y,z
x,1/2-y,1/2-z
1/2-x,1/2+y,1/2-z
-x,-y,-z
1/2+x,y,-z
-x,1/2+y,1/2+z
1/2+x,1/2-y,1/2+z
loop_
_atom_site_type_symbol
_atom_site_label
_atom_site_fract_x
_atom_site_fract_y
_atom_site_fract_z
Si Si1 0.494174 0.677275 0.170368
Si Si2 0.259965 0.851368 0.316483
Si Si3 0.864976 0.352443 0.973157
Si Si4 0.973906 0.839343 0.981086
Si Si5 0.717176 0.340653 0.436239
Si Si6 0.857494 0.942894 0.389320
O O1 0.524523 0.750000 0.250000
O O2 0.376325 0.660259 0.168900
O O3 0.507802 0.790818 0.102534
O O4 0.555679 0.533029 0.151961
O O5 0.223522 0.750000 0.250000
O O6 0.194830 0.855548 0.393838
O O7 0.250000 0.000000 0.275417
O O8 0.808485 0.246406 0.031066
O O9 0.867439 0.501984 0.020208
O O10 0.970799 0.277523 0.964899
O O11 0.857603 0.845260 0.992047
O O12 0.000000 0.000000 0.000000
O O13 0.750000 0.500000 0.411677
O O14 0.658415 0.228024 0.381669
O O15 0.750000 0.000000 0.363732
#
# Coordination Sequence:
#
# PCOD9410805 Si02
#       6
#     8   8   8   8   8   8
#     4  10  23  42  69  94 134 182 228 278 350 415
#     4  11  24  40  62  93 134 178 213 272 341 415
#     4  10  21  38  60  94 124 164 226 265 329 396
#     4  11  22  36  64  97 128 173 217 285 334 397
#     4  11  20  35  60  95 131 160 215 276 333 388
#     4   9  21  40  67  93 122 168 224 280 327 396
#
# _framework density 21.601765
#
# number of rings (size 3 to 8) (size 9 to 14) (size 15 to 20)
#    0.000    1.667    3.333    1.500    2.333    4.667 
#    0.000    0.000   11.000    0.000    0.000    0.000 
#    0.000    0.000    0.000    0.000    0.000    0.000 
#
# Total GULP energy -267319.221086 kJ/mol
# GULP energy per Si atom -5569.150439 kJ/mol
# Density = 2.155260 g / cm^3
# Si number density = 21.601765 Si / 1000 Ang^3
#
#
#
# Elastic Constant Matrix: (Units=GPa)
#
#
# Indices 1 2 3 4 5 6 
#
# 1 83.9769 17.5197 25.3182 0.0000 0.0000 0.0000
# 2 17.5197 179.4353 48.1690 0.0000 0.0000 0.0000
# 3 25.3182 48.1690 85.1672 0.0000 0.0000 0.0000
# 4 0.0000 0.0000 0.0000 -1.8304 0.0000 0.0000
# 5 0.0000 0.0000 0.0000 0.0000 163.1382 0.0000
# 6 0.0000 0.0000 0.0000 0.0000 0.0000 41.7648
#
#
#
# Elastic Compliance Matrix: (Units=1/GPa)
#
#
# Indices 1 2 3 4 5 6 
#
# 1 0.013092 -0.000275 -0.003736 0.000000 0.000000 0.000000
# 2 -0.000275 0.006576 -0.003638 0.000000 0.000000 0.000000
# 3 -0.003736 -0.003638 0.014910 0.000000 0.000000 0.000000
# 4 0.000000 0.000000 0.000000 -0.546331 0.000000 0.000000
# 5 0.000000 0.000000 0.000000 0.000000 0.006130 0.000000
# 6 0.000000 0.000000 0.000000 0.000000 0.000000 0.023944
#
#
# Mechanical properties :
#
#
# Convention : Reuss Voigt Hill
#
# Bulk Modulus (GPa) = 51.86806 58.95479 55.41143
# Shear Modulus (GPa) = -10.87064 57.78602 23.45769
#
# Velocity S-wave (km/s) = -2.24571 5.17771 3.29890
# Velocity P-wave (km/s) = 4.16400 7.94329 6.34171
#
# Compressibility (1/GPa) = 0.01927969
#
# Stress axis : x y z
#
# Youngs Moduli (GPa) = 76.38307 152.05793 67.07047
#
# Poissons Ratio (x) = 0.04186 0.25059
# Poissons Ratio (y) = 0.02103 0.24398
# Poissons Ratio (z) = 0.28538 0.55314
#
# Static dielectric constant tensor:
#      x y z
#    x 1.719950 0.000000 0.000000 
#    y 0.000000 1.834230 0.000000 
#    z 0.000000 0.000000 1.783870 
# 
# From -- ./inp_files/33028.got.cif
#   From: 2010.05.17/outbox.cif.g08.bks.cpg/sg52_17_cif.got.tgz:33028.got - 2010.06.03 12:15:38.
