data_PCOD9410061
_publ_section_title
;
Structure prediction by ZEFSAII (Michael W. Deem and Ramdas Pophale) SiO2 
 PCOD9410061
Probable space group: P N N A
;
_chemical_formula_sum "Si O2"
_cell_formula_units_Z 36
_cell_length_a 10.203537
_cell_length_b 12.482968
_cell_length_c 11.811015
_cell_angle_alpha 90.000000
_cell_angle_beta 90.000000
_cell_angle_gamma 90.000000
_cell_volume 1504.374010
_symmetry_space_group_name_H-M "P N N A"
_symmetry_group_IT_number 52
_symmetry_cell_setting 'orthorhombic'
loop_
_space_group_symop_operation_xyz
x,y,z
1/2-x,-y,z
x,1/2-y,1/2-z
1/2-x,1/2+y,1/2-z
-x,-y,-z
1/2+x,y,-z
-x,1/2+y,1/2+z
1/2+x,1/2-y,1/2+z
loop_
_atom_site_type_symbol
_atom_site_label
_atom_site_fract_x
_atom_site_fract_y
_atom_site_fract_z
Si Si1 0.107129 0.972199 0.199594
Si Si2 0.850371 0.406653 0.351873
Si Si3 0.335294 0.332165 0.909177
Si Si4 0.372979 0.611127 0.082433
Si Si5 0.305157 0.250000 0.250000
O O1 0.103403 0.844176 0.201311
O O2 0.250000 0.000000 0.151824
O O3 0.110790 0.011421 0.331420
O O4 0.994370 0.040419 0.140504
O O5 0.750000 0.500000 0.378997
O O6 0.834323 0.370554 0.220781
O O7 0.825549 0.296612 0.417485
O O8 0.480540 0.359141 0.952690
O O9 0.218685 0.390160 0.973923
O O10 0.295684 0.697860 0.160248
#
# Coordination Sequence:
#
# PCOD9410061 Si02
#       5
#     8   8   8   8   4
#     4   9  19  37  61  86 117 158 198 239 296 360
#     4  10  22  40  61  88 123 160 201 252 305 353
#     4  10  22  41  62  88 123 160 202 251 301 359
#     4  10  21  40  63  89 120 160 203 248 301 358
#     4  10  20  38  62  88 120 158 202 248 298 364
#
# _framework density 23.930219000000001
#
# number of rings (size 3 to 8) (size 9 to 14) (size 15 to 20)
#    0.000    2.222    0.000    4.000    0.000    9.778 
#    0.000   24.444    0.000    0.000    0.000    0.000 
#    0.000    0.000    0.000    0.000    0.000    0.000 
#
# Total GULP energy -201411.945751 kJ/mol
# GULP energy per Si atom -5594.776271 kJ/mol
# Density = 2.387575 g / cm^3
# Si number density = 23.930219 Si / 1000 Ang^3
#
#
#
# Elastic Constant Matrix: (Units=GPa)
#
#
# Indices 1 2 3 4 5 6 
#
# 1 115.7909 30.8410 29.2406 0.0000 0.0000 0.0000
# 2 30.8410 159.4820 18.6277 0.0000 0.0000 0.0000
# 3 29.2406 18.6277 68.7289 0.0000 0.0000 0.0000
# 4 0.0000 0.0000 0.0000 8.1310 0.0000 0.0000
# 5 0.0000 0.0000 0.0000 0.0000 -1.3836 0.0000
# 6 0.0000 0.0000 0.0000 0.0000 0.0000 64.0322
#
#
#
# Elastic Compliance Matrix: (Units=1/GPa)
#
#
# Indices 1 2 3 4 5 6 
#
# 1 0.010005 -0.001485 -0.003854 0.000000 0.000000 0.000000
# 2 -0.001485 0.006696 -0.001183 0.000000 0.000000 0.000000
# 3 -0.003854 -0.001183 0.016510 0.000000 0.000000 0.000000
# 4 0.000000 0.000000 0.000000 0.122986 0.000000 0.000000
# 5 0.000000 0.000000 0.000000 0.000000 -0.722728 0.000000
# 6 0.000000 0.000000 0.000000 0.000000 0.000000 0.015617
#
#
# Mechanical properties :
#
#
# Convention : Reuss Voigt Hill
#
# Bulk Modulus (GPa) = 49.58580 55.71338 52.64959
# Shear Modulus (GPa) = -9.41358 31.84206 11.21424
#
# Velocity S-wave (km/s) = -1.98552 3.65173 2.16712
# Velocity P-wave (km/s) = 3.93822 6.41189 5.32080
#
# Compressibility (1/GPa) = 0.02016706
#
# Stress axis : x y z
#
# Youngs Moduli (GPa) = 99.95006 149.35214 60.56803
#
# Poissons Ratio (x) = 0.22173 0.23344
# Poissons Ratio (y) = 0.14839 0.07166
# Poissons Ratio (z) = 0.38523 0.17670
#
# Static dielectric constant tensor:
#      x y z
#    x 1.877670 0.000000 0.000000 
#    y 0.000000 1.966730 0.000000 
#    z 0.000000 0.000000 1.961230 
# 
# From -- ./inp_files/17732.got.cif
#   From: 2010.05.17/outbox.cif.g08.bks.cpg/sg52_9_cif.got.tgz:17732.got - 2010.06.03 12:15:38.
