data_PCOD9410247
_publ_section_title
;
Structure prediction by ZEFSAII (Michael W. Deem and Ramdas Pophale) SiO2 
 PCOD9410247
Probable space group: P N N A
;
_chemical_formula_sum "Si O2"
_cell_formula_units_Z 56
_cell_length_a 5.548259
_cell_length_b 13.983247
_cell_length_c 32.655489
_cell_angle_alpha 90.000000
_cell_angle_beta 90.000000
_cell_angle_gamma 90.000000
_cell_volume 2533.500223
_symmetry_space_group_name_H-M "P N N A"
_symmetry_group_IT_number 52
_symmetry_cell_setting 'orthorhombic'
loop_
_space_group_symop_operation_xyz
x,y,z
1/2-x,-y,z
x,1/2-y,1/2-z
1/2-x,1/2+y,1/2-z
-x,-y,-z
1/2+x,y,-z
-x,1/2+y,1/2+z
1/2+x,1/2-y,1/2+z
loop_
_atom_site_type_symbol
_atom_site_label
_atom_site_fract_x
_atom_site_fract_y
_atom_site_fract_z
Si Si1 0.355986 0.398468 0.349519
Si Si2 0.162060 0.398530 0.914724
Si Si3 0.123215 0.592886 0.166869
Si Si4 0.999764 0.237512 0.370202
Si Si5 0.637639 0.256282 0.295247
Si Si6 0.006904 0.443137 0.565523
Si Si7 0.063327 0.763611 0.475668
O O1 0.250000 0.500000 0.336749
O O2 0.459704 0.340613 0.310798
O O3 0.544167 0.418560 0.386151
O O4 0.157014 0.333315 0.373354
O O5 0.250000 0.500000 0.932759
O O6 0.352129 0.311444 0.906950
O O7 0.960863 0.346611 0.941634
O O8 0.064838 0.425764 0.869583
O O9 0.250000 0.500000 0.183322
O O10 0.320035 0.656160 0.144241
O O11 0.007847 0.657661 0.201195
O O12 0.827702 0.255580 0.331707
O O13 0.743677 0.250000 0.250000
O O14 0.250000 0.500000 0.551653
O O15 0.968637 0.342938 0.542582
O O16 0.750000 0.500000 0.562038
O O17 0.824652 0.774700 0.503790
#
# Coordination Sequence:
#
# PCOD9410247 Si02
#       7
#     8   8   8   8   8   8   8
#     4  10  24  40  70  99 128 176 236 291 340 408
#     4  11  24  42  72  97 130 179 230 289 345 408
#     4  10  20  39  68  95 122 167 233 283 332 400
#     4  10  21  40  66  93 131 169 230 280 340 401
#     4  10  23  39  59  95 140 179 218 278 353 422
#     4  11  25  45  77 104 136 184 239 294 350 411
#     4  12  29  45  68 104 150 185 227 282 354 434
#
# _framework density 22.103808000000001
#
# number of rings (size 3 to 8) (size 9 to 14) (size 15 to 20)
#    0.000    1.429    1.429    3.429   12.000    5.143 
#    0.000    1.429    0.000    0.000    0.000    0.000 
#    0.000    0.000    0.000    0.000    0.000    0.000 
#
# Total GULP energy -312637.822131 kJ/mol
# GULP energy per Si atom -5582.818252 kJ/mol
# Density = 2.205350 g / cm^3
# Si number density = 22.103808 Si / 1000 Ang^3
#
#
#
# Elastic Constant Matrix: (Units=GPa)
#
#
# Indices 1 2 3 4 5 6 
#
# 1 80.1650 28.0571 12.4921 0.0000 0.0000 0.0000
# 2 28.0571 122.0438 10.5945 0.0000 0.0000 0.0000
# 3 12.4921 10.5945 53.7305 0.0000 0.0000 0.0000
# 4 0.0000 0.0000 0.0000 86.4336 0.0000 0.0000
# 5 0.0000 0.0000 0.0000 0.0000 24.8652 0.0000
# 6 0.0000 0.0000 0.0000 0.0000 0.0000 28.0371
#
#
#
# Elastic Compliance Matrix: (Units=1/GPa)
#
#
# Indices 1 2 3 4 5 6 
#
# 1 0.013928 -0.002972 -0.002652 0.000000 0.000000 0.000000
# 2 -0.002972 0.008971 -0.001078 0.000000 0.000000 0.000000
# 3 -0.002652 -0.001078 0.019441 0.000000 0.000000 0.000000
# 4 0.000000 0.000000 0.000000 0.011570 0.000000 0.000000
# 5 0.000000 0.000000 0.000000 0.000000 0.040217 0.000000
# 6 0.000000 0.000000 0.000000 0.000000 0.000000 0.035667
#
#
# Mechanical properties :
#
#
# Convention : Reuss Voigt Hill
#
# Bulk Modulus (GPa) = 34.55990 39.80298 37.18144
# Shear Modulus (GPa) = 32.71380 41.52021 37.11701
#
# Velocity S-wave (km/s) = 3.85126 4.33878 4.10227
# Velocity P-wave (km/s) = 5.95361 6.56859 6.26865
#
# Compressibility (1/GPa) = 0.02893527
#
# Stress axis : x y z
#
# Youngs Moduli (GPa) = 71.79983 111.47634 51.43885
#
# Poissons Ratio (x) = 0.33127 0.13642
# Poissons Ratio (y) = 0.21336 0.05545
# Poissons Ratio (z) = 0.19042 0.12016
#
# Static dielectric constant tensor:
#      x y z
#    x 1.713170 0.000000 0.000000 
#    y 0.000000 1.859280 0.000000 
#    z 0.000000 0.000000 1.797970 
# 
# From -- ./inp_files/43799.got.cif
#   From: 2010.05.17/outbox.cif.g08.bks.cpg/sg52_22_cif.got.tgz:43799.got - 2010.06.03 12:15:38.
