data_PCOD9410034
_publ_section_title
;
Structure prediction by ZEFSAII (Michael W. Deem and Ramdas Pophale) SiO2 
 PCOD9410034
Probable space group: P N N A
;
_chemical_formula_sum "Si O2"
_cell_formula_units_Z 40
_cell_length_a 12.190101
_cell_length_b 10.915521
_cell_length_c 14.077195
_cell_angle_alpha 90.000000
_cell_angle_beta 90.000000
_cell_angle_gamma 90.000000
_cell_volume 1873.129916
_symmetry_space_group_name_H-M "P N N A"
_symmetry_group_IT_number 52
_symmetry_cell_setting 'orthorhombic'
loop_
_space_group_symop_operation_xyz
x,y,z
1/2-x,-y,z
x,1/2-y,1/2-z
1/2-x,1/2+y,1/2-z
-x,-y,-z
1/2+x,y,-z
-x,1/2+y,1/2+z
1/2+x,1/2-y,1/2+z
loop_
_atom_site_type_symbol
_atom_site_label
_atom_site_fract_x
_atom_site_fract_y
_atom_site_fract_z
Si Si1 0.250000 0.500000 0.826466
Si Si2 0.407407 0.601409 0.983693
Si Si3 0.250000 0.000000 0.051958
Si Si4 0.251494 0.750000 0.750000
Si Si5 0.750000 0.500000 0.866791
Si Si6 0.092138 0.142115 0.913063
Si Si7 0.610980 0.882921 0.794544
O O1 0.345910 0.556494 0.889465
O O2 0.196874 0.620014 0.776682
O O3 0.453004 0.738440 0.969373
O O4 0.500000 0.500000 0.000000
O O5 0.312010 0.595433 0.064048
O O6 0.202865 0.896354 0.123235
O O7 0.344791 0.946463 0.984739
O O8 0.323221 0.799071 0.838305
O O9 0.654620 0.543375 0.795839
O O10 0.999328 0.079190 0.849028
O O11 0.592484 0.750000 0.750000
#
# Coordination Sequence:
#
# PCOD9410034 Si02
#       7
#     4   8   4   4   4   8   8
#     4   9  21  37  61  94 128 172 211 273 329 393
#     4  10  21  39  65  93 124 166 217 267 329 395
#     4  11  25  41  65  96 130 168 225 275 331 409
#     4  10  20  38  60  92 130 172 218 264 334 392
#     4  10  22  38  62  92 120 158 212 260 312 392
#     4  11  22  39  63  92 127 170 213 265 336 395
#     4  11  22  41  66  88 125 169 208 268 331 390
#
# _framework density 21.354631999999999
#
# number of rings (size 3 to 8) (size 9 to 14) (size 15 to 20)
#    0.000    1.600    1.000    3.600    2.800    3.200 
#    0.000    2.000    2.200    0.000    0.000    0.000 
#    0.000    0.000    0.000    0.000    0.000    0.000 
#
# Total GULP energy -222892.266415 kJ/mol
# GULP energy per Si atom -5572.306660 kJ/mol
# Density = 2.130603 g / cm^3
# Si number density = 21.354632 Si / 1000 Ang^3
#
#
#
# Elastic Constant Matrix: (Units=GPa)
#
#
# Indices 1 2 3 4 5 6 
#
# 1 53.1360 20.4580 23.0533 0.0000 0.0000 0.0000
# 2 20.4580 73.6628 35.4049 0.0000 0.0000 0.0000
# 3 23.0533 35.4049 107.3765 0.0000 0.0000 0.0000
# 4 0.0000 0.0000 0.0000 14.0589 0.0000 0.0000
# 5 0.0000 0.0000 0.0000 0.0000 32.7067 0.0000
# 6 0.0000 0.0000 0.0000 0.0000 0.0000 30.6526
#
#
#
# Elastic Compliance Matrix: (Units=1/GPa)
#
#
# Indices 1 2 3 4 5 6 
#
# 1 0.021968 -0.004556 -0.003214 0.000000 0.000000 0.000000
# 2 -0.004556 0.017077 -0.004652 0.000000 0.000000 0.000000
# 3 -0.003214 -0.004652 0.011537 0.000000 0.000000 0.000000
# 4 0.000000 0.000000 0.000000 0.071129 0.000000 0.000000
# 5 0.000000 0.000000 0.000000 0.000000 0.030575 0.000000
# 6 0.000000 0.000000 0.000000 0.000000 0.000000 0.032624
#
#
# Mechanical properties :
#
#
# Convention : Reuss Voigt Hill
#
# Bulk Modulus (GPa) = 38.85540 43.55641 41.20591
# Shear Modulus (GPa) = 22.90060 25.83426 24.36743
#
# Velocity S-wave (km/s) = 3.27830 3.48195 3.38166
# Velocity P-wave (km/s) = 5.70653 6.05031 5.88093
#
# Compressibility (1/GPa) = 0.02573645
#
# Stress axis : x y z
#
# Youngs Moduli (GPa) = 45.52004 58.55861 86.67654
#
# Poissons Ratio (x) = 0.26681 0.27859
# Poissons Ratio (y) = 0.20740 0.40326
# Poissons Ratio (z) = 0.14631 0.27244
#
# Static dielectric constant tensor:
#      x y z
#    x 1.813070 0.000000 0.000000 
#    y 0.000000 1.840380 0.000000 
#    z 0.000000 0.000000 1.800220 
# 
# From -- ./inp_files/25906.got.cif
#   From: 2010.05.17/outbox.cif.g08.bks.cpg/sg52_13_cif.got.tgz:25906.got - 2010.06.03 12:15:38.
