data_PCOD9410821
_publ_section_title
;
Structure prediction by ZEFSAII (Michael W. Deem and Ramdas Pophale) SiO2 
 PCOD9410821
Probable space group: P N N A
;
_chemical_formula_sum "Si O2"
_cell_formula_units_Z 28
_cell_length_a 22.043059
_cell_length_b 8.007280
_cell_length_c 7.610355
_cell_angle_alpha 90.000000
_cell_angle_beta 90.000000
_cell_angle_gamma 90.000000
_cell_volume 1343.265294
_symmetry_space_group_name_H-M "P N N A"
_symmetry_group_IT_number 52
_symmetry_cell_setting 'orthorhombic'
loop_
_space_group_symop_operation_xyz
x,y,z
1/2-x,-y,z
x,1/2-y,1/2-z
1/2-x,1/2+y,1/2-z
-x,-y,-z
1/2+x,y,-z
-x,1/2+y,1/2+z
1/2+x,1/2-y,1/2+z
loop_
_atom_site_type_symbol
_atom_site_label
_atom_site_fract_x
_atom_site_fract_y
_atom_site_fract_z
Si Si1 0.634630 0.750000 0.250000
Si Si2 0.696807 0.874767 0.895715
Si Si3 0.923997 0.556966 0.693102
Si Si4 0.551794 0.060218 0.220826
O O1 0.672680 0.707367 0.424392
O O2 0.592749 0.589343 0.205050
O O3 0.722386 0.750000 0.750000
O O4 0.750000 0.000000 0.945321
O O5 0.640144 0.964534 0.796856
O O6 0.920916 0.750000 0.750000
O O7 0.940201 0.544338 0.487957
O O8 0.982233 0.468210 0.781468
O O9 0.571531 0.250000 0.250000
#
# Coordination Sequence:
#
# PCOD9410821 Si02
#       4
#     4   8   8   8
#     4  10  24  46  66 102 134 168 230 276 328 404
#     4  11  25  45  66  97 131 179 229 275 336 398
#     4  10  21  38  61  97 131 167 220 269 328 397
#     4  10  21  38  64  97 130 171 213 269 337 390
#
# _framework density 20.844729999999998
#
# number of rings (size 3 to 8) (size 9 to 14) (size 15 to 20)
#    0.000    1.714    1.429    1.714    4.000    2.286 
#   10.286    0.000    0.000    0.000    0.000    0.000 
#    0.000    0.000    0.000    0.000    0.000    0.000 
#
# Total GULP energy -156298.784906 kJ/mol
# GULP energy per Si atom -5582.099461 kJ/mol
# Density = 2.079729 g / cm^3
# Si number density = 20.844730 Si / 1000 Ang^3
#
#
#
# Elastic Constant Matrix: (Units=GPa)
#
#
# Indices 1 2 3 4 5 6 
#
# 1 96.3322 61.1316 48.1402 0.0000 0.0000 0.0000
# 2 61.1316 149.0798 33.6300 0.0000 0.0000 0.0000
# 3 48.1402 33.6300 65.6599 0.0000 0.0000 0.0000
# 4 0.0000 0.0000 0.0000 42.8284 0.0000 0.0000
# 5 0.0000 0.0000 0.0000 0.0000 39.7155 0.0000
# 6 0.0000 0.0000 0.0000 0.0000 0.0000 62.4894
#
#
#
# Elastic Compliance Matrix: (Units=1/GPa)
#
#
# Indices 1 2 3 4 5 6 
#
# 1 0.019628 -0.005430 -0.011610 0.000000 0.000000 0.000000
# 2 -0.005430 0.009086 -0.000673 0.000000 0.000000 0.000000
# 3 -0.011610 -0.000673 0.024087 0.000000 0.000000 0.000000
# 4 0.000000 0.000000 0.000000 0.023349 0.000000 0.000000
# 5 0.000000 0.000000 0.000000 0.000000 0.025179 0.000000
# 6 0.000000 0.000000 0.000000 0.000000 0.000000 0.016003
#
#
# Mechanical properties :
#
#
# Convention : Reuss Voigt Hill
#
# Bulk Modulus (GPa) = 57.55027 66.31950 61.93489
# Shear Modulus (GPa) = 31.53603 40.21800 35.87701
#
# Velocity S-wave (km/s) = 3.89382 4.39727 4.15318
# Velocity P-wave (km/s) = 6.91988 7.59383 7.26468
#
# Compressibility (1/GPa) = 0.01737611
#
# Stress axis : x y z
#
# Youngs Moduli (GPa) = 50.94698 110.05810 41.51671
#
# Poissons Ratio (x) = 0.59759 0.48201
# Poissons Ratio (y) = 0.27663 0.02793
# Poissons Ratio (z) = 0.59149 0.07405
#
# Static dielectric constant tensor:
#      x y z
#    x 1.778150 0.000000 0.000000 
#    y 0.000000 1.857720 0.000000 
#    z 0.000000 0.000000 1.739520 
# 
# From -- ./inp_files/11371.got.cif
#   From: 2010.05.17/outbox.cif.g08.bks.cpg/sg52_6_cif.got.tgz:11371.got - 2010.06.03 12:15:38.
