data_PCOD9410902
_publ_section_title
;
Structure prediction by ZEFSAII (Michael W. Deem and Ramdas Pophale) SiO2 
 PCOD9410902
Probable space group: P N N A
;
_chemical_formula_sum "Si O2"
_cell_formula_units_Z 36
_cell_length_a 12.784035
_cell_length_b 18.814783
_cell_length_c 6.611696
_cell_angle_alpha 90.000000
_cell_angle_beta 90.000000
_cell_angle_gamma 90.000000
_cell_volume 1590.303598
_symmetry_space_group_name_H-M "P N N A"
_symmetry_group_IT_number 52
_symmetry_cell_setting 'orthorhombic'
loop_
_space_group_symop_operation_xyz
x,y,z
1/2-x,-y,z
x,1/2-y,1/2-z
1/2-x,1/2+y,1/2-z
-x,-y,-z
1/2+x,y,-z
-x,1/2+y,1/2+z
1/2+x,1/2-y,1/2+z
loop_
_atom_site_type_symbol
_atom_site_label
_atom_site_fract_x
_atom_site_fract_y
_atom_site_fract_z
Si Si1 0.339334 0.086727 0.661357
Si Si2 0.610299 0.250000 0.750000
Si Si3 0.768402 0.124644 0.761811
Si Si4 0.962227 0.338258 0.480497
Si Si5 0.643034 0.435037 0.380337
O O1 0.327355 0.086547 0.422392
O O2 0.223437 0.108120 0.738789
O O3 0.362928 0.011438 0.771927
O O4 0.424633 0.138534 0.755943
O O5 0.683749 0.183353 0.698131
O O6 0.538132 0.272631 0.560311
O O7 0.856824 0.165845 0.891460
O O8 0.703643 0.070849 0.905202
O O9 0.032086 0.399563 0.583177
#
# Coordination Sequence:
#
# PCOD9410902 Si02
#       5
#     8   4   8   8   8
#     4  10  21  38  67  96 129 181 223 269 354 406
#     4  10  24  44  64  94 142 178 226 282 332 400
#     4  10  23  42  64 101 134 180 230 277 339 413
#     4  10  22  41  64  97 133 177 224 284 338 393
#     4   9  21  41  61  98 139 168 216 295 335 405
#
# _framework density 22.637187000000001
#
# number of rings (size 3 to 8) (size 9 to 14) (size 15 to 20)
#    0.000    2.222    0.000    0.667    3.111   11.556 
#    0.000    2.222    0.000   16.000    0.000    0.000 
#    0.000    0.000    0.000    0.000    0.000    0.000 
#
# Total GULP energy -200856.153572 kJ/mol
# GULP energy per Si atom -5579.337599 kJ/mol
# Density = 2.258566 g / cm^3
# Si number density = 22.637187 Si / 1000 Ang^3
#
#
#
# Elastic Constant Matrix: (Units=GPa)
#
#
# Indices 1 2 3 4 5 6 
#
# 1 121.3635 38.0464 28.5821 0.0000 0.0000 0.0000
# 2 38.0464 94.3762 47.1337 0.0000 0.0000 0.0000
# 3 28.5821 47.1337 113.6191 0.0000 0.0000 0.0000
# 4 0.0000 0.0000 0.0000 20.3349 0.0000 0.0000
# 5 0.0000 0.0000 0.0000 0.0000 16.4694 0.0000
# 6 0.0000 0.0000 0.0000 0.0000 0.0000 28.7016
#
#
#
# Elastic Compliance Matrix: (Units=1/GPa)
#
#
# Indices 1 2 3 4 5 6 
#
# 1 0.009523 -0.003333 -0.001013 0.000000 0.000000 0.000000
# 2 -0.003333 0.014532 -0.005190 0.000000 0.000000 0.000000
# 3 -0.001013 -0.005190 0.011209 0.000000 0.000000 0.000000
# 4 0.000000 0.000000 0.000000 0.049177 0.000000 0.000000
# 5 0.000000 0.000000 0.000000 0.000000 0.060719 0.000000
# 6 0.000000 0.000000 0.000000 0.000000 0.000000 0.034841
#
#
# Mechanical properties :
#
#
# Convention : Reuss Voigt Hill
#
# Bulk Modulus (GPa) = 61.75895 61.87590 61.81743
# Shear Modulus (GPa) = 24.45352 27.47428 25.96390
#
# Velocity S-wave (km/s) = 3.29026 3.48757 3.39035
# Velocity P-wave (km/s) = 6.46341 6.60383 6.53400
#
# Compressibility (1/GPa) = 0.01619198
#
# Stress axis : x y z
#
# Youngs Moduli (GPa) = 105.00660 68.81590 89.21368
#
# Poissons Ratio (x) = 0.22938 0.09036
# Poissons Ratio (y) = 0.35002 0.46299
# Poissons Ratio (z) = 0.10636 0.35714
#
# Static dielectric constant tensor:
#      x y z
#    x 1.829960 0.000000 0.000000 
#    y 0.000000 1.883320 0.000000 
#    z 0.000000 0.000000 1.858140 
# 
# From -- ./inp_files/1266.got.cif
#   From: 2010.05.17/outbox.cif.g08.bks.cpg/sg52_1_cif.got.tgz:1266.got - 2010.06.03 12:15:38.
