data_PCOD9410756
_publ_section_title
;
Structure prediction by ZEFSAII (Michael W. Deem and Ramdas Pophale) SiO2 
 PCOD9410756
Probable space group: P N N A
;
_chemical_formula_sum "Si O2"
_cell_formula_units_Z 32
_cell_length_a 14.565561
_cell_length_b 7.856919
_cell_length_c 12.846554
_cell_angle_alpha 90.000000
_cell_angle_beta 90.000000
_cell_angle_gamma 90.000000
_cell_volume 1470.165202
_symmetry_space_group_name_H-M "P N N A"
_symmetry_group_IT_number 52
_symmetry_cell_setting 'orthorhombic'
loop_
_space_group_symop_operation_xyz
x,y,z
1/2-x,-y,z
x,1/2-y,1/2-z
1/2-x,1/2+y,1/2-z
-x,-y,-z
1/2+x,y,-z
-x,1/2+y,1/2+z
1/2+x,1/2-y,1/2+z
loop_
_atom_site_type_symbol
_atom_site_label
_atom_site_fract_x
_atom_site_fract_y
_atom_site_fract_z
Si Si1 0.250000 0.000000 0.191784
Si Si2 0.033305 0.356523 0.918107
Si Si3 0.779277 0.812817 0.011131
Si Si4 0.334713 0.103878 0.673239
Si Si5 0.103210 0.750000 0.250000
O O1 0.274229 0.843706 0.112935
O O2 0.164837 0.921416 0.252858
O O3 0.083153 0.474110 0.834070
O O4 0.956328 0.251943 0.856433
O O5 0.117269 0.242718 0.961634
O O6 0.000000 0.500000 0.000000
O O7 0.750000 0.000000 0.050633
O O8 0.707176 0.682246 0.065094
O O9 0.361635 0.250000 0.750000
O O10 0.250000 0.000000 0.718364
#
# Coordination Sequence:
#
# PCOD9410756 Si02
#       5
#     4   8   8   8   4
#     4  10  26  46  70  84 142 182 238 264 358 416
#     4  11  26  42  66 102 138 167 237 288 340 408
#     4   9  22  43  70  95 132 184 217 279 348 416
#     4  10  21  37  66  96 133 169 212 276 343 405
#     4  12  28  44  68 102 128 188 230 288 340 420
#
# _framework density 21.766262000000001
#
# number of rings (size 3 to 8) (size 9 to 14) (size 15 to 20)
#    0.750    1.000    0.000    2.250   14.000    3.000 
#    0.000    0.000    0.000    0.000    0.000    0.000 
#    0.000    0.000    0.000    0.000    0.000    0.000 
#
# Total GULP energy -178328.440346 kJ/mol
# GULP energy per Si atom -5572.763761 kJ/mol
# Density = 2.171672 g / cm^3
# Si number density = 21.766262 Si / 1000 Ang^3
#
#
#
# Elastic Constant Matrix: (Units=GPa)
#
#
# Indices 1 2 3 4 5 6 
#
# 1 88.5171 26.1959 12.1156 0.0000 0.0000 0.0000
# 2 26.1959 72.6458 -7.4733 0.0000 0.0000 0.0000
# 3 12.1156 -7.4733 37.9501 0.0000 0.0000 0.0000
# 4 0.0000 0.0000 0.0000 42.6938 0.0000 0.0000
# 5 0.0000 0.0000 0.0000 0.0000 43.3614 0.0000
# 6 0.0000 0.0000 0.0000 0.0000 0.0000 42.2876
#
#
#
# Elastic Compliance Matrix: (Units=1/GPa)
#
#
# Indices 1 2 3 4 5 6 
#
# 1 0.013667 -0.005488 -0.005444 0.000000 0.000000 0.000000
# 2 -0.005488 0.016254 0.004953 0.000000 0.000000 0.000000
# 3 -0.005444 0.004953 0.029064 0.000000 0.000000 0.000000
# 4 0.000000 0.000000 0.000000 0.023423 0.000000 0.000000
# 5 0.000000 0.000000 0.000000 0.000000 0.023062 0.000000
# 6 0.000000 0.000000 0.000000 0.000000 0.000000 0.023648
#
#
# Mechanical properties :
#
#
# Convention : Reuss Voigt Hill
#
# Bulk Modulus (GPa) = 21.26482 28.97661 25.12071
# Shear Modulus (GPa) = 31.89797 36.88689 34.39243
#
# Velocity S-wave (km/s) = 3.83231 4.12112 3.97933
# Velocity P-wave (km/s) = 5.41968 5.99886 5.71661
#
# Compressibility (1/GPa) = 0.04702604
#
# Stress axis : x y z
#
# Youngs Moduli (GPa) = 73.17140 61.52348 34.40722
#
# Poissons Ratio (x) = 0.33765 0.18731
# Poissons Ratio (y) = 0.40158 -0.17042
# Poissons Ratio (z) = 0.39833 -0.30472
#
# Static dielectric constant tensor:
#      x y z
#    x 1.664070 0.000000 0.000000 
#    y 0.000000 1.712000 0.000000 
#    z 0.000000 0.000000 1.871790 
# 
# From -- ./inp_files/18917.got.cif
#   From: 2010.05.17/outbox.cif.g08.bks.cpg/sg52_10_cif.got.tgz:18917.got - 2010.06.03 12:15:38.
