data_PCOD9410045
_publ_section_title
;
Structure prediction by ZEFSAII (Michael W. Deem and Ramdas Pophale) SiO2 
 PCOD9410045
Probable space group: P N N A
;
_chemical_formula_sum "Si O2"
_cell_formula_units_Z 40
_cell_length_a 10.237710
_cell_length_b 11.415533
_cell_length_c 13.362824
_cell_angle_alpha 90.000000
_cell_angle_beta 90.000000
_cell_angle_gamma 90.000000
_cell_volume 1561.698760
_symmetry_space_group_name_H-M "P N N A"
_symmetry_group_IT_number 52
_symmetry_cell_setting 'orthorhombic'
loop_
_space_group_symop_operation_xyz
x,y,z
1/2-x,-y,z
x,1/2-y,1/2-z
1/2-x,1/2+y,1/2-z
-x,-y,-z
1/2+x,y,-z
-x,1/2+y,1/2+z
1/2+x,1/2-y,1/2+z
loop_
_atom_site_type_symbol
_atom_site_label
_atom_site_fract_x
_atom_site_fract_y
_atom_site_fract_z
Si Si1 0.150347 0.149421 0.891328
Si Si2 0.898328 0.169150 0.997504
Si Si3 0.779804 0.136431 0.779467
Si Si4 0.377197 0.921918 0.671510
Si Si5 0.379085 0.420016 0.070647
O O1 0.099878 0.087814 0.790838
O O2 0.143723 0.289156 0.867913
O O3 0.048497 0.130441 0.983053
O O4 0.300258 0.121436 0.918827
O O5 0.829395 0.140161 0.892161
O O6 0.892006 0.310283 0.002769
O O7 0.687987 0.250000 0.750000
O O8 0.870550 0.147652 0.680763
O O9 0.750000 0.000000 0.767691
O O10 0.484678 0.981062 0.598838
O O11 0.250000 0.000000 0.662218
O O12 0.250000 0.500000 0.057431
#
# Coordination Sequence:
#
# PCOD9410045 Si02
#       5
#     8   8   8   8   8
#     4  10  22  41  60  88 122 165 206 254 322 384
#     4  10  20  38  61  87 125 162 204 259 318 380
#     4   9  17  34  60  88 121 164 209 258 312 375
#     4  10  21  41  63  83 121 164 206 259 319 380
#     4   9  18  36  64  88 113 161 215 256 309 380
#
# _framework density 25.613133999999999
#
# number of rings (size 3 to 8) (size 9 to 14) (size 15 to 20)
#    0.000    2.400    2.000    0.000    0.000    3.200 
#    7.200    6.000    0.000    0.000    0.000    0.000 
#    0.000    0.000    0.000    0.000    0.000    0.000 
#
# Total GULP energy -222893.020014 kJ/mol
# GULP energy per Si atom -5572.325500 kJ/mol
# Density = 2.555484 g / cm^3
# Si number density = 25.613134 Si / 1000 Ang^3
#
#
#
# Elastic Constant Matrix: (Units=GPa)
#
#
# Indices 1 2 3 4 5 6 
#
# 1 160.3389 31.3950 21.3587 0.0000 0.0000 0.0000
# 2 31.3950 109.6120 29.6432 0.0000 0.0000 0.0000
# 3 21.3587 29.6432 54.6632 0.0000 0.0000 0.0000
# 4 0.0000 0.0000 0.0000 56.6512 0.0000 0.0000
# 5 0.0000 0.0000 0.0000 0.0000 33.8770 0.0000
# 6 0.0000 0.0000 0.0000 0.0000 0.0000 27.8185
#
#
#
# Elastic Compliance Matrix: (Units=1/GPa)
#
#
# Indices 1 2 3 4 5 6 
#
# 1 0.006766 -0.001433 -0.001867 0.000000 0.000000 0.000000
# 2 -0.001433 0.010995 -0.005402 0.000000 0.000000 0.000000
# 3 -0.001867 -0.005402 0.021953 0.000000 0.000000 0.000000
# 4 0.000000 0.000000 0.000000 0.017652 0.000000 0.000000
# 5 0.000000 0.000000 0.000000 0.000000 0.029519 0.000000
# 6 0.000000 0.000000 0.000000 0.000000 0.000000 0.035947
#
#
# Mechanical properties :
#
#
# Convention : Reuss Voigt Hill
#
# Bulk Modulus (GPa) = 44.82397 54.37865 49.60131
# Shear Modulus (GPa) = 33.85894 39.81712 36.83803
#
# Velocity S-wave (km/s) = 3.63979 3.94707 3.79654
# Velocity P-wave (km/s) = 5.93317 6.48454 6.21497
#
# Compressibility (1/GPa) = 0.02230949
#
# Stress axis : x y z
#
# Youngs Moduli (GPa) = 147.79679 90.95429 45.55240
#
# Poissons Ratio (x) = 0.13035 0.08503
# Poissons Ratio (y) = 0.21181 0.24608
# Poissons Ratio (z) = 0.27587 0.49136
#
# Static dielectric constant tensor:
#      x y z
#    x 2.291510 0.000000 0.000000 
#    y 0.000000 2.101860 0.000000 
#    z 0.000000 0.000000 2.139510 
# 
# From -- ./inp_files/24410.got.cif
#   From: 2010.05.17/outbox.cif.g08.bks.cpg/sg52_13_cif.got.tgz:24410.got - 2010.06.03 12:15:38.
