data_PCOD9410787
_publ_section_title
;
Structure prediction by ZEFSAII (Michael W. Deem and Ramdas Pophale) SiO2 
 PCOD9410787
Probable space group: P N N A
;
_chemical_formula_sum "Si O2"
_cell_formula_units_Z 32
_cell_length_a 37.042175
_cell_length_b 5.091657
_cell_length_c 8.653450
_cell_angle_alpha 90.000000
_cell_angle_beta 90.000000
_cell_angle_gamma 90.000000
_cell_volume 1632.093020
_symmetry_space_group_name_H-M "P N N A"
_symmetry_group_IT_number 52
_symmetry_cell_setting 'orthorhombic'
loop_
_space_group_symop_operation_xyz
x,y,z
1/2-x,-y,z
x,1/2-y,1/2-z
1/2-x,1/2+y,1/2-z
-x,-y,-z
1/2+x,y,-z
-x,1/2+y,1/2+z
1/2+x,1/2-y,1/2+z
loop_
_atom_site_type_symbol
_atom_site_label
_atom_site_fract_x
_atom_site_fract_y
_atom_site_fract_z
Si Si1 0.979202 0.253026 0.066098
Si Si2 0.354028 0.743828 0.434955
Si Si3 0.790140 0.504830 0.362681
Si Si4 0.899250 0.246679 0.936131
O O1 0.980778 0.250000 0.250000
O O2 0.937840 0.283318 0.012644
O O3 0.000000 0.500000 0.000000
O O4 0.000000 0.000000 0.000000
O O5 0.348013 0.750000 0.250000
O O6 0.320176 0.600616 0.515829
O O7 0.386097 0.544495 0.474726
O O8 0.368822 0.033989 0.479335
O O9 0.750000 0.500000 0.436354
O O10 0.788150 0.750000 0.250000
O O11 0.796876 0.250000 0.250000
O O12 0.903039 0.250000 0.750000
#
# Coordination Sequence:
#
# PCOD9410787 Si02
#       4
#     8   8   8   8
#     4  12  25  42  64  91 122 160 203 248 301 359
#     4  10  21  38  60  87 118 155 198 247 300 354
#     4  10  21  38  59  85 119 158 198 245 300 356
#     4  10  21  38  60  87 120 155 196 248 302 355
#
# _framework density 19.606726999999999
#
# number of rings (size 3 to 8) (size 9 to 14) (size 15 to 20)
#    0.000    1.500    0.000    5.250    0.000    5.000 
#    0.000    7.500    0.000    0.000    0.000    0.000 
#    0.000    0.000    0.000    0.000    0.000    0.000 
#
# Total GULP energy -178416.306688 kJ/mol
# GULP energy per Si atom -5575.509584 kJ/mol
# Density = 1.956210 g / cm^3
# Si number density = 19.606727 Si / 1000 Ang^3
#
#
#
# Elastic Constant Matrix: (Units=GPa)
#
#
# Indices 1 2 3 4 5 6 
#
# 1 137.3485 36.1956 71.7460 0.0000 0.0000 0.0000
# 2 36.1956 137.0497 41.9010 0.0000 0.0000 0.0000
# 3 71.7460 41.9010 69.6282 0.0000 0.0000 0.0000
# 4 0.0000 0.0000 0.0000 23.1429 0.0000 0.0000
# 5 0.0000 0.0000 0.0000 0.0000 328.6003 0.0000
# 6 0.0000 0.0000 0.0000 0.0000 0.0000 32.8951
#
#
#
# Elastic Compliance Matrix: (Units=1/GPa)
#
#
# Indices 1 2 3 4 5 6 
#
# 1 0.015877 0.000991 -0.016956 0.000000 0.000000 0.000000
# 2 0.000991 0.009004 -0.006439 0.000000 0.000000 0.000000
# 3 -0.016956 -0.006439 0.035709 0.000000 0.000000 0.000000
# 4 0.000000 0.000000 0.000000 0.043210 0.000000 0.000000
# 5 0.000000 0.000000 0.000000 0.000000 0.003043 0.000000
# 6 0.000000 0.000000 0.000000 0.000000 0.000000 0.030400
#
#
# Mechanical properties :
#
#
# Convention : Reuss Voigt Hill
#
# Bulk Modulus (GPa) = 63.36956 71.52353 67.44654
# Shear Modulus (GPa) = 26.69357 89.87325 58.28341
#
# Velocity S-wave (km/s) = 3.69379 6.77772 5.45809
# Velocity P-wave (km/s) = 7.11214 9.88980 8.61367
#
# Compressibility (1/GPa) = 0.01578045
#
# Stress axis : x y z
#
# Youngs Moduli (GPa) = 62.98472 111.06629 28.00428
#
# Poissons Ratio (x) = -0.11006 0.47484
# Poissons Ratio (y) = -0.06241 0.18033
# Poissons Ratio (z) = 1.06797 0.71519
#
# Static dielectric constant tensor:
#      x y z
#    x 1.773910 0.000000 0.000000 
#    y 0.000000 1.664860 0.000000 
#    z 0.000000 0.000000 1.643870 
# 
# From -- ./inp_files/15163.got.cif
#   From: 2010.05.17/outbox.cif.g08.bks.cpg/sg52_8_cif.got.tgz:15163.got - 2010.06.03 12:15:38.
