data_PCOD9410335
_publ_section_title
;
Structure prediction by ZEFSAII (Michael W. Deem and Ramdas Pophale) SiO2 
 PCOD9410335
Probable space group: P N N A
;
_chemical_formula_sum "Si O2"
_cell_formula_units_Z 48
_cell_length_a 5.959021
_cell_length_b 13.476602
_cell_length_c 29.759963
_cell_angle_alpha 90.000000
_cell_angle_beta 90.000000
_cell_angle_gamma 90.000000
_cell_volume 2389.943893
_symmetry_space_group_name_H-M "P N N A"
_symmetry_group_IT_number 52
_symmetry_cell_setting 'orthorhombic'
loop_
_space_group_symop_operation_xyz
x,y,z
1/2-x,-y,z
x,1/2-y,1/2-z
1/2-x,1/2+y,1/2-z
-x,-y,-z
1/2+x,y,-z
-x,1/2+y,1/2+z
1/2+x,1/2-y,1/2+z
loop_
_atom_site_type_symbol
_atom_site_label
_atom_site_fract_x
_atom_site_fract_y
_atom_site_fract_z
Si Si1 0.322186 0.398184 0.870176
Si Si2 0.892984 0.904755 0.717902
Si Si3 0.201854 0.884789 0.802185
Si Si4 0.505207 0.114920 0.984388
Si Si5 0.440608 0.259996 0.170799
Si Si6 0.442136 0.701074 0.388274
O O1 0.250000 0.500000 0.894207
O O2 0.469589 0.431296 0.827156
O O3 0.110424 0.340234 0.849650
O O4 0.462541 0.312983 0.895930
O O5 0.735219 0.816310 0.701844
O O6 0.060062 0.873588 0.757051
O O7 0.750000 0.000000 0.732548
O O8 0.428501 0.822031 0.801091
O O9 0.071829 0.842697 0.845285
O O10 0.250000 0.000000 0.808213
O O11 0.522092 0.132959 0.931161
O O12 0.252635 0.154475 0.998168
O O13 0.500000 0.000000 0.000000
O O14 0.312197 0.210434 0.128826
#
# Coordination Sequence:
#
# PCOD9410335 Si02
#       6
#     8   8   8   8   8   8
#     4  10  20  40  68  93 128 175 227 283 333 401
#     4  11  23  41  59  90 126 186 234 274 344 392
#     4  11  27  40  59  91 135 178 221 289 335 406
#     4  10  24  44  74 102 134 180 219 280 345 442
#     4  10  24  43  63  86 134 167 237 281 330 412
#     4  10  25  41  67 101 126 175 226 280 350 411
#
# _framework density 20.084153000000001
#
# number of rings (size 3 to 8) (size 9 to 14) (size 15 to 20)
#    0.000    1.667    1.667    0.500    9.333    8.667 
#    0.000    0.000    0.000    1.000    0.000    0.000 
#    0.000    0.000    0.000    0.000    0.000    0.000 
#
# Total GULP energy -268099.532135 kJ/mol
# GULP energy per Si atom -5585.406919 kJ/mol
# Density = 2.003844 g / cm^3
# Si number density = 20.084153 Si / 1000 Ang^3
#
#
#
# Elastic Constant Matrix: (Units=GPa)
#
#
# Indices 1 2 3 4 5 6 
#
# 1 109.1011 28.8380 14.3675 0.0000 0.0000 0.0000
# 2 28.8380 103.2822 20.8360 0.0000 0.0000 0.0000
# 3 14.3675 20.8360 69.4303 0.0000 0.0000 0.0000
# 4 0.0000 0.0000 0.0000 23.0345 0.0000 0.0000
# 5 0.0000 0.0000 0.0000 0.0000 10.1182 0.0000
# 6 0.0000 0.0000 0.0000 0.0000 0.0000 24.0414
#
#
#
# Elastic Compliance Matrix: (Units=1/GPa)
#
#
# Indices 1 2 3 4 5 6 
#
# 1 0.010007 -0.002530 -0.001312 0.000000 0.000000 0.000000
# 2 -0.002530 0.010946 -0.002761 0.000000 0.000000 0.000000
# 3 -0.001312 -0.002761 0.015503 0.000000 0.000000 0.000000
# 4 0.000000 0.000000 0.000000 0.043413 0.000000 0.000000
# 5 0.000000 0.000000 0.000000 0.000000 0.098831 0.000000
# 6 0.000000 0.000000 0.000000 0.000000 0.000000 0.041595
#
#
# Mechanical properties :
#
#
# Convention : Reuss Voigt Hill
#
# Bulk Modulus (GPa) = 43.00956 45.54407 44.27682
# Shear Modulus (GPa) = 20.72536 25.95699 23.34117
#
# Velocity S-wave (km/s) = 3.21585 3.59891 3.41276
# Velocity P-wave (km/s) = 5.93717 6.32419 6.13374
#
# Compressibility (1/GPa) = 0.02325065
#
# Stress axis : x y z
#
# Youngs Moduli (GPa) = 99.92844 91.36121 64.50349
#
# Poissons Ratio (x) = 0.23110 0.08461
# Poissons Ratio (y) = 0.25277 0.17811
# Poissons Ratio (z) = 0.13108 0.25228
#
# Static dielectric constant tensor:
#      x y z
#    x 1.800580 0.000000 0.000000 
#    y 0.000000 1.718600 0.000000 
#    z 0.000000 0.000000 1.672920 
# 
# From -- ./inp_files/41681.got.cif
#   From: 2010.05.17/outbox.cif.g08.bks.cpg/sg52_21_cif.got.tgz:41681.got - 2010.06.03 12:15:38.
