data_PCOD9410237
_publ_section_title
;
Structure prediction by ZEFSAII (Michael W. Deem and Ramdas Pophale) SiO2 
 PCOD9410237
Probable space group: P N N A
;
_chemical_formula_sum "Si O2"
_cell_formula_units_Z 48
_cell_length_a 16.100071
_cell_length_b 8.895083
_cell_length_c 15.344425
_cell_angle_alpha 90.000000
_cell_angle_beta 90.000000
_cell_angle_gamma 90.000000
_cell_volume 2197.497628
_symmetry_space_group_name_H-M "P N N A"
_symmetry_group_IT_number 52
_symmetry_cell_setting 'orthorhombic'
loop_
_space_group_symop_operation_xyz
x,y,z
1/2-x,-y,z
x,1/2-y,1/2-z
1/2-x,1/2+y,1/2-z
-x,-y,-z
1/2+x,y,-z
-x,1/2+y,1/2+z
1/2+x,1/2-y,1/2+z
loop_
_atom_site_type_symbol
_atom_site_label
_atom_site_fract_x
_atom_site_fract_y
_atom_site_fract_z
Si Si1 0.436948 0.729201 0.924239
Si Si2 0.992740 0.457918 0.195312
Si Si3 0.663181 0.572188 0.770775
Si Si4 0.557231 0.720132 0.437732
Si Si5 0.341305 0.011752 0.477170
Si Si6 0.151966 0.485354 0.672187
O O1 0.485714 0.600660 0.870529
O O2 0.378094 0.821726 0.860071
O O3 0.500432 0.827978 0.980796
O O4 0.385779 0.641951 0.997959
O O5 0.992522 0.301199 0.142187
O O6 0.906493 0.467884 0.247514
O O7 0.075248 0.491457 0.252893
O O8 0.750000 0.500000 0.736143
O O9 0.660152 0.750000 0.750000
O O10 0.664598 0.544899 0.874976
O O11 0.610095 0.857102 0.475822
O O12 0.620318 0.596658 0.403398
O O13 0.250000 0.000000 0.514864
O O14 0.250000 0.500000 0.687865
#
# Coordination Sequence:
#
# PCOD9410237 Si02
#       6
#     8   8   8   8   8   8
#     4  11  21  43  67  93 128 177 225 268 336 407
#     4  11  23  44  70  92 134 178 223 272 333 411
#     4  11  23  42  64  95 129 173 228 279 340 403
#     4  11  22  42  65  96 130 172 224 272 339 400
#     4  10  20  39  67  90 123 170 224 269 330 410
#     4  12  27  41  64 104 139 172 222 288 347 389
#
# _framework density 21.843026999999999
#
# number of rings (size 3 to 8) (size 9 to 14) (size 15 to 20)
#    0.000    1.000    3.333    4.500    0.000    6.667 
#    0.000    0.833    0.000    0.000    0.000    0.000 
#    0.000    0.000    0.000    0.000    0.000    0.000 
#
# Total GULP energy -268044.372841 kJ/mol
# GULP energy per Si atom -5584.257768 kJ/mol
# Density = 2.179331 g / cm^3
# Si number density = 21.843027 Si / 1000 Ang^3
#
#
#
# Elastic Constant Matrix: (Units=GPa)
#
#
# Indices 1 2 3 4 5 6 
#
# 1 171.1880 13.0739 16.9890 0.0000 0.0000 0.0000
# 2 13.0739 46.9614 -11.7951 0.0000 0.0000 0.0000
# 3 16.9890 -11.7951 49.1266 0.0000 0.0000 0.0000
# 4 0.0000 0.0000 0.0000 19.9245 0.0000 0.0000
# 5 0.0000 0.0000 0.0000 0.0000 29.0694 0.0000
# 6 0.0000 0.0000 0.0000 0.0000 0.0000 17.5355
#
#
#
# Elastic Compliance Matrix: (Units=1/GPa)
#
#
# Indices 1 2 3 4 5 6 
#
# 1 0.006303 -0.002450 -0.002768 0.000000 0.000000 0.000000
# 2 -0.002450 0.023613 0.006517 0.000000 0.000000 0.000000
# 3 -0.002768 0.006517 0.022877 0.000000 0.000000 0.000000
# 4 0.000000 0.000000 0.000000 0.050190 0.000000 0.000000
# 5 0.000000 0.000000 0.000000 0.000000 0.034400 0.000000
# 6 0.000000 0.000000 0.000000 0.000000 0.000000 0.057027
#
#
# Mechanical properties :
#
#
# Convention : Reuss Voigt Hill
#
# Bulk Modulus (GPa) = 18.05358 33.75686 25.90522
# Shear Modulus (GPa) = 23.77810 29.90642 26.84226
#
# Velocity S-wave (km/s) = 3.30296 3.70422 3.50933
# Velocity P-wave (km/s) = 4.77798 5.81230 5.32034
#
# Compressibility (1/GPa) = 0.05539069
#
# Stress axis : x y z
#
# Youngs Moduli (GPa) = 158.64560 42.34969 43.71117
#
# Poissons Ratio (x) = 0.10376 0.12100
# Poissons Ratio (y) = 0.38870 -0.28485
# Poissons Ratio (z) = 0.43914 -0.27598
#
# Static dielectric constant tensor:
#      x y z
#    x 1.847090 0.000000 0.000000 
#    y 0.000000 1.803580 0.000000 
#    z 0.000000 0.000000 1.844770 
# 
# From -- ./inp_files/28060.got.cif
#   From: 2010.05.17/outbox.cif.g08.bks.cpg/sg52_15_cif.got.tgz:28060.got - 2010.06.03 12:15:38.
