data_PCOD9410037
_publ_section_title
;
Structure prediction by ZEFSAII (Michael W. Deem and Ramdas Pophale) SiO2 
 PCOD9410037
Probable space group: P N N A
;
_chemical_formula_sum "Si O2"
_cell_formula_units_Z 36
_cell_length_a 16.165091
_cell_length_b 20.255867
_cell_length_c 4.887059
_cell_angle_alpha 90.000000
_cell_angle_beta 90.000000
_cell_angle_gamma 90.000000
_cell_volume 1600.208499
_symmetry_space_group_name_H-M "P N N A"
_symmetry_group_IT_number 52
_symmetry_cell_setting 'orthorhombic'
loop_
_space_group_symop_operation_xyz
x,y,z
1/2-x,-y,z
x,1/2-y,1/2-z
1/2-x,1/2+y,1/2-z
-x,-y,-z
1/2+x,y,-z
-x,1/2+y,1/2+z
1/2+x,1/2-y,1/2+z
loop_
_atom_site_type_symbol
_atom_site_label
_atom_site_fract_x
_atom_site_fract_y
_atom_site_fract_z
Si Si1 0.047697 0.326904 0.164089
Si Si2 0.786157 0.430208 0.568621
Si Si3 0.951949 0.367383 0.640476
Si Si4 0.728607 0.147932 0.435984
Si Si5 0.840242 0.250000 0.750000
O O1 0.041270 0.250000 0.250000
O O2 0.030483 0.367133 0.441950
O O3 0.134762 0.336030 0.013257
O O4 0.980382 0.355564 0.951038
O O5 0.750000 0.500000 0.482933
O O6 0.885875 0.424498 0.578275
O O7 0.747904 0.373880 0.371133
O O8 0.756692 0.412883 0.873260
O O9 0.898405 0.300985 0.588548
O O10 0.784139 0.208371 0.542915
#
# Coordination Sequence:
#
# PCOD9410037 Si02
#       5
#     8   8   8   8   4
#     4  12  22  41  61 103 136 164 201 270 346 399
#     4  11  25  46  66  92 129 182 232 269 308 382
#     4  11  23  38  66  91 133 169 215 262 329 391
#     4  11  24  40  68  94 134 168 219 271 333 385
#     4  10  20  38  60  98 122 172 206 266 328 394
#
# _framework density 22.497070999999998
#
# number of rings (size 3 to 8) (size 9 to 14) (size 15 to 20)
#    0.000    0.889    3.333    4.667    0.000    2.667 
#    0.000    6.667    0.000    0.000    0.000    0.000 
#    0.000    0.000    0.000    0.000    0.000    0.000 
#
# Total GULP energy -201258.665570 kJ/mol
# GULP energy per Si atom -5590.518488 kJ/mol
# Density = 2.244587 g / cm^3
# Si number density = 22.497071 Si / 1000 Ang^3
#
#
#
# Elastic Constant Matrix: (Units=GPa)
#
#
# Indices 1 2 3 4 5 6 
#
# 1 73.7105 -21.9775 3.3051 0.0000 0.0000 0.0000
# 2 -21.9775 23.9628 -11.2889 0.0000 0.0000 0.0000
# 3 3.3051 -11.2889 84.6326 0.0000 0.0000 0.0000
# 4 0.0000 0.0000 0.0000 20.9846 0.0000 0.0000
# 5 0.0000 0.0000 0.0000 0.0000 34.6139 0.0000
# 6 0.0000 0.0000 0.0000 0.0000 0.0000 1.4842
#
#
#
# Elastic Compliance Matrix: (Units=1/GPa)
#
#
# Indices 1 2 3 4 5 6 
#
# 1 0.018894 0.018120 0.001679 0.000000 0.000000 0.000000
# 2 0.018120 0.061907 0.007550 0.000000 0.000000 0.000000
# 3 0.001679 0.007550 0.012757 0.000000 0.000000 0.000000
# 4 0.000000 0.000000 0.000000 0.047654 0.000000 0.000000
# 5 0.000000 0.000000 0.000000 0.000000 0.028890 0.000000
# 6 0.000000 0.000000 0.000000 0.000000 0.000000 0.673769
#
#
# Mechanical properties :
#
#
# Convention : Reuss Voigt Hill
#
# Bulk Modulus (GPa) = 6.74514 13.59813 10.17163
# Shear Modulus (GPa) = 5.96238 25.56769 15.76503
#
# Velocity S-wave (km/s) = 1.62974 3.37484 2.65006
# Velocity P-wave (km/s) = 2.55854 4.60908 3.72758
#
# Compressibility (1/GPa) = 0.14825487
#
# Stress axis : x y z
#
# Youngs Moduli (GPa) = 52.92733 16.15337 78.38661
#
# Poissons Ratio (x) = -0.29269 -0.13162
# Poissons Ratio (y) = -0.95902 -0.59181
# Poissons Ratio (z) = -0.08887 -0.12196
#
# Static dielectric constant tensor:
#      x y z
#    x 1.857360 0.000000 0.000000 
#    y 0.000000 1.848800 0.000000 
#    z 0.000000 0.000000 1.824040 
# 
# From -- ./inp_files/2145.got.cif
#   From: 2010.05.17/outbox.cif.g08.bks.cpg/sg52_2_cif.got.tgz:2145.got - 2010.06.03 12:15:38.
