data_PCOD9410465
_publ_section_title
;
Structure prediction by ZEFSAII (Michael W. Deem and Ramdas Pophale) SiO2 
 PCOD9410465
Probable space group: P N N A
;
_chemical_formula_sum "Si O2"
_cell_formula_units_Z 32
_cell_length_a 8.707547
_cell_length_b 25.223269
_cell_length_c 5.224532
_cell_angle_alpha 90.000000
_cell_angle_beta 90.000000
_cell_angle_gamma 90.000000
_cell_volume 1147.478593
_symmetry_space_group_name_H-M "P N N A"
_symmetry_group_IT_number 52
_symmetry_cell_setting 'orthorhombic'
loop_
_space_group_symop_operation_xyz
x,y,z
1/2-x,-y,z
x,1/2-y,1/2-z
1/2-x,1/2+y,1/2-z
-x,-y,-z
1/2+x,y,-z
-x,1/2+y,1/2+z
1/2+x,1/2-y,1/2+z
loop_
_atom_site_type_symbol
_atom_site_label
_atom_site_fract_x
_atom_site_fract_y
_atom_site_fract_z
Si Si1 0.482210 0.250000 0.250000
Si Si2 0.750000 0.500000 0.147078
Si Si3 0.536576 0.165240 0.623572
Si Si4 0.698959 0.845849 0.006631
Si Si5 0.026516 0.567343 0.221337
O O1 0.571532 0.219668 0.475695
O O2 0.381543 0.296965 0.362771
O O3 0.882732 0.530947 0.302693
O O4 0.646133 0.536685 0.960542
O O5 0.356219 0.164970 0.705375
O O6 0.552321 0.114463 0.443179
O O7 0.375071 0.097564 0.065764
O O8 0.866160 0.843759 0.881687
#
# Coordination Sequence:
#
# PCOD9410465 Si02
#       5
#     4   4   8   8   8
#     4  10  26  46  74 100 142 194 250 308 384 460
#     4  10  20  42  74  98 146 206 256 312 384 452
#     4  11  25  47  72 107 147 195 252 316 382 456
#     4  11  25  44  71 107 145 192 248 320 377 454
#     4  10  22  44  69 102 147 199 251 315 382 452
#
# _framework density 27.887229999999999
#
# number of rings (size 3 to 8) (size 9 to 14) (size 15 to 20)
#    0.000    1.500    2.500    0.750    7.000    2.000 
#    0.000    7.500    0.000    1.500    0.000    0.000 
#    0.000    0.000    0.000    0.000    0.000    0.000 
#
# Total GULP energy -179358.919965 kJ/mol
# GULP energy per Si atom -5604.966249 kJ/mol
# Density = 2.782376 g / cm^3
# Si number density = 27.887230 Si / 1000 Ang^3
#
#
#
# Elastic Constant Matrix: (Units=GPa)
#
#
# Indices 1 2 3 4 5 6 
#
# 1 170.3075 67.2295 35.9616 0.0000 0.0000 0.0000
# 2 67.2295 139.8872 34.3001 0.0000 0.0000 0.0000
# 3 35.9616 34.3001 67.6969 0.0000 0.0000 0.0000
# 4 0.0000 0.0000 0.0000 20.9681 0.0000 0.0000
# 5 0.0000 0.0000 0.0000 0.0000 38.4480 0.0000
# 6 0.0000 0.0000 0.0000 0.0000 0.0000 61.4432
#
#
#
# Elastic Compliance Matrix: (Units=1/GPa)
#
#
# Indices 1 2 3 4 5 6 
#
# 1 0.007599 -0.003040 -0.002496 0.000000 0.000000 0.000000
# 2 -0.003040 0.009379 -0.003137 0.000000 0.000000 0.000000
# 3 -0.002496 -0.003137 0.017687 0.000000 0.000000 0.000000
# 4 0.000000 0.000000 0.000000 0.047692 0.000000 0.000000
# 5 0.000000 0.000000 0.000000 0.000000 0.026009 0.000000
# 6 0.000000 0.000000 0.000000 0.000000 0.000000 0.016275
#
#
# Mechanical properties :
#
#
# Convention : Reuss Voigt Hill
#
# Bulk Modulus (GPa) = 57.74290 72.54158 65.14224
# Shear Modulus (GPa) = 33.83854 40.19855 37.01855
#
# Velocity S-wave (km/s) = 3.48718 3.80079 3.64735
# Velocity P-wave (km/s) = 6.07986 6.73277 6.41463
#
# Compressibility (1/GPa) = 0.01731815
#
# Stress axis : x y z
#
# Youngs Moduli (GPa) = 131.59853 106.62345 56.53756
#
# Poissons Ratio (x) = 0.32412 0.14114
# Poissons Ratio (y) = 0.40004 0.17737
# Poissons Ratio (z) = 0.32852 0.33449
#
# Static dielectric constant tensor:
#      x y z
#    x 2.187810 0.000000 0.000000 
#    y 0.000000 2.110860 0.000000 
#    z 0.000000 0.000000 2.239100 
# 
# From -- ./inp_files/421.got.cif
#   From: 2010.05.17/outbox.cif.g08.bks.cpg/sg52_1_cif.got.tgz:421.got - 2010.06.03 12:15:38.
