data_PCOD9410986
_publ_section_title
;
Structure prediction by ZEFSAII (Michael W. Deem and Ramdas Pophale) SiO2 
 PCOD9410986
Probable space group: P N N A
;
_chemical_formula_sum "Si O2"
_cell_formula_units_Z 60
_cell_length_a 21.441835
_cell_length_b 9.649701
_cell_length_c 12.260302
_cell_angle_alpha 90.000000
_cell_angle_beta 90.000000
_cell_angle_gamma 90.000000
_cell_volume 2536.745943
_symmetry_space_group_name_H-M "P N N A"
_symmetry_group_IT_number 52
_symmetry_cell_setting 'orthorhombic'
loop_
_space_group_symop_operation_xyz
x,y,z
1/2-x,-y,z
x,1/2-y,1/2-z
1/2-x,1/2+y,1/2-z
-x,-y,-z
1/2+x,y,-z
-x,1/2+y,1/2+z
1/2+x,1/2-y,1/2+z
loop_
_atom_site_type_symbol
_atom_site_label
_atom_site_fract_x
_atom_site_fract_y
_atom_site_fract_z
Si Si1 0.547904 0.600605 0.891545
Si Si2 0.750000 0.500000 0.654430
Si Si3 0.620817 0.893789 0.157867
Si Si4 0.418604 0.514579 0.870953
Si Si5 0.002133 0.158580 0.033790
Si Si6 0.179045 0.613005 0.184935
Si Si7 0.128745 0.298033 0.553129
Si Si8 0.775140 0.267652 0.490560
O O1 0.491309 0.519122 0.836835
O O2 0.605551 0.618333 0.814892
O O3 0.573983 0.528949 0.002395
O O4 0.520993 0.745480 0.934177
O O5 0.802407 0.524253 0.747714
O O6 0.783199 0.396771 0.572530
O O7 0.553996 0.828737 0.121117
O O8 0.679522 0.809018 0.108731
O O9 0.619080 0.920754 0.287074
O O10 0.624984 0.050212 0.107728
O O11 0.391528 0.669502 0.871270
O O12 0.075704 0.198469 0.043522
O O13 0.000000 0.000000 0.000000
O O14 0.203062 0.750000 0.250000
O O15 0.202835 0.635131 0.061320
O O16 0.200943 0.266906 0.526858
#
# Coordination Sequence:
#
# PCOD9410986 Si02
#       8
#     8   4   8   8   8   8   8   8
#     4  10  21  44  60  94 135 166 221 285 327 406
#     4  10  22  40  64  92 124 166 218 278 344 412
#     4  11  20  40  66  93 130 174 225 274 342 406
#     4  10  24  39  64  93 134 178 217 277 340 401
#     4   9  20  36  66  91 121 168 217 275 332 386
#     4  10  23  38  66  92 124 168 219 268 351 402
#     4  10  21  39  64  90 132 170 223 272 332 403
#     4  11  21  41  64  92 135 168 220 295 334 414
#
# _framework density 23.652348
#
# number of rings (size 3 to 8) (size 9 to 14) (size 15 to 20)
#    0.000    1.867    2.667    0.400    1.867    4.800 
#    0.000    4.000    2.933    0.000    0.000    0.000 
#    0.000    0.000    0.000    0.000    0.000    0.000 
#
# Total GULP energy -334234.732142 kJ/mol
# GULP energy per Si atom -5570.578869 kJ/mol
# Density = 2.359851 g / cm^3
# Si number density = 23.652348 Si / 1000 Ang^3
#
#
#
# Elastic Constant Matrix: (Units=GPa)
#
#
# Indices 1 2 3 4 5 6 
#
# 1 177.0574 43.7463 53.4088 0.0000 0.0000 0.0000
# 2 43.7463 62.9770 30.0880 0.0000 0.0000 0.0000
# 3 53.4088 30.0880 61.3018 0.0000 0.0000 0.0000
# 4 0.0000 0.0000 0.0000 3.6831 0.0000 0.0000
# 5 0.0000 0.0000 0.0000 0.0000 32.9105 0.0000
# 6 0.0000 0.0000 0.0000 0.0000 0.0000 32.9457
#
#
#
# Elastic Compliance Matrix: (Units=1/GPa)
#
#
# Indices 1 2 3 4 5 6 
#
# 1 0.008055 -0.002929 -0.005580 0.000000 0.000000 0.000000
# 2 -0.002929 0.021808 -0.008152 0.000000 0.000000 0.000000
# 3 -0.005580 -0.008152 0.025175 0.000000 0.000000 0.000000
# 4 0.000000 0.000000 0.000000 0.271513 0.000000 0.000000
# 5 0.000000 0.000000 0.000000 0.000000 0.030385 0.000000
# 6 0.000000 0.000000 0.000000 0.000000 0.000000 0.030353
#
#
# Mechanical properties :
#
#
# Convention : Reuss Voigt Hill
#
# Bulk Modulus (GPa) = 46.04835 61.75806 53.90320
# Shear Modulus (GPa) = 11.68631 25.51404 18.60018
#
# Velocity S-wave (km/s) = 2.22522 3.28794 2.80732
# Velocity P-wave (km/s) = 5.11011 6.37036 5.77472
#
# Compressibility (1/GPa) = 0.02171631
#
# Stress axis : x y z
#
# Youngs Moduli (GPa) = 124.14933 45.85429 39.72155
#
# Poissons Ratio (x) = 0.13432 0.22164
# Poissons Ratio (y) = 0.36367 0.32380
# Poissons Ratio (z) = 0.69275 0.37379
#
# Static dielectric constant tensor:
#      x y z
#    x 1.959280 0.000000 0.000000 
#    y 0.000000 2.044620 0.000000 
#    z 0.000000 0.000000 1.928610 
# 
# From -- ./inp_files/21778.got.cif
#   From: 2010.05.17/outbox.cif.g08.bks.cpg/sg52_11_cif.got.tgz:21778.got - 2010.06.03 12:15:38.
