data_PCOD9410063
_publ_section_title
;
Structure prediction by ZEFSAII (Michael W. Deem and Ramdas Pophale) SiO2 
 PCOD9410063
Probable space group: P N N A
;
_chemical_formula_sum "Si O2"
_cell_formula_units_Z 40
_cell_length_a 14.150644
_cell_length_b 21.408244
_cell_length_c 5.810031
_cell_angle_alpha 90.000000
_cell_angle_beta 90.000000
_cell_angle_gamma 90.000000
_cell_volume 1760.093345
_symmetry_space_group_name_H-M "P N N A"
_symmetry_group_IT_number 52
_symmetry_cell_setting 'orthorhombic'
loop_
_space_group_symop_operation_xyz
x,y,z
1/2-x,-y,z
x,1/2-y,1/2-z
1/2-x,1/2+y,1/2-z
-x,-y,-z
1/2+x,y,-z
-x,1/2+y,1/2+z
1/2+x,1/2-y,1/2+z
loop_
_atom_site_type_symbol
_atom_site_label
_atom_site_fract_x
_atom_site_fract_y
_atom_site_fract_z
Si Si1 0.937180 0.128359 0.492058
Si Si2 0.416512 0.831935 0.883369
Si Si3 0.735693 0.107828 0.364674
Si Si4 0.501945 0.250000 0.750000
Si Si5 0.090969 0.059169 0.265770
Si Si6 0.750000 0.000000 0.999387
O O1 0.997312 0.147575 0.716299
O O2 0.946089 0.187930 0.320572
O O3 0.985840 0.067107 0.373107
O O4 0.826594 0.119366 0.519700
O O5 0.318258 0.833362 0.745424
O O6 0.438055 0.769866 0.026640
O O7 0.407355 0.886175 0.075224
O O8 0.656477 0.076329 0.520478
O O9 0.760366 0.060216 0.161207
O O10 0.151482 0.004678 0.144679
#
# Coordination Sequence:
#
# PCOD9410063 Si02
#       6
#     8   8   8   4   8   4
#     4  10  21  39  62  88 124 156 207 254 306 367
#     4   9  20  39  61  85 123 159 195 254 302 363
#     4  10  21  39  62  92 121 162 209 250 306 370
#     4  10  20  40  62  86 122 158 196 254 310 360
#     4   9  20  38  59  86 123 161 195 257 300 361
#     4  10  20  38  62  88 126 160 208 248 316 366
#
# _framework density 22.726068999999999
#
# number of rings (size 3 to 8) (size 9 to 14) (size 15 to 20)
#    0.000    2.400    0.000    1.200    0.000    7.200 
#   10.800   14.000    0.000    0.000    0.000    0.000 
#    0.000    0.000    0.000    0.000    0.000    0.000 
#
# Total GULP energy -223096.925096 kJ/mol
# GULP energy per Si atom -5577.423127 kJ/mol
# Density = 2.267434 g / cm^3
# Si number density = 22.726069 Si / 1000 Ang^3
#
#
#
# Elastic Constant Matrix: (Units=GPa)
#
#
# Indices 1 2 3 4 5 6 
#
# 1 94.4754 -13.0635 -3.1566 0.0000 0.0000 0.0000
# 2 -13.0635 36.8662 -9.0296 0.0000 0.0000 0.0000
# 3 -3.1566 -9.0296 55.9749 0.0000 0.0000 0.0000
# 4 0.0000 0.0000 0.0000 33.6612 0.0000 0.0000
# 5 0.0000 0.0000 0.0000 0.0000 -43.2796 0.0000
# 6 0.0000 0.0000 0.0000 0.0000 0.0000 12.5699
#
#
#
# Elastic Compliance Matrix: (Units=1/GPa)
#
#
# Indices 1 2 3 4 5 6 
#
# 1 0.011224 0.004302 0.001327 0.000000 0.000000 0.000000
# 2 0.004302 0.029890 0.005064 0.000000 0.000000 0.000000
# 3 0.001327 0.005064 0.018757 0.000000 0.000000 0.000000
# 4 0.000000 0.000000 0.000000 0.029708 0.000000 0.000000
# 5 0.000000 0.000000 0.000000 0.000000 -0.023106 0.000000
# 6 0.000000 0.000000 0.000000 0.000000 0.000000 0.079555
#
#
# Mechanical properties :
#
#
# Convention : Reuss Voigt Hill
#
# Bulk Modulus (GPa) = 12.30647 15.20189 13.75418
# Shear Modulus (GPa) = 32.95386 14.76138 23.85762
#
# Velocity S-wave (km/s) = 3.81208 2.55136 3.24356
# Velocity P-wave (km/s) = 4.98024 3.92211 4.48251
#
# Compressibility (1/GPa) = 0.08125810
#
# Stress axis : x y z
#
# Youngs Moduli (GPa) = 89.09490 33.45594 53.31364
#
# Poissons Ratio (x) = -0.14394 -0.07075
# Poissons Ratio (y) = -0.38331 -0.27000
# Poissons Ratio (z) = -0.11823 -0.16943
#
# Static dielectric constant tensor:
#      x y z
#    x 1.849230 0.000000 0.000000 
#    y 0.000000 1.916960 0.000000 
#    z 0.000000 0.000000 1.854550 
# 
# From -- ./inp_files/1404.got.cif
#   From: 2010.05.17/outbox.cif.g08.bks.cpg/sg52_1_cif.got.tgz:1404.got - 2010.06.03 12:15:38.
