data_PCOD9410378
_publ_section_title
;
Structure prediction by ZEFSAII (Michael W. Deem and Ramdas Pophale) SiO2 
 PCOD9410378
Probable space group: P N N A
;
_chemical_formula_sum "Si O2"
_cell_formula_units_Z 52
_cell_length_a 20.496306
_cell_length_b 8.657894
_cell_length_c 14.716757
_cell_angle_alpha 90.000000
_cell_angle_beta 90.000000
_cell_angle_gamma 90.000000
_cell_volume 2611.559829
_symmetry_space_group_name_H-M "P N N A"
_symmetry_group_IT_number 52
_symmetry_cell_setting 'orthorhombic'
loop_
_space_group_symop_operation_xyz
x,y,z
1/2-x,-y,z
x,1/2-y,1/2-z
1/2-x,1/2+y,1/2-z
-x,-y,-z
1/2+x,y,-z
-x,1/2+y,1/2+z
1/2+x,1/2-y,1/2+z
loop_
_atom_site_type_symbol
_atom_site_label
_atom_site_fract_x
_atom_site_fract_y
_atom_site_fract_z
Si Si1 0.953423 0.583749 0.158599
Si Si2 0.653380 0.250000 0.250000
Si Si3 0.374156 0.154425 0.538199
Si Si4 0.999293 0.316987 0.513119
Si Si5 0.942029 0.847625 0.665081
Si Si6 0.191772 0.400206 0.089786
Si Si7 0.757230 0.815497 0.072995
O O1 0.898710 0.612944 0.234187
O O2 0.920152 0.448047 0.101272
O O3 0.024637 0.514841 0.178612
O O4 0.965241 0.738961 0.099727
O O5 0.697360 0.226874 0.159941
O O6 0.423423 0.267682 0.486868
O O7 0.314910 0.243048 0.586110
O O8 0.342438 0.028595 0.473040
O O9 0.000000 0.500000 0.500000
O O10 0.034150 0.233886 0.427577
O O11 0.965561 0.750000 0.750000
O O12 0.864097 0.849569 0.658312
O O13 0.250000 0.500000 0.133260
O O14 0.215191 0.266273 0.019361
O O15 0.750000 0.000000 0.064188
#
# Coordination Sequence:
#
# PCOD9410378 Si02
#       7
#     8   4   8   8   8   8   8
#     4  11  23  42  65  93 130 180 213 267 329 407
#     4  12  26  38  62  92 146 164 216 264 336 398
#     4  10  20  41  65  87 121 176 220 249 324 390
#     4  11  23  40  69  95 127 173 222 276 321 392
#     4  11  23  42  67  96 126 165 219 275 334 386
#     4  10  20  44  69  86 121 175 216 258 330 404
#     4  11  26  38  62  96 129 173 218 270 320 403
#
# _framework density 19.911472
#
# number of rings (size 3 to 8) (size 9 to 14) (size 15 to 20)
#    0.000    1.231    4.615    0.923    8.615    1.231 
#    1.385    0.769    1.692    0.000    0.000    0.000 
#    0.000    0.000    0.000    0.000    0.000    0.000 
#
# Total GULP energy -289855.766902 kJ/mol
# GULP energy per Si atom -5574.149364 kJ/mol
# Density = 1.986615 g / cm^3
# Si number density = 19.911472 Si / 1000 Ang^3
#
#
#
# Elastic Constant Matrix: (Units=GPa)
#
#
# Indices 1 2 3 4 5 6 
#
# 1 119.7176 37.0678 22.9559 0.0000 0.0000 0.0000
# 2 37.0678 122.1098 16.8429 0.0000 0.0000 0.0000
# 3 22.9559 16.8429 40.8312 0.0000 0.0000 0.0000
# 4 0.0000 0.0000 0.0000 16.5057 0.0000 0.0000
# 5 0.0000 0.0000 0.0000 0.0000 21.6702 0.0000
# 6 0.0000 0.0000 0.0000 0.0000 0.0000 29.6398
#
#
#
# Elastic Compliance Matrix: (Units=1/GPa)
#
#
# Indices 1 2 3 4 5 6 
#
# 1 0.009980 -0.002392 -0.004624 0.000000 0.000000 0.000000
# 2 -0.002392 0.009257 -0.002474 0.000000 0.000000 0.000000
# 3 -0.004624 -0.002474 0.028111 0.000000 0.000000 0.000000
# 4 0.000000 0.000000 0.000000 0.060585 0.000000 0.000000
# 5 0.000000 0.000000 0.000000 0.000000 0.046146 0.000000
# 6 0.000000 0.000000 0.000000 0.000000 0.000000 0.033738
#
#
# Mechanical properties :
#
#
# Convention : Reuss Voigt Hill
#
# Bulk Modulus (GPa) = 35.25038 48.48799 41.86919
# Shear Modulus (GPa) = 23.12098 27.28263 25.20181
#
# Velocity S-wave (km/s) = 3.41132 3.70563 3.56152
# Velocity P-wave (km/s) = 5.76699 6.53556 6.16327
#
# Compressibility (1/GPa) = 0.02836849
#
# Stress axis : x y z
#
# Youngs Moduli (GPa) = 100.19754 108.03109 35.57280
#
# Poissons Ratio (x) = 0.25839 0.16450
# Poissons Ratio (y) = 0.23965 0.08800
# Poissons Ratio (z) = 0.46336 0.26723
#
# Static dielectric constant tensor:
#      x y z
#    x 1.828950 0.000000 0.000000 
#    y 0.000000 1.741110 0.000000 
#    z 0.000000 0.000000 1.718090 
# 
# From -- ./inp_files/28698.got.cif
#   From: 2010.05.17/outbox.cif.g08.bks.cpg/sg52_15_cif.got.tgz:28698.got - 2010.06.03 12:15:38.
