data_PCOD9410737
_publ_section_title
;
Structure prediction by ZEFSAII (Michael W. Deem and Ramdas Pophale) SiO2 
 PCOD9410737
Probable space group: P N N A
;
_chemical_formula_sum "Si O2"
_cell_formula_units_Z 44
_cell_length_a 20.388931
_cell_length_b 7.607643
_cell_length_c 14.292149
_cell_angle_alpha 90.000000
_cell_angle_beta 90.000000
_cell_angle_gamma 90.000000
_cell_volume 2216.879645
_symmetry_space_group_name_H-M "P N N A"
_symmetry_group_IT_number 52
_symmetry_cell_setting 'orthorhombic'
loop_
_space_group_symop_operation_xyz
x,y,z
1/2-x,-y,z
x,1/2-y,1/2-z
1/2-x,1/2+y,1/2-z
-x,-y,-z
1/2+x,y,-z
-x,1/2+y,1/2+z
1/2+x,1/2-y,1/2+z
loop_
_atom_site_type_symbol
_atom_site_label
_atom_site_fract_x
_atom_site_fract_y
_atom_site_fract_z
Si Si1 0.607631 0.923929 0.986749
Si Si2 0.250000 0.000000 0.053057
Si Si3 0.602778 0.990062 0.526069
Si Si4 0.022544 0.050680 0.643019
Si Si5 0.293691 0.832085 0.342596
Si Si6 0.994701 0.973224 0.144847
O O1 0.614734 0.717580 0.965595
O O2 0.566240 0.009494 0.900639
O O3 0.680329 0.000127 0.999919
O O4 0.560272 0.949424 0.075824
O O5 0.250411 0.825216 0.115799
O O6 0.536355 0.033116 0.583140
O O7 0.658776 0.099843 0.576108
O O8 0.588279 0.024046 0.417032
O O9 0.017843 0.978160 0.747775
O O10 0.011454 0.260674 0.643524
O O11 0.326720 0.750000 0.250000
O O12 0.250000 0.000000 0.315620
#
# Coordination Sequence:
#
# PCOD9410737 Si02
#       6
#     8   4   8   8   8   8
#     4  10  21  37  62  92 125 164 208 256 314 373
#     4  12  24  40  64  86 130 166 200 256 318 370
#     4  10  21  39  58  91 124 157 208 262 311 371
#     4   9  19  37  62  86 123 159 207 263 307 369
#     4  12  25  41  60  90 126 168 210 253 315 386
#     4   9  19  37  62  90 120 165 210 256 311 371
#
# _framework density 19.847715999999998
#
# number of rings (size 3 to 8) (size 9 to 14) (size 15 to 20)
#    0.000    1.818    2.727    1.091    2.545    2.182 
#    0.000    0.000    2.000    0.000    0.000    0.000 
#    0.000    0.000    0.000    0.000    0.000    0.000 
#
# Total GULP energy -245518.338308 kJ/mol
# GULP energy per Si atom -5579.962234 kJ/mol
# Density = 1.980254 g / cm^3
# Si number density = 19.847716 Si / 1000 Ang^3
#
#
#
# Elastic Constant Matrix: (Units=GPa)
#
#
# Indices 1 2 3 4 5 6 
#
# 1 112.1330 23.7179 55.5684 0.0000 0.0000 0.0000
# 2 23.7179 80.9331 19.3298 0.0000 0.0000 0.0000
# 3 55.5684 19.3298 139.1700 0.0000 0.0000 0.0000
# 4 0.0000 0.0000 0.0000 27.8325 0.0000 0.0000
# 5 0.0000 0.0000 0.0000 0.0000 18.6361 0.0000
# 6 0.0000 0.0000 0.0000 0.0000 0.0000 24.9701
#
#
#
# Elastic Compliance Matrix: (Units=1/GPa)
#
#
# Indices 1 2 3 4 5 6 
#
# 1 0.011538 -0.002359 -0.004279 0.000000 0.000000 0.000000
# 2 -0.002359 0.013262 -0.000900 0.000000 0.000000 0.000000
# 3 -0.004279 -0.000900 0.009019 0.000000 0.000000 0.000000
# 4 0.000000 0.000000 0.000000 0.035929 0.000000 0.000000
# 5 0.000000 0.000000 0.000000 0.000000 0.053659 0.000000
# 6 0.000000 0.000000 0.000000 0.000000 0.000000 0.040048
#
#
# Mechanical properties :
#
#
# Convention : Reuss Voigt Hill
#
# Bulk Modulus (GPa) = 53.35553 58.82983 56.09268
# Shear Modulus (GPa) = 27.05935 29.86242 28.46089
#
# Velocity S-wave (km/s) = 3.69636 3.88310 3.79088
# Velocity P-wave (km/s) = 6.71999 7.05759 6.89086
#
# Compressibility (1/GPa) = 0.01874220
#
# Stress axis : x y z
#
# Youngs Moduli (GPa) = 86.67386 75.40216 110.87657
#
# Poissons Ratio (x) = 0.17788 0.47445
# Poissons Ratio (y) = 0.20448 0.09980
# Poissons Ratio (z) = 0.37088 0.06787
#
# Static dielectric constant tensor:
#      x y z
#    x 1.711900 0.000000 0.000000 
#    y 0.000000 1.725390 0.000000 
#    z 0.000000 0.000000 1.712830 
# 
# From -- ./inp_files/27969.got.cif
#   From: 2010.05.17/outbox.cif.g08.bks.cpg/sg52_14_cif.got.tgz:27969.got - 2010.06.03 12:15:38.
