data_PCOD9410468
_publ_section_title
;
Structure prediction by ZEFSAII (Michael W. Deem and Ramdas Pophale) SiO2 
 PCOD9410468
Probable space group: P N N A
;
_chemical_formula_sum "Si O2"
_cell_formula_units_Z 56
_cell_length_a 15.458352
_cell_length_b 27.416655
_cell_length_c 6.225371
_cell_angle_alpha 90.000000
_cell_angle_beta 90.000000
_cell_angle_gamma 90.000000
_cell_volume 2638.413726
_symmetry_space_group_name_H-M "P N N A"
_symmetry_group_IT_number 52
_symmetry_cell_setting 'orthorhombic'
loop_
_space_group_symop_operation_xyz
x,y,z
1/2-x,-y,z
x,1/2-y,1/2-z
1/2-x,1/2+y,1/2-z
-x,-y,-z
1/2+x,y,-z
-x,1/2+y,1/2+z
1/2+x,1/2-y,1/2+z
loop_
_atom_site_type_symbol
_atom_site_label
_atom_site_fract_x
_atom_site_fract_y
_atom_site_fract_z
Si Si1 0.902574 0.095864 0.692658
Si Si2 0.828542 0.202891 0.349433
Si Si3 0.586161 0.492253 0.632858
Si Si4 0.477686 0.331801 0.537301
Si Si5 0.940196 0.608944 0.873422
Si Si6 0.574568 0.750000 0.750000
Si Si7 0.240804 0.104208 0.574333
Si Si8 0.250000 0.500000 0.681265
O O1 0.934273 0.122804 0.908561
O O2 0.802678 0.105414 0.636440
O O3 0.969092 0.110715 0.502724
O O4 0.908141 0.038024 0.710894
O O5 0.782071 0.250000 0.250000
O O6 0.864019 0.219179 0.585067
O O7 0.775320 0.153422 0.316900
O O8 0.912273 0.192881 0.204359
O O9 0.500000 0.500000 0.500000
O O10 0.576142 0.442902 0.762752
O O11 0.666938 0.493913 0.471818
O O12 0.555248 0.352153 0.680540
O O13 0.486700 0.289393 0.364179
O O14 0.859584 0.613269 0.031028
O O15 0.255443 0.051052 0.684415
#
# Coordination Sequence:
#
# PCOD9410468 Si02
#       8
#     8   8   8   8   8   4   8   4
#     4  12  23  45  68  98 141 189 228 292 356 415
#     4  10  22  43  76  99 130 185 240 285 362 434
#     4  12  23  41  66  98 139 187 234 280 349 424
#     4  11  21  42  71 100 133 178 239 288 359 422
#     4  12  25  41  67 108 139 184 241 293 351 438
#     4  10  20  42  76  98 128 178 236 298 358 434
#     4  12  24  44  70 101 145 186 236 296 356 429
#     4  12  26  44  70 106 144 194 236 298 360 430
#
# _framework density 21.224872999999999
#
# number of rings (size 3 to 8) (size 9 to 14) (size 15 to 20)
#    0.000    0.571    4.286    4.714    0.000    0.000 
#    0.000    0.000   20.429    0.000    0.000    0.000 
#    0.000    0.000    0.000    0.000    0.000    0.000 
#
# Total GULP energy -312620.507496 kJ/mol
# GULP energy per Si atom -5582.509062 kJ/mol
# Density = 2.117656 g / cm^3
# Si number density = 21.224873 Si / 1000 Ang^3
#
#
#
# Elastic Constant Matrix: (Units=GPa)
#
#
# Indices 1 2 3 4 5 6 
#
# 1 49.9068 4.4188 9.2425 0.0000 0.0000 0.0000
# 2 4.4188 152.5070 32.5381 0.0000 0.0000 0.0000
# 3 9.2425 32.5381 71.8285 0.0000 0.0000 0.0000
# 4 0.0000 0.0000 0.0000 53.0188 0.0000 0.0000
# 5 0.0000 0.0000 0.0000 0.0000 2.6357 0.0000
# 6 0.0000 0.0000 0.0000 0.0000 0.0000 27.7433
#
#
#
# Elastic Compliance Matrix: (Units=1/GPa)
#
#
# Indices 1 2 3 4 5 6 
#
# 1 0.020527 -0.000035 -0.002626 0.000000 0.000000 0.000000
# 2 -0.000035 0.007259 -0.003284 0.000000 0.000000 0.000000
# 3 -0.002626 -0.003284 0.015747 0.000000 0.000000 0.000000
# 4 0.000000 0.000000 0.000000 0.018861 0.000000 0.000000
# 5 0.000000 0.000000 0.000000 0.000000 0.379413 0.000000
# 6 0.000000 0.000000 0.000000 0.000000 0.000000 0.036045
#
#
# Mechanical properties :
#
#
# Convention : Reuss Voigt Hill
#
# Bulk Modulus (GPa) = 31.60059 40.73792 36.16926
# Shear Modulus (GPa) = 9.99424 31.88240 20.93832
#
# Velocity S-wave (km/s) = 2.17232 3.87993 3.14427
# Velocity P-wave (km/s) = 4.60573 6.26953 5.50090
#
# Compressibility (1/GPa) = 0.03164498
#
# Stress axis : x y z
#
# Youngs Moduli (GPa) = 48.71710 137.76621 63.50245
#
# Poissons Ratio (x) = 0.00476 0.16673
# Poissons Ratio (y) = 0.00168 0.20852
# Poissons Ratio (z) = 0.12791 0.45239
#
# Static dielectric constant tensor:
#      x y z
#    x 1.727500 0.000000 0.000000 
#    y 0.000000 1.813930 0.000000 
#    z 0.000000 0.000000 2.049030 
# 
# From -- ./inp_files/2663.got.cif
#   From: 2010.05.17/outbox.cif.g08.bks.cpg/sg52_2_cif.got.tgz:2663.got - 2010.06.03 12:15:38.
