data_PCOD9410741
_publ_section_title
;
Structure prediction by ZEFSAII (Michael W. Deem and Ramdas Pophale) SiO2 
 PCOD9410741
Probable space group: P N N A
;
_chemical_formula_sum "Si O2"
_cell_formula_units_Z 56
_cell_length_a 7.011866
_cell_length_b 23.505086
_cell_length_c 13.918161
_cell_angle_alpha 90.000000
_cell_angle_beta 90.000000
_cell_angle_gamma 90.000000
_cell_volume 2293.914932
_symmetry_space_group_name_H-M "P N N A"
_symmetry_group_IT_number 52
_symmetry_cell_setting 'orthorhombic'
loop_
_space_group_symop_operation_xyz
x,y,z
1/2-x,-y,z
x,1/2-y,1/2-z
1/2-x,1/2+y,1/2-z
-x,-y,-z
1/2+x,y,-z
-x,1/2+y,1/2+z
1/2+x,1/2-y,1/2+z
loop_
_atom_site_type_symbol
_atom_site_label
_atom_site_fract_x
_atom_site_fract_y
_atom_site_fract_z
Si Si1 0.088622 0.381467 0.610765
Si Si2 0.506040 0.753259 0.358722
Si Si3 0.005314 0.348873 0.003035
Si Si4 0.037205 0.245534 0.860060
Si Si5 0.740033 0.565959 0.979145
Si Si6 0.798115 0.434689 0.747307
Si Si7 0.532177 0.130163 0.898214
O O1 0.991571 0.319083 0.611005
O O2 0.311604 0.375230 0.628648
O O3 0.996417 0.418049 0.695881
O O4 0.065233 0.401102 0.500166
O O5 0.446100 0.750000 0.250000
O O6 0.456836 0.813680 0.400953
O O7 0.733683 0.748680 0.363732
O O8 0.425260 0.697489 0.410780
O O9 0.254305 0.365565 0.980967
O O10 0.007855 0.421055 0.007959
O O11 0.973446 0.299447 0.922521
O O12 0.977705 0.250000 0.750000
O O13 0.750000 0.500000 0.010563
O O14 0.711572 0.571670 0.862476
O O15 0.750000 0.500000 0.727317
O O16 0.650846 0.396042 0.688416
#
# Coordination Sequence:
#
# PCOD9410741 Si02
#       7
#     8   8   8   8   8   8   8
#     4  11  22  41  66  97 140 173 220 282 337 401
#     4  10  21  37  62  99 132 167 218 274 335 408
#     4  12  21  42  70  96 129 182 214 266 354 402
#     4  10  21  37  62  99 132 167 218 274 335 408
#     4  11  26  45  66  97 133 175 233 283 323 399
#     4  11  26  47  67  95 134 183 238 281 327 397
#     4  11  22  41  66  97 140 173 220 282 337 401
#
# _framework density 24.412413999999998
#
# number of rings (size 3 to 8) (size 9 to 14) (size 15 to 20)
#    0.000    1.143    4.286    2.143    0.000    2.286 
#    2.571    2.857    0.000    0.000    0.000    0.000 
#    0.000    0.000    0.000    0.000    0.000    0.000 
#
# Total GULP energy -312718.440601 kJ/mol
# GULP energy per Si atom -5584.257868 kJ/mol
# Density = 2.435685 g / cm^3
# Si number density = 24.412414 Si / 1000 Ang^3
#
#
#
# Elastic Constant Matrix: (Units=GPa)
#
#
# Indices 1 2 3 4 5 6 
#
# 1 136.7534 14.5459 -15.8668 0.0000 0.0000 0.0000
# 2 14.5459 146.8831 25.9546 0.0000 0.0000 0.0000
# 3 -15.8668 25.9546 111.6507 0.0000 0.0000 0.0000
# 4 0.0000 0.0000 0.0000 37.8651 0.0000 0.0000
# 5 0.0000 0.0000 0.0000 0.0000 255.9449 0.0000
# 6 0.0000 0.0000 0.0000 0.0000 0.0000 67.3089
#
#
#
# Elastic Compliance Matrix: (Units=1/GPa)
#
#
# Indices 1 2 3 4 5 6 
#
# 1 0.007568 -0.000980 0.001303 0.000000 0.000000 0.000000
# 2 -0.000980 0.007227 -0.001819 0.000000 0.000000 0.000000
# 3 0.001303 -0.001819 0.009565 0.000000 0.000000 0.000000
# 4 0.000000 0.000000 0.000000 0.026410 0.000000 0.000000
# 5 0.000000 0.000000 0.000000 0.000000 0.003907 0.000000
# 6 0.000000 0.000000 0.000000 0.000000 0.000000 0.014857
#
#
# Mechanical properties :
#
#
# Convention : Reuss Voigt Hill
#
# Bulk Modulus (GPa) = 46.79951 49.39495 48.09723
# Shear Modulus (GPa) = 62.77744 96.93400 79.85572
#
# Velocity S-wave (km/s) = 5.07653 6.30817 5.72557
# Velocity P-wave (km/s) = 7.31940 8.56358 7.96582
#
# Compressibility (1/GPa) = 0.02136775
#
# Stress axis : x y z
#
# Youngs Moduli (GPa) = 132.13793 138.37751 104.55231
#
# Poissons Ratio (x) = 0.13557 -0.13626
# Poissons Ratio (y) = 0.12946 0.19020
# Poissons Ratio (z) = -0.17221 0.25173
#
# Static dielectric constant tensor:
#      x y z
#    x 2.422660 0.000000 0.000000 
#    y 0.000000 1.818610 0.000000 
#    z 0.000000 0.000000 1.902380 
# 
# From -- ./inp_files/24937.got.cif
#   From: 2010.05.17/outbox.cif.g08.bks.cpg/sg52_13_cif.got.tgz:24937.got - 2010.06.03 12:15:38.
