data_PCOD9410829
_publ_section_title
;
Structure prediction by ZEFSAII (Michael W. Deem and Ramdas Pophale) SiO2 
 PCOD9410829
Probable space group: P N N A
;
_chemical_formula_sum "Si O2"
_cell_formula_units_Z 48
_cell_length_a 21.866895
_cell_length_b 8.235570
_cell_length_c 11.444563
_cell_angle_alpha 90.000000
_cell_angle_beta 90.000000
_cell_angle_gamma 90.000000
_cell_volume 2061.009515
_symmetry_space_group_name_H-M "P N N A"
_symmetry_group_IT_number 52
_symmetry_cell_setting 'orthorhombic'
loop_
_space_group_symop_operation_xyz
x,y,z
1/2-x,-y,z
x,1/2-y,1/2-z
1/2-x,1/2+y,1/2-z
-x,-y,-z
1/2+x,y,-z
-x,1/2+y,1/2+z
1/2+x,1/2-y,1/2+z
loop_
_atom_site_type_symbol
_atom_site_label
_atom_site_fract_x
_atom_site_fract_y
_atom_site_fract_z
Si Si1 0.369702 0.032096 0.425771
Si Si2 0.702517 0.750000 0.750000
Si Si3 0.980816 0.750000 0.750000
Si Si4 0.418224 0.563419 0.445050
Si Si5 0.711228 0.659102 0.137604
Si Si6 0.702888 0.197502 0.950069
Si Si7 0.021757 0.720428 0.996468
O O1 0.340223 0.122240 0.315445
O O2 0.338964 0.106793 0.542747
O O3 0.441543 0.077118 0.438790
O O4 0.341970 0.851315 0.421545
O O5 0.748550 0.817296 0.847548
O O6 0.020967 0.811847 0.642369
O O7 0.938959 0.614340 0.686334
O O8 0.346280 0.557659 0.460810
O O9 0.442323 0.387286 0.477725
O O10 0.452651 0.708432 0.519229
O O11 0.750000 0.500000 0.172507
O O12 0.686358 0.750000 0.250000
O O13 0.760017 0.768522 0.067158
#
# Coordination Sequence:
#
# PCOD9410829 Si02
#       7
#     8   4   4   8   8   8   8
#     4  10  22  38  59  88 123 153 201 249 307 365
#     4  10  21  38  62  88 120 163 200 250 314 362
#     4   8  17  36  58  82 112 157 192 246 302 346
#     4   9  19  36  60  83 120 154 209 251 299 375
#     4   9  20  37  55  82 117 150 190 240 298 360
#     4  10  21  39  59  87 121 156 197 256 304 363
#     4   9  20  37  58  87 116 155 202 248 301 370
#
# _framework density 23.289556000000001
#
# number of rings (size 3 to 8) (size 9 to 14) (size 15 to 20)
#    1.000    1.667    0.000    2.000    1.167    6.000 
#    3.000    5.000    1.833    0.000    0.000    0.000 
#    0.000    0.000    0.000    0.000    0.000    0.000 
#
# Total GULP energy -267981.316764 kJ/mol
# GULP energy per Si atom -5582.944099 kJ/mol
# Density = 2.323655 g / cm^3
# Si number density = 23.289556 Si / 1000 Ang^3
#
#
#
# Elastic Constant Matrix: (Units=GPa)
#
#
# Indices 1 2 3 4 5 6 
#
# 1 109.3071 28.9468 32.8862 0.0000 0.0000 0.0000
# 2 28.9468 78.1607 43.7242 0.0000 0.0000 0.0000
# 3 32.8862 43.7242 88.0974 0.0000 0.0000 0.0000
# 4 0.0000 0.0000 0.0000 5.4776 0.0000 0.0000
# 5 0.0000 0.0000 0.0000 0.0000 15.5431 0.0000
# 6 0.0000 0.0000 0.0000 0.0000 0.0000 39.6993
#
#
#
# Elastic Compliance Matrix: (Units=1/GPa)
#
#
# Indices 1 2 3 4 5 6 
#
# 1 0.010615 -0.002374 -0.002784 0.000000 0.000000 0.000000
# 2 -0.002374 0.018242 -0.008168 0.000000 0.000000 0.000000
# 3 -0.002784 -0.008168 0.016444 0.000000 0.000000 0.000000
# 4 0.000000 0.000000 0.000000 0.182563 0.000000 0.000000
# 5 0.000000 0.000000 0.000000 0.000000 0.064337 0.000000
# 6 0.000000 0.000000 0.000000 0.000000 0.000000 0.025189
#
#
# Mechanical properties :
#
#
# Convention : Reuss Voigt Hill
#
# Bulk Modulus (GPa) = 53.62004 54.07552 53.84778
# Shear Modulus (GPa) = 14.27512 23.47787 18.87650
#
# Velocity S-wave (km/s) = 2.47845 3.17848 2.85004
# Velocity P-wave (km/s) = 5.59138 6.06131 5.83108
#
# Compressibility (1/GPa) = 0.01864974
#
# Stress axis : x y z
#
# Youngs Moduli (GPa) = 94.20789 54.81708 60.81105
#
# Poissons Ratio (x) = 0.13011 0.16932
# Poissons Ratio (y) = 0.22361 0.49670
# Poissons Ratio (z) = 0.26231 0.44775
#
# Static dielectric constant tensor:
#      x y z
#    x 1.880030 0.000000 0.000000 
#    y 0.000000 1.928800 0.000000 
#    z 0.000000 0.000000 1.842500 
# 
# From -- ./inp_files/22321.got.cif
#   From: 2010.05.17/outbox.cif.g08.bks.cpg/sg52_12_cif.got.tgz:22321.got - 2010.06.03 12:15:38.
