data_PCOD9410669
_publ_section_title
;
Structure prediction by ZEFSAII (Michael W. Deem and Ramdas Pophale) SiO2 
 PCOD9410669
Probable space group: P N N A
;
_chemical_formula_sum "Si O2"
_cell_formula_units_Z 24
_cell_length_a 25.986208
_cell_length_b 5.139021
_cell_length_c 7.352935
_cell_angle_alpha 90.000000
_cell_angle_beta 90.000000
_cell_angle_gamma 90.000000
_cell_volume 981.937915
_symmetry_space_group_name_H-M "P N N A"
_symmetry_group_IT_number 52
_symmetry_cell_setting 'orthorhombic'
loop_
_space_group_symop_operation_xyz
x,y,z
1/2-x,-y,z
x,1/2-y,1/2-z
1/2-x,1/2+y,1/2-z
-x,-y,-z
1/2+x,y,-z
-x,1/2+y,1/2+z
1/2+x,1/2-y,1/2+z
loop_
_atom_site_type_symbol
_atom_site_label
_atom_site_fract_x
_atom_site_fract_y
_atom_site_fract_z
Si Si1 0.599051 0.221689 0.036773
Si Si2 0.547141 0.702228 0.033733
Si Si3 0.718052 0.243759 0.969516
O O1 0.585486 0.250000 0.250000
O O2 0.591754 0.512542 0.961148
O O3 0.561030 0.993435 0.961369
O O4 0.659557 0.181109 0.025592
O O5 0.547815 0.750000 0.250000
O O6 0.500000 0.500000 0.000000
O O7 0.750000 0.500000 0.026925
O O8 0.716963 0.250000 0.750000
O O9 0.750000 0.000000 0.034882
#
# Coordination Sequence:
#
# PCOD9410669 Si02
#       3
#     8   8   8
#     4  10  21  37  58  84 114 149 192 240 289 349
#     4  10  21  38  58  84 116 150 193 243 294 352
#     4  10  21  37  56  82 115 149 189 237 289 349
#
# _framework density 24.441462999999999
#
# number of rings (size 3 to 8) (size 9 to 14) (size 15 to 20)
#    0.000    2.000    0.000    3.000    0.000    2.667 
#    0.000    3.333    0.000    0.000    0.000    0.000 
#    0.000    0.000    0.000    0.000    0.000    0.000 
#
# Total GULP energy -133613.287826 kJ/mol
# GULP energy per Si atom -5567.220326 kJ/mol
# Density = 2.438583 g / cm^3
# Si number density = 24.441463 Si / 1000 Ang^3
#
#
#
# Elastic Constant Matrix: (Units=GPa)
#
#
# Indices 1 2 3 4 5 6 
#
# 1 136.5129 69.6279 -8.2499 0.0000 0.0000 0.0000
# 2 69.6279 246.5493 27.2170 0.0000 0.0000 0.0000
# 3 -8.2499 27.2170 73.5980 0.0000 0.0000 0.0000
# 4 0.0000 0.0000 0.0000 -28.3920 0.0000 0.0000
# 5 0.0000 0.0000 0.0000 0.0000 12.7192 0.0000
# 6 0.0000 0.0000 0.0000 0.0000 0.0000 49.4179
#
#
#
# Elastic Compliance Matrix: (Units=1/GPa)
#
#
# Indices 1 2 3 4 5 6 
#
# 1 0.008830 -0.002714 0.001993 0.000000 0.000000 0.000000
# 2 -0.002714 0.005063 -0.002176 0.000000 0.000000 0.000000
# 3 0.001993 -0.002176 0.014616 0.000000 0.000000 0.000000
# 4 0.000000 0.000000 0.000000 -0.035221 0.000000 0.000000
# 5 0.000000 0.000000 0.000000 0.000000 0.078622 0.000000
# 6 0.000000 0.000000 0.000000 0.000000 0.000000 0.020236
#
#
# Mechanical properties :
#
#
# Convention : Reuss Voigt Hill
#
# Bulk Modulus (GPa) = 44.02457 70.42780 57.22619
# Shear Modulus (GPa) = 47.38933 31.28670 39.33802
#
# Velocity S-wave (km/s) = 4.40806 3.58168 4.01618
# Velocity P-wave (km/s) = 6.63018 6.78101 6.70602
#
# Compressibility (1/GPa) = 0.02271459
#
# Stress axis : x y z
#
# Youngs Moduli (GPa) = 113.25177 197.52662 68.42008
#
# Poissons Ratio (x) = 0.53603 -0.13638
# Poissons Ratio (y) = 0.30733 0.14891
# Poissons Ratio (z) = -0.22575 0.42989
#
# Static dielectric constant tensor:
#      x y z
#    x 2.745760 0.000000 0.000000 
#    y 0.000000 1.983800 0.000000 
#    z 0.000000 0.000000 1.986690 
# 
# From -- ./inp_files/13766.got.cif
#   From: 2010.05.17/outbox.cif.g08.bks.cpg/sg52_7_cif.got.tgz:13766.got - 2010.06.03 12:15:38.
