data_PCOD9410885
_publ_section_title
;
Structure prediction by ZEFSAII (Michael W. Deem and Ramdas Pophale) SiO2 
 PCOD9410885
Probable space group: P N N A
;
_chemical_formula_sum "Si O2"
_cell_formula_units_Z 64
_cell_length_a 13.633080
_cell_length_b 17.624523
_cell_length_c 12.193664
_cell_angle_alpha 90.000000
_cell_angle_beta 90.000000
_cell_angle_gamma 90.000000
_cell_volume 2929.851299
_symmetry_space_group_name_H-M "P N N A"
_symmetry_group_IT_number 52
_symmetry_cell_setting 'orthorhombic'
loop_
_space_group_symop_operation_xyz
x,y,z
1/2-x,-y,z
x,1/2-y,1/2-z
1/2-x,1/2+y,1/2-z
-x,-y,-z
1/2+x,y,-z
-x,1/2+y,1/2+z
1/2+x,1/2-y,1/2+z
loop_
_atom_site_type_symbol
_atom_site_label
_atom_site_fract_x
_atom_site_fract_y
_atom_site_fract_z
Si Si1 0.947852 0.827047 0.701843
Si Si2 0.589699 0.075216 0.917807
Si Si3 0.443507 0.661067 0.781933
Si Si4 0.636465 0.913107 0.822192
Si Si5 0.396471 0.351306 0.539383
Si Si6 0.052710 0.683633 0.998701
Si Si7 0.783640 0.587700 0.360015
Si Si8 0.268576 0.183389 0.339755
O O1 0.991203 0.750000 0.750000
O O2 0.914598 0.871762 0.809835
O O3 0.846356 0.808802 0.637940
O O4 0.025215 0.859097 0.613983
O O5 0.475221 0.080838 0.952241
O O6 0.628231 0.997037 0.867476
O O7 0.651034 0.094684 0.027705
O O8 0.438830 0.750000 0.750000
O O9 0.532563 0.619490 0.718767
O O10 0.475255 0.659552 0.908526
O O11 0.347739 0.617502 0.741075
O O12 0.710084 0.894967 0.724688
O O13 0.662799 0.862620 0.927016
O O14 0.454609 0.273238 0.528446
O O15 0.314309 0.361221 0.630654
O O16 0.159653 0.680132 0.055948
O O17 0.750000 0.500000 0.351818
O O18 0.295156 0.250000 0.250000
#
# Coordination Sequence:
#
# PCOD9410885 Si02
#       8
#     8   8   8   8   8   8   8   8
#     4  11  25  42  63  94 134 175 222 281 328 391
#     4  12  24  41  66 100 141 170 216 289 347 387
#     4  11  22  42  68  96 134 182 225 263 336 410
#     4  11  19  39  68  98 127 169 220 274 335 402
#     4  12  21  38  64 100 135 166 214 281 341 397
#     4  11  22  43  64  90 131 176 227 269 326 405
#     4  12  25  39  70 109 142 173 218 288 350 403
#     4  10  21  38  66  91 121 173 225 267 326 403
#
# _framework density 21.844111999999999
#
# number of rings (size 3 to 8) (size 9 to 14) (size 15 to 20)
#    0.000    0.750    6.250    2.625    1.750    0.000 
#    4.500    2.500    2.750    0.000    0.000    0.000 
#    0.000    0.000    0.000    0.000    0.000    0.000 
#
# Total GULP energy -357117.774212 kJ/mol
# GULP energy per Si atom -5579.965222 kJ/mol
# Density = 2.179439 g / cm^3
# Si number density = 21.844112 Si / 1000 Ang^3
#
#
#
# Elastic Constant Matrix: (Units=GPa)
#
#
# Indices 1 2 3 4 5 6 
#
# 1 87.8856 -3.8167 34.0609 0.0000 0.0000 0.0000
# 2 -3.8167 52.0769 22.7836 0.0000 0.0000 0.0000
# 3 34.0609 22.7836 94.3259 0.0000 0.0000 0.0000
# 4 0.0000 0.0000 0.0000 17.2242 0.0000 0.0000
# 5 0.0000 0.0000 0.0000 0.0000 21.5381 0.0000
# 6 0.0000 0.0000 0.0000 0.0000 0.0000 21.2338
#
#
#
# Elastic Compliance Matrix: (Units=1/GPa)
#
#
# Indices 1 2 3 4 5 6 
#
# 1 0.013798 0.003568 -0.005844 0.000000 0.000000 0.000000
# 2 0.003568 0.022394 -0.006698 0.000000 0.000000 0.000000
# 3 -0.005844 -0.006698 0.014330 0.000000 0.000000 0.000000
# 4 0.000000 0.000000 0.000000 0.058058 0.000000 0.000000
# 5 0.000000 0.000000 0.000000 0.000000 0.046429 0.000000
# 6 0.000000 0.000000 0.000000 0.000000 0.000000 0.047095
#
#
# Mechanical properties :
#
#
# Convention : Reuss Voigt Hill
#
# Bulk Modulus (GPa) = 30.69874 37.81601 34.25737
# Shear Modulus (GPa) = 21.65344 24.08325 22.86834
#
# Velocity S-wave (km/s) = 3.15186 3.32400 3.23908
# Velocity P-wave (km/s) = 5.22778 5.66404 5.45028
#
# Compressibility (1/GPa) = 0.03257463
#
# Stress axis : x y z
#
# Youngs Moduli (GPa) = 72.47171 44.65466 69.78496
#
# Poissons Ratio (x) = -0.15934 0.40786
# Poissons Ratio (y) = -0.25860 0.46739
# Poissons Ratio (z) = 0.42356 0.29908
#
# Static dielectric constant tensor:
#      x y z
#    x 1.847920 0.000000 0.000000 
#    y 0.000000 1.875650 0.000000 
#    z 0.000000 0.000000 1.864590 
# 
# From -- ./inp_files/19848.got.cif
#   From: 2010.05.17/outbox.cif.g08.bks.cpg/sg52_10_cif.got.tgz:19848.got - 2010.06.03 12:15:38.
