data_PCOD9410532
_publ_section_title
;
Structure prediction by ZEFSAII (Michael W. Deem and Ramdas Pophale) SiO2 
 PCOD9410532
Probable space group: P N N A
;
_chemical_formula_sum "Si O2"
_cell_formula_units_Z 48
_cell_length_a 24.484914
_cell_length_b 17.455202
_cell_length_c 5.521605
_cell_angle_alpha 90.000000
_cell_angle_beta 90.000000
_cell_angle_gamma 90.000000
_cell_volume 2359.873901
_symmetry_space_group_name_H-M "P N N A"
_symmetry_group_IT_number 52
_symmetry_cell_setting 'orthorhombic'
loop_
_space_group_symop_operation_xyz
x,y,z
1/2-x,-y,z
x,1/2-y,1/2-z
1/2-x,1/2+y,1/2-z
-x,-y,-z
1/2+x,y,-z
-x,1/2+y,1/2+z
1/2+x,1/2-y,1/2+z
loop_
_atom_site_type_symbol
_atom_site_label
_atom_site_fract_x
_atom_site_fract_y
_atom_site_fract_z
Si Si1 0.086655 0.028487 0.569917
Si Si2 0.934143 0.826470 0.092028
Si Si3 0.273840 0.085296 0.893034
Si Si4 0.682317 0.293066 0.510759
Si Si5 0.994094 0.430408 0.314130
Si Si6 0.806288 0.452623 0.891397
O O1 0.085934 0.099828 0.752666
O O2 0.041657 0.054468 0.377974
O O3 0.144600 0.010189 0.453309
O O4 0.063568 0.949441 0.689013
O O5 0.943662 0.750000 0.250000
O O6 0.880532 0.813419 0.929754
O O7 0.988416 0.852912 0.949497
O O8 0.313562 0.085388 0.127008
O O9 0.250000 0.000000 0.865215
O O10 0.222703 0.137487 0.959779
O O11 0.299130 0.101603 0.627797
O O12 0.680204 0.250000 0.250000
O O13 0.703460 0.250000 0.750000
O O14 0.000000 0.500000 0.500000
O O15 0.750000 0.500000 0.866956
#
# Coordination Sequence:
#
# PCOD9410532 Si02
#       6
#     8   8   8   8   8   8
#     4  10  21  38  59  91 126 158 208 264 321 363
#     4  10  22  34  59  91 125 163 203 253 327 384
#     4  10  21  36  56  90 119 163 205 247 301 370
#     4  11  24  39  60  92 134 168 198 264 329 377
#     4   9  21  37  59  84 123 161 201 263 317 372
#     4  10  21  33  60  91 121 159 202 259 302 360
#
# _framework density 20.340070999999998
#
# number of rings (size 3 to 8) (size 9 to 14) (size 15 to 20)
#    0.000    2.000    0.000    3.000   14.000    0.000 
#    0.000    0.000    0.000    1.000   21.667    0.000 
#    0.000    0.000    0.000    0.000    0.000    0.000 
#
# Total GULP energy -267477.452290 kJ/mol
# GULP energy per Si atom -5572.446923 kJ/mol
# Density = 2.029378 g / cm^3
# Si number density = 20.340071 Si / 1000 Ang^3
#
#
#
# Elastic Constant Matrix: (Units=GPa)
#
#
# Indices 1 2 3 4 5 6 
#
# 1 53.1190 17.1469 -13.2371 0.0000 0.0000 0.0000
# 2 17.1469 71.0749 2.5924 0.0000 0.0000 0.0000
# 3 -13.2371 2.5924 87.2836 0.0000 0.0000 0.0000
# 4 0.0000 0.0000 0.0000 27.9192 0.0000 0.0000
# 5 0.0000 0.0000 0.0000 0.0000 19.0846 0.0000
# 6 0.0000 0.0000 0.0000 0.0000 0.0000 18.6350
#
#
#
# Elastic Compliance Matrix: (Units=1/GPa)
#
#
# Indices 1 2 3 4 5 6 
#
# 1 0.021377 -0.005281 0.003399 0.000000 0.000000 0.000000
# 2 -0.005281 0.015390 -0.001258 0.000000 0.000000 0.000000
# 3 0.003399 -0.001258 0.012010 0.000000 0.000000 0.000000
# 4 0.000000 0.000000 0.000000 0.035818 0.000000 0.000000
# 5 0.000000 0.000000 0.000000 0.000000 0.052398 0.000000
# 6 0.000000 0.000000 0.000000 0.000000 0.000000 0.053662
#
#
# Mechanical properties :
#
#
# Convention : Reuss Voigt Hill
#
# Bulk Modulus (GPa) = 23.53164 24.94243 24.23703
# Shear Modulus (GPa) = 23.68531 26.79280 25.23906
#
# Velocity S-wave (km/s) = 3.41613 3.63332 3.52640
# Velocity P-wave (km/s) = 5.21096 5.46724 5.34064
#
# Compressibility (1/GPa) = 0.04249598
#
# Stress axis : x y z
#
# Youngs Moduli (GPa) = 46.77821 64.97866 83.26579
#
# Poissons Ratio (x) = 0.34317 -0.28301
# Poissons Ratio (y) = 0.24705 0.10475
# Poissons Ratio (z) = -0.15899 0.08175
#
# Static dielectric constant tensor:
#      x y z
#    x 1.633120 0.000000 0.000000 
#    y 0.000000 1.916020 0.000000 
#    z 0.000000 0.000000 1.870030 
# 
# From -- ./inp_files/5136.got.cif
#   From: 2010.05.17/outbox.cif.g08.bks.cpg/sg52_3_cif.got.tgz:5136.got - 2010.06.03 12:15:38.
