data_PCOD9410239
_publ_section_title
;
Structure prediction by ZEFSAII (Michael W. Deem and Ramdas Pophale) SiO2 
 PCOD9410239
Probable space group: P N N A
;
_chemical_formula_sum "Si O2"
_cell_formula_units_Z 32
_cell_length_a 12.163489
_cell_length_b 11.834278
_cell_length_c 9.485957
_cell_angle_alpha 90.000000
_cell_angle_beta 90.000000
_cell_angle_gamma 90.000000
_cell_volume 1365.466612
_symmetry_space_group_name_H-M "P N N A"
_symmetry_group_IT_number 52
_symmetry_cell_setting 'orthorhombic'
loop_
_space_group_symop_operation_xyz
x,y,z
1/2-x,-y,z
x,1/2-y,1/2-z
1/2-x,1/2+y,1/2-z
-x,-y,-z
1/2+x,y,-z
-x,1/2+y,1/2+z
1/2+x,1/2-y,1/2+z
loop_
_atom_site_type_symbol
_atom_site_label
_atom_site_fract_x
_atom_site_fract_y
_atom_site_fract_z
Si Si1 0.800783 0.872025 0.710913
Si Si2 0.374426 0.036443 0.681629
Si Si3 0.974312 0.651366 0.039780
Si Si4 0.002235 0.618634 0.572292
O O1 0.740694 0.750000 0.750000
O O2 0.866527 0.862026 0.562167
O O3 0.896254 0.870935 0.828386
O O4 0.750000 0.000000 0.716362
O O5 0.447819 0.921666 0.676793
O O6 0.250000 0.000000 0.676286
O O7 0.421988 0.098658 0.543857
O O8 0.397896 0.114505 0.816265
O O9 0.000754 0.782174 0.040288
O O10 0.000000 0.500000 0.500000
#
# Coordination Sequence:
#
# PCOD9410239 Si02
#       4
#     8   8   8   8
#     4   9  18  37  61  84 118 160 202 252 311 369
#     4  10  20  39  67  91 116 167 219 248 313 384
#     4   9  20  41  62  87 126 158 202 268 309 362
#     4  10  22  41  55  86 134 159 197 265 314 365
#
# _framework density 23.435212
#
# number of rings (size 3 to 8) (size 9 to 14) (size 15 to 20)
#    0.000    2.500    0.000    3.000    0.000    2.000 
#   31.500    0.000    0.000    0.000    0.000    0.000 
#    0.000    0.000    0.000    0.000    0.000    0.000 
#
# Total GULP energy -178480.106651 kJ/mol
# GULP energy per Si atom -5577.503333 kJ/mol
# Density = 2.338187 g / cm^3
# Si number density = 23.435212 Si / 1000 Ang^3
#
#
#
# Elastic Constant Matrix: (Units=GPa)
#
#
# Indices 1 2 3 4 5 6 
#
# 1 70.5044 27.5769 -11.4022 0.0000 0.0000 0.0000
# 2 27.5769 208.3777 19.3717 0.0000 0.0000 0.0000
# 3 -11.4022 19.3717 32.9195 0.0000 0.0000 0.0000
# 4 0.0000 0.0000 0.0000 159.7238 0.0000 0.0000
# 5 0.0000 0.0000 0.0000 0.0000 -9.7336 0.0000
# 6 0.0000 0.0000 0.0000 0.0000 0.0000 31.9191
#
#
#
# Elastic Compliance Matrix: (Units=1/GPa)
#
#
# Indices 1 2 3 4 5 6 
#
# 1 0.016505 -0.002873 0.007407 0.000000 0.000000 0.000000
# 2 -0.002873 0.005577 -0.004277 0.000000 0.000000 0.000000
# 3 0.007407 -0.004277 0.035459 0.000000 0.000000 0.000000
# 4 0.000000 0.000000 0.000000 0.006261 0.000000 0.000000
# 5 0.000000 0.000000 0.000000 0.000000 -0.102737 0.000000
# 6 0.000000 0.000000 0.000000 0.000000 0.000000 0.031329
#
#
# Mechanical properties :
#
#
# Convention : Reuss Voigt Hill
#
# Bulk Modulus (GPa) = 17.22450 42.54383 29.88416
# Shear Modulus (GPa) = 445.18926 54.79889 249.99408
#
# Velocity S-wave (km/s) = 13.79777 4.84086 10.33954
# Velocity P-wave (km/s) = 16.16179 7.03125 12.46279
#
# Compressibility (1/GPa) = 0.05805685
#
# Stress axis : x y z
#
# Youngs Moduli (GPa) = 60.58708 179.31524 28.20119
#
# Poissons Ratio (x) = 0.51516 -0.20890
# Poissons Ratio (y) = 0.17406 0.12061
# Poissons Ratio (z) = -0.44879 0.76689
#
# Static dielectric constant tensor:
#      x y z
#    x 1.779800 0.000000 0.000000 
#    y 0.000000 2.004580 0.000000 
#    z 0.000000 0.000000 1.917840 
# 
# From -- ./inp_files/17602.got.cif
#   From: 2010.05.17/outbox.cif.g08.bks.cpg/sg52_9_cif.got.tgz:17602.got - 2010.06.03 12:15:38.
