data_PCOD9410480
_publ_section_title
;
Structure prediction by ZEFSAII (Michael W. Deem and Ramdas Pophale) SiO2 
 PCOD9410480
Probable space group: P N N A
;
_chemical_formula_sum "Si O2"
_cell_formula_units_Z 40
_cell_length_a 14.297975
_cell_length_b 13.982856
_cell_length_c 6.859989
_cell_angle_alpha 90.000000
_cell_angle_beta 90.000000
_cell_angle_gamma 90.000000
_cell_volume 1371.493766
_symmetry_space_group_name_H-M "P N N A"
_symmetry_group_IT_number 52
_symmetry_cell_setting 'orthorhombic'
loop_
_space_group_symop_operation_xyz
x,y,z
1/2-x,-y,z
x,1/2-y,1/2-z
1/2-x,1/2+y,1/2-z
-x,-y,-z
1/2+x,y,-z
-x,1/2+y,1/2+z
1/2+x,1/2-y,1/2+z
loop_
_atom_site_type_symbol
_atom_site_label
_atom_site_fract_x
_atom_site_fract_y
_atom_site_fract_z
Si Si1 0.295783 0.667324 0.132846
Si Si2 0.096824 0.979603 0.875979
Si Si3 0.448896 0.163349 0.142147
Si Si4 0.834090 0.816372 0.110341
Si Si5 0.882583 0.471844 0.925706
O O1 0.298352 0.708975 0.379500
O O2 0.309273 0.693076 0.862718
O O3 0.207257 0.594934 0.122929
O O4 0.375512 0.582844 0.137815
O O5 0.100298 0.959894 0.650565
O O6 0.166988 0.067134 0.905496
O O7 0.116989 0.877414 0.975249
O O8 0.000000 0.000000 0.000000
O O9 0.400581 0.250000 0.250000
O O10 0.551173 0.196579 0.078796
O O11 0.461801 0.085148 0.310407
#
# Coordination Sequence:
#
# PCOD9410480 Si02
#       5
#     8   8   8   8   8
#     4  11  24  46  73 105 148 205 257 313 402 487
#     4  10  22  43  74 109 146 194 252 320 393 466
#     4  10  23  44  66 104 148 187 253 319 388 462
#     4  10  20  43  68  99 138 190 245 311 383 465
#     4  11  24  46  73 108 149 200 254 327 394 474
#
# _framework density 29.165281
#
# number of rings (size 3 to 8) (size 9 to 14) (size 15 to 20)
#    0.000    1.600    2.000    1.800    0.000    4.000 
#   21.600    2.000    0.000    0.000    0.000    0.000 
#    0.000    0.000    0.000    0.000    0.000    0.000 
#
# Total GULP energy -222966.023958 kJ/mol
# GULP energy per Si atom -5574.150599 kJ/mol
# Density = 2.909890 g / cm^3
# Si number density = 29.165281 Si / 1000 Ang^3
#
#
#
# Elastic Constant Matrix: (Units=GPa)
#
#
# Indices 1 2 3 4 5 6 
#
# 1 105.2162 45.8986 48.1829 0.0000 0.0000 0.0000
# 2 45.8986 238.6491 125.2691 0.0000 0.0000 0.0000
# 3 48.1829 125.2691 283.2519 0.0000 0.0000 0.0000
# 4 0.0000 0.0000 0.0000 93.9298 0.0000 0.0000
# 5 0.0000 0.0000 0.0000 0.0000 23.5840 0.0000
# 6 0.0000 0.0000 0.0000 0.0000 0.0000 42.2207
#
#
#
# Elastic Compliance Matrix: (Units=1/GPa)
#
#
# Indices 1 2 3 4 5 6 
#
# 1 0.010670 -0.001432 -0.001182 0.000000 0.000000 0.000000
# 2 -0.001432 0.005649 -0.002255 0.000000 0.000000 0.000000
# 3 -0.001182 -0.002255 0.004729 0.000000 0.000000 0.000000
# 4 0.000000 0.000000 0.000000 0.010646 0.000000 0.000000
# 5 0.000000 0.000000 0.000000 0.000000 0.042402 0.000000
# 6 0.000000 0.000000 0.000000 0.000000 0.000000 0.023685
#
#
# Mechanical properties :
#
#
# Convention : Reuss Voigt Hill
#
# Bulk Modulus (GPa) = 88.40923 118.42427 103.41675
# Shear Modulus (GPa) = 44.92849 59.13135 52.02992
#
# Velocity S-wave (km/s) = 3.92915 4.50761 4.22829
# Velocity P-wave (km/s) = 7.13886 8.23311 7.70543
#
# Compressibility (1/GPa) = 0.01131104
#
# Stress axis : x y z
#
# Youngs Moduli (GPa) = 93.72041 177.01617 211.47610
#
# Poissons Ratio (x) = 0.25345 0.24993
# Poissons Ratio (y) = 0.13419 0.47684
# Poissons Ratio (z) = 0.11076 0.39914
#
# Static dielectric constant tensor:
#      x y z
#    x 2.365690 0.000000 0.000000 
#    y 0.000000 2.654310 0.000000 
#    z 0.000000 0.000000 3.283340 
# 
# From -- ./inp_files/4223.got.cif
#   From: 2010.05.17/outbox.cif.g08.bks.cpg/sg52_3_cif.got.tgz:4223.got - 2010.06.03 12:15:38.
