data_PCOD9410776
_publ_section_title
;
Structure prediction by ZEFSAII (Michael W. Deem and Ramdas Pophale) SiO2 
 PCOD9410776
Probable space group: P N N A
;
_chemical_formula_sum "Si O2"
_cell_formula_units_Z 64
_cell_length_a 19.547887
_cell_length_b 9.038554
_cell_length_c 18.758742
_cell_angle_alpha 90.000000
_cell_angle_beta 90.000000
_cell_angle_gamma 90.000000
_cell_volume 3314.381431
_symmetry_space_group_name_H-M "P N N A"
_symmetry_group_IT_number 52
_symmetry_cell_setting 'orthorhombic'
loop_
_space_group_symop_operation_xyz
x,y,z
1/2-x,-y,z
x,1/2-y,1/2-z
1/2-x,1/2+y,1/2-z
-x,-y,-z
1/2+x,y,-z
-x,1/2+y,1/2+z
1/2+x,1/2-y,1/2+z
loop_
_atom_site_type_symbol
_atom_site_label
_atom_site_fract_x
_atom_site_fract_y
_atom_site_fract_z
Si Si1 0.083459 0.495032 0.661878
Si Si2 0.548406 0.705870 0.668187
Si Si3 0.844054 0.758800 0.411030
Si Si4 0.176430 0.986151 0.705201
Si Si5 0.207347 0.847427 0.177457
Si Si6 0.269891 0.323024 0.483470
Si Si7 0.527387 0.067364 0.428508
Si Si8 0.878388 0.287028 0.096103
O O1 0.142105 0.400671 0.622129
O O2 0.112783 0.512343 0.741402
O O3 0.079099 0.650728 0.624439
O O4 0.011889 0.411444 0.655883
O O5 0.540811 0.750000 0.750000
O O6 0.625169 0.641099 0.662402
O O7 0.529190 0.850472 0.620297
O O8 0.787678 0.759647 0.471186
O O9 0.916060 0.808581 0.443962
O O10 0.829618 0.872870 0.347145
O O11 0.176052 0.838859 0.656181
O O12 0.250000 0.000000 0.742730
O O13 0.215329 0.750000 0.250000
O O14 0.231852 0.784423 0.100514
O O15 0.250000 0.000000 0.187704
O O16 0.250000 0.500000 0.488484
O O17 0.339494 0.267146 0.524036
O O18 0.500000 0.000000 0.500000
O O19 0.571632 0.928147 0.401251
#
# Coordination Sequence:
#
# PCOD9410776 Si02
#       8
#     8   8   8   8   8   8   8   8
#     4  11  22  36  59  91 129 181 211 249 303 369
#     4  10  21  45  67  87 127 170 203 259 328 384
#     4  10  21  38  57  88 128 174 211 245 317 370
#     4  11  22  33  54  88 134 174 221 248 282 361
#     4  10  24  49  73  96 118 153 211 271 340 403
#     4  11  21  40  63  91 131 166 205 274 321 368
#     4  10  22  41  60  90 125 165 214 263 314 381
#     4  11  22  36  56  93 132 169 221 257 299 369
#
# _framework density 19.309785999999999
#
# number of rings (size 3 to 8) (size 9 to 14) (size 15 to 20)
#    0.000    1.500    2.500    3.750    1.750    1.000 
#   13.500    3.125    0.000    0.000    0.000    0.000 
#    0.000    0.000    0.000    0.000    0.000    0.000 
#
# Total GULP energy -356406.768405 kJ/mol
# GULP energy per Si atom -5568.855756 kJ/mol
# Density = 1.926584 g / cm^3
# Si number density = 19.309786 Si / 1000 Ang^3
#
#
#
# Elastic Constant Matrix: (Units=GPa)
#
#
# Indices 1 2 3 4 5 6 
#
# 1 98.2643 32.1164 44.8771 0.0000 0.0000 0.0000
# 2 32.1164 78.0168 34.0240 0.0000 0.0000 0.0000
# 3 44.8771 34.0240 123.9410 0.0000 0.0000 0.0000
# 4 0.0000 0.0000 0.0000 24.6965 0.0000 0.0000
# 5 0.0000 0.0000 0.0000 0.0000 22.1408 0.0000
# 6 0.0000 0.0000 0.0000 0.0000 0.0000 14.9473
#
#
#
# Elastic Compliance Matrix: (Units=1/GPa)
#
#
# Indices 1 2 3 4 5 6 
#
# 1 0.013105 -0.003778 -0.003708 0.000000 0.000000 0.000000
# 2 -0.003778 0.015650 -0.002928 0.000000 0.000000 0.000000
# 3 -0.003708 -0.002928 0.010215 0.000000 0.000000 0.000000
# 4 0.000000 0.000000 0.000000 0.040492 0.000000 0.000000
# 5 0.000000 0.000000 0.000000 0.000000 0.045166 0.000000
# 6 0.000000 0.000000 0.000000 0.000000 0.000000 0.066902
#
#
# Mechanical properties :
#
#
# Convention : Reuss Voigt Hill
#
# Bulk Modulus (GPa) = 55.12198 58.02855 56.57527
# Shear Modulus (GPa) = 22.89341 24.97056 23.93199
#
# Velocity S-wave (km/s) = 3.44697 3.59995 3.52429
# Velocity P-wave (km/s) = 6.66710 6.88448 6.77666
#
# Compressibility (1/GPa) = 0.01814158
#
# Stress axis : x y z
#
# Youngs Moduli (GPa) = 76.30835 63.89802 97.89666
#
# Poissons Ratio (x) = 0.24138 0.36300
# Poissons Ratio (y) = 0.28826 0.28668
# Poissons Ratio (z) = 0.28295 0.18712
#
# Static dielectric constant tensor:
#      x y z
#    x 3.157470 0.000000 0.000000 
#    y 0.000000 1.696840 0.000000 
#    z 0.000000 0.000000 1.722630 
# 
# From -- ./inp_files/34133.got.cif
#   From: 2010.05.17/outbox.cif.g08.bks.cpg/sg52_18_cif.got.tgz:34133.got - 2010.06.03 12:15:38.
