data_PCOD9410438
_publ_section_title
;
Structure prediction by ZEFSAII (Michael W. Deem and Ramdas Pophale) SiO2 
 PCOD9410438
Probable space group: P N N A
;
_chemical_formula_sum "Si O2"
_cell_formula_units_Z 40
_cell_length_a 14.158367
_cell_length_b 12.487498
_cell_length_c 9.560334
_cell_angle_alpha 90.000000
_cell_angle_beta 90.000000
_cell_angle_gamma 90.000000
_cell_volume 1690.291713
_symmetry_space_group_name_H-M "P N N A"
_symmetry_group_IT_number 52
_symmetry_cell_setting 'orthorhombic'
loop_
_space_group_symop_operation_xyz
x,y,z
1/2-x,-y,z
x,1/2-y,1/2-z
1/2-x,1/2+y,1/2-z
-x,-y,-z
1/2+x,y,-z
-x,1/2+y,1/2+z
1/2+x,1/2-y,1/2+z
loop_
_atom_site_type_symbol
_atom_site_label
_atom_site_fract_x
_atom_site_fract_y
_atom_site_fract_z
Si Si1 0.780238 0.322317 0.540489
Si Si2 0.297349 0.837593 0.640570
Si Si3 0.133784 0.933339 0.763227
Si Si4 0.250000 0.500000 0.239679
Si Si5 0.435903 0.250000 0.250000
Si Si6 0.538589 0.519276 0.844937
O O1 0.703936 0.229704 0.502233
O O2 0.818539 0.396386 0.410152
O O3 0.738307 0.399933 0.657317
O O4 0.870834 0.273337 0.615963
O O5 0.331561 0.750000 0.750000
O O6 0.336021 0.951022 0.695254
O O7 0.020835 0.939292 0.755685
O O8 0.183292 0.851006 0.658005
O O9 0.000000 0.000000 0.500000
O O10 0.347927 0.490959 0.156300
O O11 0.483910 0.361400 0.210372
#
# Coordination Sequence:
#
# PCOD9410438 Si02
#       6
#     8   8   8   4   4   8
#     4  10  20  42  66  99 141 179 234 284 363 418
#     4   9  18  35  66 100 136 176 226 287 338 419
#     4  10  21  37  67 102 138 188 230 288 348 422
#     4  10  24  44  70 100 144 182 230 306 358 418
#     4  10  24  40  66  96 132 186 226 300 350 430
#     4  11  25  46  70 102 141 188 237 294 363 429
#
# _framework density 23.664555
#
# number of rings (size 3 to 8) (size 9 to 14) (size 15 to 20)
#    0.000    2.000    0.000    3.600    1.400    8.000 
#    3.600    0.000   26.400    0.000    0.000    0.000 
#    0.000    0.000    0.000    0.000    0.000    0.000 
#
# Total GULP energy -222822.946694 kJ/mol
# GULP energy per Si atom -5570.573667 kJ/mol
# Density = 2.361069 g / cm^3
# Si number density = 23.664555 Si / 1000 Ang^3
#
#
#
# Elastic Constant Matrix: (Units=GPa)
#
#
# Indices 1 2 3 4 5 6 
#
# 1 126.7968 44.1618 38.3231 0.0000 0.0000 0.0000
# 2 44.1618 77.8400 31.5219 0.0000 0.0000 0.0000
# 3 38.3231 31.5219 124.5629 0.0000 0.0000 0.0000
# 4 0.0000 0.0000 0.0000 40.4037 0.0000 0.0000
# 5 0.0000 0.0000 0.0000 0.0000 8.4512 0.0000
# 6 0.0000 0.0000 0.0000 0.0000 0.0000 52.1969
#
#
#
# Elastic Compliance Matrix: (Units=1/GPa)
#
#
# Indices 1 2 3 4 5 6 
#
# 1 0.010204 -0.005033 -0.001865 0.000000 0.000000 0.000000
# 2 -0.005033 0.016797 -0.002702 0.000000 0.000000 0.000000
# 3 -0.001865 -0.002702 0.009286 0.000000 0.000000 0.000000
# 4 0.000000 0.000000 0.000000 0.024750 0.000000 0.000000
# 5 0.000000 0.000000 0.000000 0.000000 0.118327 0.000000
# 6 0.000000 0.000000 0.000000 0.000000 0.000000 0.019158
#
#
# Mechanical properties :
#
#
# Convention : Reuss Voigt Hill
#
# Bulk Modulus (GPa) = 58.53350 61.91260 60.22305
# Shear Modulus (GPa) = 22.37957 34.55653 28.46805
#
# Velocity S-wave (km/s) = 3.07856 3.82549 3.47217
# Velocity P-wave (km/s) = 6.11760 6.76253 6.44814
#
# Compressibility (1/GPa) = 0.01708424
#
# Stress axis : x y z
#
# Youngs Moduli (GPa) = 98.00512 59.53537 107.69167
#
# Poissons Ratio (x) = 0.29967 0.20089
# Poissons Ratio (y) = 0.49330 0.29098
# Poissons Ratio (z) = 0.18282 0.16086
#
# Static dielectric constant tensor:
#      x y z
#    x 2.041090 0.000000 0.000000 
#    y 0.000000 1.958540 0.000000 
#    z 0.000000 0.000000 1.923450 
# 
# From -- ./inp_files/11889.got.cif
#   From: 2010.05.17/outbox.cif.g08.bks.cpg/sg52_6_cif.got.tgz:11889.got - 2010.06.03 12:15:38.
