data_PCOD9410538
_publ_section_title
;
Structure prediction by ZEFSAII (Michael W. Deem and Ramdas Pophale) SiO2 
 PCOD9410538
Probable space group: P N N A
;
_chemical_formula_sum "Si O2"
_cell_formula_units_Z 60
_cell_length_a 8.435537
_cell_length_b 27.050157
_cell_length_c 11.787971
_cell_angle_alpha 90.000000
_cell_angle_beta 90.000000
_cell_angle_gamma 90.000000
_cell_volume 2689.809874
_symmetry_space_group_name_H-M "P N N A"
_symmetry_group_IT_number 52
_symmetry_cell_setting 'orthorhombic'
loop_
_space_group_symop_operation_xyz
x,y,z
1/2-x,-y,z
x,1/2-y,1/2-z
1/2-x,1/2+y,1/2-z
-x,-y,-z
1/2+x,y,-z
-x,1/2+y,1/2+z
1/2+x,1/2-y,1/2+z
loop_
_atom_site_type_symbol
_atom_site_label
_atom_site_fract_x
_atom_site_fract_y
_atom_site_fract_z
Si Si1 0.931981 0.956810 0.726817
Si Si2 0.751783 0.207753 0.659446
Si Si3 0.586603 0.391847 0.442134
Si Si4 0.856738 0.459554 0.417225
Si Si5 0.730516 0.623048 0.666642
Si Si6 0.750000 0.500000 0.972677
Si Si7 0.056548 0.173602 0.554518
Si Si8 0.334187 0.396633 0.909124
O O1 0.780739 0.932056 0.789819
O O2 0.045468 0.983684 0.815665
O O3 0.041974 0.911243 0.687413
O O4 0.890653 0.988519 0.616986
O O5 0.713086 0.250000 0.750000
O O6 0.728460 0.157656 0.729409
O O7 0.642999 0.203502 0.547330
O O8 0.937012 0.208710 0.622845
O O9 0.732892 0.417324 0.379011
O O10 0.478007 0.433742 0.500347
O O11 0.667602 0.366046 0.552191
O O12 0.453955 0.367444 0.363710
O O13 0.750000 0.500000 0.476646
O O14 0.728056 0.550539 0.042676
O O15 0.192912 0.141717 0.617207
O O16 0.939130 0.131799 0.503046
#
# Coordination Sequence:
#
# PCOD9410538 Si02
#       8
#     8   8   8   8   8   4   8   8
#     4  11  23  35  56  88 123 173 223 264 324 375
#     4  11  24  45  73 100 131 165 212 265 339 406
#     4   9  21  39  60  84 121 167 219 268 326 378
#     4  10  21  34  54  82 117 161 220 271 314 365
#     4  10  21  43  62  91 126 171 210 276 335 391
#     4  12  24  36  58  92 132 180 240 278 304 388
#     4  10  23  44  68  96 135 173 211 270 334 402
#     4  11  21  41  60  88 135 178 219 268 326 380
#
# _framework density 22.306408000000001
#
# number of rings (size 3 to 8) (size 9 to 14) (size 15 to 20)
#    0.000    1.600    2.667    1.600    4.667    1.067 
#    2.400    2.667    0.000    0.000    0.000    0.000 
#    0.000    0.000    0.000    0.000    0.000    0.000 
#
# Total GULP energy -334727.335718 kJ/mol
# GULP energy per Si atom -5578.788929 kJ/mol
# Density = 2.225564 g / cm^3
# Si number density = 22.306408 Si / 1000 Ang^3
#
#
#
# Elastic Constant Matrix: (Units=GPa)
#
#
# Indices 1 2 3 4 5 6 
#
# 1 106.1656 23.3980 34.0645 0.0000 0.0000 0.0000
# 2 23.3980 38.4178 23.8604 0.0000 0.0000 0.0000
# 3 34.0645 23.8604 65.1649 0.0000 0.0000 0.0000
# 4 0.0000 0.0000 0.0000 26.1445 0.0000 0.0000
# 5 0.0000 0.0000 0.0000 0.0000 35.6472 0.0000
# 6 0.0000 0.0000 0.0000 0.0000 0.0000 18.0223
#
#
#
# Elastic Compliance Matrix: (Units=1/GPa)
#
#
# Indices 1 2 3 4 5 6 
#
# 1 0.011857 -0.004364 -0.004600 0.000000 0.000000 0.000000
# 2 -0.004364 0.035298 -0.010643 0.000000 0.000000 0.000000
# 3 -0.004600 -0.010643 0.021647 0.000000 0.000000 0.000000
# 4 0.000000 0.000000 0.000000 0.038249 0.000000 0.000000
# 5 0.000000 0.000000 0.000000 0.000000 0.028053 0.000000
# 6 0.000000 0.000000 0.000000 0.000000 0.000000 0.055487
#
#
# Mechanical properties :
#
#
# Convention : Reuss Voigt Hill
#
# Bulk Modulus (GPa) = 33.79844 41.37714 37.58779
# Shear Modulus (GPa) = 20.86214 24.52448 22.69331
#
# Velocity S-wave (km/s) = 3.06151 3.31937 3.19304
# Velocity P-wave (km/s) = 5.26136 5.76894 5.52099
#
# Compressibility (1/GPa) = 0.02958717
#
# Stress axis : x y z
#
# Youngs Moduli (GPa) = 84.33728 28.33031 46.19491
#
# Poissons Ratio (x) = 0.12365 0.21251
# Poissons Ratio (y) = 0.36808 0.49165
# Poissons Ratio (z) = 0.38797 0.30152
#
# Static dielectric constant tensor:
#      x y z
#    x 1.899680 0.000000 0.000000 
#    y 0.000000 1.865760 0.000000 
#    z 0.000000 0.000000 1.874240 
# 
# From -- ./inp_files/17215.got.cif
#   From: 2010.05.17/outbox.cif.g08.bks.cpg/sg52_9_cif.got.tgz:17215.got - 2010.06.03 12:15:38.
