data_PCOD9410131
_publ_section_title
;
Structure prediction by ZEFSAII (Michael W. Deem and Ramdas Pophale) SiO2 
 PCOD9410131
Probable space group: P N N A
;
_chemical_formula_sum "Si O2"
_cell_formula_units_Z 40
_cell_length_a 11.868502
_cell_length_b 13.305598
_cell_length_c 11.015551
_cell_angle_alpha 90.000000
_cell_angle_beta 90.000000
_cell_angle_gamma 90.000000
_cell_volume 1739.548457
_symmetry_space_group_name_H-M "P N N A"
_symmetry_group_IT_number 52
_symmetry_cell_setting 'orthorhombic'
loop_
_space_group_symop_operation_xyz
x,y,z
1/2-x,-y,z
x,1/2-y,1/2-z
1/2-x,1/2+y,1/2-z
-x,-y,-z
1/2+x,y,-z
-x,1/2+y,1/2+z
1/2+x,1/2-y,1/2+z
loop_
_atom_site_type_symbol
_atom_site_label
_atom_site_fract_x
_atom_site_fract_y
_atom_site_fract_z
Si Si1 0.363372 0.938131 0.691410
Si Si2 0.946252 0.318796 0.396532
Si Si3 0.240476 0.250000 0.750000
Si Si4 0.250000 0.000000 0.303245
Si Si5 0.068577 0.643410 0.323871
Si Si6 0.965919 0.899635 0.651654
O O1 0.325201 0.824761 0.659846
O O2 0.447285 0.908148 0.800305
O O3 0.250000 0.000000 0.712630
O O4 0.445356 0.012897 0.618833
O O5 0.825150 0.314908 0.331171
O O6 0.925966 0.351014 0.532365
O O7 0.995916 0.205813 0.402776
O O8 0.022909 0.378874 0.298792
O O9 0.169222 0.925256 0.228306
O O10 0.339495 0.933139 0.377112
O O11 0.072023 0.750000 0.250000
#
# Coordination Sequence:
#
# PCOD9410131 Si02
#       6
#     8   8   4   4   8   8
#     4  11  19  41  67  93 129 161 225 275 323 384
#     4  10  21  40  66  95 129 166 219 271 329 394
#     4  10  20  38  66  96 122 166 216 280 326 382
#     4  10  24  44  64  96 140 176 218 268 340 408
#     4  11  26  43  63  98 137 176 219 273 330 401
#     4   9  21  41  66  95 128 170 215 273 331 396
#
# _framework density 22.994474
#
# number of rings (size 3 to 8) (size 9 to 14) (size 15 to 20)
#    0.000    2.000    5.000    0.000    2.800    6.400 
#    1.800    6.000    2.200    0.000    0.000    0.000 
#    0.000    0.000    0.000    0.000    0.000    0.000 
#
# Total GULP energy -223033.077187 kJ/mol
# GULP energy per Si atom -5575.826930 kJ/mol
# Density = 2.294214 g / cm^3
# Si number density = 22.994474 Si / 1000 Ang^3
#
#
#
# Elastic Constant Matrix: (Units=GPa)
#
#
# Indices 1 2 3 4 5 6 
#
# 1 136.8831 28.1122 7.8347 0.0000 0.0000 0.0000
# 2 28.1122 93.3195 -14.5745 0.0000 0.0000 0.0000
# 3 7.8347 -14.5745 78.3198 0.0000 0.0000 0.0000
# 4 0.0000 0.0000 0.0000 10.9521 0.0000 0.0000
# 5 0.0000 0.0000 0.0000 0.0000 12.5734 0.0000
# 6 0.0000 0.0000 0.0000 0.0000 0.0000 44.8500
#
#
#
# Elastic Compliance Matrix: (Units=1/GPa)
#
#
# Indices 1 2 3 4 5 6 
#
# 1 0.007908 -0.002581 -0.001271 0.000000 0.000000 0.000000
# 2 -0.002581 0.011879 0.002469 0.000000 0.000000 0.000000
# 3 -0.001271 0.002469 0.013355 0.000000 0.000000 0.000000
# 4 0.000000 0.000000 0.000000 0.091307 0.000000 0.000000
# 5 0.000000 0.000000 0.000000 0.000000 0.079533 0.000000
# 6 0.000000 0.000000 0.000000 0.000000 0.000000 0.022297
#
#
# Mechanical properties :
#
#
# Convention : Reuss Voigt Hill
#
# Bulk Modulus (GPa) = 32.92197 39.02968 35.97582
# Shear Modulus (GPa) = 20.90557 32.81844 26.86200
#
# Velocity S-wave (km/s) = 3.01849 3.78197 3.42159
# Velocity P-wave (km/s) = 5.14751 6.00678 5.59367
#
# Compressibility (1/GPa) = 0.03037485
#
# Stress axis : x y z
#
# Youngs Moduli (GPa) = 126.44904 84.18269 74.87973
#
# Poissons Ratio (x) = 0.21727 0.09520
# Poissons Ratio (y) = 0.32635 -0.18486
# Poissons Ratio (z) = 0.16077 -0.20782
#
# Static dielectric constant tensor:
#      x y z
#    x 1.862770 0.000000 0.000000 
#    y 0.000000 1.925550 0.000000 
#    z 0.000000 0.000000 1.866840 
# 
# From -- ./inp_files/18068.got.cif
#   From: 2010.05.17/outbox.cif.g08.bks.cpg/sg52_10_cif.got.tgz:18068.got - 2010.06.03 12:15:38.
