data_PCOD9410663
_publ_section_title
;
Structure prediction by ZEFSAII (Michael W. Deem and Ramdas Pophale) SiO2 
 PCOD9410663
Probable space group: P N N A
;
_chemical_formula_sum "Si O2"
_cell_formula_units_Z 64
_cell_length_a 23.389895
_cell_length_b 15.459934
_cell_length_c 9.808239
_cell_angle_alpha 90.000000
_cell_angle_beta 90.000000
_cell_angle_gamma 90.000000
_cell_volume 3546.720357
_symmetry_space_group_name_H-M "P N N A"
_symmetry_group_IT_number 52
_symmetry_cell_setting 'orthorhombic'
loop_
_space_group_symop_operation_xyz
x,y,z
1/2-x,-y,z
x,1/2-y,1/2-z
1/2-x,1/2+y,1/2-z
-x,-y,-z
1/2+x,y,-z
-x,1/2+y,1/2+z
1/2+x,1/2-y,1/2+z
loop_
_atom_site_type_symbol
_atom_site_label
_atom_site_fract_x
_atom_site_fract_y
_atom_site_fract_z
Si Si1 0.889659 0.683584 0.630521
Si Si2 0.808804 0.177904 0.132889
Si Si3 0.416419 0.497829 0.366081
Si Si4 0.008434 0.547878 0.859316
Si Si5 0.173870 0.171916 0.854001
Si Si6 0.484299 0.246989 0.599840
Si Si7 0.113314 0.802915 0.111660
Si Si8 0.112285 0.509567 0.673728
O O1 0.875659 0.750000 0.750000
O O2 0.878816 0.583049 0.664634
O O3 0.854813 0.701018 0.494902
O O4 0.958024 0.695652 0.602240
O O5 0.818000 0.250000 0.250000
O O6 0.741527 0.158726 0.128184
O O7 0.843871 0.089266 0.157653
O O8 0.833302 0.211848 0.988835
O O9 0.468168 0.511440 0.261167
O O10 0.390154 0.403478 0.346392
O O11 0.423861 0.499266 0.531403
O O12 0.997100 0.647290 0.900540
O O13 0.071243 0.533877 0.797833
O O14 0.000000 0.500000 0.000000
O O15 0.164566 0.250000 0.750000
O O16 0.144200 0.081910 0.809663
O O17 0.455413 0.250000 0.750000
O O18 0.441938 0.277059 0.481369
O O19 0.114629 0.750000 0.250000
#
# Coordination Sequence:
#
# PCOD9410663 Si02
#       8
#     8   8   8   8   8   8   8   8
#     4  10  21  37  60  82 119 157 189 237 289 364
#     4  10  21  41  63  81 112 154 203 243 295 351
#     4  10  21  37  55  82 114 155 193 222 287 351
#     4  12  23  34  54  88 122 155 184 233 294 357
#     4  10  23  38  61  88 111 153 201 251 290 336
#     4  11  21  37  57  82 119 160 192 226 293 364
#     4  11  23  36  58  87 117 148 194 253 290 337
#     4  10  22  37  61  82 117 151 196 243 282 350
#
# _framework density 18.044840000000001
#
# number of rings (size 3 to 8) (size 9 to 14) (size 15 to 20)
#    0.000    1.500    2.500    4.125    5.250    1.000 
#    0.000    0.000    0.000    0.000    0.000    1.750 
#    0.000    0.000    0.000    0.000    0.000    0.000 
#
# Total GULP energy -356907.637531 kJ/mol
# GULP energy per Si atom -5576.681836 kJ/mol
# Density = 1.800377 g / cm^3
# Si number density = 18.044840 Si / 1000 Ang^3
#
#
#
# Elastic Constant Matrix: (Units=GPa)
#
#
# Indices 1 2 3 4 5 6 
#
# 1 78.8233 29.0095 58.0095 0.0000 0.0000 0.0000
# 2 29.0095 123.0833 71.8380 0.0000 0.0000 0.0000
# 3 58.0095 71.8380 120.5768 0.0000 0.0000 0.0000
# 4 0.0000 0.0000 0.0000 35.4513 0.0000 0.0000
# 5 0.0000 0.0000 0.0000 0.0000 -3.0190 0.0000
# 6 0.0000 0.0000 0.0000 0.0000 0.0000 22.0056
#
#
#
# Elastic Compliance Matrix: (Units=1/GPa)
#
#
# Indices 1 2 3 4 5 6 
#
# 1 0.019790 0.001369 -0.010336 0.000000 0.000000 0.000000
# 2 0.001369 0.012551 -0.008136 0.000000 0.000000 0.000000
# 3 -0.010336 -0.008136 0.018113 0.000000 0.000000 0.000000
# 4 0.000000 0.000000 0.000000 0.028208 0.000000 0.000000
# 5 0.000000 0.000000 0.000000 0.000000 -0.331232 0.000000
# 6 0.000000 0.000000 0.000000 0.000000 0.000000 0.045443
#
#
# Mechanical properties :
#
#
# Convention : Reuss Voigt Hill
#
# Bulk Modulus (GPa) = 61.55087 71.13305 66.34196
# Shear Modulus (GPa) = -29.84994 21.79600 -4.02697
#
# Velocity S-wave (km/s) = -4.07161 3.47923 -1.49549
# Velocity P-wave (km/s) = 3.47563 7.45961 5.81918
#
# Compressibility (1/GPa) = 0.01624672
#
# Stress axis : x y z
#
# Youngs Moduli (GPa) = 50.53097 79.67782 55.20760
#
# Poissons Ratio (x) = -0.10904 0.57064
# Poissons Ratio (y) = -0.06915 0.44916
# Poissons Ratio (z) = 0.52230 0.64825
#
# Static dielectric constant tensor:
#      x y z
#    x 1.614680 0.000000 0.000000 
#    y 0.000000 1.662710 0.000000 
#    z 0.000000 0.000000 1.618880 
# 
# From -- ./inp_files/14503.got.cif
#   From: 2010.05.17/outbox.cif.g08.bks.cpg/sg52_8_cif.got.tgz:14503.got - 2010.06.03 12:15:38.
