data_PCOD9410163
_publ_section_title
;
Structure prediction by ZEFSAII (Michael W. Deem and Ramdas Pophale) SiO2 
 PCOD9410163
Probable space group: P N N A
;
_chemical_formula_sum "Si O2"
_cell_formula_units_Z 40
_cell_length_a 9.505843
_cell_length_b 17.166001
_cell_length_c 11.606271
_cell_angle_alpha 90.000000
_cell_angle_beta 90.000000
_cell_angle_gamma 90.000000
_cell_volume 1893.880086
_symmetry_space_group_name_H-M "P N N A"
_symmetry_group_IT_number 52
_symmetry_cell_setting 'orthorhombic'
loop_
_space_group_symop_operation_xyz
x,y,z
1/2-x,-y,z
x,1/2-y,1/2-z
1/2-x,1/2+y,1/2-z
-x,-y,-z
1/2+x,y,-z
-x,1/2+y,1/2+z
1/2+x,1/2-y,1/2+z
loop_
_atom_site_type_symbol
_atom_site_label
_atom_site_fract_x
_atom_site_fract_y
_atom_site_fract_z
Si Si1 0.756979 0.250000 0.250000
Si Si2 0.750000 0.500000 0.241512
Si Si3 0.090222 0.377867 0.606626
Si Si4 0.099199 0.630659 0.914163
Si Si5 0.736561 0.593883 0.616013
Si Si6 0.218924 0.407179 0.121844
O O1 0.655663 0.309258 0.317153
O O2 0.855919 0.294252 0.158780
O O3 0.858777 0.544638 0.324799
O O4 0.831476 0.440124 0.159131
O O5 0.161189 0.374339 0.481737
O O6 0.923417 0.380668 0.594666
O O7 0.934968 0.613588 0.923965
O O8 0.167287 0.632679 0.040031
O O9 0.750000 0.500000 0.610217
O O10 0.774791 0.617664 0.745519
O O11 0.250000 0.500000 0.117197
#
# Coordination Sequence:
#
# PCOD9410163 Si02
#       6
#     4   4   8   8   8   8
#     4  10  28  46  68  94 148 190 234 268 348 410
#     4  10  20  38  72  90 136 182 230 288 336 394
#     4  11  24  44  67 100 139 183 230 284 340 409
#     4  11  24  44  67 100 139 183 230 284 340 409
#     4  11  24  41  72 105 135 172 233 290 346 400
#     4  11  24  41  72 105 135 172 233 290 346 400
#
# _framework density 21.120660999999998
#
# number of rings (size 3 to 8) (size 9 to 14) (size 15 to 20)
#    0.000    1.200    2.000    3.600   11.200    1.600 
#    0.000    0.000    0.000    0.000    0.000    0.000 
#    0.000    0.000    0.000    0.000    0.000    0.000 
#
# Total GULP energy -223948.506043 kJ/mol
# GULP energy per Si atom -5598.712651 kJ/mol
# Density = 2.107259 g / cm^3
# Si number density = 21.120661 Si / 1000 Ang^3
#
#
#
# Elastic Constant Matrix: (Units=GPa)
#
#
# Indices 1 2 3 4 5 6 
#
# 1 106.9718 -18.0103 -2.7160 0.0000 0.0000 0.0000
# 2 -18.0103 38.9931 -8.2665 0.0000 0.0000 0.0000
# 3 -2.7160 -8.2665 114.6927 0.0000 0.0000 0.0000
# 4 0.0000 0.0000 0.0000 -4.7863 0.0000 0.0000
# 5 0.0000 0.0000 0.0000 0.0000 33.1672 0.0000
# 6 0.0000 0.0000 0.0000 0.0000 0.0000 19.0751
#
#
#
# Elastic Compliance Matrix: (Units=1/GPa)
#
#
# Indices 1 2 3 4 5 6 
#
# 1 0.010176 0.004825 0.000589 0.000000 0.000000 0.000000
# 2 0.004825 0.028331 0.002156 0.000000 0.000000 0.000000
# 3 0.000589 0.002156 0.008888 0.000000 0.000000 0.000000
# 4 0.000000 0.000000 0.000000 -0.208927 0.000000 0.000000
# 5 0.000000 0.000000 0.000000 0.000000 0.030150 0.000000
# 6 0.000000 0.000000 0.000000 0.000000 0.000000 0.052424
#
#
# Mechanical properties :
#
#
# Convention : Reuss Voigt Hill
#
# Bulk Modulus (GPa) = 15.99123 22.51912 19.25517
# Shear Modulus (GPa) = -68.25704 28.80122 -19.72791
#
# Velocity S-wave (km/s) = -5.69103 3.69677 -3.05955
# Velocity P-wave (km/s) = 5.96623 5.37650 1.82882
#
# Compressibility (1/GPa) = 0.06253428
#
# Stress axis : x y z
#
# Youngs Moduli (GPa) = 98.27507 35.29683 112.50744
#
# Poissons Ratio (x) = -0.17030 -0.06623
# Poissons Ratio (y) = -0.47415 -0.24259
# Poissons Ratio (z) = -0.05785 -0.07611
#
# Static dielectric constant tensor:
#      x y z
#    x 1.613340 0.000000 0.000000 
#    y 0.000000 1.767500 0.000000 
#    z 0.000000 0.000000 1.736940 
# 
# From -- ./inp_files/8548.got.cif
#   From: 2010.05.17/outbox.cif.g08.bks.cpg/sg52_5_cif.got.tgz:8548.got - 2010.06.03 12:15:38.
