data_PCOD9410914
_publ_section_title
;
Structure prediction by ZEFSAII (Michael W. Deem and Ramdas Pophale) SiO2 
 PCOD9410914
Probable space group: P N N A
;
_chemical_formula_sum "Si O2"
_cell_formula_units_Z 40
_cell_length_a 17.366122
_cell_length_b 11.280527
_cell_length_c 8.078024
_cell_angle_alpha 90.000000
_cell_angle_beta 90.000000
_cell_angle_gamma 90.000000
_cell_volume 1582.476889
_symmetry_space_group_name_H-M "P N N A"
_symmetry_group_IT_number 52
_symmetry_cell_setting 'orthorhombic'
loop_
_space_group_symop_operation_xyz
x,y,z
1/2-x,-y,z
x,1/2-y,1/2-z
1/2-x,1/2+y,1/2-z
-x,-y,-z
1/2+x,y,-z
-x,1/2+y,1/2+z
1/2+x,1/2-y,1/2+z
loop_
_atom_site_type_symbol
_atom_site_label
_atom_site_fract_x
_atom_site_fract_y
_atom_site_fract_z
Si Si1 0.176480 0.440428 0.021342
Si Si2 0.865429 0.692730 0.570272
Si Si3 0.874698 0.016608 0.183696
Si Si4 0.543028 0.564845 0.807753
Si Si5 0.046761 0.786982 0.984446
O O1 0.250000 0.500000 0.109897
O O2 0.172381 0.512173 0.850747
O O3 0.167808 0.303872 0.965760
O O4 0.103763 0.465537 0.142550
O O5 0.838859 0.750000 0.750000
O O6 0.846891 0.571108 0.466537
O O7 0.958939 0.687024 0.571116
O O8 0.958379 0.970246 0.248625
O O9 0.892280 0.150976 0.132935
O O10 0.543909 0.650542 0.966526
O O11 0.567661 0.642894 0.652423
#
# Coordination Sequence:
#
# PCOD9410914 Si02
#       5
#     8   8   8   8   8
#     4  12  26  44  64  97 142 185 223 272 346 420
#     4  11  22  42  71 100 130 175 222 286 349 400
#     4  11  22  43  69 103 132 173 233 289 343 404
#     4  10  21  42  66  98 136 168 227 284 335 404
#     4  10  21  38  72 103 127 166 226 287 340 397
#
# _framework density 25.276831000000001
#
# number of rings (size 3 to 8) (size 9 to 14) (size 15 to 20)
#    0.000    1.200    2.000    6.000    2.800    0.000 
#   10.800    2.000    0.000    0.000    0.000    0.000 
#    0.000    0.000    0.000    0.000    0.000    0.000 
#
# Total GULP energy -222952.371911 kJ/mol
# GULP energy per Si atom -5573.809298 kJ/mol
# Density = 2.521930 g / cm^3
# Si number density = 25.276831 Si / 1000 Ang^3
#
#
#
# Elastic Constant Matrix: (Units=GPa)
#
#
# Indices 1 2 3 4 5 6 
#
# 1 69.2169 22.1344 8.3494 0.0000 0.0000 0.0000
# 2 22.1344 76.6815 15.3257 0.0000 0.0000 0.0000
# 3 8.3494 15.3257 117.6669 0.0000 0.0000 0.0000
# 4 0.0000 0.0000 0.0000 46.7295 0.0000 0.0000
# 5 0.0000 0.0000 0.0000 0.0000 10.8705 0.0000
# 6 0.0000 0.0000 0.0000 0.0000 0.0000 0.9926
#
#
#
# Elastic Compliance Matrix: (Units=1/GPa)
#
#
# Indices 1 2 3 4 5 6 
#
# 1 0.015951 -0.004495 -0.000546 0.000000 0.000000 0.000000
# 2 -0.004495 0.014656 -0.001590 0.000000 0.000000 0.000000
# 3 -0.000546 -0.001590 0.008744 0.000000 0.000000 0.000000
# 4 0.000000 0.000000 0.000000 0.021400 0.000000 0.000000
# 5 0.000000 0.000000 0.000000 0.000000 0.091992 0.000000
# 6 0.000000 0.000000 0.000000 0.000000 0.000000 1.007434
#
#
# Mechanical properties :
#
#
# Convention : Reuss Voigt Hill
#
# Bulk Modulus (GPa) = 38.33089 39.46492 38.89791
# Shear Modulus (GPa) = 4.22963 26.23558 15.23261
#
# Velocity S-wave (km/s) = 1.29497 3.22519 2.45752
# Velocity P-wave (km/s) = 4.17532 5.43287 4.84507
#
# Compressibility (1/GPa) = 0.02608862
#
# Stress axis : x y z
#
# Youngs Moduli (GPa) = 62.69327 68.23036 114.35866
#
# Poissons Ratio (x) = 0.30670 0.06248
# Poissons Ratio (y) = 0.28181 0.18183
# Poissons Ratio (z) = 0.03425 0.10848
#
# Static dielectric constant tensor:
#      x y z
#    x 1.953320 0.000000 0.000000 
#    y 0.000000 2.145890 0.000000 
#    z 0.000000 0.000000 1.916740 
# 
# From -- ./inp_files/11635.got.cif
#   From: 2010.05.17/outbox.cif.g08.bks.cpg/sg52_6_cif.got.tgz:11635.got - 2010.06.03 12:15:38.
