data_PCOD9410552
_publ_section_title
;
Structure prediction by ZEFSAII (Michael W. Deem and Ramdas Pophale) SiO2 
 PCOD9410552
Probable space group: P N N A
;
_chemical_formula_sum "Si O2"
_cell_formula_units_Z 40
_cell_length_a 7.514614
_cell_length_b 9.704403
_cell_length_c 24.987273
_cell_angle_alpha 90.000000
_cell_angle_beta 90.000000
_cell_angle_gamma 90.000000
_cell_volume 1822.192952
_symmetry_space_group_name_H-M "P N N A"
_symmetry_group_IT_number 52
_symmetry_cell_setting 'orthorhombic'
loop_
_space_group_symop_operation_xyz
x,y,z
1/2-x,-y,z
x,1/2-y,1/2-z
1/2-x,1/2+y,1/2-z
-x,-y,-z
1/2+x,y,-z
-x,1/2+y,1/2+z
1/2+x,1/2-y,1/2+z
loop_
_atom_site_type_symbol
_atom_site_label
_atom_site_fract_x
_atom_site_fract_y
_atom_site_fract_z
Si Si1 0.038215 0.994882 0.604426
Si Si2 0.181329 0.861325 0.137401
Si Si3 0.894974 0.796445 0.068629
Si Si4 0.158086 0.361385 0.207509
Si Si5 0.020910 0.226007 0.052599
O O1 0.969784 0.892340 0.558211
O O2 0.962505 0.924892 0.658928
O O3 0.250000 0.000000 0.609754
O O4 0.009274 0.151498 0.585667
O O5 0.195307 0.735497 0.178464
O O6 0.323749 0.831291 0.090050
O O7 0.990352 0.891755 0.111580
O O8 0.250000 0.000000 0.163342
O O9 0.682091 0.801228 0.071074
O O10 0.949302 0.822954 0.007648
O O11 0.250000 0.500000 0.228626
O O12 0.076164 0.250000 0.250000
#
# Coordination Sequence:
#
# PCOD9410552 Si02
#       5
#     8   8   8   8   8
#     4   9  20  37  62  90 126 157 207 254 310 372
#     4  11  24  40  60  89 130 168 210 258 309 369
#     4  11  19  37  58  91 128 169 206 254 300 368
#     4  11  22  42  69  92 116 155 207 264 318 370
#     4  10  21  34  59  93 126 172 210 247 305 367
#
# _framework density 21.95157
#
# number of rings (size 3 to 8) (size 9 to 14) (size 15 to 20)
#    0.000    1.600    4.000    1.200    0.000    1.600 
#    0.000    1.000    8.800    0.000    0.000    0.000 
#    0.000    0.000    0.000    0.000    0.000    0.000 
#
# Total GULP energy -222848.625172 kJ/mol
# GULP energy per Si atom -5571.215629 kJ/mol
# Density = 2.190161 g / cm^3
# Si number density = 21.951570 Si / 1000 Ang^3
#
#
#
# Elastic Constant Matrix: (Units=GPa)
#
#
# Indices 1 2 3 4 5 6 
#
# 1 72.0032 2.2210 4.1846 0.0000 0.0000 0.0000
# 2 2.2210 93.1567 14.8671 0.0000 0.0000 0.0000
# 3 4.1846 14.8671 89.4571 0.0000 0.0000 0.0000
# 4 0.0000 0.0000 0.0000 2.6397 0.0000 0.0000
# 5 0.0000 0.0000 0.0000 0.0000 -21.3780 0.0000
# 6 0.0000 0.0000 0.0000 0.0000 0.0000 25.8849
#
#
#
# Elastic Compliance Matrix: (Units=1/GPa)
#
#
# Indices 1 2 3 4 5 6 
#
# 1 0.013931 -0.000234 -0.000613 0.000000 0.000000 0.000000
# 2 -0.000234 0.011031 -0.001822 0.000000 0.000000 0.000000
# 3 -0.000613 -0.001822 0.011510 0.000000 0.000000 0.000000
# 4 0.000000 0.000000 0.000000 0.378837 0.000000 0.000000
# 5 0.000000 0.000000 0.000000 0.000000 -0.046777 0.000000
# 6 0.000000 0.000000 0.000000 0.000000 0.000000 0.038633
#
#
# Mechanical properties :
#
#
# Convention : Reuss Voigt Hill
#
# Bulk Modulus (GPa) = 32.11985 33.01806 32.56896
# Shear Modulus (GPa) = 11.82365 16.98559 14.40462
#
# Velocity S-wave (km/s) = 2.32335 2.78470 2.56442
# Velocity P-wave (km/s) = 4.67559 5.04117 4.86182
#
# Compressibility (1/GPa) = 0.03113340
#
# Stress axis : x y z
#
# Youngs Moduli (GPa) = 71.78181 90.65343 86.88051
#
# Poissons Ratio (x) = 0.02125 0.05323
# Poissons Ratio (y) = 0.01682 0.15832
# Poissons Ratio (z) = 0.04398 0.16520
#
# Static dielectric constant tensor:
#      x y z
#    x 1.776900 0.000000 0.000000 
#    y 0.000000 1.989180 0.000000 
#    z 0.000000 0.000000 1.809410 
# 
# From -- ./inp_files/39182.got.cif
#   From: 2010.05.17/outbox.cif.g08.bks.cpg/sg52_20_cif.got.tgz:39182.got - 2010.06.03 12:15:38.
