data_PCOD9410068
_publ_section_title
;
Structure prediction by ZEFSAII (Michael W. Deem and Ramdas Pophale) SiO2 
 PCOD9410068
Probable space group: P N N A
;
_chemical_formula_sum "Si O2"
_cell_formula_units_Z 40
_cell_length_a 13.552958
_cell_length_b 17.529266
_cell_length_c 7.943921
_cell_angle_alpha 90.000000
_cell_angle_beta 90.000000
_cell_angle_gamma 90.000000
_cell_volume 1887.264368
_symmetry_space_group_name_H-M "P N N A"
_symmetry_group_IT_number 52
_symmetry_cell_setting 'orthorhombic'
loop_
_space_group_symop_operation_xyz
x,y,z
1/2-x,-y,z
x,1/2-y,1/2-z
1/2-x,1/2+y,1/2-z
-x,-y,-z
1/2+x,y,-z
-x,1/2+y,1/2+z
1/2+x,1/2-y,1/2+z
loop_
_atom_site_type_symbol
_atom_site_label
_atom_site_fract_x
_atom_site_fract_y
_atom_site_fract_z
Si Si1 0.935421 0.810959 0.606193
Si Si2 0.529544 0.596319 0.379555
Si Si3 0.718778 0.324402 0.152874
Si Si4 0.113307 0.760356 0.056855
Si Si5 0.840738 0.951798 0.080120
O O1 0.905589 0.750000 0.750000
O O2 0.844873 0.846492 0.509717
O O3 0.006665 0.868549 0.700204
O O4 0.003460 0.771089 0.467585
O O5 0.599298 0.652801 0.489826
O O6 0.584452 0.516738 0.352152
O O7 0.419443 0.591307 0.461281
O O8 0.678075 0.250000 0.250000
O O9 0.708134 0.394471 0.283602
O O10 0.817528 0.287923 0.069844
O O11 0.145136 0.750000 0.250000
O O12 0.750000 0.000000 0.000436
#
# Coordination Sequence:
#
# PCOD9410068 Si02
#       5
#     8   8   8   8   8
#     4  10  20  38  62  91 123 158 207 261 317 378
#     4  10  23  42  64  92 130 170 211 266 330 393
#     4  12  23  38  62  90 122 161 212 264 315 381
#     4  11  22  39  65  94 123 163 215 271 327 386
#     4  11  23  41  63  90 130 174 212 259 327 394
#
# _framework density 21.194699
#
# number of rings (size 3 to 8) (size 9 to 14) (size 15 to 20)
#    0.000    1.200    0.000    9.000    0.000    2.400 
#    0.000    5.000    0.000    2.400    0.000    0.000 
#    0.000    0.000    0.000    0.000    0.000    0.000 
#
# Total GULP energy -222827.725836 kJ/mol
# GULP energy per Si atom -5570.693146 kJ/mol
# Density = 2.114646 g / cm^3
# Si number density = 21.194699 Si / 1000 Ang^3
#
#
#
# Elastic Constant Matrix: (Units=GPa)
#
#
# Indices 1 2 3 4 5 6 
#
# 1 76.2268 35.3735 60.9276 0.0000 0.0000 0.0000
# 2 35.3735 91.5375 31.2481 0.0000 0.0000 0.0000
# 3 60.9276 31.2481 86.4051 0.0000 0.0000 0.0000
# 4 0.0000 0.0000 0.0000 8.8833 0.0000 0.0000
# 5 0.0000 0.0000 0.0000 0.0000 30.3833 0.0000
# 6 0.0000 0.0000 0.0000 0.0000 0.0000 21.6603
#
#
#
# Elastic Compliance Matrix: (Units=1/GPa)
#
#
# Indices 1 2 3 4 5 6 
#
# 1 0.032209 -0.005355 -0.020776 0.000000 0.000000 0.000000
# 2 -0.005355 0.013353 -0.001053 0.000000 0.000000 0.000000
# 3 -0.020776 -0.001053 0.026604 0.000000 0.000000 0.000000
# 4 0.000000 0.000000 0.000000 0.112571 0.000000 0.000000
# 5 0.000000 0.000000 0.000000 0.000000 0.032913 0.000000
# 6 0.000000 0.000000 0.000000 0.000000 0.000000 0.046167
#
#
# Mechanical properties :
#
#
# Convention : Reuss Voigt Hill
#
# Bulk Modulus (GPa) = 56.18169 56.58531 56.38350
# Shear Modulus (GPa) = 15.42646 20.62674 18.02660
#
# Velocity S-wave (km/s) = 2.70079 3.12300 2.91954
# Velocity P-wave (km/s) = 6.02417 6.30556 6.16647
#
# Compressibility (1/GPa) = 0.01779939
#
# Stress axis : x y z
#
# Youngs Moduli (GPa) = 31.04679 74.88767 37.58835
#
# Poissons Ratio (x) = 0.40101 0.78092
# Poissons Ratio (y) = 0.16625 0.03959
# Poissons Ratio (z) = 0.64502 0.07888
#
# Static dielectric constant tensor:
#      x y z
#    x 1.844080 0.000000 0.000000 
#    y 0.000000 1.824340 0.000000 
#    z 0.000000 0.000000 1.748550 
# 
# From -- ./inp_files/8517.got.cif
#   From: 2010.05.17/outbox.cif.g08.bks.cpg/sg52_5_cif.got.tgz:8517.got - 2010.06.03 12:15:38.
