data_PCOD9410679
_publ_section_title
;
Structure prediction by ZEFSAII (Michael W. Deem and Ramdas Pophale) SiO2 
 PCOD9410679
Probable space group: P N N A
;
_chemical_formula_sum "Si O2"
_cell_formula_units_Z 32
_cell_length_a 12.738711
_cell_length_b 4.932483
_cell_length_c 25.581785
_cell_angle_alpha 90.000000
_cell_angle_beta 90.000000
_cell_angle_gamma 90.000000
_cell_volume 1607.392460
_symmetry_space_group_name_H-M "P N N A"
_symmetry_group_IT_number 52
_symmetry_cell_setting 'orthorhombic'
loop_
_space_group_symop_operation_xyz
x,y,z
1/2-x,-y,z
x,1/2-y,1/2-z
1/2-x,1/2+y,1/2-z
-x,-y,-z
1/2+x,y,-z
-x,1/2+y,1/2+z
1/2+x,1/2-y,1/2+z
loop_
_atom_site_type_symbol
_atom_site_label
_atom_site_fract_x
_atom_site_fract_y
_atom_site_fract_z
Si Si1 0.180351 0.255998 0.442969
Si Si2 0.871444 0.487252 0.447263
Si Si3 0.372824 0.001208 0.712062
Si Si4 0.977313 0.508606 0.100615
O O1 0.250000 0.500000 0.418219
O O2 0.130374 0.406333 0.493316
O O3 0.093240 0.109781 0.407766
O O4 0.250000 0.000000 0.461645
O O5 0.750000 0.500000 0.428586
O O6 0.908175 0.182606 0.437493
O O7 0.950133 0.685358 0.416249
O O8 0.390562 0.250000 0.750000
O O9 0.440507 0.017596 0.660027
O O10 0.250000 0.000000 0.695852
O O11 0.392775 0.750000 0.750000
#
# Coordination Sequence:
#
# PCOD9410679 Si02
#       4
#     8   8   8   8
#     4  11  23  39  56  83 121 158 198 243 284 339
#     4  11  21  35  56  88 120 150 191 238 290 354
#     4  10  21  37  57  85 116 143 181 238 298 352
#     4  12  22  37  61  84 114 159 198 235 295 357
#
# _framework density 19.908021000000002
#
# number of rings (size 3 to 8) (size 9 to 14) (size 15 to 20)
#    0.000    1.000    0.000    9.750    0.000    2.000 
#    0.000    0.000    0.000    3.000    0.000    0.000 
#    0.000    0.000    0.000    0.000    0.000    0.000 
#
# Total GULP energy -178856.602287 kJ/mol
# GULP energy per Si atom -5589.268821 kJ/mol
# Density = 1.986271 g / cm^3
# Si number density = 19.908021 Si / 1000 Ang^3
#
#
#
# Elastic Constant Matrix: (Units=GPa)
#
#
# Indices 1 2 3 4 5 6 
#
# 1 83.4934 19.8503 52.5688 0.0000 0.0000 0.0000
# 2 19.8503 109.7238 24.1953 0.0000 0.0000 0.0000
# 3 52.5688 24.1953 118.6756 0.0000 0.0000 0.0000
# 4 0.0000 0.0000 0.0000 28.5958 0.0000 0.0000
# 5 0.0000 0.0000 0.0000 0.0000 26.2138 0.0000
# 6 0.0000 0.0000 0.0000 0.0000 0.0000 42.2271
#
#
#
# Elastic Compliance Matrix: (Units=1/GPa)
#
#
# Indices 1 2 3 4 5 6 
#
# 1 0.016832 -0.001467 -0.007157 0.000000 0.000000 0.000000
# 2 -0.001467 0.009671 -0.001322 0.000000 0.000000 0.000000
# 3 -0.007157 -0.001322 0.011866 0.000000 0.000000 0.000000
# 4 0.000000 0.000000 0.000000 0.034970 0.000000 0.000000
# 5 0.000000 0.000000 0.000000 0.000000 0.038148 0.000000
# 6 0.000000 0.000000 0.000000 0.000000 0.000000 0.023681
#
#
# Mechanical properties :
#
#
# Convention : Reuss Voigt Hill
#
# Bulk Modulus (GPa) = 54.12024 56.12463 55.12244
# Shear Modulus (GPa) = 31.01389 33.75923 32.38656
#
# Velocity S-wave (km/s) = 3.95125 4.12243 4.03775
# Velocity P-wave (km/s) = 6.93258 7.13529 7.03467
#
# Compressibility (1/GPa) = 0.01847738
#
# Stress axis : x y z
#
# Youngs Moduli (GPa) = 59.41148 103.40561 84.27439
#
# Poissons Ratio (x) = 0.15169 0.60313
# Poissons Ratio (y) = 0.08715 0.11140
# Poissons Ratio (z) = 0.42519 0.13669
#
# Static dielectric constant tensor:
#      x y z
#    x 1.778360 0.000000 0.000000 
#    y 0.000000 1.680790 0.000000 
#    z 0.000000 0.000000 1.642870 
# 
# From -- ./inp_files/36432.got.cif
#   From: 2010.05.17/outbox.cif.g08.bks.cpg/sg52_19_cif.got.tgz:36432.got - 2010.06.03 12:15:38.
