data_PCOD9410308
_publ_section_title
;
Structure prediction by ZEFSAII (Michael W. Deem and Ramdas Pophale) SiO2 
 PCOD9410308
Probable space group: P N N A
;
_chemical_formula_sum "Si O2"
_cell_formula_units_Z 64
_cell_length_a 14.447271
_cell_length_b 25.964089
_cell_length_c 8.624330
_cell_angle_alpha 90.000000
_cell_angle_beta 90.000000
_cell_angle_gamma 90.000000
_cell_volume 3235.074410
_symmetry_space_group_name_H-M "P N N A"
_symmetry_group_IT_number 52
_symmetry_cell_setting 'orthorhombic'
loop_
_space_group_symop_operation_xyz
x,y,z
1/2-x,-y,z
x,1/2-y,1/2-z
1/2-x,1/2+y,1/2-z
-x,-y,-z
1/2+x,y,-z
-x,1/2+y,1/2+z
1/2+x,1/2-y,1/2+z
loop_
_atom_site_type_symbol
_atom_site_label
_atom_site_fract_x
_atom_site_fract_y
_atom_site_fract_z
Si Si1 0.973225 0.326117 0.592612
Si Si2 0.399944 0.506387 0.573878
Si Si3 0.639642 0.108902 0.222451
Si Si4 0.211946 0.447896 0.284026
Si Si5 0.636711 0.360111 0.920306
Si Si6 0.973349 0.276643 0.084875
Si Si7 0.173673 0.602634 0.542038
Si Si8 0.174312 0.801010 0.349290
O O1 0.905990 0.354884 0.470656
O O2 0.909860 0.323788 0.746499
O O3 0.062228 0.359813 0.628483
O O4 0.001763 0.269430 0.534495
O O5 0.500000 0.500000 0.500000
O O6 0.388530 0.548843 0.706181
O O7 0.340444 0.529667 0.433168
O O8 0.363513 0.450179 0.616311
O O9 0.641366 0.125335 0.399634
O O10 0.737308 0.119259 0.138949
O O11 0.250000 0.500000 0.201944
O O12 0.144918 0.411991 0.183107
O O13 0.292347 0.413852 0.367623
O O14 0.547618 0.322904 0.902082
O O15 0.730430 0.330542 0.872032
O O16 0.964984 0.250000 0.250000
O O17 0.874132 0.292882 0.015466
O O18 0.197407 0.750000 0.250000
#
# Coordination Sequence:
#
# PCOD9410308 Si02
#       8
#     8   8   8   8   8   8   8   8
#     4  11  22  44  67  93 132 173 213 274 338 388
#     4  10  20  40  65  95 127 170 225 271 328 399
#     4  11  24  38  67  99 130 169 222 279 325 392
#     4   9  21  39  64  92 125 174 222 262 325 404
#     4  12  24  43  67  95 138 170 217 277 343 392
#     4  11  27  41  64  98 128 164 227 275 319 407
#     4  10  21  40  68  91 128 175 221 264 326 400
#     4  10  23  46  65  91 131 179 215 269 342 397
#
# _framework density 19.783162999999998
#
# number of rings (size 3 to 8) (size 9 to 14) (size 15 to 20)
#    0.000    1.500    3.750    1.500    5.250    3.000 
#    0.000    0.625    0.000    0.000    0.000    0.000 
#    0.000    0.000    0.000    0.000    0.000    0.000 
#
# Total GULP energy -357088.697449 kJ/mol
# GULP energy per Si atom -5579.510898 kJ/mol
# Density = 1.973814 g / cm^3
# Si number density = 19.783163 Si / 1000 Ang^3
#
#
#
# Elastic Constant Matrix: (Units=GPa)
#
#
# Indices 1 2 3 4 5 6 
#
# 1 69.3106 30.6149 13.6526 0.0000 0.0000 0.0000
# 2 30.6149 85.4812 17.9974 0.0000 0.0000 0.0000
# 3 13.6526 17.9974 59.2334 0.0000 0.0000 0.0000
# 4 0.0000 0.0000 0.0000 30.7239 0.0000 0.0000
# 5 0.0000 0.0000 0.0000 0.0000 3.8158 0.0000
# 6 0.0000 0.0000 0.0000 0.0000 0.0000 37.9888
#
#
#
# Elastic Compliance Matrix: (Units=1/GPa)
#
#
# Indices 1 2 3 4 5 6 
#
# 1 0.017419 -0.005762 -0.002264 0.000000 0.000000 0.000000
# 2 -0.005762 0.014404 -0.003048 0.000000 0.000000 0.000000
# 3 -0.002264 -0.003048 0.018330 0.000000 0.000000 0.000000
# 4 0.000000 0.000000 0.000000 0.032548 0.000000 0.000000
# 5 0.000000 0.000000 0.000000 0.000000 0.262065 0.000000
# 6 0.000000 0.000000 0.000000 0.000000 0.000000 0.026324
#
#
# Mechanical properties :
#
#
# Convention : Reuss Voigt Hill
#
# Bulk Modulus (GPa) = 35.70876 37.61723 36.66299
# Shear Modulus (GPa) = 12.42009 24.62306 18.52158
#
# Velocity S-wave (km/s) = 2.50833 3.53178 3.06311
# Velocity P-wave (km/s) = 5.14570 5.97389 5.57520
#
# Compressibility (1/GPa) = 0.02800434
#
# Stress axis : x y z
#
# Youngs Moduli (GPa) = 57.40916 69.42572 54.55402
#
# Poissons Ratio (x) = 0.40002 0.12352
# Poissons Ratio (y) = 0.33078 0.16630
# Poissons Ratio (z) = 0.12998 0.21164
#
# Static dielectric constant tensor:
#      x y z
#    x 1.731430 0.000000 0.000000 
#    y 0.000000 1.761110 0.000000 
#    z 0.000000 0.000000 1.714070 
# 
# From -- ./inp_files/10988.got.cif
#   From: 2010.05.17/outbox.cif.g08.bks.cpg/sg52_6_cif.got.tgz:10988.got - 2010.06.03 12:15:38.
