data_PCOD9410781
_publ_section_title
;
Structure prediction by ZEFSAII (Michael W. Deem and Ramdas Pophale) SiO2 
 PCOD9410781
Probable space group: P N N A
;
_chemical_formula_sum "Si O2"
_cell_formula_units_Z 48
_cell_length_a 32.636593
_cell_length_b 8.163118
_cell_length_c 8.996427
_cell_angle_alpha 90.000000
_cell_angle_beta 90.000000
_cell_angle_gamma 90.000000
_cell_volume 2396.795332
_symmetry_space_group_name_H-M "P N N A"
_symmetry_group_IT_number 52
_symmetry_cell_setting 'orthorhombic'
loop_
_space_group_symop_operation_xyz
x,y,z
1/2-x,-y,z
x,1/2-y,1/2-z
1/2-x,1/2+y,1/2-z
-x,-y,-z
1/2+x,y,-z
-x,1/2+y,1/2+z
1/2+x,1/2-y,1/2+z
loop_
_atom_site_type_symbol
_atom_site_label
_atom_site_fract_x
_atom_site_fract_y
_atom_site_fract_z
Si Si1 0.331895 0.197698 0.919284
Si Si2 0.749452 0.302212 0.580276
Si Si3 0.415541 0.804619 0.080277
Si Si4 0.586584 0.805568 0.920271
Si Si5 0.001742 0.184777 0.573347
Si Si6 0.333278 0.698499 0.579857
O O1 0.328368 0.250000 0.750000
O O2 0.332777 0.999671 0.927381
O O3 0.291929 0.256723 0.008181
O O4 0.374573 0.259318 0.988445
O O5 0.750000 0.500000 0.572578
O O6 0.746997 0.250000 0.750000
O O7 0.709043 0.242921 0.493965
O O8 0.418351 0.750000 0.250000
O O9 0.412607 0.999544 0.077310
O O10 0.456522 0.754504 0.994497
O O11 0.373777 0.739794 0.005318
O O12 0.590574 0.750000 0.750000
O O13 0.542155 0.753627 0.979290
O O14 0.002664 0.250000 0.750000
O O15 0.000000 0.000000 0.500000
O O16 0.335212 0.750000 0.750000
#
# Coordination Sequence:
#
# PCOD9410781 Si02
#       6
#     8   8   8   8   8   8
#     4  10  22  37  58  85 115 151 193 239 289 347
#     4  10  21  38  58  85 116 150 191 236 287 347
#     4  11  22  38  61  89 120 157 201 248 298 359
#     4  10  22  39  58  85 118 156 197 243 295 353
#     4  11  24  42  64  91 122 160 202 251 308 365
#     4  10  22  38  58  85 118 152 194 241 292 349
#
# _framework density 20.026743
#
# number of rings (size 3 to 8) (size 9 to 14) (size 15 to 20)
#    0.000    1.667    0.000    4.500    0.000    7.333 
#    0.000    0.000    0.000    0.000    0.000    0.000 
#    0.000    0.000    0.000    0.000    0.000    0.000 
#
# Total GULP energy -267778.982214 kJ/mol
# GULP energy per Si atom -5578.728796 kJ/mol
# Density = 1.998116 g / cm^3
# Si number density = 20.026743 Si / 1000 Ang^3
#
#
#
# Elastic Constant Matrix: (Units=GPa)
#
#
# Indices 1 2 3 4 5 6 
#
# 1 226.3267 29.4483 101.0512 0.0000 0.0000 0.0000
# 2 29.4483 43.3388 16.0317 0.0000 0.0000 0.0000
# 3 101.0512 16.0317 137.4910 0.0000 0.0000 0.0000
# 4 0.0000 0.0000 0.0000 35.9141 0.0000 0.0000
# 5 0.0000 0.0000 0.0000 0.0000 43.1766 0.0000
# 6 0.0000 0.0000 0.0000 0.0000 0.0000 -38.8096
#
#
#
# Elastic Compliance Matrix: (Units=1/GPa)
#
#
# Indices 1 2 3 4 5 6 
#
# 1 0.006919 -0.002947 -0.004741 0.000000 0.000000 0.000000
# 2 -0.002947 0.025370 -0.000792 0.000000 0.000000 0.000000
# 3 -0.004741 -0.000792 0.010850 0.000000 0.000000 0.000000
# 4 0.000000 0.000000 0.000000 0.027844 0.000000 0.000000
# 5 0.000000 0.000000 0.000000 0.000000 0.023161 0.000000
# 6 0.000000 0.000000 0.000000 0.000000 0.000000 -0.025767
#
#
# Mechanical properties :
#
#
# Convention : Reuss Voigt Hill
#
# Bulk Modulus (GPa) = 38.20091 77.80211 58.00151
# Shear Modulus (GPa) = 53.15508 25.43123 39.29316
#
# Velocity S-wave (km/s) = 5.15749 3.56738 4.43429
# Velocity P-wave (km/s) = 7.38800 7.47675 7.43251
#
# Compressibility (1/GPa) = 0.02617739
#
# Stress axis : x y z
#
# Youngs Moduli (GPa) = 144.53213 39.41712 92.16282
#
# Poissons Ratio (x) = 0.11618 0.43699
# Poissons Ratio (y) = 0.42599 0.07299
# Poissons Ratio (z) = 0.68529 0.03122
#
# Static dielectric constant tensor:
#      x y z
#    x 1.713590 0.000000 0.000000 
#    y 0.000000 1.722260 0.000000 
#    z 0.000000 0.000000 1.672730 
# 
# From -- ./inp_files/15514.got.cif
#   From: 2010.05.17/outbox.cif.g08.bks.cpg/sg52_8_cif.got.tgz:15514.got - 2010.06.03 12:15:38.
