data_PCOD9410055
_publ_section_title
;
Structure prediction by ZEFSAII (Michael W. Deem and Ramdas Pophale) SiO2 
 PCOD9410055
Probable space group: P N N A
;
_chemical_formula_sum "Si O2"
_cell_formula_units_Z 48
_cell_length_a 8.478803
_cell_length_b 10.101988
_cell_length_c 26.959953
_cell_angle_alpha 90.000000
_cell_angle_beta 90.000000
_cell_angle_gamma 90.000000
_cell_volume 2309.194550
_symmetry_space_group_name_H-M "P N N A"
_symmetry_group_IT_number 52
_symmetry_cell_setting 'orthorhombic'
loop_
_space_group_symop_operation_xyz
x,y,z
1/2-x,-y,z
x,1/2-y,1/2-z
1/2-x,1/2+y,1/2-z
-x,-y,-z
1/2+x,y,-z
-x,1/2+y,1/2+z
1/2+x,1/2-y,1/2+z
loop_
_atom_site_type_symbol
_atom_site_label
_atom_site_fract_x
_atom_site_fract_y
_atom_site_fract_z
Si Si1 0.305692 0.151388 0.956643
Si Si2 0.750000 0.000000 0.216918
Si Si3 0.225831 0.241281 0.852078
Si Si4 0.598120 0.280583 0.842114
Si Si5 0.681509 0.351522 0.560787
Si Si6 0.711197 0.750000 0.750000
Si Si7 0.515758 0.038376 0.298667
O O1 0.213511 0.221359 0.911273
O O2 0.493667 0.146496 0.949465
O O3 0.250000 0.000000 0.955753
O O4 0.264050 0.203189 0.011287
O O5 0.818853 0.885292 0.181695
O O6 0.886069 0.039705 0.256159
O O7 0.414736 0.242824 0.845565
O O8 0.133565 0.368366 0.830966
O O9 0.694528 0.238303 0.890543
O O10 0.679380 0.210576 0.795725
O O11 0.581347 0.436263 0.831646
O O12 0.750000 0.500000 0.569628
O O13 0.601471 0.865523 0.729888
#
# Coordination Sequence:
#
# PCOD9410055 Si02
#       7
#     8   4   8   8   8   4   8
#     4  10  20  38  61  95 124 163 221 278 323 391
#     4  12  20  38  64  90 124 164 230 258 312 384
#     4  11  22  39  66  91 124 174 223 267 321 393
#     4  11  25  42  61  92 136 165 212 273 333 395
#     4  10  22  39  65  90 128 171 213 276 338 387
#     4  12  26  40  62  94 130 172 212 268 338 390
#     4  12  24  42  64  93 129 180 220 267 326 406
#
# _framework density 20.786470000000001
#
# number of rings (size 3 to 8) (size 9 to 14) (size 15 to 20)
#    0.000    1.000    4.167    3.500    0.000    6.667 
#    0.000    0.833    0.000    2.000    0.000    0.000 
#    0.000    0.000    0.000    0.000    0.000    0.000 
#
# Total GULP energy -268028.186565 kJ/mol
# GULP energy per Si atom -5583.920553 kJ/mol
# Density = 2.073916 g / cm^3
# Si number density = 20.786470 Si / 1000 Ang^3
#
#
#
# Elastic Constant Matrix: (Units=GPa)
#
#
# Indices 1 2 3 4 5 6 
#
# 1 66.0454 15.0233 51.5824 0.0000 0.0000 0.0000
# 2 15.0233 67.9962 65.9021 0.0000 0.0000 0.0000
# 3 51.5824 65.9021 202.4602 0.0000 0.0000 0.0000
# 4 0.0000 0.0000 0.0000 31.1699 0.0000 0.0000
# 5 0.0000 0.0000 0.0000 0.0000 41.2041 0.0000
# 6 0.0000 0.0000 0.0000 0.0000 0.0000 23.5288
#
#
#
# Elastic Compliance Matrix: (Units=1/GPa)
#
#
# Indices 1 2 3 4 5 6 
#
# 1 0.018926 0.000719 -0.005056 0.000000 0.000000 0.000000
# 2 0.000719 0.021512 -0.007185 0.000000 0.000000 0.000000
# 3 -0.005056 -0.007185 0.008566 0.000000 0.000000 0.000000
# 4 0.000000 0.000000 0.000000 0.032082 0.000000 0.000000
# 5 0.000000 0.000000 0.000000 0.000000 0.024269 0.000000
# 6 0.000000 0.000000 0.000000 0.000000 0.000000 0.042501
#
#
# Mechanical properties :
#
#
# Convention : Reuss Voigt Hill
#
# Bulk Modulus (GPa) = 38.52202 66.83527 52.67864
# Shear Modulus (GPa) = 27.84647 32.78016 30.31331
#
# Velocity S-wave (km/s) = 3.66409 3.97545 3.82294
# Velocity P-wave (km/s) = 6.03930 7.30036 6.69957
#
# Compressibility (1/GPa) = 0.02595918
#
# Stress axis : x y z
#
# Youngs Moduli (GPa) = 52.83629 46.48566 116.73711
#
# Poissons Ratio (x) = -0.03340 0.59021
# Poissons Ratio (y) = -0.03796 0.83880
# Poissons Ratio (z) = 0.26714 0.33402
#
# Static dielectric constant tensor:
#      x y z
#    x 1.789970 0.000000 0.000000 
#    y 0.000000 1.760810 0.000000 
#    z 0.000000 0.000000 1.779620 
# 
# From -- ./inp_files/39513.got.cif
#   From: 2010.05.17/outbox.cif.g08.bks.cpg/sg52_20_cif.got.tgz:39513.got - 2010.06.03 12:15:38.
