data_PCOD9410864
_publ_section_title
;
Structure prediction by ZEFSAII (Michael W. Deem and Ramdas Pophale) SiO2 
 PCOD9410864
Probable space group: P N N A
;
_chemical_formula_sum "Si O2"
_cell_formula_units_Z 40
_cell_length_a 8.652840
_cell_length_b 11.086645
_cell_length_c 21.028238
_cell_angle_alpha 90.000000
_cell_angle_beta 90.000000
_cell_angle_gamma 90.000000
_cell_volume 2017.259170
_symmetry_space_group_name_H-M "P N N A"
_symmetry_group_IT_number 52
_symmetry_cell_setting 'orthorhombic'
loop_
_space_group_symop_operation_xyz
x,y,z
1/2-x,-y,z
x,1/2-y,1/2-z
1/2-x,1/2+y,1/2-z
-x,-y,-z
1/2+x,y,-z
-x,1/2+y,1/2+z
1/2+x,1/2-y,1/2+z
loop_
_atom_site_type_symbol
_atom_site_label
_atom_site_fract_x
_atom_site_fract_y
_atom_site_fract_z
Si Si1 0.706039 0.120138 0.590483
Si Si2 0.199800 0.737521 0.580486
Si Si3 0.024772 0.301153 0.320448
Si Si4 0.750000 0.000000 0.468119
Si Si5 0.448192 0.185599 0.048831
Si Si6 0.250000 0.500000 0.369375
O O1 0.598114 0.203028 0.631411
O O2 0.858781 0.194964 0.573153
O O3 0.750000 0.000000 0.627959
O O4 0.644426 0.069198 0.522265
O O5 0.087332 0.683097 0.526148
O O6 0.372020 0.694172 0.563684
O O7 0.143826 0.686770 0.647991
O O8 0.198486 0.884965 0.573573
O O9 0.020077 0.250000 0.250000
O O10 0.137293 0.415460 0.327899
O O11 0.361092 0.078876 0.085402
#
# Coordination Sequence:
#
# PCOD9410864 Si02
#       6
#     8   8   8   4   8   4
#     4   8  18  36  64  91 120 153 204 253 316 362
#     4  11  22  37  64  98 131 158 211 253 321 375
#     4  11  25  42  61  91 125 171 211 249 309 379
#     4   8  18  33  62  95 126 146 190 270 312 352
#     4  10  21  38  64  97 121 164 200 264 321 361
#     4  10  24  47  66  87 124 166 216 260 308 370
#
# _framework density 19.828883999999999
#
# number of rings (size 3 to 8) (size 9 to 14) (size 15 to 20)
#    0.600    1.600    0.000    3.600    4.200    6.400 
#    0.000    6.000    0.000    0.000    0.000    0.000 
#    0.000    0.000    0.000    0.000    0.000    0.000 
#
# Total GULP energy -222942.764265 kJ/mol
# GULP energy per Si atom -5573.569107 kJ/mol
# Density = 1.978375 g / cm^3
# Si number density = 19.828884 Si / 1000 Ang^3
#
#
#
# Elastic Constant Matrix: (Units=GPa)
#
#
# Indices 1 2 3 4 5 6 
#
# 1 122.6976 48.8826 60.2899 0.0000 0.0000 0.0000
# 2 48.8826 96.7479 45.9888 0.0000 0.0000 0.0000
# 3 60.2899 45.9888 128.5748 0.0000 0.0000 0.0000
# 4 0.0000 0.0000 0.0000 14.9406 0.0000 0.0000
# 5 0.0000 0.0000 0.0000 0.0000 15.1569 0.0000
# 6 0.0000 0.0000 0.0000 0.0000 0.0000 17.9986
#
#
#
# Elastic Compliance Matrix: (Units=1/GPa)
#
#
# Indices 1 2 3 4 5 6 
#
# 1 0.011746 -0.003996 -0.004079 0.000000 0.000000 0.000000
# 2 -0.003996 0.013813 -0.003067 0.000000 0.000000 0.000000
# 3 -0.004079 -0.003067 0.010787 0.000000 0.000000 0.000000
# 4 0.000000 0.000000 0.000000 0.066932 0.000000 0.000000
# 5 0.000000 0.000000 0.000000 0.000000 0.065977 0.000000
# 6 0.000000 0.000000 0.000000 0.000000 0.000000 0.055560
#
#
# Mechanical properties :
#
#
# Convention : Reuss Voigt Hill
#
# Bulk Modulus (GPa) = 71.10765 73.14919 72.12842
# Shear Modulus (GPa) = 19.85819 22.47649 21.16734
#
# Velocity S-wave (km/s) = 3.16805 3.37044 3.27081
# Velocity P-wave (km/s) = 7.02286 7.21919 7.12170
#
# Compressibility (1/GPa) = 0.01406318
#
# Stress axis : x y z
#
# Youngs Moduli (GPa) = 85.13335 72.39537 92.70415
#
# Poissons Ratio (x) = 0.28930 0.37810
# Poissons Ratio (y) = 0.34021 0.28431
# Poissons Ratio (z) = 0.34722 0.22202
#
# Static dielectric constant tensor:
#      x y z
#    x 1.776120 0.000000 0.000000 
#    y 0.000000 1.775850 0.000000 
#    z 0.000000 0.000000 1.676270 
# 
# From -- ./inp_files/35811.got.cif
#   From: 2010.05.17/outbox.cif.g08.bks.cpg/sg52_18_cif.got.tgz:35811.got - 2010.06.03 12:15:38.
