data_PCOD9410637
_publ_section_title
;
Structure prediction by ZEFSAII (Michael W. Deem and Ramdas Pophale) SiO2 
 PCOD9410637
Probable space group: P N N A
;
_chemical_formula_sum "Si O2"
_cell_formula_units_Z 40
_cell_length_a 8.183544
_cell_length_b 17.363294
_cell_length_c 12.885203
_cell_angle_alpha 90.000000
_cell_angle_beta 90.000000
_cell_angle_gamma 90.000000
_cell_volume 1830.900763
_symmetry_space_group_name_H-M "P N N A"
_symmetry_group_IT_number 52
_symmetry_cell_setting 'orthorhombic'
loop_
_space_group_symop_operation_xyz
x,y,z
1/2-x,-y,z
x,1/2-y,1/2-z
1/2-x,1/2+y,1/2-z
-x,-y,-z
1/2+x,y,-z
-x,1/2+y,1/2+z
1/2+x,1/2-y,1/2+z
loop_
_atom_site_type_symbol
_atom_site_label
_atom_site_fract_x
_atom_site_fract_y
_atom_site_fract_z
Si Si1 0.272574 0.092573 0.866329
Si Si2 0.199597 0.588988 0.862248
Si Si3 0.438167 0.817631 0.033210
Si Si4 0.181856 0.412879 0.080382
Si Si5 0.143802 0.769463 0.363718
O O1 0.253075 0.122438 0.748597
O O2 0.151109 0.131248 0.946945
O O3 0.250000 0.000000 0.869418
O O4 0.447086 0.124300 0.903553
O O5 0.250000 0.500000 0.855367
O O6 0.005120 0.592443 0.883427
O O7 0.297322 0.617399 0.962244
O O8 0.536828 0.755497 0.963422
O O9 0.312664 0.776643 0.111297
O O10 0.250000 0.500000 0.084190
O O11 0.304468 0.358354 0.141798
O O12 0.076433 0.750000 0.250000
#
# Coordination Sequence:
#
# PCOD9410637 Si02
#       5
#     8   8   8   8   8
#     4  10  21  40  63  88 119 159 203 247 297 357
#     4  10  21  36  60  91 121 155 199 250 301 348
#     4  10  23  40  60  88 120 156 200 251 301 357
#     4  11  22  39  62  89 123 159 203 251 296 362
#     4  11  24  41  61  88 122 159 197 245 306 356
#
# _framework density 21.847170999999999
#
# number of rings (size 3 to 8) (size 9 to 14) (size 15 to 20)
#    0.000    1.600    0.000    5.400    0.000    6.400 
#    0.000    9.000    0.000    1.200    0.000    0.000 
#    0.000    0.000    0.000    0.000    0.000    0.000 
#
# Total GULP energy -223484.725544 kJ/mol
# GULP energy per Si atom -5587.118139 kJ/mol
# Density = 2.179745 g / cm^3
# Si number density = 21.847171 Si / 1000 Ang^3
#
#
#
# Elastic Constant Matrix: (Units=GPa)
#
#
# Indices 1 2 3 4 5 6 
#
# 1 48.3965 27.1382 -7.8990 0.0000 0.0000 0.0000
# 2 27.1382 98.9926 14.1539 0.0000 0.0000 0.0000
# 3 -7.8990 14.1539 98.7337 0.0000 0.0000 0.0000
# 4 0.0000 0.0000 0.0000 29.0495 0.0000 0.0000
# 5 0.0000 0.0000 0.0000 0.0000 110.5599 0.0000
# 6 0.0000 0.0000 0.0000 0.0000 0.0000 34.8357
#
#
#
# Elastic Compliance Matrix: (Units=1/GPa)
#
#
# Indices 1 2 3 4 5 6 
#
# 1 0.025302 -0.007377 0.003082 0.000000 0.000000 0.000000
# 2 -0.007377 0.012464 -0.002377 0.000000 0.000000 0.000000
# 3 0.003082 -0.002377 0.010716 0.000000 0.000000 0.000000
# 4 0.000000 0.000000 0.000000 0.034424 0.000000 0.000000
# 5 0.000000 0.000000 0.000000 0.000000 0.009045 0.000000
# 6 0.000000 0.000000 0.000000 0.000000 0.000000 0.028706
#
#
# Mechanical properties :
#
#
# Convention : Reuss Voigt Hill
#
# Bulk Modulus (GPa) = 28.45973 34.76767 31.61370
# Shear Modulus (GPa) = 34.31381 49.07100 41.69240
#
# Velocity S-wave (km/s) = 3.96742 4.74445 4.37322
# Velocity P-wave (km/s) = 5.83457 6.77950 6.32471
#
# Compressibility (1/GPa) = 0.03513736
#
# Stress axis : x y z
#
# Youngs Moduli (GPa) = 39.52208 80.23103 93.32222
#
# Poissons Ratio (x) = 0.59187 -0.28760
# Poissons Ratio (y) = 0.29156 0.22182
# Poissons Ratio (z) = -0.12180 0.19071
#
# Static dielectric constant tensor:
#      x y z
#    x 1.837100 0.000000 0.000000 
#    y 0.000000 1.814450 0.000000 
#    z 0.000000 0.000000 1.808980 
# 
# From -- ./inp_files/16621.got.cif
#   From: 2010.05.17/outbox.cif.g08.bks.cpg/sg52_9_cif.got.tgz:16621.got - 2010.06.03 12:15:38.
