data_PCOD9410724
_publ_section_title
;
Structure prediction by ZEFSAII (Michael W. Deem and Ramdas Pophale) SiO2 
 PCOD9410724
Probable space group: P N N A
;
_chemical_formula_sum "Si O2"
_cell_formula_units_Z 40
_cell_length_a 9.223855
_cell_length_b 20.763240
_cell_length_c 10.251512
_cell_angle_alpha 90.000000
_cell_angle_beta 90.000000
_cell_angle_gamma 90.000000
_cell_volume 1963.340004
_symmetry_space_group_name_H-M "P N N A"
_symmetry_group_IT_number 52
_symmetry_cell_setting 'orthorhombic'
loop_
_space_group_symop_operation_xyz
x,y,z
1/2-x,-y,z
x,1/2-y,1/2-z
1/2-x,1/2+y,1/2-z
-x,-y,-z
1/2+x,y,-z
-x,1/2+y,1/2+z
1/2+x,1/2-y,1/2+z
loop_
_atom_site_type_symbol
_atom_site_label
_atom_site_fract_x
_atom_site_fract_y
_atom_site_fract_z
Si Si1 0.559224 0.055416 0.900957
Si Si2 0.751905 0.076942 0.131771
Si Si3 0.080792 0.639433 0.026364
Si Si4 0.833608 0.558444 0.884637
Si Si5 0.680812 0.184360 0.325536
O O1 0.418826 0.098177 0.873110
O O2 0.614244 0.036080 0.758282
O O3 0.685903 0.084655 0.987813
O O4 0.500000 0.000000 0.000000
O O5 0.668353 0.121526 0.232567
O O6 0.750000 0.000000 0.167152
O O7 0.203100 0.610318 0.122812
O O8 0.968360 0.687158 0.094060
O O9 0.180374 0.670547 0.915524
O O10 0.970754 0.586356 0.963138
O O11 0.750000 0.500000 0.954907
O O12 0.702208 0.250000 0.250000
#
# Coordination Sequence:
#
# PCOD9410724 Si02
#       5
#     8   8   8   8   8
#     4  10  21  37  60  97 132 172 216 264 326 380
#     4  10  22  38  64  95 131 167 218 272 322 382
#     4  10  25  43  63  98 126 173 226 260 338 398
#     4  11  21  39  66  98 138 171 212 275 326 393
#     4  11  25  47  67  92 134 171 222 272 327 397
#
# _framework density 20.373446999999999
#
# number of rings (size 3 to 8) (size 9 to 14) (size 15 to 20)
#    0.000    1.600    2.000    2.400    8.400    4.800 
#    0.000    2.000    0.000    0.000    0.000    0.000 
#    0.000    0.000    0.000    0.000    0.000    0.000 
#
# Total GULP energy -222980.285756 kJ/mol
# GULP energy per Si atom -5574.507144 kJ/mol
# Density = 2.032708 g / cm^3
# Si number density = 20.373447 Si / 1000 Ang^3
#
#
#
# Elastic Constant Matrix: (Units=GPa)
#
#
# Indices 1 2 3 4 5 6 
#
# 1 111.7617 11.9193 5.0696 0.0000 0.0000 0.0000
# 2 11.9193 64.7427 22.1479 0.0000 0.0000 0.0000
# 3 5.0696 22.1479 59.7024 0.0000 0.0000 0.0000
# 4 0.0000 0.0000 0.0000 17.2861 0.0000 0.0000
# 5 0.0000 0.0000 0.0000 0.0000 31.9530 0.0000
# 6 0.0000 0.0000 0.0000 0.0000 0.0000 15.0587
#
#
#
# Elastic Compliance Matrix: (Units=1/GPa)
#
#
# Indices 1 2 3 4 5 6 
#
# 1 0.009128 -0.001621 -0.000174 0.000000 0.000000 0.000000
# 2 -0.001621 0.017979 -0.006532 0.000000 0.000000 0.000000
# 3 -0.000174 -0.006532 0.019188 0.000000 0.000000 0.000000
# 4 0.000000 0.000000 0.000000 0.057850 0.000000 0.000000
# 5 0.000000 0.000000 0.000000 0.000000 0.031296 0.000000
# 6 0.000000 0.000000 0.000000 0.000000 0.000000 0.066407
#
#
# Mechanical properties :
#
#
# Convention : Reuss Voigt Hill
#
# Bulk Modulus (GPa) = 33.73689 34.94228 34.33959
# Shear Modulus (GPa) = 21.89321 25.99756 23.94539
#
# Velocity S-wave (km/s) = 3.28166 3.57606 3.43202
# Velocity P-wave (km/s) = 5.56365 5.85142 5.70935
#
# Compressibility (1/GPa) = 0.02964115
#
# Stress axis : x y z
#
# Youngs Moduli (GPa) = 109.54847 55.62134 52.11683
#
# Poissons Ratio (x) = 0.09017 0.00906
# Poissons Ratio (y) = 0.17759 0.34042
# Poissons Ratio (z) = 0.01903 0.36331
#
# Static dielectric constant tensor:
#      x y z
#    x 1.777450 0.000000 0.000000 
#    y 0.000000 1.810430 0.000000 
#    z 0.000000 0.000000 1.760740 
# 
# From -- ./inp_files/7441.got.cif
#   From: 2010.05.17/outbox.cif.g08.bks.cpg/sg52_4_cif.got.tgz:7441.got - 2010.06.03 12:15:38.
