data_PCOD9410740
_publ_section_title
;
Structure prediction by ZEFSAII (Michael W. Deem and Ramdas Pophale) SiO2 
 PCOD9410740
Probable space group: P N N A
;
_chemical_formula_sum "Si O2"
_cell_formula_units_Z 60
_cell_length_a 30.617680
_cell_length_b 7.739024
_cell_length_c 11.779986
_cell_angle_alpha 90.000000
_cell_angle_beta 90.000000
_cell_angle_gamma 90.000000
_cell_volume 2791.278996
_symmetry_space_group_name_H-M "P N N A"
_symmetry_group_IT_number 52
_symmetry_cell_setting 'orthorhombic'
loop_
_space_group_symop_operation_xyz
x,y,z
1/2-x,-y,z
x,1/2-y,1/2-z
1/2-x,1/2+y,1/2-z
-x,-y,-z
1/2+x,y,-z
-x,1/2+y,1/2+z
1/2+x,1/2-y,1/2+z
loop_
_atom_site_type_symbol
_atom_site_label
_atom_site_fract_x
_atom_site_fract_y
_atom_site_fract_z
Si Si1 0.042674 0.226698 0.514170
Si Si2 0.955368 0.360570 0.888337
Si Si3 0.750000 0.500000 0.732685
Si Si4 0.786155 0.189396 0.581636
Si Si5 0.376196 0.138526 0.019988
Si Si6 0.923630 0.924281 0.818568
Si Si7 0.767380 0.697304 0.381889
Si Si8 0.132925 0.329585 0.624586
O O1 0.041402 0.371847 0.415613
O O2 0.090479 0.246042 0.567635
O O3 0.002497 0.229775 0.600775
O O4 0.040966 0.043063 0.453018
O O5 0.919407 0.250168 0.956829
O O6 0.940085 0.425939 0.764602
O O7 0.758912 0.339182 0.649495
O O8 0.787723 0.469744 0.829195
O O9 0.834198 0.251421 0.550098
O O10 0.761261 0.181601 0.462582
O O11 0.381024 0.988915 0.115156
O O12 0.373282 0.035727 0.900937
O O13 0.914887 0.750000 0.750000
O O14 0.750000 0.500000 0.393289
O O15 0.764003 0.750000 0.250000
O O16 0.818095 0.706916 0.419129
O O17 0.133043 0.250000 0.750000
#
# Coordination Sequence:
#
# PCOD9410740 Si02
#       8
#     8   8   4   8   8   8   8   8
#     4   9  21  41  59  90 132 169 217 266 328 395
#     4  10  21  37  62  94 129 171 216 268 323 395
#     4  10  24  38  64  88 134 166 198 276 320 392
#     4  11  23  45  61  98 130 168 219 268 337 391
#     4  11  22  39  64  92 126 164 218 267 312 406
#     4   9  20  38  60  91 124 174 212 261 329 394
#     4  11  23  45  68  90 125 168 220 271 329 396
#     4  10  22  41  64  90 124 167 211 270 334 386
#
# _framework density 21.495521
#
# number of rings (size 3 to 8) (size 9 to 14) (size 15 to 20)
#    0.000    1.867    2.000    0.400    4.667    5.333 
#    9.600    2.000    0.000    0.000    0.000    0.000 
#    0.000    0.000    0.000    0.000    0.000    0.000 
#
# Total GULP energy -334341.359247 kJ/mol
# GULP energy per Si atom -5572.355987 kJ/mol
# Density = 2.144660 g / cm^3
# Si number density = 21.495521 Si / 1000 Ang^3
#
#
#
# Elastic Constant Matrix: (Units=GPa)
#
#
# Indices 1 2 3 4 5 6 
#
# 1 142.5369 28.1254 42.2596 0.0000 0.0000 0.0000
# 2 28.1254 67.2480 17.6619 0.0000 0.0000 0.0000
# 3 42.2596 17.6619 87.3354 0.0000 0.0000 0.0000
# 4 0.0000 0.0000 0.0000 37.2537 0.0000 0.0000
# 5 0.0000 0.0000 0.0000 0.0000 22.8822 0.0000
# 6 0.0000 0.0000 0.0000 0.0000 0.0000 3.8708
#
#
#
# Elastic Compliance Matrix: (Units=1/GPa)
#
#
# Indices 1 2 3 4 5 6 
#
# 1 0.008616 -0.002649 -0.003633 0.000000 0.000000 0.000000
# 2 -0.002649 0.016519 -0.002059 0.000000 0.000000 0.000000
# 3 -0.003633 -0.002059 0.013624 0.000000 0.000000 0.000000
# 4 0.000000 0.000000 0.000000 0.026843 0.000000 0.000000
# 5 0.000000 0.000000 0.000000 0.000000 0.043702 0.000000
# 6 0.000000 0.000000 0.000000 0.000000 0.000000 0.258347
#
#
# Mechanical properties :
#
#
# Convention : Reuss Voigt Hill
#
# Bulk Modulus (GPa) = 45.29621 52.57935 48.93778
# Shear Modulus (GPa) = 12.76511 26.73956 19.75233
#
# Velocity S-wave (km/s) = 2.43955 3.53081 3.03463
# Velocity P-wave (km/s) = 5.39011 6.41372 5.92407
#
# Compressibility (1/GPa) = 0.02207690
#
# Stress axis : x y z
#
# Youngs Moduli (GPa) = 116.06818 60.53636 73.39729
#
# Poissons Ratio (x) = 0.16037 0.26667
# Poissons Ratio (y) = 0.30748 0.15111
# Poissons Ratio (z) = 0.42170 0.12463
#
# Static dielectric constant tensor:
#      x y z
#    x 1.749260 0.000000 0.000000 
#    y 0.000000 1.869770 0.000000 
#    z 0.000000 0.000000 1.833760 
# 
# From -- ./inp_files/23155.got.cif
#   From: 2010.05.17/outbox.cif.g08.bks.cpg/sg52_12_cif.got.tgz:23155.got - 2010.06.03 12:15:38.
