data_PCOD9410936
_publ_section_title
;
Structure prediction by ZEFSAII (Michael W. Deem and Ramdas Pophale) SiO2 
 PCOD9410936
Probable space group: P N N A
;
_chemical_formula_sum "Si O2"
_cell_formula_units_Z 48
_cell_length_a 25.869722
_cell_length_b 18.221299
_cell_length_c 5.052070
_cell_angle_alpha 90.000000
_cell_angle_beta 90.000000
_cell_angle_gamma 90.000000
_cell_volume 2381.444451
_symmetry_space_group_name_H-M "P N N A"
_symmetry_group_IT_number 52
_symmetry_cell_setting 'orthorhombic'
loop_
_space_group_symop_operation_xyz
x,y,z
1/2-x,-y,z
x,1/2-y,1/2-z
1/2-x,1/2+y,1/2-z
-x,-y,-z
1/2+x,y,-z
-x,1/2+y,1/2+z
1/2+x,1/2-y,1/2+z
loop_
_atom_site_type_symbol
_atom_site_label
_atom_site_fract_x
_atom_site_fract_y
_atom_site_fract_z
Si Si1 0.221399 0.078659 0.678169
Si Si2 0.017187 0.836391 0.219157
Si Si3 0.678448 0.665444 0.326631
Si Si4 0.846914 0.568937 0.687778
Si Si5 0.627216 0.901371 0.672414
Si Si6 0.948334 0.836063 0.719611
O O1 0.263796 0.137000 0.772333
O O2 0.196523 0.095912 0.395138
O O3 0.250000 0.000000 0.663101
O O4 0.176363 0.073197 0.895129
O O5 0.031403 0.750000 0.250000
O O6 0.067412 0.883959 0.277265
O O7 0.971771 0.850077 0.430616
O O8 0.994010 0.849866 0.930197
O O9 0.672925 0.750000 0.250000
O O10 0.660508 0.648166 0.623900
O O11 0.642430 0.619293 0.125603
O O12 0.858843 0.484987 0.764130
O O13 0.898639 0.615695 0.719509
O O14 0.934931 0.750000 0.750000
#
# Coordination Sequence:
#
# PCOD9410936 Si02
#       6
#     8   8   8   8   8   8
#     4  12  23  43  63  87 125 163 202 247 314 364
#     4  10  21  39  61  86 124 163 199 255 310 354
#     4  12  25  40  63  93 123 160 208 254 298 368
#     4  12  24  40  67  90 122 166 202 254 310 360
#     4  12  23  40  64  93 125 159 203 253 309 368
#     4  10  23  41  61  90 124 162 209 252 298 365
#
# _framework density 20.155835
#
# number of rings (size 3 to 8) (size 9 to 14) (size 15 to 20)
#    0.000    0.667    3.333    5.000    0.000    4.000 
#    0.000    0.000    0.000    0.000    0.000    0.000 
#    0.000    0.000    0.000    0.000    0.000    0.000 
#
# Total GULP energy -268717.268651 kJ/mol
# GULP energy per Si atom -5598.276430 kJ/mol
# Density = 2.010996 g / cm^3
# Si number density = 20.155835 Si / 1000 Ang^3
#
#
#
# Elastic Constant Matrix: (Units=GPa)
#
#
# Indices 1 2 3 4 5 6 
#
# 1 62.2661 24.8772 -22.4689 0.0000 0.0000 0.0000
# 2 24.8772 45.9658 -13.5976 0.0000 0.0000 0.0000
# 3 -22.4689 -13.5976 50.2159 0.0000 0.0000 0.0000
# 4 0.0000 0.0000 0.0000 14.8700 0.0000 0.0000
# 5 0.0000 0.0000 0.0000 0.0000 4.2043 0.0000
# 6 0.0000 0.0000 0.0000 0.0000 0.0000 7.4101
#
#
#
# Elastic Compliance Matrix: (Units=1/GPa)
#
#
# Indices 1 2 3 4 5 6 
#
# 1 0.022800 -0.010133 0.007458 0.000000 0.000000 0.000000
# 2 -0.010133 0.028153 0.003089 0.000000 0.000000 0.000000
# 3 0.007458 0.003089 0.024088 0.000000 0.000000 0.000000
# 4 0.000000 0.000000 0.000000 0.067249 0.000000 0.000000
# 5 0.000000 0.000000 0.000000 0.000000 0.237851 0.000000
# 6 0.000000 0.000000 0.000000 0.000000 0.000000 0.134951
#
#
# Mechanical properties :
#
#
# Convention : Reuss Voigt Hill
#
# Bulk Modulus (GPa) = 13.18074 15.11879 14.14976
# Shear Modulus (GPa) = 9.26692 16.60603 12.93648
#
# Velocity S-wave (km/s) = 2.14654 2.87345 2.53617
# Velocity P-wave (km/s) = 3.56330 4.30420 3.95116
#
# Compressibility (1/GPa) = 0.07586829
#
# Stress axis : x y z
#
# Youngs Moduli (GPa) = 43.85989 35.51961 41.51531
#
# Poissons Ratio (x) = 0.35993 -0.30961
# Poissons Ratio (y) = 0.44445 -0.12825
# Poissons Ratio (z) = -0.32710 -0.10973
#
# Static dielectric constant tensor:
#      x y z
#    x 1.673860 0.000000 0.000000 
#    y 0.000000 1.676760 0.000000 
#    z 0.000000 0.000000 1.687670 
# 
# From -- ./inp_files/5123.got.cif
#   From: 2010.05.17/outbox.cif.g08.bks.cpg/sg52_3_cif.got.tgz:5123.got - 2010.06.03 12:15:38.
