data_PCOD9410314
_publ_section_title
;
Structure prediction by ZEFSAII (Michael W. Deem and Ramdas Pophale) SiO2 
 PCOD9410314
Probable space group: P N N A
;
_chemical_formula_sum "Si O2"
_cell_formula_units_Z 36
_cell_length_a 14.814438
_cell_length_b 10.700574
_cell_length_c 9.999755
_cell_angle_alpha 90.000000
_cell_angle_beta 90.000000
_cell_angle_gamma 90.000000
_cell_volume 1585.191063
_symmetry_space_group_name_H-M "P N N A"
_symmetry_group_IT_number 52
_symmetry_cell_setting 'orthorhombic'
loop_
_space_group_symop_operation_xyz
x,y,z
1/2-x,-y,z
x,1/2-y,1/2-z
1/2-x,1/2+y,1/2-z
-x,-y,-z
1/2+x,y,-z
-x,1/2+y,1/2+z
1/2+x,1/2-y,1/2+z
loop_
_atom_site_type_symbol
_atom_site_label
_atom_site_fract_x
_atom_site_fract_y
_atom_site_fract_z
Si Si1 0.320944 0.336834 0.441380
Si Si2 0.953710 0.366222 0.024345
Si Si3 0.250000 0.500000 0.204748
Si Si4 0.138187 0.214594 0.404587
Si Si5 0.819033 0.110261 0.232983
O O1 0.381368 0.211010 0.435274
O O2 0.311695 0.418138 0.307335
O O3 0.216434 0.299089 0.464511
O O4 0.349399 0.404257 0.578457
O O5 0.902690 0.384087 0.165581
O O6 0.042235 0.279259 0.028058
O O7 0.000000 0.500000 0.000000
O O8 0.184355 0.421110 0.109957
O O9 0.125439 0.250000 0.250000
O O10 0.777703 0.250000 0.250000
O O11 0.750000 0.000000 0.267174
#
# Coordination Sequence:
#
# PCOD9410314 Si02
#       5
#     8   8   4   8   8
#     4  10  21  41  67  90 132 177 228 288 350 413
#     4  11  24  39  63  94 131 174 224 283 351 424
#     4  10  20  40  66  94 128 176 232 288 348 418
#     4  10  21  39  61  88 122 168 216 281 340 406
#     4  10  22  41  66  95 134 177 228 281 345 421
#
# _framework density 22.710197000000001
#
# number of rings (size 3 to 8) (size 9 to 14) (size 15 to 20)
#    0.000    1.778    1.111    3.333    6.222    0.000 
#    4.000    3.333    0.000    0.000    0.000    0.000 
#    0.000    0.000    0.000    0.000    0.000    0.000 
#
# Total GULP energy -200834.759189 kJ/mol
# GULP energy per Si atom -5578.743311 kJ/mol
# Density = 2.265851 g / cm^3
# Si number density = 22.710197 Si / 1000 Ang^3
#
#
#
# Elastic Constant Matrix: (Units=GPa)
#
#
# Indices 1 2 3 4 5 6 
#
# 1 99.6803 23.8264 10.1217 0.0000 0.0000 0.0000
# 2 23.8264 87.3059 4.0495 0.0000 0.0000 0.0000
# 3 10.1217 4.0495 78.2108 0.0000 0.0000 0.0000
# 4 0.0000 0.0000 0.0000 18.2198 0.0000 0.0000
# 5 0.0000 0.0000 0.0000 0.0000 37.4781 0.0000
# 6 0.0000 0.0000 0.0000 0.0000 0.0000 25.0621
#
#
#
# Elastic Compliance Matrix: (Units=1/GPa)
#
#
# Indices 1 2 3 4 5 6 
#
# 1 0.010854 -0.002904 -0.001254 0.000000 0.000000 0.000000
# 2 -0.002904 0.012258 -0.000259 0.000000 0.000000 0.000000
# 3 -0.001254 -0.000259 0.012962 0.000000 0.000000 0.000000
# 4 0.000000 0.000000 0.000000 0.054885 0.000000 0.000000
# 5 0.000000 0.000000 0.000000 0.000000 0.026682 0.000000
# 6 0.000000 0.000000 0.000000 0.000000 0.000000 0.039901
#
#
# Mechanical properties :
#
#
# Convention : Reuss Voigt Hill
#
# Bulk Modulus (GPa) = 36.71113 37.91023 37.31068
# Shear Modulus (GPa) = 28.49716 31.29862 29.89789
#
# Velocity S-wave (km/s) = 3.54618 3.71641 3.63229
# Velocity P-wave (km/s) = 5.74172 5.92831 5.83576
#
# Compressibility (1/GPa) = 0.02723970
#
# Stress axis : x y z
#
# Youngs Moduli (GPa) = 92.13590 81.57626 77.15043
#
# Poissons Ratio (x) = 0.23688 0.09677
# Poissons Ratio (y) = 0.26755 0.01997
# Poissons Ratio (z) = 0.11556 0.02112
#
# Static dielectric constant tensor:
#      x y z
#    x 1.832170 0.000000 0.000000 
#    y 0.000000 1.980810 0.000000 
#    z 0.000000 0.000000 1.854680 
# 
# From -- ./inp_files/17736.got.cif
#   From: 2010.05.17/outbox.cif.g08.bks.cpg/sg52_9_cif.got.tgz:17736.got - 2010.06.03 12:15:38.
