data_PCOD9410884
_publ_section_title
;
Structure prediction by ZEFSAII (Michael W. Deem and Ramdas Pophale) SiO2 
 PCOD9410884
Probable space group: P N N A
;
_chemical_formula_sum "Si O2"
_cell_formula_units_Z 32
_cell_length_a 21.068783
_cell_length_b 7.479445
_cell_length_c 10.096280
_cell_angle_alpha 90.000000
_cell_angle_beta 90.000000
_cell_angle_gamma 90.000000
_cell_volume 1591.000109
_symmetry_space_group_name_H-M "P N N A"
_symmetry_group_IT_number 52
_symmetry_cell_setting 'orthorhombic'
loop_
_space_group_symop_operation_xyz
x,y,z
1/2-x,-y,z
x,1/2-y,1/2-z
1/2-x,1/2+y,1/2-z
-x,-y,-z
1/2+x,y,-z
-x,1/2+y,1/2+z
1/2+x,1/2-y,1/2+z
loop_
_atom_site_type_symbol
_atom_site_label
_atom_site_fract_x
_atom_site_fract_y
_atom_site_fract_z
Si Si1 0.427724 0.283238 0.931682
Si Si2 0.183130 0.750000 0.750000
Si Si3 0.563129 0.068777 0.639528
Si Si4 0.250000 0.000000 0.955868
Si Si5 0.113496 0.424212 0.438960
O O1 0.367948 0.348662 0.844920
O O2 0.490954 0.359658 0.863290
O O3 0.429239 0.377748 0.073234
O O4 0.420062 0.070590 0.964084
O O5 0.227067 0.651641 0.645311
O O6 0.597072 0.215180 0.543763
O O7 0.590680 0.055126 0.786987
O O8 0.188430 0.047918 0.041706
#
# Coordination Sequence:
#
# PCOD9410884 Si02
#       5
#     8   4   8   4   8
#     4  10  21  39  62  93 119 152 199 251 300 353
#     4  10  22  40  60  84 120 158 204 246 294 356
#     4  10  21  38  66  91 118 158 193 250 310 349
#     4  10  24  40  58  84 120 164 202 244 292 360
#     4  10  21  41  57  91 121 158 199 246 293 353
#
# _framework density 20.113133999999999
#
# number of rings (size 3 to 8) (size 9 to 14) (size 15 to 20)
#    0.000    2.000    0.000    3.000    3.500    2.000 
#   18.000    5.000    0.000    0.000    0.000    0.000 
#    0.000    0.000    0.000    0.000    0.000    0.000 
#
# Total GULP energy -178137.998211 kJ/mol
# GULP energy per Si atom -5566.812444 kJ/mol
# Density = 2.006736 g / cm^3
# Si number density = 20.113134 Si / 1000 Ang^3
#
#
#
# Elastic Constant Matrix: (Units=GPa)
#
#
# Indices 1 2 3 4 5 6 
#
# 1 145.9035 20.7198 49.6126 0.0000 0.0000 0.0000
# 2 20.7198 55.1754 17.1107 0.0000 0.0000 0.0000
# 3 49.6126 17.1107 98.4681 0.0000 0.0000 0.0000
# 4 0.0000 0.0000 0.0000 26.5816 0.0000 0.0000
# 5 0.0000 0.0000 0.0000 0.0000 22.2332 0.0000
# 6 0.0000 0.0000 0.0000 0.0000 0.0000 115.3351
#
#
#
# Elastic Compliance Matrix: (Units=1/GPa)
#
#
# Indices 1 2 3 4 5 6 
#
# 1 0.008467 -0.001962 -0.003925 0.000000 0.000000 0.000000
# 2 -0.001962 0.019611 -0.002419 0.000000 0.000000 0.000000
# 3 -0.003925 -0.002419 0.012554 0.000000 0.000000 0.000000
# 4 0.000000 0.000000 0.000000 0.037620 0.000000 0.000000
# 5 0.000000 0.000000 0.000000 0.000000 0.044978 0.000000
# 6 0.000000 0.000000 0.000000 0.000000 0.000000 0.008670
#
#
# Mechanical properties :
#
#
# Convention : Reuss Voigt Hill
#
# Bulk Modulus (GPa) = 41.63423 52.71482 47.17453
# Shear Modulus (GPa) = 31.94487 46.97023 39.45755
#
# Velocity S-wave (km/s) = 3.98962 4.83774 4.43400
# Velocity P-wave (km/s) = 6.47825 7.58096 7.05120
#
# Compressibility (1/GPa) = 0.02401870
#
# Stress axis : x y z
#
# Youngs Moduli (GPa) = 118.10238 50.99144 79.65841
#
# Poissons Ratio (x) = 0.10007 0.31267
# Poissons Ratio (y) = 0.23177 0.19270
# Poissons Ratio (z) = 0.46357 0.12335
#
# Static dielectric constant tensor:
#      x y z
#    x 1.747860 0.000000 0.000000 
#    y 0.000000 1.748500 0.000000 
#    z 0.000000 0.000000 1.728380 
# 
# From -- ./inp_files/12870.got.cif
#   From: 2010.05.17/outbox.cif.g08.bks.cpg/sg52_7_cif.got.tgz:12870.got - 2010.06.03 12:15:38.
