data_PCOD9410256
_publ_section_title
;
Structure prediction by ZEFSAII (Michael W. Deem and Ramdas Pophale) SiO2 
 PCOD9410256
Probable space group: P N N A
;
_chemical_formula_sum "Si O2"
_cell_formula_units_Z 64
_cell_length_a 14.454128
_cell_length_b 17.684342
_cell_length_c 11.397917
_cell_angle_alpha 90.000000
_cell_angle_beta 90.000000
_cell_angle_gamma 90.000000
_cell_volume 2913.441429
_symmetry_space_group_name_H-M "P N N A"
_symmetry_group_IT_number 52
_symmetry_cell_setting 'orthorhombic'
loop_
_space_group_symop_operation_xyz
x,y,z
1/2-x,-y,z
x,1/2-y,1/2-z
1/2-x,1/2+y,1/2-z
-x,-y,-z
1/2+x,y,-z
-x,1/2+y,1/2+z
1/2+x,1/2-y,1/2+z
loop_
_atom_site_type_symbol
_atom_site_label
_atom_site_fract_x
_atom_site_fract_y
_atom_site_fract_z
Si Si1 0.203317 0.144991 0.457217
Si Si2 0.168856 0.442043 0.260094
Si Si3 0.819831 0.808564 0.935986
Si Si4 0.308032 0.571877 0.799061
Si Si5 0.105364 0.694473 0.143091
Si Si6 0.316272 0.182375 0.845599
Si Si7 0.978912 0.167459 0.995274
Si Si8 0.015122 0.559585 0.288624
O O1 0.172414 0.076154 0.377110
O O2 0.158291 0.221716 0.407672
O O3 0.178670 0.128377 0.591078
O O4 0.311869 0.159190 0.432648
O O5 0.250000 0.500000 0.291122
O O6 0.194569 0.365484 0.329324
O O7 0.070900 0.481468 0.283130
O O8 0.737280 0.803597 0.030789
O O9 0.911968 0.839125 0.995014
O O10 0.250000 0.500000 0.843578
O O11 0.239506 0.613193 0.709244
O O12 0.405894 0.552265 0.738340
O O13 0.139356 0.750000 0.250000
O O14 0.044590 0.752429 0.066787
O O15 0.051099 0.623406 0.196653
O O16 0.312126 0.250000 0.750000
O O17 0.420988 0.165921 0.884974
O O18 0.954804 0.097863 0.911220
#
# Coordination Sequence:
#
# PCOD9410256 Si02
#       8
#     8   8   8   8   8   8   8   8
#     4  12  24  48  70 106 143 192 244 300 365 435
#     4  12  26  44  70 107 149 184 240 307 367 435
#     4  12  25  45  76 105 141 188 244 302 364 434
#     4  12  28  47  72 102 149 197 241 301 372 447
#     4  10  20  39  73 103 137 182 244 296 358 430
#     4  12  25  47  73 106 145 186 242 304 366 430
#     4  11  24  44  75 106 139 191 242 300 357 435
#     4  11  25  46  72 105 146 193 244 292 369 447
#
# _framework density 21.96715
#
# number of rings (size 3 to 8) (size 9 to 14) (size 15 to 20)
#    0.000    0.500    5.000    3.000    1.750    3.500 
#    2.250    0.000    0.000    0.000    0.000    0.000 
#    0.000    0.000    0.000    0.000    0.000    0.000 
#
# Total GULP energy -357618.622613 kJ/mol
# GULP energy per Si atom -5587.790978 kJ/mol
# Density = 2.191715 g / cm^3
# Si number density = 21.967150 Si / 1000 Ang^3
#
#
#
# Elastic Constant Matrix: (Units=GPa)
#
#
# Indices 1 2 3 4 5 6 
#
# 1 45.6234 22.3361 4.6210 0.0000 0.0000 0.0000
# 2 22.3361 87.1685 21.0273 0.0000 0.0000 0.0000
# 3 4.6210 21.0273 64.0886 0.0000 0.0000 0.0000
# 4 0.0000 0.0000 0.0000 31.0002 0.0000 0.0000
# 5 0.0000 0.0000 0.0000 0.0000 30.1254 0.0000
# 6 0.0000 0.0000 0.0000 0.0000 0.0000 20.7189
#
#
#
# Elastic Compliance Matrix: (Units=1/GPa)
#
#
# Indices 1 2 3 4 5 6 
#
# 1 0.025069 -0.006502 0.000326 0.000000 0.000000 0.000000
# 2 -0.006502 0.014145 -0.004172 0.000000 0.000000 0.000000
# 3 0.000326 -0.004172 0.016949 0.000000 0.000000 0.000000
# 4 0.000000 0.000000 0.000000 0.032258 0.000000 0.000000
# 5 0.000000 0.000000 0.000000 0.000000 0.033195 0.000000
# 6 0.000000 0.000000 0.000000 0.000000 0.000000 0.048265
#
#
# Mechanical properties :
#
#
# Convention : Reuss Voigt Hill
#
# Bulk Modulus (GPa) = 28.19649 32.53881 30.36765
# Shear Modulus (GPa) = 24.70374 26.29530 25.49952
#
# Velocity S-wave (km/s) = 3.35711 3.46356 3.41075
# Velocity P-wave (km/s) = 5.28115 5.55335 5.41896
#
# Compressibility (1/GPa) = 0.03546541
#
# Stress axis : x y z
#
# Youngs Moduli (GPa) = 39.88997 70.69850 59.00158
#
# Poissons Ratio (x) = 0.45970 -0.01922
# Poissons Ratio (y) = 0.25938 0.24615
# Poissons Ratio (z) = -0.01300 0.29495
#
# Static dielectric constant tensor:
#      x y z
#    x 1.805660 0.000000 0.000000 
#    y 0.000000 1.832710 0.000000 
#    z 0.000000 0.000000 1.818740 
# 
# From -- ./inp_files/19872.got.cif
#   From: 2010.05.17/outbox.cif.g08.bks.cpg/sg52_10_cif.got.tgz:19872.got - 2010.06.03 12:15:38.
