data_PCOD9410000
_publ_section_title
;
Structure prediction by ZEFSAII (Michael W. Deem and Ramdas Pophale) SiO2 
 PCOD9410000
Probable space group: P N N A
;
_chemical_formula_sum "Si O2"
_cell_formula_units_Z 36
_cell_length_a 18.299887
_cell_length_b 10.392197
_cell_length_c 8.435636
_cell_angle_alpha 90.000000
_cell_angle_beta 90.000000
_cell_angle_gamma 90.000000
_cell_volume 1604.255772
_symmetry_space_group_name_H-M "P N N A"
_symmetry_group_IT_number 52
_symmetry_cell_setting 'orthorhombic'
loop_
_space_group_symop_operation_xyz
x,y,z
1/2-x,-y,z
x,1/2-y,1/2-z
1/2-x,1/2+y,1/2-z
-x,-y,-z
1/2+x,y,-z
-x,1/2+y,1/2+z
1/2+x,1/2-y,1/2+z
loop_
_atom_site_type_symbol
_atom_site_label
_atom_site_fract_x
_atom_site_fract_y
_atom_site_fract_z
Si Si1 0.478031 0.827673 0.970198
Si Si2 0.408589 0.569556 0.829572
Si Si3 0.222958 0.362009 0.001906
Si Si4 0.109004 0.250000 0.250000
Si Si5 0.880534 0.213501 0.433244
O O1 0.451522 0.685957 0.912503
O O2 0.442546 0.927651 0.846816
O O3 0.443813 0.841073 0.145695
O O4 0.564799 0.807649 0.974657
O O5 0.409257 0.435255 0.924890
O O6 0.322990 0.612174 0.839708
O O7 0.250000 0.500000 0.058711
O O8 0.163836 0.312279 0.124778
O O9 0.296550 0.280669 0.986987
O O10 0.881873 0.250000 0.250000
#
# Coordination Sequence:
#
# PCOD9410000 Si02
#       5
#     8   8   8   4   8
#     4  10  20  39  61  87 117 160 200 240 304 360
#     4   9  21  40  65  80 120 168 193 239 310 359
#     4   9  21  41  60  85 119 160 198 245 302 358
#     4  10  20  38  58  86 120 152 198 250 300 358
#     4  11  22  37  59  94 120 149 208 252 289 361
#
# _framework density 22.440314000000001
#
# number of rings (size 3 to 8) (size 9 to 14) (size 15 to 20)
#    0.000    2.222    1.111    0.667    6.222    2.667 
#    4.000    0.000    0.000    0.000    0.000    0.000 
#    0.000    0.000    0.000    0.000    0.000    0.000 
#
# Total GULP energy -200713.089540 kJ/mol
# GULP energy per Si atom -5575.363598 kJ/mol
# Density = 2.238924 g / cm^3
# Si number density = 22.440314 Si / 1000 Ang^3
#
#
#
# Elastic Constant Matrix: (Units=GPa)
#
#
# Indices 1 2 3 4 5 6 
#
# 1 194.9417 23.9835 52.6592 0.0000 0.0000 0.0000
# 2 23.9835 66.7456 3.0444 0.0000 0.0000 0.0000
# 3 52.6592 3.0444 73.2688 0.0000 0.0000 0.0000
# 4 0.0000 0.0000 0.0000 19.2359 0.0000 0.0000
# 5 0.0000 0.0000 0.0000 0.0000 -0.9330 0.0000
# 6 0.0000 0.0000 0.0000 0.0000 0.0000 15.2155
#
#
#
# Elastic Compliance Matrix: (Units=1/GPa)
#
#
# Indices 1 2 3 4 5 6 
#
# 1 0.006668 -0.002182 -0.004702 0.000000 0.000000 0.000000
# 2 -0.002182 0.015724 0.000915 0.000000 0.000000 0.000000
# 3 -0.004702 0.000915 0.016990 0.000000 0.000000 0.000000
# 4 0.000000 0.000000 0.000000 0.051986 0.000000 0.000000
# 5 0.000000 0.000000 0.000000 0.000000 -1.071758 0.000000
# 6 0.000000 0.000000 0.000000 0.000000 0.000000 0.065723
#
#
# Mechanical properties :
#
#
# Convention : Reuss Voigt Hill
#
# Bulk Modulus (GPa) = 36.43717 54.92560 45.68139
# Shear Modulus (GPa) = -5.59547 23.72160 9.06307
#
# Velocity S-wave (km/s) = -1.58079 3.25483 2.01184
# Velocity P-wave (km/s) = 3.59733 6.21729 5.07914
#
# Compressibility (1/GPa) = 0.02744450
#
# Stress axis : x y z
#
# Youngs Moduli (GPa) = 149.96421 63.59523 58.85924
#
# Poissons Ratio (x) = 0.13874 0.27675
# Poissons Ratio (y) = 0.32716 -0.05383
# Poissons Ratio (z) = 0.70512 -0.05816
#
# Static dielectric constant tensor:
#      x y z
#    x 1.866330 0.000000 0.000000 
#    y 0.000000 1.901340 0.000000 
#    z 0.000000 0.000000 1.933260 
# 
# From -- ./inp_files/13078.got.cif
#   From: 2010.05.17/outbox.cif.g08.bks.cpg/sg52_7_cif.got.tgz:13078.got - 2010.06.03 12:15:38.
