data_PCOD9410742
_publ_section_title
;
Structure prediction by ZEFSAII (Michael W. Deem and Ramdas Pophale) SiO2 
 PCOD9410742
Probable space group: P N N A
;
_chemical_formula_sum "Si O2"
_cell_formula_units_Z 40
_cell_length_a 8.900099
_cell_length_b 14.980884
_cell_length_c 13.597249
_cell_angle_alpha 90.000000
_cell_angle_beta 90.000000
_cell_angle_gamma 90.000000
_cell_volume 1812.939575
_symmetry_space_group_name_H-M "P N N A"
_symmetry_group_IT_number 52
_symmetry_cell_setting 'orthorhombic'
loop_
_space_group_symop_operation_xyz
x,y,z
1/2-x,-y,z
x,1/2-y,1/2-z
1/2-x,1/2+y,1/2-z
-x,-y,-z
1/2+x,y,-z
-x,1/2+y,1/2+z
1/2+x,1/2-y,1/2+z
loop_
_atom_site_type_symbol
_atom_site_label
_atom_site_fract_x
_atom_site_fract_y
_atom_site_fract_z
Si Si1 0.846537 0.673915 0.404328
Si Si2 0.681036 0.906387 0.264809
Si Si3 0.375791 0.435737 0.447834
Si Si4 0.091278 0.473286 0.150965
Si Si5 0.378149 0.620847 0.942077
O O1 0.754540 0.667217 0.302967
O O2 0.728504 0.625193 0.479238
O O3 0.888903 0.772815 0.439596
O O4 0.007800 0.625736 0.388614
O O5 0.504294 0.918105 0.270007
O O6 0.727363 0.897716 0.379239
O O7 0.750000 0.000000 0.227110
O O8 0.250000 0.500000 0.402144
O O9 0.500000 0.500000 0.500000
O O10 0.250000 0.500000 0.190645
O O11 0.000495 0.562527 0.118092
O O12 0.120616 0.416954 0.051556
#
# Coordination Sequence:
#
# PCOD9410742 Si02
#       5
#     8   8   8   8   8
#     4  11  22  38  66  96 130 174 231 275 328 396
#     4  10  21  40  64  91 133 178 213 274 339 396
#     4   9  20  39  60  90 126 176 221 267 338 397
#     4  10  21  39  66  97 135 174 217 266 346 402
#     4  10  21  37  63 100 133 171 218 273 332 408
#
# _framework density 22.063613
#
# number of rings (size 3 to 8) (size 9 to 14) (size 15 to 20)
#    0.000    2.000    0.000    5.400    5.600    0.000 
#    0.000   15.000    0.000    4.800    0.000    0.000 
#    0.000    0.000    0.000    0.000    0.000    0.000 
#
# Total GULP energy -223127.472654 kJ/mol
# GULP energy per Si atom -5578.186816 kJ/mol
# Density = 2.201340 g / cm^3
# Si number density = 22.063613 Si / 1000 Ang^3
#
#
#
# Elastic Constant Matrix: (Units=GPa)
#
#
# Indices 1 2 3 4 5 6 
#
# 1 186.1311 50.4693 48.4070 0.0000 0.0000 0.0000
# 2 50.4693 138.3349 43.4629 0.0000 0.0000 0.0000
# 3 48.4070 43.4629 86.9305 0.0000 0.0000 0.0000
# 4 0.0000 0.0000 0.0000 5.2513 0.0000 0.0000
# 5 0.0000 0.0000 0.0000 0.0000 -243.5028 0.0000
# 6 0.0000 0.0000 0.0000 0.0000 0.0000 16.8858
#
#
#
# Elastic Compliance Matrix: (Units=1/GPa)
#
#
# Indices 1 2 3 4 5 6 
#
# 1 0.006525 -0.001470 -0.002899 0.000000 0.000000 0.000000
# 2 -0.001470 0.008907 -0.003635 0.000000 0.000000 0.000000
# 3 -0.002899 -0.003635 0.014935 0.000000 0.000000 0.000000
# 4 0.000000 0.000000 0.000000 0.190430 0.000000 0.000000
# 5 0.000000 0.000000 0.000000 0.000000 -0.004107 0.000000
# 6 0.000000 0.000000 0.000000 0.000000 0.000000 0.059221
#
#
# Mechanical properties :
#
#
# Convention : Reuss Voigt Hill
#
# Bulk Modulus (GPa) = 69.63571 77.34167 73.48869
# Shear Modulus (GPa) = 16.85176 -26.33600 -4.74212
#
# Velocity S-wave (km/s) = 2.76666 -3.45866 -1.46764
# Velocity P-wave (km/s) = 6.46805 4.37953 5.52340
#
# Compressibility (1/GPa) = 0.01436045
#
# Stress axis : x y z
#
# Youngs Moduli (GPa) = 153.25869 112.27002 66.95775
#
# Poissons Ratio (x) = 0.16502 0.19408
# Poissons Ratio (y) = 0.22527 0.24338
# Poissons Ratio (z) = 0.44422 0.40808
#
# Static dielectric constant tensor:
#      x y z
#    x 1.856990 0.000000 0.000000 
#    y 0.000000 1.776350 0.000000 
#    z 0.000000 0.000000 1.842720 
# 
# From -- ./inp_files/24391.got.cif
#   From: 2010.05.17/outbox.cif.g08.bks.cpg/sg52_13_cif.got.tgz:24391.got - 2010.06.03 12:15:38.
