data_PCOD9410449
_publ_section_title
;
Structure prediction by ZEFSAII (Michael W. Deem and Ramdas Pophale) SiO2 
 PCOD9410449
Probable space group: P N N A
;
_chemical_formula_sum "Si O2"
_cell_formula_units_Z 56
_cell_length_a 20.532009
_cell_length_b 5.235751
_cell_length_c 24.627280
_cell_angle_alpha 90.000000
_cell_angle_beta 90.000000
_cell_angle_gamma 90.000000
_cell_volume 2647.444585
_symmetry_space_group_name_H-M "P N N A"
_symmetry_group_IT_number 52
_symmetry_cell_setting 'orthorhombic'
loop_
_space_group_symop_operation_xyz
x,y,z
1/2-x,-y,z
x,1/2-y,1/2-z
1/2-x,1/2+y,1/2-z
-x,-y,-z
1/2+x,y,-z
-x,1/2+y,1/2+z
1/2+x,1/2-y,1/2+z
loop_
_atom_site_type_symbol
_atom_site_label
_atom_site_fract_x
_atom_site_fract_y
_atom_site_fract_z
Si Si1 0.750000 0.500000 0.589788
Si Si2 0.855197 0.320672 0.972126
Si Si3 0.621648 0.929343 0.089073
Si Si4 0.325609 0.573197 0.862827
Si Si5 0.671755 0.501368 0.785019
Si Si6 0.794764 0.750000 0.250000
Si Si7 0.369267 0.697717 0.107843
Si Si8 0.979016 0.036115 0.936556
O O1 0.791795 0.307252 0.553401
O O2 0.691750 0.377491 0.624323
O O3 0.849276 0.612510 0.953815
O O4 0.923608 0.252396 0.941696
O O5 0.864253 0.213461 0.031907
O O6 0.635187 0.689952 0.128640
O O7 0.548798 0.043725 0.091543
O O8 0.663380 0.185209 0.097721
O O9 0.250000 0.500000 0.867142
O O10 0.336035 0.683512 0.802774
O O11 0.750000 0.500000 0.794209
O O12 0.655748 0.750000 0.750000
O O13 0.634963 0.501203 0.843065
O O14 0.654648 0.250000 0.750000
O O15 0.750000 0.500000 0.261478
O O16 0.438266 0.824119 0.096442
O O17 0.000000 0.000000 0.000000
#
# Coordination Sequence:
#
# PCOD9410449 Si02
#       8
#     4   8   8   8   8   4   8   8
#     4  10  22  36  56  98 124 168 206 276 326 394
#     4  10  23  37  62  89 133 172 218 262 331 394
#     4  11  25  40  65  96 135 166 215 268 320 391
#     4  11  24  41  68  99 128 165 210 271 330 388
#     4  10  23  39  65  96 127 167 222 282 339 394
#     4  10  20  42  68  94 126 168 212 258 324 406
#     4  11  23  40  67  88 133 176 226 271 333 401
#     4   9  23  42  62  91 127 185 227 259 317 406
#
# _framework density 21.152471999999999
#
# number of rings (size 3 to 8) (size 9 to 14) (size 15 to 20)
#    0.000    1.714    0.000    3.429   17.000    1.143 
#    0.000    0.000    4.714    0.000    0.000    0.000 
#    0.000    0.000    0.000    0.000    0.000    0.000 
#
# Total GULP energy -311913.297340 kJ/mol
# GULP energy per Si atom -5569.880310 kJ/mol
# Density = 2.110433 g / cm^3
# Si number density = 21.152472 Si / 1000 Ang^3
#
#
#
# Elastic Constant Matrix: (Units=GPa)
#
#
# Indices 1 2 3 4 5 6 
#
# 1 77.0990 22.5338 42.3356 0.0000 0.0000 0.0000
# 2 22.5338 81.5451 27.6133 0.0000 0.0000 0.0000
# 3 42.3356 27.6133 81.8632 0.0000 0.0000 0.0000
# 4 0.0000 0.0000 0.0000 32.5625 0.0000 0.0000
# 5 0.0000 0.0000 0.0000 0.0000 1.9864 0.0000
# 6 0.0000 0.0000 0.0000 0.0000 0.0000 19.1452
#
#
#
# Elastic Compliance Matrix: (Units=1/GPa)
#
#
# Indices 1 2 3 4 5 6 
#
# 1 0.018429 -0.002106 -0.008820 0.000000 0.000000 0.000000
# 2 -0.002106 0.014085 -0.003662 0.000000 0.000000 0.000000
# 3 -0.008820 -0.003662 0.018012 0.000000 0.000000 0.000000
# 4 0.000000 0.000000 0.000000 0.030710 0.000000 0.000000
# 5 0.000000 0.000000 0.000000 0.000000 0.503419 0.000000
# 6 0.000000 0.000000 0.000000 0.000000 0.000000 0.052232
#
#
# Mechanical properties :
#
#
# Convention : Reuss Voigt Hill
#
# Bulk Modulus (GPa) = 46.83824 47.27474 47.05649
# Shear Modulus (GPa) = 7.42742 20.60712 14.01727
#
# Velocity S-wave (km/s) = 1.87590 3.12463 2.57705
# Velocity P-wave (km/s) = 5.18490 5.95112 5.58117
#
# Compressibility (1/GPa) = 0.02135008
#
# Stress axis : x y z
#
# Youngs Moduli (GPa) = 54.26200 70.99684 55.51798
#
# Poissons Ratio (x) = 0.14951 0.48969
# Poissons Ratio (y) = 0.11427 0.20331
# Poissons Ratio (z) = 0.47861 0.25999
#
# Static dielectric constant tensor:
#      x y z
#    x 1.770550 0.000000 0.000000 
#    y 0.000000 2.044660 0.000000 
#    z 0.000000 0.000000 1.833780 
# 
# From -- ./inp_files/41023.got.cif
#   From: 2010.05.17/outbox.cif.g08.bks.cpg/sg52_21_cif.got.tgz:41023.got - 2010.06.03 12:15:38.
