data_PCOD9410857
_publ_section_title
;
Structure prediction by ZEFSAII (Michael W. Deem and Ramdas Pophale) SiO2 
 PCOD9410857
Probable space group: P N N A
;
_chemical_formula_sum "Si O2"
_cell_formula_units_Z 48
_cell_length_a 23.031073
_cell_length_b 6.135554
_cell_length_c 17.411475
_cell_angle_alpha 90.000000
_cell_angle_beta 90.000000
_cell_angle_gamma 90.000000
_cell_volume 2460.387536
_symmetry_space_group_name_H-M "P N N A"
_symmetry_group_IT_number 52
_symmetry_cell_setting 'orthorhombic'
loop_
_space_group_symop_operation_xyz
x,y,z
1/2-x,-y,z
x,1/2-y,1/2-z
1/2-x,1/2+y,1/2-z
-x,-y,-z
1/2+x,y,-z
-x,1/2+y,1/2+z
1/2+x,1/2-y,1/2+z
loop_
_atom_site_type_symbol
_atom_site_label
_atom_site_fract_x
_atom_site_fract_y
_atom_site_fract_z
Si Si1 0.011100 0.585913 0.586092
Si Si2 0.893693 0.063374 0.457693
Si Si3 0.182409 0.953355 0.955792
Si Si4 0.109959 0.316662 0.662177
Si Si5 0.768905 0.747994 0.839228
Si Si6 0.387701 0.729023 0.414721
O O1 0.947070 0.631304 0.617372
O O2 0.000000 0.500000 0.500000
O O3 0.052681 0.791495 0.570782
O O4 0.048360 0.423976 0.638709
O O5 0.836042 0.205917 0.468695
O O6 0.882802 0.893246 0.390762
O O7 0.905880 0.944221 0.537952
O O8 0.158601 0.020082 0.871600
O O9 0.250000 0.000000 0.962357
O O10 0.143449 0.083491 0.018530
O O11 0.114129 0.250000 0.750000
O O12 0.750000 0.500000 0.869396
O O13 0.751569 0.750000 0.750000
O O14 0.837867 0.741203 0.852695
O O15 0.750000 0.000000 0.866943
#
# Coordination Sequence:
#
# PCOD9410857 Si02
#       6
#     8   8   8   8   8   8
#     4  11  20  39  59  88 123 157 205 266 315 387
#     4  10  21  38  64  84 123 163 200 262 329 372
#     4  10  22  38  60  92 122 155 215 261 317 396
#     4  10  23  42  59  88 124 166 210 260 328 388
#     4  10  24  45  63  90 135 176 213 267 329 388
#     4  11  22  35  64  91 120 158 216 259 321 386
#
# _framework density 19.509121
#
# number of rings (size 3 to 8) (size 9 to 14) (size 15 to 20)
#    0.000    1.667    5.000    1.000    4.667    4.667 
#    6.000    0.833    0.000    0.000    0.000    0.000 
#    0.000    0.000    0.000    0.000    0.000    0.000 
#
# Total GULP energy -267292.254945 kJ/mol
# GULP energy per Si atom -5568.588645 kJ/mol
# Density = 1.946472 g / cm^3
# Si number density = 19.509121 Si / 1000 Ang^3
#
#
#
# Elastic Constant Matrix: (Units=GPa)
#
#
# Indices 1 2 3 4 5 6 
#
# 1 141.6883 32.0884 0.7641 0.0000 0.0000 0.0000
# 2 32.0884 93.4752 8.5833 0.0000 0.0000 0.0000
# 3 0.7641 8.5833 53.6393 0.0000 0.0000 0.0000
# 4 0.0000 0.0000 0.0000 7.0179 0.0000 0.0000
# 5 0.0000 0.0000 0.0000 0.0000 26.2527 0.0000
# 6 0.0000 0.0000 0.0000 0.0000 0.0000 26.5589
#
#
#
# Elastic Compliance Matrix: (Units=1/GPa)
#
#
# Indices 1 2 3 4 5 6 
#
# 1 0.007658 -0.002658 0.000316 0.000000 0.000000 0.000000
# 2 -0.002658 0.011780 -0.001847 0.000000 0.000000 0.000000
# 3 0.000316 -0.001847 0.018934 0.000000 0.000000 0.000000
# 4 0.000000 0.000000 0.000000 0.142494 0.000000 0.000000
# 5 0.000000 0.000000 0.000000 0.000000 0.038091 0.000000
# 6 0.000000 0.000000 0.000000 0.000000 0.000000 0.037652
#
#
# Mechanical properties :
#
#
# Convention : Reuss Voigt Hill
#
# Bulk Modulus (GPa) = 33.33945 41.29715 37.31830
# Shear Modulus (GPa) = 18.18279 28.45701 23.31990
#
# Velocity S-wave (km/s) = 3.05620 3.82337 3.46111
# Velocity P-wave (km/s) = 5.43876 6.38005 5.92811
#
# Compressibility (1/GPa) = 0.02999450
#
# Stress axis : x y z
#
# Youngs Moduli (GPa) = 130.58281 84.88932 52.81465
#
# Poissons Ratio (x) = 0.22563 -0.01670
# Poissons Ratio (y) = 0.34707 0.09756
# Poissons Ratio (z) = -0.04129 0.15680
#
# Static dielectric constant tensor:
#      x y z
#    x -1.737830 0.000000 0.000000 
#    y 0.000000 1.762760 0.000000 
#    z 0.000000 0.000000 1.676630 
# 
# From -- ./inp_files/34245.got.cif
#   From: 2010.05.17/outbox.cif.g08.bks.cpg/sg52_18_cif.got.tgz:34245.got - 2010.06.03 12:15:38.
