data_PCOD9410803
_publ_section_title
;
Structure prediction by ZEFSAII (Michael W. Deem and Ramdas Pophale) SiO2 
 PCOD9410803
Probable space group: P N N A
;
_chemical_formula_sum "Si O2"
_cell_formula_units_Z 40
_cell_length_a 28.624245
_cell_length_b 11.282265
_cell_length_c 5.312437
_cell_angle_alpha 90.000000
_cell_angle_beta 90.000000
_cell_angle_gamma 90.000000
_cell_volume 1715.631966
_symmetry_space_group_name_H-M "P N N A"
_symmetry_group_IT_number 52
_symmetry_cell_setting 'orthorhombic'
loop_
_space_group_symop_operation_xyz
x,y,z
1/2-x,-y,z
x,1/2-y,1/2-z
1/2-x,1/2+y,1/2-z
-x,-y,-z
1/2+x,y,-z
-x,1/2+y,1/2+z
1/2+x,1/2-y,1/2+z
loop_
_atom_site_type_symbol
_atom_site_label
_atom_site_fract_x
_atom_site_fract_y
_atom_site_fract_z
Si Si1 0.012294 0.856076 0.463651
Si Si2 0.618637 0.591691 0.046852
Si Si3 0.176745 0.587018 0.457746
Si Si4 0.405081 0.682913 0.009002
Si Si5 0.717269 0.325128 0.501490
O O1 0.017866 0.750000 0.250000
O O2 0.960868 0.818124 0.549014
O O3 0.065909 0.857655 0.557146
O O4 0.000000 0.000000 0.500000
O O5 0.650571 0.619978 0.802547
O O6 0.612385 0.450014 0.018813
O O7 0.644222 0.618335 0.307062
O O8 0.227480 0.644135 0.492859
O O9 0.188056 0.446394 0.478454
O O10 0.385628 0.750000 0.250000
O O11 0.396081 0.750000 0.750000
O O12 0.707651 0.250000 0.250000
O O13 0.709910 0.250000 0.750000
#
# Coordination Sequence:
#
# PCOD9410803 Si02
#       5
#     8   8   8   8   8
#     4   9  21  41  64  93 133 181 226 277 341 407
#     4  11  23  39  63  94 129 166 214 277 335 395
#     4  11  25  42  63  97 128 162 219 274 331 407
#     4  10  21  38  60  89 127 171 219 267 325 398
#     4  11  24  44  67  89 125 171 211 266 339 407
#
# _framework density 23.315023
#
# number of rings (size 3 to 8) (size 9 to 14) (size 15 to 20)
#    0.000    1.600    0.000    3.600    0.000   13.600 
#    0.000   12.000    0.000    0.000    0.000    0.000 
#    0.000    0.000    0.000    0.000    0.000    0.000 
#
# Total GULP energy -222881.399988 kJ/mol
# GULP energy per Si atom -5572.035000 kJ/mol
# Density = 2.326196 g / cm^3
# Si number density = 23.315023 Si / 1000 Ang^3
#
#
#
# Elastic Constant Matrix: (Units=GPa)
#
#
# Indices 1 2 3 4 5 6 
#
# 1 195.0816 27.2288 42.4490 0.0000 0.0000 0.0000
# 2 27.2288 136.2140 55.0052 0.0000 0.0000 0.0000
# 3 42.4490 55.0052 156.8534 0.0000 0.0000 0.0000
# 4 0.0000 0.0000 0.0000 11.3697 0.0000 0.0000
# 5 0.0000 0.0000 0.0000 0.0000 28.1917 0.0000
# 6 0.0000 0.0000 0.0000 0.0000 0.0000 28.4670
#
#
#
# Elastic Compliance Matrix: (Units=1/GPa)
#
#
# Indices 1 2 3 4 5 6 
#
# 1 0.005486 -0.000579 -0.001282 0.000000 0.000000 0.000000
# 2 -0.000579 0.008614 -0.002864 0.000000 0.000000 0.000000
# 3 -0.001282 -0.002864 0.007727 0.000000 0.000000 0.000000
# 4 0.000000 0.000000 0.000000 0.087953 0.000000 0.000000
# 5 0.000000 0.000000 0.000000 0.000000 0.035471 0.000000
# 6 0.000000 0.000000 0.000000 0.000000 0.000000 0.035128
#
#
# Mechanical properties :
#
#
# Convention : Reuss Voigt Hill
#
# Bulk Modulus (GPa) = 80.79598 81.94612 81.37105
# Shear Modulus (GPa) = 25.77933 37.83673 31.80803
#
# Velocity S-wave (km/s) = 3.32881 4.03283 3.69761
# Velocity P-wave (km/s) = 7.03590 7.54378 7.29426
#
# Compressibility (1/GPa) = 0.01237685
#
# Stress axis : x y z
#
# Youngs Moduli (GPa) = 182.29079 116.09506 129.42462
#
# Poissons Ratio (x) = 0.06723 0.16586
# Poissons Ratio (y) = 0.10556 0.37066
# Poissons Ratio (z) = 0.23361 0.33248
#
# Static dielectric constant tensor:
#      x y z
#    x 1.833540 0.000000 0.000000 
#    y 0.000000 1.997890 0.000000 
#    z 0.000000 0.000000 1.657930 
# 
# From -- ./inp_files/5563.got.cif
#   From: 2010.05.17/outbox.cif.g08.bks.cpg/sg52_3_cif.got.tgz:5563.got - 2010.06.03 12:15:38.
