data_PCOD9410263
_publ_section_title
;
Structure prediction by ZEFSAII (Michael W. Deem and Ramdas Pophale) SiO2 
 PCOD9410263
Probable space group: P N N A
;
_chemical_formula_sum "Si O2"
_cell_formula_units_Z 44
_cell_length_a 9.698301
_cell_length_b 15.042695
_cell_length_c 15.971417
_cell_angle_alpha 90.000000
_cell_angle_beta 90.000000
_cell_angle_gamma 90.000000
_cell_volume 2330.047410
_symmetry_space_group_name_H-M "P N N A"
_symmetry_group_IT_number 52
_symmetry_cell_setting 'orthorhombic'
loop_
_space_group_symop_operation_xyz
x,y,z
1/2-x,-y,z
x,1/2-y,1/2-z
1/2-x,1/2+y,1/2-z
-x,-y,-z
1/2+x,y,-z
-x,1/2+y,1/2+z
1/2+x,1/2-y,1/2+z
loop_
_atom_site_type_symbol
_atom_site_label
_atom_site_fract_x
_atom_site_fract_y
_atom_site_fract_z
Si Si1 0.398987 0.955845 0.935121
Si Si2 0.491364 0.946596 0.746267
Si Si3 0.150004 0.863593 0.484952
Si Si4 0.550027 0.250000 0.250000
Si Si5 0.750000 0.000000 0.377438
Si Si6 0.750000 0.500000 0.846546
Si Si7 0.879981 0.752285 0.436293
O O1 0.445525 0.971447 0.839277
O O2 0.405441 0.850727 0.953839
O O3 0.250000 0.000000 0.945016
O O4 0.500000 0.000000 0.000000
O O5 0.533733 0.842200 0.750929
O O6 0.614910 0.006057 0.710900
O O7 0.362174 0.954366 0.682836
O O8 0.246839 0.783946 0.514282
O O9 0.002448 0.821243 0.461610
O O10 0.163070 0.934061 0.561793
O O11 0.215622 0.916880 0.407003
O O12 0.636462 0.246431 0.335508
#
# Coordination Sequence:
#
# PCOD9410263 Si02
#       7
#     8   8   8   4   4   4   8
#     4  11  25  44  65  90 122 172 223 263 317 377
#     4  11  22  40  63  90 125 166 209 261 312 384
#     4  11  21  38  63  97 126 162 204 261 327 379
#     4  10  20  40  60  82 122 172 204 242 322 360
#     4  11  20  38  65  94 130 158 207 262 324 385
#     4  11  22  38  61  96 132 160 205 258 328 381
#     4  11  22  39  64  88 126 163 211 262 313 383
#
# _framework density 18.883735999999999
#
# number of rings (size 3 to 8) (size 9 to 14) (size 15 to 20)
#    0.000    1.091    4.545    2.182    1.273    2.909 
#    0.000    0.000    0.000    4.364    0.000    0.000 
#    0.000    0.000    0.000    0.000    0.000    0.000 
#
# Total GULP energy -245498.759646 kJ/mol
# GULP energy per Si atom -5579.517265 kJ/mol
# Density = 1.884076 g / cm^3
# Si number density = 18.883736 Si / 1000 Ang^3
#
#
#
# Elastic Constant Matrix: (Units=GPa)
#
#
# Indices 1 2 3 4 5 6 
#
# 1 74.0540 20.8916 50.7348 0.0000 0.0000 0.0000
# 2 20.8916 92.7350 46.8857 0.0000 0.0000 0.0000
# 3 50.7348 46.8857 122.7064 0.0000 0.0000 0.0000
# 4 0.0000 0.0000 0.0000 -8.2412 0.0000 0.0000
# 5 0.0000 0.0000 0.0000 0.0000 -73.6055 0.0000
# 6 0.0000 0.0000 0.0000 0.0000 0.0000 28.4938
#
#
#
# Elastic Compliance Matrix: (Units=1/GPa)
#
#
# Indices 1 2 3 4 5 6 
#
# 1 0.018851 -0.000379 -0.007649 0.000000 0.000000 0.000000
# 2 -0.000379 0.013373 -0.004953 0.000000 0.000000 0.000000
# 3 -0.007649 -0.004953 0.013205 0.000000 0.000000 0.000000
# 4 0.000000 0.000000 0.000000 -0.121342 0.000000 0.000000
# 5 0.000000 0.000000 0.000000 0.000000 -0.013586 0.000000
# 6 0.000000 0.000000 0.000000 0.000000 0.000000 0.035095
#
#
# Mechanical properties :
#
#
# Convention : Reuss Voigt Hill
#
# Bulk Modulus (GPa) = 51.37245 58.50217 54.93731
# Shear Modulus (GPa) = -227.77989 0.72829 -113.52580
#
# Velocity S-wave (km/s) = -10.99473 0.62170 -7.76201
# Velocity P-wave (km/s) = 11.57217 5.61808 7.15375
#
# Compressibility (1/GPa) = 0.01946569
#
# Stress axis : x y z
#
# Youngs Moduli (GPa) = 53.04656 74.77740 75.73017
#
# Poissons Ratio (x) = 0.02837 0.57929
# Poissons Ratio (y) = 0.02013 0.37508
# Poissons Ratio (z) = 0.40577 0.37036
#
# Static dielectric constant tensor:
#      x y z
#    x 1.624260 0.000000 0.000000 
#    y 0.000000 1.651310 0.000000 
#    z 0.000000 0.000000 1.653610 
# 
# From -- ./inp_files/24667.got.cif
#   From: 2010.05.17/outbox.cif.g08.bks.cpg/sg52_13_cif.got.tgz:24667.got - 2010.06.03 12:15:38.
