data_PCOD9410496
_publ_section_title
;
Structure prediction by ZEFSAII (Michael W. Deem and Ramdas Pophale) SiO2 
 PCOD9410496
Probable space group: P N N A
;
_chemical_formula_sum "Si O2"
_cell_formula_units_Z 52
_cell_length_a 21.414503
_cell_length_b 5.364521
_cell_length_c 20.141003
_cell_angle_alpha 90.000000
_cell_angle_beta 90.000000
_cell_angle_gamma 90.000000
_cell_volume 2313.769241
_symmetry_space_group_name_H-M "P N N A"
_symmetry_group_IT_number 52
_symmetry_cell_setting 'orthorhombic'
loop_
_space_group_symop_operation_xyz
x,y,z
1/2-x,-y,z
x,1/2-y,1/2-z
1/2-x,1/2+y,1/2-z
-x,-y,-z
1/2+x,y,-z
-x,1/2+y,1/2+z
1/2+x,1/2-y,1/2+z
loop_
_atom_site_type_symbol
_atom_site_label
_atom_site_fract_x
_atom_site_fract_y
_atom_site_fract_z
Si Si1 0.543253 0.998112 0.874845
Si Si2 0.155375 0.628637 0.154015
Si Si3 0.140043 0.233937 0.460041
Si Si4 0.750000 0.000000 0.885207
Si Si5 0.250000 0.000000 0.707574
Si Si6 0.415219 0.750000 0.250000
Si Si7 0.912660 0.735499 0.396312
Si Si8 0.376691 0.277654 0.828098
O O1 0.596688 0.809646 0.851436
O O2 0.483302 0.863334 0.903739
O O3 0.574665 0.174466 0.929028
O O4 0.537610 0.148081 0.806250
O O5 0.158558 0.510558 0.080497
O O6 0.132638 0.432311 0.209665
O O7 0.219244 0.784649 0.160492
O O8 0.194243 0.415186 0.433519
O O9 0.127334 0.218795 0.537374
O O10 0.269189 0.750000 0.750000
O O11 0.192592 0.895321 0.665827
O O12 0.882123 0.497184 0.358920
O O13 0.917485 0.001234 0.359436
O O14 0.387638 0.250000 0.750000
#
# Coordination Sequence:
#
# PCOD9410496 Si02
#       8
#     8   8   8   4   4   4   8   8
#     4  10  24  43  70 100 148 186 240 302 360 441
#     4  10  22  43  74 101 148 189 243 303 371 432
#     4  10  24  44  71 100 142 191 240 304 363 435
#     4  10  22  44  75 100 147 186 248 316 356 432
#     4  10  20  44  69  90 137 184 226 290 354 418
#     4  10  22  42  72 106 140 200 236 298 382 434
#     4  12  27  43  72 113 141 193 242 294 373 439
#     4  11  26  44  68 102 143 185 241 301 362 435
#
# _framework density 22.474150999999999
#
# number of rings (size 3 to 8) (size 9 to 14) (size 15 to 20)
#    0.000    1.538    0.000    3.692    9.692    3.077 
#    0.000    0.000  121.846    0.000    0.000    0.000 
#    0.000    0.000    0.000    0.000    0.000    0.000 
#
# Total GULP energy -290194.081734 kJ/mol
# GULP energy per Si atom -5580.655418 kJ/mol
# Density = 2.242300 g / cm^3
# Si number density = 22.474151 Si / 1000 Ang^3
#
#
#
# Elastic Constant Matrix: (Units=GPa)
#
#
# Indices 1 2 3 4 5 6 
#
# 1 71.6046 -3.7485 1.8847 0.0000 0.0000 0.0000
# 2 -3.7485 97.2182 42.0275 0.0000 0.0000 0.0000
# 3 1.8847 42.0275 85.4393 0.0000 0.0000 0.0000
# 4 0.0000 0.0000 0.0000 6.6777 0.0000 0.0000
# 5 0.0000 0.0000 0.0000 0.0000 4.6313 0.0000
# 6 0.0000 0.0000 0.0000 0.0000 0.0000 22.6092
#
#
#
# Elastic Compliance Matrix: (Units=1/GPa)
#
#
# Indices 1 2 3 4 5 6 
#
# 1 0.014030 0.000857 -0.000731 0.000000 0.000000 0.000000
# 2 0.000857 0.013117 -0.006471 0.000000 0.000000 0.000000
# 3 -0.000731 -0.006471 0.014903 0.000000 0.000000 0.000000
# 4 0.000000 0.000000 0.000000 0.149752 0.000000 0.000000
# 5 0.000000 0.000000 0.000000 0.000000 0.215921 0.000000
# 6 0.000000 0.000000 0.000000 0.000000 0.000000 0.044230
#
#
# Mechanical properties :
#
#
# Convention : Reuss Voigt Hill
#
# Bulk Modulus (GPa) = 34.06032 37.17662 35.61847
# Shear Modulus (GPa) = 10.53898 21.05687 15.79793
#
# Velocity S-wave (km/s) = 2.16785 3.06426 2.65417
# Velocity P-wave (km/s) = 4.63188 5.39421 5.02751
#
# Compressibility (1/GPa) = 0.02935968
#
# Stress axis : x y z
#
# Youngs Moduli (GPa) = 71.27742 76.23938 67.09884
#
# Poissons Ratio (x) = -0.06533 0.04905
# Poissons Ratio (y) = -0.06108 0.43419
# Poissons Ratio (z) = 0.05211 0.49334
#
# Static dielectric constant tensor:
#      x y z
#    x 1.882000 0.000000 0.000000 
#    y 0.000000 2.354810 0.000000 
#    z 0.000000 0.000000 1.812260 
# 
# From -- ./inp_files/37922.got.cif
#   From: 2010.05.17/outbox.cif.g08.bks.cpg/sg52_19_cif.got.tgz:37922.got - 2010.06.03 12:15:38.
