data_PCOD9410894
_publ_section_title
;
Structure prediction by ZEFSAII (Michael W. Deem and Ramdas Pophale) SiO2 
 PCOD9410894
Probable space group: P N N A
;
_chemical_formula_sum "Si O2"
_cell_formula_units_Z 56
_cell_length_a 19.633296
_cell_length_b 8.968598
_cell_length_c 14.429573
_cell_angle_alpha 90.000000
_cell_angle_beta 90.000000
_cell_angle_gamma 90.000000
_cell_volume 2540.804512
_symmetry_space_group_name_H-M "P N N A"
_symmetry_group_IT_number 52
_symmetry_cell_setting 'orthorhombic'
loop_
_space_group_symop_operation_xyz
x,y,z
1/2-x,-y,z
x,1/2-y,1/2-z
1/2-x,1/2+y,1/2-z
-x,-y,-z
1/2+x,y,-z
-x,1/2+y,1/2+z
1/2+x,1/2-y,1/2+z
loop_
_atom_site_type_symbol
_atom_site_label
_atom_site_fract_x
_atom_site_fract_y
_atom_site_fract_z
Si Si1 0.064550 0.586770 0.795847
Si Si2 0.812890 0.087557 0.988379
Si Si3 0.412838 0.596783 0.123415
Si Si4 0.513790 0.142627 0.164397
Si Si5 0.635765 0.585128 0.707077
Si Si6 0.827733 0.066204 0.458872
Si Si7 0.062342 0.383674 0.486723
O O1 0.064189 0.750000 0.750000
O O2 0.062817 0.481848 0.705929
O O3 0.127846 0.559386 0.864308
O O4 0.992118 0.561050 0.850585
O O5 0.811625 0.078499 0.876200
O O6 0.750000 0.000000 0.029740
O O7 0.820639 0.258664 0.016055
O O8 0.874990 0.983434 0.014713
O O9 0.369828 0.540028 0.213257
O O10 0.374232 0.513111 0.038730
O O11 0.418496 0.771820 0.096211
O O12 0.506651 0.250000 0.250000
O O13 0.437422 0.079566 0.154703
O O14 0.541749 0.222409 0.073727
O O15 0.642659 0.750000 0.750000
O O16 0.750000 0.000000 0.454613
O O17 0.000000 0.500000 0.500000
#
# Coordination Sequence:
#
# PCOD9410894 Si02
#       7
#     8   8   8   8   8   8   8
#     4  11  24  43  71 109 136 184 243 310 367 435
#     4  12  26  44  66 100 145 187 237 298 368 441
#     4  11  24  42  75 106 139 189 247 295 374 447
#     4  10  21  38  66  98 135 169 227 288 356 414
#     4  10  21  42  65  99 137 179 235 295 349 431
#     4  12  26  48  70 101 144 200 252 296 375 460
#     4  12  23  42  69 103 140 179 229 304 363 426
#
# _framework density 22.040262999999999
#
# number of rings (size 3 to 8) (size 9 to 14) (size 15 to 20)
#    0.000    0.857    2.857    4.714    2.000    0.571 
#    2.571    5.000    0.000    0.000    0.000    0.000 
#    0.000    0.000    0.000    0.000    0.000    0.000 
#
# Total GULP energy -312157.653368 kJ/mol
# GULP energy per Si atom -5574.243810 kJ/mol
# Density = 2.199010 g / cm^3
# Si number density = 22.040263 Si / 1000 Ang^3
#
#
#
# Elastic Constant Matrix: (Units=GPa)
#
#
# Indices 1 2 3 4 5 6 
#
# 1 84.6963 12.0893 2.7162 0.0000 0.0000 0.0000
# 2 12.0893 102.0208 -11.0778 0.0000 0.0000 0.0000
# 3 2.7162 -11.0778 38.7712 0.0000 0.0000 0.0000
# 4 0.0000 0.0000 0.0000 30.2845 0.0000 0.0000
# 5 0.0000 0.0000 0.0000 0.0000 19.6710 0.0000
# 6 0.0000 0.0000 0.0000 0.0000 0.0000 58.5721
#
#
#
# Elastic Compliance Matrix: (Units=1/GPa)
#
#
# Indices 1 2 3 4 5 6 
#
# 1 0.012073 -0.001571 -0.001295 0.000000 0.000000 0.000000
# 2 -0.001571 0.010320 0.003059 0.000000 0.000000 0.000000
# 3 -0.001295 0.003059 0.026757 0.000000 0.000000 0.000000
# 4 0.000000 0.000000 0.000000 0.033020 0.000000 0.000000
# 5 0.000000 0.000000 0.000000 0.000000 0.050836 0.000000
# 6 0.000000 0.000000 0.000000 0.000000 0.000000 0.017073
#
#
# Mechanical properties :
#
#
# Convention : Reuss Voigt Hill
#
# Bulk Modulus (GPa) = 20.18742 25.88264 23.03503
# Shear Modulus (GPa) = 30.08325 36.48956 33.28640
#
# Velocity S-wave (km/s) = 3.69849 4.07330 3.89042
# Velocity P-wave (km/s) = 5.23619 5.82162 5.53665
#
# Compressibility (1/GPa) = 0.04953580
#
# Stress axis : x y z
#
# Youngs Moduli (GPa) = 82.83168 96.89697 37.37334
#
# Poissons Ratio (x) = 0.15224 0.04839
# Poissons Ratio (y) = 0.13014 -0.11432
# Poissons Ratio (z) = 0.10724 -0.29639
#
# Static dielectric constant tensor:
#      x y z
#    x 1.758100 0.000000 0.000000 
#    y 0.000000 1.471730 0.000000 
#    z 0.000000 0.000000 1.988270 
# 
# From -- ./inp_files/28786.got.cif
#   From: 2010.05.17/outbox.cif.g08.bks.cpg/sg52_15_cif.got.tgz:28786.got - 2010.06.03 12:15:38.
