data_PCOD9410648
_publ_section_title
;
Structure prediction by ZEFSAII (Michael W. Deem and Ramdas Pophale) SiO2 
 PCOD9410648
Probable space group: P N N A
;
_chemical_formula_sum "Si O2"
_cell_formula_units_Z 56
_cell_length_a 14.311750
_cell_length_b 8.714624
_cell_length_c 20.057615
_cell_angle_alpha 90.000000
_cell_angle_beta 90.000000
_cell_angle_gamma 90.000000
_cell_volume 2501.616231
_symmetry_space_group_name_H-M "P N N A"
_symmetry_group_IT_number 52
_symmetry_cell_setting 'orthorhombic'
loop_
_space_group_symop_operation_xyz
x,y,z
1/2-x,-y,z
x,1/2-y,1/2-z
1/2-x,1/2+y,1/2-z
-x,-y,-z
1/2+x,y,-z
-x,1/2+y,1/2+z
1/2+x,1/2-y,1/2+z
loop_
_atom_site_type_symbol
_atom_site_label
_atom_site_fract_x
_atom_site_fract_y
_atom_site_fract_z
Si Si1 0.975414 0.486347 0.077431
Si Si2 0.707621 0.158756 0.378246
Si Si3 0.895816 0.239698 0.604172
Si Si4 0.285896 0.671614 0.321896
Si Si5 0.328108 0.113936 0.972390
Si Si6 0.080513 0.084119 0.858111
Si Si7 0.995085 0.791148 0.826374
O O1 0.882599 0.589427 0.083840
O O2 0.063823 0.569938 0.111093
O O3 0.965754 0.330521 0.119897
O O4 0.000000 0.500000 0.000000
O O5 0.776095 0.255307 0.427381
O O6 0.658201 0.293711 0.335491
O O7 0.750000 0.000000 0.348899
O O8 0.792986 0.248728 0.633684
O O9 0.886997 0.300383 0.528502
O O10 0.978256 0.339916 0.637637
O O11 0.250000 0.500000 0.313749
O O12 0.285524 0.750000 0.250000
O O13 0.390323 0.670017 0.351711
O O14 0.250000 0.000000 0.003833
O O15 0.387629 0.993442 0.928207
O O16 0.066610 0.931270 0.816916
O O17 0.980007 0.750000 0.750000
#
# Coordination Sequence:
#
# PCOD9410648 Si02
#       7
#     8   8   8   8   8   8   8
#     4  11  25  41  64  97 133 173 225 283 337 411
#     4  10  21  39  62  94 130 163 212 281 339 398
#     4  11  22  37  62  93 133 175 220 270 339 404
#     4  11  25  42  65  96 137 175 225 273 330 421
#     4  10  21  36  64  94 130 175 220 277 341 401
#     4  10  21  39  63  92 128 171 221 272 332 407
#     4  11  25  44  67  94 134 178 225 277 343 414
#
# _framework density 22.385528000000001
#
# number of rings (size 3 to 8) (size 9 to 14) (size 15 to 20)
#    0.000    1.429    1.429    3.429    6.000    1.143 
#    0.000    2.143    0.000   12.857    0.000    1.000 
#    0.000    0.000    0.000    0.000    0.000    0.000 
#
# Total GULP energy -312141.523264 kJ/mol
# GULP energy per Si atom -5573.955773 kJ/mol
# Density = 2.233458 g / cm^3
# Si number density = 22.385528 Si / 1000 Ang^3
#
#
#
# Elastic Constant Matrix: (Units=GPa)
#
#
# Indices 1 2 3 4 5 6 
#
# 1 72.8812 39.5258 11.6641 0.0000 0.0000 0.0000
# 2 39.5258 139.1504 14.2553 0.0000 0.0000 0.0000
# 3 11.6641 14.2553 39.8736 0.0000 0.0000 0.0000
# 4 0.0000 0.0000 0.0000 15.2740 0.0000 0.0000
# 5 0.0000 0.0000 0.0000 0.0000 19.0285 0.0000
# 6 0.0000 0.0000 0.0000 0.0000 0.0000 64.4972
#
#
#
# Elastic Compliance Matrix: (Units=1/GPa)
#
#
# Indices 1 2 3 4 5 6 
#
# 1 0.016627 -0.004385 -0.003296 0.000000 0.000000 0.000000
# 2 -0.004385 0.008616 -0.001798 0.000000 0.000000 0.000000
# 3 -0.003296 -0.001798 0.026686 0.000000 0.000000 0.000000
# 4 0.000000 0.000000 0.000000 0.065471 0.000000 0.000000
# 5 0.000000 0.000000 0.000000 0.000000 0.052553 0.000000
# 6 0.000000 0.000000 0.000000 0.000000 0.000000 0.015505
#
#
# Mechanical properties :
#
#
# Convention : Reuss Voigt Hill
#
# Bulk Modulus (GPa) = 30.32932 42.53286 36.43109
# Shear Modulus (GPa) = 23.21207 32.19060 27.70134
#
# Velocity S-wave (km/s) = 3.22362 3.79622 3.52158
# Velocity P-wave (km/s) = 5.23772 6.18518 5.73106
#
# Compressibility (1/GPa) = 0.03297140
#
# Stress axis : x y z
#
# Youngs Moduli (GPa) = 60.14428 116.05984 37.47272
#
# Poissons Ratio (x) = 0.50894 0.12351
# Poissons Ratio (y) = 0.26374 0.06736
# Poissons Ratio (z) = 0.19824 0.20863
#
# Static dielectric constant tensor:
#      x y z
#    x 1.892530 0.000000 0.000000 
#    y 0.000000 1.890700 0.000000 
#    z 0.000000 0.000000 1.837220 
# 
# From -- ./inp_files/37325.got.cif
#   From: 2010.05.17/outbox.cif.g08.bks.cpg/sg52_19_cif.got.tgz:37325.got - 2010.06.03 12:15:38.
