data_PCOD9410298
_publ_section_title
;
Structure prediction by ZEFSAII (Michael W. Deem and Ramdas Pophale) SiO2 
 PCOD9410298
Probable space group: P N N A
;
_chemical_formula_sum "Si O2"
_cell_formula_units_Z 28
_cell_length_a 12.821907
_cell_length_b 11.645804
_cell_length_c 8.695326
_cell_angle_alpha 90.000000
_cell_angle_beta 90.000000
_cell_angle_gamma 90.000000
_cell_volume 1298.398389
_symmetry_space_group_name_H-M "P N N A"
_symmetry_group_IT_number 52
_symmetry_cell_setting 'orthorhombic'
loop_
_space_group_symop_operation_xyz
x,y,z
1/2-x,-y,z
x,1/2-y,1/2-z
1/2-x,1/2+y,1/2-z
-x,-y,-z
1/2+x,y,-z
-x,1/2+y,1/2+z
1/2+x,1/2-y,1/2+z
loop_
_atom_site_type_symbol
_atom_site_label
_atom_site_fract_x
_atom_site_fract_y
_atom_site_fract_z
Si Si1 0.250000 0.500000 0.581385
Si Si2 0.580839 0.551437 0.177635
Si Si3 0.064399 0.106872 0.073897
Si Si4 0.528765 0.819131 0.604397
O O1 0.328003 0.434321 0.697874
O O2 0.182598 0.418948 0.470907
O O3 0.474729 0.603662 0.251275
O O4 0.553594 0.416732 0.158019
O O5 0.601991 0.612270 0.015256
O O6 0.027960 0.220987 0.991502
O O7 0.000000 0.000000 0.000000
O O8 0.575317 0.750000 0.750000
#
# Coordination Sequence:
#
# PCOD9410298 Si02
#       4
#     4   8   8   8
#     4  10  20  40  66  98 130 172 236 268 330 402
#     4  10  23  41  67  92 134 180 214 278 334 389
#     4  10  20  40  64  92 127 171 216 272 330 387
#     4  11  20  41  66  90 130 178 218 263 335 396
#
# _framework density 21.565028999999999
#
# number of rings (size 3 to 8) (size 9 to 14) (size 15 to 20)
#    0.000    1.714    5.714    0.857    0.000    0.000 
#   20.571    5.714   12.571    0.000    0.000    0.000 
#    0.000    0.000    0.000    0.000    0.000    0.000 
#
# Total GULP energy -156118.761393 kJ/mol
# GULP energy per Si atom -5575.670050 kJ/mol
# Density = 2.151595 g / cm^3
# Si number density = 21.565029 Si / 1000 Ang^3
#
#
#
# Elastic Constant Matrix: (Units=GPa)
#
#
# Indices 1 2 3 4 5 6 
#
# 1 61.6709 15.3932 27.9408 0.0000 0.0000 0.0000
# 2 15.3932 117.8572 47.0603 0.0000 0.0000 0.0000
# 3 27.9408 47.0603 116.5979 0.0000 0.0000 0.0000
# 4 0.0000 0.0000 0.0000 -135.1314 0.0000 0.0000
# 5 0.0000 0.0000 0.0000 0.0000 22.2148 0.0000
# 6 0.0000 0.0000 0.0000 0.0000 0.0000 7.5650
#
#
#
# Elastic Compliance Matrix: (Units=1/GPa)
#
#
# Indices 1 2 3 4 5 6 
#
# 1 0.018247 -0.000760 -0.004066 0.000000 0.000000 0.000000
# 2 -0.000760 0.010147 -0.003913 0.000000 0.000000 0.000000
# 3 -0.004066 -0.003913 0.011130 0.000000 0.000000 0.000000
# 4 0.000000 0.000000 0.000000 -0.007400 0.000000 0.000000
# 5 0.000000 0.000000 0.000000 0.000000 0.045015 0.000000
# 6 0.000000 0.000000 0.000000 0.000000 0.000000 0.132187
#
#
# Mechanical properties :
#
#
# Convention : Reuss Voigt Hill
#
# Bulk Modulus (GPa) = 45.35972 52.99048 49.17510
# Shear Modulus (GPa) = 21.35361 -7.35488 6.99937
#
# Velocity S-wave (km/s) = 3.15015 -1.84877 1.80354
# Velocity P-wave (km/s) = 5.85755 4.47979 5.21437
#
# Compressibility (1/GPa) = 0.02204599
#
# Stress axis : x y z
#
# Youngs Moduli (GPa) = 54.80399 98.55494 89.84518
#
# Poissons Ratio (x) = 0.07487 0.36531
# Poissons Ratio (y) = 0.04163 0.35159
# Poissons Ratio (z) = 0.22283 0.38567
#
# Static dielectric constant tensor:
#      x y z
#    x 1.812950 0.000000 0.000000 
#    y 0.000000 1.787900 0.000000 
#    z 0.000000 0.000000 1.900980 
# 
# From -- ./inp_files/9460.got.cif
#   From: 2010.05.17/outbox.cif.g08.bks.cpg/sg52_5_cif.got.tgz:9460.got - 2010.06.03 12:15:38.
