data_PCOD9410594
_publ_section_title
;
Structure prediction by ZEFSAII (Michael W. Deem and Ramdas Pophale) SiO2 
 PCOD9410594
Probable space group: P N N A
;
_chemical_formula_sum "Si O2"
_cell_formula_units_Z 40
_cell_length_a 11.453884
_cell_length_b 17.626371
_cell_length_c 7.480733
_cell_angle_alpha 90.000000
_cell_angle_beta 90.000000
_cell_angle_gamma 90.000000
_cell_volume 1510.288243
_symmetry_space_group_name_H-M "P N N A"
_symmetry_group_IT_number 52
_symmetry_cell_setting 'orthorhombic'
loop_
_space_group_symop_operation_xyz
x,y,z
1/2-x,-y,z
x,1/2-y,1/2-z
1/2-x,1/2+y,1/2-z
-x,-y,-z
1/2+x,y,-z
-x,1/2+y,1/2+z
1/2+x,1/2-y,1/2+z
loop_
_atom_site_type_symbol
_atom_site_label
_atom_site_fract_x
_atom_site_fract_y
_atom_site_fract_z
Si Si1 0.123420 0.494120 0.100020
Si Si2 0.387482 0.106111 0.085923
Si Si3 0.385915 0.274901 0.958169
Si Si4 0.138802 0.224612 0.457225
Si Si5 0.862182 0.896710 0.954071
O O1 0.250000 0.500000 0.001838
O O2 0.121968 0.568713 0.223263
O O3 0.130923 0.422751 0.242668
O O4 0.000000 0.500000 0.000000
O O5 0.268191 0.079268 0.989505
O O6 0.381788 0.197079 0.073706
O O7 0.510279 0.078617 0.013005
O O8 0.392659 0.250000 0.750000
O O9 0.512590 0.311134 0.997171
O O10 0.259787 0.312677 0.984208
O O11 0.145457 0.250000 0.250000
O O12 0.136311 0.310485 0.532823
#
# Coordination Sequence:
#
# PCOD9410594 Si02
#       5
#     8   8   8   8   8
#     4  10  21  36  53  79 113 145 184 231 275 325
#     4   9  18  34  55  77 106 142 181 228 280 331
#     4   9  18  34  54  78 105 140 185 227 274 335
#     4   9  18  34  52  75 108 141 178 228 277 325
#     4   9  18  34  54  77 105 142 185 228 276 330
#
# _framework density 26.485011
#
# number of rings (size 3 to 8) (size 9 to 14) (size 15 to 20)
#    0.000    2.800    0.000    0.600    0.000    2.400 
#    0.000   24.000    0.000    0.000    0.000    0.000 
#    0.000    0.000    0.000    0.000    0.000    0.000 
#
# Total GULP energy -222705.753954 kJ/mol
# GULP energy per Si atom -5567.643849 kJ/mol
# Density = 2.642473 g / cm^3
# Si number density = 26.485011 Si / 1000 Ang^3
#
#
#
# Elastic Constant Matrix: (Units=GPa)
#
#
# Indices 1 2 3 4 5 6 
#
# 1 428.1600 10.4960 57.3190 0.0000 0.0000 0.0000
# 2 10.4960 86.6754 7.5250 0.0000 0.0000 0.0000
# 3 57.3190 7.5250 38.4877 0.0000 0.0000 0.0000
# 4 0.0000 0.0000 0.0000 31.8040 0.0000 0.0000
# 5 0.0000 0.0000 0.0000 0.0000 57.6902 0.0000
# 6 0.0000 0.0000 0.0000 0.0000 0.0000 51.7428
#
#
#
# Elastic Compliance Matrix: (Units=1/GPa)
#
#
# Indices 1 2 3 4 5 6 
#
# 1 0.002917 0.000024 -0.004349 0.000000 0.000000 0.000000
# 2 0.000024 0.011737 -0.002331 0.000000 0.000000 0.000000
# 3 -0.004349 -0.002331 0.032916 0.000000 0.000000 0.000000
# 4 0.000000 0.000000 0.000000 0.031443 0.000000 0.000000
# 5 0.000000 0.000000 0.000000 0.000000 0.017334 0.000000
# 6 0.000000 0.000000 0.000000 0.000000 0.000000 0.019326
#
#
# Mechanical properties :
#
#
# Convention : Reuss Voigt Hill
#
# Bulk Modulus (GPa) = 29.19069 78.22256 53.70663
# Shear Modulus (GPa) = 35.61163 60.11293 47.86228
#
# Velocity S-wave (km/s) = 3.67085 4.76930 4.25567
# Velocity P-wave (km/s) = 5.38631 7.74126 6.66856
#
# Compressibility (1/GPa) = 0.03425750
#
# Stress axis : x y z
#
# Youngs Moduli (GPa) = 342.78985 85.20269 30.38081
#
# Poissons Ratio (x) = -0.00207 0.13214
# Poissons Ratio (y) = -0.00834 0.07082
# Poissons Ratio (z) = 1.49091 0.19860
#
# Static dielectric constant tensor:
#      x y z
#    x 2.090260 0.000000 0.000000 
#    y 0.000000 -2.271620 0.000000 
#    z 0.000000 0.000000 2.169180 
# 
# From -- ./inp_files/1363.got.cif
#   From: 2010.05.17/outbox.cif.g08.bks.cpg/sg52_1_cif.got.tgz:1363.got - 2010.06.03 12:15:38.
