data_PCOD9410375
_publ_section_title
;
Structure prediction by ZEFSAII (Michael W. Deem and Ramdas Pophale) SiO2 
 PCOD9410375
Probable space group: P N N A
;
_chemical_formula_sum "Si O2"
_cell_formula_units_Z 44
_cell_length_a 15.530884
_cell_length_b 10.114466
_cell_length_c 14.243723
_cell_angle_alpha 90.000000
_cell_angle_beta 90.000000
_cell_angle_gamma 90.000000
_cell_volume 2237.497991
_symmetry_space_group_name_H-M "P N N A"
_symmetry_group_IT_number 52
_symmetry_cell_setting 'orthorhombic'
loop_
_space_group_symop_operation_xyz
x,y,z
1/2-x,-y,z
x,1/2-y,1/2-z
1/2-x,1/2+y,1/2-z
-x,-y,-z
1/2+x,y,-z
-x,1/2+y,1/2+z
1/2+x,1/2-y,1/2+z
loop_
_atom_site_type_symbol
_atom_site_label
_atom_site_fract_x
_atom_site_fract_y
_atom_site_fract_z
Si Si1 0.419221 0.936609 0.306535
Si Si2 0.995651 0.864338 0.170431
Si Si3 0.598323 0.828585 0.372845
Si Si4 0.764545 0.750000 0.750000
Si Si5 0.652823 0.962888 0.194216
Si Si6 0.631869 0.698226 0.916053
O O1 0.494506 0.850073 0.357128
O O2 0.331946 0.865575 0.275028
O O3 0.459072 0.007332 0.215256
O O4 0.394873 0.058516 0.372217
O O5 0.991020 0.750000 0.250000
O O6 0.052345 0.800799 0.089634
O O7 0.902531 0.919946 0.148699
O O8 0.636139 0.944189 0.305921
O O9 0.623281 0.680964 0.340755
O O10 0.641556 0.834070 0.474975
O O11 0.703212 0.757247 0.842941
O O12 0.750000 0.000000 0.176563
#
# Coordination Sequence:
#
# PCOD9410375 Si02
#       6
#     8   8   8   4   8   8
#     4  10  20  41  63  88 126 175 201 259 318 386
#     4   9  19  37  62  85 123 166 203 252 324 374
#     4  10  23  43  62  92 123 169 221 254 325 386
#     4  12  22  38  66  96 136 158 214 264 324 376
#     4  10  22  41  62  85 125 168 211 265 312 379
#     4  11  22  39  63  98 124 162 213 267 317 386
#
# _framework density 19.664822000000001
#
# number of rings (size 3 to 8) (size 9 to 14) (size 15 to 20)
#    0.000    1.818    2.727    3.273    2.545    2.182 
#    6.545    0.000    0.000    0.000    0.000    0.000 
#    0.000    0.000    0.000    0.000    0.000    0.000 
#
# Total GULP energy -244937.203762 kJ/mol
# GULP energy per Si atom -5566.754631 kJ/mol
# Density = 1.962006 g / cm^3
# Si number density = 19.664822 Si / 1000 Ang^3
#
#
#
# Elastic Constant Matrix: (Units=GPa)
#
#
# Indices 1 2 3 4 5 6 
#
# 1 142.2803 54.0522 25.9295 0.0000 0.0000 0.0000
# 2 54.0522 72.4502 18.4519 0.0000 0.0000 0.0000
# 3 25.9295 18.4519 70.1577 0.0000 0.0000 0.0000
# 4 0.0000 0.0000 0.0000 11.9643 0.0000 0.0000
# 5 0.0000 0.0000 0.0000 0.0000 -0.0949 0.0000
# 6 0.0000 0.0000 0.0000 0.0000 0.0000 -21.0505
#
#
#
# Elastic Compliance Matrix: (Units=1/GPa)
#
#
# Indices 1 2 3 4 5 6 
#
# 1 0.010031 -0.007009 -0.001864 0.000000 0.000000 0.000000
# 2 -0.007009 0.019691 -0.002588 0.000000 0.000000 0.000000
# 3 -0.001864 -0.002588 0.015623 0.000000 0.000000 0.000000
# 4 0.000000 0.000000 0.000000 0.083582 0.000000 0.000000
# 5 0.000000 0.000000 0.000000 0.000000-10.531936 0.000000
# 6 0.000000 0.000000 0.000000 0.000000 0.000000 -0.047505
#
#
# Mechanical properties :
#
#
# Convention : Reuss Voigt Hill
#
# Bulk Modulus (GPa) = 44.59798 53.52838 49.06318
# Shear Modulus (GPa) = -0.47984 10.59407 5.05711
#
# Velocity S-wave (km/s) = -0.49451 2.32358 1.60538
# Velocity P-wave (km/s) = 4.73310 5.87181 5.33294
#
# Compressibility (1/GPa) = 0.02242254
#
# Stress axis : x y z
#
# Youngs Moduli (GPa) = 99.69397 50.78515 64.00720
#
# Poissons Ratio (x) = 0.35594 0.11930
# Poissons Ratio (y) = 0.69874 0.16568
# Poissons Ratio (z) = 0.18582 0.13145
#
# Static dielectric constant tensor:
#      x y z
#    x 1.752050 0.000000 0.000000 
#    y 0.000000 1.706630 0.000000 
#    z 0.000000 0.000000 1.766810 
# 
# From -- ./inp_files/27950.got.cif
#   From: 2010.05.17/outbox.cif.g08.bks.cpg/sg52_14_cif.got.tgz:27950.got - 2010.06.03 12:15:38.
