data_PCOD9410791
_publ_section_title
;
Structure prediction by ZEFSAII (Michael W. Deem and Ramdas Pophale) SiO2 
 PCOD9410791
Probable space group: P N N A
;
_chemical_formula_sum "Si O2"
_cell_formula_units_Z 64
_cell_length_a 15.578947
_cell_length_b 24.559625
_cell_length_c 8.955246
_cell_angle_alpha 90.000000
_cell_angle_beta 90.000000
_cell_angle_gamma 90.000000
_cell_volume 3426.394399
_symmetry_space_group_name_H-M "P N N A"
_symmetry_group_IT_number 52
_symmetry_cell_setting 'orthorhombic'
loop_
_space_group_symop_operation_xyz
x,y,z
1/2-x,-y,z
x,1/2-y,1/2-z
1/2-x,1/2+y,1/2-z
-x,-y,-z
1/2+x,y,-z
-x,1/2+y,1/2+z
1/2+x,1/2-y,1/2+z
loop_
_atom_site_type_symbol
_atom_site_label
_atom_site_fract_x
_atom_site_fract_y
_atom_site_fract_z
Si Si1 0.009362 0.187414 0.929284
Si Si2 0.352365 0.502949 0.602516
Si Si3 0.854539 0.107767 0.927714
Si Si4 0.507905 0.313556 0.069475
Si Si5 0.595588 0.497179 0.064507
Si Si6 0.154947 0.385421 0.430100
Si Si7 0.349064 0.390417 0.071271
Si Si8 0.655879 0.115476 0.574597
O O1 0.924398 0.152995 0.969102
O O2 0.001041 0.250416 0.973257
O O3 0.017127 0.184358 0.749281
O O4 0.092147 0.159456 0.001927
O O5 0.250000 0.500000 0.636837
O O6 0.373950 0.448352 0.512405
O O7 0.402700 0.506958 0.757109
O O8 0.366953 0.556368 0.503356
O O9 0.756147 0.124623 0.961492
O O10 0.858256 0.098424 0.748942
O O11 0.423421 0.348255 0.028778
O O12 0.588700 0.342841 0.995236
O O13 0.500000 0.500000 0.000000
O O14 0.640770 0.552949 0.015087
O O15 0.640057 0.443865 0.996410
O O16 0.143710 0.388214 0.252323
O O17 0.254000 0.367802 0.045215
#
# Coordination Sequence:
#
# PCOD9410791 Si02
#       8
#     8   8   8   8   8   8   8   8
#     4  10  22  39  62  82 118 153 197 248 289 353
#     4  10  21  38  59  87 121 154 192 237 291 353
#     4   9  21  39  61  87 117 156 196 238 293 348
#     4  10  22  41  59  87 112 156 201 238 300 348
#     4  12  23  35  58  91 122 152 191 233 291 354
#     4  10  22  38  61  90 117 154 197 240 294 347
#     4  10  21  40  61  84 119 155 194 241 290 350
#     4  11  22  39  61  87 120 153 194 245 290 347
#
# _framework density 18.678528
#
# number of rings (size 3 to 8) (size 9 to 14) (size 15 to 20)
#    0.000    1.750    1.250    2.625    3.500    5.000 
#    0.000    2.500    0.000    0.000    0.000    0.000 
#    0.000    0.000    0.000    0.000    0.000    0.000 
#
# Total GULP energy -357675.999981 kJ/mol
# GULP energy per Si atom -5588.687500 kJ/mol
# Density = 1.863601 g / cm^3
# Si number density = 18.678528 Si / 1000 Ang^3
#
#
#
# Elastic Constant Matrix: (Units=GPa)
#
#
# Indices 1 2 3 4 5 6 
#
# 1 110.7309 66.4055 52.8571 0.0000 0.0000 0.0000
# 2 66.4055 135.5234 49.1778 0.0000 0.0000 0.0000
# 3 52.8571 49.1778 47.2818 0.0000 0.0000 0.0000
# 4 0.0000 0.0000 0.0000 29.4287 0.0000 0.0000
# 5 0.0000 0.0000 0.0000 0.0000 24.0501 0.0000
# 6 0.0000 0.0000 0.0000 0.0000 0.0000 -16.9697
#
#
#
# Elastic Compliance Matrix: (Units=1/GPa)
#
#
# Indices 1 2 3 4 5 6 
#
# 1 0.019963 -0.002704 -0.019504 0.000000 0.000000 0.000000
# 2 -0.002704 0.012218 -0.009685 0.000000 0.000000 0.000000
# 3 -0.019504 -0.009685 0.053028 0.000000 0.000000 0.000000
# 4 0.000000 0.000000 0.000000 0.033980 0.000000 0.000000
# 5 0.000000 0.000000 0.000000 0.000000 0.041580 0.000000
# 6 0.000000 0.000000 0.000000 0.000000 0.000000 -0.058928
#
#
# Mechanical properties :
#
#
# Convention : Reuss Voigt Hill
#
# Bulk Modulus (GPa) = 46.68223 70.04633 58.36428
# Shear Modulus (GPa) = 28.94038 15.64152 22.29095
#
# Velocity S-wave (km/s) = 3.94050 2.89694 3.45831
# Velocity P-wave (km/s) = 6.76388 6.98370 6.87467
#
# Compressibility (1/GPa) = 0.02142143
#
# Stress axis : x y z
#
# Youngs Moduli (GPa) = 50.09295 81.84412 18.85804
#
# Poissons Ratio (x) = 0.22131 0.36781
# Poissons Ratio (y) = 0.13545 0.18265
# Poissons Ratio (z) = 0.97703 0.79269
#
# Static dielectric constant tensor:
#      x y z
#    x 1.650880 0.000000 0.000000 
#    y 0.000000 1.614390 0.000000 
#    z 0.000000 0.000000 1.629650 
# 
# From -- ./inp_files/11005.got.cif
#   From: 2010.05.17/outbox.cif.g08.bks.cpg/sg52_6_cif.got.tgz:11005.got - 2010.06.03 12:15:38.
