data_PCOD9410267
_publ_section_title
;
Structure prediction by ZEFSAII (Michael W. Deem and Ramdas Pophale) SiO2 
 PCOD9410267
Probable space group: P N N A
;
_chemical_formula_sum "Si O2"
_cell_formula_units_Z 40
_cell_length_a 9.982044
_cell_length_b 7.735041
_cell_length_c 24.974054
_cell_angle_alpha 90.000000
_cell_angle_beta 90.000000
_cell_angle_gamma 90.000000
_cell_volume 1928.284660
_symmetry_space_group_name_H-M "P N N A"
_symmetry_group_IT_number 52
_symmetry_cell_setting 'orthorhombic'
loop_
_space_group_symop_operation_xyz
x,y,z
1/2-x,-y,z
x,1/2-y,1/2-z
1/2-x,1/2+y,1/2-z
-x,-y,-z
1/2+x,y,-z
-x,1/2+y,1/2+z
1/2+x,1/2-y,1/2+z
loop_
_atom_site_type_symbol
_atom_site_label
_atom_site_fract_x
_atom_site_fract_y
_atom_site_fract_z
Si Si1 0.511098 0.284480 0.878520
Si Si2 0.903764 0.057721 0.275457
Si Si3 0.294341 0.202215 0.090989
Si Si4 0.877713 0.122028 0.484210
Si Si5 0.595568 0.949256 0.812296
O O1 0.456479 0.420972 0.835806
O O2 0.662211 0.316671 0.898791
O O3 0.416409 0.278291 0.930011
O O4 0.528564 0.103810 0.847061
O O5 0.910950 0.250000 0.250000
O O6 0.750000 0.000000 0.273804
O O7 0.002438 0.940519 0.239494
O O8 0.385305 0.203785 0.144532
O O9 0.250000 0.000000 0.086586
O O10 0.356553 0.255866 0.035207
O O11 0.750000 0.000000 0.475348
O O12 0.000000 0.000000 0.500000
O O13 0.750000 0.000000 0.796642
#
# Coordination Sequence:
#
# PCOD9410267 Si02
#       5
#     8   8   8   8   8
#     4   9  19  39  62  82 124 160 200 250 305 356
#     4  10  20  40  60  87 124 153 198 255 309 364
#     4   9  20  41  65  89 118 162 217 251 300 374
#     4  12  23  40  59  92 128 161 201 253 313 369
#     4   8  18  39  64  86 113 156 212 252 293 358
#
# _framework density 20.743825999999999
#
# number of rings (size 3 to 8) (size 9 to 14) (size 15 to 20)
#    0.000    2.800    2.000    0.600    0.000    3.200 
#   14.400    4.000    0.000    0.000    0.000    0.000 
#    0.000    0.000    0.000    0.000    0.000    0.000 
#
# Total GULP energy -223101.626275 kJ/mol
# GULP energy per Si atom -5577.540657 kJ/mol
# Density = 2.069661 g / cm^3
# Si number density = 20.743826 Si / 1000 Ang^3
#
#
#
# Elastic Constant Matrix: (Units=GPa)
#
#
# Indices 1 2 3 4 5 6 
#
# 1 142.7220 39.0152 91.4290 0.0000 0.0000 0.0000
# 2 39.0152 48.5045 27.3118 0.0000 0.0000 0.0000
# 3 91.4290 27.3118 183.4962 0.0000 0.0000 0.0000
# 4 0.0000 0.0000 0.0000 5.6426 0.0000 0.0000
# 5 0.0000 0.0000 0.0000 0.0000-1064.6172 0.0000
# 6 0.0000 0.0000 0.0000 0.0000 0.0000 32.3589
#
#
#
# Elastic Compliance Matrix: (Units=1/GPa)
#
#
# Indices 1 2 3 4 5 6 
#
# 1 0.012101 -0.006918 -0.005000 0.000000 0.000000 0.000000
# 2 -0.006918 0.026458 -0.000491 0.000000 0.000000 0.000000
# 3 -0.005000 -0.000491 0.008014 0.000000 0.000000 0.000000
# 4 0.000000 0.000000 0.000000 0.177224 0.000000 0.000000
# 5 0.000000 0.000000 0.000000 0.000000 -0.000939 0.000000
# 6 0.000000 0.000000 0.000000 0.000000 0.000000 0.030903
#
#
# Mechanical properties :
#
#
# Convention : Reuss Voigt Hill
#
# Bulk Modulus (GPa) = 45.96658 76.69275 61.32967
# Shear Modulus (GPa) = 17.49299 -190.85872 -86.68286
#
# Velocity S-wave (km/s) = 2.90709 -9.60246 -6.47132
# Velocity P-wave (km/s) = 5.78580 9.26776 5.11937
#
# Compressibility (1/GPa) = 0.02175493
#
# Stress axis : x y z
#
# Youngs Moduli (GPa) = 82.64094 37.79604 124.78391
#
# Poissons Ratio (x) = 0.26148 0.62386
# Poissons Ratio (y) = 0.57172 0.06127
# Poissons Ratio (z) = 0.41317 0.01856
#
# Static dielectric constant tensor:
#      x y z
#    x 1.736730 0.000000 0.000000 
#    y 0.000000 1.773160 0.000000 
#    z 0.000000 0.000000 1.776230 
# 
# From -- ./inp_files/42115.got.cif
#   From: 2010.05.17/outbox.cif.g08.bks.cpg/sg52_22_cif.got.tgz:42115.got - 2010.06.03 12:15:38.
