data_PCOD9410342
_publ_section_title
;
Structure prediction by ZEFSAII (Michael W. Deem and Ramdas Pophale) SiO2 
 PCOD9410342
Probable space group: P N N A
;
_chemical_formula_sum "Si O2"
_cell_formula_units_Z 32
_cell_length_a 21.877956
_cell_length_b 7.161326
_cell_length_c 9.542774
_cell_angle_alpha 90.000000
_cell_angle_beta 90.000000
_cell_angle_gamma 90.000000
_cell_volume 1495.115788
_symmetry_space_group_name_H-M "P N N A"
_symmetry_group_IT_number 52
_symmetry_cell_setting 'orthorhombic'
loop_
_space_group_symop_operation_xyz
x,y,z
1/2-x,-y,z
x,1/2-y,1/2-z
1/2-x,1/2+y,1/2-z
-x,-y,-z
1/2+x,y,-z
-x,1/2+y,1/2+z
1/2+x,1/2-y,1/2+z
loop_
_atom_site_type_symbol
_atom_site_label
_atom_site_fract_x
_atom_site_fract_y
_atom_site_fract_z
Si Si1 0.909008 0.250000 0.250000
Si Si2 0.356451 0.024935 0.231978
Si Si3 0.250000 0.500000 0.065252
Si Si4 0.008197 0.955342 0.329606
Si Si5 0.197571 0.877039 0.946051
O O1 0.863452 0.188539 0.128940
O O2 0.952838 0.424000 0.227446
O O3 0.354961 0.250000 0.250000
O O4 0.307527 0.944444 0.338995
O O5 0.425300 0.972478 0.275637
O O6 0.327863 0.003616 0.077991
O O7 0.229900 0.682811 0.983855
O O8 0.003712 0.750000 0.250000
O O9 0.000000 0.000000 0.500000
O O10 0.250000 0.000000 0.871717
#
# Coordination Sequence:
#
# PCOD9410342 Si02
#       5
#     4   8   4   8   8
#     4  12  28  44  66 106 142 190 244 296 384 462
#     4   9  19  39  68 100 132 176 235 288 356 438
#     4  10  20  40  68  98 134 170 230 294 360 420
#     4  11  25  47  73 105 149 194 242 310 375 456
#     4  11  25  42  65  99 138 182 239 301 363 447
#
# _framework density 21.403022
#
# number of rings (size 3 to 8) (size 9 to 14) (size 15 to 20)
#    0.000    1.500    1.250    4.500    1.750   10.000 
#    0.000    0.000    0.000    0.000    0.000    0.000 
#    0.000    0.000    0.000    0.000    0.000    0.000 
#
# Total GULP energy -178244.131836 kJ/mol
# GULP energy per Si atom -5570.129120 kJ/mol
# Density = 2.135431 g / cm^3
# Si number density = 21.403022 Si / 1000 Ang^3
#
#
#
# Elastic Constant Matrix: (Units=GPa)
#
#
# Indices 1 2 3 4 5 6 
#
# 1 220.4472 83.6942 51.8698 0.0000 0.0000 0.0000
# 2 83.6942 125.7586 57.7927 0.0000 0.0000 0.0000
# 3 51.8698 57.7927 57.8803 0.0000 0.0000 0.0000
# 4 0.0000 0.0000 0.0000 23.7521 0.0000 0.0000
# 5 0.0000 0.0000 0.0000 0.0000 49.2511 0.0000
# 6 0.0000 0.0000 0.0000 0.0000 0.0000 52.4093
#
#
#
# Elastic Compliance Matrix: (Units=1/GPa)
#
#
# Indices 1 2 3 4 5 6 
#
# 1 0.006289 -0.002948 -0.002692 0.000000 0.000000 0.000000
# 2 -0.002948 0.016076 -0.013410 0.000000 0.000000 0.000000
# 3 -0.002692 -0.013410 0.033079 0.000000 0.000000 0.000000
# 4 0.000000 0.000000 0.000000 0.042102 0.000000 0.000000
# 5 0.000000 0.000000 0.000000 0.000000 0.020304 0.000000
# 6 0.000000 0.000000 0.000000 0.000000 0.000000 0.019081
#
#
# Mechanical properties :
#
#
# Convention : Reuss Voigt Hill
#
# Bulk Modulus (GPa) = 57.65691 87.86662 72.76176
# Shear Modulus (GPa) = 27.65279 39.13111 33.39195
#
# Velocity S-wave (km/s) = 3.59835 4.28050 3.95416
# Velocity P-wave (km/s) = 6.65292 8.09770 7.41060
#
# Compressibility (1/GPa) = 0.01734397
#
# Stress axis : x y z
#
# Youngs Moduli (GPa) = 159.00790 62.20263 30.23022
#
# Poissons Ratio (x) = 0.18339 0.08138
# Poissons Ratio (y) = 0.46879 0.40539
# Poissons Ratio (z) = 0.42808 0.83414
#
# Static dielectric constant tensor:
#      x y z
#    x 1.830150 0.000000 0.000000 
#    y 0.000000 1.782180 0.000000 
#    z 0.000000 0.000000 1.935110 
# 
# From -- ./inp_files/12861.got.cif
#   From: 2010.05.17/outbox.cif.g08.bks.cpg/sg52_7_cif.got.tgz:12861.got - 2010.06.03 12:15:38.
