data_PCOD9410078
_publ_section_title
;
Structure prediction by ZEFSAII (Michael W. Deem and Ramdas Pophale) SiO2 
 PCOD9410078
Probable space group: P N N A
;
_chemical_formula_sum "Si O2"
_cell_formula_units_Z 40
_cell_length_a 7.962235
_cell_length_b 18.404685
_cell_length_c 10.748101
_cell_angle_alpha 90.000000
_cell_angle_beta 90.000000
_cell_angle_gamma 90.000000
_cell_volume 1575.052807
_symmetry_space_group_name_H-M "P N N A"
_symmetry_group_IT_number 52
_symmetry_cell_setting 'orthorhombic'
loop_
_space_group_symop_operation_xyz
x,y,z
1/2-x,-y,z
x,1/2-y,1/2-z
1/2-x,1/2+y,1/2-z
-x,-y,-z
1/2+x,y,-z
-x,1/2+y,1/2+z
1/2+x,1/2-y,1/2+z
loop_
_atom_site_type_symbol
_atom_site_label
_atom_site_fract_x
_atom_site_fract_y
_atom_site_fract_z
Si Si1 0.601453 0.300480 0.364135
Si Si2 0.585355 0.052537 0.238070
Si Si3 0.995773 0.798393 0.866634
Si Si4 0.278214 0.086975 0.533462
Si Si5 0.107184 0.414123 0.198375
O O1 0.544304 0.250000 0.250000
O O2 0.541138 0.384496 0.357922
O O3 0.552180 0.270347 0.498576
O O4 0.803673 0.305466 0.360057
O O5 0.639930 0.099364 0.359801
O O6 0.750000 0.000000 0.209336
O O7 0.434814 0.998071 0.270028
O O8 0.943072 0.750000 0.750000
O O9 0.908287 0.873728 0.828698
O O10 0.448308 0.103512 0.605798
O O11 0.252750 0.113437 0.393890
O O12 0.250000 0.000000 0.516083
#
# Coordination Sequence:
#
# PCOD9410078 Si02
#       5
#     8   8   8   8   8
#     4  11  25  48  67  93 133 175 209 268 329 386
#     4   9  17  38  65  93 124 174 206 260 321 372
#     4  11  26  45  66  94 129 170 219 264 327 385
#     4   9  17  34  60  96 130 164 204 259 325 368
#     4  10  20  38  62  99 129 168 214 271 311 384
#
# _framework density 25.395970999999999
#
# number of rings (size 3 to 8) (size 9 to 14) (size 15 to 20)
#    0.000    2.400    4.000    2.400    2.800    1.600 
#    7.200    0.000    0.000    0.000    0.000    0.000 
#    0.000    0.000    0.000    0.000    0.000    0.000 
#
# Total GULP energy -223364.499774 kJ/mol
# GULP energy per Si atom -5584.112494 kJ/mol
# Density = 2.533817 g / cm^3
# Si number density = 25.395971 Si / 1000 Ang^3
#
#
#
# Elastic Constant Matrix: (Units=GPa)
#
#
# Indices 1 2 3 4 5 6 
#
# 1 56.7400 8.9511 6.5554 0.0000 0.0000 0.0000
# 2 8.9511 94.4992 52.1248 0.0000 0.0000 0.0000
# 3 6.5554 52.1248 160.1303 0.0000 0.0000 0.0000
# 4 0.0000 0.0000 0.0000 40.6009 0.0000 0.0000
# 5 0.0000 0.0000 0.0000 0.0000 34.5505 0.0000
# 6 0.0000 0.0000 0.0000 0.0000 0.0000 13.3024
#
#
#
# Elastic Compliance Matrix: (Units=1/GPa)
#
#
# Indices 1 2 3 4 5 6 
#
# 1 0.017898 -0.001574 -0.000220 0.000000 0.000000 0.000000
# 2 -0.001574 0.013036 -0.004179 0.000000 0.000000 0.000000
# 3 -0.000220 -0.004179 0.007614 0.000000 0.000000 0.000000
# 4 0.000000 0.000000 0.000000 0.024630 0.000000 0.000000
# 5 0.000000 0.000000 0.000000 0.000000 0.028943 0.000000
# 6 0.000000 0.000000 0.000000 0.000000 0.000000 0.075174
#
#
# Mechanical properties :
#
#
# Convention : Reuss Voigt Hill
#
# Bulk Modulus (GPa) = 37.59102 49.62579 43.60840
# Shear Modulus (GPa) = 26.58021 33.93997 30.26009
#
# Velocity S-wave (km/s) = 3.23868 3.65969 3.45560
# Velocity P-wave (km/s) = 5.36838 6.11891 5.75589
#
# Compressibility (1/GPa) = 0.02660210
#
# Stress axis : x y z
#
# Youngs Moduli (GPa) = 55.87219 76.70881 131.33189
#
# Poissons Ratio (x) = 0.12072 0.02895
# Poissons Ratio (y) = 0.08793 0.54885
# Poissons Ratio (z) = 0.01232 0.32057
#
# Static dielectric constant tensor:
#      x y z
#    x 2.005210 0.000000 0.000000 
#    y 0.000000 2.182190 0.000000 
#    z 0.000000 0.000000 2.043920 
# 
# From -- ./inp_files/8705.got.cif
#   From: 2010.05.17/outbox.cif.g08.bks.cpg/sg52_5_cif.got.tgz:8705.got - 2010.06.03 12:15:38.
