data_PCOD9410327
_publ_section_title
;
Structure prediction by ZEFSAII (Michael W. Deem and Ramdas Pophale) SiO2 
 PCOD9410327
Probable space group: P N N A
;
_chemical_formula_sum "Si O2"
_cell_formula_units_Z 28
_cell_length_a 13.554875
_cell_length_b 17.209746
_cell_length_c 5.318275
_cell_angle_alpha 90.000000
_cell_angle_beta 90.000000
_cell_angle_gamma 90.000000
_cell_volume 1240.625684
_symmetry_space_group_name_H-M "P N N A"
_symmetry_group_IT_number 52
_symmetry_cell_setting 'orthorhombic'
loop_
_space_group_symop_operation_xyz
x,y,z
1/2-x,-y,z
x,1/2-y,1/2-z
1/2-x,1/2+y,1/2-z
-x,-y,-z
1/2+x,y,-z
-x,1/2+y,1/2+z
1/2+x,1/2-y,1/2+z
loop_
_atom_site_type_symbol
_atom_site_label
_atom_site_fract_x
_atom_site_fract_y
_atom_site_fract_z
Si Si1 0.668578 0.832028 0.105461
Si Si2 0.507156 0.948967 0.252454
Si Si3 0.629543 0.184080 0.909927
Si Si4 0.041377 0.750000 0.250000
O O1 0.654892 0.750000 0.250000
O O2 0.607556 0.899212 0.240202
O O3 0.785054 0.847324 0.090797
O O4 0.616221 0.819386 0.830594
O O5 0.418978 0.886239 0.239258
O O6 0.500000 0.000000 0.500000
O O7 0.500000 0.000000 0.000000
O O8 0.683366 0.250000 0.750000
O O9 0.539781 0.232735 0.033223
#
# Coordination Sequence:
#
# PCOD9410327 Si02
#       4
#     8   8   8   4
#     4  11  24  43  77 106 140 191 252 315 368 441
#     4  11  28  47  72 104 157 203 236 300 379 458
#     4  11  24  43  77 106 140 191 252 315 368 441
#     4  10  20  40  68 106 134 176 236 306 376 418
#
# _framework density 22.569255999999999
#
# number of rings (size 3 to 8) (size 9 to 14) (size 15 to 20)
#    0.000    1.143    2.857    3.429   16.000    1.143 
#    0.000    2.857    0.000    0.000    0.000    0.000 
#    0.000    0.000    0.000    0.000    0.000    0.000 
#
# Total GULP energy -156100.735087 kJ/mol
# GULP energy per Si atom -5575.026253 kJ/mol
# Density = 2.251789 g / cm^3
# Si number density = 22.569256 Si / 1000 Ang^3
#
#
#
# Elastic Constant Matrix: (Units=GPa)
#
#
# Indices 1 2 3 4 5 6 
#
# 1 155.5492 48.8655 36.7567 0.0000 0.0000 0.0000
# 2 48.8655 146.9498 81.7659 0.0000 0.0000 0.0000
# 3 36.7567 81.7659 126.2107 0.0000 0.0000 0.0000
# 4 0.0000 0.0000 0.0000 54.2627 0.0000 0.0000
# 5 0.0000 0.0000 0.0000 0.0000 12.4258 0.0000
# 6 0.0000 0.0000 0.0000 0.0000 0.0000 22.3525
#
#
#
# Elastic Compliance Matrix: (Units=1/GPa)
#
#
# Indices 1 2 3 4 5 6 
#
# 1 0.007238 -0.001929 -0.000858 0.000000 0.000000 0.000000
# 2 -0.001929 0.011155 -0.006665 0.000000 0.000000 0.000000
# 3 -0.000858 -0.006665 0.012491 0.000000 0.000000 0.000000
# 4 0.000000 0.000000 0.000000 0.018429 0.000000 0.000000
# 5 0.000000 0.000000 0.000000 0.000000 0.080478 0.000000
# 6 0.000000 0.000000 0.000000 0.000000 0.000000 0.044738
#
#
# Mechanical properties :
#
#
# Convention : Reuss Voigt Hill
#
# Bulk Modulus (GPa) = 83.47729 84.83180 84.15454
# Shear Modulus (GPa) = 25.32595 35.22963 30.27779
#
# Velocity S-wave (km/s) = 3.35348 3.95518 3.66669
# Velocity P-wave (km/s) = 7.21539 7.65028 7.43602
#
# Compressibility (1/GPa) = 0.01197931
#
# Stress axis : x y z
#
# Youngs Moduli (GPa) = 138.16595 89.64443 80.05742
#
# Poissons Ratio (x) = 0.17296 0.06868
# Poissons Ratio (y) = 0.26658 0.53358
# Poissons Ratio (z) = 0.11853 0.59748
#
# Static dielectric constant tensor:
#      x y z
#    x 1.848650 0.000000 0.000000 
#    y 0.000000 1.826780 0.000000 
#    z 0.000000 0.000000 1.962560 
# 
# From -- ./inp_files/1817.got.cif
#   From: 2010.05.17/outbox.cif.g08.bks.cpg/sg52_1_cif.got.tgz:1817.got - 2010.06.03 12:15:38.
