data_PCOD9410272
_publ_section_title
;
Structure prediction by ZEFSAII (Michael W. Deem and Ramdas Pophale) SiO2 
 PCOD9410272
Probable space group: P N N A
;
_chemical_formula_sum "Si O2"
_cell_formula_units_Z 56
_cell_length_a 5.241418
_cell_length_b 19.567791
_cell_length_c 23.647253
_cell_angle_alpha 90.000000
_cell_angle_beta 90.000000
_cell_angle_gamma 90.000000
_cell_volume 2425.332547
_symmetry_space_group_name_H-M "P N N A"
_symmetry_group_IT_number 52
_symmetry_cell_setting 'orthorhombic'
loop_
_space_group_symop_operation_xyz
x,y,z
1/2-x,-y,z
x,1/2-y,1/2-z
1/2-x,1/2+y,1/2-z
-x,-y,-z
1/2+x,y,-z
-x,1/2+y,1/2+z
1/2+x,1/2-y,1/2+z
loop_
_atom_site_type_symbol
_atom_site_label
_atom_site_fract_x
_atom_site_fract_y
_atom_site_fract_z
Si Si1 0.011787 0.821415 0.252216
Si Si2 0.007963 0.958219 0.807863
Si Si3 0.795726 0.336176 0.362352
Si Si4 0.480800 0.150180 0.028497
Si Si5 0.370467 0.571170 0.187842
Si Si6 0.192823 0.816702 0.637745
Si Si7 0.527738 0.684430 0.968596
O O1 0.167931 0.750000 0.250000
O O2 0.892351 0.834048 0.191561
O O3 0.792968 0.808374 0.298524
O O4 0.164128 0.883404 0.278781
O O5 0.988646 0.887624 0.841708
O O6 0.055054 0.945430 0.740848
O O7 0.250000 0.000000 0.829896
O O8 0.750000 0.000000 0.812631
O O9 0.626079 0.363992 0.413413
O O10 0.899754 0.260168 0.377600
O O11 0.462351 0.233031 0.027239
O O12 0.191625 0.126535 0.017925
O O13 0.250000 0.500000 0.167068
O O14 0.500031 0.620182 0.141846
O O15 0.421734 0.831805 0.593894
O O16 0.805374 0.660268 0.988262
#
# Coordination Sequence:
#
# PCOD9410272 Si02
#       7
#     8   8   8   8   8   8   8
#     4  10  22  37  59  94 127 158 203 258 313 367
#     4  11  24  40  60  87 124 169 207 244 307 381
#     4  10  20  40  61  88 125 162 202 261 312 366
#     4   9  19  35  57  87 117 157 205 251 303 360
#     4  11  24  37  59  85 129 169 204 247 309 381
#     4  10  22  37  60  92 124 158 207 258 316 359
#     4   9  19  36  58  85 120 157 202 252 303 362
#
# _framework density 23.089618000000002
#
# number of rings (size 3 to 8) (size 9 to 14) (size 15 to 20)
#    0.000    2.000    1.429    1.714    4.000    2.286 
#    5.143    0.000    0.000    3.429    0.000    0.000 
#    0.000    0.000    0.000    0.000    0.000    0.000 
#
# Total GULP energy -312865.744822 kJ/mol
# GULP energy per Si atom -5586.888300 kJ/mol
# Density = 2.303707 g / cm^3
# Si number density = 23.089618 Si / 1000 Ang^3
#
#
#
# Elastic Constant Matrix: (Units=GPa)
#
#
# Indices 1 2 3 4 5 6 
#
# 1 69.8548 26.4609 -3.6660 0.0000 0.0000 0.0000
# 2 26.4609 91.1357 -11.3259 0.0000 0.0000 0.0000
# 3 -3.6660 -11.3259 76.1564 0.0000 0.0000 0.0000
# 4 0.0000 0.0000 0.0000 11.7587 0.0000 0.0000
# 5 0.0000 0.0000 0.0000 0.0000 21.5963 0.0000
# 6 0.0000 0.0000 0.0000 0.0000 0.0000 29.8877
#
#
#
# Elastic Compliance Matrix: (Units=1/GPa)
#
#
# Indices 1 2 3 4 5 6 
#
# 1 0.016085 -0.004660 0.000081 0.000000 0.000000 0.000000
# 2 -0.004660 0.012529 0.001639 0.000000 0.000000 0.000000
# 3 0.000081 0.001639 0.013379 0.000000 0.000000 0.000000
# 4 0.000000 0.000000 0.000000 0.085044 0.000000 0.000000
# 5 0.000000 0.000000 0.000000 0.000000 0.046304 0.000000
# 6 0.000000 0.000000 0.000000 0.000000 0.000000 0.033459
#
#
# Mechanical properties :
#
#
# Convention : Reuss Voigt Hill
#
# Bulk Modulus (GPa) = 27.69071 28.89832 28.29452
# Shear Modulus (GPa) = 22.25022 27.69372 24.97197
#
# Velocity S-wave (km/s) = 3.10763 3.46699 3.29222
# Velocity P-wave (km/s) = 4.98951 5.34506 5.17034
#
# Compressibility (1/GPa) = 0.03611319
#
# Stress axis : x y z
#
# Youngs Moduli (GPa) = 62.17002 79.81238 74.74658
#
# Poissons Ratio (x) = 0.37193 -0.00607
# Poissons Ratio (y) = 0.28972 -0.12251
# Poissons Ratio (z) = -0.00505 -0.13081
#
# Static dielectric constant tensor:
#      x y z
#    x 1.903100 0.000000 0.000000 
#    y 0.000000 1.943480 0.000000 
#    z 0.000000 0.000000 1.886610 
# 
# From -- ./inp_files/38850.got.cif
#   From: 2010.05.17/outbox.cif.g08.bks.cpg/sg52_20_cif.got.tgz:38850.got - 2010.06.03 12:15:38.
