data_PCOD9410654
_publ_section_title
;
Structure prediction by ZEFSAII (Michael W. Deem and Ramdas Pophale) SiO2 
 PCOD9410654
Probable space group: P N N A
;
_chemical_formula_sum "Si O2"
_cell_formula_units_Z 60
_cell_length_a 27.423523
_cell_length_b 10.554401
_cell_length_c 9.411300
_cell_angle_alpha 90.000000
_cell_angle_beta 90.000000
_cell_angle_gamma 90.000000
_cell_volume 2723.995930
_symmetry_space_group_name_H-M "P N N A"
_symmetry_group_IT_number 52
_symmetry_cell_setting 'orthorhombic'
loop_
_space_group_symop_operation_xyz
x,y,z
1/2-x,-y,z
x,1/2-y,1/2-z
1/2-x,1/2+y,1/2-z
-x,-y,-z
1/2+x,y,-z
-x,1/2+y,1/2+z
1/2+x,1/2-y,1/2+z
loop_
_atom_site_type_symbol
_atom_site_label
_atom_site_fract_x
_atom_site_fract_y
_atom_site_fract_z
Si Si1 0.881789 0.562625 0.700115
Si Si2 0.418565 0.750000 0.750000
Si Si3 0.518046 0.474664 0.799054
Si Si4 0.825448 0.054246 0.025807
Si Si5 0.357295 0.815647 0.481628
Si Si6 0.999259 0.725432 0.032370
Si Si7 0.426426 0.128337 0.846271
Si Si8 0.766274 0.797335 0.090073
O O1 0.938766 0.531641 0.686662
O O2 0.844387 0.463561 0.633967
O O3 0.872787 0.688135 0.604890
O O4 0.871261 0.578451 0.867476
O O5 0.382318 0.821736 0.638097
O O6 0.458299 0.791112 0.871202
O O7 0.521730 0.606784 0.881381
O O8 0.463397 0.458853 0.742185
O O9 0.524352 0.350021 0.899100
O O10 0.875847 0.066537 0.111175
O O11 0.787962 0.169368 0.039705
O O12 0.796962 0.928563 0.077228
O O13 0.299287 0.802073 0.503862
O O14 0.040574 0.817590 0.974738
O O15 0.415060 0.250000 0.750000
O O16 0.763736 0.750000 0.250000
#
# Coordination Sequence:
#
# PCOD9410654 Si02
#       8
#     8   4   8   8   8   8   8   8
#     4  10  21  39  60  92 130 171 212 267 331 413
#     4  12  20  34  60 100 124 170 224 280 320 382
#     4  10  21  38  58  87 134 180 222 263 322 412
#     4  10  23  40  69  94 131 177 214 276 355 409
#     4  10  21  36  66  93 124 164 221 282 330 375
#     4  10  23  35  56  93 136 174 224 268 325 403
#     4  10  22  41  63  94 139 183 217 277 346 410
#     4  10  21  42  70 100 124 161 230 292 332 399
#
# _framework density 22.026464000000001
#
# number of rings (size 3 to 8) (size 9 to 14) (size 15 to 20)
#    0.000    1.867    2.000    1.200    9.333    0.533 
#    2.400    0.000   20.533    0.000    0.000    0.000 
#    0.000    0.000    0.000    0.000    0.000    0.000 
#
# Total GULP energy -334809.437273 kJ/mol
# GULP energy per Si atom -5580.157288 kJ/mol
# Density = 2.197633 g / cm^3
# Si number density = 22.026464 Si / 1000 Ang^3
#
#
#
# Elastic Constant Matrix: (Units=GPa)
#
#
# Indices 1 2 3 4 5 6 
#
# 1 133.0507 -3.1489 63.0472 0.0000 0.0000 0.0000
# 2 -3.1489 23.0956 28.5180 0.0000 0.0000 0.0000
# 3 63.0472 28.5180 120.3485 0.0000 0.0000 0.0000
# 4 0.0000 0.0000 0.0000 32.6345 0.0000 0.0000
# 5 0.0000 0.0000 0.0000 0.0000 -12.9682 0.0000
# 6 0.0000 0.0000 0.0000 0.0000 0.0000 4.6946
#
#
#
# Elastic Compliance Matrix: (Units=1/GPa)
#
#
# Indices 1 2 3 4 5 6 
#
# 1 0.012501 0.013840 -0.009828 0.000000 0.000000 0.000000
# 2 0.013840 0.076531 -0.025386 0.000000 0.000000 0.000000
# 3 -0.009828 -0.025386 0.019473 0.000000 0.000000 0.000000
# 4 0.000000 0.000000 0.000000 0.030642 0.000000 0.000000
# 5 0.000000 0.000000 0.000000 0.000000 -0.077112 0.000000
# 6 0.000000 0.000000 0.000000 0.000000 0.000000 0.213009
#
#
# Mechanical properties :
#
#
# Convention : Reuss Voigt Hill
#
# Bulk Modulus (GPa) = 15.20727 50.36973 32.78850
# Shear Modulus (GPa) = 14.71840 17.41076 16.06458
#
# Velocity S-wave (km/s) = 2.58779 2.81454 2.70354
# Velocity P-wave (km/s) = 3.98095 5.78616 4.96627
#
# Compressibility (1/GPa) = 0.06575802
#
# Stress axis : x y z
#
# Youngs Moduli (GPa) = 79.99494 13.06661 51.35193
#
# Poissons Ratio (x) = -0.18085 0.50471
# Poissons Ratio (y) = -1.10716 1.30360
# Poissons Ratio (z) = 0.78623 0.33170
#
# Static dielectric constant tensor:
#      x y z
#    x 1.810730 0.000000 0.000000 
#    y 0.000000 1.881220 0.000000 
#    z 0.000000 0.000000 1.850690 
# 
# From -- ./inp_files/15096.got.cif
#   From: 2010.05.17/outbox.cif.g08.bks.cpg/sg52_8_cif.got.tgz:15096.got - 2010.06.03 12:15:38.
