data_PCOD9410152
_publ_section_title
;
Structure prediction by ZEFSAII (Michael W. Deem and Ramdas Pophale) SiO2 
 PCOD9410152
Probable space group: P N N A
;
_chemical_formula_sum "Si O2"
_cell_formula_units_Z 48
_cell_length_a 14.996504
_cell_length_b 8.773895
_cell_length_c 16.137385
_cell_angle_alpha 90.000000
_cell_angle_beta 90.000000
_cell_angle_gamma 90.000000
_cell_volume 2123.320833
_symmetry_space_group_name_H-M "P N N A"
_symmetry_group_IT_number 52
_symmetry_cell_setting 'orthorhombic'
loop_
_space_group_symop_operation_xyz
x,y,z
1/2-x,-y,z
x,1/2-y,1/2-z
1/2-x,1/2+y,1/2-z
-x,-y,-z
1/2+x,y,-z
-x,1/2+y,1/2+z
1/2+x,1/2-y,1/2+z
loop_
_atom_site_type_symbol
_atom_site_label
_atom_site_fract_x
_atom_site_fract_y
_atom_site_fract_z
Si Si1 0.075841 0.179964 0.660916
Si Si2 0.889967 0.777070 0.845542
Si Si3 0.886874 0.904337 0.011185
Si Si4 0.687316 0.769566 0.006379
Si Si5 0.884826 0.436092 0.861644
Si Si6 0.250000 0.500000 0.878004
Si Si7 0.750000 0.500000 0.723460
O O1 0.058710 0.250000 0.750000
O O2 0.076518 0.307533 0.588493
O O3 0.990894 0.074242 0.644363
O O4 0.170234 0.091962 0.665895
O O5 0.928196 0.750000 0.750000
O O6 0.867345 0.612419 0.883710
O O7 0.801831 0.873442 0.826600
O O8 0.933818 0.868935 0.922140
O O9 0.786593 0.837547 0.001353
O O10 0.126032 0.915902 0.973761
O O11 0.697355 0.629137 0.069975
O O12 0.649945 0.688608 0.924810
O O13 0.827496 0.423370 0.778231
#
# Coordination Sequence:
#
# PCOD9410152 Si02
#       7
#     8   8   8   8   8   4   4
#     4  11  27  47  68  97 134 178 232 290 342 403
#     4  10  21  37  64  98 138 176 213 265 330 405
#     4  10  22  41  63  96 136 178 226 273 333 400
#     4  10  20  38  68  98 130 174 225 280 337 402
#     4  11  23  41  67 100 139 179 222 273 343 413
#     4  10  23  46  71  94 128 182 238 286 338 398
#     4  10  21  40  67 104 146 180 216 272 342 416
#
# _framework density 22.606097999999999
#
# number of rings (size 3 to 8) (size 9 to 14) (size 15 to 20)
#    0.000    1.667    0.000    5.500    0.000   13.333 
#    0.000    7.500    0.000    0.000    0.000    0.000 
#    0.000    0.000    0.000    0.000    0.000    0.000 
#
# Total GULP energy -267931.634987 kJ/mol
# GULP energy per Si atom -5581.909062 kJ/mol
# Density = 2.255465 g / cm^3
# Si number density = 22.606098 Si / 1000 Ang^3
#
#
#
# Elastic Constant Matrix: (Units=GPa)
#
#
# Indices 1 2 3 4 5 6 
#
# 1 104.0835 34.1834 20.1355 0.0000 0.0000 0.0000
# 2 34.1834 150.1538 17.4269 0.0000 0.0000 0.0000
# 3 20.1355 17.4269 50.7416 0.0000 0.0000 0.0000
# 4 0.0000 0.0000 0.0000 -9.3111 0.0000 0.0000
# 5 0.0000 0.0000 0.0000 0.0000 -31.4362 0.0000
# 6 0.0000 0.0000 0.0000 0.0000 0.0000 3.7665
#
#
#
# Elastic Compliance Matrix: (Units=1/GPa)
#
#
# Indices 1 2 3 4 5 6 
#
# 1 0.010997 -0.002080 -0.003649 0.000000 0.000000 0.000000
# 2 -0.002080 0.007330 -0.001692 0.000000 0.000000 0.000000
# 3 -0.003649 -0.001692 0.021737 0.000000 0.000000 0.000000
# 4 0.000000 0.000000 0.000000 -0.107398 0.000000 0.000000
# 5 0.000000 0.000000 0.000000 0.000000 -0.031810 0.000000
# 6 0.000000 0.000000 0.000000 0.000000 0.000000 0.265498
#
#
# Mechanical properties :
#
#
# Convention : Reuss Voigt Hill
#
# Bulk Modulus (GPa) = 39.64987 49.83007 44.73997
# Shear Modulus (GPa) = 26.37100 8.15269 17.26185
#
# Velocity S-wave (km/s) = 3.41918 1.90112 2.76632
# Velocity P-wave (km/s) = 5.75892 5.18745 5.48064
#
# Compressibility (1/GPa) = 0.02522077
#
# Stress axis : x y z
#
# Youngs Moduli (GPa) = 90.93578 136.43087 46.00449
#
# Poissons Ratio (x) = 0.28377 0.16789
# Poissons Ratio (y) = 0.18914 0.07784
# Poissons Ratio (z) = 0.33187 0.23084
#
# Static dielectric constant tensor:
#      x y z
#    x 1.812600 0.000000 0.000000 
#    y 0.000000 1.869590 0.000000 
#    z 0.000000 0.000000 1.887920 
# 
# From -- ./inp_files/32249.got.cif
#   From: 2010.05.17/outbox.cif.g08.bks.cpg/sg52_17_cif.got.tgz:32249.got - 2010.06.03 12:15:38.
