data_PCOD9410695
_publ_section_title
;
Structure prediction by ZEFSAII (Michael W. Deem and Ramdas Pophale) SiO2 
 PCOD9410695
Probable space group: P N N A
;
_chemical_formula_sum "Si O2"
_cell_formula_units_Z 32
_cell_length_a 10.640386
_cell_length_b 5.312498
_cell_length_c 27.031712
_cell_angle_alpha 90.000000
_cell_angle_beta 90.000000
_cell_angle_gamma 90.000000
_cell_volume 1528.022377
_symmetry_space_group_name_H-M "P N N A"
_symmetry_group_IT_number 52
_symmetry_cell_setting 'orthorhombic'
loop_
_space_group_symop_operation_xyz
x,y,z
1/2-x,-y,z
x,1/2-y,1/2-z
1/2-x,1/2+y,1/2-z
-x,-y,-z
1/2+x,y,-z
-x,1/2+y,1/2+z
1/2+x,1/2-y,1/2+z
loop_
_atom_site_type_symbol
_atom_site_label
_atom_site_fract_x
_atom_site_fract_y
_atom_site_fract_z
Si Si1 0.593295 0.495945 0.546992
Si Si2 0.104824 0.503542 0.103290
Si Si3 0.117126 0.002564 0.783644
Si Si4 0.862112 0.679816 0.692555
O O1 0.750000 0.500000 0.538214
O O2 0.500000 0.500000 0.500000
O O3 0.554763 0.242540 0.575866
O O4 0.558774 0.735135 0.581536
O O5 0.250000 0.500000 0.089079
O O6 0.109181 0.431507 0.161385
O O7 0.117995 0.750000 0.750000
O O8 0.988080 0.982534 0.811938
O O9 0.250000 0.000000 0.811752
O O10 0.113323 0.250000 0.750000
O O11 0.750000 0.500000 0.673707
O O12 0.837524 0.750000 0.750000
#
# Coordination Sequence:
#
# PCOD9410695 Si02
#       4
#     8   8   8   8
#     4  10  21  40  66  89 117 153 194 248 314 372
#     4  10  21  37  58  89 124 157 192 244 308 361
#     4   9  19  35  53  74 108 159 211 254 299 342
#     4  11  21  34  59  90 125 167 212 250 286 353
#
# _framework density 20.942098999999999
#
# number of rings (size 3 to 8) (size 9 to 14) (size 15 to 20)
#    0.000    2.000    0.000    4.500    0.000    6.000 
#    0.000    1.250    0.000   15.000    0.000    0.000 
#    0.000    0.000    0.000    0.000    0.000    0.000 
#
# Total GULP energy -178226.527540 kJ/mol
# GULP energy per Si atom -5569.578986 kJ/mol
# Density = 2.089443 g / cm^3
# Si number density = 20.942099 Si / 1000 Ang^3
#
#
#
# Elastic Constant Matrix: (Units=GPa)
#
#
# Indices 1 2 3 4 5 6 
#
# 1 133.3560 34.4337 15.4979 0.0000 0.0000 0.0000
# 2 34.4337 176.2573 71.8622 0.0000 0.0000 0.0000
# 3 15.4979 71.8622 127.4393 0.0000 0.0000 0.0000
# 4 0.0000 0.0000 0.0000 35.2861 0.0000 0.0000
# 5 0.0000 0.0000 0.0000 0.0000 -16.8268 0.0000
# 6 0.0000 0.0000 0.0000 0.0000 0.0000 21.5881
#
#
#
# Elastic Compliance Matrix: (Units=1/GPa)
#
#
# Indices 1 2 3 4 5 6 
#
# 1 0.007898 -0.001495 -0.000117 0.000000 0.000000 0.000000
# 2 -0.001495 0.007650 -0.004132 0.000000 0.000000 0.000000
# 3 -0.000117 -0.004132 0.010191 0.000000 0.000000 0.000000
# 4 0.000000 0.000000 0.000000 0.028340 0.000000 0.000000
# 5 0.000000 0.000000 0.000000 0.000000 -0.059429 0.000000
# 6 0.000000 0.000000 0.000000 0.000000 0.000000 0.046322
#
#
# Mechanical properties :
#
#
# Convention : Reuss Voigt Hill
#
# Bulk Modulus (GPa) = 70.17273 75.62672 72.89973
# Shear Modulus (GPa) = 87.39387 29.02674 58.21030
#
# Velocity S-wave (km/s) = 6.46698 3.72700 5.27789
# Velocity P-wave (km/s) = 9.45215 7.39672 8.48689
#
# Compressibility (1/GPa) = 0.01425055
#
# Stress axis : x y z
#
# Youngs Moduli (GPa) = 126.60734 130.71297 98.12343
#
# Poissons Ratio (x) = 0.19544 0.01152
# Poissons Ratio (y) = 0.18930 0.40546
# Poissons Ratio (z) = 0.01487 0.54013
#
# Static dielectric constant tensor:
#      x y z
#    x 1.813110 0.000000 0.000000 
#    y 0.000000 1.873350 0.000000 
#    z 0.000000 0.000000 1.781180 
# 
# From -- ./inp_files/36446.got.cif
#   From: 2010.05.17/outbox.cif.g08.bks.cpg/sg52_19_cif.got.tgz:36446.got - 2010.06.03 12:15:38.
