data_PCOD9410164
_publ_section_title
;
Structure prediction by ZEFSAII (Michael W. Deem and Ramdas Pophale) SiO2 
 PCOD9410164
Probable space group: P N N A
;
_chemical_formula_sum "Si O2"
_cell_formula_units_Z 40
_cell_length_a 9.229166
_cell_length_b 8.505726
_cell_length_c 23.513880
_cell_angle_alpha 90.000000
_cell_angle_beta 90.000000
_cell_angle_gamma 90.000000
_cell_volume 1845.857385
_symmetry_space_group_name_H-M "P N N A"
_symmetry_group_IT_number 52
_symmetry_cell_setting 'orthorhombic'
loop_
_space_group_symop_operation_xyz
x,y,z
1/2-x,-y,z
x,1/2-y,1/2-z
1/2-x,1/2+y,1/2-z
-x,-y,-z
1/2+x,y,-z
-x,1/2+y,1/2+z
1/2+x,1/2-y,1/2+z
loop_
_atom_site_type_symbol
_atom_site_label
_atom_site_fract_x
_atom_site_fract_y
_atom_site_fract_z
Si Si1 0.250000 0.500000 0.745729
Si Si2 0.083637 0.547150 0.443217
Si Si3 0.996037 0.858492 0.828333
Si Si4 0.750000 0.500000 0.750880
Si Si5 0.004229 0.020588 0.674545
Si Si6 0.911821 0.422584 0.948218
O O1 0.359228 0.407720 0.705141
O O2 0.139856 0.416670 0.789769
O O3 0.250000 0.500000 0.443833
O O4 0.016297 0.455858 0.387803
O O5 0.093234 0.735123 0.448112
O O6 0.000000 0.500000 0.500000
O O7 0.997130 0.669844 0.827194
O O8 0.857743 0.907557 0.790436
O O9 0.639269 0.585594 0.794089
O O10 0.003310 0.054546 0.608882
O O11 0.750000 0.500000 0.944246
O O12 0.000000 0.500000 0.000000
#
# Coordination Sequence:
#
# PCOD9410164 Si02
#       6
#     4   8   8   4   8   8
#     4  10  24  42  68 102 146 184 230 286 350 404
#     4  12  27  48  75 104 140 183 235 290 352 417
#     4  11  24  44  69 103 142 182 235 286 344 417
#     4  10  20  38  72  98 136 178 230 282 350 408
#     4  11  24  44  69 103 142 182 235 286 344 417
#     4  12  27  48  75 104 140 183 235 290 352 417
#
# _framework density 21.670148000000001
#
# number of rings (size 3 to 8) (size 9 to 14) (size 15 to 20)
#    0.000    0.800    2.000    6.000    2.800    4.800 
#    0.000   10.000    0.000    0.000    0.000    0.000 
#    0.000    0.000    0.000    0.000    0.000    0.000 
#
# Total GULP energy -223310.079658 kJ/mol
# GULP energy per Si atom -5582.751991 kJ/mol
# Density = 2.162083 g / cm^3
# Si number density = 21.670148 Si / 1000 Ang^3
#
#
#
# Elastic Constant Matrix: (Units=GPa)
#
#
# Indices 1 2 3 4 5 6 
#
# 1 142.1439 41.0290 66.5028 0.0000 0.0000 0.0000
# 2 41.0290 158.3347 65.2134 0.0000 0.0000 0.0000
# 3 66.5028 65.2134 199.7925 0.0000 0.0000 0.0000
# 4 0.0000 0.0000 0.0000 30.4254 0.0000 0.0000
# 5 0.0000 0.0000 0.0000 0.0000 27.2375 0.0000
# 6 0.0000 0.0000 0.0000 0.0000 0.0000 30.6325
#
#
#
# Elastic Compliance Matrix: (Units=1/GPa)
#
#
# Indices 1 2 3 4 5 6 
#
# 1 0.008526 -0.001202 -0.002446 0.000000 0.000000 0.000000
# 2 -0.001202 0.007466 -0.002037 0.000000 0.000000 0.000000
# 3 -0.002446 -0.002037 0.006484 0.000000 0.000000 0.000000
# 4 0.000000 0.000000 0.000000 0.032867 0.000000 0.000000
# 5 0.000000 0.000000 0.000000 0.000000 0.036714 0.000000
# 6 0.000000 0.000000 0.000000 0.000000 0.000000 0.032645
#
#
# Mechanical properties :
#
#
# Convention : Reuss Voigt Hill
#
# Bulk Modulus (GPa) = 90.03110 93.97350 92.00230
# Shear Modulus (GPa) = 35.77183 39.49414 37.63298
#
# Velocity S-wave (km/s) = 4.06734 4.27372 4.17181
# Velocity P-wave (km/s) = 7.98085 8.23483 8.10884
#
# Compressibility (1/GPa) = 0.01110727
#
# Stress axis : x y z
#
# Youngs Moduli (GPa) = 117.28368 133.93769 154.22307
#
# Poissons Ratio (x) = 0.16101 0.37718
# Poissons Ratio (y) = 0.14099 0.31413
# Poissons Ratio (z) = 0.28684 0.27281
#
# Static dielectric constant tensor:
#      x y z
#    x 1.751110 0.000000 0.000000 
#    y 0.000000 1.903120 0.000000 
#    z 0.000000 0.000000 1.802770 
# 
# From -- ./inp_files/39274.got.cif
#   From: 2010.05.17/outbox.cif.g08.bks.cpg/sg52_20_cif.got.tgz:39274.got - 2010.06.03 12:15:38.
