data_PCOD9410346
_publ_section_title
;
Structure prediction by ZEFSAII (Michael W. Deem and Ramdas Pophale) SiO2 
 PCOD9410346
Probable space group: P N N A
;
_chemical_formula_sum "Si O2"
_cell_formula_units_Z 40
_cell_length_a 23.443347
_cell_length_b 7.363169
_cell_length_c 9.424774
_cell_angle_alpha 90.000000
_cell_angle_beta 90.000000
_cell_angle_gamma 90.000000
_cell_volume 1626.879285
_symmetry_space_group_name_H-M "P N N A"
_symmetry_group_IT_number 52
_symmetry_cell_setting 'orthorhombic'
loop_
_space_group_symop_operation_xyz
x,y,z
1/2-x,-y,z
x,1/2-y,1/2-z
1/2-x,1/2+y,1/2-z
-x,-y,-z
1/2+x,y,-z
-x,1/2+y,1/2+z
1/2+x,1/2-y,1/2+z
loop_
_atom_site_type_symbol
_atom_site_label
_atom_site_fract_x
_atom_site_fract_y
_atom_site_fract_z
Si Si1 0.520373 0.452434 0.833445
Si Si2 0.310089 0.022134 0.592391
Si Si3 0.593194 0.531651 0.293026
Si Si4 0.313937 0.429572 0.492683
Si Si5 0.350790 0.545611 0.200207
O O1 0.524924 0.250000 0.750000
O O2 0.470654 0.536306 0.733689
O O3 0.585199 0.523659 0.831574
O O4 0.500000 0.500000 0.000000
O O5 0.363344 0.951482 0.678353
O O6 0.315759 0.233198 0.561799
O O7 0.250000 0.000000 0.667440
O O8 0.311953 0.937497 0.438173
O O9 0.590487 0.750000 0.250000
O O10 0.627161 0.490513 0.438330
O O11 0.250000 0.500000 0.520018
O O12 0.322891 0.432535 0.325516
O O13 0.355638 0.750000 0.250000
#
# Coordination Sequence:
#
# PCOD9410346 Si02
#       5
#     8   8   8   8   8
#     4  10  20  40  69  97 132 176 227 280 347 422
#     4  11  21  38  64  88 122 170 212 266 335 399
#     4   9  20  38  63  90 125 166 213 269 336 396
#     4  11  23  40  61  93 129 166 218 274 330 408
#     4  11  23  39  63  90 128 166 218 272 332 399
#
# _framework density 24.586950000000002
#
# number of rings (size 3 to 8) (size 9 to 14) (size 15 to 20)
#    0.000    1.600    2.000    3.000    0.000    0.800 
#    0.000    3.000    0.000    0.000    0.000    0.000 
#    0.000    0.000    0.000    0.000    0.000    0.000 
#
# Total GULP energy -222816.401719 kJ/mol
# GULP energy per Si atom -5570.410043 kJ/mol
# Density = 2.453099 g / cm^3
# Si number density = 24.586950 Si / 1000 Ang^3
#
#
#
# Elastic Constant Matrix: (Units=GPa)
#
#
# Indices 1 2 3 4 5 6 
#
# 1 139.0400 1.5000 13.1734 0.0000 0.0000 0.0000
# 2 1.5000 58.6615 3.0774 0.0000 0.0000 0.0000
# 3 13.1734 3.0774 113.2139 0.0000 0.0000 0.0000
# 4 0.0000 0.0000 0.0000 15.7803 0.0000 0.0000
# 5 0.0000 0.0000 0.0000 0.0000 65.3569 0.0000
# 6 0.0000 0.0000 0.0000 0.0000 0.0000 20.9191
#
#
#
# Elastic Compliance Matrix: (Units=1/GPa)
#
#
# Indices 1 2 3 4 5 6 
#
# 1 0.007274 -0.000142 -0.000842 0.000000 0.000000 0.000000
# 2 -0.000142 0.017074 -0.000448 0.000000 0.000000 0.000000
# 3 -0.000842 -0.000448 0.008943 0.000000 0.000000 0.000000
# 4 0.000000 0.000000 0.000000 0.063370 0.000000 0.000000
# 5 0.000000 0.000000 0.000000 0.000000 0.015301 0.000000
# 6 0.000000 0.000000 0.000000 0.000000 0.000000 0.047803
#
#
# Mechanical properties :
#
#
# Convention : Reuss Voigt Hill
#
# Bulk Modulus (GPa) = 32.86569 38.49078 35.67824
# Shear Modulus (GPa) = 28.94009 39.95556 34.44782
#
# Velocity S-wave (km/s) = 3.43454 4.03559 3.74714
# Velocity P-wave (km/s) = 5.39669 6.11585 5.76749
#
# Compressibility (1/GPa) = 0.03042686
#
# Stress axis : x y z
#
# Youngs Moduli (GPa) = 137.48492 58.56833 111.81882
#
# Poissons Ratio (x) = 0.00830 0.09421
# Poissons Ratio (y) = 0.01949 0.05005
# Poissons Ratio (z) = 0.11583 0.02622
#
# Static dielectric constant tensor:
#      x y z
#    x 1.951380 0.000000 0.000000 
#    y 0.000000 2.054520 0.000000 
#    z 0.000000 0.000000 1.763530 
# 
# From -- ./inp_files/13939.got.cif
#   From: 2010.05.17/outbox.cif.g08.bks.cpg/sg52_7_cif.got.tgz:13939.got - 2010.06.03 12:15:38.
