data_PCOD9410246
_publ_section_title
;
Structure prediction by ZEFSAII (Michael W. Deem and Ramdas Pophale) SiO2 
 PCOD9410246
Probable space group: P N N A
;
_chemical_formula_sum "Si O2"
_cell_formula_units_Z 48
_cell_length_a 29.865892
_cell_length_b 9.156569
_cell_length_c 8.117299
_cell_angle_alpha 90.000000
_cell_angle_beta 90.000000
_cell_angle_gamma 90.000000
_cell_volume 2219.830459
_symmetry_space_group_name_H-M "P N N A"
_symmetry_group_IT_number 52
_symmetry_cell_setting 'orthorhombic'
loop_
_space_group_symop_operation_xyz
x,y,z
1/2-x,-y,z
x,1/2-y,1/2-z
1/2-x,1/2+y,1/2-z
-x,-y,-z
1/2+x,y,-z
-x,1/2+y,1/2+z
1/2+x,1/2-y,1/2+z
loop_
_atom_site_type_symbol
_atom_site_label
_atom_site_fract_x
_atom_site_fract_y
_atom_site_fract_z
Si Si1 0.430089 0.983742 0.834542
Si Si2 0.334412 0.907384 0.426977
Si Si3 0.508936 0.750000 0.250000
Si Si4 0.834032 0.420424 0.255839
Si Si5 0.225549 0.335275 0.588478
Si Si6 0.750000 0.000000 0.797744
Si Si7 0.932497 0.820192 0.517568
O O1 0.434723 0.912764 0.651511
O O2 0.461303 0.127119 0.842245
O O3 0.379415 0.037749 0.847232
O O4 0.434721 0.850238 0.961954
O O5 0.314685 0.764145 0.517424
O O6 0.386172 0.866444 0.389641
O O7 0.336507 0.027884 0.568171
O O8 0.295588 0.962722 0.301452
O O9 0.475854 0.838769 0.370215
O O10 0.830218 0.250000 0.250000
O O11 0.795592 0.515593 0.341438
O O12 0.242045 0.250000 0.750000
O O13 0.254785 0.363589 0.424861
#
# Coordination Sequence:
#
# PCOD9410246 Si02
#       7
#     8   8   4   8   8   4   8
#     4  10  20  40  62  97 132 183 228 274 327 413
#     4  10  23  43  66  95 135 179 222 282 352 396
#     4  12  22  34  68 104 128 168 230 292 332 396
#     4  10  20  39  68  93 130 182 237 273 327 412
#     4  10  23  43  68  92 127 179 223 269 340 421
#     4  12  26  40  68 100 130 154 230 296 322 398
#     4  10  22  39  65  93 139 179 221 271 348 407
#
# _framework density 21.623273000000001
#
# number of rings (size 3 to 8) (size 9 to 14) (size 15 to 20)
#    0.000    1.667    2.500    1.500    2.333    6.000 
#    0.000    0.000    0.000    0.000    0.000    0.000 
#    0.000    0.000    0.000    0.000    0.000    0.500 
#
# Total GULP energy -267768.237786 kJ/mol
# GULP energy per Si atom -5578.504954 kJ/mol
# Density = 2.157406 g / cm^3
# Si number density = 21.623273 Si / 1000 Ang^3
#
#
#
# Elastic Constant Matrix: (Units=GPa)
#
#
# Indices 1 2 3 4 5 6 
#
# 1 129.7042 27.3585 45.2123 0.0000 0.0000 0.0000
# 2 27.3585 126.4683 24.7571 0.0000 0.0000 0.0000
# 3 45.2123 24.7571 65.1242 0.0000 0.0000 0.0000
# 4 0.0000 0.0000 0.0000 37.9393 0.0000 0.0000
# 5 0.0000 0.0000 0.0000 0.0000 17.9526 0.0000
# 6 0.0000 0.0000 0.0000 0.0000 0.0000 22.1251
#
#
#
# Elastic Compliance Matrix: (Units=1/GPa)
#
#
# Indices 1 2 3 4 5 6 
#
# 1 0.010264 -0.000892 -0.006786 0.000000 0.000000 0.000000
# 2 -0.000892 0.008620 -0.002658 0.000000 0.000000 0.000000
# 3 -0.006786 -0.002658 0.021077 0.000000 0.000000 0.000000
# 4 0.000000 0.000000 0.000000 0.026358 0.000000 0.000000
# 5 0.000000 0.000000 0.000000 0.000000 0.055702 0.000000
# 6 0.000000 0.000000 0.000000 0.000000 0.000000 0.045197
#
#
# Mechanical properties :
#
#
# Convention : Reuss Voigt Hill
#
# Bulk Modulus (GPa) = 51.84365 57.32807 54.58586
# Shear Modulus (GPa) = 25.73070 30.53466 28.13268
#
# Velocity S-wave (km/s) = 3.45331 3.76190 3.61090
# Velocity P-wave (km/s) = 6.31889 6.74084 6.53327
#
# Compressibility (1/GPa) = 0.01928877
#
# Stress axis : x y z
#
# Youngs Moduli (GPa) = 97.43200 116.00460 47.44478
#
# Poissons Ratio (x) = 0.10345 0.32198
# Poissons Ratio (y) = 0.08689 0.12610
# Poissons Ratio (z) = 0.66122 0.30833
#
# Static dielectric constant tensor:
#      x y z
#    x 1.818580 0.000000 0.000000 
#    y 0.000000 1.780080 0.000000 
#    z 0.000000 0.000000 1.805310 
# 
# From -- ./inp_files/15606.got.cif
#   From: 2010.05.17/outbox.cif.g08.bks.cpg/sg52_8_cif.got.tgz:15606.got - 2010.06.03 12:15:38.
