data_PCOD9410567
_publ_section_title
;
Structure prediction by ZEFSAII (Michael W. Deem and Ramdas Pophale) SiO2 
 PCOD9410567
Probable space group: P N N A
;
_chemical_formula_sum "Si O2"
_cell_formula_units_Z 48
_cell_length_a 13.472532
_cell_length_b 8.598360
_cell_length_c 22.823618
_cell_angle_alpha 90.000000
_cell_angle_beta 90.000000
_cell_angle_gamma 90.000000
_cell_volume 2643.926258
_symmetry_space_group_name_H-M "P N N A"
_symmetry_group_IT_number 52
_symmetry_cell_setting 'orthorhombic'
loop_
_space_group_symop_operation_xyz
x,y,z
1/2-x,-y,z
x,1/2-y,1/2-z
1/2-x,1/2+y,1/2-z
-x,-y,-z
1/2+x,y,-z
-x,1/2+y,1/2+z
1/2+x,1/2-y,1/2+z
loop_
_atom_site_type_symbol
_atom_site_label
_atom_site_fract_x
_atom_site_fract_y
_atom_site_fract_z
Si Si1 0.750000 0.500000 0.335131
Si Si2 0.630168 0.506733 0.157710
Si Si3 0.842259 0.250000 0.250000
Si Si4 0.907457 0.805453 0.103199
Si Si5 0.825739 0.782589 0.974965
Si Si6 0.107780 0.860629 0.037961
Si Si7 0.011192 0.865375 0.548897
O O1 0.778226 0.352591 0.295274
O O2 0.843976 0.549129 0.374123
O O3 0.750000 0.500000 0.155881
O O4 0.897558 0.383124 0.212410
O O5 0.594727 0.329062 0.152171
O O6 0.581171 0.583844 0.100921
O O7 0.020667 0.841071 0.085484
O O8 0.849532 0.747273 0.043848
O O9 0.711660 0.769014 0.956747
O O10 0.898492 0.678508 0.935946
O O11 0.860334 0.961435 0.968594
O O12 0.057719 0.787779 0.980451
O O13 0.000000 0.000000 0.500000
#
# Coordination Sequence:
#
# PCOD9410567 Si02
#       7
#     4   8   4   8   8   8   8
#     4  12  22  40  58  84 114 158 198 252 288 356
#     4  12  23  39  54  87 123 158 198 244 297 356
#     4  12  26  38  60  82 116 156 200 250 302 352
#     4  11  21  36  59  83 122 163 194 241 296 355
#     4  10  21  36  54  90 125 159 190 236 296 373
#     4  10  21  35  54  89 119 160 196 231 298 364
#     4  11  21  34  57  85 121 161 194 235 300 360
#
# _framework density 18.154817999999999
#
# number of rings (size 3 to 8) (size 9 to 14) (size 15 to 20)
#    0.000    1.000    5.833    4.000    4.667    0.000 
#    0.000    0.000    0.000    0.000    0.000    5.833 
#    0.000    0.000    0.000    0.000    0.000    0.000 
#
# Total GULP energy -267689.407660 kJ/mol
# GULP energy per Si atom -5576.862660 kJ/mol
# Density = 1.811350 g / cm^3
# Si number density = 18.154818 Si / 1000 Ang^3
#
#
#
# Elastic Constant Matrix: (Units=GPa)
#
#
# Indices 1 2 3 4 5 6 
#
# 1 137.3035 35.7861 33.4136 0.0000 0.0000 0.0000
# 2 35.7861 62.3469 25.8619 0.0000 0.0000 0.0000
# 3 33.4136 25.8619 67.1111 0.0000 0.0000 0.0000
# 4 0.0000 0.0000 0.0000 38.7471 0.0000 0.0000
# 5 0.0000 0.0000 0.0000 0.0000 21.6546 0.0000
# 6 0.0000 0.0000 0.0000 0.0000 0.0000 28.3585
#
#
#
# Elastic Compliance Matrix: (Units=1/GPa)
#
#
# Indices 1 2 3 4 5 6 
#
# 1 0.009038 -0.003953 -0.002976 0.000000 0.000000 0.000000
# 2 -0.003953 0.020820 -0.006055 0.000000 0.000000 0.000000
# 3 -0.002976 -0.006055 0.018716 0.000000 0.000000 0.000000
# 4 0.000000 0.000000 0.000000 0.025808 0.000000 0.000000
# 5 0.000000 0.000000 0.000000 0.000000 0.046180 0.000000
# 6 0.000000 0.000000 0.000000 0.000000 0.000000 0.035263
#
#
# Mechanical properties :
#
#
# Convention : Reuss Voigt Hill
#
# Bulk Modulus (GPa) = 44.23844 50.76497 47.50171
# Shear Modulus (GPa) = 26.40920 29.19870 27.80395
#
# Velocity S-wave (km/s) = 3.81815 4.01473 3.91767
# Velocity P-wave (km/s) = 6.62253 7.03660 6.83270
#
# Compressibility (1/GPa) = 0.02260477
#
# Stress axis : x y z
#
# Youngs Moduli (GPa) = 110.64720 48.03113 53.43027
#
# Poissons Ratio (x) = 0.18986 0.15903
# Poissons Ratio (y) = 0.43737 0.32352
# Poissons Ratio (z) = 0.32934 0.29083
#
# Static dielectric constant tensor:
#      x y z
#    x 1.660390 0.000000 0.000000 
#    y 0.000000 1.742930 0.000000 
#    z 0.000000 0.000000 1.636490 
# 
# From -- ./inp_files/40585.got.cif
#   From: 2010.05.17/outbox.cif.g08.bks.cpg/sg52_21_cif.got.tgz:40585.got - 2010.06.03 12:15:38.
