data_PCOD9410955
_publ_section_title
;
Structure prediction by ZEFSAII (Michael W. Deem and Ramdas Pophale) SiO2 
 PCOD9410955
Probable space group: P N N A
;
_chemical_formula_sum "Si O2"
_cell_formula_units_Z 32
_cell_length_a 22.137219
_cell_length_b 5.046368
_cell_length_c 13.586255
_cell_angle_alpha 90.000000
_cell_angle_beta 90.000000
_cell_angle_gamma 90.000000
_cell_volume 1517.755240
_symmetry_space_group_name_H-M "P N N A"
_symmetry_group_IT_number 52
_symmetry_cell_setting 'orthorhombic'
loop_
_space_group_symop_operation_xyz
x,y,z
1/2-x,-y,z
x,1/2-y,1/2-z
1/2-x,1/2+y,1/2-z
-x,-y,-z
1/2+x,y,-z
-x,1/2+y,1/2+z
1/2+x,1/2-y,1/2+z
loop_
_atom_site_type_symbol
_atom_site_label
_atom_site_fract_x
_atom_site_fract_y
_atom_site_fract_z
Si Si1 0.005173 0.750401 0.572457
Si Si2 0.132035 0.882768 0.558840
Si Si3 0.711331 0.250000 0.750000
Si Si4 0.879244 0.882028 0.920849
Si Si5 0.250000 0.000000 0.683986
O O1 0.943290 0.698433 0.630129
O O2 0.000000 0.500000 0.500000
O O3 0.071202 0.796312 0.618905
O O4 0.000000 0.000000 0.500000
O O5 0.128700 0.671450 0.469085
O O6 0.126758 0.173116 0.510493
O O7 0.193942 0.888654 0.619567
O O8 0.750000 0.500000 0.783449
O O9 0.671654 0.157175 0.841095
O O10 0.229049 0.250000 0.750000
#
# Coordination Sequence:
#
# PCOD9410955 Si02
#       5
#     8   8   4   8   4
#     4   8  16  34  60  87 111 149 206 246 289 365
#     4  10  21  39  67  85 120 164 202 245 316 372
#     4  12  26  38  56  94 134 154 206 254 292 368
#     4  10  21  39  62  90 119 164 201 249 304 364
#     4  12  26  42  60  94 128 156 210 264 308 374
#
# _framework density 21.083767999999999
#
# number of rings (size 3 to 8) (size 9 to 14) (size 15 to 20)
#    0.000    2.000    0.000    3.000    5.250    0.000 
#    2.250    0.000    2.750    0.000    0.000    0.000 
#    0.000    0.000    0.000    0.000    0.000    0.000 
#
# Total GULP energy -178264.634057 kJ/mol
# GULP energy per Si atom -5570.769814 kJ/mol
# Density = 2.103578 g / cm^3
# Si number density = 21.083768 Si / 1000 Ang^3
#
#
#
# Elastic Constant Matrix: (Units=GPa)
#
#
# Indices 1 2 3 4 5 6 
#
# 1 165.6139 8.3906 31.7296 0.0000 0.0000 0.0000
# 2 8.3906 113.3200 -4.4755 0.0000 0.0000 0.0000
# 3 31.7296 -4.4755 30.5725 0.0000 0.0000 0.0000
# 4 0.0000 0.0000 0.0000 19.5211 0.0000 0.0000
# 5 0.0000 0.0000 0.0000 0.0000 -224.1731 0.0000
# 6 0.0000 0.0000 0.0000 0.0000 0.0000 -105.3924
#
#
#
# Elastic Compliance Matrix: (Units=1/GPa)
#
#
# Indices 1 2 3 4 5 6 
#
# 1 0.007623 -0.000882 -0.008041 0.000000 0.000000 0.000000
# 2 -0.000882 0.008978 0.002230 0.000000 0.000000 0.000000
# 3 -0.008041 0.002230 0.041381 0.000000 0.000000 0.000000
# 4 0.000000 0.000000 0.000000 0.051227 0.000000 0.000000
# 5 0.000000 0.000000 0.000000 0.000000 -0.004461 0.000000
# 6 0.000000 0.000000 0.000000 0.000000 0.000000 -0.009488
#
#
# Mechanical properties :
#
#
# Convention : Reuss Voigt Hill
#
# Bulk Modulus (GPa) = 22.42380 42.31064 32.36722
# Shear Modulus (GPa) = 40.48206 -43.75142 -1.63468
#
# Velocity S-wave (km/s) = 4.38660 -4.56029 -0.88148
# Velocity P-wave (km/s) = 6.02619 2.75988 3.78801
#
# Compressibility (1/GPa) = 0.04459547
#
# Stress axis : x y z
#
# Youngs Moduli (GPa) = 131.17527 111.38421 24.16573
#
# Poissons Ratio (x) = 0.09824 0.19432
# Poissons Ratio (y) = 0.11570 -0.05388
# Poissons Ratio (z) = 1.05478 -0.24835
#
# Static dielectric constant tensor:
#      x y z
#    x 1.938280 0.000000 0.000000 
#    y 0.000000 1.722480 0.000000 
#    z 0.000000 0.000000 1.764200 
# 
# From -- ./inp_files/21282.got.cif
#   From: 2010.05.17/outbox.cif.g08.bks.cpg/sg52_11_cif.got.tgz:21282.got - 2010.06.03 12:15:38.
