data_PCOD9410100
_publ_section_title
;
Structure prediction by ZEFSAII (Michael W. Deem and Ramdas Pophale) SiO2 
 PCOD9410100
Probable space group: P N N A
;
_chemical_formula_sum "Si O2"
_cell_formula_units_Z 48
_cell_length_a 12.867315
_cell_length_b 7.528040
_cell_length_c 21.217683
_cell_angle_alpha 90.000000
_cell_angle_beta 90.000000
_cell_angle_gamma 90.000000
_cell_volume 2055.264910
_symmetry_space_group_name_H-M "P N N A"
_symmetry_group_IT_number 52
_symmetry_cell_setting 'orthorhombic'
loop_
_space_group_symop_operation_xyz
x,y,z
1/2-x,-y,z
x,1/2-y,1/2-z
1/2-x,1/2+y,1/2-z
-x,-y,-z
1/2+x,y,-z
-x,1/2+y,1/2+z
1/2+x,1/2-y,1/2+z
loop_
_atom_site_type_symbol
_atom_site_label
_atom_site_fract_x
_atom_site_fract_y
_atom_site_fract_z
Si Si1 0.894338 0.614429 0.921664
Si Si2 0.091188 0.628128 0.578120
Si Si3 0.687642 0.828528 0.314688
Si Si4 0.960699 0.511375 0.793491
Si Si5 0.946765 0.386995 0.658449
Si Si6 0.820796 0.226225 0.950887
O O1 0.885189 0.413883 0.948309
O O2 0.798915 0.719346 0.951696
O O3 0.001659 0.719825 0.929535
O O4 0.883708 0.594253 0.845419
O O5 0.176946 0.694634 0.627818
O O6 0.140886 0.611683 0.509736
O O7 0.034771 0.465045 0.612342
O O8 0.733861 0.750000 0.250000
O O9 0.750000 0.000000 0.335259
O O10 0.570947 0.891576 0.298499
O O11 0.929889 0.505660 0.720474
O O12 0.975741 0.308483 0.816740
O O13 0.847464 0.369090 0.614276
#
# Coordination Sequence:
#
# PCOD9410100 Si02
#       6
#     8   8   8   8   8   8
#     4   9  21  39  63  87 127 174 221 271 325 402
#     4  11  22  40  65  91 131 171 213 274 335 394
#     4  11  24  39  64  96 127 170 219 269 323 398
#     4   9  20  42  63  87 130 173 217 275 337 377
#     4  10  20  38  64  90 128 172 216 275 330 391
#     4  10  21  40  61  94 132 168 221 266 334 404
#
# _framework density 23.354654
#
# number of rings (size 3 to 8) (size 9 to 14) (size 15 to 20)
#    0.000    2.000    1.667    1.000    4.667    0.667 
#    0.000   13.333    0.000    0.000    0.000    0.000 
#    0.000    0.000    0.000    0.000    0.000    0.000 
#
# Total GULP energy -268457.696200 kJ/mol
# GULP energy per Si atom -5592.868671 kJ/mol
# Density = 2.330150 g / cm^3
# Si number density = 23.354654 Si / 1000 Ang^3
#
#
#
# Elastic Constant Matrix: (Units=GPa)
#
#
# Indices 1 2 3 4 5 6 
#
# 1 38.3907 19.1419 29.7146 0.0000 0.0000 0.0000
# 2 19.1419 69.9579 29.9808 0.0000 0.0000 0.0000
# 3 29.7146 29.9808 156.1347 0.0000 0.0000 0.0000
# 4 0.0000 0.0000 0.0000 23.9766 0.0000 0.0000
# 5 0.0000 0.0000 0.0000 0.0000 8.4922 0.0000
# 6 0.0000 0.0000 0.0000 0.0000 0.0000 35.2528
#
#
#
# Elastic Compliance Matrix: (Units=1/GPa)
#
#
# Indices 1 2 3 4 5 6 
#
# 1 0.033418 -0.006994 -0.005017 0.000000 0.000000 0.000000
# 2 -0.006994 0.017040 -0.001941 0.000000 0.000000 0.000000
# 3 -0.005017 -0.001941 0.007732 0.000000 0.000000 0.000000
# 4 0.000000 0.000000 0.000000 0.041707 0.000000 0.000000
# 5 0.000000 0.000000 0.000000 0.000000 0.117756 0.000000
# 6 0.000000 0.000000 0.000000 0.000000 0.000000 0.028367
#
#
# Mechanical properties :
#
#
# Convention : Reuss Voigt Hill
#
# Bulk Modulus (GPa) = 33.01774 46.90643 39.96209
# Shear Modulus (GPa) = 17.60445 25.92073 21.76259
#
# Velocity S-wave (km/s) = 2.74850 3.33509 3.05590
# Velocity P-wave (km/s) = 4.92347 5.91257 5.44054
#
# Compressibility (1/GPa) = 0.03028675
#
# Stress axis : x y z
#
# Youngs Moduli (GPa) = 29.92360 58.68625 129.32883
#
# Poissons Ratio (x) = 0.41045 0.64885
# Poissons Ratio (y) = 0.20928 0.25102
# Poissons Ratio (z) = 0.15013 0.11391
#
# Static dielectric constant tensor:
#      x y z
#    x 1.821960 0.000000 0.000000 
#    y 0.000000 1.920030 0.000000 
#    z 0.000000 0.000000 1.872910 
# 
# From -- ./inp_files/37199.got.cif
#   From: 2010.05.17/outbox.cif.g08.bks.cpg/sg52_19_cif.got.tgz:37199.got - 2010.06.03 12:15:38.
