data_PCOD9410665
_publ_section_title
;
Structure prediction by ZEFSAII (Michael W. Deem and Ramdas Pophale) SiO2 
 PCOD9410665
Probable space group: P N N A
;
_chemical_formula_sum "Si O2"
_cell_formula_units_Z 48
_cell_length_a 5.503407
_cell_length_b 13.006587
_cell_length_c 27.306015
_cell_angle_alpha 90.000000
_cell_angle_beta 90.000000
_cell_angle_gamma 90.000000
_cell_volume 1954.579352
_symmetry_space_group_name_H-M "P N N A"
_symmetry_group_IT_number 52
_symmetry_cell_setting 'orthorhombic'
loop_
_space_group_symop_operation_xyz
x,y,z
1/2-x,-y,z
x,1/2-y,1/2-z
1/2-x,1/2+y,1/2-z
-x,-y,-z
1/2+x,y,-z
-x,1/2+y,1/2+z
1/2+x,1/2-y,1/2+z
loop_
_atom_site_type_symbol
_atom_site_label
_atom_site_fract_x
_atom_site_fract_y
_atom_site_fract_z
Si Si1 0.649500 0.833105 0.124750
Si Si2 0.316472 0.885230 0.618989
Si Si3 0.832655 0.336926 0.680957
Si Si4 0.520741 0.617907 0.979079
Si Si5 0.227841 0.883864 0.983865
Si Si6 0.620446 0.605799 0.791308
O O1 0.634787 0.709922 0.114175
O O2 0.416936 0.872541 0.155306
O O3 0.651363 0.885846 0.072461
O O4 0.916357 0.844671 0.150088
O O5 0.534239 0.867373 0.579760
O O6 0.377525 0.891310 0.676441
O O7 0.250000 0.000000 0.603908
O O8 0.890830 0.390186 0.732840
O O9 0.773544 0.216650 0.693126
O O10 0.500000 0.500000 0.000000
O O11 0.258694 0.659179 0.994945
O O12 0.250000 0.000000 0.003664
O O13 0.498883 0.839501 0.987034
O O14 0.750000 0.500000 0.806338
#
# Coordination Sequence:
#
# PCOD9410665 Si02
#       6
#     8   8   8   8   8   8
#     4  11  24  42  66  93 128 171 206 269 323 388
#     4  11  23  39  64  96 132 174 222 257 324 389
#     4  10  24  44  62  94 130 160 217 267 325 380
#     4  10  21  37  55  83 125 170 204 258 294 352
#     4  10  22  42  67  96 127 163 213 265 320 383
#     4  10  23  40  66  92 125 170 213 271 321 393
#
# _framework density 24.557714000000001
#
# number of rings (size 3 to 8) (size 9 to 14) (size 15 to 20)
#    0.000    1.667    1.667    2.000    2.333   12.000 
#    0.000    0.000    0.000    0.000    0.000    0.000 
#    0.000    0.000    0.000    0.000    0.000    0.000 
#
# Total GULP energy -267891.641923 kJ/mol
# GULP energy per Si atom -5581.075873 kJ/mol
# Density = 2.450182 g / cm^3
# Si number density = 24.557714 Si / 1000 Ang^3
#
#
#
# Elastic Constant Matrix: (Units=GPa)
#
#
# Indices 1 2 3 4 5 6 
#
# 1 158.8287 16.8065 63.4545 0.0000 0.0000 0.0000
# 2 16.8065 64.3006 -6.5238 0.0000 0.0000 0.0000
# 3 63.4545 -6.5238 149.1893 0.0000 0.0000 0.0000
# 4 0.0000 0.0000 0.0000 24.6903 0.0000 0.0000
# 5 0.0000 0.0000 0.0000 0.0000 14.7451 0.0000
# 6 0.0000 0.0000 0.0000 0.0000 0.0000 28.4825
#
#
#
# Elastic Compliance Matrix: (Units=1/GPa)
#
#
# Indices 1 2 3 4 5 6 
#
# 1 0.007946 -0.002431 -0.003486 0.000000 0.000000 0.000000
# 2 -0.002431 0.016365 0.001749 0.000000 0.000000 0.000000
# 3 -0.003486 0.001749 0.008262 0.000000 0.000000 0.000000
# 4 0.000000 0.000000 0.000000 0.040502 0.000000 0.000000
# 5 0.000000 0.000000 0.000000 0.000000 0.067819 0.000000
# 6 0.000000 0.000000 0.000000 0.000000 0.000000 0.035109
#
#
# Mechanical properties :
#
#
# Convention : Reuss Voigt Hill
#
# Bulk Modulus (GPa) = 41.25660 57.75480 49.50570
# Shear Modulus (GPa) = 25.98530 33.48901 29.73716
#
# Velocity S-wave (km/s) = 3.25642 3.69682 3.48359
# Velocity P-wave (km/s) = 5.56555 6.46460 6.03185
#
# Compressibility (1/GPa) = 0.02423854
#
# Stress axis : x y z
#
# Youngs Moduli (GPa) = 125.85010 61.10709 121.03525
#
# Poissons Ratio (x) = 0.14852 0.42192
# Poissons Ratio (y) = 0.30588 -0.21174
# Poissons Ratio (z) = 0.43870 -0.10690
#
# Static dielectric constant tensor:
#      x y z
#    x 2.023290 0.000000 0.000000 
#    y 0.000000 2.151350 0.000000 
#    z 0.000000 0.000000 1.909290 
# 
# From -- ./inp_files/41685.got.cif
#   From: 2010.05.17/outbox.cif.g08.bks.cpg/sg52_21_cif.got.tgz:41685.got - 2010.06.03 12:15:38.
