data_PCOD9410233
_publ_section_title
;
Structure prediction by ZEFSAII (Michael W. Deem and Ramdas Pophale) SiO2 
 PCOD9410233
Probable space group: P N N A
;
_chemical_formula_sum "Si O2"
_cell_formula_units_Z 52
_cell_length_a 26.050486
_cell_length_b 10.329133
_cell_length_c 7.424787
_cell_angle_alpha 90.000000
_cell_angle_beta 90.000000
_cell_angle_gamma 90.000000
_cell_volume 1997.853776
_symmetry_space_group_name_H-M "P N N A"
_symmetry_group_IT_number 52
_symmetry_cell_setting 'orthorhombic'
loop_
_space_group_symop_operation_xyz
x,y,z
1/2-x,-y,z
x,1/2-y,1/2-z
1/2-x,1/2+y,1/2-z
-x,-y,-z
1/2+x,y,-z
-x,1/2+y,1/2+z
1/2+x,1/2-y,1/2+z
loop_
_atom_site_type_symbol
_atom_site_label
_atom_site_fract_x
_atom_site_fract_y
_atom_site_fract_z
Si Si1 0.611011 0.187092 0.049723
Si Si2 0.716001 0.258819 0.036861
Si Si3 0.579766 0.553803 0.994783
Si Si4 0.822103 0.179315 0.439721
Si Si5 0.638162 0.933044 0.865553
Si Si6 0.013057 0.296842 0.952147
Si Si7 0.750000 0.000000 0.838594
O O1 0.605747 0.250000 0.250000
O O2 0.658271 0.267958 0.962051
O O3 0.554413 0.198630 0.965215
O O4 0.627473 0.038187 0.022316
O O5 0.708358 0.250000 0.250000
O O6 0.763515 0.353799 0.001870
O O7 0.739952 0.126641 0.960995
O O8 0.593439 0.557303 0.781983
O O9 0.541155 0.671304 0.041283
O O10 0.635712 0.568248 0.082210
O O11 0.547287 0.428156 0.046556
O O12 0.815121 0.250000 0.250000
O O13 0.849991 0.289275 0.561769
O O14 0.691702 0.976594 0.770728
O O15 0.001250 0.250000 0.750000
#
# Coordination Sequence:
#
# PCOD9410233 Si02
#       7
#     8   8   8   8   8   8   4
#     4   9  19  37  65  91 124 166 209 259 312 373
#     4   8  15  32  54  90 121 160 203 251 302 370
#     4  11  24  44  64  94 125 165 213 263 324 383
#     4  10  21  36  63  96 128 166 210 254 315 382
#     4  10  20  39  66  93 132 166 206 265 322 378
#     4  10  23  44  66  86 128 161 215 264 313 381
#     4   8  16  32  58  90 126 162 200 252 318 382
#
# _framework density 26.027930999999999
#
# number of rings (size 3 to 8) (size 9 to 14) (size 15 to 20)
#    0.000    2.462    0.000    1.385    4.308    0.615 
#   11.077    3.846    0.000    0.000    0.000    0.000 
#    0.000    0.000    0.000    0.000    0.000    0.000 
#
# Total GULP energy -290020.153228 kJ/mol
# GULP energy per Si atom -5577.310639 kJ/mol
# Density = 2.596869 g / cm^3
# Si number density = 26.027931 Si / 1000 Ang^3
#
#
#
# Elastic Constant Matrix: (Units=GPa)
#
#
# Indices 1 2 3 4 5 6 
#
# 1 169.1438 19.7953 2.0377 0.0000 0.0000 0.0000
# 2 19.7953 65.3706 14.2223 0.0000 0.0000 0.0000
# 3 2.0377 14.2223 67.5442 0.0000 0.0000 0.0000
# 4 0.0000 0.0000 0.0000 33.8769 0.0000 0.0000
# 5 0.0000 0.0000 0.0000 0.0000 85.0801 0.0000
# 6 0.0000 0.0000 0.0000 0.0000 0.0000 39.2627
#
#
#
# Elastic Compliance Matrix: (Units=1/GPa)
#
#
# Indices 1 2 3 4 5 6 
#
# 1 0.006132 -0.001904 0.000216 0.000000 0.000000 0.000000
# 2 -0.001904 0.016623 -0.003443 0.000000 0.000000 0.000000
# 3 0.000216 -0.003443 0.015524 0.000000 0.000000 0.000000
# 4 0.000000 0.000000 0.000000 0.029519 0.000000 0.000000
# 5 0.000000 0.000000 0.000000 0.000000 0.011754 0.000000
# 6 0.000000 0.000000 0.000000 0.000000 0.000000 0.025469
#
#
# Mechanical properties :
#
#
# Convention : Reuss Voigt Hill
#
# Bulk Modulus (GPa) = 35.69230 41.57437 38.63334
# Shear Modulus (GPa) = 40.12158 49.37751 44.74954
#
# Velocity S-wave (km/s) = 3.93043 4.36029 4.15093
# Velocity P-wave (km/s) = 5.86008 6.43096 6.15214
#
# Compressibility (1/GPa) = 0.02801724
#
# Stress axis : x y z
#
# Youngs Moduli (GPa) = 163.06964 60.15771 64.41840
#
# Poissons Ratio (x) = 0.11454 -0.01391
# Poissons Ratio (y) = 0.31048 0.22178
# Poissons Ratio (z) = -0.03521 0.20711
#
# Static dielectric constant tensor:
#      x y z
#    x 2.139170 0.000000 0.000000 
#    y 0.000000 2.053600 0.000000 
#    z 0.000000 0.000000 2.066550 
# 
# From -- ./inp_files/14999.got.cif
#   From: 2010.05.17/outbox.cif.g08.bks.cpg/sg52_8_cif.got.tgz:14999.got - 2010.06.03 12:15:38.
