data_PCOD9410146
_publ_section_title
;
Structure prediction by ZEFSAII (Michael W. Deem and Ramdas Pophale) SiO2 
 PCOD9410146
Probable space group: P N N A
;
_chemical_formula_sum "Si O2"
_cell_formula_units_Z 32
_cell_length_a 18.283906
_cell_length_b 5.491852
_cell_length_c 13.631787
_cell_angle_alpha 90.000000
_cell_angle_beta 90.000000
_cell_angle_gamma 90.000000
_cell_volume 1368.801890
_symmetry_space_group_name_H-M "P N N A"
_symmetry_group_IT_number 52
_symmetry_cell_setting 'orthorhombic'
loop_
_space_group_symop_operation_xyz
x,y,z
1/2-x,-y,z
x,1/2-y,1/2-z
1/2-x,1/2+y,1/2-z
-x,-y,-z
1/2+x,y,-z
-x,1/2+y,1/2+z
1/2+x,1/2-y,1/2+z
loop_
_atom_site_type_symbol
_atom_site_label
_atom_site_fract_x
_atom_site_fract_y
_atom_site_fract_z
Si Si1 0.051275 0.750000 0.750000
Si Si2 0.400980 0.633509 0.857163
Si Si3 0.967617 0.090668 0.897372
Si Si4 0.675604 0.350926 0.546196
Si Si5 0.750000 0.000000 0.688591
O O1 0.104898 0.649542 0.834877
O O2 0.999471 0.566670 0.691950
O O3 0.385263 0.750000 0.750000
O O4 0.488146 0.659644 0.882161
O O5 0.355090 0.747912 0.943708
O O6 0.882589 0.038012 0.906412
O O7 0.000000 0.000000 0.000000
O O8 0.750000 0.500000 0.532953
O O9 0.688609 0.118794 0.617595
O O10 0.729993 0.750000 0.750000
#
# Coordination Sequence:
#
# PCOD9410146 Si02
#       5
#     4   8   8   8   4
#     4  10  20  38  68 104 138 188 244 312 368 446
#     4   9  21  45  73 106 143 192 249 310 376 451
#     4   9  21  40  67  98 135 183 240 301 360 437
#     4  11  25  45  73 108 151 198 251 312 385 459
#     4  12  28  52  70 106 154 208 250 308 382 466
#
# _framework density 23.378108000000001
#
# number of rings (size 3 to 8) (size 9 to 14) (size 15 to 20)
#    0.000    2.000    1.250    0.000    1.750   12.000 
#   11.250    0.000    2.750    0.000    0.000    0.000 
#    3.750    0.000    0.000    0.000    0.000    0.000 
#
# Total GULP energy -178247.583705 kJ/mol
# GULP energy per Si atom -5570.236991 kJ/mol
# Density = 2.332490 g / cm^3
# Si number density = 23.378108 Si / 1000 Ang^3
#
#
#
# Elastic Constant Matrix: (Units=GPa)
#
#
# Indices 1 2 3 4 5 6 
#
# 1 111.2607 60.3250 56.6091 0.0000 0.0000 0.0000
# 2 60.3250 93.7520 54.3308 0.0000 0.0000 0.0000
# 3 56.6091 54.3308 166.2952 0.0000 0.0000 0.0000
# 4 0.0000 0.0000 0.0000 49.4073 0.0000 0.0000
# 5 0.0000 0.0000 0.0000 0.0000 24.9922 0.0000
# 6 0.0000 0.0000 0.0000 0.0000 0.0000 22.5150
#
#
#
# Elastic Compliance Matrix: (Units=1/GPa)
#
#
# Indices 1 2 3 4 5 6 
#
# 1 0.014500 -0.007980 -0.002329 0.000000 0.000000 0.000000
# 2 -0.007980 0.017550 -0.003017 0.000000 0.000000 0.000000
# 3 -0.002329 -0.003017 0.007792 0.000000 0.000000 0.000000
# 4 0.000000 0.000000 0.000000 0.020240 0.000000 0.000000
# 5 0.000000 0.000000 0.000000 0.000000 0.040012 0.000000
# 6 0.000000 0.000000 0.000000 0.000000 0.000000 0.044415
#
#
# Mechanical properties :
#
#
# Convention : Reuss Voigt Hill
#
# Bulk Modulus (GPa) = 75.81992 79.31530 77.56761
# Shear Modulus (GPa) = 28.48076 32.71910 30.59993
#
# Velocity S-wave (km/s) = 3.49415 3.74513 3.62182
# Velocity P-wave (km/s) = 6.98436 7.25963 7.12332
#
# Compressibility (1/GPa) = 0.01318915
#
# Stress axis : x y z
#
# Youngs Moduli (GPa) = 68.96754 56.98036 128.33972
#
# Poissons Ratio (x) = 0.45472 0.29885
# Poissons Ratio (y) = 0.55039 0.38722
# Poissons Ratio (z) = 0.16060 0.17192
#
# Static dielectric constant tensor:
#      x y z
#    x 1.919910 0.000000 0.000000 
#    y 0.000000 2.650620 0.000000 
#    z 0.000000 0.000000 1.897570 
# 
# From -- ./inp_files/27720.got.cif
#   From: 2010.05.17/outbox.cif.g08.bks.cpg/sg52_14_cif.got.tgz:27720.got - 2010.06.03 12:15:38.
