data_PCOD9410501
_publ_section_title
;
Structure prediction by ZEFSAII (Michael W. Deem and Ramdas Pophale) SiO2 
 PCOD9410501
Probable space group: P N N A
;
_chemical_formula_sum "Si O2"
_cell_formula_units_Z 40
_cell_length_a 10.486733
_cell_length_b 16.527328
_cell_length_c 9.959922
_cell_angle_alpha 90.000000
_cell_angle_beta 90.000000
_cell_angle_gamma 90.000000
_cell_volume 1726.230534
_symmetry_space_group_name_H-M "P N N A"
_symmetry_group_IT_number 52
_symmetry_cell_setting 'orthorhombic'
loop_
_space_group_symop_operation_xyz
x,y,z
1/2-x,-y,z
x,1/2-y,1/2-z
1/2-x,1/2+y,1/2-z
-x,-y,-z
1/2+x,y,-z
-x,1/2+y,1/2+z
1/2+x,1/2-y,1/2+z
loop_
_atom_site_type_symbol
_atom_site_label
_atom_site_fract_x
_atom_site_fract_y
_atom_site_fract_z
Si Si1 0.181470 0.250000 0.750000
Si Si2 0.250000 0.500000 0.055654
Si Si3 0.378667 0.051461 0.948543
Si Si4 0.283937 0.700225 0.467909
Si Si5 0.124988 0.885498 0.654888
Si Si6 0.358088 0.651911 0.181196
O O1 0.136056 0.288768 0.606911
O O2 0.263029 0.176323 0.689622
O O3 0.159522 0.553353 0.961929
O O4 0.327384 0.560966 0.146033
O O5 0.396273 0.063121 0.789597
O O6 0.250000 0.000000 0.973179
O O7 0.337328 0.141529 0.003459
O O8 0.500000 0.000000 0.000000
O O9 0.356366 0.662286 0.340586
O O10 0.261896 0.788679 0.398966
O O11 0.999711 0.832667 0.627594
#
# Coordination Sequence:
#
# PCOD9410501 Si02
#       6
#     4   4   8   8   8   8
#     4  10  20  44  72  96 144 178 244 322 392 464
#     4  12  24  44  66 102 150 198 258 318 398 468
#     4  11  24  43  72 109 152 197 256 322 399 476
#     4  10  23  43  72 108 138 196 251 316 389 469
#     4  11  23  43  71 100 144 202 248 322 395 464
#     4  11  24  44  71 101 145 193 260 317 384 465
#
# _framework density 23.171876000000001
#
# number of rings (size 3 to 8) (size 9 to 14) (size 15 to 20)
#    0.000    1.200    3.000    3.000    4.200    1.600 
#    0.000    0.000    8.800    0.000    0.000    0.000 
#    0.000    0.000    0.000    0.000    0.000    0.000 
#
# Total GULP energy -223069.079690 kJ/mol
# GULP energy per Si atom -5576.726992 kJ/mol
# Density = 2.311914 g / cm^3
# Si number density = 23.171876 Si / 1000 Ang^3
#
#
#
# Elastic Constant Matrix: (Units=GPa)
#
#
# Indices 1 2 3 4 5 6 
#
# 1 80.7209 34.4521 36.1404 0.0000 0.0000 0.0000
# 2 34.4521 118.5274 60.7568 0.0000 0.0000 0.0000
# 3 36.1404 60.7568 167.1229 0.0000 0.0000 0.0000
# 4 0.0000 0.0000 0.0000 65.8892 0.0000 0.0000
# 5 0.0000 0.0000 0.0000 0.0000 25.7749 0.0000
# 6 0.0000 0.0000 0.0000 0.0000 0.0000 23.6026
#
#
#
# Elastic Compliance Matrix: (Units=1/GPa)
#
#
# Indices 1 2 3 4 5 6 
#
# 1 0.014664 -0.003241 -0.001993 0.000000 0.000000 0.000000
# 2 -0.003241 0.011085 -0.003329 0.000000 0.000000 0.000000
# 3 -0.001993 -0.003329 0.007625 0.000000 0.000000 0.000000
# 4 0.000000 0.000000 0.000000 0.015177 0.000000 0.000000
# 5 0.000000 0.000000 0.000000 0.000000 0.038797 0.000000
# 6 0.000000 0.000000 0.000000 0.000000 0.000000 0.042368
#
#
# Mechanical properties :
#
#
# Convention : Reuss Voigt Hill
#
# Bulk Modulus (GPa) = 61.54468 69.89666 65.72067
# Shear Modulus (GPa) = 32.83885 38.72145 35.78015
#
# Velocity S-wave (km/s) = 3.76864 4.09229 3.93379
# Velocity P-wave (km/s) = 6.74941 7.24976 7.00405
#
# Compressibility (1/GPa) = 0.01624836
#
# Stress axis : x y z
#
# Youngs Moduli (GPa) = 68.19517 90.20867 131.14901
#
# Poissons Ratio (x) = 0.29234 0.26137
# Poissons Ratio (y) = 0.22100 0.43663
# Poissons Ratio (z) = 0.13591 0.30033
#
# Static dielectric constant tensor:
#      x y z
#    x 2.089530 0.000000 0.000000 
#    y 0.000000 1.907130 0.000000 
#    z 0.000000 0.000000 1.864240 
# 
# From -- ./inp_files/8577.got.cif
#   From: 2010.05.17/outbox.cif.g08.bks.cpg/sg52_5_cif.got.tgz:8577.got - 2010.06.03 12:15:38.
