data_PCOD9410328
_publ_section_title
;
Structure prediction by ZEFSAII (Michael W. Deem and Ramdas Pophale) SiO2 
 PCOD9410328
Probable space group: P N N A
;
_chemical_formula_sum "Si O2"
_cell_formula_units_Z 36
_cell_length_a 8.271961
_cell_length_b 21.814251
_cell_length_c 8.771403
_cell_angle_alpha 90.000000
_cell_angle_beta 90.000000
_cell_angle_gamma 90.000000
_cell_volume 1582.770143
_symmetry_space_group_name_H-M "P N N A"
_symmetry_group_IT_number 52
_symmetry_cell_setting 'orthorhombic'
loop_
_space_group_symop_operation_xyz
x,y,z
1/2-x,-y,z
x,1/2-y,1/2-z
1/2-x,1/2+y,1/2-z
-x,-y,-z
1/2+x,y,-z
-x,1/2+y,1/2+z
1/2+x,1/2-y,1/2+z
loop_
_atom_site_type_symbol
_atom_site_label
_atom_site_fract_x
_atom_site_fract_y
_atom_site_fract_z
Si Si1 0.452130 0.422896 0.389010
Si Si2 0.750000 0.000000 0.645711
Si Si3 0.053682 0.379746 0.062459
Si Si4 0.694263 0.565528 0.293867
Si Si5 0.852865 0.319607 0.791270
O O1 0.377205 0.466947 0.258828
O O2 0.638731 0.409175 0.359565
O O3 0.417279 0.445780 0.558374
O O4 0.358579 0.359485 0.362008
O O5 0.847065 0.944997 0.560007
O O6 0.178308 0.331290 0.133377
O O7 0.903671 0.394271 0.174382
O O8 0.980211 0.351687 0.908170
O O9 0.750000 0.500000 0.229700
O O10 0.886637 0.250000 0.750000
#
# Coordination Sequence:
#
# PCOD9410328 Si02
#       5
#     8   4   8   8   8
#     4  11  22  39  69 106 146 188 230 289 353 424
#     4  10  20  40  68 110 146 178 234 290 366 424
#     4  11  25  45  73 105 140 189 234 297 364 421
#     4  12  22  41  68 108 149 185 225 286 358 434
#     4  11  27  50  69 101 142 190 245 295 349 424
#
# _framework density 22.744934000000001
#
# number of rings (size 3 to 8) (size 9 to 14) (size 15 to 20)
#    0.000    0.889    3.333    4.667    0.000    7.111 
#   10.000    2.222    0.000    0.000    0.000    0.000 
#    0.000    0.000    0.000    0.000    0.000    0.000 
#
# Total GULP energy -201397.716101 kJ/mol
# GULP energy per Si atom -5594.381003 kJ/mol
# Density = 2.269317 g / cm^3
# Si number density = 22.744934 Si / 1000 Ang^3
#
#
#
# Elastic Constant Matrix: (Units=GPa)
#
#
# Indices 1 2 3 4 5 6 
#
# 1 143.0332 37.3512 64.9565 0.0000 0.0000 0.0000
# 2 37.3512 140.8659 69.2301 0.0000 0.0000 0.0000
# 3 64.9565 69.2301 114.1947 0.0000 0.0000 0.0000
# 4 0.0000 0.0000 0.0000 28.4614 0.0000 0.0000
# 5 0.0000 0.0000 0.0000 0.0000 47.4398 0.0000
# 6 0.0000 0.0000 0.0000 0.0000 0.0000 26.7417
#
#
#
# Elastic Compliance Matrix: (Units=1/GPa)
#
#
# Indices 1 2 3 4 5 6 
#
# 1 0.009430 0.000193 -0.005481 0.000000 0.000000 0.000000
# 2 0.000193 0.010116 -0.006243 0.000000 0.000000 0.000000
# 3 -0.005481 -0.006243 0.015659 0.000000 0.000000 0.000000
# 4 0.000000 0.000000 0.000000 0.035135 0.000000 0.000000
# 5 0.000000 0.000000 0.000000 0.000000 0.021079 0.000000
# 6 0.000000 0.000000 0.000000 0.000000 0.000000 0.037395
#
#
# Mechanical properties :
#
#
# Convention : Reuss Voigt Hill
#
# Bulk Modulus (GPa) = 82.34383 82.35216 82.34800
# Shear Modulus (GPa) = 32.06697 35.63232 33.84965
#
# Velocity S-wave (km/s) = 3.75887 3.96233 3.86194
# Velocity P-wave (km/s) = 7.42432 7.56431 7.49464
#
# Compressibility (1/GPa) = 0.01214420
#
# Stress axis : x y z
#
# Youngs Moduli (GPa) = 106.04286 98.85661 63.85926
#
# Poissons Ratio (x) = -0.01912 0.35003
# Poissons Ratio (y) = -0.02051 0.39865
# Poissons Ratio (z) = 0.58126 0.61712
#
# Static dielectric constant tensor:
#      x y z
#    x 1.876070 0.000000 0.000000 
#    y 0.000000 1.845380 0.000000 
#    z 0.000000 0.000000 1.867100 
# 
# From -- ./inp_files/7283.got.cif
#   From: 2010.05.17/outbox.cif.g08.bks.cpg/sg52_4_cif.got.tgz:7283.got - 2010.06.03 12:15:38.
