data_PCOD9410937
_publ_section_title
;
Structure prediction by ZEFSAII (Michael W. Deem and Ramdas Pophale) SiO2 
 PCOD9410937
Probable space group: P N N A
;
_chemical_formula_sum "Si O2"
_cell_formula_units_Z 56
_cell_length_a 23.413453
_cell_length_b 8.787465
_cell_length_c 14.481331
_cell_angle_alpha 90.000000
_cell_angle_beta 90.000000
_cell_angle_gamma 90.000000
_cell_volume 2979.459981
_symmetry_space_group_name_H-M "P N N A"
_symmetry_group_IT_number 52
_symmetry_cell_setting 'orthorhombic'
loop_
_space_group_symop_operation_xyz
x,y,z
1/2-x,-y,z
x,1/2-y,1/2-z
1/2-x,1/2+y,1/2-z
-x,-y,-z
1/2+x,y,-z
-x,1/2+y,1/2+z
1/2+x,1/2-y,1/2+z
loop_
_atom_site_type_symbol
_atom_site_label
_atom_site_fract_x
_atom_site_fract_y
_atom_site_fract_z
Si Si1 0.831782 0.250000 0.250000
Si Si2 0.117714 0.971438 0.078901
Si Si3 0.133641 0.034328 0.443724
Si Si4 0.750000 0.500000 0.331884
Si Si5 0.587651 0.767626 0.427573
Si Si6 0.540688 0.262199 0.640656
Si Si7 0.709768 0.298800 0.501070
Si Si8 0.694794 0.725382 0.849334
O O1 0.793272 0.399198 0.271096
O O2 0.872100 0.226370 0.338372
O O3 0.141566 0.842599 0.147432
O O4 0.065596 0.072201 0.114652
O O5 0.101415 0.884290 0.985342
O O6 0.169630 0.085361 0.057293
O O7 0.086145 0.139818 0.397083
O O8 0.175257 0.141564 0.503487
O O9 0.104048 0.908122 0.506995
O O10 0.171619 0.943541 0.368633
O O11 0.722778 0.376645 0.403224
O O12 0.521413 0.767037 0.401436
O O13 0.536949 0.250000 0.750000
O O14 0.765580 0.268557 0.563413
O O15 0.723719 0.750000 0.750000
#
# Coordination Sequence:
#
# PCOD9410937 Si02
#       8
#     4   8   8   4   8   8   8   8
#     4  12  26  40  70  92 124 160 212 264 308 384
#     4  10  21  39  61  86 124 170 204 253 321 369
#     4  10  24  38  62  89 125 169 205 250 325 370
#     4  12  24  44  62  94 126 164 204 262 328 374
#     4  11  22  45  61  91 122 165 210 263 317 369
#     4  11  22  39  66  91 121 161 216 263 306 370
#     4  11  21  40  60  87 129 166 199 253 314 386
#     4  11  21  36  59  92 132 164 211 250 301 375
#
# _framework density 18.795352000000001
#
# number of rings (size 3 to 8) (size 9 to 14) (size 15 to 20)
#    0.000    1.143    3.571    3.000    2.000    4.571 
#    0.000    0.000    0.000    3.429    0.000    0.000 
#    0.000    0.000    0.000    0.000    0.000    0.000 
#
# Total GULP energy -312862.923078 kJ/mol
# GULP energy per Si atom -5586.837912 kJ/mol
# Density = 1.875257 g / cm^3
# Si number density = 18.795352 Si / 1000 Ang^3
#
#
#
# Elastic Constant Matrix: (Units=GPa)
#
#
# Indices 1 2 3 4 5 6 
#
# 1 100.3886 44.3112 21.5415 0.0000 0.0000 0.0000
# 2 44.3112 101.7778 17.3146 0.0000 0.0000 0.0000
# 3 21.5415 17.3146 62.1983 0.0000 0.0000 0.0000
# 4 0.0000 0.0000 0.0000 26.3725 0.0000 0.0000
# 5 0.0000 0.0000 0.0000 0.0000 6.6224 0.0000
# 6 0.0000 0.0000 0.0000 0.0000 0.0000 18.2288
#
#
#
# Elastic Compliance Matrix: (Units=1/GPa)
#
#
# Indices 1 2 3 4 5 6 
#
# 1 0.012856 -0.005080 -0.003038 0.000000 0.000000 0.000000
# 2 -0.005080 0.012321 -0.001671 0.000000 0.000000 0.000000
# 3 -0.003038 -0.001671 0.017595 0.000000 0.000000 0.000000
# 4 0.000000 0.000000 0.000000 0.037918 0.000000 0.000000
# 5 0.000000 0.000000 0.000000 0.000000 0.151003 0.000000
# 6 0.000000 0.000000 0.000000 0.000000 0.000000 0.054858
#
#
# Mechanical properties :
#
#
# Convention : Reuss Voigt Hill
#
# Bulk Modulus (GPa) = 43.11440 47.85548 45.48494
# Shear Modulus (GPa) = 15.93067 22.32457 19.12762
#
# Velocity S-wave (km/s) = 2.91449 3.45014 3.19357
# Velocity P-wave (km/s) = 5.85784 6.43335 6.15233
#
# Compressibility (1/GPa) = 0.02319411
#
# Stress axis : x y z
#
# Youngs Moduli (GPa) = 77.78736 81.16055 56.83476
#
# Poissons Ratio (x) = 0.41230 0.17267
# Poissons Ratio (y) = 0.39517 0.09494
# Poissons Ratio (z) = 0.23633 0.13558
#
# Static dielectric constant tensor:
#      x y z
#    x 1.649150 0.000000 0.000000 
#    y 0.000000 1.652400 0.000000 
#    z 0.000000 0.000000 1.643580 
# 
# From -- ./inp_files/28819.got.cif
#   From: 2010.05.17/outbox.cif.g08.bks.cpg/sg52_15_cif.got.tgz:28819.got - 2010.06.03 12:15:38.
