data_PCOD9410628
_publ_section_title
;
Structure prediction by ZEFSAII (Michael W. Deem and Ramdas Pophale) SiO2 
 PCOD9410628
Probable space group: P N N A
;
_chemical_formula_sum "Si O2"
_cell_formula_units_Z 64
_cell_length_a 12.155269
_cell_length_b 9.201389
_cell_length_c 27.649466
_cell_angle_alpha 90.000000
_cell_angle_beta 90.000000
_cell_angle_gamma 90.000000
_cell_volume 3092.464436
_symmetry_space_group_name_H-M "P N N A"
_symmetry_group_IT_number 52
_symmetry_cell_setting 'orthorhombic'
loop_
_space_group_symop_operation_xyz
x,y,z
1/2-x,-y,z
x,1/2-y,1/2-z
1/2-x,1/2+y,1/2-z
-x,-y,-z
1/2+x,y,-z
-x,1/2+y,1/2+z
1/2+x,1/2-y,1/2+z
loop_
_atom_site_type_symbol
_atom_site_label
_atom_site_fract_x
_atom_site_fract_y
_atom_site_fract_z
Si Si1 0.525007 0.574872 0.580620
Si Si2 0.360540 0.078007 0.640916
Si Si3 0.630191 0.448956 0.983816
Si Si4 0.561784 0.911812 0.251433
Si Si5 0.351866 0.898109 0.006513
Si Si6 0.146045 0.902140 0.275755
Si Si7 0.359107 0.415293 0.645046
Si Si8 0.422686 0.100178 0.386540
O O1 0.438935 0.585134 0.536641
O O2 0.615926 0.471129 0.557566
O O3 0.464534 0.497921 0.624721
O O4 0.562258 0.735130 0.595254
O O5 0.369540 0.075967 0.699331
O O6 0.361180 0.248260 0.627508
O O7 0.250000 0.000000 0.625332
O O8 0.462021 0.984358 0.621547
O O9 0.750000 0.500000 0.007065
O O10 0.646413 0.275320 0.985815
O O11 0.632971 0.511541 0.929606
O O12 0.500000 0.500000 0.000000
O O13 0.510652 0.750000 0.250000
O O14 0.632592 0.921814 0.203092
O O15 0.465458 0.027757 0.255050
O O16 0.250000 0.000000 0.990797
O O17 0.160823 0.750000 0.250000
O O18 0.133770 0.895105 0.334005
O O19 0.250000 0.000000 0.264078
O O20 0.250000 0.500000 0.629533
#
# Coordination Sequence:
#
# PCOD9410628 Si02
#       8
#     8   8   8   8   8   8   8   8
#     4  11  23  42  65  94 132 170 228 282 358 413
#     4  10  21  36  59  91 130 172 221 277 340 413
#     4  12  26  48  74 105 139 189 241 302 368 441
#     4   9  20  38  59  84 123 166 213 270 334 408
#     4  11  25  44  69  96 136 179 229 291 361 434
#     4  11  23  40  64  94 129 171 220 277 344 417
#     4  11  21  37  59  90 126 169 220 275 343 419
#     4  11  23  44  67  99 134 179 233 292 348 432
#
# _framework density 20.695468999999999
#
# number of rings (size 3 to 8) (size 9 to 14) (size 15 to 20)
#    0.000    1.250    1.250    4.500    1.750    1.500 
#    2.250    6.875    0.000    0.000    0.000    0.000 
#    0.000    0.000    0.000    0.000    0.000    0.000 
#
# Total GULP energy -356983.005458 kJ/mol
# GULP energy per Si atom -5577.859460 kJ/mol
# Density = 2.064837 g / cm^3
# Si number density = 20.695469 Si / 1000 Ang^3
#
#
#
# Elastic Constant Matrix: (Units=GPa)
#
#
# Indices 1 2 3 4 5 6 
#
# 1 87.3524 59.3930 17.0644 0.0000 0.0000 0.0000
# 2 59.3930 183.4773 33.0765 0.0000 0.0000 0.0000
# 3 17.0644 33.0765 58.1923 0.0000 0.0000 0.0000
# 4 0.0000 0.0000 0.0000 30.6572 0.0000 0.0000
# 5 0.0000 0.0000 0.0000 0.0000 7.4097 0.0000
# 6 0.0000 0.0000 0.0000 0.0000 0.0000 34.2401
#
#
#
# Elastic Compliance Matrix: (Units=1/GPa)
#
#
# Indices 1 2 3 4 5 6 
#
# 1 0.014847 -0.004480 -0.001807 0.000000 0.000000 0.000000
# 2 -0.004480 0.007425 -0.002906 0.000000 0.000000 0.000000
# 3 -0.001807 -0.002906 0.019366 0.000000 0.000000 0.000000
# 4 0.000000 0.000000 0.000000 0.032619 0.000000 0.000000
# 5 0.000000 0.000000 0.000000 0.000000 0.134958 0.000000
# 6 0.000000 0.000000 0.000000 0.000000 0.000000 0.029206
#
#
# Mechanical properties :
#
#
# Convention : Reuss Voigt Hill
#
# Bulk Modulus (GPa) = 43.01007 60.89889 51.95448
# Shear Modulus (GPa) = 18.89942 29.09393 23.99668
#
# Velocity S-wave (km/s) = 3.02522 3.75348 3.40886
# Velocity P-wave (km/s) = 5.74718 6.94802 6.37593
#
# Compressibility (1/GPa) = 0.02325037
#
# Stress axis : x y z
#
# Youngs Moduli (GPa) = 67.35264 134.68874 51.63614
#
# Poissons Ratio (x) = 0.60346 0.09332
# Poissons Ratio (y) = 0.30176 0.15007
# Poissons Ratio (z) = 0.12172 0.39144
#
# Static dielectric constant tensor:
#      x y z
#    x 1.841920 0.000000 0.000000 
#    y 0.000000 1.743110 0.000000 
#    z 0.000000 0.000000 1.748020 
# 
# From -- ./inp_files/44859.got.cif
#   From: 2010.05.17/outbox.cif.g08.bks.cpg/sg52_23_cif.got.tgz:44859.got - 2010.06.03 12:15:38.
