data_PCOD9410548
_publ_section_title
;
Structure prediction by ZEFSAII (Michael W. Deem and Ramdas Pophale) SiO2 
 PCOD9410548
Probable space group: P N N A
;
_chemical_formula_sum "Si O2"
_cell_formula_units_Z 48
_cell_length_a 34.487164
_cell_length_b 6.753327
_cell_length_c 8.640238
_cell_angle_alpha 90.000000
_cell_angle_beta 90.000000
_cell_angle_gamma 90.000000
_cell_volume 2012.338179
_symmetry_space_group_name_H-M "P N N A"
_symmetry_group_IT_number 52
_symmetry_cell_setting 'orthorhombic'
loop_
_space_group_symop_operation_xyz
x,y,z
1/2-x,-y,z
x,1/2-y,1/2-z
1/2-x,1/2+y,1/2-z
-x,-y,-z
1/2+x,y,-z
-x,1/2+y,1/2+z
1/2+x,1/2-y,1/2+z
loop_
_atom_site_type_symbol
_atom_site_label
_atom_site_fract_x
_atom_site_fract_y
_atom_site_fract_z
Si Si1 0.928441 0.377171 0.447571
Si Si2 0.292300 0.592210 0.545820
Si Si3 0.672203 0.474086 0.116832
Si Si4 0.505570 0.222702 0.432713
Si Si5 0.648397 0.850347 0.912446
Si Si6 0.914950 0.940645 0.395378
O O1 0.891304 0.459792 0.537803
O O2 0.918957 0.143378 0.490321
O O3 0.923947 0.460212 0.273374
O O4 0.974313 0.362299 0.481492
O O5 0.250000 0.500000 0.550266
O O6 0.314453 0.523497 0.704501
O O7 0.295937 0.829267 0.543010
O O8 0.317087 0.506975 0.405963
O O9 0.629352 0.376000 0.104898
O O10 0.664290 0.682928 0.034093
O O11 0.497278 0.250000 0.250000
O O12 0.500000 0.000000 0.500000
O O13 0.552934 0.222110 0.443334
O O14 0.642222 0.750000 0.750000
#
# Coordination Sequence:
#
# PCOD9410548 Si02
#       6
#     8   8   8   8   8   8
#     4   9  18  37  59  88 128 173 222 266 333 394
#     4  11  25  42  68 100 124 167 223 276 329 396
#     4  10  23  42  70  98 129 168 226 276 323 405
#     4  10  21  34  56  87 121 163 219 272 325 388
#     4  11  23  42  67  95 138 180 208 269 345 405
#     4   9  18  36  62  88 124 174 220 275 328 388
#
# _framework density 23.852851999999999
#
# number of rings (size 3 to 8) (size 9 to 14) (size 15 to 20)
#    0.000    2.000    1.667    1.000    7.000    1.333 
#    3.000    1.667    0.000    6.000    0.000    0.000 
#    0.000    0.000    0.000    0.000    0.000    0.000 
#
# Total GULP energy -267341.319787 kJ/mol
# GULP energy per Si atom -5569.610829 kJ/mol
# Density = 2.379856 g / cm^3
# Si number density = 23.852852 Si / 1000 Ang^3
#
#
#
# Elastic Constant Matrix: (Units=GPa)
#
#
# Indices 1 2 3 4 5 6 
#
# 1 190.6940 41.0983 14.2450 0.0000 0.0000 0.0000
# 2 41.0983 68.6387 0.1236 0.0000 0.0000 0.0000
# 3 14.2450 0.1236 42.6705 0.0000 0.0000 0.0000
# 4 0.0000 0.0000 0.0000 38.3484 0.0000 0.0000
# 5 0.0000 0.0000 0.0000 0.0000 22.5448 0.0000
# 6 0.0000 0.0000 0.0000 0.0000 0.0000 40.2468
#
#
#
# Elastic Compliance Matrix: (Units=1/GPa)
#
#
# Indices 1 2 3 4 5 6 
#
# 1 0.006197 -0.003707 -0.002058 0.000000 0.000000 0.000000
# 2 -0.003707 0.016786 0.001189 0.000000 0.000000 0.000000
# 3 -0.002058 0.001189 0.024119 0.000000 0.000000 0.000000
# 4 0.000000 0.000000 0.000000 0.026077 0.000000 0.000000
# 5 0.000000 0.000000 0.000000 0.000000 0.044356 0.000000
# 6 0.000000 0.000000 0.000000 0.000000 0.000000 0.024847
#
#
# Mechanical properties :
#
#
# Convention : Reuss Voigt Hill
#
# Bulk Modulus (GPa) = 26.35023 45.88191 36.11607
# Shear Modulus (GPa) = 30.45386 36.66376 33.55881
#
# Velocity S-wave (km/s) = 3.57702 3.92482 3.75495
# Velocity P-wave (km/s) = 5.30388 6.31000 5.82869
#
# Compressibility (1/GPa) = 0.03795033
#
# Stress axis : x y z
#
# Youngs Moduli (GPa) = 161.37963 59.57257 41.46116
#
# Poissons Ratio (x) = 0.22081 0.08532
# Poissons Ratio (y) = 0.59816 -0.04929
# Poissons Ratio (z) = 0.33210 -0.07082
#
# Static dielectric constant tensor:
#      x y z
#    x 1.971370 0.000000 0.000000 
#    y 0.000000 2.095410 0.000000 
#    z 0.000000 0.000000 1.807720 
# 
# From -- ./inp_files/15474.got.cif
#   From: 2010.05.17/outbox.cif.g08.bks.cpg/sg52_8_cif.got.tgz:15474.got - 2010.06.03 12:15:38.
