data_PCOD9410844
_publ_section_title
;
Structure prediction by ZEFSAII (Michael W. Deem and Ramdas Pophale) SiO2 
 PCOD9410844
Probable space group: P N N A
;
_chemical_formula_sum "Si O2"
_cell_formula_units_Z 56
_cell_length_a 15.027769
_cell_length_b 21.142494
_cell_length_c 7.650812
_cell_angle_alpha 90.000000
_cell_angle_beta 90.000000
_cell_angle_gamma 90.000000
_cell_volume 2430.850539
_symmetry_space_group_name_H-M "P N N A"
_symmetry_group_IT_number 52
_symmetry_cell_setting 'orthorhombic'
loop_
_space_group_symop_operation_xyz
x,y,z
1/2-x,-y,z
x,1/2-y,1/2-z
1/2-x,1/2+y,1/2-z
-x,-y,-z
1/2+x,y,-z
-x,1/2+y,1/2+z
1/2+x,1/2-y,1/2+z
loop_
_atom_site_type_symbol
_atom_site_label
_atom_site_fract_x
_atom_site_fract_y
_atom_site_fract_z
Si Si1 0.840581 0.538329 0.793507
Si Si2 0.773405 0.268239 0.461671
Si Si3 0.036875 0.111566 0.513784
Si Si4 0.928808 0.745813 0.439244
Si Si5 0.559307 0.658810 0.331529
Si Si6 0.278003 0.152480 0.307656
Si Si7 0.434213 0.072670 0.165080
O O1 0.750000 0.500000 0.828918
O O2 0.906355 0.551415 0.951806
O O3 0.807090 0.609378 0.759217
O O4 0.899787 0.499404 0.655990
O O5 0.670440 0.281522 0.413873
O O6 0.847244 0.302829 0.342435
O O7 0.779915 0.194234 0.517387
O O8 0.788908 0.301846 0.645245
O O9 0.082623 0.180586 0.514630
O O10 0.966041 0.128073 0.355661
O O11 0.016397 0.092110 0.714129
O O12 0.977279 0.750000 0.250000
O O13 0.985746 0.707541 0.583102
O O14 0.563858 0.603742 0.476555
O O15 0.360464 0.105712 0.290563
#
# Coordination Sequence:
#
# PCOD9410844 Si02
#       7
#     8   8   8   8   8   8   8
#     4  10  21  40  67  95 128 181 229 276 341 407
#     4  10  21  38  62  97 132 170 216 274 337 407
#     4  12  23  42  66  94 132 179 228 277 343 413
#     4  12  24  39  63  97 136 171 217 284 342 406
#     4  11  25  42  67 102 134 177 225 278 346 412
#     4   9  18  36  65  90 126 170 215 269 341 399
#     4  10  22  41  65  92 128 171 223 280 330 404
#
# _framework density 23.037203000000002
#
# number of rings (size 3 to 8) (size 9 to 14) (size 15 to 20)
#    0.000    1.429    2.857    2.571    4.000    2.857 
#    0.000    0.000    0.000    5.143    0.000    0.000 
#    0.000    0.000    0.000    0.000    0.000    0.000 
#
# Total GULP energy -311752.907630 kJ/mol
# GULP energy per Si atom -5567.016208 kJ/mol
# Density = 2.298477 g / cm^3
# Si number density = 23.037203 Si / 1000 Ang^3
#
#
#
# Elastic Constant Matrix: (Units=GPa)
#
#
# Indices 1 2 3 4 5 6 
#
# 1 72.8265 10.1037 8.3262 0.0000 0.0000 0.0000
# 2 10.1037 79.3833 18.4703 0.0000 0.0000 0.0000
# 3 8.3262 18.4703 106.6999 0.0000 0.0000 0.0000
# 4 0.0000 0.0000 0.0000 30.1444 0.0000 0.0000
# 5 0.0000 0.0000 0.0000 0.0000 18.7877 0.0000
# 6 0.0000 0.0000 0.0000 0.0000 0.0000 28.8775
#
#
#
# Elastic Compliance Matrix: (Units=1/GPa)
#
#
# Indices 1 2 3 4 5 6 
#
# 1 0.014047 -0.001597 -0.000820 0.000000 0.000000 0.000000
# 2 -0.001597 0.013307 -0.002179 0.000000 0.000000 0.000000
# 3 -0.000820 -0.002179 0.009813 0.000000 0.000000 0.000000
# 4 0.000000 0.000000 0.000000 0.033174 0.000000 0.000000
# 5 0.000000 0.000000 0.000000 0.000000 0.053226 0.000000
# 6 0.000000 0.000000 0.000000 0.000000 0.000000 0.034629
#
#
# Mechanical properties :
#
#
# Convention : Reuss Voigt Hill
#
# Bulk Modulus (GPa) = 35.74522 36.96780 36.35651
# Shear Modulus (GPa) = 28.29451 30.36256 29.32854
#
# Velocity S-wave (km/s) = 3.50838 3.63434 3.57192
# Velocity P-wave (km/s) = 5.65346 5.80457 5.72952
#
# Compressibility (1/GPa) = 0.02797577
#
# Stress axis : x y z
#
# Youngs Moduli (GPa) = 71.19185 75.14636 101.90331
#
# Poissons Ratio (x) = 0.12002 0.08352
# Poissons Ratio (y) = 0.11370 0.22204
# Poissons Ratio (z) = 0.05835 0.16374
#
# Static dielectric constant tensor:
#      x y z
#    x 1.990360 0.000000 0.000000 
#    y 0.000000 1.900680 0.000000 
#    z 0.000000 0.000000 2.080540 
# 
# From -- ./inp_files/10825.got.cif
#   From: 2010.05.17/outbox.cif.g08.bks.cpg/sg52_6_cif.got.tgz:10825.got - 2010.06.03 12:15:38.
