data_PCOD9410434
_publ_section_title
;
Structure prediction by ZEFSAII (Michael W. Deem and Ramdas Pophale) SiO2 
 PCOD9410434
Probable space group: P N N A
;
_chemical_formula_sum "Si O2"
_cell_formula_units_Z 44
_cell_length_a 8.576276
_cell_length_b 8.840967
_cell_length_c 29.539931
_cell_angle_alpha 90.000000
_cell_angle_beta 90.000000
_cell_angle_gamma 90.000000
_cell_volume 2239.793578
_symmetry_space_group_name_H-M "P N N A"
_symmetry_group_IT_number 52
_symmetry_cell_setting 'orthorhombic'
loop_
_space_group_symop_operation_xyz
x,y,z
1/2-x,-y,z
x,1/2-y,1/2-z
1/2-x,1/2+y,1/2-z
-x,-y,-z
1/2+x,y,-z
-x,1/2+y,1/2+z
1/2+x,1/2-y,1/2+z
loop_
_atom_site_type_symbol
_atom_site_label
_atom_site_fract_x
_atom_site_fract_y
_atom_site_fract_z
Si Si1 0.825738 0.337525 0.616967
Si Si2 0.750000 0.000000 0.496395
Si Si3 0.110974 0.696793 0.698845
Si Si4 0.491784 0.637274 0.937054
Si Si5 0.536374 0.340171 0.298021
Si Si6 0.102038 0.090590 0.362324
O O1 0.750000 0.500000 0.614647
O O2 0.962472 0.301037 0.581743
O O3 0.691688 0.214630 0.607425
O O4 0.898189 0.308951 0.666793
O O5 0.877797 0.078661 0.527857
O O6 0.668515 0.120359 0.463256
O O7 0.114207 0.750000 0.750000
O O8 0.291762 0.704810 0.683333
O O9 0.049600 0.523836 0.702184
O O10 0.004065 0.811677 0.670885
O O11 0.505925 0.524386 0.893743
O O12 0.515025 0.250000 0.250000
O O13 0.250000 0.000000 0.340948
#
# Coordination Sequence:
#
# PCOD9410434 Si02
#       6
#     8   4   8   8   8   8
#     4  11  21  40  58  87 123 158 200 253 305 368
#     4  10  20  42  66  90 120 146 204 244 316 374
#     4  10  22  40  58  84 124 162 213 263 290 367
#     4  10  22  39  66  90 118 157 194 254 303 382
#     4  10  23  39  58  86 121 166 212 255 309 357
#     4  10  21  39  58  89 118 162 199 247 304 361
#
# _framework density 19.644666000000001
#
# number of rings (size 3 to 8) (size 9 to 14) (size 15 to 20)
#    0.000    1.818    4.545    0.000    7.636    0.727 
#    0.000    0.909    0.000    0.000    0.000    0.000 
#    0.000    0.000    0.000    0.000    0.000    0.000 
#
# Total GULP energy -245198.811318 kJ/mol
# GULP energy per Si atom -5572.700257 kJ/mol
# Density = 1.959995 g / cm^3
# Si number density = 19.644666 Si / 1000 Ang^3
#
#
#
# Elastic Constant Matrix: (Units=GPa)
#
#
# Indices 1 2 3 4 5 6 
#
# 1 44.8788 38.9389 30.8673 0.0000 0.0000 0.0000
# 2 38.9389 109.3834 37.1417 0.0000 0.0000 0.0000
# 3 30.8673 37.1417 65.6333 0.0000 0.0000 0.0000
# 4 0.0000 0.0000 0.0000 7.6339 0.0000 0.0000
# 5 0.0000 0.0000 0.0000 0.0000 624.1768 0.0000
# 6 0.0000 0.0000 0.0000 0.0000 0.0000 28.3381
#
#
#
# Elastic Compliance Matrix: (Units=1/GPa)
#
#
# Indices 1 2 3 4 5 6 
#
# 1 0.039770 -0.009663 -0.013235 0.000000 0.000000 0.000000
# 2 -0.009663 0.013665 -0.003188 0.000000 0.000000 0.000000
# 3 -0.013235 -0.003188 0.023265 0.000000 0.000000 0.000000
# 4 0.000000 0.000000 0.000000 0.130994 0.000000 0.000000
# 5 0.000000 0.000000 0.000000 0.000000 0.001602 0.000000
# 6 0.000000 0.000000 0.000000 0.000000 0.000000 0.035288
#
#
# Mechanical properties :
#
#
# Convention : Reuss Voigt Hill
#
# Bulk Modulus (GPa) = 40.77335 48.19903 44.48619
# Shear Modulus (GPa) = 16.39710 139.55962 77.97836
#
# Velocity S-wave (km/s) = 2.89222 8.43779 6.30719
# Velocity P-wave (km/s) = 5.65277 10.93238 8.70261
#
# Compressibility (1/GPa) = 0.02452582
#
# Stress axis : x y z
#
# Youngs Moduli (GPa) = 25.14485 73.18122 42.98335
#
# Poissons Ratio (x) = 0.70717 0.56889
# Poissons Ratio (y) = 0.24298 0.13704
# Poissons Ratio (z) = 0.33280 0.23331
#
# Static dielectric constant tensor:
#      x y z
#    x 1.763110 0.000000 0.000000 
#    y 0.000000 1.961730 0.000000 
#    z 0.000000 0.000000 1.684900 
# 
# From -- ./inp_files/44260.got.cif
#   From: 2010.05.17/outbox.cif.g08.bks.cpg/sg52_23_cif.got.tgz:44260.got - 2010.06.03 12:15:38.
