data_PCOD9410303
_publ_section_title
;
Structure prediction by ZEFSAII (Michael W. Deem and Ramdas Pophale) SiO2 
 PCOD9410303
Probable space group: P N N A
;
_chemical_formula_sum "Si O2"
_cell_formula_units_Z 56
_cell_length_a 8.293762
_cell_length_b 15.083075
_cell_length_c 20.315726
_cell_angle_alpha 90.000000
_cell_angle_beta 90.000000
_cell_angle_gamma 90.000000
_cell_volume 2541.404567
_symmetry_space_group_name_H-M "P N N A"
_symmetry_group_IT_number 52
_symmetry_cell_setting 'orthorhombic'
loop_
_space_group_symop_operation_xyz
x,y,z
1/2-x,-y,z
x,1/2-y,1/2-z
1/2-x,1/2+y,1/2-z
-x,-y,-z
1/2+x,y,-z
-x,1/2+y,1/2+z
1/2+x,1/2-y,1/2+z
loop_
_atom_site_type_symbol
_atom_site_label
_atom_site_fract_x
_atom_site_fract_y
_atom_site_fract_z
Si Si1 0.357404 0.636476 0.978205
Si Si2 0.531677 0.343450 0.222704
Si Si3 0.950282 0.702070 0.559851
Si Si4 0.798023 0.232000 0.357795
Si Si5 0.137553 0.575261 0.098420
Si Si6 0.852265 0.411840 0.536046
Si Si7 0.881159 0.577968 0.351949
O O1 0.243486 0.673003 0.921277
O O2 0.472932 0.563502 0.944459
O O3 0.454451 0.722280 0.003672
O O4 0.259741 0.609060 0.042345
O O5 0.470146 0.250000 0.250000
O O6 0.719064 0.324471 0.200920
O O7 0.429801 0.366472 0.158139
O O8 0.533867 0.415893 0.280215
O O9 0.018146 0.739925 0.628571
O O10 0.067156 0.626720 0.529883
O O11 0.772887 0.661578 0.562816
O O12 0.700062 0.324546 0.359036
O O13 0.250000 0.500000 0.129631
O O14 0.750000 0.500000 0.522984
O O15 0.989138 0.430077 0.589970
O O16 0.750000 0.500000 0.353261
#
# Coordination Sequence:
#
# PCOD9410303 Si02
#       7
#     8   8   8   8   8   8   8
#     4  11  20  38  65  95 131 162 207 266 341 401
#     4   9  23  43  70  86 128 178 232 268 330 386
#     4  12  21  37  63  96 137 165 212 263 336 399
#     4  10  20  40  64  95 123 170 217 260 328 409
#     4  11  23  41  65 100 130 167 211 282 339 394
#     4  12  24  36  61 101 137 173 214 271 327 392
#     4  11  23  45  66  87 130 179 225 273 320 380
#
# _framework density 22.035057999999999
#
# number of rings (size 3 to 8) (size 9 to 14) (size 15 to 20)
#    0.000    1.143    4.286    1.714    4.000    1.714 
#    2.571    1.429    6.286    0.000    0.000    0.000 
#    0.000    0.000    0.000    0.000    0.000    0.000 
#
# Total GULP energy -312516.707250 kJ/mol
# GULP energy per Si atom -5580.655487 kJ/mol
# Density = 2.198490 g / cm^3
# Si number density = 22.035058 Si / 1000 Ang^3
#
#
#
# Elastic Constant Matrix: (Units=GPa)
#
#
# Indices 1 2 3 4 5 6 
#
# 1 92.2051 23.3129 28.8464 0.0000 0.0000 0.0000
# 2 23.3129 27.3500 16.1201 0.0000 0.0000 0.0000
# 3 28.8464 16.1201 113.8760 0.0000 0.0000 0.0000
# 4 0.0000 0.0000 0.0000 26.8097 0.0000 0.0000
# 5 0.0000 0.0000 0.0000 0.0000 -17.1641 0.0000
# 6 0.0000 0.0000 0.0000 0.0000 0.0000 35.7924
#
#
#
# Elastic Compliance Matrix: (Units=1/GPa)
#
#
# Indices 1 2 3 4 5 6 
#
# 1 0.014256 -0.010935 -0.002063 0.000000 0.000000 0.000000
# 2 -0.010935 0.048280 -0.004064 0.000000 0.000000 0.000000
# 3 -0.002063 -0.004064 0.009879 0.000000 0.000000 0.000000
# 4 0.000000 0.000000 0.000000 0.037300 0.000000 0.000000
# 5 0.000000 0.000000 0.000000 0.000000 -0.058261 0.000000
# 6 0.000000 0.000000 0.000000 0.000000 0.000000 0.027939
#
#
# Mechanical properties :
#
#
# Convention : Reuss Voigt Hill
#
# Bulk Modulus (GPa) = 26.11701 41.10999 33.61350
# Shear Modulus (GPa) = 39.59403 20.09773 29.84588
#
# Velocity S-wave (km/s) = 4.24354 3.02334 3.68431
# Velocity P-wave (km/s) = 5.99070 5.55739 5.77811
#
# Compressibility (1/GPa) = 0.03828922
#
# Stress axis : x y z
#
# Youngs Moduli (GPa) = 70.14712 20.71254 101.22015
#
# Poissons Ratio (x) = 0.22650 0.20884
# Poissons Ratio (y) = 0.76709 0.41139
# Poissons Ratio (z) = 0.14473 0.08418
#
# Static dielectric constant tensor:
#      x y z
#    x 1.851610 0.000000 0.000000 
#    y 0.000000 1.891830 0.000000 
#    z 0.000000 0.000000 1.801370 
# 
# From -- ./inp_files/36047.got.cif
#   From: 2010.05.17/outbox.cif.g08.bks.cpg/sg52_19_cif.got.tgz:36047.got - 2010.06.03 12:15:38.
