data_PCOD9410299
_publ_section_title
;
Structure prediction by ZEFSAII (Michael W. Deem and Ramdas Pophale) SiO2 
 PCOD9410299
Probable space group: P N N A
;
_chemical_formula_sum "Si O2"
_cell_formula_units_Z 36
_cell_length_a 11.173951
_cell_length_b 24.313178
_cell_length_c 4.810520
_cell_angle_alpha 90.000000
_cell_angle_beta 90.000000
_cell_angle_gamma 90.000000
_cell_volume 1306.894459
_symmetry_space_group_name_H-M "P N N A"
_symmetry_group_IT_number 52
_symmetry_cell_setting 'orthorhombic'
loop_
_space_group_symop_operation_xyz
x,y,z
1/2-x,-y,z
x,1/2-y,1/2-z
1/2-x,1/2+y,1/2-z
-x,-y,-z
1/2+x,y,-z
-x,1/2+y,1/2+z
1/2+x,1/2-y,1/2+z
loop_
_atom_site_type_symbol
_atom_site_label
_atom_site_fract_x
_atom_site_fract_y
_atom_site_fract_z
Si Si1 0.199439 0.458442 0.988052
Si Si2 0.169312 0.750000 0.250000
Si Si3 0.663740 0.335530 0.048845
Si Si4 0.952072 0.452722 0.698676
Si Si5 0.002032 0.836762 0.952673
O O1 0.250000 0.500000 0.738877
O O2 0.231164 0.393251 0.000538
O O3 0.165583 0.523417 0.151840
O O4 0.058244 0.445956 0.922139
O O5 0.251684 0.712719 0.053051
O O6 0.087824 0.789345 0.059838
O O7 0.542894 0.332356 0.861523
O O8 0.620309 0.333080 0.365494
O O9 0.941840 0.396085 0.530072
O O10 0.000000 0.500000 0.500000
#
# Coordination Sequence:
#
# PCOD9410299 Si02
#       5
#     8   4   8   8   8
#     4  10  21  39  63  97 130 170 213 271 334 402
#     4  12  26  46  70  98 130 190 228 274 340 400
#     4  11  25  45  66  99 135 172 227 281 327 400
#     4  10  20  40  64  92 131 170 211 273 337 394
#     4  11  25  45  68  97 137 176 223 283 332 397
#
# _framework density 27.546219000000001
#
# number of rings (size 3 to 8) (size 9 to 14) (size 15 to 20)
#    0.000    1.333    2.222    2.667    0.000    4.444 
#    8.000    0.000    0.000    0.000    0.000    0.000 
#    0.000    0.000    0.000    0.000    0.000    0.000 
#
# Total GULP energy -201488.499147 kJ/mol
# GULP energy per Si atom -5596.902754 kJ/mol
# Density = 2.748352 g / cm^3
# Si number density = 27.546219 Si / 1000 Ang^3
#
#
#
# Elastic Constant Matrix: (Units=GPa)
#
#
# Indices 1 2 3 4 5 6 
#
# 1 147.2824 61.6848 19.2875 0.0000 0.0000 0.0000
# 2 61.6848 246.6887 18.8441 0.0000 0.0000 0.0000
# 3 19.2875 18.8441 86.1482 0.0000 0.0000 0.0000
# 4 0.0000 0.0000 0.0000 31.1481 0.0000 0.0000
# 5 0.0000 0.0000 0.0000 0.0000 34.6706 0.0000
# 6 0.0000 0.0000 0.0000 0.0000 0.0000 54.7776
#
#
#
# Elastic Compliance Matrix: (Units=1/GPa)
#
#
# Indices 1 2 3 4 5 6 
#
# 1 0.007731 -0.001832 -0.001330 0.000000 0.000000 0.000000
# 2 -0.001832 0.004556 -0.000587 0.000000 0.000000 0.000000
# 3 -0.001330 -0.000587 0.012034 0.000000 0.000000 0.000000
# 4 0.000000 0.000000 0.000000 0.032105 0.000000 0.000000
# 5 0.000000 0.000000 0.000000 0.000000 0.028843 0.000000
# 6 0.000000 0.000000 0.000000 0.000000 0.000000 0.018256
#
#
# Mechanical properties :
#
#
# Convention : Reuss Voigt Hill
#
# Bulk Modulus (GPa) = 59.43641 75.52801 67.48221
# Shear Modulus (GPa) = 42.87073 49.47279 46.17176
#
# Velocity S-wave (km/s) = 3.94930 4.24251 4.09853
# Velocity P-wave (km/s) = 6.51305 7.17473 6.85188
#
# Compressibility (1/GPa) = 0.01682470
#
# Stress axis : x y z
#
# Youngs Moduli (GPa) = 129.35007 219.46781 83.09755
#
# Poissons Ratio (x) = 0.40196 0.11054
# Poissons Ratio (y) = 0.23691 0.04875
# Poissons Ratio (z) = 0.17207 0.12875
#
# Static dielectric constant tensor:
#      x y z
#    x 2.122510 0.000000 0.000000 
#    y 0.000000 2.163190 0.000000 
#    z 0.000000 0.000000 2.080130 
# 
# From -- ./inp_files/1233.got.cif
#   From: 2010.05.17/outbox.cif.g08.bks.cpg/sg52_1_cif.got.tgz:1233.got - 2010.06.03 12:15:38.
