data_PCOD9410560
_publ_section_title
;
Structure prediction by ZEFSAII (Michael W. Deem and Ramdas Pophale) SiO2 
 PCOD9410560
Probable space group: P N N A
;
_chemical_formula_sum "Si O2"
_cell_formula_units_Z 32
_cell_length_a 10.007493
_cell_length_b 8.978146
_cell_length_c 15.555030
_cell_angle_alpha 90.000000
_cell_angle_beta 90.000000
_cell_angle_gamma 90.000000
_cell_volume 1397.599741
_symmetry_space_group_name_H-M "P N N A"
_symmetry_group_IT_number 52
_symmetry_cell_setting 'orthorhombic'
loop_
_space_group_symop_operation_xyz
x,y,z
1/2-x,-y,z
x,1/2-y,1/2-z
1/2-x,1/2+y,1/2-z
-x,-y,-z
1/2+x,y,-z
-x,1/2+y,1/2+z
1/2+x,1/2-y,1/2+z
loop_
_atom_site_type_symbol
_atom_site_label
_atom_site_fract_x
_atom_site_fract_y
_atom_site_fract_z
Si Si1 0.962703 0.840180 0.331867
Si Si2 0.564257 0.660528 0.514410
Si Si3 0.446085 0.176860 0.662318
Si Si4 0.748851 0.837827 0.619347
O O1 0.911027 0.750000 0.250000
O O2 0.962939 0.753289 0.422809
O O3 0.123536 0.861745 0.317114
O O4 0.906428 0.004520 0.340968
O O5 0.500000 0.500000 0.500000
O O6 0.591621 0.735833 0.423163
O O7 0.702163 0.692972 0.565820
O O8 0.398830 0.250000 0.750000
O O9 0.607803 0.185229 0.658959
O O10 0.750000 0.000000 0.570566
#
# Coordination Sequence:
#
# PCOD9410560 Si02
#       4
#     8   8   8   8
#     4   9  18  34  52  81 117 141 187 239 291 352
#     4  10  21  35  52  84 120 150 193 242 298 360
#     4  11  20  34  59  85 114 155 190 244 305 356
#     4   8  19  33  55  82 115 144 192 236 299 347
#
# _framework density 22.896398000000001
#
# number of rings (size 3 to 8) (size 9 to 14) (size 15 to 20)
#    1.500    1.000    0.000    3.000    0.000    1.000 
#    0.000    0.000    0.000    1.500    0.000    0.000 
#    0.000    0.000    0.000    0.000    0.000    0.000 
#
# Total GULP energy -178213.409328 kJ/mol
# GULP energy per Si atom -5569.169042 kJ/mol
# Density = 2.284428 g / cm^3
# Si number density = 22.896398 Si / 1000 Ang^3
#
#
#
# Elastic Constant Matrix: (Units=GPa)
#
#
# Indices 1 2 3 4 5 6 
#
# 1 95.0806 7.5796 -5.6432 0.0000 0.0000 0.0000
# 2 7.5796 183.3423 81.4212 0.0000 0.0000 0.0000
# 3 -5.6432 81.4212 148.1890 0.0000 0.0000 0.0000
# 4 0.0000 0.0000 0.0000 49.3810 0.0000 0.0000
# 5 0.0000 0.0000 0.0000 0.0000 9.6316 0.0000
# 6 0.0000 0.0000 0.0000 0.0000 0.0000 11.4921
#
#
#
# Elastic Compliance Matrix: (Units=1/GPa)
#
#
# Indices 1 2 3 4 5 6 
#
# 1 0.010633 -0.000819 0.000855 0.000000 0.000000 0.000000
# 2 -0.000819 0.007278 -0.004030 0.000000 0.000000 0.000000
# 3 0.000855 -0.004030 0.008995 0.000000 0.000000 0.000000
# 4 0.000000 0.000000 0.000000 0.020251 0.000000 0.000000
# 5 0.000000 0.000000 0.000000 0.000000 0.103825 0.000000
# 6 0.000000 0.000000 0.000000 0.000000 0.000000 0.087016
#
#
# Mechanical properties :
#
#
# Convention : Reuss Voigt Hill
#
# Bulk Modulus (GPa) = 52.86008 65.92522 59.39265
# Shear Modulus (GPa) = 19.81829 36.98458 28.40143
#
# Velocity S-wave (km/s) = 2.94524 4.02344 3.52580
# Velocity P-wave (km/s) = 5.89090 7.10207 6.52465
#
# Compressibility (1/GPa) = 0.01891787
#
# Stress axis : x y z
#
# Youngs Moduli (GPa) = 94.04271 137.40377 111.17391
#
# Poissons Ratio (x) = 0.11258 -0.09507
# Poissons Ratio (y) = 0.07705 0.44802
# Poissons Ratio (z) = -0.08042 0.55373
#
# Static dielectric constant tensor:
#      x y z
#    x 1.948070 0.000000 0.000000 
#    y 0.000000 1.874360 0.000000 
#    z 0.000000 0.000000 1.883120 
# 
# From -- ./inp_files/25587.got.cif
#   From: 2010.05.17/outbox.cif.g08.bks.cpg/sg52_13_cif.got.tgz:25587.got - 2010.06.03 12:15:38.
