data_PCOD9410988
_publ_section_title
;
Structure prediction by ZEFSAII (Michael W. Deem and Ramdas Pophale) SiO2 
 PCOD9410988
Probable space group: P N N A
;
_chemical_formula_sum "Si O2"
_cell_formula_units_Z 48
_cell_length_a 5.044232
_cell_length_b 28.401230
_cell_length_c 14.687259
_cell_angle_alpha 90.000000
_cell_angle_beta 90.000000
_cell_angle_gamma 90.000000
_cell_volume 2104.131874
_symmetry_space_group_name_H-M "P N N A"
_symmetry_group_IT_number 52
_symmetry_cell_setting 'orthorhombic'
loop_
_space_group_symop_operation_xyz
x,y,z
1/2-x,-y,z
x,1/2-y,1/2-z
1/2-x,1/2+y,1/2-z
-x,-y,-z
1/2+x,y,-z
-x,1/2+y,1/2+z
1/2+x,1/2-y,1/2+z
loop_
_atom_site_type_symbol
_atom_site_label
_atom_site_fract_x
_atom_site_fract_y
_atom_site_fract_z
Si Si1 0.475397 0.120917 0.206513
Si Si2 0.960772 0.120811 0.323833
Si Si3 0.697918 0.308583 0.440948
Si Si4 0.679263 0.197061 0.443406
Si Si5 0.998650 0.977485 0.601804
Si Si6 0.719652 0.444575 0.556702
O O1 0.737881 0.100852 0.254902
O O2 0.330377 0.084790 0.139844
O O3 0.239225 0.133628 0.277089
O O4 0.589711 0.163614 0.145589
O O5 0.806747 0.165032 0.366249
O O6 0.008083 0.078618 0.396187
O O7 0.493328 0.319429 0.523723
O O8 0.693722 0.252561 0.423032
O O9 0.376742 0.187237 0.471145
O O10 0.250000 0.000000 0.648217
O O11 0.750000 0.000000 0.650742
O O12 0.000000 0.000000 0.500000
O O13 0.750000 0.500000 0.574344
O O14 0.419396 0.433849 0.527557
#
# Coordination Sequence:
#
# PCOD9410988 Si02
#       6
#     8   8   8   8   8   8
#     4  12  24  40  64  99 141 168 214 289 339 413
#     4  12  26  40  64 100 133 176 220 282 353 379
#     4  10  21  42  68  96 125 175 223 267 340 403
#     4  10  23  42  68  90 126 172 228 281 314 417
#     4  10  23  41  64  90 122 176 229 277 321 403
#     4  10  21  39  64  91 124 178 222 260 323 400
#
# _framework density 22.812256999999999
#
# number of rings (size 3 to 8) (size 9 to 14) (size 15 to 20)
#    0.000    1.333    0.000    5.000    4.667    2.667 
#    0.000    1.667    0.000    0.000    0.000    0.000 
#    0.000    0.000    0.000    0.000    0.000    0.000 
#
# Total GULP energy -268301.287915 kJ/mol
# GULP energy per Si atom -5589.610165 kJ/mol
# Density = 2.276034 g / cm^3
# Si number density = 22.812257 Si / 1000 Ang^3
#
#
#
# Elastic Constant Matrix: (Units=GPa)
#
#
# Indices 1 2 3 4 5 6 
#
# 1 140.9825 21.6746 11.0786 0.0000 0.0000 0.0000
# 2 21.6746 115.4466 45.6396 0.0000 0.0000 0.0000
# 3 11.0786 45.6396 71.4842 0.0000 0.0000 0.0000
# 4 0.0000 0.0000 0.0000 3.2874 0.0000 0.0000
# 5 0.0000 0.0000 0.0000 0.0000 26.1559 0.0000
# 6 0.0000 0.0000 0.0000 0.0000 0.0000 30.6696
#
#
#
# Elastic Compliance Matrix: (Units=1/GPa)
#
#
# Indices 1 2 3 4 5 6 
#
# 1 0.007310 -0.001237 -0.000343 0.000000 0.000000 0.000000
# 2 -0.001237 0.011796 -0.007339 0.000000 0.000000 0.000000
# 3 -0.000343 -0.007339 0.018728 0.000000 0.000000 0.000000
# 4 0.000000 0.000000 0.000000 0.304192 0.000000 0.000000
# 5 0.000000 0.000000 0.000000 0.000000 0.038232 0.000000
# 6 0.000000 0.000000 0.000000 0.000000 0.000000 0.032606
#
#
# Mechanical properties :
#
#
# Convention : Reuss Voigt Hill
#
# Bulk Modulus (GPa) = 50.01201 53.85544 51.93373
# Shear Modulus (GPa) = 11.43203 28.65727 20.04465
#
# Velocity S-wave (km/s) = 2.24103 3.54817 2.96747
# Velocity P-wave (km/s) = 5.35418 6.35967 5.87846
#
# Compressibility (1/GPa) = 0.01999520
#
# Stress axis : x y z
#
# Youngs Moduli (GPa) = 136.79528 84.77674 53.39543
#
# Poissons Ratio (x) = 0.10485 0.01833
# Poissons Ratio (y) = 0.16918 0.39189
# Poissons Ratio (z) = 0.04697 0.62221
#
# Static dielectric constant tensor:
#      x y z
#    x 1.848580 0.000000 0.000000 
#    y 0.000000 1.836920 0.000000 
#    z 0.000000 0.000000 1.890900 
# 
# From -- ./inp_files/23703.got.cif
#   From: 2010.05.17/outbox.cif.g08.bks.cpg/sg52_12_cif.got.tgz:23703.got - 2010.06.03 12:15:38.
