data_PCOD9410836
_publ_section_title
;
Structure prediction by ZEFSAII (Michael W. Deem and Ramdas Pophale) SiO2 
 PCOD9410836
Probable space group: P N N A
;
_chemical_formula_sum "Si O2"
_cell_formula_units_Z 64
_cell_length_a 34.189197
_cell_length_b 5.446877
_cell_length_c 17.719214
_cell_angle_alpha 90.000000
_cell_angle_beta 90.000000
_cell_angle_gamma 90.000000
_cell_volume 3299.749124
_symmetry_space_group_name_H-M "P N N A"
_symmetry_group_IT_number 52
_symmetry_cell_setting 'orthorhombic'
loop_
_space_group_symop_operation_xyz
x,y,z
1/2-x,-y,z
x,1/2-y,1/2-z
1/2-x,1/2+y,1/2-z
-x,-y,-z
1/2+x,y,-z
-x,1/2+y,1/2+z
1/2+x,1/2-y,1/2+z
loop_
_atom_site_type_symbol
_atom_site_label
_atom_site_fract_x
_atom_site_fract_y
_atom_site_fract_z
Si Si1 0.021818 0.248245 0.840089
Si Si2 0.658928 0.137223 0.929032
Si Si3 0.124493 0.743609 0.975249
Si Si4 0.562382 0.729034 0.605564
Si Si5 0.291512 0.004029 0.484522
Si Si6 0.070561 0.748169 0.838422
Si Si7 0.096396 0.204950 0.335145
Si Si8 0.711411 0.668527 0.663818
O O1 0.010688 0.250000 0.750000
O O2 0.043659 0.507578 0.852926
O O3 0.984385 0.220857 0.894246
O O4 0.048540 0.007108 0.852973
O O5 0.698747 0.224634 0.965306
O O6 0.633805 0.343056 0.888080
O O7 0.634935 0.014961 0.995402
O O8 0.671200 0.962377 0.860820
O O9 0.086768 0.695037 0.030363
O O10 0.166967 0.607488 0.983443
O O11 0.108000 0.728162 0.891880
O O12 0.577165 0.459560 0.633663
O O13 0.570972 0.959370 0.660809
O O14 0.285163 0.135513 0.403616
O O15 0.250000 0.000000 0.526825
O O16 0.080658 0.750000 0.750000
O O17 0.108058 0.250000 0.250000
O O18 0.750000 0.500000 0.662081
O O19 0.707971 0.750000 0.750000
#
# Coordination Sequence:
#
# PCOD9410836 Si02
#       8
#     8   8   8   8   8   8   8   8
#     4  10  21  38  62  91 128 163 206 245 301 366
#     4  10  23  37  52  80 114 157 205 258 308 364
#     4  10  24  39  61  90 122 155 207 255 316 376
#     4  11  22  38  57  90 123 169 206 253 297 358
#     4  11  21  40  60  81 115 157 212 257 321 371
#     4  10  23  42  66  96 123 159 200 253 315 388
#     4  11  22  34  55  79 121 164 213 250 295 340
#     4  11  23  33  51  79 113 158 209 263 306 357
#
# _framework density 19.395413999999999
#
# number of rings (size 3 to 8) (size 9 to 14) (size 15 to 20)
#    0.000    1.500    2.500    2.250    3.500    2.000 
#    0.000    0.000    0.000    0.000    3.250    0.000 
#    0.000    0.000    0.000    0.000    0.000    0.000 
#
# Total GULP energy -356315.804454 kJ/mol
# GULP energy per Si atom -5567.434445 kJ/mol
# Density = 1.935127 g / cm^3
# Si number density = 19.395414 Si / 1000 Ang^3
#
#
#
# Elastic Constant Matrix: (Units=GPa)
#
#
# Indices 1 2 3 4 5 6 
#
# 1 130.2921 33.6691 65.5523 0.0000 0.0000 0.0000
# 2 33.6691 77.4173 21.0383 0.0000 0.0000 0.0000
# 3 65.5523 21.0383 58.7299 0.0000 0.0000 0.0000
# 4 0.0000 0.0000 0.0000 -80.5049 0.0000 0.0000
# 5 0.0000 0.0000 0.0000 0.0000 13.8413 0.0000
# 6 0.0000 0.0000 0.0000 0.0000 0.0000 19.4883
#
#
#
# Elastic Compliance Matrix: (Units=1/GPa)
#
#
# Indices 1 2 3 4 5 6 
#
# 1 0.017973 -0.002620 -0.019122 0.000000 0.000000 0.000000
# 2 -0.002620 0.014692 -0.002339 0.000000 0.000000 0.000000
# 3 -0.019122 -0.002339 0.039208 0.000000 0.000000 0.000000
# 4 0.000000 0.000000 0.000000 -0.012422 0.000000 0.000000
# 5 0.000000 0.000000 0.000000 0.000000 0.072248 0.000000
# 6 0.000000 0.000000 0.000000 0.000000 0.000000 0.051313
#
#
# Mechanical properties :
#
#
# Convention : Reuss Voigt Hill
#
# Bulk Modulus (GPa) = 42.17346 56.32876 49.25111
# Shear Modulus (GPa) = 20.91378 0.31024 10.61201
#
# Velocity S-wave (km/s) = 3.28729 0.40038 2.34164
# Velocity P-wave (km/s) = 6.01661 5.41471 5.72358
#
# Compressibility (1/GPa) = 0.02371159
#
# Stress axis : x y z
#
# Youngs Moduli (GPa) = 55.64002 68.06430 25.50494
#
# Poissons Ratio (x) = 0.17833 0.48770
# Poissons Ratio (y) = 0.14577 0.05965
# Poissons Ratio (z) = 1.06394 0.15918
#
# Static dielectric constant tensor:
#      x y z
#    x 1.743540 0.000000 0.000000 
#    y 0.000000 1.833700 0.000000 
#    z 0.000000 0.000000 1.648200 
# 
# From -- ./inp_files/34585.got.cif
#   From: 2010.05.17/outbox.cif.g08.bks.cpg/sg52_18_cif.got.tgz:34585.got - 2010.06.03 12:15:38.
