data_PCOD9410912
_publ_section_title
;
Structure prediction by ZEFSAII (Michael W. Deem and Ramdas Pophale) SiO2 
 PCOD9410912
Probable space group: P N N A
;
_chemical_formula_sum "Si O2"
_cell_formula_units_Z 28
_cell_length_a 11.430575
_cell_length_b 12.478873
_cell_length_c 6.869641
_cell_angle_alpha 90.000000
_cell_angle_beta 90.000000
_cell_angle_gamma 90.000000
_cell_volume 979.890358
_symmetry_space_group_name_H-M "P N N A"
_symmetry_group_IT_number 52
_symmetry_cell_setting 'orthorhombic'
loop_
_space_group_symop_operation_xyz
x,y,z
1/2-x,-y,z
x,1/2-y,1/2-z
1/2-x,1/2+y,1/2-z
-x,-y,-z
1/2+x,y,-z
-x,1/2+y,1/2+z
1/2+x,1/2-y,1/2+z
loop_
_atom_site_type_symbol
_atom_site_label
_atom_site_fract_x
_atom_site_fract_y
_atom_site_fract_z
Si Si1 0.213169 0.852215 0.878291
Si Si2 0.584102 0.363406 0.840633
Si Si3 0.690847 0.750000 0.750000
Si Si4 0.936294 0.952791 0.237709
O O1 0.218481 0.750000 0.750000
O O2 0.351153 0.882709 0.903513
O O3 0.148055 0.942612 0.756644
O O4 0.140860 0.819141 0.072980
O O5 0.537973 0.250000 0.750000
O O6 0.722075 0.337511 0.846255
O O7 0.553367 0.473996 0.726873
O O8 0.547954 0.385581 0.064292
#
# Coordination Sequence:
#
# PCOD9410912 Si02
#       4
#     8   8   4   8
#     4  11  21  41  64  98 138 183 226 309 333 426
#     4   9  19  41  66 100 134 186 230 296 346 441
#     4  10  22  40  64  88 144 180 228 288 358 392
#     4  10  21  38  70  96 136 184 238 280 372 405
#
# _framework density 28.574628000000001
#
# number of rings (size 3 to 8) (size 9 to 14) (size 15 to 20)
#    0.857    1.143    2.857    0.857    0.000    1.143 
#   10.286    0.000    9.429    0.000    0.000    0.000 
#    0.000    0.000    0.000    0.000    0.000    0.000 
#
# Total GULP energy -155919.154703 kJ/mol
# GULP energy per Si atom -5568.541239 kJ/mol
# Density = 2.850959 g / cm^3
# Si number density = 28.574628 Si / 1000 Ang^3
#
#
#
# Elastic Constant Matrix: (Units=GPa)
#
#
# Indices 1 2 3 4 5 6 
#
# 1 34.5570 20.2608 28.1359 0.0000 0.0000 0.0000
# 2 20.2608 192.4861 64.4654 0.0000 0.0000 0.0000
# 3 28.1359 64.4654 139.2158 0.0000 0.0000 0.0000
# 4 0.0000 0.0000 0.0000 58.2060 0.0000 0.0000
# 5 0.0000 0.0000 0.0000 0.0000 -80.8687 0.0000
# 6 0.0000 0.0000 0.0000 0.0000 0.0000 51.4900
#
#
#
# Elastic Compliance Matrix: (Units=1/GPa)
#
#
# Indices 1 2 3 4 5 6 
#
# 1 0.035027 -0.001558 -0.006358 0.000000 0.000000 0.000000
# 2 -0.001558 0.006218 -0.002565 0.000000 0.000000 0.000000
# 3 -0.006358 -0.002565 0.009656 0.000000 0.000000 0.000000
# 4 0.000000 0.000000 0.000000 0.017180 0.000000 0.000000
# 5 0.000000 0.000000 0.000000 0.000000 -0.012366 0.000000
# 6 0.000000 0.000000 0.000000 0.000000 0.000000 0.019421
#
#
# Mechanical properties :
#
#
# Convention : Reuss Voigt Hill
#
# Bulk Modulus (GPa) = 33.39905 65.77592 49.58748
# Shear Modulus (GPa) = 47.13548 22.65858 34.89703
#
# Velocity S-wave (km/s) = 4.06588 2.81901 3.49844
# Velocity P-wave (km/s) = 5.80995 5.80213 5.80604
#
# Compressibility (1/GPa) = 0.02994097
#
# Stress axis : x y z
#
# Youngs Moduli (GPa) = 28.54906 160.82295 103.56725
#
# Poissons Ratio (x) = 0.25050 0.65847
# Poissons Ratio (y) = 0.04447 0.26560
# Poissons Ratio (z) = 0.18151 0.41243
#
# Static dielectric constant tensor:
#      x y z
#    x 2.425660 0.000000 0.000000 
#    y 0.000000 2.164300 0.000000 
#    z 0.000000 0.000000 2.437100 
# 
# From -- ./inp_files/2939.got.cif
#   From: 2010.05.17/outbox.cif.g08.bks.cpg/sg52_2_cif.got.tgz:2939.got - 2010.06.03 12:15:38.
