data_PCOD9410452
_publ_section_title
;
Structure prediction by ZEFSAII (Michael W. Deem and Ramdas Pophale) SiO2 
 PCOD9410452
Probable space group: P N N A
;
_chemical_formula_sum "Si O2"
_cell_formula_units_Z 32
_cell_length_a 12.549180
_cell_length_b 11.869614
_cell_length_c 8.481495
_cell_angle_alpha 90.000000
_cell_angle_beta 90.000000
_cell_angle_gamma 90.000000
_cell_volume 1263.351950
_symmetry_space_group_name_H-M "P N N A"
_symmetry_group_IT_number 52
_symmetry_cell_setting 'orthorhombic'
loop_
_space_group_symop_operation_xyz
x,y,z
1/2-x,-y,z
x,1/2-y,1/2-z
1/2-x,1/2+y,1/2-z
-x,-y,-z
1/2+x,y,-z
-x,1/2+y,1/2+z
1/2+x,1/2-y,1/2+z
loop_
_atom_site_type_symbol
_atom_site_label
_atom_site_fract_x
_atom_site_fract_y
_atom_site_fract_z
Si Si1 0.494442 0.750000 0.750000
Si Si2 0.795018 0.780362 0.057497
Si Si3 0.750000 0.000000 0.925247
Si Si4 0.888081 0.378324 0.040193
Si Si5 0.608569 0.099103 0.657994
O O1 0.403037 0.683309 0.649351
O O2 0.566463 0.686045 0.880342
O O3 0.713568 0.683149 0.112694
O O4 0.838372 0.713471 0.903862
O O5 0.725456 0.889700 0.023400
O O6 0.656617 0.043023 0.811871
O O7 0.871779 0.505190 0.978743
O O8 0.983600 0.381192 0.163484
#
# Coordination Sequence:
#
# PCOD9410452 Si02
#       5
#     4   8   4   8   8
#     4  10  24  44  64 102 138 170 228 270 332 410
#     4  11  23  44  65  97 138 175 217 277 339 385
#     4  12  22  40  64 100 132 172 212 286 318 404
#     4  10  20  42  69  96 127 182 217 274 331 395
#     4  10  21  38  70  96 122 175 228 264 332 400
#
# _framework density 25.329442
#
# number of rings (size 3 to 8) (size 9 to 14) (size 15 to 20)
#    0.000    1.500    2.500    2.250    0.000    0.000 
#   22.500    6.250    0.000    0.000    0.000    0.000 
#    0.000    0.000    0.000    0.000    0.000    0.000 
#
# Total GULP energy -178700.531998 kJ/mol
# GULP energy per Si atom -5584.391625 kJ/mol
# Density = 2.527179 g / cm^3
# Si number density = 25.329442 Si / 1000 Ang^3
#
#
#
# Elastic Constant Matrix: (Units=GPa)
#
#
# Indices 1 2 3 4 5 6 
#
# 1 89.3083 8.8000 11.2514 0.0000 0.0000 0.0000
# 2 8.8000 129.2024 12.6313 0.0000 0.0000 0.0000
# 3 11.2514 12.6313 78.2196 0.0000 0.0000 0.0000
# 4 0.0000 0.0000 0.0000 24.9459 0.0000 0.0000
# 5 0.0000 0.0000 0.0000 0.0000 21.2493 0.0000
# 6 0.0000 0.0000 0.0000 0.0000 0.0000 19.4158
#
#
#
# Elastic Compliance Matrix: (Units=1/GPa)
#
#
# Indices 1 2 3 4 5 6 
#
# 1 0.011454 -0.000629 -0.001546 0.000000 0.000000 0.000000
# 2 -0.000629 0.007898 -0.001185 0.000000 0.000000 0.000000
# 3 -0.001546 -0.001185 0.013198 0.000000 0.000000 0.000000
# 4 0.000000 0.000000 0.000000 0.040087 0.000000 0.000000
# 5 0.000000 0.000000 0.000000 0.000000 0.047060 0.000000
# 6 0.000000 0.000000 0.000000 0.000000 0.000000 0.051504
#
#
# Mechanical properties :
#
#
# Convention : Reuss Voigt Hill
#
# Bulk Modulus (GPa) = 38.71370 40.23288 39.47329
# Shear Modulus (GPa) = 26.80500 30.72539 28.76520
#
# Velocity S-wave (km/s) = 3.25661 3.48664 3.37359
# Velocity P-wave (km/s) = 5.42752 5.66808 5.54910
#
# Compressibility (1/GPa) = 0.02583065
#
# Stress axis : x y z
#
# Youngs Moduli (GPa) = 87.30642 126.60658 75.76755
#
# Poissons Ratio (x) = 0.07963 0.11714
# Poissons Ratio (y) = 0.05491 0.08979
# Poissons Ratio (z) = 0.13498 0.15003
#
# Static dielectric constant tensor:
#      x y z
#    x 1.969920 0.000000 0.000000 
#    y 0.000000 1.993420 0.000000 
#    z 0.000000 0.000000 2.181690 
# 
# From -- ./inp_files/9602.got.cif
#   From: 2010.05.17/outbox.cif.g08.bks.cpg/sg52_5_cif.got.tgz:9602.got - 2010.06.03 12:15:38.
