data_PCOD9410401
_publ_section_title
;
Structure prediction by ZEFSAII (Michael W. Deem and Ramdas Pophale) SiO2 
 PCOD9410401
Probable space group: P N N A
;
_chemical_formula_sum "Si O2"
_cell_formula_units_Z 28
_cell_length_a 8.839828
_cell_length_b 11.148735
_cell_length_c 10.027686
_cell_angle_alpha 90.000000
_cell_angle_beta 90.000000
_cell_angle_gamma 90.000000
_cell_volume 988.257534
_symmetry_space_group_name_H-M "P N N A"
_symmetry_group_IT_number 52
_symmetry_cell_setting 'orthorhombic'
loop_
_space_group_symop_operation_xyz
x,y,z
1/2-x,-y,z
x,1/2-y,1/2-z
1/2-x,1/2+y,1/2-z
-x,-y,-z
1/2+x,y,-z
-x,1/2+y,1/2+z
1/2+x,1/2-y,1/2+z
loop_
_atom_site_type_symbol
_atom_site_label
_atom_site_fract_x
_atom_site_fract_y
_atom_site_fract_z
Si Si1 0.267580 0.819686 0.531012
Si Si2 0.014892 0.437713 0.158405
Si Si3 0.093571 0.071880 0.888089
Si Si4 0.238520 0.250000 0.250000
O O1 0.382115 0.923401 0.475325
O O2 0.139549 0.865841 0.629764
O O3 0.362319 0.707739 0.582385
O O4 0.190174 0.769056 0.394377
O O5 0.985737 0.555983 0.243953
O O6 0.123410 0.362223 0.258535
O O7 0.250000 0.000000 0.878516
O O8 0.000000 0.000000 0.000000
#
# Coordination Sequence:
#
# PCOD9410401 Si02
#       4
#     8   8   8   4
#     4  10  20  41  70  99 149 181 242 313 359 439
#     4  10  21  42  69 105 142 187 246 300 374 434
#     4  12  22  40  72 105 138 188 246 301 366 445
#     4   8  18  38  66  96 140 168 244 286 370 408
#
# _framework density 28.332695000000001
#
# number of rings (size 3 to 8) (size 9 to 14) (size 15 to 20)
#    1.714    0.000    2.857    3.429    0.000    0.000 
#    0.000   11.429    0.000    1.714    0.000    0.000 
#    0.000    0.000    0.000    0.000    0.000    0.000 
#
# Total GULP energy -156880.445175 kJ/mol
# GULP energy per Si atom -5602.873042 kJ/mol
# Density = 2.826821 g / cm^3
# Si number density = 28.332695 Si / 1000 Ang^3
#
#
#
# Elastic Constant Matrix: (Units=GPa)
#
#
# Indices 1 2 3 4 5 6 
#
# 1 132.6843 55.9271 38.7817 0.0000 0.0000 0.0000
# 2 55.9271 145.6862 60.5464 0.0000 0.0000 0.0000
# 3 38.7817 60.5464 185.1892 0.0000 0.0000 0.0000
# 4 0.0000 0.0000 0.0000 57.8732 0.0000 0.0000
# 5 0.0000 0.0000 0.0000 0.0000 11.1837 0.0000
# 6 0.0000 0.0000 0.0000 0.0000 0.0000 38.8638
#
#
#
# Elastic Compliance Matrix: (Units=1/GPa)
#
#
# Indices 1 2 3 4 5 6 
#
# 1 0.009115 -0.003131 -0.000885 0.000000 0.000000 0.000000
# 2 -0.003131 0.009019 -0.002293 0.000000 0.000000 0.000000
# 3 -0.000885 -0.002293 0.006335 0.000000 0.000000 0.000000
# 4 0.000000 0.000000 0.000000 0.017279 0.000000 0.000000
# 5 0.000000 0.000000 0.000000 0.000000 0.089416 0.000000
# 6 0.000000 0.000000 0.000000 0.000000 0.000000 0.025731
#
#
# Mechanical properties :
#
#
# Convention : Reuss Voigt Hill
#
# Bulk Modulus (GPa) = 84.38558 86.00778 85.19668
# Shear Modulus (GPa) = 28.82442 42.13778 35.48110
#
# Velocity S-wave (km/s) = 3.19306 3.86067 3.54263
# Velocity P-wave (km/s) = 6.59110 7.09192 6.84609
#
# Compressibility (1/GPa) = 0.01185037
#
# Stress axis : x y z
#
# Youngs Moduli (GPa) = 109.70578 110.87548 157.85541
#
# Poissons Ratio (x) = 0.34720 0.13972
# Poissons Ratio (y) = 0.34353 0.36196
# Poissons Ratio (z) = 0.09710 0.25423
#
# Static dielectric constant tensor:
#      x y z
#    x 2.292880 0.000000 0.000000 
#    y 0.000000 2.619370 0.000000 
#    z 0.000000 0.000000 2.262010 
# 
# From -- ./inp_files/16370.got.cif
#   From: 2010.05.17/outbox.cif.g08.bks.cpg/sg52_9_cif.got.tgz:16370.got - 2010.06.03 12:15:38.
