data_PCOD9410301
_publ_section_title
;
Structure prediction by ZEFSAII (Michael W. Deem and Ramdas Pophale) SiO2 
 PCOD9410301
Probable space group: P N N A
;
_chemical_formula_sum "Si O2"
_cell_formula_units_Z 40
_cell_length_a 12.635281
_cell_length_b 23.231418
_cell_length_c 6.214052
_cell_angle_alpha 90.000000
_cell_angle_beta 90.000000
_cell_angle_gamma 90.000000
_cell_volume 1824.044826
_symmetry_space_group_name_H-M "P N N A"
_symmetry_group_IT_number 52
_symmetry_cell_setting 'orthorhombic'
loop_
_space_group_symop_operation_xyz
x,y,z
1/2-x,-y,z
x,1/2-y,1/2-z
1/2-x,1/2+y,1/2-z
-x,-y,-z
1/2+x,y,-z
-x,1/2+y,1/2+z
1/2+x,1/2-y,1/2+z
loop_
_atom_site_type_symbol
_atom_site_label
_atom_site_fract_x
_atom_site_fract_y
_atom_site_fract_z
Si Si1 0.556655 0.353960 0.988908
Si Si2 0.587291 0.955646 0.584339
Si Si3 0.250000 0.000000 0.065299
Si Si4 0.594773 0.688510 0.364209
Si Si5 0.245329 0.092300 0.728070
Si Si6 0.499588 0.250000 0.250000
O O1 0.470309 0.394278 0.108357
O O2 0.664596 0.386836 0.043269
O O3 0.565580 0.291097 0.094531
O O4 0.506534 0.342297 0.753138
O O5 0.669018 0.946578 0.391711
O O6 0.500000 0.000000 0.500000
O O7 0.654165 0.976308 0.788272
O O8 0.295743 0.947801 0.920189
O O9 0.613014 0.750000 0.250000
O O10 0.693681 0.646875 0.328308
O O11 0.569499 0.707195 0.605217
#
# Coordination Sequence:
#
# PCOD9410301 Si02
#       6
#     8   8   4   8   8   4
#     4  10  22  39  63  92 131 171 218 279 338 408
#     4  11  24  43  63  90 136 174 224 283 342 408
#     4  12  24  40  66  98 126 180 228 282 342 406
#     4   9  21  42  66  91 132 173 218 279 334 400
#     4  11  24  40  66  99 130 175 230 274 339 412
#     4  10  20  40  64  94 126 170 220 276 346 392
#
# _framework density 21.929283999999999
#
# number of rings (size 3 to 8) (size 9 to 14) (size 15 to 20)
#    0.000    1.600    0.000    4.200    1.400    8.000 
#    0.000    0.000    8.800    0.000    0.000    0.000 
#    0.000    0.000    0.000    0.000    0.000    0.000 
#
# Total GULP energy -223364.934355 kJ/mol
# GULP energy per Si atom -5584.123359 kJ/mol
# Density = 2.187937 g / cm^3
# Si number density = 21.929284 Si / 1000 Ang^3
#
#
#
# Elastic Constant Matrix: (Units=GPa)
#
#
# Indices 1 2 3 4 5 6 
#
# 1 79.7720 39.6591 30.4328 0.0000 0.0000 0.0000
# 2 39.6591 119.9001 48.0790 0.0000 0.0000 0.0000
# 3 30.4328 48.0790 79.7322 0.0000 0.0000 0.0000
# 4 0.0000 0.0000 0.0000 47.1257 0.0000 0.0000
# 5 0.0000 0.0000 0.0000 0.0000 6.8312 0.0000
# 6 0.0000 0.0000 0.0000 0.0000 0.0000 38.9769
#
#
#
# Elastic Compliance Matrix: (Units=1/GPa)
#
#
# Indices 1 2 3 4 5 6 
#
# 1 0.015832 -0.003711 -0.003805 0.000000 0.000000 0.000000
# 2 -0.003711 0.011870 -0.005741 0.000000 0.000000 0.000000
# 3 -0.003805 -0.005741 0.017456 0.000000 0.000000 0.000000
# 4 0.000000 0.000000 0.000000 0.021220 0.000000 0.000000
# 5 0.000000 0.000000 0.000000 0.000000 0.146388 0.000000
# 6 0.000000 0.000000 0.000000 0.000000 0.000000 0.025656
#
#
# Mechanical properties :
#
#
# Convention : Reuss Voigt Hill
#
# Bulk Modulus (GPa) = 53.63717 57.30510 55.47114
# Shear Modulus (GPa) = 18.43983 29.33565 23.88774
#
# Velocity S-wave (km/s) = 2.90293 3.66148 3.30405
# Velocity P-wave (km/s) = 5.97899 6.63805 6.31712
#
# Compressibility (1/GPa) = 0.01864379
#
# Stress axis : x y z
#
# Youngs Moduli (GPa) = 63.16181 84.24662 57.28555
#
# Poissons Ratio (x) = 0.31263 0.21799
# Poissons Ratio (y) = 0.23439 0.32889
# Poissons Ratio (z) = 0.24035 0.48368
#
# Static dielectric constant tensor:
#      x y z
#    x 1.810040 0.000000 0.000000 
#    y 0.000000 1.825270 0.000000 
#    z 0.000000 0.000000 1.844240 
# 
# From -- ./inp_files/1436.got.cif
#   From: 2010.05.17/outbox.cif.g08.bks.cpg/sg52_1_cif.got.tgz:1436.got - 2010.06.03 12:15:38.
