data_PCOD9410541
_publ_section_title
;
Structure prediction by ZEFSAII (Michael W. Deem and Ramdas Pophale) SiO2 
 PCOD9410541
Probable space group: P N N A
;
_chemical_formula_sum "Si O2"
_cell_formula_units_Z 60
_cell_length_a 27.737973
_cell_length_b 6.771698
_cell_length_c 17.155665
_cell_angle_alpha 90.000000
_cell_angle_beta 90.000000
_cell_angle_gamma 90.000000
_cell_volume 3222.403048
_symmetry_space_group_name_H-M "P N N A"
_symmetry_group_IT_number 52
_symmetry_cell_setting 'orthorhombic'
loop_
_space_group_symop_operation_xyz
x,y,z
1/2-x,-y,z
x,1/2-y,1/2-z
1/2-x,1/2+y,1/2-z
-x,-y,-z
1/2+x,y,-z
-x,1/2+y,1/2+z
1/2+x,1/2-y,1/2+z
loop_
_atom_site_type_symbol
_atom_site_label
_atom_site_fract_x
_atom_site_fract_y
_atom_site_fract_z
Si Si1 0.250000 0.500000 0.915182
Si Si2 0.955727 0.221965 0.657998
Si Si3 0.440393 0.631375 0.062004
Si Si4 0.434894 0.661015 0.836906
Si Si5 0.896629 0.028607 0.965339
Si Si6 0.701572 0.612179 0.463486
Si Si7 0.951055 0.304284 0.073592
Si Si8 0.329223 0.711505 0.657179
O O1 0.284317 0.340553 0.956650
O O2 0.287685 0.639255 0.870397
O O3 0.954268 0.250000 0.750000
O O4 0.924261 0.371448 0.607184
O O5 0.012293 0.226532 0.630754
O O6 0.935802 0.004906 0.637440
O O7 0.492274 0.736342 0.070937
O O8 0.401869 0.796651 0.045876
O O9 0.441943 0.474281 0.991583
O O10 0.435736 0.750000 0.750000
O O11 0.436364 0.421602 0.847886
O O12 0.383543 0.733104 0.869917
O O13 0.841533 0.086241 0.976256
O O14 0.922464 0.115753 0.043316
O O15 0.750000 0.500000 0.487730
O O16 0.684856 0.500366 0.382221
O O17 0.330008 0.750000 0.750000
#
# Coordination Sequence:
#
# PCOD9410541 Si02
#       8
#     4   8   8   8   8   8   8   8
#     4  10  22  38  56  74 110 142 190 240 288 332
#     4   9  20  36  54  82 117 149 185 230 290 360
#     4   9  18  30  50  79 109 142 180 226 272 328
#     4   9  17  33  51  75 115 154 183 232 290 336
#     4  11  20  33  58  81 104 148 190 234 288 350
#     4  10  23  38  53  80 105 140 185 242 284 340
#     4   9  17  30  48  76 111 143 183 227 270 331
#     4  10  21  34  55  77 107 149 191 235 280 330
#
# _framework density 18.619643
#
# number of rings (size 3 to 8) (size 9 to 14) (size 15 to 20)
#    0.000    2.400    0.000    2.800    2.800    4.800 
#    0.000    0.000    0.000   12.000    5.200    0.000 
#    0.000    0.000    0.000    0.000    0.000    0.000 
#
# Total GULP energy -334173.376447 kJ/mol
# GULP energy per Si atom -5569.556274 kJ/mol
# Density = 1.857726 g / cm^3
# Si number density = 18.619643 Si / 1000 Ang^3
#
#
#
# Elastic Constant Matrix: (Units=GPa)
#
#
# Indices 1 2 3 4 5 6 
#
# 1 102.7616 39.3212 33.9264 0.0000 0.0000 0.0000
# 2 39.3212 90.3269 33.6306 0.0000 0.0000 0.0000
# 3 33.9264 33.6306 72.1692 0.0000 0.0000 0.0000
# 4 0.0000 0.0000 0.0000 24.3978 0.0000 0.0000
# 5 0.0000 0.0000 0.0000 0.0000 24.0715 0.0000
# 6 0.0000 0.0000 0.0000 0.0000 0.0000 31.2445
#
#
#
# Elastic Compliance Matrix: (Units=1/GPa)
#
#
# Indices 1 2 3 4 5 6 
#
# 1 0.012593 -0.003966 -0.004072 0.000000 0.000000 0.000000
# 2 -0.003966 0.014644 -0.004960 0.000000 0.000000 0.000000
# 3 -0.004072 -0.004960 0.018082 0.000000 0.000000 0.000000
# 4 0.000000 0.000000 0.000000 0.040987 0.000000 0.000000
# 5 0.000000 0.000000 0.000000 0.000000 0.041543 0.000000
# 6 0.000000 0.000000 0.000000 0.000000 0.000000 0.032006
#
#
# Mechanical properties :
#
#
# Convention : Reuss Voigt Hill
#
# Bulk Modulus (GPa) = 51.74967 53.22379 52.48673
# Shear Modulus (GPa) = 26.00227 26.50138 26.25182
#
# Velocity S-wave (km/s) = 3.74103 3.77676 3.75894
# Velocity P-wave (km/s) = 6.82010 6.90401 6.86218
#
# Compressibility (1/GPa) = 0.01932379
#
# Stress axis : x y z
#
# Youngs Moduli (GPa) = 79.40836 68.28742 55.30475
#
# Poissons Ratio (x) = 0.27083 0.22519
# Poissons Ratio (y) = 0.31494 0.27429
# Poissons Ratio (z) = 0.32333 0.33868
#
# Static dielectric constant tensor:
#      x y z
#    x 1.646110 0.000000 0.000000 
#    y 0.000000 1.682560 0.000000 
#    z 0.000000 0.000000 1.693750 
# 
# From -- ./inp_files/34501.got.cif
#   From: 2010.05.17/outbox.cif.g08.bks.cpg/sg52_18_cif.got.tgz:34501.got - 2010.06.03 12:15:38.
