data_PCOD9410798
_publ_section_title
;
Structure prediction by ZEFSAII (Michael W. Deem and Ramdas Pophale) SiO2 
 PCOD9410798
Probable space group: P N N A
;
_chemical_formula_sum "Si O2"
_cell_formula_units_Z 48
_cell_length_a 28.918017
_cell_length_b 5.946793
_cell_length_c 12.131980
_cell_angle_alpha 90.000000
_cell_angle_beta 90.000000
_cell_angle_gamma 90.000000
_cell_volume 2086.330062
_symmetry_space_group_name_H-M "P N N A"
_symmetry_group_IT_number 52
_symmetry_cell_setting 'orthorhombic'
loop_
_space_group_symop_operation_xyz
x,y,z
1/2-x,-y,z
x,1/2-y,1/2-z
1/2-x,1/2+y,1/2-z
-x,-y,-z
1/2+x,y,-z
-x,1/2+y,1/2+z
1/2+x,1/2-y,1/2+z
loop_
_atom_site_type_symbol
_atom_site_label
_atom_site_fract_x
_atom_site_fract_y
_atom_site_fract_z
Si Si1 0.966378 0.756526 0.575163
Si Si2 0.949978 0.242282 0.583161
Si Si3 0.706266 0.336415 0.626407
Si Si4 0.857115 0.139533 0.999595
Si Si5 0.799203 0.984716 0.417672
Si Si6 0.895783 0.760649 0.129586
O O1 0.955216 0.505619 0.622925
O O2 0.931633 0.786433 0.469375
O O3 0.017918 0.746320 0.525669
O O4 0.963481 0.999825 0.636336
O O5 0.896088 0.212410 0.556076
O O6 0.750000 0.500000 0.622408
O O7 0.702862 0.250000 0.750000
O O8 0.660255 0.467929 0.592233
O O9 0.710141 0.152998 0.530171
O O10 0.813567 0.268396 0.045956
O O11 0.879785 0.011529 0.101216
O O12 0.847168 0.880275 0.369757
O O13 0.750000 0.000000 0.354691
O O14 0.917684 0.750000 0.250000
#
# Coordination Sequence:
#
# PCOD9410798 Si02
#       6
#     8   8   8   8   8   8
#     4   9  17  33  59  87 113 155 204 251 306 370
#     4   9  17  33  60  87 115 152 200 250 312 368
#     4  11  23  37  61  88 117 154 202 254 319 389
#     4  10  21  38  60  87 121 161 199 255 311 375
#     4  11  21  39  58  83 118 159 205 253 307 371
#     4  10  22  38  57  86 122 163 212 256 303 359
#
# _framework density 23.006909
#
# number of rings (size 3 to 8) (size 9 to 14) (size 15 to 20)
#    0.000    2.000    3.333    0.500    0.000    0.667 
#    3.000    0.000    3.667    0.000    0.000    0.000 
#    0.000    0.000    0.000    0.000    0.000    0.000 
#
# Total GULP energy -267272.740111 kJ/mol
# GULP energy per Si atom -5568.182086 kJ/mol
# Density = 2.295454 g / cm^3
# Si number density = 23.006909 Si / 1000 Ang^3
#
#
#
# Elastic Constant Matrix: (Units=GPa)
#
#
# Indices 1 2 3 4 5 6 
#
# 1 104.0082 1.1218 3.0536 0.0000 0.0000 0.0000
# 2 1.1218 135.4988 19.1127 0.0000 0.0000 0.0000
# 3 3.0536 19.1127 90.5712 0.0000 0.0000 0.0000
# 4 0.0000 0.0000 0.0000 -34.6889 0.0000 0.0000
# 5 0.0000 0.0000 0.0000 0.0000 -58.2379 0.0000
# 6 0.0000 0.0000 0.0000 0.0000 0.0000 58.4174
#
#
#
# Elastic Compliance Matrix: (Units=1/GPa)
#
#
# Indices 1 2 3 4 5 6 
#
# 1 0.009624 -0.000035 -0.000317 0.000000 0.000000 0.000000
# 2 -0.000035 0.007607 -0.001604 0.000000 0.000000 0.000000
# 3 -0.000317 -0.001604 0.011390 0.000000 0.000000 0.000000
# 4 0.000000 0.000000 0.000000 -0.028828 0.000000 0.000000
# 5 0.000000 0.000000 0.000000 0.000000 -0.017171 0.000000
# 6 0.000000 0.000000 0.000000 0.000000 0.000000 0.017118
#
#
# Mechanical properties :
#
#
# Convention : Reuss Voigt Hill
#
# Bulk Modulus (GPa) = 40.47095 41.85047 41.16071
# Shear Modulus (GPa) = 420.54694 13.55079 217.04887
#
# Velocity S-wave (km/s) = 13.53471 2.42954 9.72345
# Velocity P-wave (km/s) = 16.18271 5.10883 11.99959
#
# Compressibility (1/GPa) = 0.02470908
#
# Stress axis : x y z
#
# Youngs Moduli (GPa) = 103.90348 131.46342 87.79465
#
# Poissons Ratio (x) = 0.00459 0.02784
# Poissons Ratio (y) = 0.00363 0.14082
# Poissons Ratio (z) = 0.03295 0.21087
#
# Static dielectric constant tensor:
#      x y z
#    x 1.907590 0.000000 0.000000 
#    y 0.000000 1.973730 0.000000 
#    z 0.000000 0.000000 1.997400 
# 
# From -- ./inp_files/29606.got.cif
#   From: 2010.05.17/outbox.cif.g08.bks.cpg/sg52_15_cif.got.tgz:29606.got - 2010.06.03 12:15:38.
