data_PCOD9410123
_publ_section_title
;
Structure prediction by ZEFSAII (Michael W. Deem and Ramdas Pophale) SiO2 
 PCOD9410123
Probable space group: P N N A
;
_chemical_formula_sum "Si O2"
_cell_formula_units_Z 48
_cell_length_a 13.740563
_cell_length_b 14.972849
_cell_length_c 11.712312
_cell_angle_alpha 90.000000
_cell_angle_beta 90.000000
_cell_angle_gamma 90.000000
_cell_volume 2409.636901
_symmetry_space_group_name_H-M "P N N A"
_symmetry_group_IT_number 52
_symmetry_cell_setting 'orthorhombic'
loop_
_space_group_symop_operation_xyz
x,y,z
1/2-x,-y,z
x,1/2-y,1/2-z
1/2-x,1/2+y,1/2-z
-x,-y,-z
1/2+x,y,-z
-x,1/2+y,1/2+z
1/2+x,1/2-y,1/2+z
loop_
_atom_site_type_symbol
_atom_site_label
_atom_site_fract_x
_atom_site_fract_y
_atom_site_fract_z
Si Si1 0.085115 0.654128 0.198615
Si Si2 0.884922 0.569922 0.254812
Si Si3 0.243771 0.635127 0.381359
Si Si4 0.256810 0.750000 0.750000
Si Si5 0.201220 0.808892 0.505190
Si Si6 0.885204 0.504299 0.505386
Si Si7 0.250000 0.000000 0.575757
O O1 0.057091 0.750000 0.250000
O O2 0.188736 0.631057 0.259621
O O3 0.998941 0.587667 0.232459
O O4 0.102463 0.670166 0.064544
O O5 0.826734 0.663546 0.251800
O O6 0.859432 0.532229 0.378045
O O7 0.842932 0.504174 0.159056
O O8 0.256116 0.735409 0.426904
O O9 0.162657 0.589370 0.462606
O O10 0.338736 0.575155 0.404832
O O11 0.197264 0.766810 0.632468
O O12 0.250826 0.906236 0.510996
O O13 0.000000 0.500000 0.500000
#
# Coordination Sequence:
#
# PCOD9410123 Si02
#       7
#     8   8   8   4   8   8   4
#     4  10  21  38  64  92 127 172 213 257 331 397
#     4  11  20  38  60  94 120 165 219 258 320 387
#     4  10  21  38  62  93 130 162 208 270 319 371
#     4  10  20  38  66  86 122 166 210 268 314 378
#     4  10  22  40  62  91 126 165 214 257 323 381
#     4  11  21  35  62  97 122 164 217 263 315 377
#     4  10  24  38  64  86 120 170 204 262 320 386
#
# _framework density 19.920013999999998
#
# number of rings (size 3 to 8) (size 9 to 14) (size 15 to 20)
#    0.000    1.667    4.167    1.000    2.333    2.000 
#    0.000    0.000    0.000    0.000    0.000    0.000 
#    0.000    0.000    0.000    0.000    0.000    0.000 
#
# Total GULP energy -267437.897793 kJ/mol
# GULP energy per Si atom -5571.622871 kJ/mol
# Density = 1.987468 g / cm^3
# Si number density = 19.920014 Si / 1000 Ang^3
#
#
#
# Elastic Constant Matrix: (Units=GPa)
#
#
# Indices 1 2 3 4 5 6 
#
# 1 101.4035 25.6391 35.3909 0.0000 0.0000 0.0000
# 2 25.6391 94.6002 20.7531 0.0000 0.0000 0.0000
# 3 35.3909 20.7531 105.9199 0.0000 0.0000 0.0000
# 4 0.0000 0.0000 0.0000 24.3539 0.0000 0.0000
# 5 0.0000 0.0000 0.0000 0.0000 9.5374 0.0000
# 6 0.0000 0.0000 0.0000 0.0000 0.0000 20.7695
#
#
#
# Elastic Compliance Matrix: (Units=1/GPa)
#
#
# Indices 1 2 3 4 5 6 
#
# 1 0.011667 -0.002410 -0.003426 0.000000 0.000000 0.000000
# 2 -0.002410 0.011544 -0.001456 0.000000 0.000000 0.000000
# 3 -0.003426 -0.001456 0.010871 0.000000 0.000000 0.000000
# 4 0.000000 0.000000 0.000000 0.041061 0.000000 0.000000
# 5 0.000000 0.000000 0.000000 0.000000 0.104850 0.000000
# 6 0.000000 0.000000 0.000000 0.000000 0.000000 0.048148
#
#
# Mechanical properties :
#
#
# Convention : Reuss Voigt Hill
#
# Bulk Modulus (GPa) = 51.29243 51.72109 51.50676
# Shear Modulus (GPa) = 20.06223 25.60820 22.83521
#
# Velocity S-wave (km/s) = 3.17699 3.58935 3.38944
# Velocity P-wave (km/s) = 6.26600 6.57257 6.42111
#
# Compressibility (1/GPa) = 0.01949605
#
# Stress axis : x y z
#
# Youngs Moduli (GPa) = 85.71383 86.62827 91.98668
#
# Poissons Ratio (x) = 0.20881 0.31514
# Poissons Ratio (y) = 0.20661 0.13397
# Poissons Ratio (z) = 0.29365 0.12616
#
# Static dielectric constant tensor:
#      x y z
#    x 1.717530 0.000000 0.000000 
#    y 0.000000 1.733560 0.000000 
#    z 0.000000 0.000000 1.868750 
# 
# From -- ./inp_files/19562.got.cif
#   From: 2010.05.17/outbox.cif.g08.bks.cpg/sg52_10_cif.got.tgz:19562.got - 2010.06.03 12:15:38.
