data_PCOD9410694
_publ_section_title
;
Structure prediction by ZEFSAII (Michael W. Deem and Ramdas Pophale) SiO2 
 PCOD9410694
Probable space group: P N N A
;
_chemical_formula_sum "Si O2"
_cell_formula_units_Z 44
_cell_length_a 20.381653
_cell_length_b 7.510676
_cell_length_c 14.223723
_cell_angle_alpha 90.000000
_cell_angle_beta 90.000000
_cell_angle_gamma 90.000000
_cell_volume 2177.367403
_symmetry_space_group_name_H-M "P N N A"
_symmetry_group_IT_number 52
_symmetry_cell_setting 'orthorhombic'
loop_
_space_group_symop_operation_xyz
x,y,z
1/2-x,-y,z
x,1/2-y,1/2-z
1/2-x,1/2+y,1/2-z
-x,-y,-z
1/2+x,y,-z
-x,1/2+y,1/2+z
1/2+x,1/2-y,1/2+z
loop_
_atom_site_type_symbol
_atom_site_label
_atom_site_fract_x
_atom_site_fract_y
_atom_site_fract_z
Si Si1 0.250000 0.500000 0.057849
Si Si2 0.106851 0.535259 0.480470
Si Si3 0.517343 0.522108 0.356069
Si Si4 0.001522 0.547607 0.857393
Si Si5 0.389611 0.448430 0.006684
Si Si6 0.795273 0.835171 0.842043
O O1 0.317502 0.528889 0.002798
O O2 0.251574 0.321491 0.120012
O O3 0.080273 0.467950 0.581513
O O4 0.125972 0.738599 0.498992
O O5 0.157384 0.412559 0.423407
O O6 0.044156 0.553403 0.412311
O O7 0.514681 0.477104 0.246789
O O8 0.507940 0.737294 0.359567
O O9 0.930600 0.492994 0.898498
O O10 0.059669 0.488261 0.927184
O O11 0.830299 0.750000 0.750000
O O12 0.750000 0.000000 0.813209
#
# Coordination Sequence:
#
# PCOD9410694 Si02
#       6
#     4   8   8   8   8   8
#     4  12  24  40  62  86 128 162 196 252 310 366
#     4  10  21  37  58  89 120 157 204 253 308 361
#     4   9  19  36  61  86 119 157 203 258 300 360
#     4   9  19  37  62  88 119 162 206 249 305 363
#     4  10  21  37  59  90 125 160 203 253 303 366
#     4  12  25  41  60  87 123 165 205 246 310 378
#
# _framework density 20.207889999999999
#
# number of rings (size 3 to 8) (size 9 to 14) (size 15 to 20)
#    0.000    1.818    2.727    1.091    5.091    2.182 
#    0.000    0.000    2.000    0.000    0.000    0.000 
#    0.000    0.000    0.000    0.000    0.000    0.000 
#
# Total GULP energy -245408.289484 kJ/mol
# GULP energy per Si atom -5577.461125 kJ/mol
# Density = 2.016190 g / cm^3
# Si number density = 20.207890 Si / 1000 Ang^3
#
#
#
# Elastic Constant Matrix: (Units=GPa)
#
#
# Indices 1 2 3 4 5 6 
#
# 1 103.4716 6.9924 39.4158 0.0000 0.0000 0.0000
# 2 6.9924 69.4998 -4.2238 0.0000 0.0000 0.0000
# 3 39.4158 -4.2238 121.4329 0.0000 0.0000 0.0000
# 4 0.0000 0.0000 0.0000 15.9895 0.0000 0.0000
# 5 0.0000 0.0000 0.0000 0.0000 20.0623 0.0000
# 6 0.0000 0.0000 0.0000 0.0000 0.0000 28.4690
#
#
#
# Elastic Compliance Matrix: (Units=1/GPa)
#
#
# Indices 1 2 3 4 5 6 
#
# 1 0.011152 -0.001345 -0.003667 0.000000 0.000000 0.000000
# 2 -0.001345 0.014581 0.000944 0.000000 0.000000 0.000000
# 3 -0.003667 0.000944 0.009458 0.000000 0.000000 0.000000
# 4 0.000000 0.000000 0.000000 0.062541 0.000000 0.000000
# 5 0.000000 0.000000 0.000000 0.000000 0.049845 0.000000
# 6 0.000000 0.000000 0.000000 0.000000 0.000000 0.035126
#
#
# Mechanical properties :
#
#
# Convention : Reuss Voigt Hill
#
# Bulk Modulus (GPa) = 36.96079 42.08591 39.52335
# Shear Modulus (GPa) = 25.01788 29.71882 27.36835
#
# Velocity S-wave (km/s) = 3.52238 3.83907 3.68413
# Velocity P-wave (km/s) = 5.90532 6.36577 6.13986
#
# Compressibility (1/GPa) = 0.02705570
#
# Stress axis : x y z
#
# Youngs Moduli (GPa) = 89.66906 68.58150 105.73087
#
# Poissons Ratio (x) = 0.09223 0.38768
# Poissons Ratio (y) = 0.12059 -0.09978
# Poissons Ratio (z) = 0.32878 -0.06472
#
# Static dielectric constant tensor:
#      x y z
#    x 1.724820 0.000000 0.000000 
#    y 0.000000 1.773870 0.000000 
#    z 0.000000 0.000000 1.750170 
# 
# From -- ./inp_files/27948.got.cif
#   From: 2010.05.17/outbox.cif.g08.bks.cpg/sg52_14_cif.got.tgz:27948.got - 2010.06.03 12:15:38.
