data_PCOD9410510
_publ_section_title
;
Structure prediction by ZEFSAII (Michael W. Deem and Ramdas Pophale) SiO2 
 PCOD9410510
Probable space group: P N N A
;
_chemical_formula_sum "Si O2"
_cell_formula_units_Z 60
_cell_length_a 11.168402
_cell_length_b 22.081982
_cell_length_c 9.769995
_cell_angle_alpha 90.000000
_cell_angle_beta 90.000000
_cell_angle_gamma 90.000000
_cell_volume 2409.480582
_symmetry_space_group_name_H-M "P N N A"
_symmetry_group_IT_number 52
_symmetry_cell_setting 'orthorhombic'
loop_
_space_group_symop_operation_xyz
x,y,z
1/2-x,-y,z
x,1/2-y,1/2-z
1/2-x,1/2+y,1/2-z
-x,-y,-z
1/2+x,y,-z
-x,1/2+y,1/2+z
1/2+x,1/2-y,1/2+z
loop_
_atom_site_type_symbol
_atom_site_label
_atom_site_fract_x
_atom_site_fract_y
_atom_site_fract_z
Si Si1 0.307739 0.441060 0.427778
Si Si2 0.849919 0.235339 0.458052
Si Si3 0.632772 0.123061 0.735255
Si Si4 0.514469 0.938429 0.693917
Si Si5 0.094254 0.163692 0.541156
Si Si6 0.231999 0.750000 0.250000
Si Si7 0.870107 0.138042 0.176050
Si Si8 0.143573 0.953470 0.585183
O O1 0.250000 0.500000 0.493584
O O2 0.217847 0.423729 0.306915
O O3 0.431658 0.444521 0.345251
O O4 0.311791 0.392274 0.545382
O O5 0.716899 0.203010 0.442158
O O6 0.843910 0.259051 0.614011
O O7 0.855744 0.209167 0.148164
O O8 0.977891 0.198588 0.471541
O O9 0.616744 0.112187 0.574351
O O10 0.690088 0.189771 0.738305
O O11 0.511176 0.125654 0.818627
O O12 0.442438 0.874835 0.675300
O O13 0.606011 0.931785 0.565479
O O14 0.452507 0.002462 0.659556
O O15 0.829773 0.102898 0.313905
O O16 0.250000 0.000000 0.570496
#
# Coordination Sequence:
#
# PCOD9410510 Si02
#       8
#     8   8   8   8   8   4   8   8
#     4  12  27  45  76 105 152 208 261 313 396 480
#     4  11  25  45  76 113 150 207 256 324 397 479
#     4  11  23  45  74 100 151 205 248 317 398 470
#     4  11  25  48  74 114 142 209 269 322 386 486
#     4  11  25  47  80 110 150 203 268 326 396 476
#     4  10  20  46  72 102 146 208 246 302 410 488
#     4  12  25  46  71 113 149 202 257 319 396 477
#     4  11  26  45  74 106 156 195 258 334 393 454
#
# _framework density 24.901630999999998
#
# number of rings (size 3 to 8) (size 9 to 14) (size 15 to 20)
#    0.000    0.800    2.667    4.800    5.600    3.200 
#    0.000    1.333    0.000    0.000    0.000    0.000 
#    0.000    0.000    0.000    0.000    0.000    0.000 
#
# Total GULP energy -335449.452520 kJ/mol
# GULP energy per Si atom -5590.824209 kJ/mol
# Density = 2.484495 g / cm^3
# Si number density = 24.901631 Si / 1000 Ang^3
#
#
#
# Elastic Constant Matrix: (Units=GPa)
#
#
# Indices 1 2 3 4 5 6 
#
# 1 104.7362 44.1478 9.3581 0.0000 0.0000 0.0000
# 2 44.1478 128.0529 31.5002 0.0000 0.0000 0.0000
# 3 9.3581 31.5002 75.6531 0.0000 0.0000 0.0000
# 4 0.0000 0.0000 0.0000 41.2478 0.0000 0.0000
# 5 0.0000 0.0000 0.0000 0.0000 24.9513 0.0000
# 6 0.0000 0.0000 0.0000 0.0000 0.0000 37.5967
#
#
#
# Elastic Compliance Matrix: (Units=1/GPa)
#
#
# Indices 1 2 3 4 5 6 
#
# 1 0.011175 -0.003914 0.000247 0.000000 0.000000 0.000000
# 2 -0.003914 0.010071 -0.003709 0.000000 0.000000 0.000000
# 3 0.000247 -0.003709 0.014732 0.000000 0.000000 0.000000
# 4 0.000000 0.000000 0.000000 0.024244 0.000000 0.000000
# 5 0.000000 0.000000 0.000000 0.000000 0.040078 0.000000
# 6 0.000000 0.000000 0.000000 0.000000 0.000000 0.026598
#
#
# Mechanical properties :
#
#
# Convention : Reuss Voigt Hill
#
# Bulk Modulus (GPa) = 47.10962 53.16160 50.13561
# Shear Modulus (GPa) = 33.61903 35.65492 34.63698
#
# Velocity S-wave (km/s) = 3.67832 3.78806 3.73359
# Velocity P-wave (km/s) = 6.08271 6.36612 6.22603
#
# Compressibility (1/GPa) = 0.02122709
#
# Stress axis : x y z
#
# Youngs Moduli (GPa) = 89.48249 99.29499 67.87903
#
# Poissons Ratio (x) = 0.38861 -0.01678
# Poissons Ratio (y) = 0.35020 0.25178
# Poissons Ratio (z) = -0.02212 0.36831
#
# Static dielectric constant tensor:
#      x y z
#    x 2.092120 0.000000 0.000000 
#    y 0.000000 1.999570 0.000000 
#    z 0.000000 0.000000 1.956480 
# 
# From -- ./inp_files/9018.got.cif
#   From: 2010.05.17/outbox.cif.g08.bks.cpg/sg52_5_cif.got.tgz:9018.got - 2010.06.03 12:15:38.
