data_PCOD9410011
_publ_section_title
;
Structure prediction by ZEFSAII (Michael W. Deem and Ramdas Pophale) SiO2 
 PCOD9410011
Probable space group: P N N A
;
_chemical_formula_sum "Si O2"
_cell_formula_units_Z 64
_cell_length_a 11.529699
_cell_length_b 8.833374
_cell_length_c 30.737161
_cell_angle_alpha 90.000000
_cell_angle_beta 90.000000
_cell_angle_gamma 90.000000
_cell_volume 3130.461306
_symmetry_space_group_name_H-M "P N N A"
_symmetry_group_IT_number 52
_symmetry_cell_setting 'orthorhombic'
loop_
_space_group_symop_operation_xyz
x,y,z
1/2-x,-y,z
x,1/2-y,1/2-z
1/2-x,1/2+y,1/2-z
-x,-y,-z
1/2+x,y,-z
-x,1/2+y,1/2+z
1/2+x,1/2-y,1/2+z
loop_
_atom_site_type_symbol
_atom_site_label
_atom_site_fract_x
_atom_site_fract_y
_atom_site_fract_z
Si Si1 0.307515 0.837810 0.676871
Si Si2 0.992641 0.655373 0.560104
Si Si3 0.956661 0.929030 0.214750
Si Si4 0.145112 0.389260 0.522040
Si Si5 0.064241 0.326397 0.341943
Si Si6 0.298872 0.261274 0.299099
Si Si7 0.027277 0.515986 0.185301
Si Si8 0.217935 0.825606 0.585095
O O1 0.350905 0.689275 0.704837
O O2 0.229610 0.786835 0.636361
O O3 0.250000 0.000000 0.693790
O O4 0.431072 0.894869 0.657757
O O5 0.052818 0.498552 0.545492
O O6 0.092272 0.780327 0.567122
O O7 0.907053 0.690178 0.520447
O O8 0.937487 0.637277 0.607352
O O9 0.079435 0.848738 0.204209
O O10 0.968767 0.074300 0.184040
O O11 0.973661 0.972785 0.265460
O O12 0.250000 0.500000 0.508128
O O13 0.193513 0.274093 0.557333
O O14 0.196848 0.338752 0.325407
O O15 0.037066 0.152531 0.330956
O O16 0.251477 0.250000 0.250000
O O17 0.349674 0.100488 0.314765
O O18 0.250000 0.000000 0.580607
#
# Coordination Sequence:
#
# PCOD9410011 Si02
#       8
#     8   8   8   8   8   8   8   8
#     4  10  20  38  59  79 111 157 199 245 300 351
#     4  10  22  38  59  87 116 151 193 238 296 365
#     4  10  21  36  56  83 116 159 211 253 293 349
#     4   9  20  41  63  84 115 151 188 238 298 364
#     4  12  20  32  57  89 119 151 199 249 299 359
#     4   9  19  35  54  77 116 165 201 239 299 356
#     4  10  21  38  55  81 121 160 198 247 301 352
#     4  10  20  38  61  84 114 151 191 242 304 361
#
# _framework density 20.444271000000001
#
# number of rings (size 3 to 8) (size 9 to 14) (size 15 to 20)
#    0.000    2.000    0.000    5.250    0.000    3.500 
#    0.000   11.875    0.000    0.750    0.000    0.000 
#    0.000    0.000    0.000    0.000    0.000    0.000 
#
# Total GULP energy -356805.466537 kJ/mol
# GULP energy per Si atom -5575.085415 kJ/mol
# Density = 2.039774 g / cm^3
# Si number density = 20.444271 Si / 1000 Ang^3
#
#
#
# Elastic Constant Matrix: (Units=GPa)
#
#
# Indices 1 2 3 4 5 6 
#
# 1 86.9584 28.4829 48.4427 0.0000 0.0000 0.0000
# 2 28.4829 73.2466 46.3386 0.0000 0.0000 0.0000
# 3 48.4427 46.3386 93.9532 0.0000 0.0000 0.0000
# 4 0.0000 0.0000 0.0000 16.7703 0.0000 0.0000
# 5 0.0000 0.0000 0.0000 0.0000 7.8755 0.0000
# 6 0.0000 0.0000 0.0000 0.0000 0.0000 28.6492
#
#
#
# Elastic Compliance Matrix: (Units=1/GPa)
#
#
# Indices 1 2 3 4 5 6 
#
# 1 0.016244 -0.001480 -0.007645 0.000000 0.000000 0.000000
# 2 -0.001480 0.019979 -0.009091 0.000000 0.000000 0.000000
# 3 -0.007645 -0.009091 0.019069 0.000000 0.000000 0.000000
# 4 0.000000 0.000000 0.000000 0.059629 0.000000 0.000000
# 5 0.000000 0.000000 0.000000 0.000000 0.126976 0.000000
# 6 0.000000 0.000000 0.000000 0.000000 0.000000 0.034905
#
#
# Mechanical properties :
#
#
# Convention : Reuss Voigt Hill
#
# Bulk Modulus (GPa) = 53.02264 55.63183 54.32723
# Shear Modulus (GPa) = 15.64841 19.38528 17.51684
#
# Velocity S-wave (km/s) = 2.76962 3.08263 2.93031
# Velocity P-wave (km/s) = 6.01824 6.31986 6.17089
#
# Compressibility (1/GPa) = 0.01885987
#
# Stress axis : x y z
#
# Youngs Moduli (GPa) = 61.56292 50.05200 52.44012
#
# Poissons Ratio (x) = 0.07406 0.40093
# Poissons Ratio (y) = 0.09110 0.47673
# Poissons Ratio (z) = 0.47068 0.45502
#
# Static dielectric constant tensor:
#      x y z
#    x 1.793770 0.000000 0.000000 
#    y 0.000000 1.831620 0.000000 
#    z 0.000000 0.000000 1.734620 
# 
# From -- ./inp_files/44857.got.cif
#   From: 2010.05.17/outbox.cif.g08.bks.cpg/sg52_23_cif.got.tgz:44857.got - 2010.06.03 12:15:38.
