data_PCOD9410989
_publ_section_title
;
Structure prediction by ZEFSAII (Michael W. Deem and Ramdas Pophale) SiO2 
 PCOD9410989
Probable space group: P N N A
;
_chemical_formula_sum "Si O2"
_cell_formula_units_Z 36
_cell_length_a 5.000900
_cell_length_b 10.609340
_cell_length_c 32.321401
_cell_angle_alpha 90.000000
_cell_angle_beta 90.000000
_cell_angle_gamma 90.000000
_cell_volume 1714.852280
_symmetry_space_group_name_H-M "P N N A"
_symmetry_group_IT_number 52
_symmetry_cell_setting 'orthorhombic'
loop_
_space_group_symop_operation_xyz
x,y,z
1/2-x,-y,z
x,1/2-y,1/2-z
1/2-x,1/2+y,1/2-z
-x,-y,-z
1/2+x,y,-z
-x,1/2+y,1/2+z
1/2+x,1/2-y,1/2+z
loop_
_atom_site_type_symbol
_atom_site_label
_atom_site_fract_x
_atom_site_fract_y
_atom_site_fract_z
Si Si1 0.812708 0.750000 0.250000
Si Si2 0.391139 0.767945 0.116196
Si Si3 0.602521 0.365309 0.335579
Si Si4 0.250000 0.000000 0.707316
Si Si5 0.250000 0.500000 0.149409
Si Si6 0.234829 0.347939 0.475402
O O1 0.957154 0.694644 0.290577
O O2 0.667397 0.624123 0.233345
O O3 0.675944 0.788544 0.138161
O O4 0.312512 0.623398 0.123187
O O5 0.376160 0.801348 0.068145
O O6 0.171354 0.855890 0.139073
O O7 0.750000 0.500000 0.330537
O O8 0.500448 0.968796 0.678755
O O9 0.250000 0.500000 0.473378
O O10 0.531388 0.307937 0.488344
#
# Coordination Sequence:
#
# PCOD9410989 Si02
#       6
#     4   8   8   4   4   8
#     4  12  24  44  62  94 126 172 222 266 316 368
#     4  12  24  43  65  94 129 169 211 262 321 394
#     4  12  25  40  64  93 127 169 216 270 315 377
#     4  12  26  44  64  91 134 178 220 273 318 376
#     4  12  24  44  64  93 130 180 208 255 328 386
#     4  10  21  39  64  92 123 159 205 264 322 378
#
# _framework density 20.993061999999998
#
# number of rings (size 3 to 8) (size 9 to 14) (size 15 to 20)
#    0.000    0.444    5.556    3.333    0.000    5.333 
#    0.000    1.111    0.000    0.000    0.000    0.000 
#    0.000    0.000    0.000    0.000    0.000    0.000 
#
# Total GULP energy -201120.199372 kJ/mol
# GULP energy per Si atom -5586.672205 kJ/mol
# Density = 2.094528 g / cm^3
# Si number density = 20.993062 Si / 1000 Ang^3
#
#
#
# Elastic Constant Matrix: (Units=GPa)
#
#
# Indices 1 2 3 4 5 6 
#
# 1 95.5904 1.8779 24.6199 0.0000 0.0000 0.0000
# 2 1.8779 98.9350 13.9388 0.0000 0.0000 0.0000
# 3 24.6199 13.9388 121.3239 0.0000 0.0000 0.0000
# 4 0.0000 0.0000 0.0000 64.0365 0.0000 0.0000
# 5 0.0000 0.0000 0.0000 0.0000 10.4271 0.0000
# 6 0.0000 0.0000 0.0000 0.0000 0.0000 23.5020
#
#
#
# Elastic Compliance Matrix: (Units=1/GPa)
#
#
# Indices 1 2 3 4 5 6 
#
# 1 0.011039 0.000108 -0.002253 0.000000 0.000000 0.000000
# 2 0.000108 0.010275 -0.001202 0.000000 0.000000 0.000000
# 3 -0.002253 -0.001202 0.008838 0.000000 0.000000 0.000000
# 4 0.000000 0.000000 0.000000 0.015616 0.000000 0.000000
# 5 0.000000 0.000000 0.000000 0.000000 0.095904 0.000000
# 6 0.000000 0.000000 0.000000 0.000000 0.000000 0.042550
#
#
# Mechanical properties :
#
#
# Convention : Reuss Voigt Hill
#
# Bulk Modulus (GPa) = 42.62983 44.08030 43.35506
# Shear Modulus (GPa) = 25.15916 37.95397 31.55656
#
# Velocity S-wave (km/s) = 3.46562 4.25659 3.88131
# Velocity P-wave (km/s) = 6.03032 6.72318 6.38615
#
# Compressibility (1/GPa) = 0.02345775
#
# Stress axis : x y z
#
# Youngs Moduli (GPa) = 90.58509 97.32360 113.15233
#
# Poissons Ratio (x) = -0.01049 0.25488
# Poissons Ratio (y) = -0.00977 0.13605
# Poissons Ratio (z) = 0.20405 0.11702
#
# Static dielectric constant tensor:
#      x y z
#    x 1.729370 0.000000 0.000000 
#    y 0.000000 1.794580 0.000000 
#    z 0.000000 0.000000 1.734240 
# 
# From -- ./inp_files/38597.got.cif
#   From: 2010.05.17/outbox.cif.g08.bks.cpg/sg52_20_cif.got.tgz:38597.got - 2010.06.03 12:15:38.
