data_PCOD9410073
_publ_section_title
;
Structure prediction by ZEFSAII (Michael W. Deem and Ramdas Pophale) SiO2 
 PCOD9410073
Probable space group: P N N A
;
_chemical_formula_sum "Si O2"
_cell_formula_units_Z 40
_cell_length_a 8.081631
_cell_length_b 25.259679
_cell_length_c 8.881398
_cell_angle_alpha 90.000000
_cell_angle_beta 90.000000
_cell_angle_gamma 90.000000
_cell_volume 1813.043302
_symmetry_space_group_name_H-M "P N N A"
_symmetry_group_IT_number 52
_symmetry_cell_setting 'orthorhombic'
loop_
_space_group_symop_operation_xyz
x,y,z
1/2-x,-y,z
x,1/2-y,1/2-z
1/2-x,1/2+y,1/2-z
-x,-y,-z
1/2+x,y,-z
-x,1/2+y,1/2+z
1/2+x,1/2-y,1/2+z
loop_
_atom_site_type_symbol
_atom_site_label
_atom_site_fract_x
_atom_site_fract_y
_atom_site_fract_z
Si Si1 0.402197 0.318246 0.609143
Si Si2 0.335428 0.837335 0.355520
Si Si3 0.510273 0.777761 0.607248
Si Si4 0.615473 0.396277 0.407744
Si Si5 0.790064 0.059543 0.797657
O O1 0.524353 0.313933 0.748150
O O2 0.407447 0.264508 0.510510
O O3 0.491575 0.359103 0.498663
O O4 0.242364 0.352551 0.657254
O O5 0.395655 0.819170 0.519206
O O6 0.163598 0.808729 0.322236
O O7 0.300138 0.898025 0.311684
O O8 0.422785 0.750000 0.750000
O O9 0.711943 0.430953 0.534062
O O10 0.488511 0.429483 0.304910
O O11 0.750000 0.000000 0.752510
#
# Coordination Sequence:
#
# PCOD9410073 Si02
#       5
#     8   8   8   8   8
#     4  10  20  38  62  94 127 158 200 258 318 380
#     4  11  26  41  61  94 125 164 217 260 318 388
#     4  12  23  39  61  89 126 166 203 256 322 391
#     4   9  18  33  63  99 128 161 208 258 316 384
#     4  10  20  39  63  94 133 173 218 272 319 371
#
# _framework density 22.062352000000001
#
# number of rings (size 3 to 8) (size 9 to 14) (size 15 to 20)
#    0.000    1.600    0.000    7.200    0.000    4.800 
#    0.000    1.000    0.000    0.000    0.000    1.400 
#    0.000    0.000    0.000    0.000    0.000    0.000 
#
# Total GULP energy -223230.934363 kJ/mol
# GULP energy per Si atom -5580.773359 kJ/mol
# Density = 2.201214 g / cm^3
# Si number density = 22.062352 Si / 1000 Ang^3
#
#
#
# Elastic Constant Matrix: (Units=GPa)
#
#
# Indices 1 2 3 4 5 6 
#
# 1 81.0261 34.4968 34.2504 0.0000 0.0000 0.0000
# 2 34.4968 167.1748 56.9031 0.0000 0.0000 0.0000
# 3 34.2504 56.9031 104.2090 0.0000 0.0000 0.0000
# 4 0.0000 0.0000 0.0000 27.5302 0.0000 0.0000
# 5 0.0000 0.0000 0.0000 0.0000 37.2964 0.0000
# 6 0.0000 0.0000 0.0000 0.0000 0.0000 31.5127
#
#
#
# Elastic Compliance Matrix: (Units=1/GPa)
#
#
# Indices 1 2 3 4 5 6 
#
# 1 0.014720 -0.001708 -0.003905 0.000000 0.000000 0.000000
# 2 -0.001708 0.007546 -0.003559 0.000000 0.000000 0.000000
# 3 -0.003905 -0.003559 0.012823 0.000000 0.000000 0.000000
# 4 0.000000 0.000000 0.000000 0.036324 0.000000 0.000000
# 5 0.000000 0.000000 0.000000 0.000000 0.026812 0.000000
# 6 0.000000 0.000000 0.000000 0.000000 0.000000 0.031733
#
#
# Mechanical properties :
#
#
# Convention : Reuss Voigt Hill
#
# Bulk Modulus (GPa) = 59.72348 67.07894 63.40121
# Shear Modulus (GPa) = 32.49220 34.38517 33.43869
#
# Velocity S-wave (km/s) = 3.84180 3.95212 3.89735
# Velocity P-wave (km/s) = 6.84166 7.16212 7.00372
#
# Compressibility (1/GPa) = 0.01674383
#
# Stress axis : x y z
#
# Youngs Moduli (GPa) = 67.93608 132.52738 77.98548
#
# Poissons Ratio (x) = 0.22638 0.30455
# Poissons Ratio (y) = 0.11605 0.27754
# Poissons Ratio (z) = 0.26530 0.47164
#
# Static dielectric constant tensor:
#      x y z
#    x 1.880610 0.000000 0.000000 
#    y 0.000000 1.819190 0.000000 
#    z 0.000000 0.000000 1.982000 
# 
# From -- ./inp_files/7410.got.cif
#   From: 2010.05.17/outbox.cif.g08.bks.cpg/sg52_4_cif.got.tgz:7410.got - 2010.06.03 12:15:38.
