data_PCOD9410705
_publ_section_title
;
Structure prediction by ZEFSAII (Michael W. Deem and Ramdas Pophale) SiO2 
 PCOD9410705
Probable space group: P N N A
;
_chemical_formula_sum "Si O2"
_cell_formula_units_Z 64
_cell_length_a 28.349327
_cell_length_b 9.893204
_cell_length_c 11.409264
_cell_angle_alpha 90.000000
_cell_angle_beta 90.000000
_cell_angle_gamma 90.000000
_cell_volume 3199.906932
_symmetry_space_group_name_H-M "P N N A"
_symmetry_group_IT_number 52
_symmetry_cell_setting 'orthorhombic'
loop_
_space_group_symop_operation_xyz
x,y,z
1/2-x,-y,z
x,1/2-y,1/2-z
1/2-x,1/2+y,1/2-z
-x,-y,-z
1/2+x,y,-z
-x,1/2+y,1/2+z
1/2+x,1/2-y,1/2+z
loop_
_atom_site_type_symbol
_atom_site_label
_atom_site_fract_x
_atom_site_fract_y
_atom_site_fract_z
Si Si1 0.890480 0.049701 0.522570
Si Si2 0.416434 0.297862 0.620845
Si Si3 0.794185 0.590060 0.893380
Si Si4 0.988215 0.435584 0.873079
Si Si5 0.894555 0.940116 0.975275
Si Si6 0.792613 0.596053 0.610875
Si Si7 0.008449 0.427759 0.374059
Si Si8 0.922189 0.695655 0.125465
O O1 0.890562 0.199035 0.469062
O O2 0.931651 0.062152 0.620530
O O3 0.842421 0.984453 0.568777
O O4 0.907529 0.953541 0.414744
O O5 0.402611 0.250000 0.750000
O O6 0.405372 0.448925 0.575981
O O7 0.474195 0.297111 0.617591
O O8 0.750000 0.500000 0.934775
O O9 0.792281 0.595302 0.752103
O O10 0.790000 0.747427 0.930809
O O11 0.004370 0.504376 0.750833
O O12 0.020504 0.301109 0.877005
O O13 0.000000 0.500000 0.000000
O O14 0.842784 0.962639 0.927550
O O15 0.934856 0.928173 0.875944
O O16 0.899420 0.793937 0.032442
O O17 0.750000 0.500000 0.570084
O O18 0.000000 0.500000 0.500000
O O19 0.906425 0.750000 0.250000
#
# Coordination Sequence:
#
# PCOD9410705 Si02
#       8
#     8   8   8   8   8   8   8   8
#     4  11  22  39  61  95 122 168 216 265 321 388
#     4  11  23  40  59  90 133 177 213 261 319 380
#     4  10  22  42  67  95 126 158 201 267 336 397
#     4  10  21  37  59  90 129 170 217 266 313 381
#     4  11  22  39  63  92 123 170 216 265 319 385
#     4  10  22  42  67  96 124 158 204 265 337 394
#     4  10  21  39  59  89 131 175 217 264 316 380
#     4  11  21  38  61  86 124 169 217 262 310 378
#
# _framework density 20.000582000000001
#
# number of rings (size 3 to 8) (size 9 to 14) (size 15 to 20)
#    0.000    1.500    1.250    5.250    1.750    2.000 
#    2.250    2.500    0.000    4.500    0.000    0.000 
#    0.000    0.000    0.000    0.000    0.000    0.000 
#
# Total GULP energy -356491.377242 kJ/mol
# GULP energy per Si atom -5570.177769 kJ/mol
# Density = 1.995506 g / cm^3
# Si number density = 20.000582 Si / 1000 Ang^3
#
#
#
# Elastic Constant Matrix: (Units=GPa)
#
#
# Indices 1 2 3 4 5 6 
#
# 1 145.7865 34.6019 4.4380 0.0000 0.0000 0.0000
# 2 34.6019 55.1338 1.7922 0.0000 0.0000 0.0000
# 3 4.4380 1.7922 58.2524 0.0000 0.0000 0.0000
# 4 0.0000 0.0000 0.0000 31.3513 0.0000 0.0000
# 5 0.0000 0.0000 0.0000 0.0000 37.7490 0.0000
# 6 0.0000 0.0000 0.0000 0.0000 0.0000 35.5170
#
#
#
# Elastic Compliance Matrix: (Units=1/GPa)
#
#
# Indices 1 2 3 4 5 6 
#
# 1 0.008072 -0.005051 -0.000460 0.000000 0.000000 0.000000
# 2 -0.005051 0.021317 -0.000271 0.000000 0.000000 0.000000
# 3 -0.000460 -0.000271 0.017210 0.000000 0.000000 0.000000
# 4 0.000000 0.000000 0.000000 0.031897 0.000000 0.000000
# 5 0.000000 0.000000 0.000000 0.000000 0.026491 0.000000
# 6 0.000000 0.000000 0.000000 0.000000 0.000000 0.028156
#
#
# Mechanical properties :
#
#
# Convention : Reuss Voigt Hill
#
# Bulk Modulus (GPa) = 28.54261 37.87077 33.20669
# Shear Modulus (GPa) = 31.97261 35.47947 33.72604
#
# Velocity S-wave (km/s) = 4.00257 4.21636 4.11086
# Velocity P-wave (km/s) = 5.97182 6.53296 6.25868
#
# Compressibility (1/GPa) = 0.03503534
#
# Stress axis : x y z
#
# Youngs Moduli (GPa) = 123.88180 46.91174 58.10562
#
# Poissons Ratio (x) = 0.23696 0.02670
# Poissons Ratio (y) = 0.62575 0.01575
# Poissons Ratio (z) = 0.05693 0.01271
#
# Static dielectric constant tensor:
#      x y z
#    x 1.757490 0.000000 0.000000 
#    y 0.000000 1.753810 0.000000 
#    z 0.000000 0.000000 1.730510 
# 
# From -- ./inp_files/23223.got.cif
#   From: 2010.05.17/outbox.cif.g08.bks.cpg/sg52_12_cif.got.tgz:23223.got - 2010.06.03 12:15:38.
