data_PCOD9410639
_publ_section_title
;
Structure prediction by ZEFSAII (Michael W. Deem and Ramdas Pophale) SiO2 
 PCOD9410639
Probable space group: P N N A
;
_chemical_formula_sum "Si O2"
_cell_formula_units_Z 60
_cell_length_a 13.665510
_cell_length_b 12.886063
_cell_length_c 17.320829
_cell_angle_alpha 90.000000
_cell_angle_beta 90.000000
_cell_angle_gamma 90.000000
_cell_volume 3050.104849
_symmetry_space_group_name_H-M "P N N A"
_symmetry_group_IT_number 52
_symmetry_cell_setting 'orthorhombic'
loop_
_space_group_symop_operation_xyz
x,y,z
1/2-x,-y,z
x,1/2-y,1/2-z
1/2-x,1/2+y,1/2-z
-x,-y,-z
1/2+x,y,-z
-x,1/2+y,1/2+z
1/2+x,1/2-y,1/2+z
loop_
_atom_site_type_symbol
_atom_site_label
_atom_site_fract_x
_atom_site_fract_y
_atom_site_fract_z
Si Si1 0.718661 0.810712 0.172164
Si Si2 0.692277 0.664021 0.023613
Si Si3 0.098553 0.250000 0.250000
Si Si4 0.943812 0.840548 0.188472
Si Si5 0.551652 0.507038 0.106110
Si Si6 0.495322 0.721929 0.958895
Si Si7 0.950576 0.438328 0.278601
Si Si8 0.629499 0.340905 0.909636
O O1 0.686630 0.750000 0.250000
O O2 0.722355 0.733275 0.098483
O O3 0.826157 0.852855 0.191788
O O4 0.636781 0.899491 0.166335
O O5 0.631474 0.564696 0.053619
O O6 0.609609 0.724583 0.975984
O O7 0.779021 0.638135 0.964938
O O8 0.153585 0.291247 0.173454
O O9 0.028548 0.345959 0.273630
O O10 0.970138 0.750000 0.250000
O O11 0.966270 0.803775 0.103532
O O12 0.994602 0.950689 0.199550
O O13 0.537238 0.389445 0.078621
O O14 0.587260 0.532137 0.192464
O O15 0.445000 0.562224 0.101042
O O16 0.438906 0.735082 0.039413
#
# Coordination Sequence:
#
# PCOD9410639 Si02
#       8
#     8   8   4   8   8   8   8   8
#     4  11  20  37  58  93 121 158 205 247 312 383
#     4  11  21  38  65  88 127 164 208 261 309 366
#     4  10  22  42  66  86 114 164 226 262 298 370
#     4  11  23  37  58  93 135 162 194 254 319 375
#     4  10  21  36  60  97 127 156 207 255 318 374
#     4  11  22  39  57  92 132 162 205 256 312 372
#     4  11  19  39  66  89 122 168 207 252 311 371
#     4  10  21  40  60  90 120 159 215 263 302 364
#
# _framework density 19.671454000000001
#
# number of rings (size 3 to 8) (size 9 to 14) (size 15 to 20)
#    0.000    1.333    4.667    3.600    0.000    2.133 
#    3.600    2.667    0.000    0.000    0.000    0.000 
#    0.000    0.000    0.000    0.000    0.000    0.000 
#
# Total GULP energy -334740.160696 kJ/mol
# GULP energy per Si atom -5579.002678 kJ/mol
# Density = 1.962668 g / cm^3
# Si number density = 19.671454 Si / 1000 Ang^3
#
#
#
# Elastic Constant Matrix: (Units=GPa)
#
#
# Indices 1 2 3 4 5 6 
#
# 1 64.3147 2.9324 17.1112 0.0000 0.0000 0.0000
# 2 2.9324 96.2866 32.6954 0.0000 0.0000 0.0000
# 3 17.1112 32.6954 96.3948 0.0000 0.0000 0.0000
# 4 0.0000 0.0000 0.0000 23.1910 0.0000 0.0000
# 5 0.0000 0.0000 0.0000 0.0000 17.1555 0.0000
# 6 0.0000 0.0000 0.0000 0.0000 0.0000 0.0132
#
#
#
# Elastic Compliance Matrix: (Units=1/GPa)
#
#
# Indices 1 2 3 4 5 6 
#
# 1 0.016345 0.000551 -0.003088 0.000000 0.000000 0.000000
# 2 0.000551 0.011756 -0.004085 0.000000 0.000000 0.000000
# 3 -0.003088 -0.004085 0.012308 0.000000 0.000000 0.000000
# 4 0.000000 0.000000 0.000000 0.043120 0.000000 0.000000
# 5 0.000000 0.000000 0.000000 0.000000 0.058290 0.000000
# 6 0.000000 0.000000 0.000000 0.000000 0.000000 76.004399
#
#
# Mechanical properties :
#
#
# Convention : Reuss Voigt Hill
#
# Bulk Modulus (GPa) = 36.81381 40.27490 38.54435
# Shear Modulus (GPa) = 0.06564 21.68908 10.87736
#
# Velocity S-wave (km/s) = 0.18287 3.32409 2.35404
# Velocity P-wave (km/s) = 4.33584 5.93726 5.19858
#
# Compressibility (1/GPa) = 0.02716372
#
# Stress axis : x y z
#
# Youngs Moduli (GPa) = 61.18048 85.06238 81.24900
#
# Poissons Ratio (x) = -0.04686 0.25092
# Poissons Ratio (y) = -0.03370 0.33192
# Poissons Ratio (z) = 0.18894 0.34750
#
# Static dielectric constant tensor:
#      x y z
#    x 1.710040 0.000000 0.000000 
#    y 0.000000 1.762960 0.000000 
#    z 0.000000 0.000000 1.739680 
# 
# From -- ./inp_files/33251.got.cif
#   From: 2010.05.17/outbox.cif.g08.bks.cpg/sg52_17_cif.got.tgz:33251.got - 2010.06.03 12:15:38.
