data_PCOD9410271
_publ_section_title
;
Structure prediction by ZEFSAII (Michael W. Deem and Ramdas Pophale) SiO2 
 PCOD9410271
Probable space group: P N N A
;
_chemical_formula_sum "Si O2"
_cell_formula_units_Z 32
_cell_length_a 20.907846
_cell_length_b 6.407859
_cell_length_c 11.143830
_cell_angle_alpha 90.000000
_cell_angle_beta 90.000000
_cell_angle_gamma 90.000000
_cell_volume 1492.989377
_symmetry_space_group_name_H-M "P N N A"
_symmetry_group_IT_number 52
_symmetry_cell_setting 'orthorhombic'
loop_
_space_group_symop_operation_xyz
x,y,z
1/2-x,-y,z
x,1/2-y,1/2-z
1/2-x,1/2+y,1/2-z
-x,-y,-z
1/2+x,y,-z
-x,1/2+y,1/2+z
1/2+x,1/2-y,1/2+z
loop_
_atom_site_type_symbol
_atom_site_label
_atom_site_fract_x
_atom_site_fract_y
_atom_site_fract_z
Si Si1 0.321237 0.413354 0.641467
Si Si2 0.619361 0.250000 0.750000
Si Si3 0.909780 0.750000 0.250000
Si Si4 0.473538 0.425575 0.124403
Si Si5 0.145333 0.858769 0.126051
O O1 0.250000 0.500000 0.655331
O O2 0.333892 0.250000 0.750000
O O3 0.367204 0.614722 0.659192
O O4 0.328735 0.316475 0.507521
O O5 0.575028 0.406292 0.823704
O O6 0.655360 0.397618 0.656177
O O7 0.960956 0.590371 0.196483
O O8 0.429838 0.214935 0.119021
O O9 0.500000 0.500000 0.000000
O O10 0.170204 0.750000 0.250000
#
# Coordination Sequence:
#
# PCOD9410271 Si02
#       5
#     8   4   4   8   8
#     4  12  27  49  69  96 137 184 239 284 335 415
#     4  10  20  40  61 101 142 162 220 270 340 422
#     4  12  24  40  69 103 136 182 218 276 352 396
#     4  11  22  36  64 105 136 175 215 271 351 407
#     4  10  23  45  68 103 137 179 225 285 352 409
#
# _framework density 21.433508
#
# number of rings (size 3 to 8) (size 9 to 14) (size 15 to 20)
#    0.000    1.000    5.000    3.000    5.250    4.000 
#    2.250    0.000    0.000    0.000    0.000    0.000 
#    0.000    0.000    0.000    0.000    0.000    0.000 
#
# Total GULP energy -178304.279618 kJ/mol
# GULP energy per Si atom -5572.008738 kJ/mol
# Density = 2.138472 g / cm^3
# Si number density = 21.433508 Si / 1000 Ang^3
#
#
#
# Elastic Constant Matrix: (Units=GPa)
#
#
# Indices 1 2 3 4 5 6 
#
# 1 30.2898 3.4636 -5.7829 0.0000 0.0000 0.0000
# 2 3.4636 73.8356 28.3217 0.0000 0.0000 0.0000
# 3 -5.7829 28.3217 148.4361 0.0000 0.0000 0.0000
# 4 0.0000 0.0000 0.0000 29.7129 0.0000 0.0000
# 5 0.0000 0.0000 0.0000 0.0000 15.4456 0.0000
# 6 0.0000 0.0000 0.0000 0.0000 0.0000 11.2797
#
#
#
# Elastic Compliance Matrix: (Units=1/GPa)
#
#
# Indices 1 2 3 4 5 6 
#
# 1 0.033603 -0.002243 0.001737 0.000000 0.000000 0.000000
# 2 -0.002243 0.014763 -0.002904 0.000000 0.000000 0.000000
# 3 0.001737 -0.002904 0.007359 0.000000 0.000000 0.000000
# 4 0.000000 0.000000 0.000000 0.033655 0.000000 0.000000
# 5 0.000000 0.000000 0.000000 0.000000 0.064743 0.000000
# 6 0.000000 0.000000 0.000000 0.000000 0.000000 0.088655
#
#
# Mechanical properties :
#
#
# Convention : Reuss Voigt Hill
#
# Bulk Modulus (GPa) = 20.44796 33.84068 27.14432
# Shear Modulus (GPa) = 18.80420 26.39158 22.59789
#
# Velocity S-wave (km/s) = 2.96518 3.51283 3.25056
# Velocity P-wave (km/s) = 4.61346 5.68122 5.17495
#
# Compressibility (1/GPa) = 0.04890464
#
# Stress axis : x y z
#
# Youngs Moduli (GPa) = 29.75968 67.73807 135.89388
#
# Poissons Ratio (x) = 0.15190 -0.23605
# Poissons Ratio (y) = 0.06674 0.39465
# Poissons Ratio (z) = -0.05169 0.19672
#
# Static dielectric constant tensor:
#      x y z
#    x 1.793800 0.000000 0.000000 
#    y 0.000000 1.856470 0.000000 
#    z 0.000000 0.000000 1.687190 
# 
# From -- ./inp_files/21238.got.cif
#   From: 2010.05.17/outbox.cif.g08.bks.cpg/sg52_11_cif.got.tgz:21238.got - 2010.06.03 12:15:38.
