data_PCOD9410970
_publ_section_title
;
Structure prediction by ZEFSAII (Michael W. Deem and Ramdas Pophale) SiO2 
 PCOD9410970
Probable space group: P N N A
;
_chemical_formula_sum "Si O2"
_cell_formula_units_Z 48
_cell_length_a 9.569610
_cell_length_b 26.326095
_cell_length_c 7.867394
_cell_angle_alpha 90.000000
_cell_angle_beta 90.000000
_cell_angle_gamma 90.000000
_cell_volume 1982.036205
_symmetry_space_group_name_H-M "P N N A"
_symmetry_group_IT_number 52
_symmetry_cell_setting 'orthorhombic'
loop_
_space_group_symop_operation_xyz
x,y,z
1/2-x,-y,z
x,1/2-y,1/2-z
1/2-x,1/2+y,1/2-z
-x,-y,-z
1/2+x,y,-z
-x,1/2+y,1/2+z
1/2+x,1/2-y,1/2+z
loop_
_atom_site_type_symbol
_atom_site_label
_atom_site_fract_x
_atom_site_fract_y
_atom_site_fract_z
Si Si1 0.728528 0.625419 0.008064
Si Si2 0.562580 0.605294 0.669998
Si Si3 0.430862 0.693875 0.480876
Si Si4 0.024113 0.394300 0.208820
Si Si5 0.673600 0.757326 0.545290
Si Si6 0.681673 0.445554 0.503920
O O1 0.642819 0.605282 0.845155
O O2 0.885679 0.609618 0.964252
O O3 0.718465 0.686436 0.005625
O O4 0.639020 0.604487 0.164673
O O5 0.497826 0.660294 0.630198
O O6 0.686991 0.592058 0.536568
O O7 0.430301 0.568791 0.640165
O O8 0.440517 0.656579 0.319018
O O9 0.524027 0.744041 0.467449
O O10 0.277916 0.713764 0.519988
O O11 0.085861 0.439152 0.325456
O O12 0.674966 0.750000 0.750000
O O13 0.750000 0.500000 0.485683
#
# Coordination Sequence:
#
# PCOD9410970 Si02
#       6
#     8   8   8   8   8   8
#     4  11  22  39  56  87 123 160 203 255 301 357
#     4  10  21  39  63  88 124 157 202 262 314 369
#     4  11  22  41  59  85 121 168 204 251 301 355
#     4  10  23  40  59  84 126 161 199 252 317 363
#     4  12  22  38  59  86 122 160 216 251 288 357
#     4  10  21  41  67  94 119 158 209 261 320 393
#
# _framework density 24.217518999999999
#
# number of rings (size 3 to 8) (size 9 to 14) (size 15 to 20)
#    0.000    1.333    3.333    3.500    0.000    4.000 
#    3.000    4.167    0.000    0.000    0.000    0.000 
#    0.000    0.000    0.000    0.000    0.000    0.000 
#
# Total GULP energy -268538.312129 kJ/mol
# GULP energy per Si atom -5594.548169 kJ/mol
# Density = 2.416240 g / cm^3
# Si number density = 24.217519 Si / 1000 Ang^3
#
#
#
# Elastic Constant Matrix: (Units=GPa)
#
#
# Indices 1 2 3 4 5 6 
#
# 1 89.0766 -2.2551 2.9610 0.0000 0.0000 0.0000
# 2 -2.2551 41.8907 -7.4320 0.0000 0.0000 0.0000
# 3 2.9610 -7.4320 51.7237 0.0000 0.0000 0.0000
# 4 0.0000 0.0000 0.0000 15.5387 0.0000 0.0000
# 5 0.0000 0.0000 0.0000 0.0000 40.0822 0.0000
# 6 0.0000 0.0000 0.0000 0.0000 0.0000 27.4045
#
#
#
# Elastic Compliance Matrix: (Units=1/GPa)
#
#
# Indices 1 2 3 4 5 6 
#
# 1 0.011258 0.000505 -0.000572 0.000000 0.000000 0.000000
# 2 0.000505 0.024519 0.003494 0.000000 0.000000 0.000000
# 3 -0.000572 0.003494 0.019868 0.000000 0.000000 0.000000
# 4 0.000000 0.000000 0.000000 0.064355 0.000000 0.000000
# 5 0.000000 0.000000 0.000000 0.000000 0.024949 0.000000
# 6 0.000000 0.000000 0.000000 0.000000 0.000000 0.036490
#
#
# Mechanical properties :
#
#
# Convention : Reuss Voigt Hill
#
# Bulk Modulus (GPa) = 16.00038 18.80433 17.40235
# Shear Modulus (GPa) = 25.58604 29.23290 27.40947
#
# Velocity S-wave (km/s) = 3.25393 3.47810 3.36788
# Velocity P-wave (km/s) = 4.55397 4.88991 4.72493
#
# Compressibility (1/GPa) = 0.06249852
#
# Stress axis : x y z
#
# Youngs Moduli (GPa) = 88.82509 40.78512 50.33145
#
# Poissons Ratio (x) = -0.02058 0.02879
# Poissons Ratio (y) = -0.04482 -0.17586
# Poissons Ratio (z) = 0.05081 -0.14251
#
# Static dielectric constant tensor:
#      x y z
#    x 1.926070 0.000000 0.000000 
#    y 0.000000 1.896880 0.000000 
#    z 0.000000 0.000000 1.976730 
# 
# From -- ./inp_files/7705.got.cif
#   From: 2010.05.17/outbox.cif.g08.bks.cpg/sg52_4_cif.got.tgz:7705.got - 2010.06.03 12:15:38.
