data_PCOD9410704
_publ_section_title
;
Structure prediction by ZEFSAII (Michael W. Deem and Ramdas Pophale) SiO2 
 PCOD9410704
Probable space group: P N N A
;
_chemical_formula_sum "Si O2"
_cell_formula_units_Z 44
_cell_length_a 9.106658
_cell_length_b 7.682561
_cell_length_c 31.740087
_cell_angle_alpha 90.000000
_cell_angle_beta 90.000000
_cell_angle_gamma 90.000000
_cell_volume 2220.614427
_symmetry_space_group_name_H-M "P N N A"
_symmetry_group_IT_number 52
_symmetry_cell_setting 'orthorhombic'
loop_
_space_group_symop_operation_xyz
x,y,z
1/2-x,-y,z
x,1/2-y,1/2-z
1/2-x,1/2+y,1/2-z
-x,-y,-z
1/2+x,y,-z
-x,1/2+y,1/2+z
1/2+x,1/2-y,1/2+z
loop_
_atom_site_type_symbol
_atom_site_label
_atom_site_fract_x
_atom_site_fract_y
_atom_site_fract_z
Si Si1 0.998220 0.566218 0.938820
Si Si2 0.094194 0.769095 0.116052
Si Si3 0.936737 0.840712 0.877200
Si Si4 0.592962 0.720085 0.202328
Si Si5 0.567933 0.194962 0.297495
Si Si6 0.250000 0.000000 0.495894
O O1 0.967526 0.380200 0.915485
O O2 0.032750 0.704897 0.903230
O O3 0.849311 0.614399 0.964336
O O4 0.127457 0.573285 0.972821
O O5 0.270655 0.767895 0.120318
O O6 0.030071 0.750987 0.163162
O O7 0.055875 0.967135 0.103511
O O8 0.995778 0.829108 0.829885
O O9 0.547002 0.750000 0.250000
O O10 0.576842 0.513261 0.196966
O O11 0.765373 0.765871 0.197977
O O12 0.519493 0.250000 0.250000
#
# Coordination Sequence:
#
# PCOD9410704 Si02
#       6
#     8   8   8   8   8   4
#     4  11  22  46  64  96 124 162 200 262 310 375
#     4  11  23  39  62  90 124 166 206 249 307 368
#     4  11  23  39  62  90 124 166 206 249 307 368
#     4  10  21  37  59  89 125 164 209 256 302 358
#     4  10  21  37  59  89 125 164 209 256 302 358
#     4  10  24  42  74  90 124 160 204 254 326 370
#
# _framework density 19.814336000000001
#
# number of rings (size 3 to 8) (size 9 to 14) (size 15 to 20)
#    0.000    1.455    3.636    1.091    2.545    2.909 
#    0.000    5.455    0.000    0.000    0.000    0.000 
#    0.000    0.000    0.000    0.000    0.000    0.000 
#
# Total GULP energy -245324.709722 kJ/mol
# GULP energy per Si atom -5575.561585 kJ/mol
# Density = 1.976924 g / cm^3
# Si number density = 19.814336 Si / 1000 Ang^3
#
#
#
# Elastic Constant Matrix: (Units=GPa)
#
#
# Indices 1 2 3 4 5 6 
#
# 1 52.7617 15.4867 36.3213 0.0000 0.0000 0.0000
# 2 15.4867 72.7131 30.5906 0.0000 0.0000 0.0000
# 3 36.3213 30.5906 112.7754 0.0000 0.0000 0.0000
# 4 0.0000 0.0000 0.0000 2.1662 0.0000 0.0000
# 5 0.0000 0.0000 0.0000 0.0000 42.2912 0.0000
# 6 0.0000 0.0000 0.0000 0.0000 0.0000 5.2638
#
#
#
# Elastic Compliance Matrix: (Units=1/GPa)
#
#
# Indices 1 2 3 4 5 6 
#
# 1 0.024648 -0.002156 -0.007354 0.000000 0.000000 0.000000
# 2 -0.002156 0.015713 -0.003568 0.000000 0.000000 0.000000
# 3 -0.007354 -0.003568 0.012203 0.000000 0.000000 0.000000
# 4 0.000000 0.000000 0.000000 0.461641 0.000000 0.000000
# 5 0.000000 0.000000 0.000000 0.000000 0.023646 0.000000
# 6 0.000000 0.000000 0.000000 0.000000 0.000000 0.189977
#
#
# Mechanical properties :
#
#
# Convention : Reuss Voigt Hill
#
# Bulk Modulus (GPa) = 37.86492 44.78303 41.32397
# Shear Modulus (GPa) = 6.55492 20.33435 13.44463
#
# Velocity S-wave (km/s) = 1.82081 3.20698 2.60769
# Velocity P-wave (km/s) = 4.85508 6.03020 5.47427
#
# Compressibility (1/GPa) = 0.02640967
#
# Stress axis : x y z
#
# Youngs Moduli (GPa) = 40.57093 63.64223 81.94515
#
# Poissons Ratio (x) = 0.13721 0.60259
# Poissons Ratio (y) = 0.08747 0.29236
# Poissons Ratio (z) = 0.29834 0.22706
#
# Static dielectric constant tensor:
#      x y z
#    x 1.713730 0.000000 0.000000 
#    y 0.000000 1.749090 0.000000 
#    z 0.000000 0.000000 1.738160 
# 
# From -- ./inp_files/44290.got.cif
#   From: 2010.05.17/outbox.cif.g08.bks.cpg/sg52_23_cif.got.tgz:44290.got - 2010.06.03 12:15:38.
