data_PCOD9410503
_publ_section_title
;
Structure prediction by ZEFSAII (Michael W. Deem and Ramdas Pophale) SiO2 
 PCOD9410503
Probable space group: P N N A
;
_chemical_formula_sum "Si O2"
_cell_formula_units_Z 32
_cell_length_a 9.020108
_cell_length_b 11.719400
_cell_length_c 12.885435
_cell_angle_alpha 90.000000
_cell_angle_beta 90.000000
_cell_angle_gamma 90.000000
_cell_volume 1362.122603
_symmetry_space_group_name_H-M "P N N A"
_symmetry_group_IT_number 52
_symmetry_cell_setting 'orthorhombic'
loop_
_space_group_symop_operation_xyz
x,y,z
1/2-x,-y,z
x,1/2-y,1/2-z
1/2-x,1/2+y,1/2-z
-x,-y,-z
1/2+x,y,-z
-x,1/2+y,1/2+z
1/2+x,1/2-y,1/2+z
loop_
_atom_site_type_symbol
_atom_site_label
_atom_site_fract_x
_atom_site_fract_y
_atom_site_fract_z
Si Si1 0.866101 0.250000 0.250000
Si Si2 0.874743 0.734994 0.915532
Si Si3 0.610766 0.864113 0.789166
Si Si4 0.250000 0.500000 0.107722
Si Si5 0.340918 0.602740 0.604352
O O1 0.762324 0.346780 0.303055
O O2 0.979424 0.280089 0.155396
O O3 0.753478 0.810124 0.848640
O O4 0.821677 0.607863 0.947298
O O5 0.886943 0.802942 0.021367
O O6 0.529266 0.750000 0.750000
O O7 0.499916 0.938955 0.855765
O O8 0.642641 0.937066 0.688304
O O9 0.250000 0.500000 0.554975
#
# Coordination Sequence:
#
# PCOD9410503 Si02
#       5
#     4   8   8   4   8
#     4  12  24  48  70 106 146 186 242 292 358 422
#     4  11  24  43  72 103 139 186 240 288 358 425
#     4  10  21  44  69  95 139 181 231 287 356 414
#     4  10  20  44  76  94 130 194 228 286 356 426
#     4  12  27  43  71 108 143 183 240 298 352 424
#
# _framework density 23.492746
#
# number of rings (size 3 to 8) (size 9 to 14) (size 15 to 20)
#    0.000    1.000    5.000    3.000    1.750    2.000 
#    2.250    6.250    0.000    0.000    0.000    0.000 
#    0.000    0.000    0.000    0.000    0.000    0.000 
#
# Total GULP energy -178549.526415 kJ/mol
# GULP energy per Si atom -5579.672700 kJ/mol
# Density = 2.343928 g / cm^3
# Si number density = 23.492746 Si / 1000 Ang^3
#
#
#
# Elastic Constant Matrix: (Units=GPa)
#
#
# Indices 1 2 3 4 5 6 
#
# 1 73.3237 1.0527 6.1315 0.0000 0.0000 0.0000
# 2 1.0527 83.8306 13.4365 0.0000 0.0000 0.0000
# 3 6.1315 13.4365 57.5609 0.0000 0.0000 0.0000
# 4 0.0000 0.0000 0.0000 26.6881 0.0000 0.0000
# 5 0.0000 0.0000 0.0000 0.0000 -2.2370 0.0000
# 6 0.0000 0.0000 0.0000 0.0000 0.0000 19.0304
#
#
#
# Elastic Compliance Matrix: (Units=1/GPa)
#
#
# Indices 1 2 3 4 5 6 
#
# 1 0.013761 0.000065 -0.001481 0.000000 0.000000 0.000000
# 2 0.000065 0.012393 -0.002900 0.000000 0.000000 0.000000
# 3 -0.001481 -0.002900 0.018208 0.000000 0.000000 0.000000
# 4 0.000000 0.000000 0.000000 0.037470 0.000000 0.000000
# 5 0.000000 0.000000 0.000000 0.000000 -0.447030 0.000000
# 6 0.000000 0.000000 0.000000 0.000000 0.000000 0.052547
#
#
# Mechanical properties :
#
#
# Convention : Reuss Voigt Hill
#
# Bulk Modulus (GPa) = 27.98833 28.43963 28.21398
# Shear Modulus (GPa) = -17.11685 21.63596 2.25955
#
# Velocity S-wave (km/s) = -2.70219 3.03803 0.98178
# Velocity P-wave (km/s) = 1.48449 4.94350 3.64978
#
# Compressibility (1/GPa) = 0.03572917
#
# Stress axis : x y z
#
# Youngs Moduli (GPa) = 72.66882 80.69217 54.92232
#
# Poissons Ratio (x) = -0.00521 0.08134
# Poissons Ratio (y) = -0.00469 0.15926
# Poissons Ratio (z) = 0.10762 0.23399
#
# Static dielectric constant tensor:
#      x y z
#    x 2.027620 0.000000 0.000000 
#    y 0.000000 1.763790 0.000000 
#    z 0.000000 0.000000 1.934260 
# 
# From -- ./inp_files/24124.got.cif
#   From: 2010.05.17/outbox.cif.g08.bks.cpg/sg52_13_cif.got.tgz:24124.got - 2010.06.03 12:15:38.
