data_PCOD9410948
_publ_section_title
;
Structure prediction by ZEFSAII (Michael W. Deem and Ramdas Pophale) SiO2 
 PCOD9410948
Probable space group: P N N A
;
_chemical_formula_sum "Si O2"
_cell_formula_units_Z 48
_cell_length_a 10.153073
_cell_length_b 8.666397
_cell_length_c 27.722642
_cell_angle_alpha 90.000000
_cell_angle_beta 90.000000
_cell_angle_gamma 90.000000
_cell_volume 2439.330833
_symmetry_space_group_name_H-M "P N N A"
_symmetry_group_IT_number 52
_symmetry_cell_setting 'orthorhombic'
loop_
_space_group_symop_operation_xyz
x,y,z
1/2-x,-y,z
x,1/2-y,1/2-z
1/2-x,1/2+y,1/2-z
-x,-y,-z
1/2+x,y,-z
-x,1/2+y,1/2+z
1/2+x,1/2-y,1/2+z
loop_
_atom_site_type_symbol
_atom_site_label
_atom_site_fract_x
_atom_site_fract_y
_atom_site_fract_z
Si Si1 0.399785 0.678840 0.804546
Si Si2 0.592624 0.687496 0.196349
Si Si3 0.864241 0.888133 0.853571
Si Si4 0.499974 0.168997 0.098886
Si Si5 0.372553 0.606428 0.509131
Si Si6 0.748799 0.681228 0.934123
O O1 0.418743 0.750000 0.750000
O O2 0.434832 0.496554 0.804148
O O3 0.245768 0.700896 0.819403
O O4 0.478220 0.758463 0.848318
O O5 0.596732 0.750000 0.250000
O O6 0.481385 0.796861 0.173026
O O7 0.791119 0.756569 0.883523
O O8 0.750000 0.000000 0.829525
O O9 0.934279 0.004192 0.890737
O O10 0.627607 0.150765 0.065611
O O11 0.402544 0.264291 0.063970
O O12 0.250000 0.500000 0.497250
O O13 0.500000 0.500000 0.500000
O O14 0.346668 0.751922 0.474631
O O15 0.750000 0.500000 0.933549
#
# Coordination Sequence:
#
# PCOD9410948 Si02
#       6
#     8   8   8   8   8   8
#     4  10  22  40  65  98 130 166 216 274 338 399
#     4  10  21  40  63  95 131 164 214 278 331 395
#     4  10  21  39  62  87 121 171 214 259 326 392
#     4  11  23  40  65  92 127 173 217 266 334 395
#     4  12  23  44  65  95 130 176 223 269 332 407
#     4  11  23  42  63  92 134 170 217 280 325 392
#
# _framework density 19.677527000000001
#
# number of rings (size 3 to 8) (size 9 to 14) (size 15 to 20)
#    0.000    1.333    3.333    2.500    2.333    2.000 
#    3.000    7.500    0.000    0.000    0.000    0.000 
#    0.000    0.000    0.000    0.000    0.000    0.000 
#
# Total GULP energy -267285.918775 kJ/mol
# GULP energy per Si atom -5568.456641 kJ/mol
# Density = 1.963274 g / cm^3
# Si number density = 19.677527 Si / 1000 Ang^3
#
#
#
# Elastic Constant Matrix: (Units=GPa)
#
#
# Indices 1 2 3 4 5 6 
#
# 1 88.6467 59.3244 31.6889 0.0000 0.0000 0.0000
# 2 59.3244 161.2030 42.3828 0.0000 0.0000 0.0000
# 3 31.6889 42.3828 71.0582 0.0000 0.0000 0.0000
# 4 0.0000 0.0000 0.0000 29.2407 0.0000 0.0000
# 5 0.0000 0.0000 0.0000 0.0000 318.2478 0.0000
# 6 0.0000 0.0000 0.0000 0.0000 0.0000 31.0207
#
#
#
# Elastic Compliance Matrix: (Units=1/GPa)
#
#
# Indices 1 2 3 4 5 6 
#
# 1 0.016002 -0.004759 -0.004298 0.000000 0.000000 0.000000
# 2 -0.004759 0.008772 -0.003110 0.000000 0.000000 0.000000
# 3 -0.004298 -0.003110 0.017845 0.000000 0.000000 0.000000
# 4 0.000000 0.000000 0.000000 0.034199 0.000000 0.000000
# 5 0.000000 0.000000 0.000000 0.000000 0.003142 0.000000
# 6 0.000000 0.000000 0.000000 0.000000 0.000000 0.032237
#
#
# Mechanical properties :
#
#
# Convention : Reuss Voigt Hill
#
# Bulk Modulus (GPa) = 54.68808 65.29999 59.99404
# Shear Modulus (GPa) = 35.05703 88.20263 61.62983
#
# Velocity S-wave (km/s) = 4.22545 6.70234 5.60249
# Velocity P-wave (km/s) = 7.18738 9.65154 8.50913
#
# Compressibility (1/GPa) = 0.01828552
#
# Stress axis : x y z
#
# Youngs Moduli (GPa) = 62.49291 113.99438 56.03962
#
# Poissons Ratio (x) = 0.54249 0.24084
# Poissons Ratio (y) = 0.29740 0.17428
# Poissons Ratio (z) = 0.26857 0.35452
#
# Static dielectric constant tensor:
#      x y z
#    x 1.868120 0.000000 0.000000 
#    y 0.000000 -1.322410 0.000000 
#    z 0.000000 0.000000 1.701460 
# 
# From -- ./inp_files/44359.got.cif
#   From: 2010.05.17/outbox.cif.g08.bks.cpg/sg52_23_cif.got.tgz:44359.got - 2010.06.03 12:15:38.
