data_PCOD9410158
_publ_section_title
;
Structure prediction by ZEFSAII (Michael W. Deem and Ramdas Pophale) SiO2 
 PCOD9410158
Probable space group: P N N A
;
_chemical_formula_sum "Si O2"
_cell_formula_units_Z 56
_cell_length_a 16.872955
_cell_length_b 25.499063
_cell_length_c 6.403946
_cell_angle_alpha 90.000000
_cell_angle_beta 90.000000
_cell_angle_gamma 90.000000
_cell_volume 2755.262817
_symmetry_space_group_name_H-M "P N N A"
_symmetry_group_IT_number 52
_symmetry_cell_setting 'orthorhombic'
loop_
_space_group_symop_operation_xyz
x,y,z
1/2-x,-y,z
x,1/2-y,1/2-z
1/2-x,1/2+y,1/2-z
-x,-y,-z
1/2+x,y,-z
-x,1/2+y,1/2+z
1/2+x,1/2-y,1/2+z
loop_
_atom_site_type_symbol
_atom_site_label
_atom_site_fract_x
_atom_site_fract_y
_atom_site_fract_z
Si Si1 0.504133 0.374452 0.372937
Si Si2 0.471215 0.962138 0.184948
Si Si3 0.254367 0.299944 0.377194
Si Si4 0.703061 0.636751 0.010034
Si Si5 0.905039 0.450488 0.938369
Si Si6 0.848821 0.813882 0.240785
Si Si7 0.399628 0.198556 0.836753
O O1 0.545953 0.409809 0.553640
O O2 0.451961 0.411164 0.220075
O O3 0.566787 0.341200 0.239506
O O4 0.450416 0.334510 0.503007
O O5 0.542304 0.954379 0.351633
O O6 0.405390 0.993456 0.319808
O O7 0.500000 0.000000 0.000000
O O8 0.225308 0.250000 0.250000
O O9 0.184630 0.324723 0.509254
O O10 0.321527 0.281361 0.539688
O O11 0.294843 0.339981 0.220840
O O12 0.785244 0.657366 0.109754
O O13 0.633895 0.662607 0.150973
O O14 0.678889 0.575970 0.993427
O O15 0.850552 0.750000 0.250000
O O16 0.442426 0.250000 0.750000
#
# Coordination Sequence:
#
# PCOD9410158 Si02
#       7
#     8   8   8   8   8   8   8
#     4  11  23  38  58  92 132 157 195 264 319 370
#     4   9  20  39  64  95 117 146 203 265 322 362
#     4  11  19  37  59  78 118 171 207 247 296 356
#     4  11  20  38  62  86 116 165 213 247 300 367
#     4  10  20  38  70  91 112 160 211 258 313 372
#     4  11  25  38  54  88 134 171 201 245 314 382
#     4  11  21  33  57  92 118 155 214 260 288 367
#
# _framework density 20.324741
#
# number of rings (size 3 to 8) (size 9 to 14) (size 15 to 20)
#    0.000    1.429    5.714    0.857    0.000    3.429 
#    0.000    0.000    0.000   20.571    0.000    0.000 
#    0.000    0.000    0.000    0.000    0.000    0.000 
#
# Total GULP energy -312280.453518 kJ/mol
# GULP energy per Si atom -5576.436670 kJ/mol
# Density = 2.027848 g / cm^3
# Si number density = 20.324741 Si / 1000 Ang^3
#
#
#
# Elastic Constant Matrix: (Units=GPa)
#
#
# Indices 1 2 3 4 5 6 
#
# 1 49.0466 28.8409 5.1482 0.0000 0.0000 0.0000
# 2 28.8409 48.6802 15.0377 0.0000 0.0000 0.0000
# 3 5.1482 15.0377 88.2850 0.0000 0.0000 0.0000
# 4 0.0000 0.0000 0.0000 35.9868 0.0000 0.0000
# 5 0.0000 0.0000 0.0000 0.0000 14.2845 0.0000
# 6 0.0000 0.0000 0.0000 0.0000 0.0000 21.4052
#
#
#
# Elastic Compliance Matrix: (Units=1/GPa)
#
#
# Indices 1 2 3 4 5 6 
#
# 1 0.031456 -0.019073 0.001414 0.000000 0.000000 0.000000
# 2 -0.019073 0.033248 -0.004551 0.000000 0.000000 0.000000
# 3 0.001414 -0.004551 0.012020 0.000000 0.000000 0.000000
# 4 0.000000 0.000000 0.000000 0.027788 0.000000 0.000000
# 5 0.000000 0.000000 0.000000 0.000000 0.070006 0.000000
# 6 0.000000 0.000000 0.000000 0.000000 0.000000 0.046718
#
#
# Mechanical properties :
#
#
# Convention : Reuss Voigt Hill
#
# Bulk Modulus (GPa) = 30.95566 31.56280 31.25923
# Shear Modulus (GPa) = 18.08824 23.46765 20.77794
#
# Velocity S-wave (km/s) = 2.98646 3.40168 3.20081
# Velocity P-wave (km/s) = 5.21109 5.56700 5.39199
#
# Compressibility (1/GPa) = 0.03230427
#
# Stress axis : x y z
#
# Youngs Moduli (GPa) = 31.79045 30.07687 83.19718
#
# Poissons Ratio (x) = 0.57366 -0.11768
# Poissons Ratio (y) = 0.60635 0.37863
# Poissons Ratio (z) = -0.04497 0.13688
#
# Static dielectric constant tensor:
#      x y z
#    x 1.728330 0.000000 0.000000 
#    y 0.000000 1.769900 0.000000 
#    z 0.000000 0.000000 1.744840 
# 
# From -- ./inp_files/2645.got.cif
#   From: 2010.05.17/outbox.cif.g08.bks.cpg/sg52_2_cif.got.tgz:2645.got - 2010.06.03 12:15:38.
