data_PCOD9410108
_publ_section_title
;
Structure prediction by ZEFSAII (Michael W. Deem and Ramdas Pophale) SiO2 
 PCOD9410108
Probable space group: P N N A
;
_chemical_formula_sum "Si O2"
_cell_formula_units_Z 60
_cell_length_a 18.391875
_cell_length_b 5.411532
_cell_length_c 25.597253
_cell_angle_alpha 90.000000
_cell_angle_beta 90.000000
_cell_angle_gamma 90.000000
_cell_volume 2547.649031
_symmetry_space_group_name_H-M "P N N A"
_symmetry_group_IT_number 52
_symmetry_cell_setting 'orthorhombic'
loop_
_space_group_symop_operation_xyz
x,y,z
1/2-x,-y,z
x,1/2-y,1/2-z
1/2-x,1/2+y,1/2-z
-x,-y,-z
1/2+x,y,-z
-x,1/2+y,1/2+z
1/2+x,1/2-y,1/2+z
loop_
_atom_site_type_symbol
_atom_site_label
_atom_site_fract_x
_atom_site_fract_y
_atom_site_fract_z
Si Si1 0.172958 0.546843 0.184046
Si Si2 0.336215 0.738228 0.965927
Si Si3 0.325135 0.669121 0.414206
Si Si4 0.325441 0.242305 0.922382
Si Si5 0.563980 0.210293 0.308156
Si Si6 0.566623 0.936078 0.847926
Si Si7 0.064435 0.250000 0.250000
Si Si8 0.156436 0.709793 0.693239
O O1 0.250000 0.500000 0.209783
O O2 0.177938 0.376300 0.131664
O O3 0.143595 0.816044 0.170273
O O4 0.113813 0.456236 0.224368
O O5 0.366133 0.494130 0.937655
O O6 0.250628 0.749375 0.952194
O O7 0.365581 0.994115 0.941312
O O8 0.335798 0.723143 0.028152
O O9 0.250000 0.500000 0.414082
O O10 0.403276 0.541929 0.401582
O O11 0.303626 0.239613 0.861505
O O12 0.531890 0.250000 0.250000
O O13 0.498607 0.240714 0.349001
O O14 0.621778 0.435389 0.311124
O O15 0.599651 0.939852 0.308030
O O16 0.535995 0.128252 0.804321
O O17 0.193576 0.750000 0.750000
#
# Coordination Sequence:
#
# PCOD9410108 Si02
#       8
#     8   8   8   8   8   8   4   8
#     4  11  23  32  54  77 117 151 201 257 315 373
#     4  10  22  37  66  94 125 164 203 245 309 384
#     4  11  22  38  56  90 114 165 211 261 310 372
#     4  10  20  38  64  96 125 160 202 250 307 378
#     4  10  22  39  64  87 122 167 212 256 306 367
#     4  11  24  38  57  84 120 160 216 261 311 371
#     4  10  24  34  50  78 116 158 192 254 318 376
#     4  10  22  40  66  95 125 161 205 252 306 376
#
# _framework density 23.551124000000002
#
# number of rings (size 3 to 8) (size 9 to 14) (size 15 to 20)
#    0.000    1.600    2.667    2.000   12.133    0.000 
#    0.000    2.667    0.000    4.800    0.000    0.000 
#    0.000    0.000    0.000    0.000    0.000    0.000 
#
# Total GULP energy -334353.548484 kJ/mol
# GULP energy per Si atom -5572.559141 kJ/mol
# Density = 2.349752 g / cm^3
# Si number density = 23.551124 Si / 1000 Ang^3
#
#
#
# Elastic Constant Matrix: (Units=GPa)
#
#
# Indices 1 2 3 4 5 6 
#
# 1 18.5918 9.4657 6.1777 0.0000 0.0000 0.0000
# 2 9.4657 136.6514 20.6554 0.0000 0.0000 0.0000
# 3 6.1777 20.6554 155.0308 0.0000 0.0000 0.0000
# 4 0.0000 0.0000 0.0000 34.5026 0.0000 0.0000
# 5 0.0000 0.0000 0.0000 0.0000 56.1049 0.0000
# 6 0.0000 0.0000 0.0000 0.0000 0.0000 11.3688
#
#
#
# Elastic Compliance Matrix: (Units=1/GPa)
#
#
# Indices 1 2 3 4 5 6 
#
# 1 0.056218 -0.003629 -0.001757 0.000000 0.000000 0.000000
# 2 -0.003629 0.007703 -0.000882 0.000000 0.000000 0.000000
# 3 -0.001757 -0.000882 0.006638 0.000000 0.000000 0.000000
# 4 0.000000 0.000000 0.000000 0.028983 0.000000 0.000000
# 5 0.000000 0.000000 0.000000 0.000000 0.017824 0.000000
# 6 0.000000 0.000000 0.000000 0.000000 0.000000 0.087960
#
#
# Mechanical properties :
#
#
# Convention : Reuss Voigt Hill
#
# Bulk Modulus (GPa) = 17.23404 42.54129 29.88767
# Shear Modulus (GPa) = 21.07916 38.66028 29.86972
#
# Velocity S-wave (km/s) = 2.99496 4.05600 3.56517
# Velocity P-wave (km/s) = 4.39242 6.32751 5.44659
#
# Compressibility (1/GPa) = 0.05802469
#
# Stress axis : x y z
#
# Youngs Moduli (GPa) = 17.78775 129.82794 150.65233
#
# Poissons Ratio (x) = 0.47110 0.26466
# Poissons Ratio (y) = 0.06455 0.13282
# Poissons Ratio (z) = 0.03125 0.11446
#
# Static dielectric constant tensor:
#      x y z
#    x 0.610230 0.000000 0.000000 
#    y 0.000000 4.202780 0.000000 
#    z 0.000000 0.000000 1.910010 
# 
# From -- ./inp_files/41040.got.cif
#   From: 2010.05.17/outbox.cif.g08.bks.cpg/sg52_21_cif.got.tgz:41040.got - 2010.06.03 12:15:38.
