data_PCOD9410807
_publ_section_title
;
Structure prediction by ZEFSAII (Michael W. Deem and Ramdas Pophale) SiO2 
 PCOD9410807
Probable space group: P N N A
;
_chemical_formula_sum "Si O2"
_cell_formula_units_Z 52
_cell_length_a 8.896238
_cell_length_b 24.943505
_cell_length_c 11.767994
_cell_angle_alpha 90.000000
_cell_angle_beta 90.000000
_cell_angle_gamma 90.000000
_cell_volume 2611.357374
_symmetry_space_group_name_H-M "P N N A"
_symmetry_group_IT_number 52
_symmetry_cell_setting 'orthorhombic'
loop_
_space_group_symop_operation_xyz
x,y,z
1/2-x,-y,z
x,1/2-y,1/2-z
1/2-x,1/2+y,1/2-z
-x,-y,-z
1/2+x,y,-z
-x,1/2+y,1/2+z
1/2+x,1/2-y,1/2+z
loop_
_atom_site_type_symbol
_atom_site_label
_atom_site_fract_x
_atom_site_fract_y
_atom_site_fract_z
Si Si1 0.501973 0.573798 0.725558
Si Si2 0.500332 0.572421 0.450903
Si Si3 0.750000 0.500000 0.671277
Si Si4 0.339508 0.797860 0.398184
Si Si5 0.750000 0.500000 0.327916
Si Si6 0.485849 0.810376 0.154015
Si Si7 0.733176 0.250000 0.250000
Si Si8 0.992363 0.676190 0.113582
O O1 0.502453 0.578911 0.587186
O O2 0.650102 0.539207 0.746991
O O3 0.356422 0.537613 0.746649
O O4 0.500678 0.627212 0.798333
O O5 0.361268 0.537085 0.403938
O O6 0.643480 0.539791 0.401615
O O7 0.491089 0.632144 0.402763
O O8 0.401886 0.737066 0.414566
O O9 0.896220 0.813654 0.727082
O O10 0.160123 0.800964 0.402955
O O11 0.420221 0.835235 0.490717
O O12 0.653025 0.789325 0.183226
O O13 0.624610 0.281997 0.167016
#
# Coordination Sequence:
#
# PCOD9410807 Si02
#       8
#     8   8   4   8   4   8   4   8
#     4  11  22  37  64  95 120 170 200 265 319 374
#     4  11  20  37  63  95 131 161 203 256 317 381
#     4  10  21  38  60  95 136 159 208 258 313 380
#     4  10  23  43  61  87 127 167 211 269 301 388
#     4  10  21  38  60  95 136 159 208 258 313 380
#     4  10  22  42  63  93 128 171 208 254 326 371
#     4  10  22  38  58  92 124 162 214 256 300 394
#     4  12  24  41  64  88 124 168 213 260 323 365
#
# _framework density 19.913015000000001
#
# number of rings (size 3 to 8) (size 9 to 14) (size 15 to 20)
#    0.000    1.538    0.000    8.308    2.154    0.000 
#    8.308    0.000    0.000   15.692    0.000    0.000 
#    0.000    0.000    0.000    0.000    0.000    0.000 
#
# Total GULP energy -290536.102170 kJ/mol
# GULP energy per Si atom -5587.232734 kJ/mol
# Density = 1.986769 g / cm^3
# Si number density = 19.913015 Si / 1000 Ang^3
#
#
#
# Elastic Constant Matrix: (Units=GPa)
#
#
# Indices 1 2 3 4 5 6 
#
# 1 169.6891 45.0131 35.7266 0.0000 0.0000 0.0000
# 2 45.0131 116.2467 43.8696 0.0000 0.0000 0.0000
# 3 35.7266 43.8696 61.7338 0.0000 0.0000 0.0000
# 4 0.0000 0.0000 0.0000 22.8108 0.0000 0.0000
# 5 0.0000 0.0000 0.0000 0.0000 17.8560 0.0000
# 6 0.0000 0.0000 0.0000 0.0000 0.0000 10.6197
#
#
#
# Elastic Compliance Matrix: (Units=1/GPa)
#
#
# Indices 1 2 3 4 5 6 
#
# 1 0.006921 -0.001597 -0.002871 0.000000 0.000000 0.000000
# 2 -0.001597 0.012123 -0.007691 0.000000 0.000000 0.000000
# 3 -0.002871 -0.007691 0.023325 0.000000 0.000000 0.000000
# 4 0.000000 0.000000 0.000000 0.043839 0.000000 0.000000
# 5 0.000000 0.000000 0.000000 0.000000 0.056004 0.000000
# 6 0.000000 0.000000 0.000000 0.000000 0.000000 0.094165
#
#
# Mechanical properties :
#
#
# Convention : Reuss Voigt Hill
#
# Bulk Modulus (GPa) = 55.39310 66.32092 60.85701
# Shear Modulus (GPa) = 18.74686 25.12798 21.93742
#
# Velocity S-wave (km/s) = 3.07161 3.55616 3.32273
# Velocity P-wave (km/s) = 6.36064 7.08797 6.73413
#
# Compressibility (1/GPa) = 0.01805279
#
# Stress axis : x y z
#
# Youngs Moduli (GPa) = 144.48627 82.48727 42.87181
#
# Poissons Ratio (x) = 0.13170 0.12308
# Poissons Ratio (y) = 0.23069 0.32973
# Poissons Ratio (z) = 0.41479 0.63441
#
# Static dielectric constant tensor:
#      x y z
#    x 1.726270 0.000000 0.000000 
#    y 0.000000 1.691270 0.000000 
#    z 0.000000 0.000000 1.771690 
# 
# From -- ./inp_files/17104.got.cif
#   From: 2010.05.17/outbox.cif.g08.bks.cpg/sg52_9_cif.got.tgz:17104.got - 2010.06.03 12:15:38.
