data_PCOD9410700
_publ_section_title
;
Structure prediction by ZEFSAII (Michael W. Deem and Ramdas Pophale) SiO2 
 PCOD9410700
Probable space group: P N N A
;
_chemical_formula_sum "Si O2"
_cell_formula_units_Z 48
_cell_length_a 23.832239
_cell_length_b 8.603800
_cell_length_c 10.761607
_cell_angle_alpha 90.000000
_cell_angle_beta 90.000000
_cell_angle_gamma 90.000000
_cell_volume 2206.644033
_symmetry_space_group_name_H-M "P N N A"
_symmetry_group_IT_number 52
_symmetry_cell_setting 'orthorhombic'
loop_
_space_group_symop_operation_xyz
x,y,z
1/2-x,-y,z
x,1/2-y,1/2-z
1/2-x,1/2+y,1/2-z
-x,-y,-z
1/2+x,y,-z
-x,1/2+y,1/2+z
1/2+x,1/2-y,1/2+z
loop_
_atom_site_type_symbol
_atom_site_label
_atom_site_fract_x
_atom_site_fract_y
_atom_site_fract_z
Si Si1 0.320641 0.683274 0.611209
Si Si2 0.415783 0.856653 0.476471
Si Si3 0.312619 0.176783 0.886309
Si Si4 0.100321 0.847096 0.446608
Si Si5 0.527717 0.604315 0.176309
Si Si6 0.497186 0.870942 0.892146
O O1 0.329652 0.750000 0.750000
O O2 0.355013 0.779481 0.510327
O O3 0.334265 0.499912 0.613866
O O4 0.253506 0.688430 0.587744
O O5 0.472048 0.831571 0.387794
O O6 0.446897 0.747461 0.586501
O O7 0.389731 0.995988 0.376824
O O8 0.320854 0.250000 0.750000
O O9 0.348395 0.267837 0.988357
O O10 0.068051 0.952805 0.560460
O O11 0.055142 0.727075 0.397946
O O12 0.554109 0.750000 0.250000
O O13 0.513032 0.468417 0.268367
O O14 0.500000 0.000000 0.000000
#
# Coordination Sequence:
#
# PCOD9410700 Si02
#       6
#     8   8   8   8   8   8
#     4  10  22  38  59  88 116 154 196 245 301 360
#     4  11  24  36  55  89 119 157 199 242 300 354
#     4  10  21  37  59  86 119 154 193 241 304 360
#     4  11  23  36  57  89 121 156 195 243 301 361
#     4  11  22  37  57  87 119 158 198 243 294 361
#     4  11  21  37  58  84 118 159 198 241 303 351
#
# _framework density 21.752489000000001
#
# number of rings (size 3 to 8) (size 9 to 14) (size 15 to 20)
#    0.000    1.333    3.333    4.500    4.667    4.000 
#    0.000    0.000    0.000    0.000    8.667    0.000 
#    0.000    0.000    0.000    0.000    0.000    0.000 
#
# Total GULP energy -267252.346210 kJ/mol
# GULP energy per Si atom -5567.757213 kJ/mol
# Density = 2.170298 g / cm^3
# Si number density = 21.752489 Si / 1000 Ang^3
#
#
#
# Elastic Constant Matrix: (Units=GPa)
#
#
# Indices 1 2 3 4 5 6 
#
# 1 72.2514 37.3343 7.2375 0.0000 0.0000 0.0000
# 2 37.3343 136.2538 18.4737 0.0000 0.0000 0.0000
# 3 7.2375 18.4737 49.4958 0.0000 0.0000 0.0000
# 4 0.0000 0.0000 0.0000 50.0888 0.0000 0.0000
# 5 0.0000 0.0000 0.0000 0.0000 25.6051 0.0000
# 6 0.0000 0.0000 0.0000 0.0000 0.0000 42.0903
#
#
#
# Elastic Compliance Matrix: (Units=1/GPa)
#
#
# Indices 1 2 3 4 5 6 
#
# 1 0.016150 -0.004324 -0.000748 0.000000 0.000000 0.000000
# 2 -0.004324 0.008888 -0.002685 0.000000 0.000000 0.000000
# 3 -0.000748 -0.002685 0.021315 0.000000 0.000000 0.000000
# 4 0.000000 0.000000 0.000000 0.019965 0.000000 0.000000
# 5 0.000000 0.000000 0.000000 0.000000 0.039055 0.000000
# 6 0.000000 0.000000 0.000000 0.000000 0.000000 0.023758
#
#
# Mechanical properties :
#
#
# Convention : Reuss Voigt Hill
#
# Bulk Modulus (GPa) = 32.42555 42.67686 37.55121
# Shear Modulus (GPa) = 32.27397 36.55387 34.41392
#
# Velocity S-wave (km/s) = 3.85605 4.10377 3.98184
# Velocity P-wave (km/s) = 5.89614 6.48972 6.20004
#
# Compressibility (1/GPa) = 0.03083988
#
# Stress axis : x y z
#
# Youngs Moduli (GPa) = 61.92085 112.51097 46.91479
#
# Poissons Ratio (x) = 0.48647 0.03508
# Poissons Ratio (y) = 0.26773 0.12597
# Poissons Ratio (z) = 0.04630 0.30210
#
# Static dielectric constant tensor:
#      x y z
#    x 1.790430 0.000000 0.000000 
#    y 0.000000 1.951170 0.000000 
#    z 0.000000 0.000000 1.939680 
# 
# From -- ./inp_files/22290.got.cif
#   From: 2010.05.17/outbox.cif.g08.bks.cpg/sg52_12_cif.got.tgz:22290.got - 2010.06.03 12:15:38.
