data_PCOD9410172
_publ_section_title
;
Structure prediction by ZEFSAII (Michael W. Deem and Ramdas Pophale) SiO2 
 PCOD9410172
Probable space group: P N N A
;
_chemical_formula_sum "Si O2"
_cell_formula_units_Z 64
_cell_length_a 20.762665
_cell_length_b 22.942097
_cell_length_c 5.582027
_cell_angle_alpha 90.000000
_cell_angle_beta 90.000000
_cell_angle_gamma 90.000000
_cell_volume 2658.937575
_symmetry_space_group_name_H-M "P N N A"
_symmetry_group_IT_number 52
_symmetry_cell_setting 'orthorhombic'
loop_
_space_group_symop_operation_xyz
x,y,z
1/2-x,-y,z
x,1/2-y,1/2-z
1/2-x,1/2+y,1/2-z
-x,-y,-z
1/2+x,y,-z
-x,1/2+y,1/2+z
1/2+x,1/2-y,1/2+z
loop_
_atom_site_type_symbol
_atom_site_label
_atom_site_fract_x
_atom_site_fract_y
_atom_site_fract_z
Si Si1 0.760518 0.604565 0.698805
Si Si2 0.961835 0.982919 0.740418
Si Si3 0.620164 0.108444 0.498585
Si Si4 0.683888 0.015768 0.170934
Si Si5 0.082922 0.587663 0.648629
Si Si6 0.562619 0.264920 0.006106
Si Si7 0.386417 0.399099 0.171269
Si Si8 0.709328 0.278461 0.497567
O O1 0.809968 0.623694 0.903098
O O2 0.788404 0.547509 0.566246
O O3 0.690190 0.602167 0.811482
O O4 0.766676 0.655489 0.502818
O O5 0.918729 0.925912 0.700657
O O6 0.021312 0.955276 0.893636
O O7 0.909421 0.034686 0.724991
O O8 0.000000 0.000000 0.500000
O O9 0.634490 0.062080 0.288621
O O10 0.582543 0.167796 0.460138
O O11 0.750000 0.000000 0.313395
O O12 0.645132 0.955365 0.157357
O O13 0.087973 0.629564 0.418966
O O14 0.083894 0.616296 0.912931
O O15 0.526291 0.250000 0.250000
O O16 0.630912 0.228300 0.001610
O O17 0.532104 0.250000 0.750000
O O18 0.731472 0.250000 0.250000
O O19 0.731232 0.250000 0.750000
#
# Coordination Sequence:
#
# PCOD9410172 Si02
#       8
#     8   8   8   8   8   8   8   8
#     4  12  25  35  61  97 126 173 204 262 334 380
#     4  10  22  42  61  90 130 174 219 252 305 377
#     4  12  23  37  64  91 127 175 206 258 327 381
#     4  12  23  35  58  91 134 162 203 250 312 382
#     4  11  23  44  58  84 132 171 207 259 289 367
#     4  10  20  40  57  87 123 152 205 266 316 368
#     4  11  23  41  60  87 130 167 211 252 301 379
#     4  10  20  39  58  83 126 154 202 263 318 381
#
# _framework density 24.069762000000001
#
# number of rings (size 3 to 8) (size 9 to 14) (size 15 to 20)
#    0.000    1.000    6.250    3.375    0.000    0.000 
#    0.000    0.000    0.000    0.000    0.000   11.375 
#    0.000    0.000    0.000    0.000    0.000    0.000 
#
# Total GULP energy -356973.144084 kJ/mol
# GULP energy per Si atom -5577.705376 kJ/mol
# Density = 2.401498 g / cm^3
# Si number density = 24.069762 Si / 1000 Ang^3
#
#
#
# Elastic Constant Matrix: (Units=GPa)
#
#
# Indices 1 2 3 4 5 6 
#
# 1 75.9659 -11.7098 -25.9159 0.0000 0.0000 0.0000
# 2 -11.7098 51.3573 -5.5307 0.0000 0.0000 0.0000
# 3 -25.9159 -5.5307 102.0086 0.0000 0.0000 0.0000
# 4 0.0000 0.0000 0.0000 13.2132 0.0000 0.0000
# 5 0.0000 0.0000 0.0000 0.0000 22.8529 0.0000
# 6 0.0000 0.0000 0.0000 0.0000 0.0000 9.8123
#
#
#
# Elastic Compliance Matrix: (Units=1/GPa)
#
#
# Indices 1 2 3 4 5 6 
#
# 1 0.015149 0.003891 0.004060 0.000000 0.000000 0.000000
# 2 0.003891 0.020585 0.002105 0.000000 0.000000 0.000000
# 3 0.004060 0.002105 0.010949 0.000000 0.000000 0.000000
# 4 0.000000 0.000000 0.000000 0.075682 0.000000 0.000000
# 5 0.000000 0.000000 0.000000 0.000000 0.043758 0.000000
# 6 0.000000 0.000000 0.000000 0.000000 0.000000 0.101913
#
#
# Mechanical properties :
#
#
# Convention : Reuss Voigt Hill
#
# Bulk Modulus (GPa) = 14.97162 15.89100 15.43131
# Shear Modulus (GPa) = 18.50556 27.34156 22.92356
#
# Velocity S-wave (km/s) = 2.77579 3.37401 3.08941
# Velocity P-wave (km/s) = 4.06287 4.66851 4.37618
#
# Compressibility (1/GPa) = 0.06679304
#
# Stress axis : x y z
#
# Youngs Moduli (GPa) = 66.01301 48.57842 91.33619
#
# Poissons Ratio (x) = -0.18903 -0.37078
# Poissons Ratio (y) = -0.25687 -0.19223
# Poissons Ratio (z) = -0.26798 -0.10224
#
# Static dielectric constant tensor:
#      x y z
#    x 1.949420 0.000000 0.000000 
#    y 0.000000 2.235520 0.000000 
#    z 0.000000 0.000000 1.212490 
# 
# From -- ./inp_files/5339.got.cif
#   From: 2010.05.17/outbox.cif.g08.bks.cpg/sg52_3_cif.got.tgz:5339.got - 2010.06.03 12:15:38.
