data_PCOD9410542
_publ_section_title
;
Structure prediction by ZEFSAII (Michael W. Deem and Ramdas Pophale) SiO2 
 PCOD9410542
Probable space group: P N N A
;
_chemical_formula_sum "Si O2"
_cell_formula_units_Z 56
_cell_length_a 11.788327
_cell_length_b 20.448286
_cell_length_c 13.088457
_cell_angle_alpha 90.000000
_cell_angle_beta 90.000000
_cell_angle_gamma 90.000000
_cell_volume 3154.986721
_symmetry_space_group_name_H-M "P N N A"
_symmetry_group_IT_number 52
_symmetry_cell_setting 'orthorhombic'
loop_
_space_group_symop_operation_xyz
x,y,z
1/2-x,-y,z
x,1/2-y,1/2-z
1/2-x,1/2+y,1/2-z
-x,-y,-z
1/2+x,y,-z
-x,1/2+y,1/2+z
1/2+x,1/2-y,1/2+z
loop_
_atom_site_type_symbol
_atom_site_label
_atom_site_fract_x
_atom_site_fract_y
_atom_site_fract_z
Si Si1 0.455117 0.930309 0.967322
Si Si2 0.388853 0.831137 0.140870
Si Si3 0.590839 0.824213 0.282917
Si Si4 0.935850 0.683718 0.199001
Si Si5 0.876088 0.330649 0.633690
Si Si6 0.477414 0.275779 0.986602
Si Si7 0.721648 0.074727 0.215871
O O1 0.560781 0.893368 0.914054
O O2 0.345343 0.930047 0.892401
O O3 0.420437 0.890431 0.066925
O O4 0.500000 0.000000 0.000000
O O5 0.463440 0.834866 0.242424
O O6 0.255587 0.832552 0.157228
O O7 0.435038 0.767561 0.079961
O O8 0.623610 0.750000 0.250000
O O9 0.588295 0.821655 0.406159
O O10 0.667463 0.878843 0.226881
O O11 0.881595 0.750000 0.250000
O O12 0.865996 0.618098 0.218436
O O13 0.052462 0.680239 0.263069
O O14 0.956398 0.691194 0.079515
O O15 0.896728 0.274679 0.548006
O O16 0.750000 0.000000 0.246381
#
# Coordination Sequence:
#
# PCOD9410542 Si02
#       7
#     8   8   8   8   8   8   8
#     4  10  22  36  56  82 113 153 189 228 296 352
#     4  10  21  34  55  85 120 141 185 239 285 342
#     4  10  22  37  56  91 120 148 187 241 289 343
#     4   9  19  39  58  87 113 150 193 237 287 340
#     4   9  20  36  56  84 117 145 187 242 282 346
#     4   9  20  34  57  86 112 153 187 230 297 333
#     4  11  23  37  59  83 117 150 194 239 287 346
#
# _framework density 17.749677999999999
#
# number of rings (size 3 to 8) (size 9 to 14) (size 15 to 20)
#    0.000    2.286    0.000    2.143   10.000    5.143 
#    0.000    0.714    0.000    0.000    0.000    0.000 
#    0.000    0.000    0.000    0.000    0.000    0.000 
#
# Total GULP energy -311964.206095 kJ/mol
# GULP energy per Si atom -5570.789395 kJ/mol
# Density = 1.770928 g / cm^3
# Si number density = 17.749678 Si / 1000 Ang^3
#
#
#
# Elastic Constant Matrix: (Units=GPa)
#
#
# Indices 1 2 3 4 5 6 
#
# 1 133.5911 40.8426 28.0475 0.0000 0.0000 0.0000
# 2 40.8426 122.3827 38.0468 0.0000 0.0000 0.0000
# 3 28.0475 38.0468 102.6925 0.0000 0.0000 0.0000
# 4 0.0000 0.0000 0.0000 19.3389 0.0000 0.0000
# 5 0.0000 0.0000 0.0000 0.0000 -6.6916 0.0000
# 6 0.0000 0.0000 0.0000 0.0000 0.0000 18.3523
#
#
#
# Elastic Compliance Matrix: (Units=1/GPa)
#
#
# Indices 1 2 3 4 5 6 
#
# 1 0.008520 -0.002396 -0.001439 0.000000 0.000000 0.000000
# 2 -0.002396 0.009909 -0.003017 0.000000 0.000000 0.000000
# 3 -0.001439 -0.003017 0.011249 0.000000 0.000000 0.000000
# 4 0.000000 0.000000 0.000000 0.051709 0.000000 0.000000
# 5 0.000000 0.000000 0.000000 0.000000 -0.149441 0.000000
# 6 0.000000 0.000000 0.000000 0.000000 0.000000 0.054489
#
#
# Mechanical properties :
#
#
# Convention : Reuss Voigt Hill
#
# Bulk Modulus (GPa) = 62.60422 63.61558 63.10990
# Shear Modulus (GPa) = 915.27634 22.98188 469.12911
#
# Velocity S-wave (km/s) = 22.73274 3.60221 16.27503
# Velocity P-wave (km/s) = 26.91438 7.29516 19.71805
#
# Compressibility (1/GPa) = 0.01597337
#
# Stress axis : x y z
#
# Youngs Moduli (GPa) = 117.36759 100.92322 88.90015
#
# Poissons Ratio (x) = 0.24181 0.12796
# Poissons Ratio (y) = 0.28121 0.26818
# Poissons Ratio (z) = 0.16894 0.30445
#
# Static dielectric constant tensor:
#      x y z
#    x 1.635380 0.000000 0.000000 
#    y 0.000000 1.614210 0.000000 
#    z 0.000000 0.000000 1.613570 
# 
# From -- ./inp_files/18359.got.cif
#   From: 2010.05.17/outbox.cif.g08.bks.cpg/sg52_10_cif.got.tgz:18359.got - 2010.06.03 12:15:38.
