data_PCOD9410054
_publ_section_title
;
Structure prediction by ZEFSAII (Michael W. Deem and Ramdas Pophale) SiO2 
 PCOD9410054
Probable space group: P N N A
;
_chemical_formula_sum "Si O2"
_cell_formula_units_Z 56
_cell_length_a 22.607148
_cell_length_b 5.470287
_cell_length_c 22.503873
_cell_angle_alpha 90.000000
_cell_angle_beta 90.000000
_cell_angle_gamma 90.000000
_cell_volume 2782.999690
_symmetry_space_group_name_H-M "P N N A"
_symmetry_group_IT_number 52
_symmetry_cell_setting 'orthorhombic'
loop_
_space_group_symop_operation_xyz
x,y,z
1/2-x,-y,z
x,1/2-y,1/2-z
1/2-x,1/2+y,1/2-z
-x,-y,-z
1/2+x,y,-z
-x,1/2+y,1/2+z
1/2+x,1/2-y,1/2+z
loop_
_atom_site_type_symbol
_atom_site_label
_atom_site_fract_x
_atom_site_fract_y
_atom_site_fract_z
Si Si1 0.473176 0.789469 0.570719
Si Si2 0.587991 0.717276 0.382747
Si Si3 0.804748 0.366611 0.916670
Si Si4 0.413790 0.134782 0.129964
Si Si5 0.100962 0.252597 0.459013
Si Si6 0.981410 0.250000 0.750000
Si Si7 0.808929 0.102411 0.032555
Si Si8 0.442051 0.250000 0.750000
O O1 0.444757 0.539836 0.599475
O O2 0.542745 0.772749 0.583355
O O3 0.454357 0.787666 0.501970
O O4 0.447369 0.037640 0.598732
O O5 0.649568 0.731721 0.419026
O O6 0.593307 0.718437 0.311495
O O7 0.750000 0.500000 0.886433
O O8 0.844520 0.197042 0.874981
O O9 0.854352 0.540336 0.944007
O O10 0.780423 0.242938 0.976382
O O11 0.441003 0.196349 0.192905
O O12 0.418349 0.862170 0.104266
O O13 0.143037 0.434675 0.497707
O O14 0.019505 0.499405 0.757473
O O15 0.750000 0.000000 0.063433
#
# Coordination Sequence:
#
# PCOD9410054 Si02
#       8
#     8   8   8   8   8   4   8   4
#     4  11  22  40  60 101 135 163 207 271 339 393
#     4  11  22  38  66  97 129 175 217 264 325 390
#     4  11  22  39  65  89 125 171 215 267 328 394
#     4  11  25  39  63  95 126 171 216 274 330 402
#     4  10  22  37  62  94 132 165 208 268 330 400
#     4  12  26  44  68  90 128 176 220 266 332 406
#     4  10  20  38  61  93 131 171 216 258 321 394
#     4  12  22  44  66  92 136 172 220 270 324 400
#
# _framework density 20.122173
#
# number of rings (size 3 to 8) (size 9 to 14) (size 15 to 20)
#    0.000    1.143    5.714    0.429    4.000    0.571 
#    0.000    0.000    3.143    5.143    0.000    0.000 
#    0.000    0.000    0.000    0.000    0.000    0.000 
#
# Total GULP energy -312266.283698 kJ/mol
# GULP energy per Si atom -5576.183637 kJ/mol
# Density = 2.007637 g / cm^3
# Si number density = 20.122173 Si / 1000 Ang^3
#
#
#
# Elastic Constant Matrix: (Units=GPa)
#
#
# Indices 1 2 3 4 5 6 
#
# 1 95.2516 13.5297 0.3658 0.0000 0.0000 0.0000
# 2 13.5297 85.2311 11.5267 0.0000 0.0000 0.0000
# 3 0.3658 11.5267 76.7193 0.0000 0.0000 0.0000
# 4 0.0000 0.0000 0.0000 -15.1916 0.0000 0.0000
# 5 0.0000 0.0000 0.0000 0.0000 -714.6274 0.0000
# 6 0.0000 0.0000 0.0000 0.0000 0.0000 34.1342
#
#
#
# Elastic Compliance Matrix: (Units=1/GPa)
#
#
# Indices 1 2 3 4 5 6 
#
# 1 0.010744 -0.001734 0.000209 0.000000 0.000000 0.000000
# 2 -0.001734 0.012256 -0.001833 0.000000 0.000000 0.000000
# 3 0.000209 -0.001833 0.013309 0.000000 0.000000 0.000000
# 4 0.000000 0.000000 0.000000 -0.065826 0.000000 0.000000
# 5 0.000000 0.000000 0.000000 0.000000 -0.001399 0.000000
# 6 0.000000 0.000000 0.000000 0.000000 0.000000 0.029296
#
#
# Mechanical properties :
#
#
# Convention : Reuss Voigt Hill
#
# Bulk Modulus (GPa) = 33.79119 34.22739 34.00929
# Shear Modulus (GPa) = 334.23151 -123.68496 105.27328
#
# Velocity S-wave (km/s) = 12.90200 -7.84859 7.24090
# Velocity P-wave (km/s) = 15.45246 8.06766 9.31910
#
# Compressibility (1/GPa) = 0.02959351
#
# Stress axis : x y z
#
# Youngs Moduli (GPa) = 93.07541 81.59299 75.13745
#
# Poissons Ratio (x) = 0.14147 -0.01572
# Poissons Ratio (y) = 0.16138 0.13774
# Poissons Ratio (z) = -0.01948 0.14957
#
# Static dielectric constant tensor:
#      x y z
#    x 1.727180 0.000000 0.000000 
#    y 0.000000 1.890900 0.000000 
#    z 0.000000 0.000000 1.701530 
# 
# From -- ./inp_files/41144.got.cif
#   From: 2010.05.17/outbox.cif.g08.bks.cpg/sg52_21_cif.got.tgz:41144.got - 2010.06.03 12:15:38.
