data_PCOD9410478
_publ_section_title
;
Structure prediction by ZEFSAII (Michael W. Deem and Ramdas Pophale) SiO2 
 PCOD9410478
Probable space group: P N N A
;
_chemical_formula_sum "Si O2"
_cell_formula_units_Z 56
_cell_length_a 14.143986
_cell_length_b 9.760242
_cell_length_c 17.892106
_cell_angle_alpha 90.000000
_cell_angle_beta 90.000000
_cell_angle_gamma 90.000000
_cell_volume 2469.982442
_symmetry_space_group_name_H-M "P N N A"
_symmetry_group_IT_number 52
_symmetry_cell_setting 'orthorhombic'
loop_
_space_group_symop_operation_xyz
x,y,z
1/2-x,-y,z
x,1/2-y,1/2-z
1/2-x,1/2+y,1/2-z
-x,-y,-z
1/2+x,y,-z
-x,1/2+y,1/2+z
1/2+x,1/2-y,1/2+z
loop_
_atom_site_type_symbol
_atom_site_label
_atom_site_fract_x
_atom_site_fract_y
_atom_site_fract_z
Si Si1 0.117947 0.250000 0.250000
Si Si2 0.813942 0.119155 0.108077
Si Si3 0.830542 0.884539 0.600280
Si Si4 0.500000 0.022093 0.819927
Si Si5 0.308421 0.860841 0.565553
Si Si6 0.504144 0.750000 0.750000
Si Si7 0.418765 0.406507 0.462894
Si Si8 0.473206 0.377523 0.100855
O O1 0.169330 0.215081 0.328286
O O2 0.053522 0.116395 0.238181
O O3 0.917197 0.113223 0.144515
O O4 0.754247 0.256292 0.112386
O O5 0.750000 0.000000 0.141077
O O6 0.834120 0.086611 0.020742
O O7 0.817376 0.810410 0.520668
O O8 0.750000 0.000000 0.610326
O O9 0.925443 0.976236 0.588354
O O10 0.455017 0.881278 0.788104
O O11 0.578092 0.969306 0.879866
O O12 0.413183 0.882447 0.597883
O O13 0.250000 0.000000 0.561533
O O14 0.558885 0.677688 0.817770
O O15 0.500000 0.500000 0.500000
O O16 0.443354 0.244784 0.455111
#
# Coordination Sequence:
#
# PCOD9410478 Si02
#       8
#     4   8   8   8   8   4   8   8
#     4  12  26  45  73 100 136 182 240 283 351 426
#     4  11  23  41  64 102 138 168 236 289 336 422
#     4  11  26  46  67 102 137 178 235 296 361 421
#     4  10  23  41  67  98 135 183 229 281 353 420
#     4  11  25  42  68 104 135 185 232 286 353 413
#     4  10  20  43  67  96 134 190 228 273 369 410
#     4   9  19  36  65  93 125 176 222 278 344 391
#     4  11  22  43  69  96 139 185 229 291 352 426
#
# _framework density 22.672228
#
# number of rings (size 3 to 8) (size 9 to 14) (size 15 to 20)
#    0.000    1.429    1.429    4.714    8.000    0.571 
#    2.571    5.000    0.000    0.000    0.000    0.000 
#    0.000    0.000    0.000    0.000    0.000    0.000 
#
# Total GULP energy -312479.186845 kJ/mol
# GULP energy per Si atom -5579.985479 kJ/mol
# Density = 2.262062 g / cm^3
# Si number density = 22.672228 Si / 1000 Ang^3
#
#
#
# Elastic Constant Matrix: (Units=GPa)
#
#
# Indices 1 2 3 4 5 6 
#
# 1 59.7640 2.0252 -10.0148 0.0000 0.0000 0.0000
# 2 2.0252 78.7933 12.6150 0.0000 0.0000 0.0000
# 3 -10.0148 12.6150 48.6740 0.0000 0.0000 0.0000
# 4 0.0000 0.0000 0.0000 18.8182 0.0000 0.0000
# 5 0.0000 0.0000 0.0000 0.0000 -16.6361 0.0000
# 6 0.0000 0.0000 0.0000 0.0000 0.0000 32.1413
#
#
#
# Elastic Compliance Matrix: (Units=1/GPa)
#
#
# Indices 1 2 3 4 5 6 
#
# 1 0.017415 -0.001066 0.003859 0.000000 0.000000 0.000000
# 2 -0.001066 0.013306 -0.003668 0.000000 0.000000 0.000000
# 3 0.003859 -0.003668 0.022290 0.000000 0.000000 0.000000
# 4 0.000000 0.000000 0.000000 0.053140 0.000000 0.000000
# 5 0.000000 0.000000 0.000000 0.000000 -0.060110 0.000000
# 6 0.000000 0.000000 0.000000 0.000000 0.000000 0.031113
#
#
# Mechanical properties :
#
#
# Convention : Reuss Voigt Hill
#
# Bulk Modulus (GPa) = 19.50725 21.83135 20.66930
# Shear Modulus (GPa) = 52.08933 19.03841 35.56387
#
# Velocity S-wave (km/s) = 4.79842 2.90094 3.96486
# Velocity P-wave (km/s) = 6.27076 4.56844 5.48603
#
# Compressibility (1/GPa) = 0.05126300
#
# Stress axis : x y z
#
# Youngs Moduli (GPa) = 57.42077 75.15385 44.86417
#
# Poissons Ratio (x) = 0.08008 -0.17315
# Poissons Ratio (y) = 0.06118 0.16455
# Poissons Ratio (z) = -0.22161 0.27565
#
# Static dielectric constant tensor:
#      x y z
#    x 1.827500 0.000000 0.000000 
#    y 0.000000 1.836200 0.000000 
#    z 0.000000 0.000000 1.905020 
# 
# From -- ./inp_files/37370.got.cif
#   From: 2010.05.17/outbox.cif.g08.bks.cpg/sg52_19_cif.got.tgz:37370.got - 2010.06.03 12:15:38.
