data_PCOD9410783
_publ_section_title
;
Structure prediction by ZEFSAII (Michael W. Deem and Ramdas Pophale) SiO2 
 PCOD9410783
Probable space group: P N N A
;
_chemical_formula_sum "Si O2"
_cell_formula_units_Z 32
_cell_length_a 18.248954
_cell_length_b 5.276173
_cell_length_c 14.427052
_cell_angle_alpha 90.000000
_cell_angle_beta 90.000000
_cell_angle_gamma 90.000000
_cell_volume 1389.103485
_symmetry_space_group_name_H-M "P N N A"
_symmetry_group_IT_number 52
_symmetry_cell_setting 'orthorhombic'
loop_
_space_group_symop_operation_xyz
x,y,z
1/2-x,-y,z
x,1/2-y,1/2-z
1/2-x,1/2+y,1/2-z
-x,-y,-z
1/2+x,y,-z
-x,1/2+y,1/2+z
1/2+x,1/2-y,1/2+z
loop_
_atom_site_type_symbol
_atom_site_label
_atom_site_fract_x
_atom_site_fract_y
_atom_site_fract_z
Si Si1 0.484783 0.034720 0.391198
Si Si2 0.201380 0.745931 0.639095
Si Si3 0.045487 0.544735 0.595551
Si Si4 0.328543 0.003531 0.313701
O O1 0.503888 0.762908 0.349609
O O2 0.500000 0.000000 0.500000
O O3 0.535623 0.268084 0.359071
O O4 0.398924 0.060773 0.375220
O O5 0.250000 0.500000 0.622147
O O6 0.184142 0.750000 0.750000
O O7 0.125775 0.669673 0.587007
O O8 0.250000 0.000000 0.618348
O O9 0.000000 0.500000 0.500000
O O10 0.323071 0.250000 0.250000
O O11 0.250000 0.000000 0.365246
O O12 0.336786 0.750000 0.250000
#
# Coordination Sequence:
#
# PCOD9410783 Si02
#       4
#     8   8   8   8
#     4  10  21  38  58  87 123 159 200 246 305 368
#     4  10  21  38  60  86 117 157 203 250 300 357
#     4  10  21  38  58  86 120 155 198 246 303 364
#     4  10  21  38  61  89 121 159 204 254 308 369
#
# _framework density 23.036439999999999
#
# number of rings (size 3 to 8) (size 9 to 14) (size 15 to 20)
#    0.000    2.000    0.000    3.000    0.000    3.000 
#    0.000   15.000    0.000    0.000    0.000    0.000 
#    0.000    0.000    0.000    0.000    0.000    0.000 
#
# Total GULP energy -178196.215166 kJ/mol
# GULP energy per Si atom -5568.631724 kJ/mol
# Density = 2.298401 g / cm^3
# Si number density = 23.036440 Si / 1000 Ang^3
#
#
#
# Elastic Constant Matrix: (Units=GPa)
#
#
# Indices 1 2 3 4 5 6 
#
# 1 208.8137 52.6753 47.6884 0.0000 0.0000 0.0000
# 2 52.6753 231.2465 22.5104 0.0000 0.0000 0.0000
# 3 47.6884 22.5104 82.4652 0.0000 0.0000 0.0000
# 4 0.0000 0.0000 0.0000 -7.3765 0.0000 0.0000
# 5 0.0000 0.0000 0.0000 0.0000 40.8525 0.0000
# 6 0.0000 0.0000 0.0000 0.0000 0.0000 44.3493
#
#
#
# Elastic Compliance Matrix: (Units=1/GPa)
#
#
# Indices 1 2 3 4 5 6 
#
# 1 0.005739 -0.001011 -0.003043 0.000000 0.000000 0.000000
# 2 -0.001011 0.004621 -0.000677 0.000000 0.000000 0.000000
# 3 -0.003043 -0.000677 0.014071 0.000000 0.000000 0.000000
# 4 0.000000 0.000000 0.000000 -0.135566 0.000000 0.000000
# 5 0.000000 0.000000 0.000000 0.000000 0.024478 0.000000
# 6 0.000000 0.000000 0.000000 0.000000 0.000000 0.022548
#
#
# Mechanical properties :
#
#
# Convention : Reuss Voigt Hill
#
# Bulk Modulus (GPa) = 66.80347 85.36372 76.08360
# Shear Modulus (GPa) = -100.68647 42.20850 -29.23898
#
# Velocity S-wave (km/s) = -6.61834 4.28512 -3.56652
# Velocity P-wave (km/s) = 5.41675 7.84980 4.01735
#
# Compressibility (1/GPa) = 0.01496928
#
# Stress axis : x y z
#
# Youngs Moduli (GPa) = 174.24941 216.42405 71.07029
#
# Poissons Ratio (x) = 0.21882 0.21625
# Poissons Ratio (y) = 0.17618 0.04808
# Poissons Ratio (z) = 0.53019 0.14643
#
# Static dielectric constant tensor:
#      x y z
#    x 2.062530 0.000000 0.000000 
#    y 0.000000 1.855970 0.000000 
#    z 0.000000 0.000000 1.838980 
# 
# From -- ./inp_files/32578.got.cif
#   From: 2010.05.17/outbox.cif.g08.bks.cpg/sg52_17_cif.got.tgz:32578.got - 2010.06.03 12:15:38.
