data_PCOD9410683
_publ_section_title
;
Structure prediction by ZEFSAII (Michael W. Deem and Ramdas Pophale) SiO2 
 PCOD9410683
Probable space group: P N N A
;
_chemical_formula_sum "Si O2"
_cell_formula_units_Z 40
_cell_length_a 21.409131
_cell_length_b 9.623758
_cell_length_c 8.355896
_cell_angle_alpha 90.000000
_cell_angle_beta 90.000000
_cell_angle_gamma 90.000000
_cell_volume 1721.617859
_symmetry_space_group_name_H-M "P N N A"
_symmetry_group_IT_number 52
_symmetry_cell_setting 'orthorhombic'
loop_
_space_group_symop_operation_xyz
x,y,z
1/2-x,-y,z
x,1/2-y,1/2-z
1/2-x,1/2+y,1/2-z
-x,-y,-z
1/2+x,y,-z
-x,1/2+y,1/2+z
1/2+x,1/2-y,1/2+z
loop_
_atom_site_type_symbol
_atom_site_label
_atom_site_fract_x
_atom_site_fract_y
_atom_site_fract_z
Si Si1 0.296382 0.881969 0.845865
Si Si2 0.609790 0.903865 0.326718
Si Si3 0.980920 0.893951 0.173221
Si Si4 0.121824 0.890112 0.293392
Si Si5 0.890687 0.646165 0.611797
O O1 0.268215 0.750000 0.750000
O O2 0.250000 0.000000 0.912468
O O3 0.340032 0.983204 0.736976
O O4 0.340058 0.811701 0.979553
O O5 0.616410 0.750000 0.250000
O O6 0.612752 0.897027 0.517789
O O7 0.545333 0.974336 0.269440
O O8 0.955794 0.750000 0.250000
O O9 0.054629 0.883108 0.202108
O O10 0.951120 0.893467 0.996384
O O11 0.157576 0.750000 0.250000
O O12 0.145938 0.027474 0.211001
O O13 0.910912 0.750000 0.750000
#
# Coordination Sequence:
#
# PCOD9410683 Si02
#       5
#     8   8   8   8   8
#     4  11  24  45  68  91 119 159 205 255 318 380
#     4  11  22  40  63  89 123 165 209 256 308 368
#     4  10  21  37  57  88 127 170 211 250 303 363
#     4  11  22  36  57  91 128 164 208 255 303 361
#     4  11  22  40  63  91 126 164 205 258 315 372
#
# _framework density 23.233958999999999
#
# number of rings (size 3 to 8) (size 9 to 14) (size 15 to 20)
#    0.000    1.200    0.000    9.000    0.000    4.000 
#    0.000    7.000    0.000    0.000    0.000    0.000 
#    0.000    0.000    0.000    0.000    0.000    0.000 
#
# Total GULP energy -223204.778077 kJ/mol
# GULP energy per Si atom -5580.119452 kJ/mol
# Density = 2.318108 g / cm^3
# Si number density = 23.233959 Si / 1000 Ang^3
#
#
#
# Elastic Constant Matrix: (Units=GPa)
#
#
# Indices 1 2 3 4 5 6 
#
# 1 26.5150 -18.0053 -9.7597 0.0000 0.0000 0.0000
# 2 -18.0053 113.5389 32.5852 0.0000 0.0000 0.0000
# 3 -9.7597 32.5852 151.8370 0.0000 0.0000 0.0000
# 4 0.0000 0.0000 0.0000 50.8459 0.0000 0.0000
# 5 0.0000 0.0000 0.0000 0.0000 69.6908 0.0000
# 6 0.0000 0.0000 0.0000 0.0000 0.0000 12.3359
#
#
#
# Elastic Compliance Matrix: (Units=1/GPa)
#
#
# Indices 1 2 3 4 5 6 
#
# 1 0.042532 0.006351 0.001371 0.000000 0.000000 0.000000
# 2 0.006351 0.010334 -0.001810 0.000000 0.000000 0.000000
# 3 0.001371 -0.001810 0.007062 0.000000 0.000000 0.000000
# 4 0.000000 0.000000 0.000000 0.019667 0.000000 0.000000
# 5 0.000000 0.000000 0.000000 0.000000 0.014349 0.000000
# 6 0.000000 0.000000 0.000000 0.000000 0.000000 0.081064
#
#
# Mechanical properties :
#
#
# Convention : Reuss Voigt Hill
#
# Bulk Modulus (GPa) = 13.93650 33.50347 23.71998
# Shear Modulus (GPa) = 26.72341 45.71257 36.21799
#
# Velocity S-wave (km/s) = 3.39512 4.44045 3.95250
# Velocity P-wave (km/s) = 4.62390 6.38291 5.57324
#
# Compressibility (1/GPa) = 0.07175404
#
# Stress axis : x y z
#
# Youngs Moduli (GPa) = 23.51169 96.76699 141.59380
#
# Poissons Ratio (x) = -0.61461 -0.19410
# Poissons Ratio (y) = -0.14933 0.25622
# Poissons Ratio (z) = -0.03223 0.17510
#
# Static dielectric constant tensor:
#      x y z
#    x 1.947260 0.000000 0.000000 
#    y 0.000000 2.046780 0.000000 
#    z 0.000000 0.000000 1.824400 
# 
# From -- ./inp_files/15360.got.cif
#   From: 2010.05.17/outbox.cif.g08.bks.cpg/sg52_8_cif.got.tgz:15360.got - 2010.06.03 12:15:38.
