data_PCOD9410486
_publ_section_title
;
Structure prediction by ZEFSAII (Michael W. Deem and Ramdas Pophale) SiO2 
 PCOD9410486
Probable space group: P N N A
;
_chemical_formula_sum "Si O2"
_cell_formula_units_Z 52
_cell_length_a 20.227518
_cell_length_b 14.452360
_cell_length_c 9.015702
_cell_angle_alpha 90.000000
_cell_angle_beta 90.000000
_cell_angle_gamma 90.000000
_cell_volume 2635.608598
_symmetry_space_group_name_H-M "P N N A"
_symmetry_group_IT_number 52
_symmetry_cell_setting 'orthorhombic'
loop_
_space_group_symop_operation_xyz
x,y,z
1/2-x,-y,z
x,1/2-y,1/2-z
1/2-x,1/2+y,1/2-z
-x,-y,-z
1/2+x,y,-z
-x,1/2+y,1/2+z
1/2+x,1/2-y,1/2+z
loop_
_atom_site_type_symbol
_atom_site_label
_atom_site_fract_x
_atom_site_fract_y
_atom_site_fract_z
Si Si1 0.657986 0.420760 0.987142
Si Si2 0.370220 0.363025 0.038670
Si Si3 0.783231 0.250000 0.750000
Si Si4 0.250000 0.000000 0.937498
Si Si5 0.057701 0.250000 0.250000
Si Si6 0.728592 0.653351 0.198533
Si Si7 0.172988 0.133677 0.142276
Si Si8 0.486415 0.888362 0.491020
O O1 0.719703 0.392335 0.084683
O O2 0.644937 0.529472 0.985330
O O3 0.670733 0.396260 0.815162
O O4 0.588915 0.377861 0.046460
O O5 0.328686 0.325827 0.175373
O O6 0.338649 0.321540 0.888996
O O7 0.447734 0.347353 0.063817
O O8 0.734819 0.203361 0.869307
O O9 0.279188 0.080265 0.831557
O O10 0.192721 0.048310 0.037659
O O11 0.106053 0.194544 0.133910
O O12 0.018330 0.168365 0.334580
O O13 0.758626 0.750000 0.250000
O O14 0.500000 0.000000 0.500000
#
# Coordination Sequence:
#
# PCOD9410486 Si02
#       8
#     8   8   4   4   4   8   8   8
#     4  10  20  44  65  83 119 176 209 258 312 391
#     4  11  21  39  60  90 125 163 203 265 322 385
#     4  11  20  34  62  92 117 158 212 256 311 370
#     4  12  24  36  58 104 126 158 204 280 316 378
#     4   9  20  40  66  88 123 180 220 262 327 392
#     4  12  25  39  62  95 132 162 205 263 341 379
#     4  10  21  37  63  91 124 159 223 260 304 382
#     4   9  21  38  63  86 119 167 220 259 321 389
#
# _framework density 19.729790000000001
#
# number of rings (size 3 to 8) (size 9 to 14) (size 15 to 20)
#    0.000    1.538    3.077    1.846    5.385    0.000 
#    1.385    0.000    0.000    1.846    0.000    0.000 
#    0.000    0.000    0.000    0.000    0.000    0.000 
#
# Total GULP energy -289571.285947 kJ/mol
# GULP energy per Si atom -5568.678576 kJ/mol
# Density = 1.968488 g / cm^3
# Si number density = 19.729790 Si / 1000 Ang^3
#
#
#
# Elastic Constant Matrix: (Units=GPa)
#
#
# Indices 1 2 3 4 5 6 
#
# 1 96.7408 10.2200 8.2728 0.0000 0.0000 0.0000
# 2 10.2200 80.3558 27.5794 0.0000 0.0000 0.0000
# 3 8.2728 27.5794 48.7865 0.0000 0.0000 0.0000
# 4 0.0000 0.0000 0.0000 45.6959 0.0000 0.0000
# 5 0.0000 0.0000 0.0000 0.0000 8.0988 0.0000
# 6 0.0000 0.0000 0.0000 0.0000 0.0000 24.5547
#
#
#
# Elastic Compliance Matrix: (Units=1/GPa)
#
#
# Indices 1 2 3 4 5 6 
#
# 1 0.010541 -0.000902 -0.001277 0.000000 0.000000 0.000000
# 2 -0.000902 0.015518 -0.008619 0.000000 0.000000 0.000000
# 3 -0.001277 -0.008619 0.025587 0.000000 0.000000 0.000000
# 4 0.000000 0.000000 0.000000 0.021884 0.000000 0.000000
# 5 0.000000 0.000000 0.000000 0.000000 0.123475 0.000000
# 6 0.000000 0.000000 0.000000 0.000000 0.000000 0.040725
#
#
# Mechanical properties :
#
#
# Convention : Reuss Voigt Hill
#
# Bulk Modulus (GPa) = 33.28035 35.33640 34.30838
# Shear Modulus (GPa) = 18.56362 27.65727 23.11044
#
# Velocity S-wave (km/s) = 3.07073 3.74813 3.42621
# Velocity P-wave (km/s) = 5.42929 6.05643 5.75141
#
# Compressibility (1/GPa) = 0.03004776
#
# Stress axis : x y z
#
# Youngs Moduli (GPa) = 94.86350 64.44267 39.08293
#
# Poissons Ratio (x) = 0.05814 0.04993
# Poissons Ratio (y) = 0.08559 0.33687
# Poissons Ratio (z) = 0.12119 0.55545
#
# Static dielectric constant tensor:
#      x y z
#    x 1.714630 0.000000 0.000000 
#    y 0.000000 1.788360 0.000000 
#    z 0.000000 0.000000 1.793660 
# 
# From -- ./inp_files/13406.got.cif
#   From: 2010.05.17/outbox.cif.g08.bks.cpg/sg52_7_cif.got.tgz:13406.got - 2010.06.03 12:15:38.
