data_PCOD9410188
_publ_section_title
;
Structure prediction by ZEFSAII (Michael W. Deem and Ramdas Pophale) SiO2 
 PCOD9410188
Probable space group: P N N A
;
_chemical_formula_sum "Si O2"
_cell_formula_units_Z 36
_cell_length_a 27.623179
_cell_length_b 10.173979
_cell_length_c 5.346889
_cell_angle_alpha 90.000000
_cell_angle_beta 90.000000
_cell_angle_gamma 90.000000
_cell_volume 1502.677082
_symmetry_space_group_name_H-M "P N N A"
_symmetry_group_IT_number 52
_symmetry_cell_setting 'orthorhombic'
loop_
_space_group_symop_operation_xyz
x,y,z
1/2-x,-y,z
x,1/2-y,1/2-z
1/2-x,1/2+y,1/2-z
-x,-y,-z
1/2+x,y,-z
-x,1/2+y,1/2+z
1/2+x,1/2-y,1/2+z
loop_
_atom_site_type_symbol
_atom_site_label
_atom_site_fract_x
_atom_site_fract_y
_atom_site_fract_z
Si Si1 0.652863 0.750000 0.250000
Si Si2 0.250000 0.500000 0.513957
Si Si3 0.007173 0.250000 0.250000
Si Si4 0.785139 0.250000 0.750000
Si Si5 0.055870 0.750000 0.250000
Si Si6 0.092061 0.047323 0.298325
Si Si7 0.643191 0.033378 0.200286
O O1 0.683847 0.777678 0.500535
O O2 0.625000 0.882113 0.197175
O O3 0.244419 0.624389 0.334560
O O4 0.298666 0.522743 0.674315
O O5 0.041403 0.376783 0.206582
O O6 0.976305 0.268680 0.501208
O O7 0.084141 0.888596 0.293473
O O8 0.122702 0.087420 0.542878
O O9 0.121388 0.090805 0.051973
#
# Coordination Sequence:
#
# PCOD9410188 Si02
#       7
#     4   4   4   4   4   8   8
#     4  10  20  39  62  89 124 173 232 276 304 371
#     4  10  24  44  68  96 138 190 228 270 324 384
#     4  12  26  46  70 103 136 165 210 274 356 420
#     4  10  22  38  62  90 122 173 236 275 314 372
#     4  12  24  47  76  96 128 175 220 271 340 411
#     4  12  25  43  69 102 135 171 221 278 329 397
#     4  11  23  41  66  97 137 179 227 272 322 382
#
# _framework density 23.957242000000001
#
# number of rings (size 3 to 8) (size 9 to 14) (size 15 to 20)
#    0.000    0.889    0.000    8.000    0.000    9.778 
#    0.000    6.667    0.000    1.333    0.000    0.000 
#    0.000    0.000    0.000    0.000    0.000    0.000 
#
# Total GULP energy -201504.019134 kJ/mol
# GULP energy per Si atom -5597.333865 kJ/mol
# Density = 2.390271 g / cm^3
# Si number density = 23.957242 Si / 1000 Ang^3
#
#
#
# Elastic Constant Matrix: (Units=GPa)
#
#
# Indices 1 2 3 4 5 6 
#
# 1 127.6814 29.9287 105.3861 0.0000 0.0000 0.0000
# 2 29.9287 107.6351 34.1569 0.0000 0.0000 0.0000
# 3 105.3861 34.1569 264.1829 0.0000 0.0000 0.0000
# 4 0.0000 0.0000 0.0000 12.0978 0.0000 0.0000
# 5 0.0000 0.0000 0.0000 0.0000 50.8343 0.0000
# 6 0.0000 0.0000 0.0000 0.0000 0.0000 37.8238
#
#
#
# Elastic Compliance Matrix: (Units=1/GPa)
#
#
# Indices 1 2 3 4 5 6 
#
# 1 0.012039 -0.001901 -0.004556 0.000000 0.000000 0.000000
# 2 -0.001901 0.009988 -0.000533 0.000000 0.000000 0.000000
# 3 -0.004556 -0.000533 0.005672 0.000000 0.000000 0.000000
# 4 0.000000 0.000000 0.000000 0.082659 0.000000 0.000000
# 5 0.000000 0.000000 0.000000 0.000000 0.019672 0.000000
# 6 0.000000 0.000000 0.000000 0.000000 0.000000 0.026438
#
#
# Mechanical properties :
#
#
# Convention : Reuss Voigt Hill
#
# Bulk Modulus (GPa) = 72.90172 93.16034 83.03103
# Shear Modulus (GPa) = 28.56777 42.15303 35.36040
#
# Velocity S-wave (km/s) = 3.45693 4.19920 3.84602
# Velocity P-wave (km/s) = 6.81394 7.90453 7.37941
#
# Compressibility (1/GPa) = 0.01371710
#
# Stress axis : x y z
#
# Youngs Moduli (GPa) = 83.06646 100.11539 176.31063
#
# Poissons Ratio (x) = 0.19036 0.80336
# Poissons Ratio (y) = 0.15795 0.09396
# Poissons Ratio (z) = 0.37849 0.05335
#
# Static dielectric constant tensor:
#      x y z
#    x 1.899820 0.000000 0.000000 
#    y 0.000000 1.935440 0.000000 
#    z 0.000000 0.000000 1.895120 
# 
# From -- ./inp_files/4972.got.cif
#   From: 2010.05.17/outbox.cif.g08.bks.cpg/sg52_3_cif.got.tgz:4972.got - 2010.06.03 12:15:38.
