data_PCOD9410032
_publ_section_title
;
Structure prediction by ZEFSAII (Michael W. Deem and Ramdas Pophale) SiO2 
 PCOD9410032
Probable space group: P N N A
;
_chemical_formula_sum "Si O2"
_cell_formula_units_Z 40
_cell_length_a 10.301498
_cell_length_b 14.480420
_cell_length_c 12.403063
_cell_angle_alpha 90.000000
_cell_angle_beta 90.000000
_cell_angle_gamma 90.000000
_cell_volume 1850.165127
_symmetry_space_group_name_H-M "P N N A"
_symmetry_group_IT_number 52
_symmetry_cell_setting 'orthorhombic'
loop_
_space_group_symop_operation_xyz
x,y,z
1/2-x,-y,z
x,1/2-y,1/2-z
1/2-x,1/2+y,1/2-z
-x,-y,-z
1/2+x,y,-z
-x,1/2+y,1/2+z
1/2+x,1/2-y,1/2+z
loop_
_atom_site_type_symbol
_atom_site_label
_atom_site_fract_x
_atom_site_fract_y
_atom_site_fract_z
Si Si1 0.750000 0.500000 0.496978
Si Si2 0.343897 0.857060 0.167490
Si Si3 0.508117 0.680904 0.959502
Si Si4 0.118262 0.840253 0.881035
Si Si5 0.646357 0.250000 0.250000
Si Si6 0.725045 0.147186 0.605991
O O1 0.674546 0.427274 0.570918
O O2 0.849543 0.439823 0.428551
O O3 0.495150 0.845781 0.197277
O O4 0.278067 0.892950 0.275051
O O5 0.285244 0.758686 0.130228
O O6 0.446146 0.705402 0.842402
O O7 0.638938 0.623262 0.946705
O O8 0.561420 0.771101 0.026370
O O9 0.396982 0.632181 0.029281
O O10 0.250236 0.808254 0.822404
#
# Coordination Sequence:
#
# PCOD9410032 Si02
#       6
#     4   8   8   8   4   8
#     4  12  22  40  62  96 136 170 204 268 332 396
#     4  10  21  36  61  85 133 164 205 265 332 376
#     4  11  20  37  62  93 121 164 219 267 315 378
#     4  11  22  40  58 100 130 167 212 271 319 388
#     4  12  22  36  68  92 132 174 214 270 324 376
#     4  10  20  38  60  92 122 163 221 269 312 384
#
# _framework density 21.619692000000001
#
# number of rings (size 3 to 8) (size 9 to 14) (size 15 to 20)
#    0.000    1.200    4.000    5.400    0.000    0.000 
#    0.000    0.000    0.000    2.400    0.000    0.000 
#    0.000    0.000    0.000    0.000    0.000    0.000 
#
# Total GULP energy -223183.229344 kJ/mol
# GULP energy per Si atom -5579.580734 kJ/mol
# Density = 2.157048 g / cm^3
# Si number density = 21.619692 Si / 1000 Ang^3
#
#
#
# Elastic Constant Matrix: (Units=GPa)
#
#
# Indices 1 2 3 4 5 6 
#
# 1 123.8373 3.1836 13.7094 0.0000 0.0000 0.0000
# 2 3.1836 56.3871 14.0349 0.0000 0.0000 0.0000
# 3 13.7094 14.0349 71.0307 0.0000 0.0000 0.0000
# 4 0.0000 0.0000 0.0000 24.2749 0.0000 0.0000
# 5 0.0000 0.0000 0.0000 0.0000 0.4579 0.0000
# 6 0.0000 0.0000 0.0000 0.0000 0.0000 7.7589
#
#
#
# Elastic Compliance Matrix: (Units=1/GPa)
#
#
# Indices 1 2 3 4 5 6 
#
# 1 0.008252 -0.000073 -0.001578 0.000000 0.000000 0.000000
# 2 -0.000073 0.018653 -0.003671 0.000000 0.000000 0.000000
# 3 -0.001578 -0.003671 0.015108 0.000000 0.000000 0.000000
# 4 0.000000 0.000000 0.000000 0.041195 0.000000 0.000000
# 5 0.000000 0.000000 0.000000 0.000000 2.183876 0.000000
# 6 0.000000 0.000000 0.000000 0.000000 0.000000 0.128885
#
#
# Mechanical properties :
#
#
# Convention : Reuss Voigt Hill
#
# Bulk Modulus (GPa) = 31.88035 34.79010 33.33522
# Shear Modulus (GPa) = 2.06862 21.18679 11.62771
#
# Velocity S-wave (km/s) = 0.97923 3.13385 2.32163
# Velocity P-wave (km/s) = 4.00706 5.40569 4.75805
#
# Compressibility (1/GPa) = 0.03136728
#
# Stress axis : x y z
#
# Youngs Moduli (GPa) = 121.18705 53.61206 66.18807
#
# Poissons Ratio (x) = 0.00392 0.10446
# Poissons Ratio (y) = 0.00886 0.24300
# Poissons Ratio (z) = 0.19126 0.19683
#
# Static dielectric constant tensor:
#      x y z
#    x 1.829420 0.000000 0.000000 
#    y 0.000000 1.794160 0.000000 
#    z 0.000000 0.000000 1.818200 
# 
# From -- ./inp_files/16694.got.cif
#   From: 2010.05.17/outbox.cif.g08.bks.cpg/sg52_9_cif.got.tgz:16694.got - 2010.06.03 12:15:38.
