data_PCOD9410223
_publ_section_title
;
Structure prediction by ZEFSAII (Michael W. Deem and Ramdas Pophale) SiO2 
 PCOD9410223
Probable space group: P N N A
;
_chemical_formula_sum "Si O2"
_cell_formula_units_Z 48
_cell_length_a 10.178998
_cell_length_b 22.549100
_cell_length_c 8.049977
_cell_angle_alpha 90.000000
_cell_angle_beta 90.000000
_cell_angle_gamma 90.000000
_cell_volume 1847.689033
_symmetry_space_group_name_H-M "P N N A"
_symmetry_group_IT_number 52
_symmetry_cell_setting 'orthorhombic'
loop_
_space_group_symop_operation_xyz
x,y,z
1/2-x,-y,z
x,1/2-y,1/2-z
1/2-x,1/2+y,1/2-z
-x,-y,-z
1/2+x,y,-z
-x,1/2+y,1/2+z
1/2+x,1/2-y,1/2+z
loop_
_atom_site_type_symbol
_atom_site_label
_atom_site_fract_x
_atom_site_fract_y
_atom_site_fract_z
Si Si1 0.438349 0.951407 0.279776
Si Si2 0.144553 0.577656 0.239982
Si Si3 0.830070 0.362579 0.200450
Si Si4 0.880481 0.296228 0.879400
Si Si5 0.969085 0.788513 0.908154
Si Si6 0.678814 0.402220 0.477852
O O1 0.292915 0.928598 0.339507
O O2 0.556202 0.910718 0.344132
O O3 0.440522 0.021328 0.310435
O O4 0.424369 0.942261 0.079008
O O5 0.187707 0.576487 0.432635
O O6 0.899174 0.322949 0.345161
O O7 0.709329 0.396950 0.284569
O O8 0.805067 0.319542 0.044557
O O9 0.820145 0.250000 0.750000
O O10 0.913321 0.357934 0.791089
O O11 0.000594 0.257983 0.948740
O O12 0.935055 0.750000 0.750000
O O13 0.864426 0.837221 0.960050
#
# Coordination Sequence:
#
# PCOD9410223 Si02
#       6
#     8   8   8   8   8   8
#     4   8  19  40  66  94 127 170 224 282 352 406
#     4   9  19  40  66  88 133 174 215 277 353 403
#     4  10  20  39  65  93 127 170 223 278 331 400
#     4  11  23  40  59  93 130 178 227 267 336 409
#     4   9  20  38  57  91 131 164 218 270 324 397
#     4   9  18  37  65  86 121 170 212 276 335 394
#
# _framework density 25.978397000000001
#
# number of rings (size 3 to 8) (size 9 to 14) (size 15 to 20)
#    1.000    1.667    0.000    1.000    0.000    3.333 
#    3.000    0.833    7.333    0.000    0.000    0.000 
#    0.000    0.000    0.000    0.000    0.000    0.000 
#
# Total GULP energy -267840.601007 kJ/mol
# GULP energy per Si atom -5580.012521 kJ/mol
# Density = 2.591927 g / cm^3
# Si number density = 25.978397 Si / 1000 Ang^3
#
#
#
# Elastic Constant Matrix: (Units=GPa)
#
#
# Indices 1 2 3 4 5 6 
#
# 1 48.2903 26.5994 13.5744 0.0000 0.0000 0.0000
# 2 26.5994 190.7694 23.6776 0.0000 0.0000 0.0000
# 3 13.5744 23.6776 87.6226 0.0000 0.0000 0.0000
# 4 0.0000 0.0000 0.0000 43.0801 0.0000 0.0000
# 5 0.0000 0.0000 0.0000 0.0000 -5.7087 0.0000
# 6 0.0000 0.0000 0.0000 0.0000 0.0000 45.5038
#
#
#
# Elastic Compliance Matrix: (Units=1/GPa)
#
#
# Indices 1 2 3 4 5 6 
#
# 1 0.023076 -0.002870 -0.002799 0.000000 0.000000 0.000000
# 2 -0.002870 0.005781 -0.001117 0.000000 0.000000 0.000000
# 3 -0.002799 -0.001117 0.012148 0.000000 0.000000 0.000000
# 4 0.000000 0.000000 0.000000 0.023213 0.000000 0.000000
# 5 0.000000 0.000000 0.000000 0.000000 -0.175172 0.000000
# 6 0.000000 0.000000 0.000000 0.000000 0.000000 0.021976
#
#
# Mechanical properties :
#
#
# Convention : Reuss Voigt Hill
#
# Bulk Modulus (GPa) = 36.45493 50.48723 43.47108
# Shear Modulus (GPa) = -75.45972 34.09711 -20.68131
#
# Velocity S-wave (km/s) = -5.39538 3.62680 -2.82458
# Velocity P-wave (km/s) = 4.97497 6.08397 2.47633
#
# Compressibility (1/GPa) = 0.02743113
#
# Stress axis : x y z
#
# Youngs Moduli (GPa) = 43.33528 172.98616 82.31661
#
# Poissons Ratio (x) = 0.49648 0.23043
# Poissons Ratio (y) = 0.12438 0.09199
# Poissons Ratio (z) = 0.12131 0.19331
#
# Static dielectric constant tensor:
#      x y z
#    x 2.069790 0.000000 0.000000 
#    y 0.000000 1.951480 0.000000 
#    z 0.000000 0.000000 2.135670 
# 
# From -- ./inp_files/8945.got.cif
#   From: 2010.05.17/outbox.cif.g08.bks.cpg/sg52_5_cif.got.tgz:8945.got - 2010.06.03 12:15:38.
