data_PCOD9410173
_publ_section_title
;
Structure prediction by ZEFSAII (Michael W. Deem and Ramdas Pophale) SiO2 
 PCOD9410173
Probable space group: P N N A
;
_chemical_formula_sum "Si O2"
_cell_formula_units_Z 60
_cell_length_a 10.695933
_cell_length_b 29.454397
_cell_length_c 9.657253
_cell_angle_alpha 90.000000
_cell_angle_beta 90.000000
_cell_angle_gamma 90.000000
_cell_volume 3042.442780
_symmetry_space_group_name_H-M "P N N A"
_symmetry_group_IT_number 52
_symmetry_cell_setting 'orthorhombic'
loop_
_space_group_symop_operation_xyz
x,y,z
1/2-x,-y,z
x,1/2-y,1/2-z
1/2-x,1/2+y,1/2-z
-x,-y,-z
1/2+x,y,-z
-x,1/2+y,1/2+z
1/2+x,1/2-y,1/2+z
loop_
_atom_site_type_symbol
_atom_site_label
_atom_site_fract_x
_atom_site_fract_y
_atom_site_fract_z
Si Si1 0.842286 0.815729 0.065130
Si Si2 0.436048 0.372633 0.347630
Si Si3 0.183079 0.750000 0.750000
Si Si4 0.760093 0.699887 0.735516
Si Si5 0.639689 0.609696 0.358074
Si Si6 0.995193 0.174305 0.361076
Si Si7 0.216178 0.552661 0.902745
Si Si8 0.014730 0.093721 0.563999
O O1 0.773376 0.778371 0.153587
O O2 0.758926 0.860199 0.097882
O O3 0.979164 0.829774 0.108979
O O4 0.836121 0.800132 0.908219
O O5 0.319826 0.345961 0.279704
O O6 0.416156 0.400376 0.490143
O O7 0.495524 0.402707 0.228019
O O8 0.097401 0.783374 0.657718
O O9 0.699276 0.750000 0.750000
O O10 0.864280 0.692282 0.851167
O O11 0.544697 0.640832 0.266720
O O12 0.682512 0.571141 0.251192
O O13 0.987925 0.143123 0.496499
O O14 0.250000 0.500000 0.900450
O O15 0.341082 0.578670 0.958500
O O16 0.092659 0.562445 0.995303
#
# Coordination Sequence:
#
# PCOD9410173 Si02
#       8
#     8   8   4   8   8   8   8   8
#     4  10  21  38  57  79 120 163 217 262 310 370
#     4  11  22  39  62  89 123 168 217 261 321 393
#     4  10  22  36  58  80 120 172 220 268 306 364
#     4  11  23  34  54  85 120 163 216 269 307 356
#     4   9  20  41  63  85 119 173 203 255 326 385
#     4  10  20  39  58  84 126 169 214 258 316 377
#     4  11  23  45  71 101 130 165 213 272 335 410
#     4  11  24  41  69  98 130 170 212 267 336 398
#
# _framework density 19.720996
#
# number of rings (size 3 to 8) (size 9 to 14) (size 15 to 20)
#    0.000    1.600    3.333    1.200    2.800    1.067 
#    0.000    1.333    0.000    0.000    0.000    0.000 
#    0.000    0.000    0.000    0.000    0.000    0.000 
#
# Total GULP energy -334586.477382 kJ/mol
# GULP energy per Si atom -5576.441290 kJ/mol
# Density = 1.967611 g / cm^3
# Si number density = 19.720996 Si / 1000 Ang^3
#
#
#
# Elastic Constant Matrix: (Units=GPa)
#
#
# Indices 1 2 3 4 5 6 
#
# 1 63.7461 3.6924 13.9069 0.0000 0.0000 0.0000
# 2 3.6924 58.2364 19.2201 0.0000 0.0000 0.0000
# 3 13.9069 19.2201 96.2063 0.0000 0.0000 0.0000
# 4 0.0000 0.0000 0.0000 18.4945 0.0000 0.0000
# 5 0.0000 0.0000 0.0000 0.0000 25.2755 0.0000
# 6 0.0000 0.0000 0.0000 0.0000 0.0000 13.0232
#
#
#
# Elastic Compliance Matrix: (Units=1/GPa)
#
#
# Indices 1 2 3 4 5 6 
#
# 1 0.016202 -0.000272 -0.002288 0.000000 0.000000 0.000000
# 2 -0.000272 0.018388 -0.003634 0.000000 0.000000 0.000000
# 3 -0.002288 -0.003634 0.011451 0.000000 0.000000 0.000000
# 4 0.000000 0.000000 0.000000 0.054070 0.000000 0.000000
# 5 0.000000 0.000000 0.000000 0.000000 0.039564 0.000000
# 6 0.000000 0.000000 0.000000 0.000000 0.000000 0.076786
#
#
# Mechanical properties :
#
#
# Convention : Reuss Voigt Hill
#
# Bulk Modulus (GPa) = 29.71510 32.42530 31.07020
# Shear Modulus (GPa) = 20.82751 23.44995 22.13873
#
# Velocity S-wave (km/s) = 3.25331 3.45205 3.35415
# Velocity P-wave (km/s) = 5.40486 5.68917 5.54883
#
# Compressibility (1/GPa) = 0.03365293
#
# Stress axis : x y z
#
# Youngs Moduli (GPa) = 61.72043 54.38311 87.32816
#
# Poissons Ratio (x) = 0.01481 0.19978
# Poissons Ratio (y) = 0.01680 0.31737
# Poissons Ratio (z) = 0.14120 0.19764
#
# Static dielectric constant tensor:
#      x y z
#    x 1.727770 0.000000 0.000000 
#    y 0.000000 1.667740 0.000000 
#    z 0.000000 0.000000 1.634280 
# 
# From -- ./inp_files/9098.got.cif
#   From: 2010.05.17/outbox.cif.g08.bks.cpg/sg52_5_cif.got.tgz:9098.got - 2010.06.03 12:15:38.
