data_PCOD9410907
_publ_section_title
;
Structure prediction by ZEFSAII (Michael W. Deem and Ramdas Pophale) SiO2 
 PCOD9410907
Probable space group: P N N A
;
_chemical_formula_sum "Si O2"
_cell_formula_units_Z 60
_cell_length_a 17.148907
_cell_length_b 12.888865
_cell_length_c 12.993974
_cell_angle_alpha 90.000000
_cell_angle_beta 90.000000
_cell_angle_gamma 90.000000
_cell_volume 2872.057387
_symmetry_space_group_name_H-M "P N N A"
_symmetry_group_IT_number 52
_symmetry_cell_setting 'orthorhombic'
loop_
_space_group_symop_operation_xyz
x,y,z
1/2-x,-y,z
x,1/2-y,1/2-z
1/2-x,1/2+y,1/2-z
-x,-y,-z
1/2+x,y,-z
-x,1/2+y,1/2+z
1/2+x,1/2-y,1/2+z
loop_
_atom_site_type_symbol
_atom_site_label
_atom_site_fract_x
_atom_site_fract_y
_atom_site_fract_z
Si Si1 0.767753 0.163919 0.671531
Si Si2 0.250000 0.000000 0.176147
Si Si3 0.448238 0.661655 0.998867
Si Si4 0.654304 0.302488 0.350498
Si Si5 0.079969 0.537333 0.127457
Si Si6 0.222512 0.831866 0.014309
Si Si7 0.551201 0.655758 0.457252
Si Si8 0.513101 0.452815 0.336884
O O1 0.801595 0.250000 0.750000
O O2 0.716594 0.087410 0.744436
O O3 0.837713 0.094642 0.630064
O O4 0.739788 0.236171 0.578654
O O5 0.206467 0.925741 0.094654
O O6 0.413623 0.573197 0.071661
O O7 0.389387 0.715208 0.918946
O O8 0.517934 0.606618 0.935579
O O9 0.489267 0.753693 0.062469
O O10 0.691308 0.250000 0.250000
O O11 0.716125 0.357984 0.425236
O O12 0.587806 0.381660 0.312317
O O13 0.044997 0.533301 0.242137
O O14 0.139187 0.803557 0.966696
O O15 0.542578 0.563858 0.376024
O O16 0.527815 0.605694 0.567572
#
# Coordination Sequence:
#
# PCOD9410907 Si02
#       8
#     8   4   8   8   8   8   8   8
#     4  10  22  37  66  95 119 167 206 256 327 388
#     4  10  22  38  60  92 126 152 206 260 320 380
#     4  10  23  39  63  90 122 155 213 262 312 362
#     4  11  23  41  63  91 126 175 210 258 314 389
#     4  11  21  39  64  91 118 159 205 270 312 365
#     4  11  22  41  62  89 133 169 207 258 318 389
#     4  10  21  41  63  93 120 171 208 256 308 382
#     4  10  21  38  69  92 120 160 220 257 315 375
#
# _framework density 20.890946
#
# number of rings (size 3 to 8) (size 9 to 14) (size 15 to 20)
#    0.000    1.600    2.667    2.400    3.733    2.667 
#    2.400    0.000    2.933    0.000    0.000    0.000 
#    0.000    0.000    0.000    0.000    0.000    0.000 
#
# Total GULP energy -334715.162968 kJ/mol
# GULP energy per Si atom -5578.586049 kJ/mol
# Density = 2.084340 g / cm^3
# Si number density = 20.890946 Si / 1000 Ang^3
#
#
#
# Elastic Constant Matrix: (Units=GPa)
#
#
# Indices 1 2 3 4 5 6 
#
# 1 42.8120 10.5180 14.6153 0.0000 0.0000 0.0000
# 2 10.5180 112.9252 28.6303 0.0000 0.0000 0.0000
# 3 14.6153 28.6303 56.9806 0.0000 0.0000 0.0000
# 4 0.0000 0.0000 0.0000 33.3458 0.0000 0.0000
# 5 0.0000 0.0000 0.0000 0.0000 24.6920 0.0000
# 6 0.0000 0.0000 0.0000 0.0000 0.0000 26.0211
#
#
#
# Elastic Compliance Matrix: (Units=1/GPa)
#
#
# Indices 1 2 3 4 5 6 
#
# 1 0.025667 -0.000827 -0.006168 0.000000 0.000000 0.000000
# 2 -0.000827 0.010175 -0.004900 0.000000 0.000000 0.000000
# 3 -0.006168 -0.004900 0.021594 0.000000 0.000000 0.000000
# 4 0.000000 0.000000 0.000000 0.029989 0.000000 0.000000
# 5 0.000000 0.000000 0.000000 0.000000 0.040499 0.000000
# 6 0.000000 0.000000 0.000000 0.000000 0.000000 0.038430
#
#
# Mechanical properties :
#
#
# Convention : Reuss Voigt Hill
#
# Bulk Modulus (GPa) = 29.72175 35.58277 32.65226
# Shear Modulus (GPa) = 24.83127 27.40874 26.12000
#
# Velocity S-wave (km/s) = 3.45137 3.62607 3.53980
# Velocity P-wave (km/s) = 5.49004 5.88224 5.68952
#
# Compressibility (1/GPa) = 0.03364539
#
# Stress axis : x y z
#
# Youngs Moduli (GPa) = 38.96093 98.28178 46.30899
#
# Poissons Ratio (x) = 0.08126 0.28563
# Poissons Ratio (y) = 0.03221 0.22693
# Poissons Ratio (z) = 0.24031 0.48161
#
# Static dielectric constant tensor:
#      x y z
#    x 1.733610 0.000000 0.000000 
#    y 0.000000 1.764280 0.000000 
#    z 0.000000 0.000000 1.739620 
# 
# From -- ./inp_files/28287.got.cif
#   From: 2010.05.17/outbox.cif.g08.bks.cpg/sg52_15_cif.got.tgz:28287.got - 2010.06.03 12:15:38.
