data_PCOD9410336
_publ_section_title
;
Structure prediction by ZEFSAII (Michael W. Deem and Ramdas Pophale) SiO2 
 PCOD9410336
Probable space group: P N N A
;
_chemical_formula_sum "Si O2"
_cell_formula_units_Z 60
_cell_length_a 27.841708
_cell_length_b 12.037664
_cell_length_c 9.331585
_cell_angle_alpha 90.000000
_cell_angle_beta 90.000000
_cell_angle_gamma 90.000000
_cell_volume 3127.472558
_symmetry_space_group_name_H-M "P N N A"
_symmetry_group_IT_number 52
_symmetry_cell_setting 'orthorhombic'
loop_
_space_group_symop_operation_xyz
x,y,z
1/2-x,-y,z
x,1/2-y,1/2-z
1/2-x,1/2+y,1/2-z
-x,-y,-z
1/2+x,y,-z
-x,1/2+y,1/2+z
1/2+x,1/2-y,1/2+z
loop_
_atom_site_type_symbol
_atom_site_label
_atom_site_fract_x
_atom_site_fract_y
_atom_site_fract_z
Si Si1 0.194732 0.530507 0.130853
Si Si2 0.850465 0.250000 0.750000
Si Si3 0.451646 0.937932 0.448351
Si Si4 0.884088 0.880195 0.783114
Si Si5 0.596311 0.462618 0.407198
Si Si6 0.983178 0.721891 0.411751
Si Si7 0.630031 0.554320 0.123333
Si Si8 0.413129 0.277597 0.535341
O O1 0.250000 0.500000 0.144433
O O2 0.181550 0.643174 0.214976
O O3 0.159652 0.437943 0.199145
O O4 0.179409 0.548261 0.964531
O O5 0.884653 0.267792 0.614115
O O6 0.435603 0.924206 0.282369
O O7 0.449370 0.817760 0.523586
O O8 0.500000 0.000000 0.500000
O O9 0.409761 0.010647 0.513617
O O10 0.883044 0.750000 0.750000
O O11 0.880035 0.912242 0.949816
O O12 0.546538 0.392810 0.399292
O O13 0.626241 0.470703 0.258650
O O14 0.589357 0.593576 0.425542
O O15 0.997956 0.750000 0.250000
O O16 0.030024 0.735955 0.510080
O O17 0.611562 0.682270 0.133195
#
# Coordination Sequence:
#
# PCOD9410336 Si02
#       8
#     8   4   8   8   8   8   8   8
#     4  10  23  44  72  95 120 164 211 266 335 402
#     4  10  20  40  68  94 126 160 210 266 328 378
#     4  11  22  39  58  82 127 173 216 253 310 374
#     4  11  24  42  64  95 131 165 214 280 324 381
#     4  12  24  40  59  95 129 168 219 262 316 378
#     4  12  23  35  59  87 131 178 219 254 312 376
#     4  10  23  41  64  87 127 170 207 261 324 385
#     4  11  22  39  60  90 129 175 215 264 308 372
#
# _framework density 19.184819000000001
#
# number of rings (size 3 to 8) (size 9 to 14) (size 15 to 20)
#    0.000    1.067    6.000    0.800    2.800    1.067 
#    2.400    0.667    0.000    3.200    0.000    0.000 
#    0.000    0.000    0.000    0.000    0.000    0.000 
#
# Total GULP energy -334279.553398 kJ/mol
# GULP energy per Si atom -5571.325890 kJ/mol
# Density = 1.914115 g / cm^3
# Si number density = 19.184819 Si / 1000 Ang^3
#
#
#
# Elastic Constant Matrix: (Units=GPa)
#
#
# Indices 1 2 3 4 5 6 
#
# 1 100.9532 47.0725 22.2149 0.0000 0.0000 0.0000
# 2 47.0725 128.1723 38.4239 0.0000 0.0000 0.0000
# 3 22.2149 38.4239 96.8323 0.0000 0.0000 0.0000
# 4 0.0000 0.0000 0.0000 28.8256 0.0000 0.0000
# 5 0.0000 0.0000 0.0000 0.0000 15.9939 0.0000
# 6 0.0000 0.0000 0.0000 0.0000 0.0000 29.7836
#
#
#
# Elastic Compliance Matrix: (Units=1/GPa)
#
#
# Indices 1 2 3 4 5 6 
#
# 1 0.012063 -0.004087 -0.001146 0.000000 0.000000 0.000000
# 2 -0.004087 0.010240 -0.003126 0.000000 0.000000 0.000000
# 3 -0.001146 -0.003126 0.011830 0.000000 0.000000 0.000000
# 4 0.000000 0.000000 0.000000 0.034691 0.000000 0.000000
# 5 0.000000 0.000000 0.000000 0.000000 0.062524 0.000000
# 6 0.000000 0.000000 0.000000 0.000000 0.000000 0.033576
#
#
# Mechanical properties :
#
#
# Convention : Reuss Voigt Hill
#
# Bulk Modulus (GPa) = 57.41578 60.15336 58.78457
# Shear Modulus (GPa) = 26.67422 29.47040 28.07231
#
# Velocity S-wave (km/s) = 3.73283 3.92360 3.82940
# Velocity P-wave (km/s) = 6.96932 7.20756 7.08944
#
# Compressibility (1/GPa) = 0.01741682
#
# Stress axis : x y z
#
# Youngs Moduli (GPa) = 82.89575 97.65645 84.52866
#
# Poissons Ratio (x) = 0.39911 0.09685
# Poissons Ratio (y) = 0.33879 0.26421
# Poissons Ratio (z) = 0.09498 0.30525
#
# Static dielectric constant tensor:
#      x y z
#    x 1.648410 0.000000 0.000000 
#    y 0.000000 1.724770 0.000000 
#    z 0.000000 0.000000 1.769220 
# 
# From -- ./inp_files/15066.got.cif
#   From: 2010.05.17/outbox.cif.g08.bks.cpg/sg52_8_cif.got.tgz:15066.got - 2010.06.03 12:15:38.
