data_PCOD9410324
_publ_section_title
;
Structure prediction by ZEFSAII (Michael W. Deem and Ramdas Pophale) SiO2 
 PCOD9410324
Probable space group: P N N A
;
_chemical_formula_sum "Si O2"
_cell_formula_units_Z 32
_cell_length_a 10.588709
_cell_length_b 5.071309
_cell_length_c 29.061234
_cell_angle_alpha 90.000000
_cell_angle_beta 90.000000
_cell_angle_gamma 90.000000
_cell_volume 1560.548023
_symmetry_space_group_name_H-M "P N N A"
_symmetry_group_IT_number 52
_symmetry_cell_setting 'orthorhombic'
loop_
_space_group_symop_operation_xyz
x,y,z
1/2-x,-y,z
x,1/2-y,1/2-z
1/2-x,1/2+y,1/2-z
-x,-y,-z
1/2+x,y,-z
-x,1/2+y,1/2+z
1/2+x,1/2-y,1/2+z
loop_
_atom_site_type_symbol
_atom_site_label
_atom_site_fract_x
_atom_site_fract_y
_atom_site_fract_z
Si Si1 0.625852 0.343946 0.983293
Si Si2 0.990968 0.936669 0.896544
Si Si3 0.750000 0.000000 0.062058
Si Si4 0.161277 0.750000 0.250000
Si Si5 0.899085 0.051597 0.653815
O O1 0.750000 0.500000 0.965825
O O2 0.582940 0.146534 0.943046
O O3 0.500000 0.500000 0.000000
O O4 0.680294 0.201956 0.028263
O O5 0.957155 0.730891 0.856843
O O6 0.137502 0.893474 0.907323
O O7 0.952870 0.229933 0.881246
O O8 0.250000 0.500000 0.262867
O O9 0.084340 0.840546 0.294604
O O10 0.750000 0.000000 0.648159
#
# Coordination Sequence:
#
# PCOD9410324 Si02
#       5
#     8   8   4   4   8
#     4  12  26  44  65  92 134 183 234 283 339 394
#     4  12  26  42  67  95 134 180 229 280 326 413
#     4  12  28  44  60  92 136 186 228 276 344 380
#     4  10  20  40  68 102 142 166 204 278 356 408
#     4  11  24  41  69 104 133 168 217 278 344 411
#
# _framework density 20.505616
#
# number of rings (size 3 to 8) (size 9 to 14) (size 15 to 20)
#    0.000    0.500    2.500    6.750    7.000    0.000 
#    0.000    0.000    0.000    3.000    0.000    1.750 
#    0.000    0.000    0.000    0.000    0.000    0.000 
#
# Total GULP energy -179038.991923 kJ/mol
# GULP energy per Si atom -5594.968498 kJ/mol
# Density = 2.045894 g / cm^3
# Si number density = 20.505616 Si / 1000 Ang^3
#
#
#
# Elastic Constant Matrix: (Units=GPa)
#
#
# Indices 1 2 3 4 5 6 
#
# 1 138.9400 17.3711 24.7554 0.0000 0.0000 0.0000
# 2 17.3711 55.6829 -14.9452 0.0000 0.0000 0.0000
# 3 24.7554 -14.9452 63.9720 0.0000 0.0000 0.0000
# 4 0.0000 0.0000 0.0000 39.2803 0.0000 0.0000
# 5 0.0000 0.0000 0.0000 0.0000 2933.4979 0.0000
# 6 0.0000 0.0000 0.0000 0.0000 0.0000 43.0179
#
#
#
# Elastic Compliance Matrix: (Units=1/GPa)
#
#
# Indices 1 2 3 4 5 6 
#
# 1 0.008397 -0.003725 -0.004120 0.000000 0.000000 0.000000
# 2 -0.003725 0.020813 0.006304 0.000000 0.000000 0.000000
# 3 -0.004120 0.006304 0.018699 0.000000 0.000000 0.000000
# 4 0.000000 0.000000 0.000000 0.025458 0.000000 0.000000
# 5 0.000000 0.000000 0.000000 0.000000 0.000341 0.000000
# 6 0.000000 0.000000 0.000000 0.000000 0.000000 0.023246
#
#
# Mechanical properties :
#
#
# Convention : Reuss Voigt Hill
#
# Bulk Modulus (GPa) = 22.30819 34.77305 28.54062
# Shear Modulus (GPa) = 43.48635 618.58680 331.03657
#
# Velocity S-wave (km/s) = 4.61011 17.38741 12.71957
# Velocity P-wave (km/s) = 6.26419 20.49611 15.15471
#
# Compressibility (1/GPa) = 0.04482659
#
# Stress axis : x y z
#
# Youngs Moduli (GPa) = 119.08799 48.04695 53.47928
#
# Poissons Ratio (x) = 0.17899 0.22032
# Poissons Ratio (y) = 0.44365 -0.33713
# Poissons Ratio (z) = 0.49062 -0.30289
#
# Static dielectric constant tensor:
#      x y z
#    x 1.761240 0.000000 0.000000 
#    y 0.000000 1.786550 0.000000 
#    z 0.000000 0.000000 1.771730 
# 
# From -- ./inp_files/44157.got.cif
#   From: 2010.05.17/outbox.cif.g08.bks.cpg/sg52_23_cif.got.tgz:44157.got - 2010.06.03 12:15:38.
