data_PCOD9410852
_publ_section_title
;
Structure prediction by ZEFSAII (Michael W. Deem and Ramdas Pophale) SiO2 
 PCOD9410852
Probable space group: P N N A
;
_chemical_formula_sum "Si O2"
_cell_formula_units_Z 48
_cell_length_a 11.097989
_cell_length_b 14.413366
_cell_length_c 11.671559
_cell_angle_alpha 90.000000
_cell_angle_beta 90.000000
_cell_angle_gamma 90.000000
_cell_volume 1866.975310
_symmetry_space_group_name_H-M "P N N A"
_symmetry_group_IT_number 52
_symmetry_cell_setting 'orthorhombic'
loop_
_space_group_symop_operation_xyz
x,y,z
1/2-x,-y,z
x,1/2-y,1/2-z
1/2-x,1/2+y,1/2-z
-x,-y,-z
1/2+x,y,-z
-x,1/2+y,1/2+z
1/2+x,1/2-y,1/2+z
loop_
_atom_site_type_symbol
_atom_site_label
_atom_site_fract_x
_atom_site_fract_y
_atom_site_fract_z
Si Si1 0.892977 0.400582 0.979509
Si Si2 0.736536 0.396210 0.546014
Si Si3 0.115090 0.488171 0.807672
Si Si4 0.937022 0.848216 0.746423
Si Si5 0.347848 0.799581 0.494653
Si Si6 0.571974 0.640706 0.731716
O O1 0.773836 0.352281 0.032739
O O2 0.873965 0.414421 0.843255
O O3 0.896419 0.495778 0.053558
O O4 0.012925 0.332748 0.981305
O O5 0.750000 0.500000 0.497185
O O6 0.641919 0.389425 0.651324
O O7 0.686164 0.307151 0.477154
O O8 0.863654 0.378384 0.611388
O O9 0.250000 0.500000 0.773724
O O10 0.034507 0.574336 0.772426
O O11 0.062636 0.397421 0.747154
O O12 0.006038 0.750000 0.750000
O O13 0.848828 0.819364 0.642361
O O14 0.581108 0.750000 0.750000
#
# Coordination Sequence:
#
# PCOD9410852 Si02
#       6
#     8   8   8   8   8   8
#     4  11  22  40  62  94 137 170 214 277 334 400
#     4  11  19  37  68  92 117 167 234 273 308 398
#     4  11  24  37  56  98 137 172 209 269 351 398
#     4   9  18  36  61  88 123 172 221 269 313 401
#     4  10  21  38  63  94 128 172 218 270 344 391
#     4  12  22  39  66  92 126 172 226 267 325 400
#
# _framework density 25.710034
#
# number of rings (size 3 to 8) (size 9 to 14) (size 15 to 20)
#    0.000    1.333    5.000    2.000    0.000    2.667 
#    0.000    2.500    0.000    0.000    0.000    0.000 
#    0.000    0.000    0.000    0.000    0.000    0.000 
#
# Total GULP energy -267507.109997 kJ/mol
# GULP energy per Si atom -5573.064792 kJ/mol
# Density = 2.565152 g / cm^3
# Si number density = 25.710034 Si / 1000 Ang^3
#
#
#
# Elastic Constant Matrix: (Units=GPa)
#
#
# Indices 1 2 3 4 5 6 
#
# 1 147.8243 62.1219 9.5965 0.0000 0.0000 0.0000
# 2 62.1219 140.2697 16.5043 0.0000 0.0000 0.0000
# 3 9.5965 16.5043 44.3587 0.0000 0.0000 0.0000
# 4 0.0000 0.0000 0.0000 16.8388 0.0000 0.0000
# 5 0.0000 0.0000 0.0000 0.0000 -1.5502 0.0000
# 6 0.0000 0.0000 0.0000 0.0000 0.0000 32.9280
#
#
#
# Elastic Compliance Matrix: (Units=1/GPa)
#
#
# Indices 1 2 3 4 5 6 
#
# 1 0.008320 -0.003632 -0.000449 0.000000 0.000000 0.000000
# 2 -0.003632 0.009041 -0.002578 0.000000 0.000000 0.000000
# 3 -0.000449 -0.002578 0.023600 0.000000 0.000000 0.000000
# 4 0.000000 0.000000 0.000000 0.059387 0.000000 0.000000
# 5 0.000000 0.000000 0.000000 0.000000 -0.645097 0.000000
# 6 0.000000 0.000000 0.000000 0.000000 0.000000 0.030369
#
#
# Mechanical properties :
#
#
# Convention : Reuss Voigt Hill
#
# Bulk Modulus (GPa) = 36.17487 56.54424 46.35955
# Shear Modulus (GPa) = -10.16573 25.92534 7.87981
#
# Velocity S-wave (km/s) = -1.99062 3.17894 1.75258
# Velocity P-wave (km/s) = 2.96942 5.95945 4.70810
#
# Compressibility (1/GPa) = 0.02764350
#
# Stress axis : x y z
#
# Youngs Moduli (GPa) = 120.18871 110.60719 42.37327
#
# Poissons Ratio (x) = 0.40173 0.01901
# Poissons Ratio (y) = 0.43653 0.10924
# Poissons Ratio (z) = 0.05392 0.28515
#
# Static dielectric constant tensor:
#      x y z
#    x 2.151810 0.000000 0.000000 
#    y 0.000000 2.136630 0.000000 
#    z 0.000000 0.000000 2.214500 
# 
# From -- ./inp_files/26062.got.cif
#   From: 2010.05.17/outbox.cif.g08.bks.cpg/sg52_14_cif.got.tgz:26062.got - 2010.06.03 12:15:38.
