data_PCOD9410856
_publ_section_title
;
Structure prediction by ZEFSAII (Michael W. Deem and Ramdas Pophale) SiO2 
 PCOD9410856
Probable space group: P N N A
;
_chemical_formula_sum "Si O2"
_cell_formula_units_Z 56
_cell_length_a 14.678021
_cell_length_b 32.182415
_cell_length_c 5.211319
_cell_angle_alpha 90.000000
_cell_angle_beta 90.000000
_cell_angle_gamma 90.000000
_cell_volume 2461.692452
_symmetry_space_group_name_H-M "P N N A"
_symmetry_group_IT_number 52
_symmetry_cell_setting 'orthorhombic'
loop_
_space_group_symop_operation_xyz
x,y,z
1/2-x,-y,z
x,1/2-y,1/2-z
1/2-x,1/2+y,1/2-z
-x,-y,-z
1/2+x,y,-z
-x,1/2+y,1/2+z
1/2+x,1/2-y,1/2+z
loop_
_atom_site_type_symbol
_atom_site_label
_atom_site_fract_x
_atom_site_fract_y
_atom_site_fract_z
Si Si1 0.393281 0.793679 0.294677
Si Si2 0.103894 0.380803 0.230063
Si Si3 0.953485 0.070743 0.499595
Si Si4 0.310045 0.940919 0.913368
Si Si5 0.380264 0.469162 0.480253
Si Si6 0.730696 0.205350 0.205602
Si Si7 0.284909 0.377952 0.950978
O O1 0.443443 0.750000 0.250000
O O2 0.445833 0.836778 0.247921
O O3 0.351001 0.794509 0.581148
O O4 0.314120 0.793336 0.075629
O O5 0.119103 0.407619 0.480935
O O6 0.053373 0.410260 0.028590
O O7 0.207019 0.368921 0.156597
O O8 0.937388 0.036648 0.719805
O O9 0.883058 0.108620 0.551205
O O10 0.927815 0.054553 0.215250
O O11 0.220064 0.950649 0.086673
O O12 0.359992 0.984961 0.911855
O O13 0.258250 0.919329 0.679274
O O14 0.779218 0.250000 0.250000
O O15 0.784141 0.162466 0.265216
#
# Coordination Sequence:
#
# PCOD9410856 Si02
#       7
#     8   8   8   8   8   8   8
#     4   9  18  33  55  86 114 147 191 234 283 349
#     4  11  22  37  63  85 115 158 194 233 297 346
#     4  11  25  39  58  87 118 151 197 247 282 346
#     4  10  21  38  64  79 116 160 194 237 301 345
#     4  10  24  41  57  85 119 152 196 247 291 339
#     4   9  17  31  57  84 111 148 189 232 286 346
#     4  10  21  40  59  86 119 153 196 240 294 350
#
# _framework density 22.748577000000001
#
# number of rings (size 3 to 8) (size 9 to 14) (size 15 to 20)
#    0.000    2.000    2.857    0.000    4.000    2.286 
#    0.000    0.714    0.000    0.000    0.000   13.000 
#    0.000    0.000    0.000    0.000    0.000    0.000 
#
# Total GULP energy -312061.616525 kJ/mol
# GULP energy per Si atom -5572.528867 kJ/mol
# Density = 2.269680 g / cm^3
# Si number density = 22.748577 Si / 1000 Ang^3
#
#
#
# Elastic Constant Matrix: (Units=GPa)
#
#
# Indices 1 2 3 4 5 6 
#
# 1 56.7628 -5.4469 8.0055 0.0000 0.0000 0.0000
# 2 -5.4469 102.8578 9.2492 0.0000 0.0000 0.0000
# 3 8.0055 9.2492 84.6719 0.0000 0.0000 0.0000
# 4 0.0000 0.0000 0.0000 31.2453 0.0000 0.0000
# 5 0.0000 0.0000 0.0000 0.0000 -328.3378 0.0000
# 6 0.0000 0.0000 0.0000 0.0000 0.0000 -0.5367
#
#
#
# Elastic Compliance Matrix: (Units=1/GPa)
#
#
# Indices 1 2 3 4 5 6 
#
# 1 0.017981 0.001116 -0.001822 0.000000 0.000000 0.000000
# 2 0.001116 0.009888 -0.001186 0.000000 0.000000 0.000000
# 3 -0.001822 -0.001186 0.012112 0.000000 0.000000 0.000000
# 4 0.000000 0.000000 0.000000 0.032005 0.000000 0.000000
# 5 0.000000 0.000000 0.000000 0.000000 -0.003046 0.000000
# 6 0.000000 0.000000 0.000000 0.000000 0.000000 -1.863284
#
#
# Mechanical properties :
#
#
# Convention : Reuss Voigt Hill
#
# Bulk Modulus (GPa) = 27.62584 29.76759 28.69671
# Shear Modulus (GPa) = -2.81137 -44.02686 -23.41911
#
# Velocity S-wave (km/s) = -1.11289 -4.40405 -3.21203
# Velocity P-wave (km/s) = 3.24330 3.57030 1.05548
#
# Compressibility (1/GPa) = 0.03619800
#
# Stress axis : x y z
#
# Youngs Moduli (GPa) = 55.61357 101.13399 82.56228
#
# Poissons Ratio (x) = -0.11287 0.15043
# Poissons Ratio (y) = -0.06207 0.09789
# Poissons Ratio (z) = 0.10133 0.11991
#
# Static dielectric constant tensor:
#      x y z
#    x 1.854720 0.000000 0.000000 
#    y 0.000000 2.087290 0.000000 
#    z 0.000000 0.000000 1.865220 
# 
# From -- ./inp_files/2644.got.cif
#   From: 2010.05.17/outbox.cif.g08.bks.cpg/sg52_2_cif.got.tgz:2644.got - 2010.06.03 12:15:38.
