data_PCOD9410192
_publ_section_title
;
Structure prediction by ZEFSAII (Michael W. Deem and Ramdas Pophale) SiO2 
 PCOD9410192
Probable space group: P N N A
;
_chemical_formula_sum "Si O2"
_cell_formula_units_Z 64
_cell_length_a 9.597959
_cell_length_b 22.966441
_cell_length_c 14.304724
_cell_angle_alpha 90.000000
_cell_angle_beta 90.000000
_cell_angle_gamma 90.000000
_cell_volume 3153.204031
_symmetry_space_group_name_H-M "P N N A"
_symmetry_group_IT_number 52
_symmetry_cell_setting 'orthorhombic'
loop_
_space_group_symop_operation_xyz
x,y,z
1/2-x,-y,z
x,1/2-y,1/2-z
1/2-x,1/2+y,1/2-z
-x,-y,-z
1/2+x,y,-z
-x,1/2+y,1/2+z
1/2+x,1/2-y,1/2+z
loop_
_atom_site_type_symbol
_atom_site_label
_atom_site_fract_x
_atom_site_fract_y
_atom_site_fract_z
Si Si1 0.020623 0.144367 0.816075
Si Si2 0.590471 0.983843 0.788541
Si Si3 0.106301 0.969459 0.430591
Si Si4 0.676998 0.716912 0.559222
Si Si5 0.397064 0.032269 0.929242
Si Si6 0.115308 0.316753 0.284961
Si Si7 0.840864 0.344178 0.860506
Si Si8 0.667723 0.845576 0.123912
O O1 0.953301 0.080014 0.825782
O O2 0.959093 0.187996 0.893365
O O3 0.965726 0.164570 0.714441
O O4 0.186154 0.141824 0.826150
O O5 0.574512 0.983640 0.677569
O O6 0.750000 0.000000 0.813032
O O7 0.480478 0.027703 0.832491
O O8 0.126591 0.899457 0.425618
O O9 0.250000 0.000000 0.454078
O O10 0.000000 0.000000 0.500000
O O11 0.801743 0.684916 0.616330
O O12 0.680820 0.784913 0.583704
O O13 0.681843 0.706997 0.449100
O O14 0.368217 0.099825 0.943355
O O15 0.250000 0.000000 0.926907
O O16 0.500000 0.000000 0.000000
O O17 0.117696 0.250000 0.250000
O O18 0.205587 0.352709 0.208280
O O19 0.958822 0.335818 0.305090
#
# Coordination Sequence:
#
# PCOD9410192 Si02
#       8
#     8   8   8   8   8   8   8   8
#     4  10  20  39  62  94 125 168 219 266 327 381
#     4  10  22  42  67  91 128 180 218 264 333 388
#     4  10  23  45  70  97 125 164 218 271 327 388
#     4  10  21  40  63  88 125 172 208 261 324 392
#     4  12  26  40  59  97 137 177 219 266 326 398
#     4   9  21  40  63  89 125 168 218 255 325 401
#     4   9  21  45  69  87 124 175 210 258 332 397
#     4  12  24  36  62  98 131 160 217 278 315 383
#
# _framework density 20.296817000000001
#
# number of rings (size 3 to 8) (size 9 to 14) (size 15 to 20)
#    0.000    1.750    1.250    3.000    8.750    1.500 
#    6.750    0.000    0.000    0.000    0.000    0.000 
#    0.000    0.000    0.000    0.000    0.000    0.000 
#
# Total GULP energy -357430.469479 kJ/mol
# GULP energy per Si atom -5584.851086 kJ/mol
# Density = 2.025062 g / cm^3
# Si number density = 20.296817 Si / 1000 Ang^3
#
#
#
# Elastic Constant Matrix: (Units=GPa)
#
#
# Indices 1 2 3 4 5 6 
#
# 1 164.8034 46.0399 58.4312 0.0000 0.0000 0.0000
# 2 46.0399 83.3315 41.3178 0.0000 0.0000 0.0000
# 3 58.4312 41.3178 57.2641 0.0000 0.0000 0.0000
# 4 0.0000 0.0000 0.0000 27.3554 0.0000 0.0000
# 5 0.0000 0.0000 0.0000 0.0000 10.2062 0.0000
# 6 0.0000 0.0000 0.0000 0.0000 0.0000 25.3757
#
#
#
# Elastic Compliance Matrix: (Units=1/GPa)
#
#
# Indices 1 2 3 4 5 6 
#
# 1 0.009533 -0.000691 -0.009229 0.000000 0.000000 0.000000
# 2 -0.000691 0.018735 -0.012813 0.000000 0.000000 0.000000
# 3 -0.009229 -0.012813 0.036124 0.000000 0.000000 0.000000
# 4 0.000000 0.000000 0.000000 0.036556 0.000000 0.000000
# 5 0.000000 0.000000 0.000000 0.000000 0.097980 0.000000
# 6 0.000000 0.000000 0.000000 0.000000 0.000000 0.039408
#
#
# Mechanical properties :
#
#
# Convention : Reuss Voigt Hill
#
# Bulk Modulus (GPa) = 52.83301 66.33076 59.58188
# Shear Modulus (GPa) = 17.23486 23.22810 20.23148
#
# Velocity S-wave (km/s) = 2.91716 3.38660 3.16061
# Velocity P-wave (km/s) = 6.11827 6.93133 6.53745
#
# Compressibility (1/GPa) = 0.01892756
#
# Stress axis : x y z
#
# Youngs Moduli (GPa) = 104.89997 53.37623 27.68220
#
# Poissons Ratio (x) = 0.03689 0.25547
# Poissons Ratio (y) = 0.07250 0.35468
# Poissons Ratio (z) = 0.96807 0.68389
#
# Static dielectric constant tensor:
#      x y z
#    x 1.654300 0.000000 0.000000 
#    y 0.000000 1.692820 0.000000 
#    z 0.000000 0.000000 1.681140 
# 
# From -- ./inp_files/25139.got.cif
#   From: 2010.05.17/outbox.cif.g08.bks.cpg/sg52_13_cif.got.tgz:25139.got - 2010.06.03 12:15:38.
