data_PCOD9410592
_publ_section_title
;
Structure prediction by ZEFSAII (Michael W. Deem and Ramdas Pophale) SiO2 
 PCOD9410592
Probable space group: P N N A
;
_chemical_formula_sum "Si O2"
_cell_formula_units_Z 64
_cell_length_a 9.034054
_cell_length_b 14.505922
_cell_length_c 25.252271
_cell_angle_alpha 90.000000
_cell_angle_beta 90.000000
_cell_angle_gamma 90.000000
_cell_volume 3309.241496
_symmetry_space_group_name_H-M "P N N A"
_symmetry_group_IT_number 52
_symmetry_cell_setting 'orthorhombic'
loop_
_space_group_symop_operation_xyz
x,y,z
1/2-x,-y,z
x,1/2-y,1/2-z
1/2-x,1/2+y,1/2-z
-x,-y,-z
1/2+x,y,-z
-x,1/2+y,1/2+z
1/2+x,1/2-y,1/2+z
loop_
_atom_site_type_symbol
_atom_site_label
_atom_site_fract_x
_atom_site_fract_y
_atom_site_fract_z
Si Si1 0.681445 0.315491 0.849245
Si Si2 0.817082 0.600158 0.328489
Si Si3 0.453527 0.187062 0.801750
Si Si4 0.482915 0.761078 0.629099
Si Si5 0.365836 0.615698 0.953721
Si Si6 0.981166 0.078152 0.434488
Si Si7 0.884488 0.545977 0.759197
Si Si8 0.126755 0.076421 0.702814
O O1 0.591882 0.224977 0.833082
O O2 0.573464 0.372142 0.888494
O O3 0.683445 0.374143 0.795132
O O4 0.844795 0.289785 0.867574
O O5 0.750000 0.500000 0.344494
O O6 0.685957 0.673708 0.338322
O O7 0.954024 0.654363 0.355096
O O8 0.841289 0.599708 0.264624
O O9 0.423859 0.250000 0.750000
O O10 0.494456 0.087820 0.778874
O O11 0.424826 0.790137 0.571278
O O12 0.393309 0.831263 0.668795
O O13 0.188299 0.611086 0.945727
O O14 0.450893 0.530570 0.924198
O O15 0.417874 0.596382 0.013629
O O16 0.750000 0.500000 0.729132
O O17 0.970456 0.475724 0.796487
O O18 0.250000 0.000000 0.685573
#
# Coordination Sequence:
#
# PCOD9410592 Si02
#       8
#     8   8   8   8   8   8   8   8
#     4  11  24  35  54  85 118 156 194 241 289 361
#     4  11  23  39  56  80 109 157 205 254 290 339
#     4  10  21  36  53  75 111 149 193 238 290 338
#     4  12  24  36  57  86 117 154 203 242 293 355
#     4  10  22  37  62  86 120 157 186 242 286 366
#     4  10  21  39  59  88 122 154 192 227 302 354
#     4  11  21  35  53  81 118 157 192 238 294 344
#     4  11  22  35  57  82 116 157 197 243 290 354
#
# _framework density 19.339780000000001
#
# number of rings (size 3 to 8) (size 9 to 14) (size 15 to 20)
#    0.000    1.250    3.750    3.375    7.000    2.000 
#    0.000    0.000    0.000    0.000    0.000    8.750 
#    0.000    0.000    0.000    0.000    0.000    0.000 
#
# Total GULP energy -356854.371004 kJ/mol
# GULP energy per Si atom -5575.849547 kJ/mol
# Density = 1.929576 g / cm^3
# Si number density = 19.339780 Si / 1000 Ang^3
#
#
#
# Elastic Constant Matrix: (Units=GPa)
#
#
# Indices 1 2 3 4 5 6 
#
# 1 110.3280 31.0382 5.9460 0.0000 0.0000 0.0000
# 2 31.0382 77.9153 14.9528 0.0000 0.0000 0.0000
# 3 5.9460 14.9528 41.0288 0.0000 0.0000 0.0000
# 4 0.0000 0.0000 0.0000 23.3188 0.0000 0.0000
# 5 0.0000 0.0000 0.0000 0.0000 22.6335 0.0000
# 6 0.0000 0.0000 0.0000 0.0000 0.0000 29.9734
#
#
#
# Elastic Compliance Matrix: (Units=1/GPa)
#
#
# Indices 1 2 3 4 5 6 
#
# 1 0.010208 -0.004067 0.000003 0.000000 0.000000 0.000000
# 2 -0.004067 0.015420 -0.005030 0.000000 0.000000 0.000000
# 3 0.000003 -0.005030 0.026206 0.000000 0.000000 0.000000
# 4 0.000000 0.000000 0.000000 0.042884 0.000000 0.000000
# 5 0.000000 0.000000 0.000000 0.000000 0.044182 0.000000
# 6 0.000000 0.000000 0.000000 0.000000 0.000000 0.033363
#
#
# Mechanical properties :
#
#
# Convention : Reuss Voigt Hill
#
# Bulk Modulus (GPa) = 29.72219 37.01623 33.36921
# Shear Modulus (GPa) = 24.79341 27.00750 25.90046
#
# Velocity S-wave (km/s) = 3.58437 3.74100 3.66352
# Velocity P-wave (km/s) = 5.70369 6.15155 5.93185
#
# Compressibility (1/GPa) = 0.03364489
#
# Stress axis : x y z
#
# Youngs Moduli (GPa) = 97.96371 64.85123 38.15924
#
# Poissons Ratio (x) = 0.26375 -0.00011
# Poissons Ratio (y) = 0.39841 0.19195
# Poissons Ratio (z) = -0.00028 0.32622
#
# Static dielectric constant tensor:
#      x y z
#    x 1.752600 0.000000 0.000000 
#    y 0.000000 1.743190 0.000000 
#    z 0.000000 0.000000 1.677690 
# 
# From -- ./inp_files/39662.got.cif
#   From: 2010.05.17/outbox.cif.g08.bks.cpg/sg52_20_cif.got.tgz:39662.got - 2010.06.03 12:15:38.
