data_PCOD9410043
_publ_section_title
;
Structure prediction by ZEFSAII (Michael W. Deem and Ramdas Pophale) SiO2 
 PCOD9410043
Probable space group: P N N A
;
_chemical_formula_sum "Si O2"
_cell_formula_units_Z 40
_cell_length_a 10.123661
_cell_length_b 12.309676
_cell_length_c 15.551470
_cell_angle_alpha 90.000000
_cell_angle_beta 90.000000
_cell_angle_gamma 90.000000
_cell_volume 1938.008435
_symmetry_space_group_name_H-M "P N N A"
_symmetry_group_IT_number 52
_symmetry_cell_setting 'orthorhombic'
loop_
_space_group_symop_operation_xyz
x,y,z
1/2-x,-y,z
x,1/2-y,1/2-z
1/2-x,1/2+y,1/2-z
-x,-y,-z
1/2+x,y,-z
-x,1/2+y,1/2+z
1/2+x,1/2-y,1/2+z
loop_
_atom_site_type_symbol
_atom_site_label
_atom_site_fract_x
_atom_site_fract_y
_atom_site_fract_z
Si Si1 0.635307 0.082267 0.345160
Si Si2 0.539995 0.750000 0.750000
Si Si3 0.036660 0.250000 0.250000
Si Si4 0.254584 0.297401 0.002164
Si Si5 0.245492 0.370882 0.364215
Si Si6 0.001139 0.120738 0.415784
O O1 0.550202 0.149835 0.279059
O O2 0.697483 0.170158 0.409792
O O3 0.750000 0.000000 0.312681
O O4 0.542117 0.001924 0.400092
O O5 0.633323 0.698129 0.676440
O O6 0.125298 0.335613 0.302737
O O7 0.968295 0.184600 0.326869
O O8 0.408183 0.328081 0.990169
O O9 0.233959 0.177531 0.039588
O O10 0.157270 0.366128 0.065498
O O11 0.250000 0.500000 0.363571
#
# Coordination Sequence:
#
# PCOD9410043 Si02
#       6
#     8   4   4   8   8   8
#     4  10  22  38  59  88 121 156 200 256 309 357
#     4  11  22  39  64  92 120 158 212 254 300 376
#     4   9  20  37  60  88 118 152 198 246 302 364
#     4  10  21  37  59  87 119 155 202 245 298 368
#     4  10  21  39  61  88 121 159 200 249 303 363
#     4  10  20  38  61  87 118 157 198 251 306 360
#
# _framework density 20.639745999999999
#
# number of rings (size 3 to 8) (size 9 to 14) (size 15 to 20)
#    0.000    2.000    0.000    3.000    0.000    6.400 
#    0.000   20.000    0.000    0.000    0.000    0.000 
#    0.000    0.000    0.000    0.000    0.000    0.000 
#
# Total GULP energy -222958.248195 kJ/mol
# GULP energy per Si atom -5573.956205 kJ/mol
# Density = 2.059277 g / cm^3
# Si number density = 20.639746 Si / 1000 Ang^3
#
#
#
# Elastic Constant Matrix: (Units=GPa)
#
#
# Indices 1 2 3 4 5 6 
#
# 1 83.1486 47.7275 36.6577 0.0000 0.0000 0.0000
# 2 47.7275 131.7654 35.3949 0.0000 0.0000 0.0000
# 3 36.6577 35.3949 62.5127 0.0000 0.0000 0.0000
# 4 0.0000 0.0000 0.0000 37.9251 0.0000 0.0000
# 5 0.0000 0.0000 0.0000 0.0000 20.0050 0.0000
# 6 0.0000 0.0000 0.0000 0.0000 0.0000 24.3185
#
#
#
# Elastic Compliance Matrix: (Units=1/GPa)
#
#
# Indices 1 2 3 4 5 6 
#
# 1 0.018135 -0.004378 -0.008156 0.000000 0.000000 0.000000
# 2 -0.004378 0.010007 -0.003099 0.000000 0.000000 0.000000
# 3 -0.008156 -0.003099 0.022534 0.000000 0.000000 0.000000
# 4 0.000000 0.000000 0.000000 0.026368 0.000000 0.000000
# 5 0.000000 0.000000 0.000000 0.000000 0.049987 0.000000
# 6 0.000000 0.000000 0.000000 0.000000 0.000000 0.041121
#
#
# Mechanical properties :
#
#
# Convention : Reuss Voigt Hill
#
# Bulk Modulus (GPa) = 51.51664 57.44298 54.47981
# Shear Modulus (GPa) = 24.28497 26.95951 25.62224
#
# Velocity S-wave (km/s) = 3.43390 3.61805 3.52718
# Velocity P-wave (km/s) = 6.38250 6.73390 6.56055
#
# Compressibility (1/GPa) = 0.01941120
#
# Stress axis : x y z
#
# Youngs Moduli (GPa) = 55.14105 99.92507 44.37757
#
# Poissons Ratio (x) = 0.43748 0.36193
# Poissons Ratio (y) = 0.24141 0.13752
# Poissons Ratio (z) = 0.44971 0.30966
#
# Static dielectric constant tensor:
#      x y z
#    x 1.803850 0.000000 0.000000 
#    y 0.000000 1.712290 0.000000 
#    z 0.000000 0.000000 1.759250 
# 
# From -- ./inp_files/25871.got.cif
#   From: 2010.05.17/outbox.cif.g08.bks.cpg/sg52_13_cif.got.tgz:25871.got - 2010.06.03 12:15:38.
