data_PCOD9410714
_publ_section_title
;
Structure prediction by ZEFSAII (Michael W. Deem and Ramdas Pophale) SiO2 
 PCOD9410714
Probable space group: P N N A
;
_chemical_formula_sum "Si O2"
_cell_formula_units_Z 32
_cell_length_a 5.166423
_cell_length_b 7.192903
_cell_length_c 35.468618
_cell_angle_alpha 90.000000
_cell_angle_beta 90.000000
_cell_angle_gamma 90.000000
_cell_volume 1318.069867
_symmetry_space_group_name_H-M "P N N A"
_symmetry_group_IT_number 52
_symmetry_cell_setting 'orthorhombic'
loop_
_space_group_symop_operation_xyz
x,y,z
1/2-x,-y,z
x,1/2-y,1/2-z
1/2-x,1/2+y,1/2-z
-x,-y,-z
1/2+x,y,-z
-x,1/2+y,1/2+z
1/2+x,1/2-y,1/2+z
loop_
_atom_site_type_symbol
_atom_site_label
_atom_site_fract_x
_atom_site_fract_y
_atom_site_fract_z
Si Si1 0.298681 0.720702 0.329686
Si Si2 0.294167 0.720183 0.707362
Si Si3 0.997221 0.629509 0.907997
Si Si4 0.667409 0.285626 0.516351
O O1 0.250000 0.500000 0.326816
O O2 0.505337 0.794568 0.299275
O O3 0.434259 0.763679 0.369299
O O4 0.010641 0.795343 0.321471
O O5 0.250000 0.500000 0.701464
O O6 0.383092 0.750000 0.750000
O O7 0.750000 0.500000 0.913374
O O8 0.977568 0.766162 0.943780
O O9 0.250000 0.500000 0.906461
O O10 0.750000 0.500000 0.509474
O O11 0.456535 0.201652 0.487279
#
# Coordination Sequence:
#
# PCOD9410714 Si02
#       4
#     8   8   8   8
#     4  10  22  41  60  82 118 161 201 239 294 369
#     4  10  21  37  60  87 115 153 197 246 300 356
#     4  12  25  39  60  91 122 155 197 251 307 349
#     4  10  22  41  64  88 118 160 203 241 293 364
#
# _framework density 24.277923999999999
#
# number of rings (size 3 to 8) (size 9 to 14) (size 15 to 20)
#    0.000    1.500    0.000    4.500    0.000    6.000 
#    0.000   10.000    0.000    0.000    0.000    0.000 
#    0.000    0.000    0.000    0.000    0.000    0.000 
#
# Total GULP energy -178623.621301 kJ/mol
# GULP energy per Si atom -5581.988166 kJ/mol
# Density = 2.422267 g / cm^3
# Si number density = 24.277924 Si / 1000 Ang^3
#
#
#
# Elastic Constant Matrix: (Units=GPa)
#
#
# Indices 1 2 3 4 5 6 
#
# 1 236.7678 37.5684 62.8530 0.0000 0.0000 0.0000
# 2 37.5684 46.6300 -36.3342 0.0000 0.0000 0.0000
# 3 62.8530 -36.3342 89.9714 0.0000 0.0000 0.0000
# 4 0.0000 0.0000 0.0000 28.6573 0.0000 0.0000
# 5 0.0000 0.0000 0.0000 0.0000 38.8318 0.0000
# 6 0.0000 0.0000 0.0000 0.0000 0.0000 10.9978
#
#
#
# Elastic Compliance Matrix: (Units=1/GPa)
#
#
# Indices 1 2 3 4 5 6 
#
# 1 0.014524 -0.028610 -0.021700 0.000000 0.000000 0.000000
# 2 -0.028610 0.087651 0.055383 0.000000 0.000000 0.000000
# 3 -0.021700 0.055383 0.048640 0.000000 0.000000 0.000000
# 4 0.000000 0.000000 0.000000 0.034895 0.000000 0.000000
# 5 0.000000 0.000000 0.000000 0.000000 0.025752 0.000000
# 6 0.000000 0.000000 0.000000 0.000000 0.000000 0.090927
#
#
# Mechanical properties :
#
#
# Convention : Reuss Voigt Hill
#
# Bulk Modulus (GPa) = 6.21266 55.72706 30.96986
# Shear Modulus (GPa) = 14.45525 36.31619 25.38572
#
# Velocity S-wave (km/s) = 2.44274 3.87182 3.23713
# Velocity P-wave (km/s) = 3.24354 6.55680 5.17263
#
# Compressibility (1/GPa) = 0.16096156
#
# Stress axis : x y z
#
# Youngs Moduli (GPa) = 68.85318 11.40894 20.55917
#
# Poissons Ratio (x) = 0.32641 0.44613
# Poissons Ratio (y) = 1.96988 -1.13864
# Poissons Ratio (z) = 1.49411 -0.63187
#
# Static dielectric constant tensor:
#      x y z
#    x 1.979370 0.000000 0.000000 
#    y 0.000000 2.043790 0.000000 
#    z 0.000000 0.000000 2.216540 
# 
# From -- ./inp_files/43559.got.cif
#   From: 2010.05.17/outbox.cif.g08.bks.cpg/sg52_22_cif.got.tgz:43559.got - 2010.06.03 12:15:38.
