data_PCOD9410182
_publ_section_title
;
Structure prediction by ZEFSAII (Michael W. Deem and Ramdas Pophale) SiO2 
 PCOD9410182
Probable space group: P N N A
;
_chemical_formula_sum "Si O2"
_cell_formula_units_Z 56
_cell_length_a 17.427689
_cell_length_b 20.731988
_cell_length_c 8.192671
_cell_angle_alpha 90.000000
_cell_angle_beta 90.000000
_cell_angle_gamma 90.000000
_cell_volume 2960.099196
_symmetry_space_group_name_H-M "P N N A"
_symmetry_group_IT_number 52
_symmetry_cell_setting 'orthorhombic'
loop_
_space_group_symop_operation_xyz
x,y,z
1/2-x,-y,z
x,1/2-y,1/2-z
1/2-x,1/2+y,1/2-z
-x,-y,-z
1/2+x,y,-z
-x,1/2+y,1/2+z
1/2+x,1/2-y,1/2+z
loop_
_atom_site_type_symbol
_atom_site_label
_atom_site_fract_x
_atom_site_fract_y
_atom_site_fract_z
Si Si1 0.840535 0.487687 0.073032
Si Si2 0.426813 0.894754 0.743802
Si Si3 0.671314 0.354341 0.523162
Si Si4 0.606561 0.580618 0.746251
Si Si5 0.693347 0.562252 0.411011
Si Si6 0.261322 0.323776 0.187529
Si Si7 0.170900 0.216192 0.596266
O O1 0.750000 0.500000 0.047979
O O2 0.885033 0.550192 0.139365
O O3 0.844541 0.439952 0.231606
O O4 0.874365 0.465330 0.900166
O O5 0.392724 0.894174 0.928068
O O6 0.516923 0.904392 0.751363
O O7 0.397802 0.827684 0.662766
O O8 0.750539 0.376007 0.432946
O O9 0.696416 0.362489 0.709464
O O10 0.647617 0.279187 0.507451
O O11 0.636559 0.558587 0.566810
O O12 0.657942 0.643355 0.784369
O O13 0.750000 0.500000 0.419439
O O14 0.264811 0.250000 0.250000
O O15 0.231645 0.324241 0.004461
O O16 0.209601 0.250000 0.750000
#
# Coordination Sequence:
#
# PCOD9410182 Si02
#       7
#     8   8   8   8   8   8   8
#     4  11  21  39  62  83 121 158 209 244 297 367
#     4  11  21  38  54  89 121 156 192 256 308 361
#     4   9  18  37  59  84 112 158 200 249 290 362
#     4  11  24  36  59  91 122 156 195 251 317 353
#     4  10  20  39  61  85 118 154 208 248 295 360
#     4   9  19  37  60  87 113 154 209 246 295 368
#     4   9  19  34  62  84 113 153 203 243 295 357
#
# _framework density 18.918285999999998
#
# number of rings (size 3 to 8) (size 9 to 14) (size 15 to 20)
#    0.000    2.000    2.857    1.714    2.000    3.429 
#    2.571    0.000    0.000    2.571    0.000    0.000 
#    0.000    0.000    0.000    0.000    0.000    0.000 
#
# Total GULP energy -311857.136502 kJ/mol
# GULP energy per Si atom -5568.877438 kJ/mol
# Density = 1.887523 g / cm^3
# Si number density = 18.918286 Si / 1000 Ang^3
#
#
#
# Elastic Constant Matrix: (Units=GPa)
#
#
# Indices 1 2 3 4 5 6 
#
# 1 145.1119 37.1582 62.1738 0.0000 0.0000 0.0000
# 2 37.1582 61.4894 25.4018 0.0000 0.0000 0.0000
# 3 62.1738 25.4018 107.8028 0.0000 0.0000 0.0000
# 4 0.0000 0.0000 0.0000 28.7647 0.0000 0.0000
# 5 0.0000 0.0000 0.0000 0.0000 14.3565 0.0000
# 6 0.0000 0.0000 0.0000 0.0000 0.0000 14.9110
#
#
#
# Elastic Compliance Matrix: (Units=1/GPa)
#
#
# Indices 1 2 3 4 5 6 
#
# 1 0.009987 -0.004050 -0.004806 0.000000 0.000000 0.000000
# 2 -0.004050 0.019659 -0.002296 0.000000 0.000000 0.000000
# 3 -0.004806 -0.002296 0.012589 0.000000 0.000000 0.000000
# 4 0.000000 0.000000 0.000000 0.034765 0.000000 0.000000
# 5 0.000000 0.000000 0.000000 0.000000 0.069655 0.000000
# 6 0.000000 0.000000 0.000000 0.000000 0.000000 0.067065
#
#
# Mechanical properties :
#
#
# Convention : Reuss Voigt Hill
#
# Bulk Modulus (GPa) = 50.17350 62.65238 56.41294
# Shear Modulus (GPa) = 20.60424 24.25111 22.42767
#
# Velocity S-wave (km/s) = 3.30376 3.58423 3.44685
# Velocity P-wave (km/s) = 6.41341 7.09353 6.76203
#
# Compressibility (1/GPa) = 0.01993084
#
# Stress axis : x y z
#
# Youngs Moduli (GPa) = 100.12653 50.86688 79.43469
#
# Poissons Ratio (x) = 0.20602 0.38174
# Poissons Ratio (y) = 0.40552 0.18242
# Poissons Ratio (z) = 0.48118 0.11681
#
# Static dielectric constant tensor:
#      x y z
#    x 1.605340 0.000000 0.000000 
#    y 0.000000 1.725310 0.000000 
#    z 0.000000 0.000000 1.731680 
# 
# From -- ./inp_files/10817.got.cif
#   From: 2010.05.17/outbox.cif.g08.bks.cpg/sg52_6_cif.got.tgz:10817.got - 2010.06.03 12:15:38.
