data_PCOD9410307
_publ_section_title
;
Structure prediction by ZEFSAII (Michael W. Deem and Ramdas Pophale) SiO2 
 PCOD9410307
Probable space group: P N N A
;
_chemical_formula_sum "Si O2"
_cell_formula_units_Z 56
_cell_length_a 13.894260
_cell_length_b 15.275025
_cell_length_c 12.080741
_cell_angle_alpha 90.000000
_cell_angle_beta 90.000000
_cell_angle_gamma 90.000000
_cell_volume 2563.958106
_symmetry_space_group_name_H-M "P N N A"
_symmetry_group_IT_number 52
_symmetry_cell_setting 'orthorhombic'
loop_
_space_group_symop_operation_xyz
x,y,z
1/2-x,-y,z
x,1/2-y,1/2-z
1/2-x,1/2+y,1/2-z
-x,-y,-z
1/2+x,y,-z
-x,1/2+y,1/2+z
1/2+x,1/2-y,1/2+z
loop_
_atom_site_type_symbol
_atom_site_label
_atom_site_fract_x
_atom_site_fract_y
_atom_site_fract_z
Si Si1 0.400533 0.448958 0.608554
Si Si2 0.692043 0.087435 0.702483
Si Si3 0.375517 0.600734 0.441893
Si Si4 0.178347 0.295877 0.000663
Si Si5 0.645276 0.757227 0.122311
Si Si6 0.527078 0.870353 0.522127
Si Si7 0.487741 0.006982 0.669659
O O1 0.360206 0.520719 0.525410
O O2 0.510135 0.415362 0.582826
O O3 0.340182 0.360185 0.604831
O O4 0.414750 0.491447 0.729392
O O5 0.694814 0.099709 0.834739
O O6 0.718414 0.165597 0.617896
O O7 0.577546 0.071179 0.690722
O O8 0.750000 0.000000 0.671762
O O9 0.359897 0.697412 0.488055
O O10 0.087107 0.355220 0.975212
O O11 0.257153 0.294710 0.904236
O O12 0.611087 0.750000 0.250000
O O13 0.574016 0.715682 0.030565
O O14 0.559661 0.947239 0.437394
O O15 0.538810 0.914299 0.642336
#
# Coordination Sequence:
#
# PCOD9410307 Si02
#       7
#     8   8   8   8   8   8   8
#     4  10  21  40  66  92 128 174 221 281 344 414
#     4  10  21  38  63  93 127 167 225 286 333 409
#     4  10  22  40  64  91 127 172 219 271 350 412
#     4  11  24  39  63  96 132 173 227 279 339 412
#     4  12  24  40  67 100 134 179 229 288 347 416
#     4  10  20  40  65  91 130 176 228 276 332 417
#     4   9  19  37  66  91 121 178 223 270 344 403
#
# _framework density 21.841228999999998
#
# number of rings (size 3 to 8) (size 9 to 14) (size 15 to 20)
#    0.000    1.714    2.857    1.286    2.000    1.143 
#    0.000    0.000    0.000    0.000    0.000    0.000 
#    0.000    0.000    0.000    0.000    0.000    0.000 
#
# Total GULP energy -311887.427339 kJ/mol
# GULP energy per Si atom -5569.418345 kJ/mol
# Density = 2.179152 g / cm^3
# Si number density = 21.841229 Si / 1000 Ang^3
#
#
#
# Elastic Constant Matrix: (Units=GPa)
#
#
# Indices 1 2 3 4 5 6 
#
# 1 48.7047 2.7179 2.9364 0.0000 0.0000 0.0000
# 2 2.7179 109.1298 32.9382 0.0000 0.0000 0.0000
# 3 2.9364 32.9382 64.8259 0.0000 0.0000 0.0000
# 4 0.0000 0.0000 0.0000 32.5118 0.0000 0.0000
# 5 0.0000 0.0000 0.0000 0.0000 17.1851 0.0000
# 6 0.0000 0.0000 0.0000 0.0000 0.0000 33.4596
#
#
#
# Elastic Compliance Matrix: (Units=1/GPa)
#
#
# Indices 1 2 3 4 5 6 
#
# 1 0.020595 -0.000273 -0.000794 0.000000 0.000000 0.000000
# 2 -0.000273 0.010827 -0.005489 0.000000 0.000000 0.000000
# 3 -0.000794 -0.005489 0.018251 0.000000 0.000000 0.000000
# 4 0.000000 0.000000 0.000000 0.030758 0.000000 0.000000
# 5 0.000000 0.000000 0.000000 0.000000 0.058190 0.000000
# 6 0.000000 0.000000 0.000000 0.000000 0.000000 0.029887
#
#
# Mechanical properties :
#
#
# Convention : Reuss Voigt Hill
#
# Bulk Modulus (GPa) = 27.35195 33.31616 30.33405
# Shear Modulus (GPa) = 25.79894 28.90250 27.35072
#
# Velocity S-wave (km/s) = 3.44059 3.64167 3.54256
# Velocity P-wave (km/s) = 5.32295 5.74188 5.53638
#
# Compressibility (1/GPa) = 0.03656047
#
# Stress axis : x y z
#
# Youngs Moduli (GPa) = 48.55542 92.36293 54.79230
#
# Poissons Ratio (x) = 0.02524 0.04351
# Poissons Ratio (y) = 0.01327 0.30074
# Poissons Ratio (z) = 0.03856 0.50696
#
# Static dielectric constant tensor:
#      x y z
#    x 1.847520 0.000000 0.000000 
#    y 0.000000 1.813730 0.000000 
#    z 0.000000 0.000000 1.901190 
# 
# From -- ./inp_files/19658.got.cif
#   From: 2010.05.17/outbox.cif.g08.bks.cpg/sg52_10_cif.got.tgz:19658.got - 2010.06.03 12:15:38.
