data_PCOD9410958
_publ_section_title
;
Structure prediction by ZEFSAII (Michael W. Deem and Ramdas Pophale) SiO2 
 PCOD9410958
Probable space group: P N N A
;
_chemical_formula_sum "Si O2"
_cell_formula_units_Z 36
_cell_length_a 14.261906
_cell_length_b 5.326668
_cell_length_c 24.478899
_cell_angle_alpha 90.000000
_cell_angle_beta 90.000000
_cell_angle_gamma 90.000000
_cell_volume 1859.623729
_symmetry_space_group_name_H-M "P N N A"
_symmetry_group_IT_number 52
_symmetry_cell_setting 'orthorhombic'
loop_
_space_group_symop_operation_xyz
x,y,z
1/2-x,-y,z
x,1/2-y,1/2-z
1/2-x,1/2+y,1/2-z
-x,-y,-z
1/2+x,y,-z
-x,1/2+y,1/2+z
1/2+x,1/2-y,1/2+z
loop_
_atom_site_type_symbol
_atom_site_label
_atom_site_fract_x
_atom_site_fract_y
_atom_site_fract_z
Si Si1 0.750000 0.000000 0.893788
Si Si2 0.660802 0.869828 0.697390
Si Si3 0.862072 0.998943 0.282918
Si Si4 0.453968 0.020335 0.059583
Si Si5 0.497772 0.965818 0.376628
O O1 0.707908 0.795444 0.851004
O O2 0.841976 0.958821 0.932251
O O3 0.611006 0.750000 0.750000
O O4 0.587659 0.045827 0.666757
O O5 0.750000 0.000000 0.724193
O O6 0.888373 0.750000 0.250000
O O7 0.910110 0.988766 0.341533
O O8 0.750000 0.000000 0.288321
O O9 0.890354 0.250000 0.250000
O O10 0.502433 0.798983 0.093800
O O11 0.475265 0.296623 0.084348
O O12 0.500000 0.000000 0.000000
#
# Coordination Sequence:
#
# PCOD9410958 Si02
#       5
#     4   8   8   8   8
#     4  10  22  40  58  86 126 160 194 258 302 356
#     4  11  20  33  58  90 128 158 193 230 307 384
#     4  10  21  39  62  90 126 162 197 246 304 361
#     4  11  24  43  63  86 119 163 209 260 306 349
#     4  11  23  40  62  91 124 159 205 253 300 367
#
# _framework density 19.358756
#
# number of rings (size 3 to 8) (size 9 to 14) (size 15 to 20)
#    0.000    1.333    3.333    2.667    0.000    2.667 
#    4.000    0.000    0.000    0.000    0.000    0.000 
#    0.000    0.000    0.000    0.000    0.000    0.000 
#
# Total GULP energy -200661.029946 kJ/mol
# GULP energy per Si atom -5573.917499 kJ/mol
# Density = 1.931469 g / cm^3
# Si number density = 19.358756 Si / 1000 Ang^3
#
#
#
# Elastic Constant Matrix: (Units=GPa)
#
#
# Indices 1 2 3 4 5 6 
#
# 1 71.2620 7.1944 37.2115 0.0000 0.0000 0.0000
# 2 7.1944 40.5756 -12.0541 0.0000 0.0000 0.0000
# 3 37.2115 -12.0541 82.0903 0.0000 0.0000 0.0000
# 4 0.0000 0.0000 0.0000 33.5912 0.0000 0.0000
# 5 0.0000 0.0000 0.0000 0.0000 41.2105 0.0000
# 6 0.0000 0.0000 0.0000 0.0000 0.0000 -8.5158
#
#
#
# Elastic Compliance Matrix: (Units=1/GPa)
#
#
# Indices 1 2 3 4 5 6 
#
# 1 0.019895 -0.006490 -0.009971 0.000000 0.000000 0.000000
# 2 -0.006490 0.027886 0.007037 0.000000 0.000000 0.000000
# 3 -0.009971 0.007037 0.017735 0.000000 0.000000 0.000000
# 4 0.000000 0.000000 0.000000 0.029770 0.000000 0.000000
# 5 0.000000 0.000000 0.000000 0.000000 0.024266 0.000000
# 6 0.000000 0.000000 0.000000 0.000000 0.000000 -0.117429
#
#
# Mechanical properties :
#
#
# Convention : Reuss Voigt Hill
#
# Bulk Modulus (GPa) = 21.42823 28.73684 25.08254
# Shear Modulus (GPa) = 136.88590 24.02893 80.45741
#
# Velocity S-wave (km/s) = 8.41805 3.52695 6.45380
# Velocity P-wave (km/s) = 10.27511 5.60914 8.27769
#
# Compressibility (1/GPa) = 0.04666741
#
# Stress axis : x y z
#
# Youngs Moduli (GPa) = 50.26481 35.85973 56.38605
#
# Poissons Ratio (x) = 0.23272 0.56223
# Poissons Ratio (y) = 0.32620 -0.39677
# Poissons Ratio (z) = 0.50120 -0.25233
#
# Static dielectric constant tensor:
#      x y z
#    x 1.694280 0.000000 0.000000 
#    y 0.000000 1.762870 0.000000 
#    z 0.000000 0.000000 1.665880 
# 
# From -- ./inp_files/37070.got.cif
#   From: 2010.05.17/outbox.cif.g08.bks.cpg/sg52_19_cif.got.tgz:37070.got - 2010.06.03 12:15:38.
