data_PCOD9410257
_publ_section_title
;
Structure prediction by ZEFSAII (Michael W. Deem and Ramdas Pophale) SiO2 
 PCOD9410257
Probable space group: P N N A
;
_chemical_formula_sum "Si O2"
_cell_formula_units_Z 28
_cell_length_a 20.566020
_cell_length_b 5.114166
_cell_length_c 11.358390
_cell_angle_alpha 90.000000
_cell_angle_beta 90.000000
_cell_angle_gamma 90.000000
_cell_volume 1194.653200
_symmetry_space_group_name_H-M "P N N A"
_symmetry_group_IT_number 52
_symmetry_cell_setting 'orthorhombic'
loop_
_space_group_symop_operation_xyz
x,y,z
1/2-x,-y,z
x,1/2-y,1/2-z
1/2-x,1/2+y,1/2-z
-x,-y,-z
1/2+x,y,-z
-x,1/2+y,1/2+z
1/2+x,1/2-y,1/2+z
loop_
_atom_site_type_symbol
_atom_site_label
_atom_site_fract_x
_atom_site_fract_y
_atom_site_fract_z
Si Si1 0.960753 0.250000 0.250000
Si Si2 0.573663 0.979282 0.611657
Si Si3 0.818651 0.250000 0.750000
Si Si4 0.250000 0.000000 0.041643
Si Si5 0.106995 0.027820 0.961462
O O1 0.918385 0.071455 0.163193
O O2 0.008087 0.057820 0.322967
O O3 0.583806 0.195423 0.511222
O O4 0.631414 0.975439 0.708607
O O5 0.579874 0.694323 0.551993
O O6 0.773903 0.212714 0.863411
O O7 0.185329 0.045202 0.967197
#
# Coordination Sequence:
#
# PCOD9410257 Si02
#       5
#     4   8   4   4   8
#     4  12  24  45  68  97 138 180 218 278 346 406
#     4  11  24  42  66 101 130 171 228 278 338 397
#     4  10  20  39  74 103 134 174 220 296 338 388
#     4  10  20  40  64  98 130 168 222 266 334 402
#     4  11  26  42  67  97 134 177 223 280 332 409
#
# _framework density 23.437761999999999
#
# number of rings (size 3 to 8) (size 9 to 14) (size 15 to 20)
#    0.000    1.143    0.000    6.857    0.000    9.143 
#    0.000    2.857    0.000    0.000    0.000    0.000 
#    0.000    0.000    0.000    0.000    0.000    0.000 
#
# Total GULP energy -156677.505958 kJ/mol
# GULP energy per Si atom -5595.625213 kJ/mol
# Density = 2.338442 g / cm^3
# Si number density = 23.437762 Si / 1000 Ang^3
#
#
#
# Elastic Constant Matrix: (Units=GPa)
#
#
# Indices 1 2 3 4 5 6 
#
# 1 202.0836 33.3461 97.3364 0.0000 0.0000 0.0000
# 2 33.3461 115.0044 36.4806 0.0000 0.0000 0.0000
# 3 97.3364 36.4806 115.5388 0.0000 0.0000 0.0000
# 4 0.0000 0.0000 0.0000 28.7551 0.0000 0.0000
# 5 0.0000 0.0000 0.0000 0.0000 -9.6522 0.0000
# 6 0.0000 0.0000 0.0000 0.0000 0.0000 27.4027
#
#
#
# Elastic Compliance Matrix: (Units=1/GPa)
#
#
# Indices 1 2 3 4 5 6 
#
# 1 0.008332 -0.000210 -0.006953 0.000000 0.000000 0.000000
# 2 -0.000210 0.009668 -0.002876 0.000000 0.000000 0.000000
# 3 -0.006953 -0.002876 0.015421 0.000000 0.000000 0.000000
# 4 0.000000 0.000000 0.000000 0.034776 0.000000 0.000000
# 5 0.000000 0.000000 0.000000 0.000000 -0.103604 0.000000
# 6 0.000000 0.000000 0.000000 0.000000 0.000000 0.036493
#
#
# Mechanical properties :
#
#
# Convention : Reuss Voigt Hill
#
# Bulk Modulus (GPa) = 74.94345 85.21701 80.08023
# Shear Modulus (GPa) = 195.21498 26.99873 111.10686
#
# Velocity S-wave (km/s) = 9.13628 3.39770 6.89260
# Velocity P-wave (km/s) = 11.97249 7.19932 9.87853
#
# Compressibility (1/GPa) = 0.01334339
#
# Stress axis : x y z
#
# Youngs Moduli (GPa) = 120.01598 103.42908 64.84780
#
# Poissons Ratio (x) = 0.02176 0.45089
# Poissons Ratio (y) = 0.02525 0.18647
# Poissons Ratio (z) = 0.83448 0.29741
#
# Static dielectric constant tensor:
#      x y z
#    x 1.939190 0.000000 0.000000 
#    y 0.000000 1.879140 0.000000 
#    z 0.000000 0.000000 1.911100 
# 
# From -- ./inp_files/21140.got.cif
#   From: 2010.05.17/outbox.cif.g08.bks.cpg/sg52_11_cif.got.tgz:21140.got - 2010.06.03 12:15:38.
