data_PCOD9410916
_publ_section_title
;
Structure prediction by ZEFSAII (Michael W. Deem and Ramdas Pophale) SiO2 
 PCOD9410916
Probable space group: P N N A
;
_chemical_formula_sum "Si O2"
_cell_formula_units_Z 56
_cell_length_a 9.553356
_cell_length_b 20.632252
_cell_length_c 13.182916
_cell_angle_alpha 90.000000
_cell_angle_beta 90.000000
_cell_angle_gamma 90.000000
_cell_volume 2598.448299
_symmetry_space_group_name_H-M "P N N A"
_symmetry_group_IT_number 52
_symmetry_cell_setting 'orthorhombic'
loop_
_space_group_symop_operation_xyz
x,y,z
1/2-x,-y,z
x,1/2-y,1/2-z
1/2-x,1/2+y,1/2-z
-x,-y,-z
1/2+x,y,-z
-x,1/2+y,1/2+z
1/2+x,1/2-y,1/2+z
loop_
_atom_site_type_symbol
_atom_site_label
_atom_site_fract_x
_atom_site_fract_y
_atom_site_fract_z
Si Si1 0.066479 0.847982 0.647402
Si Si2 0.012528 0.654164 0.079438
Si Si3 0.179697 0.108992 0.756200
Si Si4 0.259492 0.823888 0.278209
Si Si5 0.915598 0.559980 0.457250
Si Si6 0.682621 0.634889 0.561784
Si Si7 0.288239 0.734528 0.598078
O O1 0.023789 0.870637 0.534866
O O2 0.923588 0.834040 0.705732
O O3 0.165248 0.896475 0.710223
O O4 0.163442 0.783652 0.630753
O O5 0.924804 0.613085 0.161370
O O6 0.926101 0.722127 0.079736
O O7 0.168225 0.660784 0.123242
O O8 0.130304 0.058005 0.839964
O O9 0.183402 0.178367 0.818261
O O10 0.232984 0.750000 0.250000
O O11 0.201630 0.862298 0.181555
O O12 0.778591 0.577223 0.519766
O O13 0.000000 0.500000 0.500000
O O14 0.023548 0.620186 0.466450
O O15 0.738000 0.698211 0.503571
#
# Coordination Sequence:
#
# PCOD9410916 Si02
#       7
#     8   8   8   8   8   8   8
#     4  11  22  33  54  88 129 180 210 245 302 398
#     4  11  20  36  53  86 128 178 209 246 302 385
#     4  10  21  39  57  82 129 169 210 271 324 364
#     4  12  22  32  56  90 128 167 216 245 307 390
#     4  11  25  46  69  90 119 164 224 280 340 377
#     4  11  25  40  63  93 128 162 212 277 326 383
#     4  10  22  34  54  84 134 177 211 247 317 380
#
# _framework density 21.551321999999999
#
# number of rings (size 3 to 8) (size 9 to 14) (size 15 to 20)
#    0.000    1.143    1.429    7.286   12.000    0.000 
#    0.000    0.000    0.000    0.000    0.000    6.000 
#    0.000    0.000    0.000    0.000    0.000    0.000 
#
# Total GULP energy -313239.324800 kJ/mol
# GULP energy per Si atom -5593.559371 kJ/mol
# Density = 2.150227 g / cm^3
# Si number density = 21.551322 Si / 1000 Ang^3
#
#
#
# Elastic Constant Matrix: (Units=GPa)
#
#
# Indices 1 2 3 4 5 6 
#
# 1 114.7106 15.0821 2.3519 0.0000 0.0000 0.0000
# 2 15.0821 28.9833 22.9952 0.0000 0.0000 0.0000
# 3 2.3519 22.9952 94.9348 0.0000 0.0000 0.0000
# 4 0.0000 0.0000 0.0000 16.6921 0.0000 0.0000
# 5 0.0000 0.0000 0.0000 0.0000 45.3442 0.0000
# 6 0.0000 0.0000 0.0000 0.0000 0.0000 23.8816
#
#
#
# Elastic Compliance Matrix: (Units=1/GPa)
#
#
# Indices 1 2 3 4 5 6 
#
# 1 0.009465 -0.005866 0.001187 0.000000 0.000000 0.000000
# 2 -0.005866 0.046347 -0.011081 0.000000 0.000000 0.000000
# 3 0.001187 -0.011081 0.013188 0.000000 0.000000 0.000000
# 4 0.000000 0.000000 0.000000 0.059908 0.000000 0.000000
# 5 0.000000 0.000000 0.000000 0.000000 0.022054 0.000000
# 6 0.000000 0.000000 0.000000 0.000000 0.000000 0.041873
#
#
# Mechanical properties :
#
#
# Convention : Reuss Voigt Hill
#
# Bulk Modulus (GPa) = 26.68230 35.49856 31.09043
# Shear Modulus (GPa) = 21.11046 30.39689 25.75367
#
# Velocity S-wave (km/s) = 3.13316 3.75966 3.46062
# Velocity P-wave (km/s) = 5.04942 5.94593 5.51592
#
# Compressibility (1/GPa) = 0.03747803
#
# Stress axis : x y z
#
# Youngs Moduli (GPa) = 105.65705 21.57638 75.82546
#
# Poissons Ratio (x) = 0.12658 -0.08997
# Poissons Ratio (y) = 0.61983 0.84021
# Poissons Ratio (z) = -0.12536 0.23909
#
# Static dielectric constant tensor:
#      x y z
#    x 1.755120 0.000000 0.000000 
#    y 0.000000 1.847490 0.000000 
#    z 0.000000 0.000000 1.807380 
# 
# From -- ./inp_files/24973.got.cif
#   From: 2010.05.17/outbox.cif.g08.bks.cpg/sg52_13_cif.got.tgz:24973.got - 2010.06.03 12:15:38.
