data_PCOD9410089
_publ_section_title
;
Structure prediction by ZEFSAII (Michael W. Deem and Ramdas Pophale) SiO2 
 PCOD9410089
Probable space group: P N N A
;
_chemical_formula_sum "Si O2"
_cell_formula_units_Z 60
_cell_length_a 21.090322
_cell_length_b 11.338121
_cell_length_c 12.146977
_cell_angle_alpha 90.000000
_cell_angle_beta 90.000000
_cell_angle_gamma 90.000000
_cell_volume 2904.641293
_symmetry_space_group_name_H-M "P N N A"
_symmetry_group_IT_number 52
_symmetry_cell_setting 'orthorhombic'
loop_
_space_group_symop_operation_xyz
x,y,z
1/2-x,-y,z
x,1/2-y,1/2-z
1/2-x,1/2+y,1/2-z
-x,-y,-z
1/2+x,y,-z
-x,1/2+y,1/2+z
1/2+x,1/2-y,1/2+z
loop_
_atom_site_type_symbol
_atom_site_label
_atom_site_fract_x
_atom_site_fract_y
_atom_site_fract_z
Si Si1 0.821730 0.955636 0.547635
Si Si2 0.220910 0.296899 0.475771
Si Si3 0.131120 0.380803 0.285102
Si Si4 0.241920 0.624002 0.701155
Si Si5 0.134965 0.799941 0.460874
Si Si6 0.093356 0.843824 0.837483
Si Si7 0.944214 0.250000 0.750000
Si Si8 0.990107 0.477152 0.629789
O O1 0.819043 0.823209 0.500130
O O2 0.843857 0.940020 0.673706
O O3 0.750000 0.000000 0.548653
O O4 0.859600 0.065391 0.495304
O O5 0.187841 0.360121 0.372731
O O6 0.223596 0.378622 0.582948
O O7 0.293670 0.254837 0.452824
O O8 0.108535 0.250000 0.250000
O O9 0.074513 0.455246 0.337136
O O10 0.250000 0.500000 0.763465
O O11 0.262004 0.750000 0.750000
O O12 0.166870 0.633711 0.685480
O O13 0.094706 0.717263 0.542404
O O14 0.101528 0.804074 0.343244
O O15 0.068880 0.750000 0.750000
O O16 0.051778 0.958545 0.823347
O O17 0.983746 0.348369 0.683616
O O18 0.000000 0.500000 0.500000
#
# Coordination Sequence:
#
# PCOD9410089 Si02
#       8
#     8   8   8   8   8   8   4   8
#     4   9  18  33  58  95 131 161 202 257 326 401
#     4   9  21  34  61  97 131 160 204 264 335 396
#     4  10  21  37  60  92 125 163 204 261 327 379
#     4  10  23  42  66  93 127 171 219 266 329 385
#     4  10  20  38  63  96 129 172 214 262 333 399
#     4  10  23  45  67  89 123 175 222 269 320 383
#     4  12  24  40  64  94 130 174 212 270 332 392
#     4  12  25  43  63  89 130 170 222 269 318 389
#
# _framework density 20.656596
#
# number of rings (size 3 to 8) (size 9 to 14) (size 15 to 20)
#    0.000    1.867    2.667    0.400    6.533    4.267 
#    1.200    3.333    0.000    0.000    0.000    0.000 
#    0.000    0.000    0.000    0.000    0.000    0.000 
#
# Total GULP energy -334677.213894 kJ/mol
# GULP energy per Si atom -5577.953565 kJ/mol
# Density = 2.060958 g / cm^3
# Si number density = 20.656596 Si / 1000 Ang^3
#
#
#
# Elastic Constant Matrix: (Units=GPa)
#
#
# Indices 1 2 3 4 5 6 
#
# 1 36.4569 28.1538 25.6469 0.0000 0.0000 0.0000
# 2 28.1538 134.9722 39.2583 0.0000 0.0000 0.0000
# 3 25.6469 39.2583 64.8078 0.0000 0.0000 0.0000
# 4 0.0000 0.0000 0.0000 27.8869 0.0000 0.0000
# 5 0.0000 0.0000 0.0000 0.0000 16.7160 0.0000
# 6 0.0000 0.0000 0.0000 0.0000 0.0000 31.8303
#
#
#
# Elastic Compliance Matrix: (Units=1/GPa)
#
#
# Indices 1 2 3 4 5 6 
#
# 1 0.040200 -0.004562 -0.013145 0.000000 0.000000 0.000000
# 2 -0.004562 0.009511 -0.003956 0.000000 0.000000 0.000000
# 3 -0.013145 -0.003956 0.023029 0.000000 0.000000 0.000000
# 4 0.000000 0.000000 0.000000 0.035859 0.000000 0.000000
# 5 0.000000 0.000000 0.000000 0.000000 0.059823 0.000000
# 6 0.000000 0.000000 0.000000 0.000000 0.000000 0.031417
#
#
# Mechanical properties :
#
#
# Convention : Reuss Voigt Hill
#
# Bulk Modulus (GPa) = 33.99815 46.92832 40.46324
# Shear Modulus (GPa) = 19.76520 24.83185 22.29853
#
# Velocity S-wave (km/s) = 3.09665 3.47093 3.28912
# Velocity P-wave (km/s) = 5.41111 6.23144 5.83571
#
# Compressibility (1/GPa) = 0.02941336
#
# Stress axis : x y z
#
# Youngs Moduli (GPa) = 24.87560 105.13914 43.42372
#
# Poissons Ratio (x) = 0.47963 0.57082
# Poissons Ratio (y) = 0.11348 0.17180
# Poissons Ratio (z) = 0.32700 0.41596
#
# Static dielectric constant tensor:
#      x y z
#    x 1.698480 0.000000 0.000000 
#    y 0.000000 1.764090 0.000000 
#    z 0.000000 0.000000 1.776880 
# 
# From -- ./inp_files/21776.got.cif
#   From: 2010.05.17/outbox.cif.g08.bks.cpg/sg52_11_cif.got.tgz:21776.got - 2010.06.03 12:15:38.
