data_PCOD9410276
_publ_section_title
;
Structure prediction by ZEFSAII (Michael W. Deem and Ramdas Pophale) SiO2 
 PCOD9410276
Probable space group: P N N A
;
_chemical_formula_sum "Si O2"
_cell_formula_units_Z 56
_cell_length_a 5.623965
_cell_length_b 28.372649
_cell_length_c 14.648358
_cell_angle_alpha 90.000000
_cell_angle_beta 90.000000
_cell_angle_gamma 90.000000
_cell_volume 2337.391391
_symmetry_space_group_name_H-M "P N N A"
_symmetry_group_IT_number 52
_symmetry_cell_setting 'orthorhombic'
loop_
_space_group_symop_operation_xyz
x,y,z
1/2-x,-y,z
x,1/2-y,1/2-z
1/2-x,1/2+y,1/2-z
-x,-y,-z
1/2+x,y,-z
-x,1/2+y,1/2+z
1/2+x,1/2-y,1/2+z
loop_
_atom_site_type_symbol
_atom_site_label
_atom_site_fract_x
_atom_site_fract_y
_atom_site_fract_z
Si Si1 0.286949 0.794551 0.288541
Si Si2 0.399328 0.377395 0.858957
Si Si3 0.550767 0.137420 0.206116
Si Si4 0.369343 0.154022 0.965818
Si Si5 0.564516 0.737964 0.964698
Si Si6 0.611500 0.556912 0.973605
Si Si7 0.275079 0.445141 0.230400
O O1 0.433653 0.750000 0.250000
O O2 0.429243 0.833175 0.345196
O O3 0.103697 0.770051 0.357825
O O4 0.154479 0.823557 0.209578
O O5 0.163655 0.362585 0.806626
O O6 0.527753 0.419336 0.798919
O O7 0.366792 0.396004 0.961655
O O8 0.760536 0.149439 0.135676
O O9 0.420311 0.086911 0.198184
O O10 0.637424 0.133546 0.978732
O O11 0.420243 0.207718 0.999478
O O12 0.306440 0.718070 0.989937
O O13 0.580606 0.558057 0.865391
O O14 0.373374 0.536711 0.014916
O O15 0.250000 0.500000 0.254583
#
# Coordination Sequence:
#
# PCOD9410276 Si02
#       7
#     8   8   8   8   8   8   8
#     4  11  25  40  63  93 135 183 234 294 349 411
#     4  10  24  39  65  95 140 183 233 290 349 417
#     4  11  24  44  67 100 139 180 238 292 360 413
#     4  10  23  43  73  93 131 178 237 290 347 415
#     4  10  23  40  58  91 124 176 234 281 335 402
#     4  10  20  40  61  96 138 182 228 273 344 417
#     4  10  23  43  70 103 140 186 233 291 360 444
#
# _framework density 23.958335000000002
#
# number of rings (size 3 to 8) (size 9 to 14) (size 15 to 20)
#    0.000    1.714    1.429    1.714   10.000    6.857 
#    0.000    0.000    0.000    0.857    0.000    0.000 
#    0.000    0.000    0.000    0.000    0.000    0.000 
#
# Total GULP energy -312335.836876 kJ/mol
# GULP energy per Si atom -5577.425659 kJ/mol
# Density = 2.390380 g / cm^3
# Si number density = 23.958335 Si / 1000 Ang^3
#
#
#
# Elastic Constant Matrix: (Units=GPa)
#
#
# Indices 1 2 3 4 5 6 
#
# 1 94.9449 16.4927 5.0017 0.0000 0.0000 0.0000
# 2 16.4927 137.4062 22.4986 0.0000 0.0000 0.0000
# 3 5.0017 22.4986 59.8757 0.0000 0.0000 0.0000
# 4 0.0000 0.0000 0.0000 22.7981 0.0000 0.0000
# 5 0.0000 0.0000 0.0000 0.0000 43.8348 0.0000
# 6 0.0000 0.0000 0.0000 0.0000 0.0000 18.9309
#
#
#
# Elastic Compliance Matrix: (Units=1/GPa)
#
#
# Indices 1 2 3 4 5 6 
#
# 1 0.010768 -0.001220 -0.000441 0.000000 0.000000 0.000000
# 2 -0.001220 0.007893 -0.002864 0.000000 0.000000 0.000000
# 3 -0.000441 -0.002864 0.017814 0.000000 0.000000 0.000000
# 4 0.000000 0.000000 0.000000 0.043863 0.000000 0.000000
# 5 0.000000 0.000000 0.000000 0.000000 0.022813 0.000000
# 6 0.000000 0.000000 0.000000 0.000000 0.000000 0.052824
#
#
# Mechanical properties :
#
#
# Convention : Reuss Voigt Hill
#
# Bulk Modulus (GPa) = 36.46349 42.24587 39.35468
# Shear Modulus (GPa) = 28.70814 33.66169 31.18491
#
# Velocity S-wave (km/s) = 3.46533 3.75241 3.61173
# Velocity P-wave (km/s) = 5.59142 6.03701 5.81848
#
# Compressibility (1/GPa) = 0.02742469
#
# Stress axis : x y z
#
# Youngs Moduli (GPa) = 92.87108 126.69313 56.13484
#
# Poissons Ratio (x) = 0.15459 0.02475
# Poissons Ratio (y) = 0.11332 0.16077
# Poissons Ratio (z) = 0.04095 0.36284
#
# Static dielectric constant tensor:
#      x y z
#    x 1.990070 0.000000 0.000000 
#    y 0.000000 1.996690 0.000000 
#    z 0.000000 0.000000 1.988290 
# 
# From -- ./inp_files/23768.got.cif
#   From: 2010.05.17/outbox.cif.g08.bks.cpg/sg52_12_cif.got.tgz:23768.got - 2010.06.03 12:15:38.
