data_PCOD9410124
_publ_section_title
;
Structure prediction by ZEFSAII (Michael W. Deem and Ramdas Pophale) SiO2 
 PCOD9410124
Probable space group: P N N A
;
_chemical_formula_sum "Si O2"
_cell_formula_units_Z 36
_cell_length_a 15.338357
_cell_length_b 5.510106
_cell_length_c 20.445226
_cell_angle_alpha 90.000000
_cell_angle_beta 90.000000
_cell_angle_gamma 90.000000
_cell_volume 1727.948167
_symmetry_space_group_name_H-M "P N N A"
_symmetry_group_IT_number 52
_symmetry_cell_setting 'orthorhombic'
loop_
_space_group_symop_operation_xyz
x,y,z
1/2-x,-y,z
x,1/2-y,1/2-z
1/2-x,1/2+y,1/2-z
-x,-y,-z
1/2+x,y,-z
-x,1/2+y,1/2+z
1/2+x,1/2-y,1/2+z
loop_
_atom_site_type_symbol
_atom_site_label
_atom_site_fract_x
_atom_site_fract_y
_atom_site_fract_z
Si Si1 0.477263 0.343046 0.436802
Si Si2 0.988220 0.636071 0.687928
Si Si3 0.879594 0.503476 0.123229
Si Si4 0.878883 0.750000 0.250000
Si Si5 0.699114 0.761015 0.498234
O O1 0.500000 0.500000 0.500000
O O2 0.447873 0.487564 0.371665
O O3 0.390595 0.215246 0.461840
O O4 0.566357 0.199278 0.419751
O O5 0.937372 0.750000 0.750000
O O6 0.041767 0.847310 0.653030
O O7 0.059269 0.456591 0.719800
O O8 0.834586 0.635499 0.185525
O O9 0.824050 0.323536 0.077804
O O10 0.750000 0.500000 0.503814
O O11 0.750000 0.000000 0.520351
#
# Coordination Sequence:
#
# PCOD9410124 Si02
#       5
#     8   8   8   4   8
#     4  11  21  38  66  96 121 167 222 271 320 386
#     4   9  18  34  63  95 119 152 218 278 314 365
#     4  10  20  38  66  89 124 162 223 262 318 381
#     4   8  18  34  62  94 116 158 212 278 300 376
#     4  12  27  40  60  96 139 171 206 270 335 391
#
# _framework density 20.833959
#
# number of rings (size 3 to 8) (size 9 to 14) (size 15 to 20)
#    0.000    1.778    2.222    2.000    6.222    0.000 
#    0.000    0.000    7.333    0.000   17.333    0.000 
#    0.000    0.000    0.000    0.000    0.000    0.000 
#
# Total GULP energy -200403.177408 kJ/mol
# GULP energy per Si atom -5566.754928 kJ/mol
# Density = 2.078654 g / cm^3
# Si number density = 20.833959 Si / 1000 Ang^3
#
#
#
# Elastic Constant Matrix: (Units=GPa)
#
#
# Indices 1 2 3 4 5 6 
#
# 1 56.6006 19.9105 20.3563 0.0000 0.0000 0.0000
# 2 19.9105 89.0490 34.1544 0.0000 0.0000 0.0000
# 3 20.3563 34.1544 115.0226 0.0000 0.0000 0.0000
# 4 0.0000 0.0000 0.0000 48.2890 0.0000 0.0000
# 5 0.0000 0.0000 0.0000 0.0000 5.6122 0.0000
# 6 0.0000 0.0000 0.0000 0.0000 0.0000 61.9106
#
#
#
# Elastic Compliance Matrix: (Units=1/GPa)
#
#
# Indices 1 2 3 4 5 6 
#
# 1 0.019778 -0.003475 -0.002468 0.000000 0.000000 0.000000
# 2 -0.003475 0.013284 -0.003329 0.000000 0.000000 0.000000
# 3 -0.002468 -0.003329 0.010119 0.000000 0.000000 0.000000
# 4 0.000000 0.000000 0.000000 0.020709 0.000000 0.000000
# 5 0.000000 0.000000 0.000000 0.000000 0.178183 0.000000
# 6 0.000000 0.000000 0.000000 0.000000 0.000000 0.016152
#
#
# Mechanical properties :
#
#
# Convention : Reuss Voigt Hill
#
# Bulk Modulus (GPa) = 40.59272 45.50163 43.04718
# Shear Modulus (GPa) = 17.54490 35.57911 26.56201
#
# Velocity S-wave (km/s) = 2.90510 4.13697 3.57450
# Velocity P-wave (km/s) = 5.54788 6.68632 6.14353
#
# Compressibility (1/GPa) = 0.02463496
#
# Stress axis : x y z
#
# Youngs Moduli (GPa) = 50.56140 75.27953 98.82033
#
# Poissons Ratio (x) = 0.26163 0.24391
# Poissons Ratio (y) = 0.17573 0.32901
# Poissons Ratio (z) = 0.12480 0.25063
#
# Static dielectric constant tensor:
#      x y z
#    x 1.923960 0.000000 0.000000 
#    y 0.000000 1.814120 0.000000 
#    z 0.000000 0.000000 1.724930 
# 
# From -- ./inp_files/37049.got.cif
#   From: 2010.05.17/outbox.cif.g08.bks.cpg/sg52_19_cif.got.tgz:37049.got - 2010.06.03 12:15:38.
