data_PCOD9410618
_publ_section_title
;
Structure prediction by ZEFSAII (Michael W. Deem and Ramdas Pophale) SiO2 
 PCOD9410618
Probable space group: P N N A
;
_chemical_formula_sum "Si O2"
_cell_formula_units_Z 60
_cell_length_a 24.391511
_cell_length_b 21.086661
_cell_length_c 5.743444
_cell_angle_alpha 90.000000
_cell_angle_beta 90.000000
_cell_angle_gamma 90.000000
_cell_volume 2954.057278
_symmetry_space_group_name_H-M "P N N A"
_symmetry_group_IT_number 52
_symmetry_cell_setting 'orthorhombic'
loop_
_space_group_symop_operation_xyz
x,y,z
1/2-x,-y,z
x,1/2-y,1/2-z
1/2-x,1/2+y,1/2-z
-x,-y,-z
1/2+x,y,-z
-x,1/2+y,1/2+z
1/2+x,1/2-y,1/2+z
loop_
_atom_site_type_symbol
_atom_site_label
_atom_site_fract_x
_atom_site_fract_y
_atom_site_fract_z
Si Si1 0.421580 0.250000 0.250000
Si Si2 0.967355 0.538163 0.301701
Si Si3 0.475324 0.180441 0.856407
Si Si4 0.084170 0.103742 0.166735
Si Si5 0.370012 0.349972 0.922746
Si Si6 0.919777 0.466632 0.909451
Si Si7 0.303220 0.673397 0.251080
Si Si8 0.249305 0.826562 0.748812
O O1 0.460246 0.301856 0.376911
O O2 0.382233 0.213735 0.430472
O O3 0.927686 0.592444 0.393499
O O4 0.000000 0.500000 0.500000
O O5 0.019563 0.559691 0.153179
O O6 0.928149 0.490616 0.170111
O O7 0.483581 0.250000 0.750000
O O8 0.526820 0.138430 0.779540
O O9 0.420755 0.149063 0.754609
O O10 0.135842 0.145408 0.227977
O O11 0.090578 0.032594 0.271738
O O12 0.313294 0.347473 0.788350
O O13 0.376133 0.410698 0.092257
O O14 0.303990 0.750000 0.250000
O O15 0.272629 0.653700 0.495186
O O16 0.278926 0.653594 0.996620
O O17 0.251302 0.750000 0.750000
#
# Coordination Sequence:
#
# PCOD9410618 Si02
#       8
#     4   8   8   8   8   8   8   8
#     4  10  22  36  60  94 132 156 212 272 352 384
#     4   9  18  34  56  86 124 168 208 252 309 402
#     4  10  21  36  57  97 129 164 208 274 340 395
#     4  11  22  39  64  90 135 171 222 267 333 411
#     4  11  22  38  65  94 127 163 216 279 336 398
#     4  10  21  37  60  91 128 170 213 263 331 405
#     4  10  24  45  69  97 128 176 228 278 334 396
#     4  10  23  44  69  95 125 171 226 276 333 396
#
# _framework density 20.311048
#
# number of rings (size 3 to 8) (size 9 to 14) (size 15 to 20)
#    0.000    1.867    0.000    4.800    6.533    2.133 
#    3.600    0.667    0.000    0.000    0.000    0.000 
#    0.000    0.000    0.000    0.000    0.000    0.000 
#
# Total GULP energy -334076.107393 kJ/mol
# GULP energy per Si atom -5567.935123 kJ/mol
# Density = 2.026482 g / cm^3
# Si number density = 20.311048 Si / 1000 Ang^3
#
#
#
# Elastic Constant Matrix: (Units=GPa)
#
#
# Indices 1 2 3 4 5 6 
#
# 1 146.0890 34.5551 60.5308 0.0000 0.0000 0.0000
# 2 34.5551 48.5994 33.9387 0.0000 0.0000 0.0000
# 3 60.5308 33.9387 88.1379 0.0000 0.0000 0.0000
# 4 0.0000 0.0000 0.0000 28.3097 0.0000 0.0000
# 5 0.0000 0.0000 0.0000 0.0000 25.7573 0.0000
# 6 0.0000 0.0000 0.0000 0.0000 0.0000 14.9575
#
#
#
# Elastic Compliance Matrix: (Units=1/GPa)
#
#
# Indices 1 2 3 4 5 6 
#
# 1 0.009905 -0.003135 -0.005595 0.000000 0.000000 0.000000
# 2 -0.003135 0.029137 -0.009066 0.000000 0.000000 0.000000
# 3 -0.005595 -0.009066 0.018680 0.000000 0.000000 0.000000
# 4 0.000000 0.000000 0.000000 0.035324 0.000000 0.000000
# 5 0.000000 0.000000 0.000000 0.000000 0.038824 0.000000
# 6 0.000000 0.000000 0.000000 0.000000 0.000000 0.066856
#
#
# Mechanical properties :
#
#
# Convention : Reuss Voigt Hill
#
# Bulk Modulus (GPa) = 45.19183 60.09729 52.64456
# Shear Modulus (GPa) = 20.68718 24.05832 22.37275
#
# Velocity S-wave (km/s) = 3.19489 3.44538 3.32250
# Velocity P-wave (km/s) = 5.99232 6.74390 6.37919
#
# Compressibility (1/GPa) = 0.02212790
#
# Stress axis : x y z
#
# Youngs Moduli (GPa) = 100.95799 34.32054 53.53413
#
# Poissons Ratio (x) = 0.10761 0.29954
# Poissons Ratio (y) = 0.31654 0.48536
# Poissons Ratio (z) = 0.56489 0.31116
#
# Static dielectric constant tensor:
#      x y z
#    x 1.696340 0.000000 0.000000 
#    y 0.000000 1.774940 0.000000 
#    z 0.000000 0.000000 1.876360 
# 
# From -- ./inp_files/4565.got.cif
#   From: 2010.05.17/outbox.cif.g08.bks.cpg/sg52_3_cif.got.tgz:4565.got - 2010.06.03 12:15:38.
