data_PCOD9410905
_publ_section_title
;
Structure prediction by ZEFSAII (Michael W. Deem and Ramdas Pophale) SiO2 
 PCOD9410905
Probable space group: P N N A
;
_chemical_formula_sum "Si O2"
_cell_formula_units_Z 56
_cell_length_a 20.328812
_cell_length_b 15.022431
_cell_length_c 8.936702
_cell_angle_alpha 90.000000
_cell_angle_beta 90.000000
_cell_angle_gamma 90.000000
_cell_volume 2729.163119
_symmetry_space_group_name_H-M "P N N A"
_symmetry_group_IT_number 52
_symmetry_cell_setting 'orthorhombic'
loop_
_space_group_symop_operation_xyz
x,y,z
1/2-x,-y,z
x,1/2-y,1/2-z
1/2-x,1/2+y,1/2-z
-x,-y,-z
1/2+x,y,-z
-x,1/2+y,1/2+z
1/2+x,1/2-y,1/2+z
loop_
_atom_site_type_symbol
_atom_site_label
_atom_site_fract_x
_atom_site_fract_y
_atom_site_fract_z
Si Si1 0.328544 0.491843 0.129844
Si Si2 0.430069 0.345735 0.172749
Si Si3 0.487139 0.500818 0.675118
Si Si4 0.152050 0.507500 0.801155
Si Si5 0.258522 0.655069 0.828517
Si Si6 0.009552 0.326466 0.133048
Si Si7 0.840267 0.676840 0.868059
O O1 0.250000 0.500000 0.099951
O O2 0.360797 0.400440 0.182336
O O3 0.340802 0.582025 0.219531
O O4 0.366565 0.510832 0.973892
O O5 0.424608 0.250000 0.250000
O O6 0.482239 0.409510 0.256416
O O7 0.459134 0.334269 0.004947
O O8 0.500000 0.500000 0.500000
O O9 0.409565 0.491896 0.696977
O O10 0.512955 0.418256 0.774124
O O11 0.189694 0.601650 0.819018
O O12 0.195629 0.422114 0.757261
O O13 0.256087 0.750000 0.750000
O O14 0.289710 0.672091 0.993072
O O15 0.988953 0.250000 0.250000
O O16 0.084431 0.304115 0.081440
O O17 0.819521 0.750000 0.750000
#
# Coordination Sequence:
#
# PCOD9410905 Si02
#       7
#     8   8   8   8   8   8   8
#     4  11  20  43  70  95 132 180 228 281 345 421
#     4  12  25  44  71 105 137 186 233 283 359 427
#     4  12  25  43  67  99 142 176 231 291 346 416
#     4  10  21  41  68  92 130 181 227 274 349 402
#     4  10  21  41  68  95 129 181 232 279 333 412
#     4  11  23  41  69 103 139 186 228 291 355 419
#     4  10  21  38  67  98 134 178 227 278 349 407
#
# _framework density 20.519113000000001
#
# number of rings (size 3 to 8) (size 9 to 14) (size 15 to 20)
#    0.000    1.143    5.714    3.000    0.000    5.714 
#    2.571    0.000    0.000    0.000    0.000    0.000 
#    0.000    0.000    0.000    0.000    0.000    0.000 
#
# Total GULP energy -312124.536897 kJ/mol
# GULP energy per Si atom -5573.652445 kJ/mol
# Density = 2.047241 g / cm^3
# Si number density = 20.519113 Si / 1000 Ang^3
#
#
#
# Elastic Constant Matrix: (Units=GPa)
#
#
# Indices 1 2 3 4 5 6 
#
# 1 115.4940 52.0859 70.3892 0.0000 0.0000 0.0000
# 2 52.0859 207.0967 84.1801 0.0000 0.0000 0.0000
# 3 70.3892 84.1801 105.6304 0.0000 0.0000 0.0000
# 4 0.0000 0.0000 0.0000 44.4585 0.0000 0.0000
# 5 0.0000 0.0000 0.0000 0.0000 19.9990 0.0000
# 6 0.0000 0.0000 0.0000 0.0000 0.0000 15.6943
#
#
#
# Elastic Compliance Matrix: (Units=1/GPa)
#
#
# Indices 1 2 3 4 5 6 
#
# 1 0.014604 0.000418 -0.010065 0.000000 0.000000 0.000000
# 2 0.000418 0.007154 -0.005980 0.000000 0.000000 0.000000
# 3 -0.010065 -0.005980 0.020940 0.000000 0.000000 0.000000
# 4 0.000000 0.000000 0.000000 0.022493 0.000000 0.000000
# 5 0.000000 0.000000 0.000000 0.000000 0.050002 0.000000
# 6 0.000000 0.000000 0.000000 0.000000 0.000000 0.063717
#
#
# Mechanical properties :
#
#
# Convention : Reuss Voigt Hill
#
# Bulk Modulus (GPa) = 87.38045 93.50349 90.44197
# Shear Modulus (GPa) = 23.36672 30.80145 27.08408
#
# Velocity S-wave (km/s) = 3.37824 3.87862 3.63705
# Velocity P-wave (km/s) = 7.60881 8.10717 7.86194
#
# Compressibility (1/GPa) = 0.01144421
#
# Stress axis : x y z
#
# Youngs Moduli (GPa) = 68.47386 139.77665 47.75597
#
# Poissons Ratio (x) = -0.05846 0.48067
# Poissons Ratio (y) = -0.02864 0.28559
# Poissons Ratio (z) = 0.68919 0.83588
#
# Static dielectric constant tensor:
#      x y z
#    x 1.816430 0.000000 0.000000 
#    y 0.000000 1.784230 0.000000 
#    z 0.000000 0.000000 1.795620 
# 
# From -- ./inp_files/13467.got.cif
#   From: 2010.05.17/outbox.cif.g08.bks.cpg/sg52_7_cif.got.tgz:13467.got - 2010.06.03 12:15:38.
