data_PCOD9410230
_publ_section_title
;
Structure prediction by ZEFSAII (Michael W. Deem and Ramdas Pophale) SiO2 
 PCOD9410230
Probable space group: P N N A
;
_chemical_formula_sum "Si O2"
_cell_formula_units_Z 48
_cell_length_a 5.073352
_cell_length_b 25.764750
_cell_length_c 15.669077
_cell_angle_alpha 90.000000
_cell_angle_beta 90.000000
_cell_angle_gamma 90.000000
_cell_volume 2048.162183
_symmetry_space_group_name_H-M "P N N A"
_symmetry_group_IT_number 52
_symmetry_cell_setting 'orthorhombic'
loop_
_space_group_symop_operation_xyz
x,y,z
1/2-x,-y,z
x,1/2-y,1/2-z
1/2-x,1/2+y,1/2-z
-x,-y,-z
1/2+x,y,-z
-x,1/2+y,1/2+z
1/2+x,1/2-y,1/2+z
loop_
_atom_site_type_symbol
_atom_site_label
_atom_site_fract_x
_atom_site_fract_y
_atom_site_fract_z
Si Si1 0.559581 0.579651 0.778433
Si Si2 0.080779 0.264452 0.939708
Si Si3 0.120764 0.388581 0.951139
Si Si4 0.771106 0.250000 0.250000
Si Si5 0.053121 0.905426 0.941038
Si Si6 0.250000 0.500000 0.668808
Si Si7 0.440411 0.357409 0.728118
O O1 0.487603 0.575232 0.876857
O O2 0.464873 0.530128 0.725547
O O3 0.356049 0.623584 0.745157
O O4 0.850819 0.601855 0.765782
O O5 0.081573 0.327582 0.929165
O O6 0.116246 0.243813 0.841474
O O7 0.320847 0.251063 0.004840
O O8 0.426758 0.397140 0.969268
O O9 0.956170 0.300006 0.236748
O O10 0.023106 0.860032 0.872776
O O11 0.091869 0.958619 0.888161
O O12 0.309058 0.903271 0.997762
#
# Coordination Sequence:
#
# PCOD9410230 Si02
#       7
#     8   8   8   4   8   4   8
#     4  11  23  44  63 100 133 172 229 281 336 430
#     4  10  24  41  65  98 130 178 237 278 336 430
#     4  10  20  39  66  91 126 170 220 278 337 403
#     4  12  26  46  72 100 144 192 228 298 378 410
#     4  11  23  43  68  98 138 177 231 291 350 415
#     4  10  24  42  72 100 136 188 232 280 360 446
#     4  11  26  41  66  97 133 181 231 280 349 424
#
# _framework density 23.435644
#
# number of rings (size 3 to 8) (size 9 to 14) (size 15 to 20)
#    0.000    1.333    1.667    3.500    4.667    9.333 
#    0.000    0.833    0.000    0.000    0.000    0.000 
#    0.000    0.000    0.000    0.000    0.000    0.000 
#
# Total GULP energy -268425.929414 kJ/mol
# GULP energy per Si atom -5592.206863 kJ/mol
# Density = 2.338230 g / cm^3
# Si number density = 23.435644 Si / 1000 Ang^3
#
#
#
# Elastic Constant Matrix: (Units=GPa)
#
#
# Indices 1 2 3 4 5 6 
#
# 1 105.1189 6.4136 41.2924 0.0000 0.0000 0.0000
# 2 6.4136 32.9270 3.1112 0.0000 0.0000 0.0000
# 3 41.2924 3.1112 122.3498 0.0000 0.0000 0.0000
# 4 0.0000 0.0000 0.0000 33.4685 0.0000 0.0000
# 5 0.0000 0.0000 0.0000 0.0000 48.1898 0.0000
# 6 0.0000 0.0000 0.0000 0.0000 0.0000 -7.3311
#
#
#
# Elastic Compliance Matrix: (Units=1/GPa)
#
#
# Indices 1 2 3 4 5 6 
#
# 1 0.011073 -0.001808 -0.003691 0.000000 0.000000 0.000000
# 2 -0.001808 0.030739 -0.000171 0.000000 0.000000 0.000000
# 3 -0.003691 -0.000171 0.009423 0.000000 0.000000 0.000000
# 4 0.000000 0.000000 0.000000 0.029879 0.000000 0.000000
# 5 0.000000 0.000000 0.000000 0.000000 0.020751 0.000000
# 6 0.000000 0.000000 0.000000 0.000000 0.000000 -0.136406
#
#
# Mechanical properties :
#
#
# Convention : Reuss Voigt Hill
#
# Bulk Modulus (GPa) = 25.06652 40.22556 32.64604
# Shear Modulus (GPa) = -504.99435 28.83735 -238.07850
#
# Velocity S-wave (km/s) = -14.69521 3.51164 -10.09003
# Velocity P-wave (km/s) = 16.64972 5.80032 11.03561
#
# Compressibility (1/GPa) = 0.03989384
#
# Stress axis : x y z
#
# Youngs Moduli (GPa) = 90.30712 32.53243 106.11876
#
# Poissons Ratio (x) = 0.05882 0.39171
# Poissons Ratio (y) = 0.16328 0.01819
# Poissons Ratio (z) = 0.33334 0.00558
#
# Static dielectric constant tensor:
#      x y z
#    x 1.866520 0.000000 0.000000 
#    y 0.000000 1.914340 0.000000 
#    z 0.000000 0.000000 1.937450 
# 
# From -- ./inp_files/23724.got.cif
#   From: 2010.05.17/outbox.cif.g08.bks.cpg/sg52_12_cif.got.tgz:23724.got - 2010.06.03 12:15:38.
