data_PCOD9410225
_publ_section_title
;
Structure prediction by ZEFSAII (Michael W. Deem and Ramdas Pophale) SiO2 
 PCOD9410225
Probable space group: P N N A
;
_chemical_formula_sum "Si O2"
_cell_formula_units_Z 52
_cell_length_a 19.350646
_cell_length_b 25.750089
_cell_length_c 5.120295
_cell_angle_alpha 90.000000
_cell_angle_beta 90.000000
_cell_angle_gamma 90.000000
_cell_volume 2551.344979
_symmetry_space_group_name_H-M "P N N A"
_symmetry_group_IT_number 52
_symmetry_cell_setting 'orthorhombic'
loop_
_space_group_symop_operation_xyz
x,y,z
1/2-x,-y,z
x,1/2-y,1/2-z
1/2-x,1/2+y,1/2-z
-x,-y,-z
1/2+x,y,-z
-x,1/2+y,1/2+z
1/2+x,1/2-y,1/2+z
loop_
_atom_site_type_symbol
_atom_site_label
_atom_site_fract_x
_atom_site_fract_y
_atom_site_fract_z
Si Si1 0.736198 0.906559 0.554988
Si Si2 0.833700 0.310920 0.764541
Si Si3 0.362164 0.957899 0.167153
Si Si4 0.082316 0.549620 0.048016
Si Si5 0.250000 0.500000 0.661390
Si Si6 0.003153 0.590446 0.549517
Si Si7 0.075628 0.810934 0.762516
O O1 0.727538 0.845278 0.611261
O O2 0.797022 0.924002 0.746630
O O3 0.656397 0.923142 0.583882
O O4 0.754347 0.945343 0.314932
O O5 0.816312 0.250000 0.750000
O O6 0.862222 0.322537 0.472117
O O7 0.896426 0.319524 0.970076
O O8 0.423031 0.924735 0.044506
O O9 0.399607 0.989600 0.398559
O O10 0.322025 0.000742 0.994505
O O11 0.034592 0.573174 0.274526
O O12 0.046017 0.559160 0.772110
O O13 0.016991 0.649821 0.638393
O O14 0.057008 0.750000 0.750000
#
# Coordination Sequence:
#
# PCOD9410225 Si02
#       7
#     8   8   8   8   4   8   8
#     4  12  23  40  67  92 132 174 218 264 331 395
#     4  10  22  40  67  96 122 164 222 272 316 380
#     4  12  27  40  61  97 136 180 208 270 330 398
#     4  12  23  43  63  92 131 170 220 265 313 394
#     4  12  24  42  62  90 144 176 220 252 342 402
#     4  12  25  41  66  96 129 169 223 269 324 387
#     4  10  20  39  65  95 124 159 213 272 325 375
#
# _framework density 20.381406999999999
#
# number of rings (size 3 to 8) (size 9 to 14) (size 15 to 20)
#    0.000    0.615    6.154    1.846    4.308    0.000 
#    0.000    0.769    0.000    0.000    4.000    0.000 
#    0.000    0.000    0.000    0.000    0.000    0.000 
#
# Total GULP energy -289725.235452 kJ/mol
# GULP energy per Si atom -5571.639143 kJ/mol
# Density = 2.033502 g / cm^3
# Si number density = 20.381407 Si / 1000 Ang^3
#
#
#
# Elastic Constant Matrix: (Units=GPa)
#
#
# Indices 1 2 3 4 5 6 
#
# 1 92.0531 12.1490 14.9895 0.0000 0.0000 0.0000
# 2 12.1490 81.1014 4.5955 0.0000 0.0000 0.0000
# 3 14.9895 4.5955 85.9330 0.0000 0.0000 0.0000
# 4 0.0000 0.0000 0.0000 -13.7638 0.0000 0.0000
# 5 0.0000 0.0000 0.0000 0.0000 18.2533 0.0000
# 6 0.0000 0.0000 0.0000 0.0000 0.0000 23.8261
#
#
#
# Elastic Compliance Matrix: (Units=1/GPa)
#
#
# Indices 1 2 3 4 5 6 
#
# 1 0.011384 -0.001598 -0.001900 0.000000 0.000000 0.000000
# 2 -0.001598 0.012592 -0.000395 0.000000 0.000000 0.000000
# 3 -0.001900 -0.000395 0.011990 0.000000 0.000000 0.000000
# 4 0.000000 0.000000 0.000000 -0.072654 0.000000 0.000000
# 5 0.000000 0.000000 0.000000 0.000000 0.054785 0.000000
# 6 0.000000 0.000000 0.000000 0.000000 0.000000 0.041971
#
#
# Mechanical properties :
#
#
# Convention : Reuss Voigt Hill
#
# Bulk Modulus (GPa) = 35.48619 35.83950 35.66284
# Shear Modulus (GPa) = 64.72951 20.82002 42.77476
#
# Velocity S-wave (km/s) = 5.64163 3.19959 4.58614
# Velocity P-wave (km/s) = 7.73862 5.59217 6.75125
#
# Compressibility (1/GPa) = 0.02817998
#
# Stress axis : x y z
#
# Youngs Moduli (GPa) = 87.84596 79.41596 83.40599
#
# Poissons Ratio (x) = 0.12687 0.15849
# Poissons Ratio (y) = 0.14034 0.03292
# Poissons Ratio (z) = 0.16693 0.03135
#
# Static dielectric constant tensor:
#      x y z
#    x 1.684180 0.000000 0.000000 
#    y 0.000000 1.582330 0.000000 
#    z 0.000000 0.000000 1.816540 
# 
# From -- ./inp_files/3542.got.cif
#   From: 2010.05.17/outbox.cif.g08.bks.cpg/sg52_2_cif.got.tgz:3542.got - 2010.06.03 12:15:38.
