data_PCOD9410573
_publ_section_title
;
Structure prediction by ZEFSAII (Michael W. Deem and Ramdas Pophale) SiO2 
 PCOD9410573
Probable space group: P N N A
;
_chemical_formula_sum "Si O2"
_cell_formula_units_Z 40
_cell_length_a 9.320039
_cell_length_b 8.797531
_cell_length_c 18.342238
_cell_angle_alpha 90.000000
_cell_angle_beta 90.000000
_cell_angle_gamma 90.000000
_cell_volume 1503.941210
_symmetry_space_group_name_H-M "P N N A"
_symmetry_group_IT_number 52
_symmetry_cell_setting 'orthorhombic'
loop_
_space_group_symop_operation_xyz
x,y,z
1/2-x,-y,z
x,1/2-y,1/2-z
1/2-x,1/2+y,1/2-z
-x,-y,-z
1/2+x,y,-z
-x,1/2+y,1/2+z
1/2+x,1/2-y,1/2+z
loop_
_atom_site_type_symbol
_atom_site_label
_atom_site_fract_x
_atom_site_fract_y
_atom_site_fract_z
Si Si1 0.478217 0.747085 0.410746
Si Si2 0.816770 0.840004 0.187326
Si Si3 0.098652 0.981909 0.186095
Si Si4 0.400824 0.934414 0.581617
Si Si5 0.154933 0.723575 0.458884
O O1 0.449435 0.645167 0.341144
O O2 0.324567 0.755541 0.453337
O O3 0.594373 0.663603 0.463910
O O4 0.534220 0.910331 0.385279
O O5 0.733394 0.750000 0.250000
O O6 0.850050 0.711930 0.127933
O O7 0.967659 0.897344 0.222754
O O8 0.750000 0.000000 0.163286
O O9 0.126644 0.886866 0.110183
O O10 0.250000 0.000000 0.226310
O O11 0.546107 0.866815 0.545645
O O12 0.250000 0.000000 0.550563
#
# Coordination Sequence:
#
# PCOD9410573 Si02
#       5
#     8   8   8   8   8
#     4  11  20  36  58  88 126 164 205 246 292 351
#     4  11  24  44  66  90 116 148 197 257 317 376
#     4   9  21  40  61  89 125 163 202 247 298 359
#     4  11  22  37  58  86 119 159 201 247 301 358
#     4  10  21  35  57  89 128 168 206 243 288 350
#
# _framework density 26.596785000000001
#
# number of rings (size 3 to 8) (size 9 to 14) (size 15 to 20)
#    0.000    1.600    0.000    4.800    0.000    1.600 
#    0.000    8.000    0.000    0.000    0.000    0.000 
#    0.000    0.000    0.000    0.000    0.000    0.000 
#
# Total GULP energy -223364.541025 kJ/mol
# GULP energy per Si atom -5584.113526 kJ/mol
# Density = 2.653625 g / cm^3
# Si number density = 26.596785 Si / 1000 Ang^3
#
#
#
# Elastic Constant Matrix: (Units=GPa)
#
#
# Indices 1 2 3 4 5 6 
#
# 1 203.6648 68.8842 35.8083 0.0000 0.0000 0.0000
# 2 68.8842 157.0446 32.4856 0.0000 0.0000 0.0000
# 3 35.8083 32.4856 36.1162 0.0000 0.0000 0.0000
# 4 0.0000 0.0000 0.0000 37.2773 0.0000 0.0000
# 5 0.0000 0.0000 0.0000 0.0000 18.0058 0.0000
# 6 0.0000 0.0000 0.0000 0.0000 0.0000 62.0292
#
#
#
# Elastic Compliance Matrix: (Units=1/GPa)
#
#
# Indices 1 2 3 4 5 6 
#
# 1 0.006344 -0.001820 -0.004652 0.000000 0.000000 0.000000
# 2 -0.001820 0.008345 -0.005702 0.000000 0.000000 0.000000
# 3 -0.004652 -0.005702 0.037430 0.000000 0.000000 0.000000
# 4 0.000000 0.000000 0.000000 0.026826 0.000000 0.000000
# 5 0.000000 0.000000 0.000000 0.000000 0.055538 0.000000
# 6 0.000000 0.000000 0.000000 0.000000 0.000000 0.016121
#
#
# Mechanical properties :
#
#
# Convention : Reuss Voigt Hill
#
# Bulk Modulus (GPa) = 36.00996 74.57577 55.29286
# Shear Modulus (GPa) = 27.14296 40.77227 33.95762
#
# Velocity S-wave (km/s) = 3.19805 3.91957 3.57705
# Velocity P-wave (km/s) = 5.21587 6.97025 6.15588
#
# Compressibility (1/GPa) = 0.02777010
#
# Stress axis : x y z
#
# Youngs Moduli (GPa) = 157.63873 119.82571 26.71659
#
# Poissons Ratio (x) = 0.21810 0.12430
# Poissons Ratio (y) = 0.28692 0.15234
# Poissons Ratio (z) = 0.73340 0.68324
#
# Static dielectric constant tensor:
#      x y z
#    x 2.165060 0.000000 0.000000 
#    y 0.000000 2.084320 0.000000 
#    z 0.000000 0.000000 2.164810 
# 
# From -- ./inp_files/39196.got.cif
#   From: 2010.05.17/outbox.cif.g08.bks.cpg/sg52_20_cif.got.tgz:39196.got - 2010.06.03 12:15:38.
