data_PCOD9410917
_publ_section_title
;
Structure prediction by ZEFSAII (Michael W. Deem and Ramdas Pophale) SiO2 
 PCOD9410917
Probable space group: P N N A
;
_chemical_formula_sum "Si O2"
_cell_formula_units_Z 48
_cell_length_a 28.099947
_cell_length_b 8.514518
_cell_length_c 10.599630
_cell_angle_alpha 90.000000
_cell_angle_beta 90.000000
_cell_angle_gamma 90.000000
_cell_volume 2536.041023
_symmetry_space_group_name_H-M "P N N A"
_symmetry_group_IT_number 52
_symmetry_cell_setting 'orthorhombic'
loop_
_space_group_symop_operation_xyz
x,y,z
1/2-x,-y,z
x,1/2-y,1/2-z
1/2-x,1/2+y,1/2-z
-x,-y,-z
1/2+x,y,-z
-x,1/2+y,1/2+z
1/2+x,1/2-y,1/2+z
loop_
_atom_site_type_symbol
_atom_site_label
_atom_site_fract_x
_atom_site_fract_y
_atom_site_fract_z
Si Si1 0.198045 0.570591 0.706187
Si Si2 0.622447 0.452358 0.481466
Si Si3 0.947601 0.072134 0.497348
Si Si4 0.629835 0.137226 0.367287
Si Si5 0.030107 0.583390 0.607744
Si Si6 0.567561 0.065387 0.762243
O O1 0.250000 0.500000 0.683451
O O2 0.199982 0.750000 0.750000
O O3 0.165734 0.548649 0.580267
O O4 0.173174 0.469355 0.818243
O O5 0.637083 0.268615 0.476193
O O6 0.578546 0.487100 0.385472
O O7 0.599040 0.491499 0.617662
O O8 0.953885 0.245689 0.440869
O O9 0.913009 0.972603 0.408917
O O10 0.927034 0.043942 0.639112
O O11 0.000000 0.000000 0.500000
O O12 0.620013 0.250000 0.250000
O O13 0.000000 0.500000 0.500000
O O14 0.990062 0.574859 0.715128
O O15 0.580647 0.250000 0.750000
#
# Coordination Sequence:
#
# PCOD9410917 Si02
#       6
#     8   8   8   8   8   8
#     4  11  23  42  68  95 122 154 200 261 319 375
#     4  10  21  39  57  88 121 159 203 257 306 368
#     4  12  22  36  58  85 122 172 213 254 309 367
#     4  10  22  37  59  85 121 159 204 252 309 367
#     4  10  22  37  52  85 123 168 213 253 298 366
#     4  11  21  37  58  86 126 169 213 253 307 363
#
# _framework density 18.927139
#
# number of rings (size 3 to 8) (size 9 to 14) (size 15 to 20)
#    0.000    1.333    3.333    3.500    4.667    3.333 
#    0.000    0.000    0.000    1.000    4.333    0.000 
#    0.000    0.000    0.000    0.000    0.000    0.000 
#
# Total GULP energy -267410.348725 kJ/mol
# GULP energy per Si atom -5571.048932 kJ/mol
# Density = 1.888406 g / cm^3
# Si number density = 18.927139 Si / 1000 Ang^3
#
#
#
# Elastic Constant Matrix: (Units=GPa)
#
#
# Indices 1 2 3 4 5 6 
#
# 1 135.7024 37.4943 39.3312 0.0000 0.0000 0.0000
# 2 37.4943 100.9785 7.7345 0.0000 0.0000 0.0000
# 3 39.3312 7.7345 84.2434 0.0000 0.0000 0.0000
# 4 0.0000 0.0000 0.0000 29.7377 0.0000 0.0000
# 5 0.0000 0.0000 0.0000 0.0000 29.8022 0.0000
# 6 0.0000 0.0000 0.0000 0.0000 0.0000 33.8379
#
#
#
# Elastic Compliance Matrix: (Units=1/GPa)
#
#
# Indices 1 2 3 4 5 6 
#
# 1 0.009444 -0.003191 -0.004116 0.000000 0.000000 0.000000
# 2 -0.003191 0.011052 0.000475 0.000000 0.000000 0.000000
# 3 -0.004116 0.000475 0.013748 0.000000 0.000000 0.000000
# 4 0.000000 0.000000 0.000000 0.033627 0.000000 0.000000
# 5 0.000000 0.000000 0.000000 0.000000 0.033555 0.000000
# 6 0.000000 0.000000 0.000000 0.000000 0.000000 0.029553
#
#
# Mechanical properties :
#
#
# Convention : Reuss Voigt Hill
#
# Bulk Modulus (GPa) = 48.59166 54.44937 51.52051
# Shear Modulus (GPa) = 33.00274 34.43318 33.71796
#
# Velocity S-wave (km/s) = 4.18026 4.26989 4.22531
# Velocity P-wave (km/s) = 7.00201 7.28969 7.14730
#
# Compressibility (1/GPa) = 0.02057966
#
# Stress axis : x y z
#
# Youngs Moduli (GPa) = 105.88956 90.48412 72.73559
#
# Poissons Ratio (x) = 0.28876 0.29939
# Poissons Ratio (y) = 0.33793 -0.03457
# Poissons Ratio (z) = 0.43585 -0.04300
#
# Static dielectric constant tensor:
#      x y z
#    x 1.630910 0.000000 0.000000 
#    y 0.000000 1.690410 0.000000 
#    z 0.000000 0.000000 1.745820 
# 
# From -- ./inp_files/22773.got.cif
#   From: 2010.05.17/outbox.cif.g08.bks.cpg/sg52_12_cif.got.tgz:22773.got - 2010.06.03 12:15:38.
