data_PCOD9410961
_publ_section_title
;
Structure prediction by ZEFSAII (Michael W. Deem and Ramdas Pophale) SiO2 
 PCOD9410961
Probable space group: P N N A
;
_chemical_formula_sum "Si O2"
_cell_formula_units_Z 44
_cell_length_a 15.994946
_cell_length_b 8.881736
_cell_length_c 14.786241
_cell_angle_alpha 90.000000
_cell_angle_beta 90.000000
_cell_angle_gamma 90.000000
_cell_volume 2100.576095
_symmetry_space_group_name_H-M "P N N A"
_symmetry_group_IT_number 52
_symmetry_cell_setting 'orthorhombic'
loop_
_space_group_symop_operation_xyz
x,y,z
1/2-x,-y,z
x,1/2-y,1/2-z
1/2-x,1/2+y,1/2-z
-x,-y,-z
1/2+x,y,-z
-x,1/2+y,1/2+z
1/2+x,1/2-y,1/2+z
loop_
_atom_site_type_symbol
_atom_site_label
_atom_site_fract_x
_atom_site_fract_y
_atom_site_fract_z
Si Si1 0.633678 0.201881 0.159630
Si Si2 0.532341 0.203509 0.853759
Si Si3 0.881100 0.244405 0.007024
Si Si4 0.949238 0.134985 0.825297
Si Si5 0.250000 0.500000 0.540773
Si Si6 0.906775 0.929045 0.499513
O O1 0.681484 0.250000 0.250000
O O2 0.547992 0.126653 0.194588
O O3 0.683523 0.083507 0.102417
O O4 0.612908 0.336836 0.091044
O O5 0.519272 0.250000 0.750000
O O6 0.590498 0.316822 0.913763
O O7 0.574419 0.038192 0.844122
O O8 0.443104 0.206701 0.908246
O O9 0.938244 0.216257 0.920148
O O10 0.852653 0.418037 0.003409
O O11 0.803337 0.131792 0.994521
O O12 0.912435 0.250000 0.750000
O O13 0.000000 0.000000 0.500000
#
# Coordination Sequence:
#
# PCOD9410961 Si02
#       6
#     8   8   8   8   4   8
#     4  11  24  40  64  93 133 169 213 262 326 388
#     4  11  21  34  62  95 129 158 211 272 320 369
#     4  11  23  40  63  93 129 168 217 262 327 388
#     4  11  21  40  67  95 123 165 223 275 306 375
#     4  12  26  40  60  92 136 182 200 258 340 414
#     4  10  21  39  62  92 124 161 217 274 314 370
#
# _framework density 20.946636000000002
#
# number of rings (size 3 to 8) (size 9 to 14) (size 15 to 20)
#    0.000    1.091    5.455    2.727    7.636    2.909 
#    0.000    0.000    0.000    6.545    0.000    0.000 
#    0.000    0.000    0.000    0.000    0.000    0.000 
#
# Total GULP energy -245111.189559 kJ/mol
# GULP energy per Si atom -5570.708854 kJ/mol
# Density = 2.089896 g / cm^3
# Si number density = 20.946636 Si / 1000 Ang^3
#
#
#
# Elastic Constant Matrix: (Units=GPa)
#
#
# Indices 1 2 3 4 5 6 
#
# 1 26.0426 21.6702 1.1177 0.0000 0.0000 0.0000
# 2 21.6702 192.2836 63.4734 0.0000 0.0000 0.0000
# 3 1.1177 63.4734 142.5011 0.0000 0.0000 0.0000
# 4 0.0000 0.0000 0.0000 22.6209 0.0000 0.0000
# 5 0.0000 0.0000 0.0000 0.0000 8.8820 0.0000
# 6 0.0000 0.0000 0.0000 0.0000 0.0000 19.8096
#
#
#
# Elastic Compliance Matrix: (Units=1/GPa)
#
#
# Indices 1 2 3 4 5 6 
#
# 1 0.042917 -0.005540 0.002131 0.000000 0.000000 0.000000
# 2 -0.005540 0.006812 -0.002991 0.000000 0.000000 0.000000
# 3 0.002131 -0.002991 0.008333 0.000000 0.000000 0.000000
# 4 0.000000 0.000000 0.000000 0.044207 0.000000 0.000000
# 5 0.000000 0.000000 0.000000 0.000000 0.112587 0.000000
# 6 0.000000 0.000000 0.000000 0.000000 0.000000 0.050481
#
#
# Mechanical properties :
#
#
# Convention : Reuss Voigt Hill
#
# Bulk Modulus (GPa) = 22.09336 59.26109 40.67722
# Shear Modulus (GPa) = 17.05178 28.56691 22.80935
#
# Velocity S-wave (km/s) = 2.85627 3.69697 3.30347
# Velocity P-wave (km/s) = 4.63120 6.82468 5.83199
#
# Compressibility (1/GPa) = 0.04526247
#
# Stress axis : x y z
#
# Youngs Moduli (GPa) = 23.30070 146.79245 120.00479
#
# Poissons Ratio (x) = 0.81326 -0.25574
# Poissons Ratio (y) = 0.12909 0.35892
# Poissons Ratio (z) = -0.04966 0.43904
#
# Static dielectric constant tensor:
#      x y z
#    x 1.824050 0.000000 0.000000 
#    y 0.000000 1.953300 0.000000 
#    z 0.000000 0.000000 1.781170 
# 
# From -- ./inp_files/27978.got.cif
#   From: 2010.05.17/outbox.cif.g08.bks.cpg/sg52_14_cif.got.tgz:27978.got - 2010.06.03 12:15:38.
