data_PCOD9410755
_publ_section_title
;
Structure prediction by ZEFSAII (Michael W. Deem and Ramdas Pophale) SiO2 
 PCOD9410755
Probable space group: P N N A
;
_chemical_formula_sum "Si O2"
_cell_formula_units_Z 60
_cell_length_a 12.218865
_cell_length_b 7.441347
_cell_length_c 28.268273
_cell_angle_alpha 90.000000
_cell_angle_beta 90.000000
_cell_angle_gamma 90.000000
_cell_volume 2570.287476
_symmetry_space_group_name_H-M "P N N A"
_symmetry_group_IT_number 52
_symmetry_cell_setting 'orthorhombic'
loop_
_space_group_symop_operation_xyz
x,y,z
1/2-x,-y,z
x,1/2-y,1/2-z
1/2-x,1/2+y,1/2-z
-x,-y,-z
1/2+x,y,-z
-x,1/2+y,1/2+z
1/2+x,1/2-y,1/2+z
loop_
_atom_site_type_symbol
_atom_site_label
_atom_site_fract_x
_atom_site_fract_y
_atom_site_fract_z
Si Si1 0.857811 0.083547 0.776221
Si Si2 0.394330 0.686945 0.413699
Si Si3 0.155044 0.725593 0.417771
Si Si4 0.507405 0.750000 0.250000
Si Si5 0.593483 0.666358 0.352673
Si Si6 0.478719 0.753483 0.848525
Si Si7 0.981356 0.792133 0.486967
Si Si8 0.198244 0.178245 0.594398
O O1 0.801930 0.250000 0.750000
O O2 0.951420 0.195594 0.803408
O O3 0.750000 0.000000 0.801971
O O4 0.926856 0.925258 0.750578
O O5 0.278590 0.785975 0.414394
O O6 0.363080 0.481169 0.402586
O O7 0.485015 0.747666 0.377066
O O8 0.444591 0.694915 0.465722
O O9 0.071280 0.824185 0.383534
O O10 0.100787 0.733403 0.469025
O O11 0.581940 0.723676 0.297439
O O12 0.576373 0.450496 0.358157
O O13 0.699744 0.713062 0.383845
O O14 0.375071 0.629109 0.858967
O O15 0.889576 0.757719 0.445713
O O16 0.000000 0.000000 0.500000
O O17 0.250000 0.000000 0.572718
#
# Coordination Sequence:
#
# PCOD9410755 Si02
#       8
#     8   8   8   4   8   8   8   8
#     4  11  23  40  71 103 143 179 235 294 366 423
#     4  10  21  37  66  91 123 169 221 275 331 413
#     4   9  21  39  60  90 119 166 218 272 331 399
#     4  10  24  44  68 108 138 186 236 294 352 434
#     4  10  22  43  69  97 134 175 230 285 353 416
#     4   9  22  42  66  93 130 172 225 285 339 417
#     4  11  24  40  60  89 131 172 219 277 350 412
#     4  11  24  42  64  92 133 181 227 281 351 425
#
# _framework density 23.343695
#
# number of rings (size 3 to 8) (size 9 to 14) (size 15 to 20)
#    0.000    1.867    0.667    1.600   11.200    0.000 
#    6.000    0.000    0.000    0.000    0.000    0.000 
#    0.000    0.000    0.000    0.000    0.000    0.000 
#
# Total GULP energy -334057.613617 kJ/mol
# GULP energy per Si atom -5567.626894 kJ/mol
# Density = 2.329056 g / cm^3
# Si number density = 23.343695 Si / 1000 Ang^3
#
#
#
# Elastic Constant Matrix: (Units=GPa)
#
#
# Indices 1 2 3 4 5 6 
#
# 1 136.1663 -5.0924 38.0090 0.0000 0.0000 0.0000
# 2 -5.0924 40.9566 7.8560 0.0000 0.0000 0.0000
# 3 38.0090 7.8560 106.7022 0.0000 0.0000 0.0000
# 4 0.0000 0.0000 0.0000 0.5922 0.0000 0.0000
# 5 0.0000 0.0000 0.0000 0.0000 20.0959 0.0000
# 6 0.0000 0.0000 0.0000 0.0000 0.0000 26.3120
#
#
#
# Elastic Compliance Matrix: (Units=1/GPa)
#
#
# Indices 1 2 3 4 5 6 
#
# 1 0.008259 0.001614 -0.003061 0.000000 0.000000 0.000000
# 2 0.001614 0.025081 -0.002422 0.000000 0.000000 0.000000
# 3 -0.003061 -0.002422 0.010640 0.000000 0.000000 0.000000
# 4 0.000000 0.000000 0.000000 1.688598 0.000000 0.000000
# 5 0.000000 0.000000 0.000000 0.000000 0.049761 0.000000
# 6 0.000000 0.000000 0.000000 0.000000 0.000000 0.038005
#
#
# Mechanical properties :
#
#
# Convention : Reuss Voigt Hill
#
# Bulk Modulus (GPa) = 27.59094 40.59668 34.09381
# Shear Modulus (GPa) = 2.71715 25.60351 14.16033
#
# Velocity S-wave (km/s) = 1.08005 3.31540 2.46560
# Velocity P-wave (km/s) = 3.66066 5.66431 4.76890
#
# Compressibility (1/GPa) = 0.03624379
#
# Stress axis : x y z
#
# Youngs Moduli (GPa) = 121.08488 39.87042 93.98115
#
# Poissons Ratio (x) = -0.06435 0.28765
# Poissons Ratio (y) = -0.19542 0.22758
# Poissons Ratio (z) = 0.37060 0.09655
#
# Static dielectric constant tensor:
#      x y z
#    x 1.951640 0.000000 0.000000 
#    y 0.000000 10.484700 0.000000 
#    z 0.000000 0.000000 1.966550 
# 
# From -- ./inp_files/42763.got.cif
#   From: 2010.05.17/outbox.cif.g08.bks.cpg/sg52_22_cif.got.tgz:42763.got - 2010.06.03 12:15:38.
