data_PCOD9410921
_publ_section_title
;
Structure prediction by ZEFSAII (Michael W. Deem and Ramdas Pophale) SiO2 
 PCOD9410921
Probable space group: P N N A
;
_chemical_formula_sum "Si O2"
_cell_formula_units_Z 36
_cell_length_a 17.256076
_cell_length_b 8.244353
_cell_length_c 13.049809
_cell_angle_alpha 90.000000
_cell_angle_beta 90.000000
_cell_angle_gamma 90.000000
_cell_volume 1856.533452
_symmetry_space_group_name_H-M "P N N A"
_symmetry_group_IT_number 52
_symmetry_cell_setting 'orthorhombic'
loop_
_space_group_symop_operation_xyz
x,y,z
1/2-x,-y,z
x,1/2-y,1/2-z
1/2-x,1/2+y,1/2-z
-x,-y,-z
1/2+x,y,-z
-x,1/2+y,1/2+z
1/2+x,1/2-y,1/2+z
loop_
_atom_site_type_symbol
_atom_site_label
_atom_site_fract_x
_atom_site_fract_y
_atom_site_fract_z
Si Si1 0.621678 0.558255 0.940407
Si Si2 0.250000 0.500000 0.893796
Si Si3 0.393466 0.250000 0.250000
Si Si4 0.001161 0.682237 0.908367
Si Si5 0.029360 0.011229 0.797959
Si Si6 0.661856 0.250000 0.250000
O O1 0.649639 0.654115 0.840147
O O2 0.587899 0.378501 0.916259
O O3 0.683154 0.560206 0.030255
O O4 0.545243 0.645372 0.986461
O O5 0.285082 0.642024 0.823784
O O6 0.452058 0.381916 0.297544
O O7 0.017521 0.865588 0.876647
O O8 0.034831 0.571830 0.815081
O O9 0.103590 0.127249 0.809689
#
# Coordination Sequence:
#
# PCOD9410921 Si02
#       6
#     8   4   4   8   8   4
#     4  10  21  39  58  87 120 169 198 254 308 373
#     4  12  26  42  60  88 138 164 196 254 330 396
#     4   9  20  38  60  84 115 156 210 252 291 352
#     4   9  18  36  65  88 119 153 205 260 313 352
#     4   9  18  37  63  93 116 148 209 270 303 367
#     4  11  24  38  62  94 123 164 196 264 339 388
#
# _framework density 19.390979000000002
#
# number of rings (size 3 to 8) (size 9 to 14) (size 15 to 20)
#    0.000    2.222    2.222    0.000    6.222    0.889 
#    0.000    4.444    0.000    0.000    0.000    0.000 
#    0.000    0.000    0.000    0.000    0.000    0.000 
#
# Total GULP energy -200758.983725 kJ/mol
# GULP energy per Si atom -5576.638437 kJ/mol
# Density = 1.934684 g / cm^3
# Si number density = 19.390979 Si / 1000 Ang^3
#
#
#
# Elastic Constant Matrix: (Units=GPa)
#
#
# Indices 1 2 3 4 5 6 
#
# 1 45.8442 28.2957 20.2566 0.0000 0.0000 0.0000
# 2 28.2957 119.8641 38.3255 0.0000 0.0000 0.0000
# 3 20.2566 38.3255 80.1422 0.0000 0.0000 0.0000
# 4 0.0000 0.0000 0.0000 40.9262 0.0000 0.0000
# 5 0.0000 0.0000 0.0000 0.0000 17.3862 0.0000
# 6 0.0000 0.0000 0.0000 0.0000 0.0000 16.7912
#
#
#
# Elastic Compliance Matrix: (Units=1/GPa)
#
#
# Indices 1 2 3 4 5 6 
#
# 1 0.026800 -0.004912 -0.004425 0.000000 0.000000 0.000000
# 2 -0.004912 0.010749 -0.003899 0.000000 0.000000 0.000000
# 3 -0.004425 -0.003899 0.015461 0.000000 0.000000 0.000000
# 4 0.000000 0.000000 0.000000 0.024434 0.000000 0.000000
# 5 0.000000 0.000000 0.000000 0.000000 0.057517 0.000000
# 6 0.000000 0.000000 0.000000 0.000000 0.000000 0.059555
#
#
# Mechanical properties :
#
#
# Convention : Reuss Voigt Hill
#
# Bulk Modulus (GPa) = 37.68124 46.62289 42.15206
# Shear Modulus (GPa) = 21.75497 25.61890 23.68694
#
# Velocity S-wave (km/s) = 3.35313 3.63874 3.49885
# Velocity P-wave (km/s) = 5.87076 6.46140 6.17315
#
# Compressibility (1/GPa) = 0.02653841
#
# Stress axis : x y z
#
# Youngs Moduli (GPa) = 37.31374 93.03303 64.67978
#
# Poissons Ratio (x) = 0.45694 0.28621
# Poissons Ratio (y) = 0.18327 0.25218
# Poissons Ratio (z) = 0.16511 0.36272
#
# Static dielectric constant tensor:
#      x y z
#    x 1.713930 0.000000 0.000000 
#    y 0.000000 1.714310 0.000000 
#    z 0.000000 0.000000 1.694020 
# 
# From -- ./inp_files/26820.got.cif
#   From: 2010.05.17/outbox.cif.g08.bks.cpg/sg52_14_cif.got.tgz:26820.got - 2010.06.03 12:15:38.
