data_PCOD9410132
_publ_section_title
;
Structure prediction by ZEFSAII (Michael W. Deem and Ramdas Pophale) SiO2 
 PCOD9410132
Probable space group: P N N A
;
_chemical_formula_sum "Si O2"
_cell_formula_units_Z 40
_cell_length_a 22.968430
_cell_length_b 6.226593
_cell_length_c 12.275165
_cell_angle_alpha 90.000000
_cell_angle_beta 90.000000
_cell_angle_gamma 90.000000
_cell_volume 1755.533526
_symmetry_space_group_name_H-M "P N N A"
_symmetry_group_IT_number 52
_symmetry_cell_setting 'orthorhombic'
loop_
_space_group_symop_operation_xyz
x,y,z
1/2-x,-y,z
x,1/2-y,1/2-z
1/2-x,1/2+y,1/2-z
-x,-y,-z
1/2+x,y,-z
-x,1/2+y,1/2+z
1/2+x,1/2-y,1/2+z
loop_
_atom_site_type_symbol
_atom_site_label
_atom_site_fract_x
_atom_site_fract_y
_atom_site_fract_z
Si Si1 0.555962 0.488852 0.080590
Si Si2 0.188199 0.422755 0.164740
Si Si3 0.494481 0.250000 0.250000
Si Si4 0.250000 0.000000 0.801750
Si Si5 0.659725 0.165286 0.026938
Si Si6 0.604026 0.714323 0.581450
O O1 0.532160 0.443938 0.200486
O O2 0.601262 0.294290 0.059014
O O3 0.500000 0.500000 0.000000
O O4 0.589391 0.698684 0.039923
O O5 0.250000 0.500000 0.209121
O O6 0.164932 0.250000 0.250000
O O7 0.140471 0.605076 0.144718
O O8 0.199295 0.326007 0.043983
O O9 0.453630 0.328322 0.348593
O O10 0.240223 0.750000 0.750000
O O11 0.306089 0.944912 0.875404
O O12 0.642239 0.989889 0.938720
#
# Coordination Sequence:
#
# PCOD9410132 Si02
#       6
#     8   8   4   4   8   8
#     4   9  22  41  65  99 139 185 243 300 377 448
#     4  11  25  39  67 102 140 182 236 296 384 460
#     4  10  20  38  66  96 138 180 232 292 370 454
#     4  12  32  50  80 114 150 208 274 330 398 468
#     4  11  25  46  73  99 148 197 246 325 377 465
#     4  10  22  42  65  96 139 183 237 299 370 453
#
# _framework density 22.785094000000001
#
# number of rings (size 3 to 8) (size 9 to 14) (size 15 to 20)
#    0.000    1.600    0.000    2.400   14.000    3.200 
#    0.000    8.000    0.000    0.000    0.000    0.000 
#    0.000    0.000    0.000    0.000    0.000    0.000 
#
# Total GULP energy -222993.357278 kJ/mol
# GULP energy per Si atom -5574.833932 kJ/mol
# Density = 2.273323 g / cm^3
# Si number density = 22.785094 Si / 1000 Ang^3
#
#
#
# Elastic Constant Matrix: (Units=GPa)
#
#
# Indices 1 2 3 4 5 6 
#
# 1 89.3969 50.2918 41.8259 0.0000 0.0000 0.0000
# 2 50.2918 105.7125 63.4449 0.0000 0.0000 0.0000
# 3 41.8259 63.4449 108.3837 0.0000 0.0000 0.0000
# 4 0.0000 0.0000 0.0000 45.0981 0.0000 0.0000
# 5 0.0000 0.0000 0.0000 0.0000 79.3927 0.0000
# 6 0.0000 0.0000 0.0000 0.0000 0.0000 1.5391
#
#
#
# Elastic Compliance Matrix: (Units=1/GPa)
#
#
# Indices 1 2 3 4 5 6 
#
# 1 0.015737 -0.005923 -0.002606 0.000000 0.000000 0.000000
# 2 -0.005923 0.016812 -0.007556 0.000000 0.000000 0.000000
# 3 -0.002606 -0.007556 0.014655 0.000000 0.000000 0.000000
# 4 0.000000 0.000000 0.000000 0.022174 0.000000 0.000000
# 5 0.000000 0.000000 0.000000 0.000000 0.012596 0.000000
# 6 0.000000 0.000000 0.000000 0.000000 0.000000 0.649710
#
#
# Mechanical properties :
#
#
# Convention : Reuss Voigt Hill
#
# Bulk Modulus (GPa) = 66.51008 68.29091 67.40049
# Shear Modulus (GPa) = 6.50310 35.06801 20.78555
#
# Velocity S-wave (km/s) = 1.69124 3.92736 3.02361
# Velocity P-wave (km/s) = 5.75041 7.11354 6.46798
#
# Compressibility (1/GPa) = 0.01503532
#
# Stress axis : x y z
#
# Youngs Moduli (GPa) = 63.54303 59.48138 68.23589
#
# Poissons Ratio (x) = 0.35230 0.17783
# Poissons Ratio (y) = 0.37636 0.51557
# Poissons Ratio (z) = 0.16560 0.44942
#
# Static dielectric constant tensor:
#      x y z
#    x 1.823160 0.000000 0.000000 
#    y 0.000000 1.884460 0.000000 
#    z 0.000000 0.000000 1.885760 
# 
# From -- ./inp_files/22654.got.cif
#   From: 2010.05.17/outbox.cif.g08.bks.cpg/sg52_12_cif.got.tgz:22654.got - 2010.06.03 12:15:38.
