data_PCOD9410652
_publ_section_title
;
Structure prediction by ZEFSAII (Michael W. Deem and Ramdas Pophale) SiO2 
 PCOD9410652
Probable space group: P N N A
;
_chemical_formula_sum "Si O2"
_cell_formula_units_Z 60
_cell_length_a 11.082383
_cell_length_b 14.881981
_cell_length_c 19.123622
_cell_angle_alpha 90.000000
_cell_angle_beta 90.000000
_cell_angle_gamma 90.000000
_cell_volume 3154.017158
_symmetry_space_group_name_H-M "P N N A"
_symmetry_group_IT_number 52
_symmetry_cell_setting 'orthorhombic'
loop_
_space_group_symop_operation_xyz
x,y,z
1/2-x,-y,z
x,1/2-y,1/2-z
1/2-x,1/2+y,1/2-z
-x,-y,-z
1/2+x,y,-z
-x,1/2+y,1/2+z
1/2+x,1/2-y,1/2+z
loop_
_atom_site_type_symbol
_atom_site_label
_atom_site_fract_x
_atom_site_fract_y
_atom_site_fract_z
Si Si1 0.124828 0.553932 0.478805
Si Si2 0.054242 0.750000 0.250000
Si Si3 0.922151 0.743412 0.672921
Si Si4 0.090483 0.757980 0.960844
Si Si5 0.790628 0.399941 0.675585
Si Si6 0.233810 0.398685 0.120587
Si Si7 0.209223 0.100652 0.537284
Si Si8 0.503678 0.688408 0.896317
O O1 0.250000 0.500000 0.487972
O O2 0.139474 0.642415 0.526212
O O3 0.133196 0.585288 0.396679
O O4 0.000000 0.500000 0.500000
O O5 0.133679 0.661485 0.270110
O O6 0.982887 0.734481 0.178179
O O7 0.978045 0.750000 0.750000
O O8 0.828741 0.660698 0.661959
O O9 0.843017 0.833792 0.668144
O O10 0.014289 0.742978 0.609554
O O11 0.190182 0.678930 0.956717
O O12 0.010219 0.743788 0.031243
O O13 0.750000 0.500000 0.697459
O O14 0.250000 0.500000 0.144266
O O15 0.364730 0.355507 0.109715
O O16 0.170877 0.399301 0.044300
O O17 0.100441 0.118815 0.588862
O O18 0.250000 0.000000 0.550709
#
# Coordination Sequence:
#
# PCOD9410652 Si02
#       8
#     8   4   8   8   8   8   8   8
#     4  11  24  41  72 103 134 180 232 283 343 406
#     4  12  22  40  62  98 126 172 216 264 336 384
#     4  12  23  41  63  97 133 169 222 275 341 388
#     4  11  23  41  67  90 130 173 217 276 323 401
#     4  11  22  41  65  99 135 163 216 282 337 399
#     4  10  21  36  65  96 124 160 207 267 326 387
#     4  10  23  40  63  93 126 169 216 257 324 399
#     4  11  22  38  65  89 127 168 213 265 323 390
#
# _framework density 19.023358999999999
#
# number of rings (size 3 to 8) (size 9 to 14) (size 15 to 20)
#    0.000    1.067    4.667    2.400    3.733    3.733 
#    1.200    0.000    0.000    0.000    0.000    0.000 
#    0.000    0.000    0.000    0.000    0.000    0.000 
#
# Total GULP energy -334619.347494 kJ/mol
# GULP energy per Si atom -5576.989125 kJ/mol
# Density = 1.898006 g / cm^3
# Si number density = 19.023359 Si / 1000 Ang^3
#
#
#
# Elastic Constant Matrix: (Units=GPa)
#
#
# Indices 1 2 3 4 5 6 
#
# 1 34.7025 12.9599 42.3019 0.0000 0.0000 0.0000
# 2 12.9599 119.6027 37.7925 0.0000 0.0000 0.0000
# 3 42.3019 37.7925 154.9496 0.0000 0.0000 0.0000
# 4 0.0000 0.0000 0.0000 26.0766 0.0000 0.0000
# 5 0.0000 0.0000 0.0000 0.0000 29.9677 0.0000
# 6 0.0000 0.0000 0.0000 0.0000 0.0000 11.5602
#
#
#
# Elastic Compliance Matrix: (Units=1/GPa)
#
#
# Indices 1 2 3 4 5 6 
#
# 1 0.043308 -0.001037 -0.011570 0.000000 0.000000 0.000000
# 2 -0.001037 0.009084 -0.001933 0.000000 0.000000 0.000000
# 3 -0.011570 -0.001933 0.010084 0.000000 0.000000 0.000000
# 4 0.000000 0.000000 0.000000 0.038348 0.000000 0.000000
# 5 0.000000 0.000000 0.000000 0.000000 0.033369 0.000000
# 6 0.000000 0.000000 0.000000 0.000000 0.000000 0.086504
#
#
# Mechanical properties :
#
#
# Convention : Reuss Voigt Hill
#
# Bulk Modulus (GPa) = 29.94351 55.04040 42.49195
# Shear Modulus (GPa) = 19.16384 27.93427 23.54905
#
# Velocity S-wave (km/s) = 3.17738 3.83615 3.52220
# Velocity P-wave (km/s) = 5.40699 6.97261 6.23910
#
# Compressibility (1/GPa) = 0.03339622
#
# Stress axis : x y z
#
# Youngs Moduli (GPa) = 23.09067 110.08347 99.16878
#
# Poissons Ratio (x) = 0.11412 1.14741
# Poissons Ratio (y) = 0.02394 0.19165
# Poissons Ratio (z) = 0.26717 0.21275
#
# Static dielectric constant tensor:
#      x y z
#    x 1.637730 0.000000 0.000000 
#    y 0.000000 1.753820 0.000000 
#    z 0.000000 0.000000 1.728430 
# 
# From -- ./inp_files/32380.got.cif
#   From: 2010.05.17/outbox.cif.g08.bks.cpg/sg52_17_cif.got.tgz:32380.got - 2010.06.03 12:15:38.
