data_PCOD9410136
_publ_section_title
;
Structure prediction by ZEFSAII (Michael W. Deem and Ramdas Pophale) SiO2 
 PCOD9410136
Probable space group: P N N A
;
_chemical_formula_sum "Si O2"
_cell_formula_units_Z 60
_cell_length_a 5.430742
_cell_length_b 16.305698
_cell_length_c 28.373756
_cell_angle_alpha 90.000000
_cell_angle_beta 90.000000
_cell_angle_gamma 90.000000
_cell_volume 2512.553947
_symmetry_space_group_name_H-M "P N N A"
_symmetry_group_IT_number 52
_symmetry_cell_setting 'orthorhombic'
loop_
_space_group_symop_operation_xyz
x,y,z
1/2-x,-y,z
x,1/2-y,1/2-z
1/2-x,1/2+y,1/2-z
-x,-y,-z
1/2+x,y,-z
-x,1/2+y,1/2+z
1/2+x,1/2-y,1/2+z
loop_
_atom_site_type_symbol
_atom_site_label
_atom_site_fract_x
_atom_site_fract_y
_atom_site_fract_z
Si Si1 0.993167 0.946555 0.816067
Si Si2 0.404990 0.423455 0.785131
Si Si3 0.250000 0.000000 0.364220
Si Si4 0.926477 0.198081 0.518787
Si Si5 0.663320 0.618461 0.480914
Si Si6 0.034904 0.275882 0.803616
Si Si7 0.166196 0.686133 0.619215
Si Si8 0.770562 0.821745 0.613267
O O1 0.963056 0.903302 0.764039
O O2 0.980518 0.873998 0.853772
O O3 0.250000 0.000000 0.824249
O O4 0.750000 0.000000 0.820981
O O5 0.250000 0.500000 0.766718
O O6 0.542113 0.467851 0.828111
O O7 0.235266 0.349076 0.801493
O O8 0.234916 0.918644 0.395120
O O9 0.670494 0.157409 0.501889
O O10 0.892791 0.288866 0.498268
O O11 0.923502 0.211222 0.574967
O O12 0.391944 0.581768 0.490141
O O13 0.739005 0.633548 0.426640
O O14 0.990585 0.250000 0.750000
O O15 0.140509 0.207316 0.839190
O O16 0.800537 0.309618 0.832007
O O17 0.019761 0.770247 0.605409
#
# Coordination Sequence:
#
# PCOD9410136 Si02
#       8
#     8   8   4   8   8   8   8   8
#     4  11  27  46  69  98 140 183 234 285 355 420
#     4  11  22  42  61  86 136 196 219 276 348 404
#     4  12  24  40  60  96 142 188 230 282 340 424
#     4  10  20  41  67  97 133 176 228 284 350 413
#     4  10  20  38  67 101 130 174 224 281 357 414
#     4  12  25  40  63 105 136 175 247 297 335 409
#     4  12  25  41  73 101 134 180 240 288 348 430
#     4  12  26  39  70 101 137 185 241 285 351 420
#
# _framework density 23.880085000000001
#
# number of rings (size 3 to 8) (size 9 to 14) (size 15 to 20)
#    0.000    0.800    7.333    1.600    1.867    1.600 
#    0.000    0.667    0.000    2.400    0.000    0.000 
#    0.000    0.000    0.000    0.000    0.000    0.000 
#
# Total GULP energy -334503.669544 kJ/mol
# GULP energy per Si atom -5575.061159 kJ/mol
# Density = 2.382573 g / cm^3
# Si number density = 23.880085 Si / 1000 Ang^3
#
#
#
# Elastic Constant Matrix: (Units=GPa)
#
#
# Indices 1 2 3 4 5 6 
#
# 1 117.0315 8.7150 9.6590 0.0000 0.0000 0.0000
# 2 8.7150 40.8927 19.2434 0.0000 0.0000 0.0000
# 3 9.6590 19.2434 118.1839 0.0000 0.0000 0.0000
# 4 0.0000 0.0000 0.0000 53.2849 0.0000 0.0000
# 5 0.0000 0.0000 0.0000 0.0000 18.1509 0.0000
# 6 0.0000 0.0000 0.0000 0.0000 0.0000 24.9015
#
#
#
# Elastic Compliance Matrix: (Units=1/GPa)
#
#
# Indices 1 2 3 4 5 6 
#
# 1 0.008704 -0.001646 -0.000443 0.000000 0.000000 0.000000
# 2 -0.001646 0.026795 -0.004228 0.000000 0.000000 0.000000
# 3 -0.000443 -0.004228 0.009186 0.000000 0.000000 0.000000
# 4 0.000000 0.000000 0.000000 0.018767 0.000000 0.000000
# 5 0.000000 0.000000 0.000000 0.000000 0.055094 0.000000
# 6 0.000000 0.000000 0.000000 0.000000 0.000000 0.040158
#
#
# Mechanical properties :
#
#
# Convention : Reuss Voigt Hill
#
# Bulk Modulus (GPa) = 31.20234 39.03811 35.12022
# Shear Modulus (GPa) = 27.46907 35.16683 31.31795
#
# Velocity S-wave (km/s) = 3.39527 3.84167 3.62535
# Velocity P-wave (km/s) = 5.33527 6.00507 5.68006
#
# Compressibility (1/GPa) = 0.03204888
#
# Stress axis : x y z
#
# Youngs Moduli (GPa) = 114.89106 37.32055 108.86002
#
# Poissons Ratio (x) = 0.06144 0.04826
# Poissons Ratio (y) = 0.18915 0.46030
# Poissons Ratio (z) = 0.05093 0.15780
#
# Static dielectric constant tensor:
#      x y z
#    x 1.413920 0.000000 0.000000 
#    y 0.000000 2.182390 0.000000 
#    z 0.000000 0.000000 1.965710 
# 
# From -- ./inp_files/41813.got.cif
#   From: 2010.05.17/outbox.cif.g08.bks.cpg/sg52_21_cif.got.tgz:41813.got - 2010.06.03 12:15:38.
