data_PCOD9410825
_publ_section_title
;
Structure prediction by ZEFSAII (Michael W. Deem and Ramdas Pophale) SiO2 
 PCOD9410825
Probable space group: P N N A
;
_chemical_formula_sum "Si O2"
_cell_formula_units_Z 52
_cell_length_a 26.591752
_cell_length_b 10.399716
_cell_length_c 9.306696
_cell_angle_alpha 90.000000
_cell_angle_beta 90.000000
_cell_angle_gamma 90.000000
_cell_volume 2573.735776
_symmetry_space_group_name_H-M "P N N A"
_symmetry_group_IT_number 52
_symmetry_cell_setting 'orthorhombic'
loop_
_space_group_symop_operation_xyz
x,y,z
1/2-x,-y,z
x,1/2-y,1/2-z
1/2-x,1/2+y,1/2-z
-x,-y,-z
1/2+x,y,-z
-x,1/2+y,1/2+z
1/2+x,1/2-y,1/2+z
loop_
_atom_site_type_symbol
_atom_site_label
_atom_site_fract_x
_atom_site_fract_y
_atom_site_fract_z
Si Si1 0.242249 0.750000 0.750000
Si Si2 0.817989 0.916037 0.056610
Si Si3 0.211659 0.104085 0.263261
Si Si4 0.977252 0.644942 0.124293
Si Si5 0.630207 0.340703 0.996983
Si Si6 0.657473 0.572864 0.187644
Si Si7 0.456138 0.358405 0.859851
O O1 0.274603 0.844153 0.851027
O O2 0.205010 0.661451 0.844663
O O3 0.859525 0.805761 0.038668
O O4 0.838049 0.036977 0.144404
O O5 0.800532 0.945123 0.896375
O O6 0.233014 0.250000 0.250000
O O7 0.159761 0.123924 0.351707
O O8 0.250000 0.000000 0.329361
O O9 0.971919 0.750000 0.250000
O O10 0.928980 0.641736 0.016860
O O11 0.976894 0.499383 0.184001
O O12 0.024590 0.667505 0.020945
O O13 0.656986 0.435210 0.110477
O O14 0.604382 0.634763 0.147706
O O15 0.473839 0.250000 0.750000
#
# Coordination Sequence:
#
# PCOD9410825 Si02
#       7
#     4   8   8   8   8   8   8
#     4  12  22  32  64  90 120 168 206 262 300 380
#     4  11  22  37  59  91 119 169 215 250 310 379
#     4  10  23  38  56  84 126 163 209 256 312 378
#     4  10  22  43  70  93 128 168 217 268 325 394
#     4  10  21  38  62  87 120 167 208 261 313 373
#     4  11  21  38  60  89 128 156 211 259 313 372
#     4  10  22  42  65  97 128 163 211 269 328 377
#
# _framework density 20.204094000000001
#
# number of rings (size 3 to 8) (size 9 to 14) (size 15 to 20)
#    0.000    1.538    2.308    3.231    4.308    2.462 
#    0.000    4.615    0.000    0.000    0.000    0.000 
#    0.000    0.000    0.000    0.000    0.000    0.000 
#
# Total GULP energy -290161.052860 kJ/mol
# GULP energy per Si atom -5580.020247 kJ/mol
# Density = 2.015811 g / cm^3
# Si number density = 20.204094 Si / 1000 Ang^3
#
#
#
# Elastic Constant Matrix: (Units=GPa)
#
#
# Indices 1 2 3 4 5 6 
#
# 1 100.3664 33.8403 51.8945 0.0000 0.0000 0.0000
# 2 33.8403 80.9288 28.8439 0.0000 0.0000 0.0000
# 3 51.8945 28.8439 92.1013 0.0000 0.0000 0.0000
# 4 0.0000 0.0000 0.0000 25.4928 0.0000 0.0000
# 5 0.0000 0.0000 0.0000 0.0000 19.6210 0.0000
# 6 0.0000 0.0000 0.0000 0.0000 0.0000 17.2487
#
#
#
# Elastic Compliance Matrix: (Units=1/GPa)
#
#
# Indices 1 2 3 4 5 6 
#
# 1 0.014965 -0.003661 -0.007285 0.000000 0.000000 0.000000
# 2 -0.003661 0.014805 -0.002574 0.000000 0.000000 0.000000
# 3 -0.007285 -0.002574 0.015769 0.000000 0.000000 0.000000
# 4 0.000000 0.000000 0.000000 0.039227 0.000000 0.000000
# 5 0.000000 0.000000 0.000000 0.000000 0.050966 0.000000
# 6 0.000000 0.000000 0.000000 0.000000 0.000000 0.057975
#
#
# Mechanical properties :
#
#
# Convention : Reuss Voigt Hill
#
# Bulk Modulus (GPa) = 54.05997 55.83929 54.94963
# Shear Modulus (GPa) = 22.03499 23.06036 22.54767
#
# Velocity S-wave (km/s) = 3.30604 3.38208 3.34428
# Velocity P-wave (km/s) = 6.43337 6.55354 6.49373
#
# Compressibility (1/GPa) = 0.01849798
#
# Stress axis : x y z
#
# Youngs Moduli (GPa) = 66.82373 67.54636 63.41724
#
# Poissons Ratio (x) = 0.24728 0.46202
# Poissons Ratio (y) = 0.24464 0.16322
# Poissons Ratio (z) = 0.48684 0.17385
#
# Static dielectric constant tensor:
#      x y z
#    x 1.740020 0.000000 0.000000 
#    y 0.000000 1.744400 0.000000 
#    z 0.000000 0.000000 1.727590 
# 
# From -- ./inp_files/15659.got.cif
#   From: 2010.05.17/outbox.cif.g08.bks.cpg/sg52_8_cif.got.tgz:15659.got - 2010.06.03 12:15:38.
