data_PCOD9410399
_publ_section_title
;
Structure prediction by ZEFSAII (Michael W. Deem and Ramdas Pophale) SiO2 
 PCOD9410399
Probable space group: P N N A
;
_chemical_formula_sum "Si O2"
_cell_formula_units_Z 56
_cell_length_a 20.100022
_cell_length_b 15.404723
_cell_length_c 8.720976
_cell_angle_alpha 90.000000
_cell_angle_beta 90.000000
_cell_angle_gamma 90.000000
_cell_volume 2700.321769
_symmetry_space_group_name_H-M "P N N A"
_symmetry_group_IT_number 52
_symmetry_cell_setting 'orthorhombic'
loop_
_space_group_symop_operation_xyz
x,y,z
1/2-x,-y,z
x,1/2-y,1/2-z
1/2-x,1/2+y,1/2-z
-x,-y,-z
1/2+x,y,-z
-x,1/2+y,1/2+z
1/2+x,1/2-y,1/2+z
loop_
_atom_site_type_symbol
_atom_site_label
_atom_site_fract_x
_atom_site_fract_y
_atom_site_fract_z
Si Si1 0.184076 0.253953 0.076399
Si Si2 0.702426 0.648318 0.086848
Si Si3 0.723347 0.404456 0.370038
Si Si4 0.878854 0.512592 0.143040
Si Si5 0.480276 0.074746 0.881091
Si Si6 0.072278 0.751909 0.565057
Si Si7 0.051789 0.361391 0.087866
O O1 0.206774 0.250000 0.250000
O O2 0.108469 0.287783 0.076897
O O3 0.229954 0.324888 0.993452
O O4 0.196673 0.161719 0.995795
O O5 0.719520 0.643730 0.269272
O O6 0.672322 0.552976 0.061011
O O7 0.645528 0.714331 0.031081
O O8 0.750000 0.500000 0.420083
O O9 0.664126 0.424358 0.250747
O O10 0.925075 0.459482 0.260988
O O11 0.922857 0.560857 0.017891
O O12 0.449928 0.155319 0.976912
O O13 0.537895 0.108745 0.763881
O O14 0.500000 0.000000 0.000000
O O15 0.068857 0.750000 0.750000
O O16 0.016161 0.821226 0.520473
#
# Coordination Sequence:
#
# PCOD9410399 Si02
#       7
#     8   8   8   8   8   8   8
#     4  12  26  44  67 101 145 179 224 292 357 416
#     4  11  22  45  71  94 133 182 237 273 343 419
#     4  10  24  43  72 102 130 183 240 279 339 426
#     4  11  23  43  71 103 130 183 230 291 336 418
#     4  11  25  43  69 102 137 181 233 288 351 411
#     4  10  20  41  70  92 126 178 221 274 335 405
#     4  11  24  44  70  98 139 177 225 286 352 407
#
# _framework density 20.738268999999999
#
# number of rings (size 3 to 8) (size 9 to 14) (size 15 to 20)
#    0.000    1.143    4.286    3.000    6.000    0.000 
#    5.143    0.000    0.000    0.000    0.000    0.000 
#    0.000    0.000    0.000    0.000    0.000    0.000 
#
# Total GULP energy -312736.238813 kJ/mol
# GULP energy per Si atom -5584.575693 kJ/mol
# Density = 2.069107 g / cm^3
# Si number density = 20.738269 Si / 1000 Ang^3
#
#
#
# Elastic Constant Matrix: (Units=GPa)
#
#
# Indices 1 2 3 4 5 6 
#
# 1 117.4135 52.5315 33.8624 0.0000 0.0000 0.0000
# 2 52.5315 116.8232 54.6084 0.0000 0.0000 0.0000
# 3 33.8624 54.6084 61.0871 0.0000 0.0000 0.0000
# 4 0.0000 0.0000 0.0000 43.4682 0.0000 0.0000
# 5 0.0000 0.0000 0.0000 0.0000 24.0003 0.0000
# 6 0.0000 0.0000 0.0000 0.0000 0.0000 47.3488
#
#
#
# Elastic Compliance Matrix: (Units=1/GPa)
#
#
# Indices 1 2 3 4 5 6 
#
# 1 0.010946 -0.003583 -0.002865 0.000000 0.000000 0.000000
# 2 -0.003583 0.015877 -0.012207 0.000000 0.000000 0.000000
# 3 -0.002865 -0.012207 0.028871 0.000000 0.000000 0.000000
# 4 0.000000 0.000000 0.000000 0.023005 0.000000 0.000000
# 5 0.000000 0.000000 0.000000 0.000000 0.041666 0.000000
# 6 0.000000 0.000000 0.000000 0.000000 0.000000 0.021120
#
#
# Mechanical properties :
#
#
# Convention : Reuss Voigt Hill
#
# Bulk Modulus (GPa) = 54.39485 64.14759 59.27122
# Shear Modulus (GPa) = 27.03820 33.25156 30.14488
#
# Velocity S-wave (km/s) = 3.61471 4.00858 3.81673
# Velocity P-wave (km/s) = 6.61118 7.24045 6.93296
#
# Compressibility (1/GPa) = 0.01838409
#
# Stress axis : x y z
#
# Youngs Moduli (GPa) = 91.35610 62.98299 34.63725
#
# Poissons Ratio (x) = 0.22567 0.09923
# Poissons Ratio (y) = 0.32733 0.42282
# Poissons Ratio (z) = 0.26172 0.76885
#
# Static dielectric constant tensor:
#      x y z
#    x 1.786560 0.000000 0.000000 
#    y 0.000000 1.819220 0.000000 
#    z 0.000000 0.000000 1.714660 
# 
# From -- ./inp_files/13472.got.cif
#   From: 2010.05.17/outbox.cif.g08.bks.cpg/sg52_7_cif.got.tgz:13472.got - 2010.06.03 12:15:38.
