data_PCOD9410624
_publ_section_title
;
Structure prediction by ZEFSAII (Michael W. Deem and Ramdas Pophale) SiO2 
 PCOD9410624
Probable space group: P N N A
;
_chemical_formula_sum "Si O2"
_cell_formula_units_Z 60
_cell_length_a 14.335313
_cell_length_b 11.932810
_cell_length_c 18.813804
_cell_angle_alpha 90.000000
_cell_angle_beta 90.000000
_cell_angle_gamma 90.000000
_cell_volume 3218.299967
_symmetry_space_group_name_H-M "P N N A"
_symmetry_group_IT_number 52
_symmetry_cell_setting 'orthorhombic'
loop_
_space_group_symop_operation_xyz
x,y,z
1/2-x,-y,z
x,1/2-y,1/2-z
1/2-x,1/2+y,1/2-z
-x,-y,-z
1/2+x,y,-z
-x,1/2+y,1/2+z
1/2+x,1/2-y,1/2+z
loop_
_atom_site_type_symbol
_atom_site_label
_atom_site_fract_x
_atom_site_fract_y
_atom_site_fract_z
Si Si1 0.803581 0.162359 0.140491
Si Si2 0.109784 0.369426 0.712302
Si Si3 0.049609 0.907943 0.449938
Si Si4 0.016742 0.159685 0.937345
Si Si5 0.041223 0.750000 0.750000
Si Si6 0.814466 0.108075 0.430248
Si Si7 0.519913 0.537360 0.175577
Si Si8 0.852506 0.480351 0.498130
O O1 0.716357 0.118725 0.185850
O O2 0.889043 0.193509 0.192204
O O3 0.771847 0.277153 0.100367
O O4 0.836865 0.078729 0.078805
O O5 0.104479 0.250000 0.750000
O O6 0.045479 0.366437 0.642915
O O7 0.073487 0.461565 0.767053
O O8 0.146119 0.880197 0.489908
O O9 0.991603 0.792508 0.448158
O O10 0.000000 0.000000 0.500000
O O11 0.050083 0.962943 0.371741
O O12 0.093927 0.097353 0.985641
O O13 0.919495 0.100609 0.957570
O O14 0.983929 0.649546 0.785984
O O15 0.901901 0.082335 0.379087
O O16 0.750000 0.000000 0.425972
O O17 0.750000 0.500000 0.528787
#
# Coordination Sequence:
#
# PCOD9410624 Si02
#       8
#     8   8   8   8   4   8   8   8
#     4  11  21  35  53  89 126 159 193 241 305 375
#     4  12  21  35  60  90 126 156 192 241 310 377
#     4  10  21  39  57  80 121 160 205 252 296 364
#     4  11  23  39  59  90 119 164 208 248 309 367
#     4  10  22  32  50  82 124 158 192 228 300 372
#     4  10  21  36  59  85 119 161 207 249 303 360
#     4  10  22  36  55  84 119 159 195 243 304 367
#     4  11  23  39  61  84 123 164 209 257 299 365
#
# _framework density 18.643383
#
# number of rings (size 3 to 8) (size 9 to 14) (size 15 to 20)
#    0.000    1.333    4.667    1.600    3.733    0.000 
#    0.000    0.000    0.000    0.800    0.000    0.000 
#    0.000    0.000    0.000    0.000    0.000    0.000 
#
# Total GULP energy -334989.705492 kJ/mol
# GULP energy per Si atom -5583.161758 kJ/mol
# Density = 1.860095 g / cm^3
# Si number density = 18.643383 Si / 1000 Ang^3
#
#
#
# Elastic Constant Matrix: (Units=GPa)
#
#
# Indices 1 2 3 4 5 6 
#
# 1 48.6960 19.6552 20.7759 0.0000 0.0000 0.0000
# 2 19.6552 138.2467 42.9696 0.0000 0.0000 0.0000
# 3 20.7759 42.9696 75.1357 0.0000 0.0000 0.0000
# 4 0.0000 0.0000 0.0000 28.2897 0.0000 0.0000
# 5 0.0000 0.0000 0.0000 0.0000 15.1386 0.0000
# 6 0.0000 0.0000 0.0000 0.0000 0.0000 11.0082
#
#
#
# Elastic Compliance Matrix: (Units=1/GPa)
#
#
# Indices 1 2 3 4 5 6 
#
# 1 0.023574 -0.001612 -0.005597 0.000000 0.000000 0.000000
# 2 -0.001612 0.008907 -0.004648 0.000000 0.000000 0.000000
# 3 -0.005597 -0.004648 0.017515 0.000000 0.000000 0.000000
# 4 0.000000 0.000000 0.000000 0.035349 0.000000 0.000000
# 5 0.000000 0.000000 0.000000 0.000000 0.066057 0.000000
# 6 0.000000 0.000000 0.000000 0.000000 0.000000 0.090841
#
#
# Mechanical properties :
#
#
# Convention : Reuss Voigt Hill
#
# Bulk Modulus (GPa) = 38.04800 47.65331 42.85065
# Shear Modulus (GPa) = 18.20050 22.79914 20.49982
#
# Velocity S-wave (km/s) = 3.12788 3.50080 3.31958
# Velocity P-wave (km/s) = 5.78770 6.47740 6.14224
#
# Compressibility (1/GPa) = 0.02628259
#
# Stress axis : x y z
#
# Youngs Moduli (GPa) = 42.41964 112.26575 57.09353
#
# Poissons Ratio (x) = 0.18099 0.31953
# Poissons Ratio (y) = 0.06839 0.26539
# Poissons Ratio (z) = 0.23740 0.52185
#
# Static dielectric constant tensor:
#      x y z
#    x 1.635210 0.000000 0.000000 
#    y 0.000000 1.702920 0.000000 
#    z 0.000000 0.000000 1.667420 
# 
# From -- ./inp_files/33249.got.cif
#   From: 2010.05.17/outbox.cif.g08.bks.cpg/sg52_17_cif.got.tgz:33249.got - 2010.06.03 12:15:38.
