data_PCOD9410827
_publ_section_title
;
Structure prediction by ZEFSAII (Michael W. Deem and Ramdas Pophale) SiO2 
 PCOD9410827
Probable space group: P N N A
;
_chemical_formula_sum "Si O2"
_cell_formula_units_Z 48
_cell_length_a 13.393442
_cell_length_b 26.587384
_cell_length_c 6.793542
_cell_angle_alpha 90.000000
_cell_angle_beta 90.000000
_cell_angle_gamma 90.000000
_cell_volume 2419.157110
_symmetry_space_group_name_H-M "P N N A"
_symmetry_group_IT_number 52
_symmetry_cell_setting 'orthorhombic'
loop_
_space_group_symop_operation_xyz
x,y,z
1/2-x,-y,z
x,1/2-y,1/2-z
1/2-x,1/2+y,1/2-z
-x,-y,-z
1/2+x,y,-z
-x,1/2+y,1/2+z
1/2+x,1/2-y,1/2+z
loop_
_atom_site_type_symbol
_atom_site_label
_atom_site_fract_x
_atom_site_fract_y
_atom_site_fract_z
Si Si1 0.027601 0.303292 0.762026
Si Si2 0.463306 0.975123 0.197228
Si Si3 0.345537 0.468509 0.982184
Si Si4 0.946845 0.858643 0.850234
Si Si5 0.305370 0.705666 0.088543
Si Si6 0.380304 0.145988 0.542372
O O1 0.969549 0.250000 0.750000
O O2 0.055745 0.328095 0.554399
O O3 0.961958 0.345012 0.872617
O O4 0.117858 0.287308 0.907534
O O5 0.558923 0.974005 0.341053
O O6 0.433175 0.918382 0.143159
O O7 0.378953 0.007047 0.310163
O O8 0.500000 0.000000 0.000000
O O9 0.250000 0.500000 0.911707
O O10 0.329818 0.408547 0.983688
O O11 0.858700 0.838019 0.713809
O O12 0.054371 0.849750 0.742132
O O13 0.295946 0.750000 0.250000
O O14 0.202833 0.688060 0.990832
#
# Coordination Sequence:
#
# PCOD9410827 Si02
#       6
#     8   8   8   8   8   8
#     4  11  22  41  61  86 126 163 204 260 306 371
#     4  10  21  38  62  88 119 163 208 252 307 370
#     4  10  21  39  60  89 125 159 201 259 313 363
#     4  10  22  40  62  89 123 162 206 252 313 370
#     4  11  22  41  62  92 120 160 208 252 313 368
#     4  10  23  38  61  90 123 161 205 256 313 376
#
# _framework density 19.841621
#
# number of rings (size 3 to 8) (size 9 to 14) (size 15 to 20)
#    0.000    1.667    1.667    2.500    0.000    6.000 
#    3.000    3.333    0.000    0.000    0.000    0.000 
#    0.000    0.000    0.000    0.000    0.000    0.000 
#
# Total GULP energy -267704.253314 kJ/mol
# GULP energy per Si atom -5577.171944 kJ/mol
# Density = 1.979646 g / cm^3
# Si number density = 19.841621 Si / 1000 Ang^3
#
#
#
# Elastic Constant Matrix: (Units=GPa)
#
#
# Indices 1 2 3 4 5 6 
#
# 1 43.2961 8.4610 -12.1991 0.0000 0.0000 0.0000
# 2 8.4610 82.1470 34.6661 0.0000 0.0000 0.0000
# 3 -12.1991 34.6661 88.0897 0.0000 0.0000 0.0000
# 4 0.0000 0.0000 0.0000 32.3971 0.0000 0.0000
# 5 0.0000 0.0000 0.0000 0.0000 3.7827 0.0000
# 6 0.0000 0.0000 0.0000 0.0000 0.0000 17.2261
#
#
#
# Elastic Compliance Matrix: (Units=1/GPa)
#
#
# Indices 1 2 3 4 5 6 
#
# 1 0.025615 -0.004959 0.005499 0.000000 0.000000 0.000000
# 2 -0.004959 0.015557 -0.006809 0.000000 0.000000 0.000000
# 3 0.005499 -0.006809 0.014793 0.000000 0.000000 0.000000
# 4 0.000000 0.000000 0.000000 0.030867 0.000000 0.000000
# 5 0.000000 0.000000 0.000000 0.000000 0.264362 0.000000
# 6 0.000000 0.000000 0.000000 0.000000 0.000000 0.058051
#
#
# Mechanical properties :
#
#
# Convention : Reuss Voigt Hill
#
# Bulk Modulus (GPa) = 23.02689 30.59878 26.81283
# Shear Modulus (GPa) = 11.46105 22.85482 17.15794
#
# Velocity S-wave (km/s) = 2.40599 3.39759 2.94384
# Velocity P-wave (km/s) = 4.39874 5.55396 5.00976
#
# Compressibility (1/GPa) = 0.04342749
#
# Stress axis : x y z
#
# Youngs Moduli (GPa) = 39.03942 64.27772 67.59884
#
# Poissons Ratio (x) = 0.31874 -0.37171
# Poissons Ratio (y) = 0.19359 0.46029
# Poissons Ratio (z) = -0.21467 0.43767
#
# Static dielectric constant tensor:
#      x y z
#    x 1.711000 0.000000 0.000000 
#    y 0.000000 1.764590 0.000000 
#    z 0.000000 0.000000 1.693290 
# 
# From -- ./inp_files/2470.got.cif
#   From: 2010.05.17/outbox.cif.g08.bks.cpg/sg52_2_cif.got.tgz:2470.got - 2010.06.03 12:15:38.
