data_PCOD9410614
_publ_section_title
;
Structure prediction by ZEFSAII (Michael W. Deem and Ramdas Pophale) SiO2 
 PCOD9410614
Probable space group: P N N A
;
_chemical_formula_sum "Si O2"
_cell_formula_units_Z 64
_cell_length_a 9.376977
_cell_length_b 20.435902
_cell_length_c 16.698209
_cell_angle_alpha 90.000000
_cell_angle_beta 90.000000
_cell_angle_gamma 90.000000
_cell_volume 3199.827413
_symmetry_space_group_name_H-M "P N N A"
_symmetry_group_IT_number 52
_symmetry_cell_setting 'orthorhombic'
loop_
_space_group_symop_operation_xyz
x,y,z
1/2-x,-y,z
x,1/2-y,1/2-z
1/2-x,1/2+y,1/2-z
-x,-y,-z
1/2+x,y,-z
-x,1/2+y,1/2+z
1/2+x,1/2-y,1/2+z
loop_
_atom_site_type_symbol
_atom_site_label
_atom_site_fract_x
_atom_site_fract_y
_atom_site_fract_z
Si Si1 0.244628 0.571915 0.771465
Si Si2 0.755065 0.073992 0.523979
Si Si3 0.953498 0.878387 0.399099
Si Si4 0.693077 0.301917 0.321365
Si Si5 0.958000 0.881243 0.655022
Si Si6 0.417955 0.260829 0.380615
Si Si7 0.069515 0.747230 0.571113
Si Si8 0.620528 0.194123 0.806072
O O1 0.250000 0.500000 0.735689
O O2 0.385295 0.582435 0.825626
O O3 0.239282 0.631089 0.708790
O O4 0.103958 0.581151 0.826089
O O5 0.680425 0.123555 0.461096
O O6 0.654094 0.079377 0.601781
O O7 0.914989 0.090884 0.551258
O O8 0.750000 0.000000 0.491458
O O9 0.017477 0.811227 0.363606
O O10 0.697877 0.250000 0.250000
O O11 0.532545 0.312274 0.349175
O O12 0.776834 0.266388 0.392005
O O13 0.002768 0.815949 0.603348
O O14 0.885096 0.863644 0.741167
O O15 0.415295 0.259129 0.476641
O O16 0.271277 0.277336 0.336237
O O17 0.971138 0.691686 0.613201
O O18 0.548661 0.250000 0.750000
#
# Coordination Sequence:
#
# PCOD9410614 Si02
#       8
#     8   8   8   8   8   8   8   8
#     4  12  25  43  66  94 130 176 223 266 324 394
#     4  12  25  40  58  90 136 183 219 254 312 398
#     4  12  24  39  63  92 134 176 217 263 317 389
#     4  12  22  40  65  93 126 165 214 272 323 383
#     4  11  21  41  64  88 131 176 213 264 328 388
#     4  12  24  35  63  96 130 156 213 274 332 378
#     4  11  20  39  62  91 123 167 206 263 328 389
#     4  10  21  36  57  89 124 164 205 261 322 379
#
# _framework density 20.001079000000001
#
# number of rings (size 3 to 8) (size 9 to 14) (size 15 to 20)
#    0.000    0.500    5.000    5.250    3.500    0.000 
#    0.000    0.000    0.000    0.750    0.000    0.000 
#    0.000    0.000    0.000    0.000    0.000    0.000 
#
# Total GULP energy -357418.130005 kJ/mol
# GULP energy per Si atom -5584.658281 kJ/mol
# Density = 1.995556 g / cm^3
# Si number density = 20.001079 Si / 1000 Ang^3
#
#
#
# Elastic Constant Matrix: (Units=GPa)
#
#
# Indices 1 2 3 4 5 6 
#
# 1 104.0423 20.8774 29.5147 0.0000 0.0000 0.0000
# 2 20.8774 70.7226 35.2806 0.0000 0.0000 0.0000
# 3 29.5147 35.2806 81.6481 0.0000 0.0000 0.0000
# 4 0.0000 0.0000 0.0000 21.4428 0.0000 0.0000
# 5 0.0000 0.0000 0.0000 0.0000 39.0811 0.0000
# 6 0.0000 0.0000 0.0000 0.0000 0.0000 16.3970
#
#
#
# Elastic Compliance Matrix: (Units=1/GPa)
#
#
# Indices 1 2 3 4 5 6 
#
# 1 0.010848 -0.001589 -0.003235 0.000000 0.000000 0.000000
# 2 -0.001589 0.018258 -0.007315 0.000000 0.000000 0.000000
# 3 -0.003235 -0.007315 0.016578 0.000000 0.000000 0.000000
# 4 0.000000 0.000000 0.000000 0.046636 0.000000 0.000000
# 5 0.000000 0.000000 0.000000 0.000000 0.025588 0.000000
# 6 0.000000 0.000000 0.000000 0.000000 0.000000 0.060987
#
#
# Mechanical properties :
#
#
# Convention : Reuss Voigt Hill
#
# Bulk Modulus (GPa) = 46.71457 47.52870 47.12163
# Shear Modulus (GPa) = 23.77478 26.76686 25.27082
#
# Velocity S-wave (km/s) = 3.45146 3.66221 3.55839
# Velocity P-wave (km/s) = 6.26818 6.45732 6.36346
#
# Compressibility (1/GPa) = 0.02140660
#
# Stress axis : x y z
#
# Youngs Moduli (GPa) = 92.18349 54.77087 60.32109
#
# Poissons Ratio (x) = 0.08701 0.19514
# Poissons Ratio (y) = 0.14644 0.44125
# Poissons Ratio (z) = 0.29821 0.40065
#
# Static dielectric constant tensor:
#      x y z
#    x 1.763990 0.000000 0.000000 
#    y 0.000000 1.725100 0.000000 
#    z 0.000000 0.000000 1.739640 
# 
# From -- ./inp_files/25152.got.cif
#   From: 2010.05.17/outbox.cif.g08.bks.cpg/sg52_13_cif.got.tgz:25152.got - 2010.06.03 12:15:38.
