data_PCOD9410537
_publ_section_title
;
Structure prediction by ZEFSAII (Michael W. Deem and Ramdas Pophale) SiO2 
 PCOD9410537
Probable space group: P N N A
;
_chemical_formula_sum "Si O2"
_cell_formula_units_Z 44
_cell_length_a 20.080231
_cell_length_b 5.626480
_cell_length_c 23.245844
_cell_angle_alpha 90.000000
_cell_angle_beta 90.000000
_cell_angle_gamma 90.000000
_cell_volume 2626.339122
_symmetry_space_group_name_H-M "P N N A"
_symmetry_group_IT_number 52
_symmetry_cell_setting 'orthorhombic'
loop_
_space_group_symop_operation_xyz
x,y,z
1/2-x,-y,z
x,1/2-y,1/2-z
1/2-x,1/2+y,1/2-z
-x,-y,-z
1/2+x,y,-z
-x,1/2+y,1/2+z
1/2+x,1/2-y,1/2+z
loop_
_atom_site_type_symbol
_atom_site_label
_atom_site_fract_x
_atom_site_fract_y
_atom_site_fract_z
Si Si1 0.543455 0.501679 0.586363
Si Si2 0.376498 0.250021 0.314017
Si Si3 0.250000 0.500000 0.355455
Si Si4 0.347416 0.627982 0.100743
Si Si5 0.100209 0.522401 0.541564
Si Si6 0.171871 0.494568 0.973412
O O1 0.571735 0.665460 0.637244
O O2 0.580797 0.252854 0.596931
O O3 0.464294 0.497408 0.582306
O O4 0.570841 0.564131 0.522873
O O5 0.403799 0.250000 0.250000
O O6 0.311240 0.414503 0.317049
O O7 0.348065 0.006032 0.339015
O O8 0.285890 0.690309 0.396505
O O9 0.337540 0.481205 0.042656
O O10 0.139642 0.267498 0.541057
O O11 0.139713 0.767149 0.553935
O O12 0.250000 0.500000 0.960281
#
# Coordination Sequence:
#
# PCOD9410537 Si02
#       6
#     8   8   4   8   8   8
#     4   9  21  35  51  75 100 142 188 214 271 311
#     4  11  22  34  51  71 103 142 189 234 266 309
#     4  10  22  32  46  72  98 150 182 232 262 304
#     4  10  21  34  52  70 109 143 191 223 265 313
#     4  10  21  35  56  78 107 144 177 222 264 329
#     4  11  21  33  56  82 111 139 177 218 274 325
#
# _framework density 16.753357000000001
#
# number of rings (size 3 to 8) (size 9 to 14) (size 15 to 20)
#    0.000    1.818    1.818    2.182   10.182    4.364 
#    0.000    0.000    0.000    0.000    0.000    0.000 
#    0.000    2.909    0.000    0.000    0.000    0.000 
#
# Total GULP energy -245010.406465 kJ/mol
# GULP energy per Si atom -5568.418329 kJ/mol
# Density = 1.671523 g / cm^3
# Si number density = 16.753357 Si / 1000 Ang^3
#
#
#
# Elastic Constant Matrix: (Units=GPa)
#
#
# Indices 1 2 3 4 5 6 
#
# 1 129.6572 66.7771 37.0730 0.0000 0.0000 0.0000
# 2 66.7771 92.6689 21.4449 0.0000 0.0000 0.0000
# 3 37.0730 21.4449 57.8347 0.0000 0.0000 0.0000
# 4 0.0000 0.0000 0.0000 7.3531 0.0000 0.0000
# 5 0.0000 0.0000 0.0000 0.0000 13.9065 0.0000
# 6 0.0000 0.0000 0.0000 0.0000 0.0000 5.2205
#
#
#
# Elastic Compliance Matrix: (Units=1/GPa)
#
#
# Indices 1 2 3 4 5 6 
#
# 1 0.013756 -0.008611 -0.005625 0.000000 0.000000 0.000000
# 2 -0.008611 0.017194 -0.000856 0.000000 0.000000 0.000000
# 3 -0.005625 -0.000856 0.021214 0.000000 0.000000 0.000000
# 4 0.000000 0.000000 0.000000 0.135997 0.000000 0.000000
# 5 0.000000 0.000000 0.000000 0.000000 0.071909 0.000000
# 6 0.000000 0.000000 0.000000 0.000000 0.000000 0.191551
#
#
# Mechanical properties :
#
#
# Convention : Reuss Voigt Hill
#
# Bulk Modulus (GPa) = 45.49478 58.97232 52.23355
# Shear Modulus (GPa) = 10.22224 15.62042 12.92133
#
# Velocity S-wave (km/s) = 2.47282 3.05679 2.78018
# Velocity P-wave (km/s) = 5.94708 6.90908 6.44605
#
# Compressibility (1/GPa) = 0.02198054
#
# Stress axis : x y z
#
# Youngs Moduli (GPa) = 72.69718 58.15975 47.13953
#
# Poissons Ratio (x) = 0.50079 0.26515
# Poissons Ratio (y) = 0.62597 0.04035
# Poissons Ratio (z) = 0.40891 0.04978
#
# Static dielectric constant tensor:
#      x y z
#    x 1.569690 0.000000 0.000000 
#    y 0.000000 1.693190 0.000000 
#    z 0.000000 0.000000 1.548880 
# 
# From -- ./inp_files/37793.got.cif
#   From: 2010.05.17/outbox.cif.g08.bks.cpg/sg52_19_cif.got.tgz:37793.got - 2010.06.03 12:15:38.
