data_PCOD9410657
_publ_section_title
;
Structure prediction by ZEFSAII (Michael W. Deem and Ramdas Pophale) SiO2 
 PCOD9410657
Probable space group: P N N A
;
_chemical_formula_sum "Si O2"
_cell_formula_units_Z 48
_cell_length_a 13.930686
_cell_length_b 14.234234
_cell_length_c 10.913436
_cell_angle_alpha 90.000000
_cell_angle_beta 90.000000
_cell_angle_gamma 90.000000
_cell_volume 2164.054083
_symmetry_space_group_name_H-M "P N N A"
_symmetry_group_IT_number 52
_symmetry_cell_setting 'orthorhombic'
loop_
_space_group_symop_operation_xyz
x,y,z
1/2-x,-y,z
x,1/2-y,1/2-z
1/2-x,1/2+y,1/2-z
-x,-y,-z
1/2+x,y,-z
-x,1/2+y,1/2+z
1/2+x,1/2-y,1/2+z
loop_
_atom_site_type_symbol
_atom_site_label
_atom_site_fract_x
_atom_site_fract_y
_atom_site_fract_z
Si Si1 0.053941 0.603304 0.512148
Si Si2 0.743061 0.855177 0.491627
Si Si3 0.278387 0.391449 0.713209
Si Si4 0.352381 0.671752 0.500842
Si Si5 0.351099 0.001735 0.180163
Si Si6 0.402052 0.496880 0.070086
O O1 0.125504 0.612958 0.627732
O O2 0.119640 0.595081 0.391466
O O3 0.000000 0.500000 0.500000
O O4 0.968232 0.678407 0.504624
O O5 0.714753 0.846713 0.347837
O O6 0.790926 0.760455 0.541599
O O7 0.828581 0.930700 0.507160
O O8 0.649826 0.895593 0.559682
O O9 0.250000 0.500000 0.731041
O O10 0.189813 0.349815 0.634896
O O11 0.334344 0.580459 0.417570
O O12 0.423533 0.978912 0.288164
O O13 0.250000 0.000000 0.249430
O O14 0.500000 0.500000 0.000000
#
# Coordination Sequence:
#
# PCOD9410657 Si02
#       6
#     8   8   8   8   8   8
#     4  10  21  36  71 100 124 172 231 278 345 407
#     4  11  26  44  63  99 145 179 227 295 361 415
#     4  12  20  41  70  99 138 184 222 287 352 434
#     4  11  24  40  69 102 135 169 237 294 342 407
#     4  11  20  43  69  96 135 178 229 279 348 423
#     4  11  26  44  69  93 136 195 234 275 370 432
#
# _framework density 22.180591
#
# number of rings (size 3 to 8) (size 9 to 14) (size 15 to 20)
#    0.000    1.000    8.333    0.500    7.000    2.000 
#    0.000    0.000    0.000    0.000    0.000    0.000 
#    0.000    0.000    0.000    0.000    0.000    0.000 
#
# Total GULP energy -267707.078891 kJ/mol
# GULP energy per Si atom -5577.230810 kJ/mol
# Density = 2.213011 g / cm^3
# Si number density = 22.180591 Si / 1000 Ang^3
#
#
#
# Elastic Constant Matrix: (Units=GPa)
#
#
# Indices 1 2 3 4 5 6 
#
# 1 122.6964 23.4644 13.6663 0.0000 0.0000 0.0000
# 2 23.4644 67.7135 -11.0179 0.0000 0.0000 0.0000
# 3 13.6663 -11.0179 92.2108 0.0000 0.0000 0.0000
# 4 0.0000 0.0000 0.0000 11.4508 0.0000 0.0000
# 5 0.0000 0.0000 0.0000 0.0000 35.8671 0.0000
# 6 0.0000 0.0000 0.0000 0.0000 0.0000 32.8401
#
#
#
# Elastic Compliance Matrix: (Units=1/GPa)
#
#
# Indices 1 2 3 4 5 6 
#
# 1 0.008994 -0.003400 -0.001739 0.000000 0.000000 0.000000
# 2 -0.003400 0.016346 0.002457 0.000000 0.000000 0.000000
# 3 -0.001739 0.002457 0.011396 0.000000 0.000000 0.000000
# 4 0.000000 0.000000 0.000000 0.087330 0.000000 0.000000
# 5 0.000000 0.000000 0.000000 0.000000 0.027881 0.000000
# 6 0.000000 0.000000 0.000000 0.000000 0.000000 0.030451
#
#
# Mechanical properties :
#
#
# Convention : Reuss Voigt Hill
#
# Bulk Modulus (GPa) = 31.87523 37.20512 34.54018
# Shear Modulus (GPa) = 25.22470 33.13214 29.17842
#
# Velocity S-wave (km/s) = 3.37596 3.86909 3.63091
# Velocity P-wave (km/s) = 5.44042 6.06383 5.76056
#
# Compressibility (1/GPa) = 0.03137232
#
# Stress axis : x y z
#
# Youngs Moduli (GPa) = 111.18445 61.17721 87.74965
#
# Poissons Ratio (x) = 0.20798 0.15261
# Poissons Ratio (y) = 0.37799 -0.21560
# Poissons Ratio (z) = 0.19337 -0.15031
#
# Static dielectric constant tensor:
#      x y z
#    x 1.867500 0.000000 0.000000 
#    y 0.000000 1.868510 0.000000 
#    z 0.000000 0.000000 1.840860 
# 
# From -- ./inp_files/19505.got.cif
#   From: 2010.05.17/outbox.cif.g08.bks.cpg/sg52_10_cif.got.tgz:19505.got - 2010.06.03 12:15:38.
