data_PCOD9410442
_publ_section_title
;
Structure prediction by ZEFSAII (Michael W. Deem and Ramdas Pophale) SiO2 
 PCOD9410442
Probable space group: P N N A
;
_chemical_formula_sum "Si O2"
_cell_formula_units_Z 40
_cell_length_a 12.295773
_cell_length_b 24.089029
_cell_length_c 6.400865
_cell_angle_alpha 90.000000
_cell_angle_beta 90.000000
_cell_angle_gamma 90.000000
_cell_volume 1895.892894
_symmetry_space_group_name_H-M "P N N A"
_symmetry_group_IT_number 52
_symmetry_cell_setting 'orthorhombic'
loop_
_space_group_symop_operation_xyz
x,y,z
1/2-x,-y,z
x,1/2-y,1/2-z
1/2-x,1/2+y,1/2-z
-x,-y,-z
1/2+x,y,-z
-x,1/2+y,1/2+z
1/2+x,1/2-y,1/2+z
loop_
_atom_site_type_symbol
_atom_site_label
_atom_site_fract_x
_atom_site_fract_y
_atom_site_fract_z
Si Si1 0.686966 0.647119 0.977024
Si Si2 0.191336 0.198376 0.867587
Si Si3 0.641547 0.396749 0.651050
Si Si4 0.440174 0.455154 0.858112
Si Si5 0.829103 0.250000 0.750000
Si Si6 0.250000 0.500000 0.567621
O O1 0.794466 0.632385 0.842228
O O2 0.620263 0.695176 0.855013
O O3 0.726534 0.670135 0.201348
O O4 0.619954 0.591370 0.005850
O O5 0.134973 0.250000 0.750000
O O6 0.123505 0.149175 0.971632
O O7 0.257256 0.226069 0.058806
O O8 0.529875 0.423522 0.722463
O O9 0.717748 0.446306 0.566727
O O10 0.351805 0.484685 0.712701
O O11 0.500000 0.500000 0.000000
#
# Coordination Sequence:
#
# PCOD9410442 Si02
#       6
#     8   8   8   8   4   4
#     4  10  20  42  67  96 137 172 221 286 336 405
#     4   9  18  39  71  93 131 176 221 280 344 393
#     4  11  23  40  68  96 134 180 225 274 345 405
#     4  12  25  41  69  99 136 178 230 277 345 410
#     4   8  18  36  74  92 124 186 216 274 354 394
#     4  12  24  46  64  96 136 180 224 288 336 412
#
# _framework density 21.098236
#
# number of rings (size 3 to 8) (size 9 to 14) (size 15 to 20)
#    0.000    1.600    2.000    3.000    0.000    0.000 
#    0.000    0.000   52.800    0.000    0.000    0.000 
#    0.000    0.000    0.000    0.000    0.000    0.000 
#
# Total GULP energy -223431.403853 kJ/mol
# GULP energy per Si atom -5585.785096 kJ/mol
# Density = 2.105022 g / cm^3
# Si number density = 21.098236 Si / 1000 Ang^3
#
#
#
# Elastic Constant Matrix: (Units=GPa)
#
#
# Indices 1 2 3 4 5 6 
#
# 1 69.3804 28.2225 38.1499 0.0000 0.0000 0.0000
# 2 28.2225 135.9163 64.2875 0.0000 0.0000 0.0000
# 3 38.1499 64.2875 118.1446 0.0000 0.0000 0.0000
# 4 0.0000 0.0000 0.0000 54.6851 0.0000 0.0000
# 5 0.0000 0.0000 0.0000 0.0000 43.5766 0.0000
# 6 0.0000 0.0000 0.0000 0.0000 0.0000 26.1139
#
#
#
# Elastic Compliance Matrix: (Units=1/GPa)
#
#
# Indices 1 2 3 4 5 6 
#
# 1 0.017696 -0.001309 -0.005002 0.000000 0.000000 0.000000
# 2 -0.001309 0.010004 -0.005021 0.000000 0.000000 0.000000
# 3 -0.005002 -0.005021 0.012812 0.000000 0.000000 0.000000
# 4 0.000000 0.000000 0.000000 0.018287 0.000000 0.000000
# 5 0.000000 0.000000 0.000000 0.000000 0.022948 0.000000
# 6 0.000000 0.000000 0.000000 0.000000 0.000000 0.038294
#
#
# Mechanical properties :
#
#
# Convention : Reuss Voigt Hill
#
# Bulk Modulus (GPa) = 56.02809 64.97345 60.50077
# Shear Modulus (GPa) = 33.63528 37.72723 35.68125
#
# Velocity S-wave (km/s) = 3.99710 4.23326 4.11688
# Velocity P-wave (km/s) = 6.92213 7.39977 7.16493
#
# Compressibility (1/GPa) = 0.01784819
#
# Stress axis : x y z
#
# Youngs Moduli (GPa) = 56.50965 99.95855 78.05379
#
# Poissons Ratio (x) = 0.13080 0.39044
# Poissons Ratio (y) = 0.07394 0.39192
# Poissons Ratio (z) = 0.28267 0.50191
#
# Static dielectric constant tensor:
#      x y z
#    x 1.922610 0.000000 0.000000 
#    y 0.000000 1.788890 0.000000 
#    z 0.000000 0.000000 1.758590 
# 
# From -- ./inp_files/1440.got.cif
#   From: 2010.05.17/outbox.cif.g08.bks.cpg/sg52_1_cif.got.tgz:1440.got - 2010.06.03 12:15:38.
