data_PCOD9410824
_publ_section_title
;
Structure prediction by ZEFSAII (Michael W. Deem and Ramdas Pophale) SiO2 
 PCOD9410824
Probable space group: P N N A
;
_chemical_formula_sum "Si O2"
_cell_formula_units_Z 64
_cell_length_a 8.388585
_cell_length_b 15.074721
_cell_length_c 25.209423
_cell_angle_alpha 90.000000
_cell_angle_beta 90.000000
_cell_angle_gamma 90.000000
_cell_volume 3187.872168
_symmetry_space_group_name_H-M "P N N A"
_symmetry_group_IT_number 52
_symmetry_cell_setting 'orthorhombic'
loop_
_space_group_symop_operation_xyz
x,y,z
1/2-x,-y,z
x,1/2-y,1/2-z
1/2-x,1/2+y,1/2-z
-x,-y,-z
1/2+x,y,-z
-x,1/2+y,1/2+z
1/2+x,1/2-y,1/2+z
loop_
_atom_site_type_symbol
_atom_site_label
_atom_site_fract_x
_atom_site_fract_y
_atom_site_fract_z
Si Si1 0.565670 0.591843 0.367560
Si Si2 0.939008 0.228479 0.423467
Si Si3 0.920822 0.758009 0.464421
Si Si4 0.133781 0.085904 0.235449
Si Si5 0.098247 0.782665 0.197531
Si Si6 0.896712 0.120778 0.616851
Si Si7 0.943121 0.901797 0.108050
Si Si8 0.546138 0.427449 0.858096
O O1 0.507288 0.685648 0.389937
O O2 0.508675 0.580404 0.307096
O O3 0.755039 0.595322 0.377860
O O4 0.502839 0.503533 0.397194
O O5 0.763131 0.238769 0.447748
O O6 0.054703 0.225369 0.473875
O O7 0.932228 0.143227 0.385538
O O8 0.975695 0.661220 0.442396
O O9 0.021075 0.831840 0.432584
O O10 0.242029 0.169858 0.218927
O O11 0.072312 0.090015 0.295728
O O12 0.250000 0.000000 0.232148
O O13 0.005576 0.750000 0.250000
O O14 0.112052 0.694670 0.162609
O O15 0.020424 0.854652 0.158920
O O16 0.713268 0.092258 0.611723
O O17 0.988831 0.031272 0.633629
#
# Coordination Sequence:
#
# PCOD9410824 Si02
#       8
#     8   8   8   8   8   8   8   8
#     4  10  22  40  60  93 128 164 198 254 314 378
#     4  11  24  42  65  88 122 160 211 262 318 365
#     4  10  23  44  64  91 117 161 210 266 316 372
#     4  12  21  37  61  96 131 162 204 249 302 366
#     4  11  19  35  60  88 124 167 203 249 296 368
#     4  10  21  38  62  86 121 161 207 251 306 358
#     4   9  21  41  61  88 129 160 205 250 312 385
#     4  11  22  40  59  91 127 163 206 258 299 372
#
# _framework density 20.076087999999999
#
# number of rings (size 3 to 8) (size 9 to 14) (size 15 to 20)
#    0.000    1.500    3.750    1.500    0.000    2.500 
#    6.750    0.000    0.000    0.000    0.000    0.000 
#    0.000    0.000    0.000    0.000    0.000    0.000 
#
# Total GULP energy -357033.393848 kJ/mol
# GULP energy per Si atom -5578.646779 kJ/mol
# Density = 2.003039 g / cm^3
# Si number density = 20.076088 Si / 1000 Ang^3
#
#
#
# Elastic Constant Matrix: (Units=GPa)
#
#
# Indices 1 2 3 4 5 6 
#
# 1 14.2818 10.3783 12.7944 0.0000 0.0000 0.0000
# 2 10.3783 145.7757 35.5557 0.0000 0.0000 0.0000
# 3 12.7944 35.5557 78.2691 0.0000 0.0000 0.0000
# 4 0.0000 0.0000 0.0000 3.4701 0.0000 0.0000
# 5 0.0000 0.0000 0.0000 0.0000 24.0281 0.0000
# 6 0.0000 0.0000 0.0000 0.0000 0.0000 26.1322
#
#
#
# Elastic Compliance Matrix: (Units=1/GPa)
#
#
# Indices 1 2 3 4 5 6 
#
# 1 0.083129 -0.002928 -0.012259 0.000000 0.000000 0.000000
# 2 -0.002928 0.007818 -0.003073 0.000000 0.000000 0.000000
# 3 -0.012259 -0.003073 0.016176 0.000000 0.000000 0.000000
# 4 0.000000 0.000000 0.000000 0.288176 0.000000 0.000000
# 5 0.000000 0.000000 0.000000 0.000000 0.041618 0.000000
# 6 0.000000 0.000000 0.000000 0.000000 0.000000 0.038267
#
#
# Mechanical properties :
#
#
# Convention : Reuss Voigt Hill
#
# Bulk Modulus (GPa) = 14.16355 39.53147 26.84751
# Shear Modulus (GPa) = 9.34165 22.69930 16.02047
#
# Velocity S-wave (km/s) = 2.15945 3.36618 2.82793
# Velocity P-wave (km/s) = 3.64525 5.90270 4.90559
#
# Compressibility (1/GPa) = 0.07060378
#
# Stress axis : x y z
#
# Youngs Moduli (GPa) = 12.02950 127.91336 61.81936
#
# Poissons Ratio (x) = 0.37457 0.75782
# Poissons Ratio (y) = 0.03523 0.18996
# Poissons Ratio (z) = 0.14746 0.39305
#
# Static dielectric constant tensor:
#      x y z
#    x 1.736110 0.000000 0.000000 
#    y 0.000000 1.766600 0.000000 
#    z 0.000000 0.000000 1.689280 
# 
# From -- ./inp_files/39666.got.cif
#   From: 2010.05.17/outbox.cif.g08.bks.cpg/sg52_20_cif.got.tgz:39666.got - 2010.06.03 12:15:38.
