data_PCOD9410295
_publ_section_title
;
Structure prediction by ZEFSAII (Michael W. Deem and Ramdas Pophale) SiO2 
 PCOD9410295
Probable space group: P N N A
;
_chemical_formula_sum "Si O2"
_cell_formula_units_Z 60
_cell_length_a 16.005758
_cell_length_b 23.640961
_cell_length_c 7.733747
_cell_angle_alpha 90.000000
_cell_angle_beta 90.000000
_cell_angle_gamma 90.000000
_cell_volume 2926.384133
_symmetry_space_group_name_H-M "P N N A"
_symmetry_group_IT_number 52
_symmetry_cell_setting 'orthorhombic'
loop_
_space_group_symop_operation_xyz
x,y,z
1/2-x,-y,z
x,1/2-y,1/2-z
1/2-x,1/2+y,1/2-z
-x,-y,-z
1/2+x,y,-z
-x,1/2+y,1/2+z
1/2+x,1/2-y,1/2+z
loop_
_atom_site_type_symbol
_atom_site_label
_atom_site_fract_x
_atom_site_fract_y
_atom_site_fract_z
Si Si1 0.567376 0.135269 0.839290
Si Si2 0.322361 0.533363 0.194152
Si Si3 0.537392 0.954941 0.757106
Si Si4 0.254066 0.088140 0.646326
Si Si5 0.717583 0.289465 0.096181
Si Si6 0.911643 0.633967 0.258235
Si Si7 0.848520 0.750000 0.750000
Si Si8 0.416982 0.057726 0.849567
O O1 0.632972 0.085141 0.791824
O O2 0.596652 0.193219 0.754165
O O3 0.477778 0.109172 0.792263
O O4 0.567698 0.146787 0.044368
O O5 0.250000 0.500000 0.296721
O O6 0.394638 0.488334 0.146249
O O7 0.276392 0.557268 0.025894
O O8 0.490041 0.900457 0.682368
O O9 0.465302 0.000191 0.801651
O O10 0.582116 0.940702 0.940552
O O11 0.271266 0.153238 0.588758
O O12 0.170285 0.093851 0.760829
O O13 0.329121 0.062552 0.754712
O O14 0.747790 0.250000 0.250000
O O15 0.625173 0.313334 0.152390
O O16 0.708040 0.255428 0.920455
#
# Coordination Sequence:
#
# PCOD9410295 Si02
#       8
#     8   8   8   8   8   8   4   8
#     4  10  20  40  64  91 121 169 215 265 329 390
#     4  11  24  38  56  95 124 167 214 254 336 391
#     4   9  20  40  62  88 130 165 205 265 319 396
#     4  10  22  38  58  94 125 161 218 260 327 390
#     4  10  21  38  64  94 119 171 214 270 324 388
#     4   9  20  37  64  92 120 164 216 258 326 390
#     4  12  18  40  68  86 128 164 222 272 316 400
#     4   9  20  39  61  93 126 165 208 261 324 388
#
# _framework density 20.503119000000002
#
# number of rings (size 3 to 8) (size 9 to 14) (size 15 to 20)
#    0.800    1.333    2.667    0.800    3.733    0.533 
#    6.000    0.000    0.000    0.000    3.467    0.000 
#    0.000    0.000    0.000    0.000    0.000    0.000 
#
# Total GULP energy -334557.533679 kJ/mol
# GULP energy per Si atom -5575.958895 kJ/mol
# Density = 2.045645 g / cm^3
# Si number density = 20.503119 Si / 1000 Ang^3
#
#
#
# Elastic Constant Matrix: (Units=GPa)
#
#
# Indices 1 2 3 4 5 6 
#
# 1 79.4582 20.2581 24.6947 0.0000 0.0000 0.0000
# 2 20.2581 56.4927 5.6481 0.0000 0.0000 0.0000
# 3 24.6947 5.6481 76.3253 0.0000 0.0000 0.0000
# 4 0.0000 0.0000 0.0000 22.4529 0.0000 0.0000
# 5 0.0000 0.0000 0.0000 0.0000 -84.2182 0.0000
# 6 0.0000 0.0000 0.0000 0.0000 0.0000 25.3032
#
#
#
# Elastic Compliance Matrix: (Units=1/GPa)
#
#
# Indices 1 2 3 4 5 6 
#
# 1 0.015288 -0.005025 -0.004575 0.000000 0.000000 0.000000
# 2 -0.005025 0.019485 0.000184 0.000000 0.000000 0.000000
# 3 -0.004575 0.000184 0.014568 0.000000 0.000000 0.000000
# 4 0.000000 0.000000 0.000000 0.044538 0.000000 0.000000
# 5 0.000000 0.000000 0.000000 0.000000 -0.011874 0.000000
# 6 0.000000 0.000000 0.000000 0.000000 0.000000 0.039521
#
#
# Mechanical properties :
#
#
# Convention : Reuss Voigt Hill
#
# Bulk Modulus (GPa) = 32.77593 34.83089 33.80341
# Shear Modulus (GPa) = 33.21667 3.48594 18.35130
#
# Velocity S-wave (km/s) = 4.02939 1.30533 2.99498
# Velocity P-wave (km/s) = 6.13746 4.39282 5.33691
#
# Compressibility (1/GPa) = 0.03051020
#
# Stress axis : x y z
#
# Youngs Moduli (GPa) = 65.41055 51.32172 68.64229
#
# Poissons Ratio (x) = 0.25789 0.31401
# Poissons Ratio (y) = 0.32868 -0.01262
# Poissons Ratio (z) = 0.29922 -0.00944
#
# Static dielectric constant tensor:
#      x y z
#    x 1.729480 0.000000 0.000000 
#    y 0.000000 1.811830 0.000000 
#    z 0.000000 0.000000 1.765090 
# 
# From -- ./inp_files/10942.got.cif
#   From: 2010.05.17/outbox.cif.g08.bks.cpg/sg52_6_cif.got.tgz:10942.got - 2010.06.03 12:15:38.
