data_PCOD9410610
_publ_section_title
;
Structure prediction by ZEFSAII (Michael W. Deem and Ramdas Pophale) SiO2 
 PCOD9410610
Probable space group: P N N A
;
_chemical_formula_sum "Si O2"
_cell_formula_units_Z 48
_cell_length_a 25.454923
_cell_length_b 8.698752
_cell_length_c 10.618505
_cell_angle_alpha 90.000000
_cell_angle_beta 90.000000
_cell_angle_gamma 90.000000
_cell_volume 2351.213750
_symmetry_space_group_name_H-M "P N N A"
_symmetry_group_IT_number 52
_symmetry_cell_setting 'orthorhombic'
loop_
_space_group_symop_operation_xyz
x,y,z
1/2-x,-y,z
x,1/2-y,1/2-z
1/2-x,1/2+y,1/2-z
-x,-y,-z
1/2+x,y,-z
-x,1/2+y,1/2+z
1/2+x,1/2-y,1/2+z
loop_
_atom_site_type_symbol
_atom_site_label
_atom_site_fract_x
_atom_site_fract_y
_atom_site_fract_z
Si Si1 0.690533 0.315266 0.110472
Si Si2 0.909035 0.681822 0.504269
Si Si3 0.190939 0.681232 0.887718
Si Si4 0.089509 0.683558 0.506730
Si Si5 0.500274 0.624098 0.886554
Si Si6 0.001149 0.085006 0.140659
O O1 0.678197 0.250000 0.250000
O O2 0.646462 0.262778 0.012415
O O3 0.750064 0.266762 0.076468
O O4 0.690308 0.498197 0.120701
O O5 0.897363 0.498673 0.497054
O O6 0.948126 0.769822 0.405038
O O7 0.946202 0.684290 0.627040
O O8 0.180212 0.750000 0.750000
O O9 0.144178 0.732039 0.977703
O O10 0.050369 0.688218 0.626835
O O11 0.052604 0.770358 0.404133
O O12 0.500000 0.500000 0.000000
O O13 0.500144 0.529344 0.756815
O O14 0.000000 0.000000 0.000000
#
# Coordination Sequence:
#
# PCOD9410610 Si02
#       6
#     8   8   8   8   8   8
#     4  10  21  36  56  85 120 164 204 259 321 374
#     4  10  22  35  57  85 121 165 206 255 311 377
#     4  10  21  36  56  85 121 160 209 257 316 380
#     4  10  22  35  57  85 121 165 206 259 307 379
#     4  11  23  38  59  90 127 168 207 256 316 371
#     4   9  22  38  57  89 124 167 206 246 309 375
#
# _framework density 20.414987
#
# number of rings (size 3 to 8) (size 9 to 14) (size 15 to 20)
#    0.000    2.000    0.000    3.500    9.333   12.000 
#    0.000    0.000    0.000    0.000    0.000   35.000 
#    0.000    0.000    0.000    0.000    0.000    0.000 
#
# Total GULP energy -267279.823604 kJ/mol
# GULP energy per Si atom -5568.329658 kJ/mol
# Density = 2.036852 g / cm^3
# Si number density = 20.414987 Si / 1000 Ang^3
#
#
#
# Elastic Constant Matrix: (Units=GPa)
#
#
# Indices 1 2 3 4 5 6 
#
# 1 140.9185 38.5074 29.9964 0.0000 0.0000 0.0000
# 2 38.5074 85.1318 40.1921 0.0000 0.0000 0.0000
# 3 29.9964 40.1921 112.5185 0.0000 0.0000 0.0000
# 4 0.0000 0.0000 0.0000 48.2316 0.0000 0.0000
# 5 0.0000 0.0000 0.0000 0.0000 132.0829 0.0000
# 6 0.0000 0.0000 0.0000 0.0000 0.0000 45.7285
#
#
#
# Elastic Compliance Matrix: (Units=1/GPa)
#
#
# Indices 1 2 3 4 5 6 
#
# 1 0.008196 -0.003219 -0.001035 0.000000 0.000000 0.000000
# 2 -0.003219 0.015393 -0.004640 0.000000 0.000000 0.000000
# 3 -0.001035 -0.004640 0.010821 0.000000 0.000000 0.000000
# 4 0.000000 0.000000 0.000000 0.020733 0.000000 0.000000
# 5 0.000000 0.000000 0.000000 0.000000 0.007571 0.000000
# 6 0.000000 0.000000 0.000000 0.000000 0.000000 0.021868
#
#
# Mechanical properties :
#
#
# Convention : Reuss Voigt Hill
#
# Bulk Modulus (GPa) = 60.16247 61.77339 60.96793
# Shear Modulus (GPa) = 46.33398 60.53348 53.43373
#
# Velocity S-wave (km/s) = 4.76921 5.45123 5.12158
# Velocity P-wave (km/s) = 7.73698 8.36335 8.05626
#
# Compressibility (1/GPa) = 0.01662166
#
# Stress axis : x y z
#
# Youngs Moduli (GPa) = 122.00795 64.96386 92.41258
#
# Poissons Ratio (x) = 0.20909 0.09568
# Poissons Ratio (y) = 0.39269 0.42884
# Poissons Ratio (z) = 0.12632 0.30146
#
# Static dielectric constant tensor:
#      x y z
#    x 1.799600 0.000000 0.000000 
#    y 0.000000 1.862960 0.000000 
#    z 0.000000 0.000000 1.783850 
# 
# From -- ./inp_files/37951.got.cif
#   From: 2010.05.17/outbox.cif.g08.bks.cpg/sg52_19_cif.got.tgz:37951.got - 2010.06.03 12:15:38.
