data_PCOD9410858
_publ_section_title
;
Structure prediction by ZEFSAII (Michael W. Deem and Ramdas Pophale) SiO2 
 PCOD9410858
Probable space group: P N N A
;
_chemical_formula_sum "Si O2"
_cell_formula_units_Z 40
_cell_length_a 17.551317
_cell_length_b 7.651714
_cell_length_c 13.334812
_cell_angle_alpha 90.000000
_cell_angle_beta 90.000000
_cell_angle_gamma 90.000000
_cell_volume 1790.834022
_symmetry_space_group_name_H-M "P N N A"
_symmetry_group_IT_number 52
_symmetry_cell_setting 'orthorhombic'
loop_
_space_group_symop_operation_xyz
x,y,z
1/2-x,-y,z
x,1/2-y,1/2-z
1/2-x,1/2+y,1/2-z
-x,-y,-z
1/2+x,y,-z
-x,1/2+y,1/2+z
1/2+x,1/2-y,1/2+z
loop_
_atom_site_type_symbol
_atom_site_label
_atom_site_fract_x
_atom_site_fract_y
_atom_site_fract_z
Si Si1 0.426738 0.050624 0.787226
Si Si2 0.666877 0.913339 0.026355
Si Si3 0.105553 0.030698 0.176937
Si Si4 0.162401 0.514261 0.899396
Si Si5 0.166768 0.412582 0.118824
O O1 0.411181 0.250000 0.750000
O O2 0.380491 0.993339 0.885389
O O3 0.514908 0.049048 0.817129
O O4 0.395632 0.956641 0.687504
O O5 0.663435 0.715109 0.063839
O O6 0.750000 0.000000 0.021475
O O7 0.630346 0.913840 0.916174
O O8 0.150507 0.211907 0.150551
O O9 0.127268 0.981718 0.290588
O O10 0.250000 0.500000 0.862651
O O11 0.142532 0.417305 0.003027
O O12 0.250000 0.500000 0.116702
#
# Coordination Sequence:
#
# PCOD9410858 Si02
#       5
#     8   8   8   8   8
#     4  10  21  41  62  91 127 167 198 259 319 367
#     4  11  22  38  67  93 123 163 213 255 305 371
#     4  11  22  41  63  91 130 160 206 259 314 367
#     4  10  22  40  65  93 125 163 211 254 311 372
#     4  10  21  38  64  90 122 166 207 255 312 368
#
# _framework density 22.33596
#
# number of rings (size 3 to 8) (size 9 to 14) (size 15 to 20)
#    0.000    1.600    2.000    4.200    0.000    4.800 
#    0.000    3.000    8.800    0.000    0.000    0.000 
#    0.000    0.000    0.000    0.000    0.000    0.000 
#
# Total GULP energy -222932.178221 kJ/mol
# GULP energy per Si atom -5573.304456 kJ/mol
# Density = 2.228512 g / cm^3
# Si number density = 22.335960 Si / 1000 Ang^3
#
#
#
# Elastic Constant Matrix: (Units=GPa)
#
#
# Indices 1 2 3 4 5 6 
#
# 1 63.6006 27.4222 112.3648 0.0000 0.0000 0.0000
# 2 27.4222 37.6957 -0.4045 0.0000 0.0000 0.0000
# 3 112.3648 -0.4045 75.6385 0.0000 0.0000 0.0000
# 4 0.0000 0.0000 0.0000 32.5006 0.0000 0.0000
# 5 0.0000 0.0000 0.0000 0.0000 -3.9007 0.0000
# 6 0.0000 0.0000 0.0000 0.0000 0.0000 7.2845
#
#
#
# Elastic Compliance Matrix: (Units=1/GPa)
#
#
# Indices 1 2 3 4 5 6 
#
# 1 -0.008054 0.005988 0.011997 0.000000 0.000000 0.000000
# 2 0.005988 0.022078 -0.008777 0.000000 0.000000 0.000000
# 3 0.011997 -0.008777 -0.004649 0.000000 0.000000 0.000000
# 4 0.000000 0.000000 0.000000 0.030769 0.000000 0.000000
# 5 0.000000 0.000000 0.000000 0.000000 -0.256366 0.000000
# 6 0.000000 0.000000 0.000000 0.000000 0.000000 0.137278
#
#
# Mechanical properties :
#
#
# Convention : Reuss Voigt Hill
#
# Bulk Modulus (GPa) = 35.98332 50.63331 43.30831
# Shear Modulus (GPa) = -56.75611 9.68036 -23.53787
#
# Velocity S-wave (km/s) = -5.04632 2.08408 -3.24977
# Velocity P-wave (km/s) = 4.22005 5.33942 2.31307
#
# Compressibility (1/GPa) = 0.02779066
#
# Stress axis : x y z
#
# Youngs Moduli (GPa) = -124.15681 45.29395 -215.12208
#
# Poissons Ratio (x) = -0.27122 2.58085
# Poissons Ratio (y) = 0.74345 -1.88821
# Poissons Ratio (z) = 1.48953 0.39756
#
# Static dielectric constant tensor:
#      x y z
#    x 1.864010 0.000000 0.000000 
#    y 0.000000 1.955050 0.000000 
#    z 0.000000 0.000000 1.901050 
# 
# From -- ./inp_files/20291.got.cif
#   From: 2010.05.17/outbox.cif.g08.bks.cpg/sg52_11_cif.got.tgz:20291.got - 2010.06.03 12:15:38.
