data_PCOD9410579
_publ_section_title
;
Structure prediction by ZEFSAII (Michael W. Deem and Ramdas Pophale) SiO2 
 PCOD9410579
Probable space group: P N N A
;
_chemical_formula_sum "Si O2"
_cell_formula_units_Z 48
_cell_length_a 9.355116
_cell_length_b 18.608560
_cell_length_c 14.130974
_cell_angle_alpha 90.000000
_cell_angle_beta 90.000000
_cell_angle_gamma 90.000000
_cell_volume 2459.993963
_symmetry_space_group_name_H-M "P N N A"
_symmetry_group_IT_number 52
_symmetry_cell_setting 'orthorhombic'
loop_
_space_group_symop_operation_xyz
x,y,z
1/2-x,-y,z
x,1/2-y,1/2-z
1/2-x,1/2+y,1/2-z
-x,-y,-z
1/2+x,y,-z
-x,1/2+y,1/2+z
1/2+x,1/2-y,1/2+z
loop_
_atom_site_type_symbol
_atom_site_label
_atom_site_fract_x
_atom_site_fract_y
_atom_site_fract_z
Si Si1 0.303999 0.295986 0.108458
Si Si2 0.227853 0.864300 0.195295
Si Si3 0.027068 0.388591 0.563755
Si Si4 0.828305 0.250000 0.250000
Si Si5 0.040265 0.884709 0.850797
Si Si6 0.750000 0.500000 0.376199
Si Si7 0.366762 0.727652 0.920828
O O1 0.272819 0.215959 0.149263
O O2 0.275162 0.351716 0.192533
O O3 0.471944 0.299853 0.085876
O O4 0.211096 0.301019 0.013996
O O5 0.375237 0.902298 0.168339
O O6 0.086732 0.898007 0.148318
O O7 0.946146 0.380251 0.464450
O O8 0.137119 0.453997 0.563614
O O9 0.114915 0.314584 0.576834
O O10 0.726580 0.287106 0.172207
O O11 0.923905 0.191125 0.197100
O O12 0.154353 0.943690 0.818187
#
# Coordination Sequence:
#
# PCOD9410579 Si02
#       7
#     8   8   8   4   8   4   8
#     4  10  21  35  59  92 129 164 201 268 326 374
#     4  10  21  37  58  88 129 168 211 261 313 381
#     4  11  22  42  60  93 135 175 209 260 319 398
#     4  12  22  38  64  90 126 172 216 274 314 388
#     4  12  24  38  63  91 128 173 216 258 325 386
#     4  12  26  40  62  92 136 180 208 254 326 400
#     4  11  21  36  60  92 132 160 209 265 323 381
#
# _framework density 19.512243999999999
#
# number of rings (size 3 to 8) (size 9 to 14) (size 15 to 20)
#    0.000    1.000    3.333    6.500    2.333    0.667 
#    0.000    0.000    0.000    0.000    0.000    4.667 
#    0.000    0.000    0.000    0.000    0.000    0.000 
#
# Total GULP energy -268312.207275 kJ/mol
# GULP energy per Si atom -5589.837652 kJ/mol
# Density = 1.946783 g / cm^3
# Si number density = 19.512244 Si / 1000 Ang^3
#
#
#
# Elastic Constant Matrix: (Units=GPa)
#
#
# Indices 1 2 3 4 5 6 
#
# 1 127.0866 28.6462 53.6058 0.0000 0.0000 0.0000
# 2 28.6462 53.3639 12.6265 0.0000 0.0000 0.0000
# 3 53.6058 12.6265 122.8399 0.0000 0.0000 0.0000
# 4 0.0000 0.0000 0.0000 12.0225 0.0000 0.0000
# 5 0.0000 0.0000 0.0000 0.0000 -8.4583 0.0000
# 6 0.0000 0.0000 0.0000 0.0000 0.0000 36.2072
#
#
#
# Elastic Compliance Matrix: (Units=1/GPa)
#
#
# Indices 1 2 3 4 5 6 
#
# 1 0.010705 -0.004757 -0.004183 0.000000 0.000000 0.000000
# 2 -0.004757 0.021320 -0.000116 0.000000 0.000000 0.000000
# 3 -0.004183 -0.000116 0.009978 0.000000 0.000000 0.000000
# 4 0.000000 0.000000 0.000000 0.083177 0.000000 0.000000
# 5 0.000000 0.000000 0.000000 0.000000 -0.118227 0.000000
# 6 0.000000 0.000000 0.000000 0.000000 0.000000 0.027619
#
#
# Mechanical properties :
#
#
# Convention : Reuss Voigt Hill
#
# Bulk Modulus (GPa) = 41.85365 54.78306 48.31836
# Shear Modulus (GPa) = 82.44449 21.84840 52.14645
#
# Velocity S-wave (km/s) = 6.50726 3.34986 5.17523
# Velocity P-wave (km/s) = 8.82925 6.56501 7.77994
#
# Compressibility (1/GPa) = 0.02389278
#
# Stress axis : x y z
#
# Youngs Moduli (GPa) = 93.41276 46.90386 100.22233
#
# Poissons Ratio (x) = 0.22312 0.41919
# Poissons Ratio (y) = 0.44436 0.01158
# Poissons Ratio (z) = 0.39071 0.00542
#
# Static dielectric constant tensor:
#      x y z
#    x 1.722920 0.000000 0.000000 
#    y 0.000000 1.698750 0.000000 
#    z 0.000000 0.000000 1.686190 
# 
# From -- ./inp_files/24869.got.cif
#   From: 2010.05.17/outbox.cif.g08.bks.cpg/sg52_13_cif.got.tgz:24869.got - 2010.06.03 12:15:38.
