data_PCOD9410118
_publ_section_title
;
Structure prediction by ZEFSAII (Michael W. Deem and Ramdas Pophale) SiO2 
 PCOD9410118
Probable space group: P N N A
;
_chemical_formula_sum "Si O2"
_cell_formula_units_Z 56
_cell_length_a 14.226155
_cell_length_b 20.366977
_cell_length_c 9.982102
_cell_angle_alpha 90.000000
_cell_angle_beta 90.000000
_cell_angle_gamma 90.000000
_cell_volume 2892.251883
_symmetry_space_group_name_H-M "P N N A"
_symmetry_group_IT_number 52
_symmetry_cell_setting 'orthorhombic'
loop_
_space_group_symop_operation_xyz
x,y,z
1/2-x,-y,z
x,1/2-y,1/2-z
1/2-x,1/2+y,1/2-z
-x,-y,-z
1/2+x,y,-z
-x,1/2+y,1/2+z
1/2+x,1/2-y,1/2+z
loop_
_atom_site_type_symbol
_atom_site_label
_atom_site_fract_x
_atom_site_fract_y
_atom_site_fract_z
Si Si1 0.033411 0.450673 0.817976
Si Si2 0.323421 0.448769 0.700879
Si Si3 0.767393 0.748821 0.096551
Si Si4 0.685934 0.560091 0.775610
Si Si5 0.640475 0.844719 0.970283
Si Si6 0.545613 0.185662 0.158718
Si Si7 0.297033 0.900761 0.541891
O O1 0.083169 0.511149 0.741749
O O2 0.101825 0.437169 0.945773
O O3 0.920890 0.458294 0.821603
O O4 0.049246 0.381822 0.740528
O O5 0.250000 0.500000 0.635876
O O6 0.343670 0.390143 0.599743
O O7 0.268658 0.425016 0.834590
O O8 0.730169 0.750000 0.250000
O O9 0.804799 0.677168 0.061052
O O10 0.853684 0.799041 0.098163
O O11 0.693850 0.776627 0.992503
O O12 0.750000 0.500000 0.723261
O O13 0.673575 0.614989 0.660580
O O14 0.742975 0.584520 0.905291
O O15 0.532603 0.826282 0.951183
O O16 0.522902 0.250000 0.250000
#
# Coordination Sequence:
#
# PCOD9410118 Si02
#       7
#     8   8   8   8   8   8   8
#     4  10  21  40  65  86 123 170 207 250 305 384
#     4  10  20  38  65  94 118 162 216 246 303 373
#     4  11  20  40  67  89 122 163 212 256 296 370
#     4  11  26  41  59  93 131 160 199 262 322 360
#     4  11  24  38  66  96 122 160 204 268 309 359
#     4  10  21  39  61  90 121 166 206 242 311 379
#     4  11  22  39  65  90 120 171 212 243 304 379
#
# _framework density 19.362074
#
# number of rings (size 3 to 8) (size 9 to 14) (size 15 to 20)
#    0.000    1.429    4.286    2.571    4.000    5.714 
#    0.000    0.000    3.143    0.000    0.000    0.000 
#    0.000    0.000    0.000    0.000    0.000    0.000 
#
# Total GULP energy -312460.073413 kJ/mol
# GULP energy per Si atom -5579.644168 kJ/mol
# Density = 1.931801 g / cm^3
# Si number density = 19.362074 Si / 1000 Ang^3
#
#
#
# Elastic Constant Matrix: (Units=GPa)
#
#
# Indices 1 2 3 4 5 6 
#
# 1 109.4433 19.2623 25.1803 0.0000 0.0000 0.0000
# 2 19.2623 44.6965 -3.6597 0.0000 0.0000 0.0000
# 3 25.1803 -3.6597 62.4772 0.0000 0.0000 0.0000
# 4 0.0000 0.0000 0.0000 5.3673 0.0000 0.0000
# 5 0.0000 0.0000 0.0000 0.0000 27.2691 0.0000
# 6 0.0000 0.0000 0.0000 0.0000 0.0000 26.3343
#
#
#
# Elastic Compliance Matrix: (Units=1/GPa)
#
#
# Indices 1 2 3 4 5 6 
#
# 1 0.011157 -0.005201 -0.004801 0.000000 0.000000 0.000000
# 2 -0.005201 0.024906 0.003555 0.000000 0.000000 0.000000
# 3 -0.004801 0.003555 0.018149 0.000000 0.000000 0.000000
# 4 0.000000 0.000000 0.000000 0.186314 0.000000 0.000000
# 5 0.000000 0.000000 0.000000 0.000000 0.036672 0.000000
# 6 0.000000 0.000000 0.000000 0.000000 0.000000 0.037973
#
#
# Mechanical properties :
#
#
# Convention : Reuss Voigt Hill
#
# Bulk Modulus (GPa) = 24.20305 33.13141 28.66723
# Shear Modulus (GPa) = 14.62678 23.51641 19.07160
#
# Velocity S-wave (km/s) = 2.75150 3.48884 3.14187
# Velocity P-wave (km/s) = 4.75623 5.77736 5.29149
#
# Compressibility (1/GPa) = 0.04131711
#
# Stress axis : x y z
#
# Youngs Moduli (GPa) = 89.62720 40.15119 55.09880
#
# Poissons Ratio (x) = 0.20885 0.26455
# Poissons Ratio (y) = 0.46619 -0.19589
# Poissons Ratio (z) = 0.43034 -0.14275
#
# Static dielectric constant tensor:
#      x y z
#    x 1.691970 0.000000 0.000000 
#    y 0.000000 1.705640 0.000000 
#    z 0.000000 0.000000 1.680660 
# 
# From -- ./inp_files/10805.got.cif
#   From: 2010.05.17/outbox.cif.g08.bks.cpg/sg52_6_cif.got.tgz:10805.got - 2010.06.03 12:15:38.
