data_PCOD9410819
_publ_section_title
;
Structure prediction by ZEFSAII (Michael W. Deem and Ramdas Pophale) SiO2 
 PCOD9410819
Probable space group: P N N A
;
_chemical_formula_sum "Si O2"
_cell_formula_units_Z 40
_cell_length_a 11.636817
_cell_length_b 5.058702
_cell_length_c 34.085148
_cell_angle_alpha 90.000000
_cell_angle_beta 90.000000
_cell_angle_gamma 90.000000
_cell_volume 2006.496864
_symmetry_space_group_name_H-M "P N N A"
_symmetry_group_IT_number 52
_symmetry_cell_setting 'orthorhombic'
loop_
_space_group_symop_operation_xyz
x,y,z
1/2-x,-y,z
x,1/2-y,1/2-z
1/2-x,1/2+y,1/2-z
-x,-y,-z
1/2+x,y,-z
-x,1/2+y,1/2+z
1/2+x,1/2-y,1/2+z
loop_
_atom_site_type_symbol
_atom_site_label
_atom_site_fract_x
_atom_site_fract_y
_atom_site_fract_z
Si Si1 0.537758 0.680732 0.373324
Si Si2 0.833448 0.248962 0.205861
Si Si3 0.175601 0.251742 0.084305
Si Si4 0.124347 0.153322 0.999879
Si Si5 0.634275 0.162392 0.413251
O O1 0.576360 0.720321 0.328976
O O2 0.406763 0.624883 0.382836
O O3 0.614725 0.452358 0.394282
O O4 0.543435 0.965009 0.394592
O O5 0.750000 0.500000 0.200208
O O6 0.882844 0.250000 0.250000
O O7 0.750000 0.000000 0.203475
O O8 0.250000 0.500000 0.097597
O O9 0.250000 0.000000 0.073533
O O10 0.123791 0.313816 0.040818
O O11 0.123416 0.318460 0.959750
O O12 0.250000 0.000000 0.995651
O O13 0.000000 0.000000 0.000000
O O14 0.750000 0.000000 0.403022
#
# Coordination Sequence:
#
# PCOD9410819 Si02
#       5
#     8   8   8   8   8
#     4  12  23  39  65  88 123 161 210 252 319 374
#     4  10  21  38  61  93 128 156 188 242 317 392
#     4  11  25  43  60  84 121 167 213 263 312 369
#     4  11  24  43  62  89 128 172 220 267 326 375
#     4  12  24  38  61  92 123 160 211 264 309 371
#
# _framework density 19.935243
#
# number of rings (size 3 to 8) (size 9 to 14) (size 15 to 20)
#    0.000    0.800    2.000    6.600    2.800    2.400 
#    0.000    0.000    0.000    1.200    0.000    0.000 
#    0.000    0.000    0.000    0.000    0.000    0.000 
#
# Total GULP energy -222976.171726 kJ/mol
# GULP energy per Si atom -5574.404293 kJ/mol
# Density = 1.988987 g / cm^3
# Si number density = 19.935243 Si / 1000 Ang^3
#
#
#
# Elastic Constant Matrix: (Units=GPa)
#
#
# Indices 1 2 3 4 5 6 
#
# 1 74.7670 19.5519 40.7466 0.0000 0.0000 0.0000
# 2 19.5519 104.2714 34.1624 0.0000 0.0000 0.0000
# 3 40.7466 34.1624 179.8642 0.0000 0.0000 0.0000
# 4 0.0000 0.0000 0.0000 23.1783 0.0000 0.0000
# 5 0.0000 0.0000 0.0000 0.0000 29.0397 0.0000
# 6 0.0000 0.0000 0.0000 0.0000 0.0000 32.7223
#
#
#
# Elastic Compliance Matrix: (Units=1/GPa)
#
#
# Indices 1 2 3 4 5 6 
#
# 1 0.015598 -0.001884 -0.003176 0.000000 0.000000 0.000000
# 2 -0.001884 0.010454 -0.001559 0.000000 0.000000 0.000000
# 3 -0.003176 -0.001559 0.006575 0.000000 0.000000 0.000000
# 4 0.000000 0.000000 0.000000 0.043144 0.000000 0.000000
# 5 0.000000 0.000000 0.000000 0.000000 0.034436 0.000000
# 6 0.000000 0.000000 0.000000 0.000000 0.000000 0.030560
#
#
# Mechanical properties :
#
#
# Convention : Reuss Voigt Hill
#
# Bulk Modulus (GPa) = 51.57236 60.86937 56.22086
# Shear Modulus (GPa) = 31.15870 34.61750 32.88810
#
# Velocity S-wave (km/s) = 3.95776 4.17165 4.06611
# Velocity P-wave (km/s) = 6.84188 7.33508 7.09277
#
# Compressibility (1/GPa) = 0.01939023
#
# Stress axis : x y z
#
# Youngs Moduli (GPa) = 64.10915 95.65354 152.08538
#
# Poissons Ratio (x) = 0.18025 0.48299
# Poissons Ratio (y) = 0.12081 0.23706
# Poissons Ratio (z) = 0.20360 0.14910
#
# Static dielectric constant tensor:
#      x y z
#    x 2.215760 0.000000 0.000000 
#    y 0.000000 1.820780 0.000000 
#    z 0.000000 0.000000 1.708720 
# 
# From -- ./inp_files/44718.got.cif
#   From: 2010.05.17/outbox.cif.g08.bks.cpg/sg52_23_cif.got.tgz:44718.got - 2010.06.03 12:15:38.
