data_PCOD9410017
_publ_section_title
;
Structure prediction by ZEFSAII (Michael W. Deem and Ramdas Pophale) SiO2 
 PCOD9410017
Probable space group: P N N A
;
_chemical_formula_sum "Si O2"
_cell_formula_units_Z 48
_cell_length_a 9.039236
_cell_length_b 9.394131
_cell_length_c 26.832153
_cell_angle_alpha 90.000000
_cell_angle_beta 90.000000
_cell_angle_gamma 90.000000
_cell_volume 2278.472856
_symmetry_space_group_name_H-M "P N N A"
_symmetry_group_IT_number 52
_symmetry_cell_setting 'orthorhombic'
loop_
_space_group_symop_operation_xyz
x,y,z
1/2-x,-y,z
x,1/2-y,1/2-z
1/2-x,1/2+y,1/2-z
-x,-y,-z
1/2+x,y,-z
-x,1/2+y,1/2+z
1/2+x,1/2-y,1/2+z
loop_
_atom_site_type_symbol
_atom_site_label
_atom_site_fract_x
_atom_site_fract_y
_atom_site_fract_z
Si Si1 0.995290 0.396350 0.354888
Si Si2 0.250000 0.000000 0.082788
Si Si3 0.096233 0.920304 0.749853
Si Si4 0.331838 0.288131 0.497824
Si Si5 0.911797 0.071781 0.362030
Si Si6 0.250000 0.500000 0.578565
Si Si7 0.423655 0.895586 0.461045
O O1 0.007821 0.442660 0.297491
O O2 0.912669 0.243985 0.358717
O O3 0.890087 0.500220 0.385498
O O4 0.151278 0.398813 0.382621
O O5 0.347056 0.098088 0.046179
O O6 0.122294 0.750000 0.750000
O O7 0.045491 0.969793 0.694760
O O8 0.250000 0.000000 0.759775
O O9 0.242221 0.365006 0.541942
O O10 0.481321 0.246417 0.525971
O O11 0.241512 0.154915 0.474302
O O12 0.029749 0.047579 0.406421
O O13 0.750000 0.000000 0.372875
O O14 0.500000 0.000000 0.500000
#
# Coordination Sequence:
#
# PCOD9410017 Si02
#       7
#     8   4   8   8   8   4   8
#     4  11  20  37  63  90 116 154 197 248 309 356
#     4  11  22  38  58  86 126 156 187 242 308 368
#     4   9  19  35  61  88 116 146 200 254 303 349
#     4  11  22  38  55  86 119 155 195 244 294 350
#     4  10  20  38  59  87 117 155 197 253 297 349
#     4  11  20  34  62  88 116 146 201 252 292 342
#     4  12  23  37  59  84 117 161 199 235 292 358
#
# _framework density 21.066741
#
# number of rings (size 3 to 8) (size 9 to 14) (size 15 to 20)
#    0.000    1.333    4.167    2.500    0.000    2.667 
#    0.000    0.000    3.667    3.000    0.000    0.000 
#    0.000    0.000    0.000    0.000    0.000    0.000 
#
# Total GULP energy -267550.823727 kJ/mol
# GULP energy per Si atom -5573.975494 kJ/mol
# Density = 2.101879 g / cm^3
# Si number density = 21.066741 Si / 1000 Ang^3
#
#
#
# Elastic Constant Matrix: (Units=GPa)
#
#
# Indices 1 2 3 4 5 6 
#
# 1 59.3052 1.2256 29.1436 0.0000 0.0000 0.0000
# 2 1.2256 35.0815 11.4470 0.0000 0.0000 0.0000
# 3 29.1436 11.4470 160.6998 0.0000 0.0000 0.0000
# 4 0.0000 0.0000 0.0000 23.6567 0.0000 0.0000
# 5 0.0000 0.0000 0.0000 0.0000 17.2915 0.0000
# 6 0.0000 0.0000 0.0000 0.0000 0.0000 25.9604
#
#
#
# Elastic Compliance Matrix: (Units=1/GPa)
#
#
# Indices 1 2 3 4 5 6 
#
# 1 0.018519 0.000460 -0.003391 0.000000 0.000000 0.000000
# 2 0.000460 0.029195 -0.002163 0.000000 0.000000 0.000000
# 3 -0.003391 -0.002163 0.006992 0.000000 0.000000 0.000000
# 4 0.000000 0.000000 0.000000 0.042271 0.000000 0.000000
# 5 0.000000 0.000000 0.000000 0.000000 0.057832 0.000000
# 6 0.000000 0.000000 0.000000 0.000000 0.000000 0.038520
#
#
# Mechanical properties :
#
#
# Convention : Reuss Voigt Hill
#
# Bulk Modulus (GPa) = 22.46366 37.63545 30.04955
# Shear Modulus (GPa) = 22.89829 27.59974 25.24901
#
# Velocity S-wave (km/s) = 3.30045 3.62347 3.46573
# Velocity P-wave (km/s) = 5.02098 5.95060 5.50545
#
# Compressibility (1/GPa) = 0.04451635
#
# Stress axis : x y z
#
# Youngs Moduli (GPa) = 53.99879 34.25273 143.02318
#
# Poissons Ratio (x) = -0.01574 0.48502
# Poissons Ratio (y) = -0.02482 0.30935
# Poissons Ratio (z) = 0.18312 0.07409
#
# Static dielectric constant tensor:
#      x y z
#    x 1.774000 0.000000 0.000000 
#    y 0.000000 1.839320 0.000000 
#    z 0.000000 0.000000 1.787100 
# 
# From -- ./inp_files/42239.got.cif
#   From: 2010.05.17/outbox.cif.g08.bks.cpg/sg52_22_cif.got.tgz:42239.got - 2010.06.03 12:15:38.
