data_PCOD9410447
_publ_section_title
;
Structure prediction by ZEFSAII (Michael W. Deem and Ramdas Pophale) SiO2 
 PCOD9410447
Probable space group: P N N A
;
_chemical_formula_sum "Si O2"
_cell_formula_units_Z 44
_cell_length_a 8.973096
_cell_length_b 13.859747
_cell_length_c 17.555624
_cell_angle_alpha 90.000000
_cell_angle_beta 90.000000
_cell_angle_gamma 90.000000
_cell_volume 2183.302376
_symmetry_space_group_name_H-M "P N N A"
_symmetry_group_IT_number 52
_symmetry_cell_setting 'orthorhombic'
loop_
_space_group_symop_operation_xyz
x,y,z
1/2-x,-y,z
x,1/2-y,1/2-z
1/2-x,1/2+y,1/2-z
-x,-y,-z
1/2+x,y,-z
-x,1/2+y,1/2+z
1/2+x,1/2-y,1/2+z
loop_
_atom_site_type_symbol
_atom_site_label
_atom_site_fract_x
_atom_site_fract_y
_atom_site_fract_z
Si Si1 0.236967 0.135918 0.110699
Si Si2 0.078005 0.003226 0.670563
Si Si3 0.502822 0.977343 0.842391
Si Si4 0.250000 0.500000 0.531910
Si Si5 0.607111 0.341547 0.915325
Si Si6 0.070222 0.904035 0.458695
O O1 0.398296 0.118750 0.147584
O O2 0.172389 0.242159 0.115060
O O3 0.120076 0.064923 0.151487
O O4 0.252829 0.091943 0.025032
O O5 0.982618 0.908531 0.644721
O O6 0.250000 0.000000 0.645178
O O7 0.999583 0.089997 0.624831
O O8 0.071738 0.018204 0.760350
O O9 0.390563 0.990560 0.912418
O O10 0.753909 0.395033 0.948741
O O11 0.493942 0.322826 0.985479
O O12 0.000000 0.000000 0.500000
#
# Coordination Sequence:
#
# PCOD9410447 Si02
#       6
#     8   8   8   4   8   8
#     4  10  23  39  68  95 127 163 219 267 320 377
#     4  11  22  43  64  90 129 176 212 259 329 389
#     4  10  22  41  67  91 131 174 205 261 335 383
#     4  10  20  42  68  92 126 166 214 262 324 376
#     4  11  24  39  70  96 129 165 223 268 311 391
#     4  10  21  39  64  92 124 168 210 260 320 378
#
# _framework density 20.152958000000002
#
# number of rings (size 3 to 8) (size 9 to 14) (size 15 to 20)
#    0.000    1.818    0.909    6.545   10.182    0.727 
#    0.000    0.000    4.000    0.000    0.000    0.000 
#    0.000    0.000    0.000    0.000    0.000    0.000 
#
# Total GULP energy -245366.388388 kJ/mol
# GULP energy per Si atom -5576.508827 kJ/mol
# Density = 2.010709 g / cm^3
# Si number density = 20.152958 Si / 1000 Ang^3
#
#
#
# Elastic Constant Matrix: (Units=GPa)
#
#
# Indices 1 2 3 4 5 6 
#
# 1 144.5732 23.5662 24.4137 0.0000 0.0000 0.0000
# 2 23.5662 76.5693 0.5801 0.0000 0.0000 0.0000
# 3 24.4137 0.5801 95.6916 0.0000 0.0000 0.0000
# 4 0.0000 0.0000 0.0000 4.4765 0.0000 0.0000
# 5 0.0000 0.0000 0.0000 0.0000 -3.6269 0.0000
# 6 0.0000 0.0000 0.0000 0.0000 0.0000 18.1509
#
#
#
# Elastic Compliance Matrix: (Units=1/GPa)
#
#
# Indices 1 2 3 4 5 6 
#
# 1 0.007623 -0.002332 -0.001931 0.000000 0.000000 0.000000
# 2 -0.002332 0.013774 0.000511 0.000000 0.000000 0.000000
# 3 -0.001931 0.000511 0.010940 0.000000 0.000000 0.000000
# 4 0.000000 0.000000 0.000000 0.223388 0.000000 0.000000
# 5 0.000000 0.000000 0.000000 0.000000 -0.275715 0.000000
# 6 0.000000 0.000000 0.000000 0.000000 0.000000 0.055094
#
#
# Mechanical properties :
#
#
# Convention : Reuss Voigt Hill
#
# Bulk Modulus (GPa) = 40.26630 45.99491 43.13060
# Shear Modulus (GPa) = 98.26456 21.68503 59.97479
#
# Velocity S-wave (km/s) = 6.99037 3.28384 5.46117
# Velocity P-wave (km/s) = 9.22916 6.10332 7.82393
#
# Compressibility (1/GPa) = 0.02483466
#
# Stress axis : x y z
#
# Youngs Moduli (GPa) = 131.18188 72.60171 91.40998
#
# Poissons Ratio (x) = 0.16927 0.17649
# Poissons Ratio (y) = 0.30586 -0.04674
# Poissons Ratio (z) = 0.25328 -0.03712
#
# Static dielectric constant tensor:
#      x y z
#    x 1.731200 0.000000 0.000000 
#    y 0.000000 1.778520 0.000000 
#    z 0.000000 0.000000 1.740510 
# 
# From -- ./inp_files/31160.got.cif
#   From: 2010.05.17/outbox.cif.g08.bks.cpg/sg52_16_cif.got.tgz:31160.got - 2010.06.03 12:15:38.
