data_PCOD9410589
_publ_section_title
;
Structure prediction by ZEFSAII (Michael W. Deem and Ramdas Pophale) SiO2 
 PCOD9410589
Probable space group: P N N A
;
_chemical_formula_sum "Si O2"
_cell_formula_units_Z 60
_cell_length_a 8.870862
_cell_length_b 14.158885
_cell_length_c 26.011806
_cell_angle_alpha 90.000000
_cell_angle_beta 90.000000
_cell_angle_gamma 90.000000
_cell_volume 3267.122239
_symmetry_space_group_name_H-M "P N N A"
_symmetry_group_IT_number 52
_symmetry_cell_setting 'orthorhombic'
loop_
_space_group_symop_operation_xyz
x,y,z
1/2-x,-y,z
x,1/2-y,1/2-z
1/2-x,1/2+y,1/2-z
-x,-y,-z
1/2+x,y,-z
-x,1/2+y,1/2+z
1/2+x,1/2-y,1/2+z
loop_
_atom_site_type_symbol
_atom_site_label
_atom_site_fract_x
_atom_site_fract_y
_atom_site_fract_z
Si Si1 0.362425 0.090783 0.154546
Si Si2 0.750000 0.500000 0.245613
Si Si3 0.971439 0.152883 0.227146
Si Si4 0.209040 0.391165 0.181718
Si Si5 0.608428 0.223860 0.878687
Si Si6 0.497066 0.853802 0.736287
Si Si7 0.064684 0.092159 0.938196
Si Si8 0.899781 0.369871 0.462705
O O1 0.268667 0.172677 0.125911
O O2 0.417111 0.107900 0.212600
O O3 0.512013 0.087699 0.120312
O O4 0.250000 0.000000 0.152666
O O5 0.851282 0.428791 0.277432
O O6 0.629728 0.429178 0.218623
O O7 0.908269 0.250000 0.250000
O O8 0.100258 0.120935 0.268146
O O9 0.031326 0.178645 0.171721
O O10 0.250000 0.500000 0.172777
O O11 0.131227 0.334086 0.135249
O O12 0.368215 0.342809 0.195622
O O13 0.510549 0.193433 0.927643
O O14 0.436949 0.750000 0.750000
O O15 0.224270 0.142366 0.948992
O O16 0.073872 0.980844 0.951372
O O17 0.944166 0.138310 0.977461
#
# Coordination Sequence:
#
# PCOD9410589 Si02
#       8
#     8   4   8   8   8   8   8   8
#     4  12  21  34  56  84 114 157 196 232 286 352
#     4  12  24  32  52  74 114 156 184 244 278 334
#     4  10  21  36  52  77 110 151 194 236 284 337
#     4  11  20  40  59  77 106 155 203 247 282 340
#     4  11  21  35  57  81 110 149 195 237 286 350
#     4  12  23  38  54  81 115 156 201 240 290 345
#     4  10  22  34  56  80 120 151 186 230 285 354
#     4  10  21  37  53  84 116 152 187 232 287 346
#
# _framework density 18.364787
#
# number of rings (size 3 to 8) (size 9 to 14) (size 15 to 20)
#    0.000    1.067    5.333    2.800    3.733    0.000 
#    0.000    0.000    0.000    0.000    0.000    3.733 
#    0.000    0.000    0.000    0.000    0.000    0.000 
#
# Total GULP energy -334482.314543 kJ/mol
# GULP energy per Si atom -5574.705242 kJ/mol
# Density = 1.832299 g / cm^3
# Si number density = 18.364787 Si / 1000 Ang^3
#
#
#
# Elastic Constant Matrix: (Units=GPa)
#
#
# Indices 1 2 3 4 5 6 
#
# 1 90.1898 32.6778 19.8925 0.0000 0.0000 0.0000
# 2 32.6778 102.7918 16.8741 0.0000 0.0000 0.0000
# 3 19.8925 16.8741 64.7515 0.0000 0.0000 0.0000
# 4 0.0000 0.0000 0.0000 19.4173 0.0000 0.0000
# 5 0.0000 0.0000 0.0000 0.0000 2.6398 0.0000
# 6 0.0000 0.0000 0.0000 0.0000 0.0000 30.8155
#
#
#
# Elastic Compliance Matrix: (Units=1/GPa)
#
#
# Indices 1 2 3 4 5 6 
#
# 1 0.013090 -0.003658 -0.003068 0.000000 0.000000 0.000000
# 2 -0.003658 0.011185 -0.001791 0.000000 0.000000 0.000000
# 3 -0.003068 -0.001791 0.016853 0.000000 0.000000 0.000000
# 4 0.000000 0.000000 0.000000 0.051500 0.000000 0.000000
# 5 0.000000 0.000000 0.000000 0.000000 0.378813 0.000000
# 6 0.000000 0.000000 0.000000 0.000000 0.000000 0.032451
#
#
# Mechanical properties :
#
#
# Convention : Reuss Voigt Hill
#
# Bulk Modulus (GPa) = 41.50403 44.06909 42.78656
# Shear Modulus (GPa) = 9.45255 23.12711 16.28983
#
# Velocity S-wave (km/s) = 2.27118 3.55254 2.98151
# Velocity P-wave (km/s) = 5.43383 6.39343 5.93307
#
# Compressibility (1/GPa) = 0.02409405
#
# Stress axis : x y z
#
# Youngs Moduli (GPa) = 76.39615 89.40394 59.33655
#
# Poissons Ratio (x) = 0.32700 0.18205
# Poissons Ratio (y) = 0.27942 0.10628
# Poissons Ratio (z) = 0.23440 0.16014
#
# Static dielectric constant tensor:
#      x y z
#    x 1.721270 0.000000 0.000000 
#    y 0.000000 1.703630 0.000000 
#    z 0.000000 0.000000 1.611360 
# 
# From -- ./inp_files/42408.got.cif
#   From: 2010.05.17/outbox.cif.g08.bks.cpg/sg52_22_cif.got.tgz:42408.got - 2010.06.03 12:15:38.
