data_PCOD9410386
_publ_section_title
;
Structure prediction by ZEFSAII (Michael W. Deem and Ramdas Pophale) SiO2 
 PCOD9410386
Probable space group: P N N A
;
_chemical_formula_sum "Si O2"
_cell_formula_units_Z 56
_cell_length_a 12.208818
_cell_length_b 14.778907
_cell_length_c 15.314227
_cell_angle_alpha 90.000000
_cell_angle_beta 90.000000
_cell_angle_gamma 90.000000
_cell_volume 2763.191703
_symmetry_space_group_name_H-M "P N N A"
_symmetry_group_IT_number 52
_symmetry_cell_setting 'orthorhombic'
loop_
_space_group_symop_operation_xyz
x,y,z
1/2-x,-y,z
x,1/2-y,1/2-z
1/2-x,1/2+y,1/2-z
-x,-y,-z
1/2+x,y,-z
-x,1/2+y,1/2+z
1/2+x,1/2-y,1/2+z
loop_
_atom_site_type_symbol
_atom_site_label
_atom_site_fract_x
_atom_site_fract_y
_atom_site_fract_z
Si Si1 0.217810 0.397750 0.615538
Si Si2 0.776390 0.628763 0.885601
Si Si3 0.567788 0.961962 0.579506
Si Si4 0.055544 0.838968 0.811717
Si Si5 0.801222 0.400203 0.694884
Si Si6 0.645524 0.313374 0.559725
Si Si7 0.962404 0.954439 0.245489
O O1 0.250000 0.500000 0.586634
O O2 0.326453 0.342945 0.641434
O O3 0.151761 0.351233 0.537380
O O4 0.143558 0.412316 0.700954
O O5 0.663236 0.610734 0.937849
O O6 0.856720 0.542773 0.882197
O O7 0.738887 0.645855 0.785589
O O8 0.843527 0.706316 0.932501
O O9 0.500000 0.000000 0.500000
O O10 0.484789 0.930595 0.654228
O O11 0.043825 0.750000 0.750000
O O12 0.960586 0.840386 0.884549
O O13 0.044733 0.936040 0.762558
O O14 0.750000 0.500000 0.694848
O O15 0.751753 0.349528 0.612452
O O16 0.930797 0.415490 0.696156
#
# Coordination Sequence:
#
# PCOD9410386 Si02
#       7
#     8   8   8   8   8   8   8
#     4  10  26  43  60  95 134 174 213 256 330 400
#     4  10  21  39  59  98 123 156 224 268 323 381
#     4  10  20  41  67  89 123 169 214 271 333 390
#     4  11  23  42  65  89 128 174 214 263 326 397
#     4  11  18  37  67  92 124 165 205 272 319 378
#     4  12  23  36  66  98 125 166 218 268 313 389
#     4  10  21  42  64  89 129 170 210 261 330 391
#
# _framework density 20.266418000000002
#
# number of rings (size 3 to 8) (size 9 to 14) (size 15 to 20)
#    0.000    1.429    4.286    2.571    2.000    3.429 
#   10.286    1.429    0.000    0.000    0.000    0.000 
#    0.000    0.000    0.000    0.000    0.000    0.000 
#
# Total GULP energy -312675.035324 kJ/mol
# GULP energy per Si atom -5583.482774 kJ/mol
# Density = 2.022029 g / cm^3
# Si number density = 20.266418 Si / 1000 Ang^3
#
#
#
# Elastic Constant Matrix: (Units=GPa)
#
#
# Indices 1 2 3 4 5 6 
#
# 1 54.9589 -5.6044 13.4780 0.0000 0.0000 0.0000
# 2 -5.6044 24.5740 -5.9279 0.0000 0.0000 0.0000
# 3 13.4780 -5.9279 52.0814 0.0000 0.0000 0.0000
# 4 0.0000 0.0000 0.0000 21.2053 0.0000 0.0000
# 5 0.0000 0.0000 0.0000 0.0000 16.8178 0.0000
# 6 0.0000 0.0000 0.0000 0.0000 0.0000 20.6617
#
#
#
# Elastic Compliance Matrix: (Units=1/GPa)
#
#
# Indices 1 2 3 4 5 6 
#
# 1 0.019694 0.003354 -0.004715 0.000000 0.000000 0.000000
# 2 0.003354 0.042413 0.003960 0.000000 0.000000 0.000000
# 3 -0.004715 0.003960 0.020872 0.000000 0.000000 0.000000
# 4 0.000000 0.000000 0.000000 0.047158 0.000000 0.000000
# 5 0.000000 0.000000 0.000000 0.000000 0.059461 0.000000
# 6 0.000000 0.000000 0.000000 0.000000 0.000000 0.048399
#
#
# Mechanical properties :
#
#
# Convention : Reuss Voigt Hill
#
# Bulk Modulus (GPa) = 11.34092 15.05620 13.19856
# Shear Modulus (GPa) = 19.07009 20.38153 19.72581
#
# Velocity S-wave (km/s) = 3.07085 3.17469 3.12320
# Velocity P-wave (km/s) = 4.26398 4.56984 4.41956
#
# Compressibility (1/GPa) = 0.08817630
#
# Stress axis : x y z
#
# Youngs Moduli (GPa) = 50.77771 23.57744 47.91220
#
# Poissons Ratio (x) = -0.07908 0.22589
# Poissons Ratio (y) = -0.17031 -0.18971
# Poissons Ratio (z) = 0.23940 -0.09336
#
# Static dielectric constant tensor:
#      x y z
#    x 1.722480 0.000000 0.000000 
#    y 0.000000 1.994580 0.000000 
#    z 0.000000 0.000000 1.707890 
# 
# From -- ./inp_files/26171.got.cif
#   From: 2010.05.17/outbox.cif.g08.bks.cpg/sg52_14_cif.got.tgz:26171.got - 2010.06.03 12:15:38.
