data_PCOD9410999
_publ_section_title
;
Structure prediction by ZEFSAII (Michael W. Deem and Ramdas Pophale) SiO2 
 PCOD9410999
Probable space group: P N N A
;
_chemical_formula_sum "Si O2"
_cell_formula_units_Z 20
_cell_length_a 23.941818
_cell_length_b 4.966026
_cell_length_c 7.141800
_cell_angle_alpha 90.000000
_cell_angle_beta 90.000000
_cell_angle_gamma 90.000000
_cell_volume 849.129244
_symmetry_space_group_name_H-M "P N N A"
_symmetry_group_IT_number 52
_symmetry_cell_setting 'orthorhombic'
loop_
_space_group_symop_operation_xyz
x,y,z
1/2-x,-y,z
x,1/2-y,1/2-z
1/2-x,1/2+y,1/2-z
-x,-y,-z
1/2+x,y,-z
-x,1/2+y,1/2+z
1/2+x,1/2-y,1/2+z
loop_
_atom_site_type_symbol
_atom_site_label
_atom_site_fract_x
_atom_site_fract_y
_atom_site_fract_z
Si Si1 0.384032 0.779278 0.976977
Si Si2 0.551118 0.792127 0.470724
Si Si3 0.787613 0.750000 0.750000
O O1 0.380573 0.750000 0.750000
O O2 0.398524 0.477740 0.040770
O O3 0.434171 0.988260 0.035062
O O4 0.327313 0.851095 0.080418
O O5 0.552745 0.750000 0.250000
O O6 0.500000 0.000000 0.500000
O O7 0.750000 0.500000 0.812712
#
# Coordination Sequence:
#
# PCOD9410999 Si02
#       3
#     8   8   4
#     4  10  23  43  64  93 136 169 217 279 330 399
#     4  10  21  39  64  96 133 179 217 262 337 403
#     4  12  26  44  68  98 124 174 232 278 342 392
#
# _framework density 23.553542
#
# number of rings (size 3 to 8) (size 9 to 14) (size 15 to 20)
#    0.000    1.600    0.000    3.600    2.800    1.600 
#    0.000    0.000    0.000    0.000    0.000    0.000 
#    0.000    0.000    0.000    0.000    0.000    0.000 
#
# Total GULP energy -111403.225812 kJ/mol
# GULP energy per Si atom -5570.161291 kJ/mol
# Density = 2.349993 g / cm^3
# Si number density = 23.553542 Si / 1000 Ang^3
#
#
#
# Elastic Constant Matrix: (Units=GPa)
#
#
# Indices 1 2 3 4 5 6 
#
# 1 100.2490 47.5489 22.9561 0.0000 0.0000 0.0000
# 2 47.5489 190.6474 22.6624 0.0000 0.0000 0.0000
# 3 22.9561 22.6624 101.2326 0.0000 0.0000 0.0000
# 4 0.0000 0.0000 0.0000 16.8602 0.0000 0.0000
# 5 0.0000 0.0000 0.0000 0.0000 26.6100 0.0000
# 6 0.0000 0.0000 0.0000 0.0000 0.0000 55.3037
#
#
#
# Elastic Compliance Matrix: (Units=1/GPa)
#
#
# Indices 1 2 3 4 5 6 
#
# 1 0.011716 -0.002678 -0.002057 0.000000 0.000000 0.000000
# 2 -0.002678 0.006001 -0.000736 0.000000 0.000000 0.000000
# 3 -0.002057 -0.000736 0.010510 0.000000 0.000000 0.000000
# 4 0.000000 0.000000 0.000000 0.059311 0.000000 0.000000
# 5 0.000000 0.000000 0.000000 0.000000 0.037580 0.000000
# 6 0.000000 0.000000 0.000000 0.000000 0.000000 0.018082
#
#
# Mechanical properties :
#
#
# Convention : Reuss Voigt Hill
#
# Bulk Modulus (GPa) = 57.85634 64.27374 61.06504
# Shear Modulus (GPa) = 31.26892 39.68557 35.47724
#
# Velocity S-wave (km/s) = 3.64753 4.10922 3.88524
# Velocity P-wave (km/s) = 6.50818 7.06129 6.79037
#
# Compressibility (1/GPa) = 0.01728419
#
# Stress axis : x y z
#
# Youngs Moduli (GPa) = 85.35130 166.65012 95.15114
#
# Poissons Ratio (x) = 0.44622 0.19577
# Poissons Ratio (y) = 0.22853 0.07005
# Poissons Ratio (z) = 0.17561 0.12268
#
# Static dielectric constant tensor:
#      x y z
#    x 2.120880 0.000000 0.000000 
#    y 0.000000 1.964380 0.000000 
#    z 0.000000 0.000000 1.880600 
# 
# From -- ./inp_files/11182.got.cif
#   From: 2010.05.17/outbox.cif.g08.bks.cpg/sg52_6_cif.got.tgz:11182.got - 2010.06.03 12:15:38.
