data_PCOD9410016
_publ_section_title
;
Structure prediction by ZEFSAII (Michael W. Deem and Ramdas Pophale) SiO2 
 PCOD9410016
Probable space group: P N N A
;
_chemical_formula_sum "Si O2"
_cell_formula_units_Z 48
_cell_length_a 28.296977
_cell_length_b 5.682237
_cell_length_c 12.356748
_cell_angle_alpha 90.000000
_cell_angle_beta 90.000000
_cell_angle_gamma 90.000000
_cell_volume 1986.843114
_symmetry_space_group_name_H-M "P N N A"
_symmetry_group_IT_number 52
_symmetry_cell_setting 'orthorhombic'
loop_
_space_group_symop_operation_xyz
x,y,z
1/2-x,-y,z
x,1/2-y,1/2-z
1/2-x,1/2+y,1/2-z
-x,-y,-z
1/2+x,y,-z
-x,1/2+y,1/2+z
1/2+x,1/2-y,1/2+z
loop_
_atom_site_type_symbol
_atom_site_label
_atom_site_fract_x
_atom_site_fract_y
_atom_site_fract_z
Si Si1 0.630046 0.222628 0.533410
Si Si2 0.471393 0.495482 0.690788
Si Si3 0.702427 0.883384 0.649400
Si Si4 0.390312 0.197074 0.578999
Si Si5 0.298031 0.405046 0.564195
Si Si6 0.071829 0.901783 0.139996
O O1 0.665674 0.391611 0.468721
O O2 0.596208 0.346148 0.620681
O O3 0.666389 0.068745 0.602215
O O4 0.601778 0.080686 0.439241
O O5 0.490043 0.250000 0.750000
O O6 0.424410 0.376187 0.641132
O O7 0.516149 0.566233 0.617418
O O8 0.461926 0.750000 0.750000
O O9 0.680059 0.750000 0.750000
O O10 0.716790 0.719896 0.548347
O O11 0.750000 0.000000 0.692689
O O12 0.335931 0.225548 0.616830
O O13 0.400555 0.266391 0.454311
O O14 0.250000 0.500000 0.617459
O O15 0.074338 0.750000 0.250000
#
# Coordination Sequence:
#
# PCOD9410016 Si02
#       6
#     8   8   8   8   8   8
#     4  10  23  38  60  85 133 167 233 275 339 395
#     4  11  27  48  73  99 136 174 226 287 356 418
#     4  11  22  34  48  79 121 178 224 271 324 390
#     4  10  24  41  69  98 126 176 221 281 340 410
#     4  10  20  38  59  85 122 166 220 268 335 401
#     4  10  24  43  63  97 132 179 223 275 338 406
#
# _framework density 24.158926999999998
#
# number of rings (size 3 to 8) (size 9 to 14) (size 15 to 20)
#    0.000    1.667    1.667    1.000    9.333    8.000 
#    0.000    0.000    0.000    1.000    0.000    0.000 
#    0.000    0.000    0.000    0.000    0.000    0.000 
#
# Total GULP energy -267252.143760 kJ/mol
# GULP energy per Si atom -5567.752995 kJ/mol
# Density = 2.410394 g / cm^3
# Si number density = 24.158927 Si / 1000 Ang^3
#
#
#
# Elastic Constant Matrix: (Units=GPa)
#
#
# Indices 1 2 3 4 5 6 
#
# 1 156.5821 30.4789 24.9211 0.0000 0.0000 0.0000
# 2 30.4789 119.2205 25.8863 0.0000 0.0000 0.0000
# 3 24.9211 25.8863 37.4730 0.0000 0.0000 0.0000
# 4 0.0000 0.0000 0.0000 29.5479 0.0000 0.0000
# 5 0.0000 0.0000 0.0000 0.0000 13.1429 0.0000
# 6 0.0000 0.0000 0.0000 0.0000 0.0000 -59.2218
#
#
#
# Elastic Compliance Matrix: (Units=1/GPa)
#
#
# Indices 1 2 3 4 5 6 
#
# 1 0.007232 -0.000947 -0.004156 0.000000 0.000000 0.000000
# 2 -0.000947 0.009992 -0.006273 0.000000 0.000000 0.000000
# 3 -0.004156 -0.006273 0.033783 0.000000 0.000000 0.000000
# 4 0.000000 0.000000 0.000000 0.033843 0.000000 0.000000
# 5 0.000000 0.000000 0.000000 0.000000 0.076087 0.000000
# 6 0.000000 0.000000 0.000000 0.000000 0.000000 -0.016886
#
#
# Mechanical properties :
#
#
# Convention : Reuss Voigt Hill
#
# Bulk Modulus (GPa) = 35.39008 52.87202 44.13105
# Shear Modulus (GPa) = 28.37355 12.15976 20.26666
#
# Velocity S-wave (km/s) = 3.43075 2.24592 2.89950
# Velocity P-wave (km/s) = 5.51127 5.35333 5.43287
#
# Compressibility (1/GPa) = 0.02825650
#
# Stress axis : x y z
#
# Youngs Moduli (GPa) = 138.27261 100.08180 29.60080
#
# Poissons Ratio (x) = 0.09473 0.12301
# Poissons Ratio (y) = 0.13088 0.18568
# Poissons Ratio (z) = 0.57463 0.62780
#
# Static dielectric constant tensor:
#      x y z
#    x 1.905870 0.000000 0.000000 
#    y 0.000000 2.225470 0.000000 
#    z 0.000000 0.000000 1.999920 
# 
# From -- ./inp_files/29432.got.cif
#   From: 2010.05.17/outbox.cif.g08.bks.cpg/sg52_15_cif.got.tgz:29432.got - 2010.06.03 12:15:38.
