data_PCOD9410981
_publ_section_title
;
Structure prediction by ZEFSAII (Michael W. Deem and Ramdas Pophale) SiO2 
 PCOD9410981
Probable space group: P N N A
;
_chemical_formula_sum "Si O2"
_cell_formula_units_Z 32
_cell_length_a 34.687900
_cell_length_b 6.944078
_cell_length_c 6.166885
_cell_angle_alpha 90.000000
_cell_angle_beta 90.000000
_cell_angle_gamma 90.000000
_cell_volume 1485.451405
_symmetry_space_group_name_H-M "P N N A"
_symmetry_group_IT_number 52
_symmetry_cell_setting 'orthorhombic'
loop_
_space_group_symop_operation_xyz
x,y,z
1/2-x,-y,z
x,1/2-y,1/2-z
1/2-x,1/2+y,1/2-z
-x,-y,-z
1/2+x,y,-z
-x,1/2+y,1/2+z
1/2+x,1/2-y,1/2+z
loop_
_atom_site_type_symbol
_atom_site_label
_atom_site_fract_x
_atom_site_fract_y
_atom_site_fract_z
Si Si1 0.285503 0.250000 0.750000
Si Si2 0.325665 0.448198 0.382892
Si Si3 0.488834 0.250000 0.750000
Si Si4 0.113634 0.250000 0.250000
Si Si5 0.946606 0.621425 0.066298
Si Si6 0.250000 0.000000 0.391039
O O1 0.312802 0.400813 0.627431
O O2 0.259367 0.171606 0.556359
O O3 0.336418 0.250000 0.250000
O O4 0.358581 0.607437 0.380281
O O5 0.287886 0.521615 0.253508
O O6 0.518052 0.243581 0.543264
O O7 0.462609 0.431451 0.816250
O O8 0.085319 0.106906 0.381906
O O9 0.928093 0.750000 0.250000
#
# Coordination Sequence:
#
# PCOD9410981 Si02
#       6
#     4   8   4   4   8   4
#     4  10  22  40  67  94 121 172 222 278 353 386
#     4  10  24  42  59  92 130 166 218 276 331 405
#     4   9  20  40  67  94 134 166 228 268 314 404
#     4  11  26  40  64  94 139 172 218 276 335 394
#     4  10  21  39  64 100 127 178 216 270 331 390
#     4  10  22  38  66  94 120 164 226 278 334 404
#
# _framework density 21.542273999999999
#
# number of rings (size 3 to 8) (size 9 to 14) (size 15 to 20)
#    0.000    2.000    0.000    1.500    8.750    6.000 
#    0.000    3.750    0.000    0.000    0.000    0.000 
#    0.000    0.000    0.000    0.000    0.000    0.000 
#
# Total GULP energy -178388.770356 kJ/mol
# GULP energy per Si atom -5574.649074 kJ/mol
# Density = 2.149324 g / cm^3
# Si number density = 21.542274 Si / 1000 Ang^3
#
#
#
# Elastic Constant Matrix: (Units=GPa)
#
#
# Indices 1 2 3 4 5 6 
#
# 1 112.5471 57.3455 44.2610 0.0000 0.0000 0.0000
# 2 57.3455 97.4680 44.4931 0.0000 0.0000 0.0000
# 3 44.2610 44.4931 99.1985 0.0000 0.0000 0.0000
# 4 0.0000 0.0000 0.0000 36.5106 0.0000 0.0000
# 5 0.0000 0.0000 0.0000 0.0000 -1.6695 0.0000
# 6 0.0000 0.0000 0.0000 0.0000 0.0000 25.7540
#
#
#
# Elastic Compliance Matrix: (Units=1/GPa)
#
#
# Indices 1 2 3 4 5 6 
#
# 1 0.013394 -0.006479 -0.003070 0.000000 0.000000 0.000000
# 2 -0.006479 0.016035 -0.004301 0.000000 0.000000 0.000000
# 3 -0.003070 -0.004301 0.013380 0.000000 0.000000 0.000000
# 4 0.000000 0.000000 0.000000 0.027389 0.000000 0.000000
# 5 0.000000 0.000000 0.000000 0.000000 -0.598985 0.000000
# 6 0.000000 0.000000 0.000000 0.000000 0.000000 0.038829
#
#
# Mechanical properties :
#
#
# Convention : Reuss Voigt Hill
#
# Bulk Modulus (GPa) = 66.18987 66.82366 66.50677
# Shear Modulus (GPa) = -10.93561 22.99330 6.02884
#
# Velocity S-wave (km/s) = -2.25552 3.27059 1.67472
# Velocity P-wave (km/s) = 4.89991 6.73420 5.88891
#
# Compressibility (1/GPa) = 0.01510805
#
# Stress axis : x y z
#
# Youngs Moduli (GPa) = 74.66258 62.36335 74.73842
#
# Poissons Ratio (x) = 0.40403 0.22946
# Poissons Ratio (y) = 0.48371 0.32149
# Poissons Ratio (z) = 0.22923 0.26825
#
# Static dielectric constant tensor:
#      x y z
#    x 1.760110 0.000000 0.000000 
#    y 0.000000 1.853850 0.000000 
#    z 0.000000 0.000000 1.787020 
# 
# From -- ./inp_files/6182.got.cif
#   From: 2010.05.17/outbox.cif.g08.bks.cpg/sg52_4_cif.got.tgz:6182.got - 2010.06.03 12:15:38.
