data_PCOD9410445
_publ_section_title
;
Structure prediction by ZEFSAII (Michael W. Deem and Ramdas Pophale) SiO2 
 PCOD9410445
Probable space group: P N N A
;
_chemical_formula_sum "Si O2"
_cell_formula_units_Z 32
_cell_length_a 13.000421
_cell_length_b 23.391943
_cell_length_c 4.947494
_cell_angle_alpha 90.000000
_cell_angle_beta 90.000000
_cell_angle_gamma 90.000000
_cell_volume 1504.558192
_symmetry_space_group_name_H-M "P N N A"
_symmetry_group_IT_number 52
_symmetry_cell_setting 'orthorhombic'
loop_
_space_group_symop_operation_xyz
x,y,z
1/2-x,-y,z
x,1/2-y,1/2-z
1/2-x,1/2+y,1/2-z
-x,-y,-z
1/2+x,y,-z
-x,1/2+y,1/2+z
1/2+x,1/2-y,1/2+z
loop_
_atom_site_type_symbol
_atom_site_label
_atom_site_fract_x
_atom_site_fract_y
_atom_site_fract_z
Si Si1 0.302707 0.816725 0.236642
Si Si2 0.108795 0.374287 0.730206
Si Si3 0.072367 0.554322 0.039027
Si Si4 0.800346 0.081097 0.012362
O O1 0.282647 0.750000 0.250000
O O2 0.332274 0.842995 0.525196
O O3 0.394290 0.831798 0.025017
O O4 0.210857 0.854347 0.107336
O O5 0.184074 0.425845 0.627118
O O6 0.002172 0.397760 0.834649
O O7 0.160846 0.544483 0.260819
O O8 0.122483 0.573549 0.759008
O O9 0.000000 0.500000 0.000000
#
# Coordination Sequence:
#
# PCOD9410445 Si02
#       4
#     8   8   8   8
#     4  10  20  42  68  88 127 172 206 267 330 370
#     4  10  22  41  65  92 132 162 217 265 315 387
#     4  12  24  42  64  96 131 170 213 265 318 385
#     4  10  22  42  62  93 131 160 219 262 311 391
#
# _framework density 21.268702999999999
#
# number of rings (size 3 to 8) (size 9 to 14) (size 15 to 20)
#    1.500    0.000    2.500    3.000    0.000    1.000 
#    4.500    5.000    0.000    0.000    0.000    0.000 
#    0.000    0.000    0.000    0.000    0.000    0.000 
#
# Total GULP energy -178508.405781 kJ/mol
# GULP energy per Si atom -5578.387681 kJ/mol
# Density = 2.122029 g / cm^3
# Si number density = 21.268703 Si / 1000 Ang^3
#
#
#
# Elastic Constant Matrix: (Units=GPa)
#
#
# Indices 1 2 3 4 5 6 
#
# 1 58.4550 38.6666 15.9540 0.0000 0.0000 0.0000
# 2 38.6666 81.7855 34.8617 0.0000 0.0000 0.0000
# 3 15.9540 34.8617 139.8051 0.0000 0.0000 0.0000
# 4 0.0000 0.0000 0.0000 20.9246 0.0000 0.0000
# 5 0.0000 0.0000 0.0000 0.0000 27.0448 0.0000
# 6 0.0000 0.0000 0.0000 0.0000 0.0000 23.5827
#
#
#
# Elastic Compliance Matrix: (Units=1/GPa)
#
#
# Indices 1 2 3 4 5 6 
#
# 1 0.024893 -0.011814 0.000105 0.000000 0.000000 0.000000
# 2 -0.011814 0.019288 -0.003461 0.000000 0.000000 0.000000
# 3 0.000105 -0.003461 0.008004 0.000000 0.000000 0.000000
# 4 0.000000 0.000000 0.000000 0.047791 0.000000 0.000000
# 5 0.000000 0.000000 0.000000 0.000000 0.036976 0.000000
# 6 0.000000 0.000000 0.000000 0.000000 0.000000 0.042404
#
#
# Mechanical properties :
#
#
# Convention : Reuss Voigt Hill
#
# Bulk Modulus (GPa) = 45.77758 51.00111 48.38935
# Shear Modulus (GPa) = 23.04395 27.01465 25.02930
#
# Velocity S-wave (km/s) = 3.29518 3.56780 3.43419
# Velocity P-wave (km/s) = 6.00398 6.40341 6.20691
#
# Compressibility (1/GPa) = 0.02184475
#
# Stress axis : x y z
#
# Youngs Moduli (GPa) = 40.17196 51.84597 124.93809
#
# Poissons Ratio (x) = 0.61250 -0.01314
# Poissons Ratio (y) = 0.47458 0.43247
# Poissons Ratio (z) = -0.00423 0.17946
#
# Static dielectric constant tensor:
#      x y z
#    x 1.810190 0.000000 0.000000 
#    y 0.000000 1.783010 0.000000 
#    z 0.000000 0.000000 1.778690 
# 
# From -- ./inp_files/2213.got.cif
#   From: 2010.05.17/outbox.cif.g08.bks.cpg/sg52_2_cif.got.tgz:2213.got - 2010.06.03 12:15:38.
