data_PCOD9410976
_publ_section_title
;
Structure prediction by ZEFSAII (Michael W. Deem and Ramdas Pophale) SiO2 
 PCOD9410976
Probable space group: P N N A
;
_chemical_formula_sum "Si O2"
_cell_formula_units_Z 36
_cell_length_a 9.334709
_cell_length_b 8.338117
_cell_length_c 20.151806
_cell_angle_alpha 90.000000
_cell_angle_beta 90.000000
_cell_angle_gamma 90.000000
_cell_volume 1568.493568
_symmetry_space_group_name_H-M "P N N A"
_symmetry_group_IT_number 52
_symmetry_cell_setting 'orthorhombic'
loop_
_space_group_symop_operation_xyz
x,y,z
1/2-x,-y,z
x,1/2-y,1/2-z
1/2-x,1/2+y,1/2-z
-x,-y,-z
1/2+x,y,-z
-x,1/2+y,1/2+z
1/2+x,1/2-y,1/2+z
loop_
_atom_site_type_symbol
_atom_site_label
_atom_site_fract_x
_atom_site_fract_y
_atom_site_fract_z
Si Si1 0.494550 0.783939 0.862179
Si Si2 0.091560 0.350110 0.360052
Si Si3 0.197001 0.683134 0.880521
Si Si4 0.300359 0.316815 0.035530
Si Si5 0.299984 0.250000 0.250000
O O1 0.327619 0.778014 0.847881
O O2 0.543167 0.702168 0.931039
O O3 0.588888 0.691900 0.806505
O O4 0.537667 0.969437 0.868274
O O5 0.957765 0.229553 0.353207
O O6 0.191006 0.290825 0.421136
O O7 0.189260 0.347578 0.294841
O O8 0.250000 0.500000 0.874941
O O9 0.193103 0.727181 0.958660
O O10 0.250000 0.500000 0.041459
#
# Coordination Sequence:
#
# PCOD9410976 Si02
#       5
#     8   8   8   8   4
#     4  11  24  41  65  93 122 162 208 254 303 360
#     4  11  24  41  65  93 122 162 208 254 303 360
#     4  11  24  40  62  94 129 164 201 249 309 364
#     4  10  21  39  63  93 129 166 202 244 304 369
#     4  10  24  44  62  84 118 154 202 254 308 360
#
# _framework density 22.951958999999999
#
# number of rings (size 3 to 8) (size 9 to 14) (size 15 to 20)
#    0.000    1.333    0.000    6.000    0.000   20.444 
#    0.000    0.000    0.000    0.000    0.000    0.000 
#    0.000    0.000    0.000    0.000    0.000    0.000 
#
# Total GULP energy -201190.069289 kJ/mol
# GULP energy per Si atom -5588.613036 kJ/mol
# Density = 2.289972 g / cm^3
# Si number density = 22.951959 Si / 1000 Ang^3
#
#
#
# Elastic Constant Matrix: (Units=GPa)
#
#
# Indices 1 2 3 4 5 6 
#
# 1 143.9419 20.1119 27.1050 0.0000 0.0000 0.0000
# 2 20.1119 60.7919 34.4521 0.0000 0.0000 0.0000
# 3 27.1050 34.4521 75.1357 0.0000 0.0000 0.0000
# 4 0.0000 0.0000 0.0000 -7.5509 0.0000 0.0000
# 5 0.0000 0.0000 0.0000 0.0000 20.1120 0.0000
# 6 0.0000 0.0000 0.0000 0.0000 0.0000 39.1173
#
#
#
# Elastic Compliance Matrix: (Units=1/GPa)
#
#
# Indices 1 2 3 4 5 6 
#
# 1 0.007527 -0.001285 -0.002126 0.000000 0.000000 0.000000
# 2 -0.001285 0.022444 -0.009828 0.000000 0.000000 0.000000
# 3 -0.002126 -0.009828 0.018583 0.000000 0.000000 0.000000
# 4 0.000000 0.000000 0.000000 -0.132434 0.000000 0.000000
# 5 0.000000 0.000000 0.000000 0.000000 0.049722 0.000000
# 6 0.000000 0.000000 0.000000 0.000000 0.000000 0.025564
#
#
# Mechanical properties :
#
#
# Convention : Reuss Voigt Hill
#
# Bulk Modulus (GPa) = 45.29845 49.24528 47.27186
# Shear Modulus (GPa) = 198.07565 23.54904 110.81234
#
# Velocity S-wave (km/s) = 9.29986 3.20662 6.95593
# Velocity P-wave (km/s) = 11.62307 5.93399 9.22789
#
# Compressibility (1/GPa) = 0.02207581
#
# Stress axis : x y z
#
# Youngs Moduli (GPa) = 132.85181 44.55451 53.81388
#
# Poissons Ratio (x) = 0.05727 0.11441
# Poissons Ratio (y) = 0.17076 0.52887
# Poissons Ratio (z) = 0.28245 0.43787
#
# Static dielectric constant tensor:
#      x y z
#    x 1.876780 0.000000 0.000000 
#    y 0.000000 1.879530 0.000000 
#    z 0.000000 0.000000 1.868430 
# 
# From -- ./inp_files/24542.got.cif
#   From: 2010.05.17/outbox.cif.g08.bks.cpg/sg52_13_cif.got.tgz:24542.got - 2010.06.03 12:15:38.
