data_PCOD9410338
_publ_section_title
;
Structure prediction by ZEFSAII (Michael W. Deem and Ramdas Pophale) SiO2 
 PCOD9410338
Probable space group: P N N A
;
_chemical_formula_sum "Si O2"
_cell_formula_units_Z 32
_cell_length_a 5.119351
_cell_length_b 17.197864
_cell_length_c 13.204283
_cell_angle_alpha 90.000000
_cell_angle_beta 90.000000
_cell_angle_gamma 90.000000
_cell_volume 1162.530193
_symmetry_space_group_name_H-M "P N N A"
_symmetry_group_IT_number 52
_symmetry_cell_setting 'orthorhombic'
loop_
_space_group_symop_operation_xyz
x,y,z
1/2-x,-y,z
x,1/2-y,1/2-z
1/2-x,1/2+y,1/2-z
-x,-y,-z
1/2+x,y,-z
-x,1/2+y,1/2+z
1/2+x,1/2-y,1/2+z
loop_
_atom_site_type_symbol
_atom_site_label
_atom_site_fract_x
_atom_site_fract_y
_atom_site_fract_z
Si Si1 0.253601 0.895023 0.941260
Si Si2 0.082317 0.250000 0.250000
Si Si3 0.750000 0.500000 0.927296
Si Si4 0.366075 0.583169 0.272744
Si Si5 0.720583 0.710177 0.054977
O O1 0.148398 0.914277 0.829153
O O2 0.255548 0.802514 0.953797
O O3 0.031606 0.921281 0.019852
O O4 0.233270 0.326653 0.293402
O O5 0.899522 0.291916 0.166869
O O6 0.681241 0.431920 0.846266
O O7 0.500000 0.500000 0.000000
O O8 0.250000 0.500000 0.310031
O O9 0.004116 0.679665 0.024389
#
# Coordination Sequence:
#
# PCOD9410338 Si02
#       5
#     8   4   4   8   8
#     4   9  18  35  60  91 128 162 201 263 336 405
#     4  10  20  40  68  94 138 170 234 282 338 406
#     4  10  24  46  68  94 136 186 238 286 332 400
#     4   9  22  41  64 101 129 183 224 283 341 409
#     4   9  19  35  57  88 123 163 211 266 329 390
#
# _framework density 27.526167000000001
#
# number of rings (size 3 to 8) (size 9 to 14) (size 15 to 20)
#    0.750    2.000    0.000    0.000    0.000    6.000 
#    0.000    5.000    0.000    0.000    0.000    0.000 
#    0.000    0.000    0.000    0.000    0.000    0.000 
#
# Total GULP energy -178376.467488 kJ/mol
# GULP energy per Si atom -5574.264609 kJ/mol
# Density = 2.746352 g / cm^3
# Si number density = 27.526167 Si / 1000 Ang^3
#
#
#
# Elastic Constant Matrix: (Units=GPa)
#
#
# Indices 1 2 3 4 5 6 
#
# 1 113.7504 -0.1002 61.9759 0.0000 0.0000 0.0000
# 2 -0.1002 172.2816 33.9675 0.0000 0.0000 0.0000
# 3 61.9759 33.9675 183.9356 0.0000 0.0000 0.0000
# 4 0.0000 0.0000 0.0000 47.0834 0.0000 0.0000
# 5 0.0000 0.0000 0.0000 0.0000 2.6301 0.0000
# 6 0.0000 0.0000 0.0000 0.0000 0.0000 20.9899
#
#
#
# Elastic Compliance Matrix: (Units=1/GPa)
#
#
# Indices 1 2 3 4 5 6 
#
# 1 0.010862 0.000755 -0.003799 0.000000 0.000000 0.000000
# 2 0.000755 0.006076 -0.001377 0.000000 0.000000 0.000000
# 3 -0.003799 -0.001377 0.006971 0.000000 0.000000 0.000000
# 4 0.000000 0.000000 0.000000 0.021239 0.000000 0.000000
# 5 0.000000 0.000000 0.000000 0.000000 0.380207 0.000000
# 6 0.000000 0.000000 0.000000 0.000000 0.000000 0.047642
#
#
# Mechanical properties :
#
#
# Convention : Reuss Voigt Hill
#
# Bulk Modulus (GPa) = 66.36535 73.51711 69.94123
# Shear Modulus (GPa) = 10.26987 39.08232 24.67610
#
# Velocity S-wave (km/s) = 1.93366 3.77214 2.99734
# Velocity P-wave (km/s) = 5.39886 6.76300 6.11906
#
# Compressibility (1/GPa) = 0.01506810
#
# Stress axis : x y z
#
# Youngs Moduli (GPa) = 92.06512 164.57355 143.44999
#
# Poissons Ratio (x) = -0.12432 0.54501
# Poissons Ratio (y) = -0.06955 0.19748
# Poissons Ratio (z) = 0.34979 0.22656
#
# Static dielectric constant tensor:
#      x y z
#    x 2.223470 0.000000 0.000000 
#    y 0.000000 2.201320 0.000000 
#    z 0.000000 0.000000 2.235320 
# 
# From -- ./inp_files/23545.got.cif
#   From: 2010.05.17/outbox.cif.g08.bks.cpg/sg52_12_cif.got.tgz:23545.got - 2010.06.03 12:15:38.
