data_PCOD9410915
_publ_section_title
;
Structure prediction by ZEFSAII (Michael W. Deem and Ramdas Pophale) SiO2 
 PCOD9410915
Probable space group: P N N A
;
_chemical_formula_sum "Si O2"
_cell_formula_units_Z 40
_cell_length_a 29.785006
_cell_length_b 5.326334
_cell_length_c 12.443543
_cell_angle_alpha 90.000000
_cell_angle_beta 90.000000
_cell_angle_gamma 90.000000
_cell_volume 1974.104512
_symmetry_space_group_name_H-M "P N N A"
_symmetry_group_IT_number 52
_symmetry_cell_setting 'orthorhombic'
loop_
_space_group_symop_operation_xyz
x,y,z
1/2-x,-y,z
x,1/2-y,1/2-z
1/2-x,1/2+y,1/2-z
-x,-y,-z
1/2+x,y,-z
-x,1/2+y,1/2+z
1/2+x,1/2-y,1/2+z
loop_
_atom_site_type_symbol
_atom_site_label
_atom_site_fract_x
_atom_site_fract_y
_atom_site_fract_z
Si Si1 0.474458 0.441339 0.330105
Si Si2 0.699360 0.496632 0.176927
Si Si3 0.619538 0.490034 0.793025
Si Si4 0.888399 0.877819 0.453824
Si Si5 0.442615 0.150330 0.932668
O O1 0.498142 0.250000 0.250000
O O2 0.428895 0.509546 0.268159
O O3 0.458586 0.327002 0.443390
O O4 0.511747 0.636529 0.365130
O O5 0.750000 0.500000 0.130901
O O6 0.691977 0.750000 0.250000
O O7 0.661075 0.434601 0.090769
O O8 0.698292 0.250000 0.250000
O O9 0.639877 0.750000 0.750000
O O10 0.645840 0.250000 0.750000
O O11 0.612619 0.441425 0.918877
O O12 0.911367 0.604089 0.431397
O O13 0.917377 0.098814 0.400536
#
# Coordination Sequence:
#
# PCOD9410915 Si02
#       5
#     8   8   8   8   8
#     4  10  21  39  53  80 121 168 214 246 300 335
#     4  10  23  44  70  95 123 153 191 252 322 375
#     4  11  20  37  57  81 115 164 202 241 297 350
#     4  12  22  41  63  90 117 158 211 250 303 369
#     4  11  24  35  59  86 117 166 215 252 286 359
#
# _framework density 20.262350000000001
#
# number of rings (size 3 to 8) (size 9 to 14) (size 15 to 20)
#    0.000    1.200    6.000    1.200    0.000    8.800 
#    0.000    0.000    0.000    1.200    0.000    0.000 
#    0.000    0.000    0.000    0.000    0.000    0.000 
#
# Total GULP energy -222932.504533 kJ/mol
# GULP energy per Si atom -5573.312613 kJ/mol
# Density = 2.021623 g / cm^3
# Si number density = 20.262350 Si / 1000 Ang^3
#
#
#
# Elastic Constant Matrix: (Units=GPa)
#
#
# Indices 1 2 3 4 5 6 
#
# 1 78.8924 8.1333 54.8734 0.0000 0.0000 0.0000
# 2 8.1333 139.7745 9.9148 0.0000 0.0000 0.0000
# 3 54.8734 9.9148 69.9473 0.0000 0.0000 0.0000
# 4 0.0000 0.0000 0.0000 19.9427 0.0000 0.0000
# 5 0.0000 0.0000 0.0000 0.0000 9.1656 0.0000
# 6 0.0000 0.0000 0.0000 0.0000 0.0000 51.1437
#
#
#
# Elastic Compliance Matrix: (Units=1/GPa)
#
#
# Indices 1 2 3 4 5 6 
#
# 1 0.027899 -0.000072 -0.021877 0.000000 0.000000 0.000000
# 2 -0.000072 0.007227 -0.000968 0.000000 0.000000 0.000000
# 3 -0.021877 -0.000968 0.031596 0.000000 0.000000 0.000000
# 4 0.000000 0.000000 0.000000 0.050144 0.000000 0.000000
# 5 0.000000 0.000000 0.000000 0.000000 0.109104 0.000000
# 6 0.000000 0.000000 0.000000 0.000000 0.000000 0.019553
#
#
# Mechanical properties :
#
#
# Convention : Reuss Voigt Hill
#
# Bulk Modulus (GPa) = 47.87152 48.27300 48.07226
# Shear Modulus (GPa) = 16.76063 30.42992 23.59528
#
# Velocity S-wave (km/s) = 2.87920 3.87951 3.41616
# Velocity P-wave (km/s) = 5.89323 6.62896 6.27189
#
# Compressibility (1/GPa) = 0.02088925
#
# Stress axis : x y z
#
# Youngs Moduli (GPa) = 35.84352 138.36561 31.64979
#
# Poissons Ratio (x) = 0.00991 0.69239
# Poissons Ratio (y) = 0.00257 0.03064
# Poissons Ratio (z) = 0.78413 0.13397
#
# Static dielectric constant tensor:
#      x y z
#    x 1.745520 0.000000 0.000000 
#    y 0.000000 1.917200 0.000000 
#    z 0.000000 0.000000 1.718320 
# 
# From -- ./inp_files/22628.got.cif
#   From: 2010.05.17/outbox.cif.g08.bks.cpg/sg52_12_cif.got.tgz:22628.got - 2010.06.03 12:15:38.
