data_PCOD9410786
_publ_section_title
;
Structure prediction by ZEFSAII (Michael W. Deem and Ramdas Pophale) SiO2 
 PCOD9410786
Probable space group: P N N A
;
_chemical_formula_sum "Si O2"
_cell_formula_units_Z 32
_cell_length_a 10.105420
_cell_length_b 8.427544
_cell_length_c 19.159017
_cell_angle_alpha 90.000000
_cell_angle_beta 90.000000
_cell_angle_gamma 90.000000
_cell_volume 1631.656065
_symmetry_space_group_name_H-M "P N N A"
_symmetry_group_IT_number 52
_symmetry_cell_setting 'orthorhombic'
loop_
_space_group_symop_operation_xyz
x,y,z
1/2-x,-y,z
x,1/2-y,1/2-z
1/2-x,1/2+y,1/2-z
-x,-y,-z
1/2+x,y,-z
-x,1/2+y,1/2+z
1/2+x,1/2-y,1/2+z
loop_
_atom_site_type_symbol
_atom_site_label
_atom_site_fract_x
_atom_site_fract_y
_atom_site_fract_z
Si Si1 0.164664 0.650664 0.814076
Si Si2 0.312144 0.326694 0.544439
Si Si3 0.930991 0.665668 0.976200
Si Si4 0.633689 0.372331 0.812430
O O1 0.250000 0.500000 0.834041
O O2 0.221361 0.750000 0.750000
O O3 0.159048 0.776307 0.876412
O O4 0.018822 0.585209 0.794626
O O5 0.250000 0.500000 0.536472
O O6 0.453869 0.295154 0.508684
O O7 0.201213 0.204710 0.517718
O O8 0.885250 0.672768 0.894693
O O9 0.000000 0.500000 0.000000
O O10 0.750000 0.500000 0.811165
O O11 0.668439 0.250000 0.750000
#
# Coordination Sequence:
#
# PCOD9410786 Si02
#       4
#     8   8   8   8
#     4  10  21  38  59  84 116 153 197 248 305 371
#     4  11  22  37  59  88 119 154 199 255 311 369
#     4  11  22  40  63  87 120 163 209 255 311 381
#     4  10  22  39  58  85 118 154 198 248 305 371
#
# _framework density 19.611975999999999
#
# number of rings (size 3 to 8) (size 9 to 14) (size 15 to 20)
#    0.000    1.500    0.000    6.750    0.000    2.000 
#    0.000   10.000    0.000    0.000    0.000    0.000 
#    0.000    0.000    0.000    0.000    0.000    0.000 
#
# Total GULP energy -178199.428479 kJ/mol
# GULP energy per Si atom -5568.732140 kJ/mol
# Density = 1.956734 g / cm^3
# Si number density = 19.611976 Si / 1000 Ang^3
#
#
#
# Elastic Constant Matrix: (Units=GPa)
#
#
# Indices 1 2 3 4 5 6 
#
# 1 114.1545 49.8967 24.7338 0.0000 0.0000 0.0000
# 2 49.8967 84.0966 20.0322 0.0000 0.0000 0.0000
# 3 24.7338 20.0322 88.1100 0.0000 0.0000 0.0000
# 4 0.0000 0.0000 0.0000 22.0063 0.0000 0.0000
# 5 0.0000 0.0000 0.0000 0.0000 24.6547 0.0000
# 6 0.0000 0.0000 0.0000 0.0000 0.0000 32.8518
#
#
#
# Elastic Compliance Matrix: (Units=1/GPa)
#
#
# Indices 1 2 3 4 5 6 
#
# 1 0.012111 -0.006741 -0.001867 0.000000 0.000000 0.000000
# 2 -0.006741 0.016324 -0.001819 0.000000 0.000000 0.000000
# 3 -0.001867 -0.001819 0.012287 0.000000 0.000000 0.000000
# 4 0.000000 0.000000 0.000000 0.045442 0.000000 0.000000
# 5 0.000000 0.000000 0.000000 0.000000 0.040560 0.000000
# 6 0.000000 0.000000 0.000000 0.000000 0.000000 0.030440
#
#
# Mechanical properties :
#
#
# Convention : Reuss Voigt Hill
#
# Bulk Modulus (GPa) = 50.33268 52.85404 51.59336
# Shear Modulus (GPa) = 27.07958 28.68245 27.88102
#
# Velocity S-wave (km/s) = 3.71990 3.82841 3.77454
# Velocity P-wave (km/s) = 6.64606 6.82281 6.73501
#
# Compressibility (1/GPa) = 0.01986781
#
# Stress axis : x y z
#
# Youngs Moduli (GPa) = 82.56872 61.25930 81.38578
#
# Poissons Ratio (x) = 0.41295 0.15196
# Poissons Ratio (y) = 0.55660 0.14804
# Poissons Ratio (z) = 0.15417 0.11143
#
# Static dielectric constant tensor:
#      x y z
#    x 1.693190 0.000000 0.000000 
#    y 0.000000 1.656120 0.000000 
#    z 0.000000 0.000000 1.763660 
# 
# From -- ./inp_files/35450.got.cif
#   From: 2010.05.17/outbox.cif.g08.bks.cpg/sg52_18_cif.got.tgz:35450.got - 2010.06.03 12:15:38.
