data_PCOD9410010
_publ_section_title
;
Structure prediction by ZEFSAII (Michael W. Deem and Ramdas Pophale) SiO2 
 PCOD9410010
Probable space group: P N N A
;
_chemical_formula_sum "Si O2"
_cell_formula_units_Z 52
_cell_length_a 17.918265
_cell_length_b 9.020635
_cell_length_c 14.247501
_cell_angle_alpha 90.000000
_cell_angle_beta 90.000000
_cell_angle_gamma 90.000000
_cell_volume 2302.882406
_symmetry_space_group_name_H-M "P N N A"
_symmetry_group_IT_number 52
_symmetry_cell_setting 'orthorhombic'
loop_
_space_group_symop_operation_xyz
x,y,z
1/2-x,-y,z
x,1/2-y,1/2-z
1/2-x,1/2+y,1/2-z
-x,-y,-z
1/2+x,y,-z
-x,1/2+y,1/2+z
1/2+x,1/2-y,1/2+z
loop_
_atom_site_type_symbol
_atom_site_label
_atom_site_fract_x
_atom_site_fract_y
_atom_site_fract_z
Si Si1 0.750000 0.000000 0.905853
Si Si2 0.640933 0.883135 0.051376
Si Si3 0.585786 0.987540 0.585589
Si Si4 0.918198 0.423904 0.116578
Si Si5 0.122514 0.390763 0.701124
Si Si6 0.874417 0.912816 0.768164
Si Si7 0.535508 0.853314 0.890998
O O1 0.694428 0.090293 0.838929
O O2 0.796661 0.112616 0.970838
O O3 0.621544 0.734719 0.107714
O O4 0.662341 0.011382 0.123529
O O5 0.564694 0.913270 0.991843
O O6 0.608381 0.008777 0.477974
O O7 0.566980 0.814490 0.603924
O O8 0.508199 0.077045 0.602659
O O9 0.644402 0.032289 0.663991
O O10 0.900753 0.503399 0.213186
O O11 0.160600 0.250000 0.750000
O O12 0.049007 0.336695 0.644043
O O13 0.906985 0.750000 0.750000
O O14 0.928900 0.034218 0.814964
#
# Coordination Sequence:
#
# PCOD9410010 Si02
#       7
#     4   8   8   8   8   8   8
#     4  10  26  50  60  90 130 186 242 290 332 398
#     4  10  24  41  66  86 128 182 235 280 330 399
#     4  10  20  38  59 101 142 171 205 267 345 414
#     4  10  21  35  62  97 133 176 214 262 339 416
#     4  12  21  36  61 100 138 167 212 272 348 410
#     4  11  23  37  68  97 130 177 230 277 332 414
#     4  10  20  39  61  98 142 174 198 272 348 412
#
# _framework density 22.580396
#
# number of rings (size 3 to 8) (size 9 to 14) (size 15 to 20)
#    0.000    1.538    3.077    1.385    2.154    6.154 
#    0.000    1.538    0.000    8.308    0.000    0.000 
#    0.000    0.000    0.000    0.000    0.000    0.000 
#
# Total GULP energy -290133.755976 kJ/mol
# GULP energy per Si atom -5579.495307 kJ/mol
# Density = 2.252900 g / cm^3
# Si number density = 22.580396 Si / 1000 Ang^3
#
#
#
# Elastic Constant Matrix: (Units=GPa)
#
#
# Indices 1 2 3 4 5 6 
#
# 1 37.7077 33.5365 9.6938 0.0000 0.0000 0.0000
# 2 33.5365 72.3872 41.8827 0.0000 0.0000 0.0000
# 3 9.6938 41.8827 139.9559 0.0000 0.0000 0.0000
# 4 0.0000 0.0000 0.0000 21.8107 0.0000 0.0000
# 5 0.0000 0.0000 0.0000 0.0000 33.0654 0.0000
# 6 0.0000 0.0000 0.0000 0.0000 0.0000 9.2659
#
#
#
# Elastic Compliance Matrix: (Units=1/GPa)
#
#
# Indices 1 2 3 4 5 6 
#
# 1 0.046826 -0.023968 0.003929 0.000000 0.000000 0.000000
# 2 -0.023968 0.028975 -0.007011 0.000000 0.000000 0.000000
# 3 0.003929 -0.007011 0.008971 0.000000 0.000000 0.000000
# 4 0.000000 0.000000 0.000000 0.045849 0.000000 0.000000
# 5 0.000000 0.000000 0.000000 0.000000 0.030243 0.000000
# 6 0.000000 0.000000 0.000000 0.000000 0.000000 0.107923
#
#
# Mechanical properties :
#
#
# Convention : Reuss Voigt Hill
#
# Bulk Modulus (GPa) = 32.60151 46.69742 39.64947
# Shear Modulus (GPa) = 15.01003 23.82423 19.41713
#
# Velocity S-wave (km/s) = 2.58105 3.25173 2.93561
# Velocity P-wave (km/s) = 4.83236 5.90116 5.39330
#
# Compressibility (1/GPa) = 0.03067342
#
# Stress axis : x y z
#
# Youngs Moduli (GPa) = 21.35566 34.51245 111.47007
#
# Poissons Ratio (x) = 0.82718 -0.43798
# Poissons Ratio (y) = 0.51184 0.78150
# Poissons Ratio (z) = -0.08391 0.24196
#
# Static dielectric constant tensor:
#      x y z
#    x 1.853210 0.000000 0.000000 
#    y 0.000000 1.873730 0.000000 
#    z 0.000000 0.000000 1.869010 
# 
# From -- ./inp_files/28685.got.cif
#   From: 2010.05.17/outbox.cif.g08.bks.cpg/sg52_15_cif.got.tgz:28685.got - 2010.06.03 12:15:38.
