data_PCOD9410290
_publ_section_title
;
Structure prediction by ZEFSAII (Michael W. Deem and Ramdas Pophale) SiO2 
 PCOD9410290
Probable space group: P N N A
;
_chemical_formula_sum "Si O2"
_cell_formula_units_Z 56
_cell_length_a 15.055112
_cell_length_b 8.558681
_cell_length_c 21.090337
_cell_angle_alpha 90.000000
_cell_angle_beta 90.000000
_cell_angle_gamma 90.000000
_cell_volume 2717.530016
_symmetry_space_group_name_H-M "P N N A"
_symmetry_group_IT_number 52
_symmetry_cell_setting 'orthorhombic'
loop_
_space_group_symop_operation_xyz
x,y,z
1/2-x,-y,z
x,1/2-y,1/2-z
1/2-x,1/2+y,1/2-z
-x,-y,-z
1/2+x,y,-z
-x,1/2+y,1/2+z
1/2+x,1/2-y,1/2+z
loop_
_atom_site_type_symbol
_atom_site_label
_atom_site_fract_x
_atom_site_fract_y
_atom_site_fract_z
Si Si1 0.297440 0.646409 0.877387
Si Si2 0.417343 0.252154 0.416865
Si Si3 0.471840 0.473708 0.902071
Si Si4 0.315233 0.365723 0.300822
Si Si5 0.021102 0.434944 0.244768
Si Si6 0.365119 0.307787 0.554367
Si Si7 0.410838 0.920158 0.854404
O O1 0.250000 0.500000 0.843059
O O2 0.381225 0.570382 0.913267
O O3 0.224492 0.719440 0.924363
O O4 0.341325 0.784418 0.837052
O O5 0.348846 0.264524 0.359512
O O6 0.377043 0.327671 0.479673
O O7 0.503477 0.342241 0.388834
O O8 0.448696 0.075020 0.431497
O O9 0.491497 0.470868 0.826811
O O10 0.449322 0.299884 0.924348
O O11 0.250000 0.500000 0.323344
O O12 0.272043 0.250000 0.250000
O O13 0.396907 0.454561 0.265715
O O14 0.040441 0.250000 0.250000
O O15 0.944006 0.482786 0.294099
O O16 0.368624 0.465835 0.593930
#
# Coordination Sequence:
#
# PCOD9410290 Si02
#       7
#     8   8   8   8   8   8   8
#     4   9  21  37  57  83 124 166 197 258 311 358
#     4  10  22  38  63  89 119 169 203 250 317 385
#     4  10  20  40  63  88 122 163 210 254 307 380
#     4  11  23  41  63  91 126 159 202 263 322 377
#     4  11  21  40  67  92 120 163 212 258 317 381
#     4  11  20  38  60  90 127 159 211 257 311 368
#     4  10  21  36  62  92 121 162 207 260 309 372
#
# _framework density 20.606947999999999
#
# number of rings (size 3 to 8) (size 9 to 14) (size 15 to 20)
#    0.000    1.714    2.857    1.714    0.000    1.143 
#    0.000   10.714    0.000    0.000    0.000    0.000 
#    0.000    0.000    0.000    0.000    0.000    0.000 
#
# Total GULP energy -312531.693290 kJ/mol
# GULP energy per Si atom -5580.923094 kJ/mol
# Density = 2.056005 g / cm^3
# Si number density = 20.606948 Si / 1000 Ang^3
#
#
#
# Elastic Constant Matrix: (Units=GPa)
#
#
# Indices 1 2 3 4 5 6 
#
# 1 46.1018 2.0339 4.5776 0.0000 0.0000 0.0000
# 2 2.0339 78.8754 -4.3433 0.0000 0.0000 0.0000
# 3 4.5776 -4.3433 72.1807 0.0000 0.0000 0.0000
# 4 0.0000 0.0000 0.0000 20.0738 0.0000 0.0000
# 5 0.0000 0.0000 0.0000 0.0000 -2.4751 0.0000
# 6 0.0000 0.0000 0.0000 0.0000 0.0000 27.6146
#
#
#
# Elastic Compliance Matrix: (Units=1/GPa)
#
#
# Indices 1 2 3 4 5 6 
#
# 1 0.021861 -0.000642 -0.001425 0.000000 0.000000 0.000000
# 2 -0.000642 0.012739 0.000807 0.000000 0.000000 0.000000
# 3 -0.001425 0.000807 0.013993 0.000000 0.000000 0.000000
# 4 0.000000 0.000000 0.000000 0.049816 0.000000 0.000000
# 5 0.000000 0.000000 0.000000 0.000000 -0.404025 0.000000
# 6 0.000000 0.000000 0.000000 0.000000 0.000000 0.036213
#
#
# Mechanical properties :
#
#
# Convention : Reuss Voigt Hill
#
# Bulk Modulus (GPa) = 21.70451 22.41049 22.05750
# Shear Modulus (GPa) = -19.87872 22.03530 1.07829
#
# Velocity S-wave (km/s) = -3.10927 3.27358 0.72416
# Velocity P-wave (km/s) = 1.52793 5.01869 3.38029
#
# Compressibility (1/GPa) = 0.04607337
#
# Stress axis : x y z
#
# Youngs Moduli (GPa) = 45.74364 78.49769 71.46395
#
# Poissons Ratio (x) = 0.05041 0.10184
# Poissons Ratio (y) = 0.02938 -0.05769
# Poissons Ratio (z) = 0.06519 -0.06337
#
# Static dielectric constant tensor:
#      x y z
#    x 1.746340 0.000000 0.000000 
#    y 0.000000 1.779040 0.000000 
#    z 0.000000 0.000000 1.694740 
# 
# From -- ./inp_files/37316.got.cif
#   From: 2010.05.17/outbox.cif.g08.bks.cpg/sg52_19_cif.got.tgz:37316.got - 2010.06.03 12:15:38.
