data_PCOD9410770
_publ_section_title
;
Structure prediction by ZEFSAII (Michael W. Deem and Ramdas Pophale) SiO2 
 PCOD9410770
Probable space group: P N N A
;
_chemical_formula_sum "Si O2"
_cell_formula_units_Z 64
_cell_length_a 14.867795
_cell_length_b 25.250226
_cell_length_c 8.770823
_cell_angle_alpha 90.000000
_cell_angle_beta 90.000000
_cell_angle_gamma 90.000000
_cell_volume 3292.700129
_symmetry_space_group_name_H-M "P N N A"
_symmetry_group_IT_number 52
_symmetry_cell_setting 'orthorhombic'
loop_
_space_group_symop_operation_xyz
x,y,z
1/2-x,-y,z
x,1/2-y,1/2-z
1/2-x,1/2+y,1/2-z
-x,-y,-z
1/2+x,y,-z
-x,1/2+y,1/2+z
1/2+x,1/2-y,1/2+z
loop_
_atom_site_type_symbol
_atom_site_label
_atom_site_fract_x
_atom_site_fract_y
_atom_site_fract_z
Si Si1 0.013344 0.060438 0.438871
Si Si2 0.645581 0.687948 0.278522
Si Si3 0.851707 0.923889 0.306524
Si Si4 0.313069 0.397328 0.964194
Si Si5 0.711890 0.135834 0.015945
Si Si6 0.004521 0.954021 0.118079
Si Si7 0.534085 0.374464 0.641310
Si Si8 0.794924 0.057214 0.780519
O O1 0.914638 0.083903 0.457328
O O2 0.085665 0.089182 0.549081
O O3 0.043035 0.078209 0.267862
O O4 0.000000 0.000000 0.500000
O O5 0.643304 0.750000 0.250000
O O6 0.686505 0.657617 0.129417
O O7 0.708107 0.673658 0.425522
O O8 0.545408 0.664333 0.305114
O O9 0.753633 0.935925 0.370349
O O10 0.834479 0.880788 0.175510
O O11 0.916198 0.964124 0.219591
O O12 0.281649 0.402906 0.138453
O O13 0.630754 0.151361 0.901100
O O14 0.756294 0.084587 0.933098
O O15 0.098455 0.952118 0.204315
O O16 0.997817 0.901261 0.016438
O O17 0.000000 0.000000 0.000000
O O18 0.750000 0.000000 0.753168
#
# Coordination Sequence:
#
# PCOD9410770 Si02
#       8
#     8   8   8   8   8   8   8   8
#     4  11  22  35  55  88 133 171 213 261 319 393
#     4  10  22  47  69  91 126 170 223 287 342 380
#     4  10  21  38  56  84 123 170 211 262 312 373
#     4  10  24  39  59  93 124 168 214 268 324 392
#     4  10  22  41  64  91 128 170 218 276 323 408
#     4  11  21  38  59  89 132 175 220 256 314 396
#     4  10  21  39  64  92 125 169 220 275 325 397
#     4  12  23  38  59  96 137 179 215 261 324 402
#
# _framework density 19.436935999999999
#
# number of rings (size 3 to 8) (size 9 to 14) (size 15 to 20)
#    0.000    1.500    2.500    3.000    3.500    0.000 
#    2.250    6.875    0.000    0.000    0.000    0.000 
#    0.000    0.000    0.000    0.000    0.000    0.000 
#
# Total GULP energy -356324.273608 kJ/mol
# GULP energy per Si atom -5567.566775 kJ/mol
# Density = 1.939270 g / cm^3
# Si number density = 19.436936 Si / 1000 Ang^3
#
#
#
# Elastic Constant Matrix: (Units=GPa)
#
#
# Indices 1 2 3 4 5 6 
#
# 1 69.3656 33.3409 22.7678 0.0000 0.0000 0.0000
# 2 33.3409 100.9695 37.4104 0.0000 0.0000 0.0000
# 3 22.7678 37.4104 98.5849 0.0000 0.0000 0.0000
# 4 0.0000 0.0000 0.0000 19.4388 0.0000 0.0000
# 5 0.0000 0.0000 0.0000 0.0000 38.8698 0.0000
# 6 0.0000 0.0000 0.0000 0.0000 0.0000 14.0935
#
#
#
# Elastic Compliance Matrix: (Units=1/GPa)
#
#
# Indices 1 2 3 4 5 6 
#
# 1 0.017520 -0.004987 -0.002154 0.000000 0.000000 0.000000
# 2 -0.004987 0.012944 -0.003760 0.000000 0.000000 0.000000
# 3 -0.002154 -0.003760 0.012068 0.000000 0.000000 0.000000
# 4 0.000000 0.000000 0.000000 0.051444 0.000000 0.000000
# 5 0.000000 0.000000 0.000000 0.000000 0.025727 0.000000
# 6 0.000000 0.000000 0.000000 0.000000 0.000000 0.070955
#
#
# Mechanical properties :
#
#
# Convention : Reuss Voigt Hill
#
# Bulk Modulus (GPa) = 48.23955 50.66203 49.45079
# Shear Modulus (GPa) = 22.79256 26.17382 24.48319
#
# Velocity S-wave (km/s) = 3.42810 3.67359 3.55297
# Velocity P-wave (km/s) = 6.36722 6.64192 6.50602
#
# Compressibility (1/GPa) = 0.02072988
#
# Stress axis : x y z
#
# Youngs Moduli (GPa) = 57.07602 77.25572 82.86520
#
# Poissons Ratio (x) = 0.38531 0.17847
# Poissons Ratio (y) = 0.28466 0.31158
# Poissons Ratio (z) = 0.12292 0.29049
#
# Static dielectric constant tensor:
#      x y z
#    x 1.721880 0.000000 0.000000 
#    y 0.000000 1.661560 0.000000 
#    z 0.000000 0.000000 1.758440 
# 
# From -- ./inp_files/10989.got.cif
#   From: 2010.05.17/outbox.cif.g08.bks.cpg/sg52_6_cif.got.tgz:10989.got - 2010.06.03 12:15:38.
