data_PCOD9410160
_publ_section_title
;
Structure prediction by ZEFSAII (Michael W. Deem and Ramdas Pophale) SiO2 
 PCOD9410160
Probable space group: P N N A
;
_chemical_formula_sum "Si O2"
_cell_formula_units_Z 52
_cell_length_a 23.631675
_cell_length_b 5.390678
_cell_length_c 19.238292
_cell_angle_alpha 90.000000
_cell_angle_beta 90.000000
_cell_angle_gamma 90.000000
_cell_volume 2450.780457
_symmetry_space_group_name_H-M "P N N A"
_symmetry_group_IT_number 52
_symmetry_cell_setting 'orthorhombic'
loop_
_space_group_symop_operation_xyz
x,y,z
1/2-x,-y,z
x,1/2-y,1/2-z
1/2-x,1/2+y,1/2-z
-x,-y,-z
1/2+x,y,-z
-x,1/2+y,1/2+z
1/2+x,1/2-y,1/2+z
loop_
_atom_site_type_symbol
_atom_site_label
_atom_site_fract_x
_atom_site_fract_y
_atom_site_fract_z
Si Si1 0.648395 0.765037 0.979167
Si Si2 0.658017 0.140199 0.855225
Si Si3 0.355726 0.250000 0.250000
Si Si4 0.250000 0.500000 0.084811
Si Si5 0.928462 0.481089 0.871353
Si Si6 0.119753 0.833225 0.860698
Si Si7 0.284624 0.250000 0.750000
Si Si8 0.449364 0.667961 0.828736
O O1 0.709772 0.652772 0.965529
O O2 0.600743 0.587569 0.944378
O O3 0.652247 0.001208 0.928731
O O4 0.635233 0.804564 0.058763
O O5 0.706398 0.345145 0.867823
O O6 0.594270 0.249451 0.847685
O O7 0.675414 0.973930 0.789141
O O8 0.395743 0.326204 0.186921
O O9 0.993336 0.407969 0.868558
O O10 0.175324 0.841613 0.812891
O O11 0.087502 0.584449 0.833667
O O12 0.083708 0.087958 0.855413
O O13 0.250000 0.500000 0.770271
O O14 0.463802 0.750000 0.750000
#
# Coordination Sequence:
#
# PCOD9410160 Si02
#       8
#     8   8   4   4   8   8   4   8
#     4  10  25  44  70 101 142 188 245 294 374 427
#     4  10  22  42  69 104 140 186 251 295 365 438
#     4  10  20  38  71  98 139 180 240 294 346 430
#     4  10  22  44  72  96 142 194 240 312 360 442
#     4  10  23  41  73 100 140 192 237 288 362 439
#     4  12  28  47  73 114 148 184 245 303 364 444
#     4  12  26  48  77 108 145 186 242 300 362 436
#     4  12  25  47  75 106 151 189 237 301 367 433
#
# _framework density 21.21773
#
# number of rings (size 3 to 8) (size 9 to 14) (size 15 to 20)
#    0.000    1.231    2.308    1.846    9.692    3.692 
#    0.000    0.000  121.846    0.000    0.000    0.000 
#    0.000    0.000    0.000    0.000    0.000    0.000 
#
# Total GULP energy -290111.540771 kJ/mol
# GULP energy per Si atom -5579.068092 kJ/mol
# Density = 2.116944 g / cm^3
# Si number density = 21.217730 Si / 1000 Ang^3
#
#
#
# Elastic Constant Matrix: (Units=GPa)
#
#
# Indices 1 2 3 4 5 6 
#
# 1 121.1562 57.0823 33.7088 0.0000 0.0000 0.0000
# 2 57.0823 128.3063 15.6341 0.0000 0.0000 0.0000
# 3 33.7088 15.6341 107.0364 0.0000 0.0000 0.0000
# 4 0.0000 0.0000 0.0000 14.0338 0.0000 0.0000
# 5 0.0000 0.0000 0.0000 0.0000 -4.1328 0.0000
# 6 0.0000 0.0000 0.0000 0.0000 0.0000 11.3846
#
#
#
# Elastic Compliance Matrix: (Units=1/GPa)
#
#
# Indices 1 2 3 4 5 6 
#
# 1 0.011242 -0.004653 -0.002861 0.000000 0.000000 0.000000
# 2 -0.004653 0.009861 0.000025 0.000000 0.000000 0.000000
# 3 -0.002861 0.000025 0.010240 0.000000 0.000000 0.000000
# 4 0.000000 0.000000 0.000000 0.071257 0.000000 0.000000
# 5 0.000000 0.000000 0.000000 0.000000 -0.241969 0.000000
# 6 0.000000 0.000000 0.000000 0.000000 0.000000 0.087838
#
#
# Mechanical properties :
#
#
# Convention : Reuss Voigt Hill
#
# Bulk Modulus (GPa) = 61.10455 63.26102 62.18279
# Shear Modulus (GPa) = -160.77247 20.92871 -69.92188
#
# Velocity S-wave (km/s) = -8.71420 3.14407 -5.74683
# Velocity P-wave (km/s) = 8.50813 6.56202 3.82937
#
# Compressibility (1/GPa) = 0.01636539
#
# Stress axis : x y z
#
# Youngs Moduli (GPa) = 88.95274 101.41158 97.65715
#
# Poissons Ratio (x) = 0.47185 0.27938
# Poissons Ratio (y) = 0.41388 -0.00244
# Poissons Ratio (z) = 0.25447 -0.00254
#
# Static dielectric constant tensor:
#      x y z
#    x 1.765050 0.000000 0.000000 
#    y 0.000000 1.885550 0.000000 
#    z 0.000000 0.000000 1.813530 
# 
# From -- ./inp_files/37930.got.cif
#   From: 2010.05.17/outbox.cif.g08.bks.cpg/sg52_19_cif.got.tgz:37930.got - 2010.06.03 12:15:38.
