data_PCOD9410706
_publ_section_title
;
Structure prediction by ZEFSAII (Michael W. Deem and Ramdas Pophale) SiO2 
 PCOD9410706
Probable space group: P N N A
;
_chemical_formula_sum "Si O2"
_cell_formula_units_Z 48
_cell_length_a 8.649828
_cell_length_b 24.394548
_cell_length_c 10.547562
_cell_angle_alpha 90.000000
_cell_angle_beta 90.000000
_cell_angle_gamma 90.000000
_cell_volume 2225.626759
_symmetry_space_group_name_H-M "P N N A"
_symmetry_group_IT_number 52
_symmetry_cell_setting 'orthorhombic'
loop_
_space_group_symop_operation_xyz
x,y,z
1/2-x,-y,z
x,1/2-y,1/2-z
1/2-x,1/2+y,1/2-z
-x,-y,-z
1/2+x,y,-z
-x,1/2+y,1/2+z
1/2+x,1/2-y,1/2+z
loop_
_atom_site_type_symbol
_atom_site_label
_atom_site_fract_x
_atom_site_fract_y
_atom_site_fract_z
Si Si1 0.093949 0.031969 0.105364
Si Si2 0.394540 0.198520 0.101290
Si Si3 0.397269 0.894849 0.524489
Si Si4 0.343893 0.324492 0.128888
Si Si5 0.360661 0.433626 0.813023
Si Si6 0.801141 0.630951 0.418291
O O1 0.973079 0.031082 0.222108
O O2 0.250000 0.000000 0.141338
O O3 0.144667 0.087715 0.029087
O O4 0.000000 0.000000 0.000000
O O5 0.398477 0.263855 0.089622
O O6 0.293624 0.182561 0.225344
O O7 0.559031 0.170347 0.119739
O O8 0.324033 0.170477 0.979887
O O9 0.284630 0.849027 0.463846
O O10 0.514384 0.866648 0.621698
O O11 0.289097 0.940278 0.592957
O O12 0.508865 0.912898 0.410814
O O13 0.277819 0.397520 0.702688
#
# Coordination Sequence:
#
# PCOD9410706 Si02
#       6
#     8   8   8   8   8   8
#     4  12  24  44  72 102 127 156 216 285 347 395
#     4  11  22  36  60  96 132 168 220 266 325 373
#     4  10  22  42  62  90 132 185 219 249 322 390
#     4  10  21  37  59  90 137 174 218 263 301 389
#     4  11  23  43  69  93 130 179 215 271 328 398
#     4  12  22  40  66  96 128 168 213 278 336 387
#
# _framework density 21.566960000000002
#
# number of rings (size 3 to 8) (size 9 to 14) (size 15 to 20)
#    0.000    1.000    5.000    2.000    0.000    0.000 
#    0.000    0.833    0.000    0.000    0.000    0.000 
#    0.000    0.000    0.000    0.000    0.000    0.000 
#
# Total GULP energy -267388.653592 kJ/mol
# GULP energy per Si atom -5570.596950 kJ/mol
# Density = 2.151787 g / cm^3
# Si number density = 21.566960 Si / 1000 Ang^3
#
#
#
# Elastic Constant Matrix: (Units=GPa)
#
#
# Indices 1 2 3 4 5 6 
#
# 1 66.0691 11.5618 24.5829 0.0000 0.0000 0.0000
# 2 11.5618 46.3732 18.2123 0.0000 0.0000 0.0000
# 3 24.5829 18.2123 68.1350 0.0000 0.0000 0.0000
# 4 0.0000 0.0000 0.0000 21.9473 0.0000 0.0000
# 5 0.0000 0.0000 0.0000 0.0000 27.8261 0.0000
# 6 0.0000 0.0000 0.0000 0.0000 0.0000 2.7195
#
#
#
# Elastic Compliance Matrix: (Units=1/GPa)
#
#
# Indices 1 2 3 4 5 6 
#
# 1 0.017668 -0.002125 -0.005807 0.000000 0.000000 0.000000
# 2 -0.002125 0.024349 -0.005742 0.000000 0.000000 0.000000
# 3 -0.005807 -0.005742 0.018307 0.000000 0.000000 0.000000
# 4 0.000000 0.000000 0.000000 0.045564 0.000000 0.000000
# 5 0.000000 0.000000 0.000000 0.000000 0.035937 0.000000
# 6 0.000000 0.000000 0.000000 0.000000 0.000000 0.367720
#
#
# Mechanical properties :
#
#
# Convention : Reuss Voigt Hill
#
# Bulk Modulus (GPa) = 30.32391 32.14350 31.23370
# Shear Modulus (GPa) = 9.12603 18.91328 14.01965
#
# Velocity S-wave (km/s) = 2.05929 2.96456 2.55238
# Velocity P-wave (km/s) = 4.44355 5.16280 4.81662
#
# Compressibility (1/GPa) = 0.03297728
#
# Stress axis : x y z
#
# Youngs Moduli (GPa) = 56.59955 41.06964 54.62524
#
# Poissons Ratio (x) = 0.08725 0.31719
# Poissons Ratio (y) = 0.12025 0.31365
# Poissons Ratio (z) = 0.32865 0.23582
#
# Static dielectric constant tensor:
#      x y z
#    x 1.829290 0.000000 0.000000 
#    y 0.000000 1.788900 0.000000 
#    z 0.000000 0.000000 1.822520 
# 
# From -- ./inp_files/7693.got.cif
#   From: 2010.05.17/outbox.cif.g08.bks.cpg/sg52_4_cif.got.tgz:7693.got - 2010.06.03 12:15:38.
