data_PCOD9410612
_publ_section_title
;
Structure prediction by ZEFSAII (Michael W. Deem and Ramdas Pophale) SiO2 
 PCOD9410612
Probable space group: P N N A
;
_chemical_formula_sum "Si O2"
_cell_formula_units_Z 32
_cell_length_a 20.105603
_cell_length_b 7.118491
_cell_length_c 10.138030
_cell_angle_alpha 90.000000
_cell_angle_beta 90.000000
_cell_angle_gamma 90.000000
_cell_volume 1450.970608
_symmetry_space_group_name_H-M "P N N A"
_symmetry_group_IT_number 52
_symmetry_cell_setting 'orthorhombic'
loop_
_space_group_symop_operation_xyz
x,y,z
1/2-x,-y,z
x,1/2-y,1/2-z
1/2-x,1/2+y,1/2-z
-x,-y,-z
1/2+x,y,-z
-x,1/2+y,1/2+z
1/2+x,1/2-y,1/2+z
loop_
_atom_site_type_symbol
_atom_site_label
_atom_site_fract_x
_atom_site_fract_y
_atom_site_fract_z
Si Si1 0.588547 0.021670 0.936363
Si Si2 0.073903 0.916585 0.521638
Si Si3 0.826499 0.032878 0.704738
Si Si4 0.957448 0.552462 0.296681
O O1 0.648285 0.066647 0.838691
O O2 0.520801 0.060012 0.854173
O O3 0.582697 0.802569 0.983316
O O4 0.587520 0.114592 0.079279
O O5 0.125349 0.008504 0.418411
O O6 0.081489 0.953196 0.678254
O O7 0.000000 0.000000 0.500000
O O8 0.833938 0.250000 0.750000
O O9 0.750000 0.000000 0.673395
O O10 0.987923 0.750000 0.250000
#
# Coordination Sequence:
#
# PCOD9410612 Si02
#       4
#     8   8   8   8
#     4  10  21  36  57  85 125 154 188 254 301 346
#     4  11  19  37  60  86 122 154 198 247 303 351
#     4  10  22  41  61  86 122 161 198 244 303 366
#     4  11  20  34  56  90 117 147 198 249 295 348
#
# _framework density 22.054203999999999
#
# number of rings (size 3 to 8) (size 9 to 14) (size 15 to 20)
#    0.000    1.500    5.000    1.500    0.000    2.000 
#    0.000    1.250    0.000    0.000    0.000    0.000 
#    0.000    0.000    0.000    0.000    0.000    0.000 
#
# Total GULP energy -178619.750402 kJ/mol
# GULP energy per Si atom -5581.867200 kJ/mol
# Density = 2.200401 g / cm^3
# Si number density = 22.054204 Si / 1000 Ang^3
#
#
#
# Elastic Constant Matrix: (Units=GPa)
#
#
# Indices 1 2 3 4 5 6 
#
# 1 131.5482 -2.5285 80.2561 0.0000 0.0000 0.0000
# 2 -2.5285 54.8053 17.1660 0.0000 0.0000 0.0000
# 3 80.2561 17.1660 204.8401 0.0000 0.0000 0.0000
# 4 0.0000 0.0000 0.0000 36.3789 0.0000 0.0000
# 5 0.0000 0.0000 0.0000 0.0000 36.3368 0.0000
# 6 0.0000 0.0000 0.0000 0.0000 0.0000 20.7176
#
#
#
# Elastic Compliance Matrix: (Units=1/GPa)
#
#
# Indices 1 2 3 4 5 6 
#
# 1 0.010152 0.001760 -0.004125 0.000000 0.000000 0.000000
# 2 0.001760 0.019044 -0.002286 0.000000 0.000000 0.000000
# 3 -0.004125 -0.002286 0.006690 0.000000 0.000000 0.000000
# 4 0.000000 0.000000 0.000000 0.027488 0.000000 0.000000
# 5 0.000000 0.000000 0.000000 0.000000 0.027520 0.000000
# 6 0.000000 0.000000 0.000000 0.000000 0.000000 0.048268
#
#
# Mechanical properties :
#
#
# Convention : Reuss Voigt Hill
#
# Bulk Modulus (GPa) = 37.61547 64.55341 51.08444
# Shear Modulus (GPa) = 31.78138 38.44000 35.11069
#
# Velocity S-wave (km/s) = 3.80025 4.17943 3.99434
# Velocity P-wave (km/s) = 6.02899 7.25424 6.66981
#
# Compressibility (1/GPa) = 0.02658481
#
# Stress axis : x y z
#
# Youngs Moduli (GPa) = 98.49920 52.51125 149.48461
#
# Poissons Ratio (x) = -0.09244 0.61666
# Poissons Ratio (y) = -0.17341 0.34167
# Poissons Ratio (z) = 0.40633 0.12002
#
# Static dielectric constant tensor:
#      x y z
#    x 1.761710 0.000000 0.000000 
#    y 0.000000 2.028360 0.000000 
#    z 0.000000 0.000000 1.958250 
# 
# From -- ./inp_files/12806.got.cif
#   From: 2010.05.17/outbox.cif.g08.bks.cpg/sg52_7_cif.got.tgz:12806.got - 2010.06.03 12:15:38.
