data_PCOD9410472
_publ_section_title
;
Structure prediction by ZEFSAII (Michael W. Deem and Ramdas Pophale) SiO2 
 PCOD9410472
Probable space group: P N N A
;
_chemical_formula_sum "Si O2"
_cell_formula_units_Z 64
_cell_length_a 11.458821
_cell_length_b 29.059445
_cell_length_c 7.055482
_cell_angle_alpha 90.000000
_cell_angle_beta 90.000000
_cell_angle_gamma 90.000000
_cell_volume 2349.383634
_symmetry_space_group_name_H-M "P N N A"
_symmetry_group_IT_number 52
_symmetry_cell_setting 'orthorhombic'
loop_
_space_group_symop_operation_xyz
x,y,z
1/2-x,-y,z
x,1/2-y,1/2-z
1/2-x,1/2+y,1/2-z
-x,-y,-z
1/2+x,y,-z
-x,1/2+y,1/2+z
1/2+x,1/2-y,1/2+z
loop_
_atom_site_type_symbol
_atom_site_label
_atom_site_fract_x
_atom_site_fract_y
_atom_site_fract_z
Si Si1 0.538701 0.221048 0.025365
Si Si2 0.590662 0.313574 0.896657
Si Si3 0.223321 0.082869 0.123992
Si Si4 0.788244 0.141890 0.427558
Si Si5 0.016504 0.912439 0.534110
Si Si6 0.790707 0.179772 0.031989
Si Si7 0.686151 0.453011 0.055823
Si Si8 0.530514 0.948495 0.051762
O O1 0.531565 0.276632 0.036864
O O2 0.564252 0.205651 0.808053
O O3 0.406694 0.202517 0.062027
O O4 0.669075 0.205376 0.096754
O O5 0.558178 0.367111 0.913171
O O6 0.723886 0.317514 0.964958
O O7 0.201033 0.057122 0.328077
O O8 0.095944 0.076527 0.021338
O O9 0.247176 0.137203 0.095189
O O10 0.344846 0.062243 0.045006
O O11 0.839313 0.161932 0.234892
O O12 0.719908 0.096249 0.354825
O O13 0.878775 0.114897 0.561103
O O14 0.952783 0.951015 0.413324
O O15 0.053267 0.936834 0.727054
O O16 0.750000 0.500000 0.106381
O O17 0.500000 0.000000 0.000000
#
# Coordination Sequence:
#
# PCOD9410472 Si02
#       8
#     8   8   8   8   8   8   8   8
#     4  11  25  45  74 106 143 180 246 297 359 441
#     4  10  23  45  70  98 138 194 227 296 362 425
#     4  11  21  41  68  96 140 188 232 298 358 427
#     4  11  23  43  69  93 143 187 231 289 367 429
#     4  10  20  43  65  91 142 184 223 290 363 415
#     4  12  24  46  71 108 142 189 233 302 369 432
#     4  10  23  44  66  96 136 191 245 292 352 431
#     4  11  21  38  65 101 134 181 237 291 351 422
#
# _framework density 27.241187
#
# number of rings (size 3 to 8) (size 9 to 14) (size 15 to 20)
#    0.000    1.250    2.500    4.875    1.750    1.000 
#   15.750    0.000    0.000    0.000    0.000    0.000 
#    0.000    0.000    0.000    0.000    0.000    0.000 
#
# Total GULP energy -356482.373969 kJ/mol
# GULP energy per Si atom -5570.037093 kJ/mol
# Density = 2.717918 g / cm^3
# Si number density = 27.241187 Si / 1000 Ang^3
#
#
#
# Elastic Constant Matrix: (Units=GPa)
#
#
# Indices 1 2 3 4 5 6 
#
# 1 181.5274 55.6412 30.5739 0.0000 0.0000 0.0000
# 2 55.6412 143.1203 17.4621 0.0000 0.0000 0.0000
# 3 30.5739 17.4621 62.0757 0.0000 0.0000 0.0000
# 4 0.0000 0.0000 0.0000 34.0823 0.0000 0.0000
# 5 0.0000 0.0000 0.0000 0.0000 33.4143 0.0000
# 6 0.0000 0.0000 0.0000 0.0000 0.0000 58.0363
#
#
#
# Elastic Compliance Matrix: (Units=1/GPa)
#
#
# Indices 1 2 3 4 5 6 
#
# 1 0.006646 -0.002262 -0.002637 0.000000 0.000000 0.000000
# 2 -0.002262 0.008005 -0.001138 0.000000 0.000000 0.000000
# 3 -0.002637 -0.001138 0.017728 0.000000 0.000000 0.000000
# 4 0.000000 0.000000 0.000000 0.029341 0.000000 0.000000
# 5 0.000000 0.000000 0.000000 0.000000 0.029927 0.000000
# 6 0.000000 0.000000 0.000000 0.000000 0.000000 0.017231
#
#
# Mechanical properties :
#
#
# Convention : Reuss Voigt Hill
#
# Bulk Modulus (GPa) = 49.24679 66.00864 57.62771
# Shear Modulus (GPa) = 39.14765 43.97632 41.56198
#
# Velocity S-wave (km/s) = 3.79499 4.02223 3.91026
# Velocity P-wave (km/s) = 6.10900 6.77163 6.44883
#
# Compressibility (1/GPa) = 0.02030589
#
# Stress axis : x y z
#
# Youngs Moduli (GPa) = 150.45812 124.91544 56.40696
#
# Poissons Ratio (x) = 0.28258 0.14875
# Poissons Ratio (y) = 0.34036 0.06418
# Poissons Ratio (z) = 0.39678 0.14213
#
# Static dielectric constant tensor:
#      x y z
#    x 2.612500 0.000000 0.000000 
#    y 0.000000 2.053430 0.000000 
#    z 0.000000 0.000000 2.246090 
# 
# From -- ./inp_files/9118.got.cif
#   From: 2010.05.17/outbox.cif.g08.bks.cpg/sg52_5_cif.got.tgz:9118.got - 2010.06.03 12:15:38.
