data_PCOD9410762
_publ_section_title
;
Structure prediction by ZEFSAII (Michael W. Deem and Ramdas Pophale) SiO2 
 PCOD9410762
Probable space group: P N N A
;
_chemical_formula_sum "Si O2"
_cell_formula_units_Z 64
_cell_length_a 13.503998
_cell_length_b 9.128002
_cell_length_c 24.556400
_cell_angle_alpha 90.000000
_cell_angle_beta 90.000000
_cell_angle_gamma 90.000000
_cell_volume 3026.932877
_symmetry_space_group_name_H-M "P N N A"
_symmetry_group_IT_number 52
_symmetry_cell_setting 'orthorhombic'
loop_
_space_group_symop_operation_xyz
x,y,z
1/2-x,-y,z
x,1/2-y,1/2-z
1/2-x,1/2+y,1/2-z
-x,-y,-z
1/2+x,y,-z
-x,1/2+y,1/2+z
1/2+x,1/2-y,1/2+z
loop_
_atom_site_type_symbol
_atom_site_label
_atom_site_fract_x
_atom_site_fract_y
_atom_site_fract_z
Si Si1 0.169900 0.872376 0.020485
Si Si2 0.275711 0.673171 0.807928
Si Si3 0.375231 0.269427 0.599745
Si Si4 0.815227 0.380417 0.790496
Si Si5 0.498867 0.202382 0.346048
Si Si6 0.018276 0.016681 0.435803
Si Si7 0.049647 0.008229 0.111278
Si Si8 0.805692 0.781713 0.604496
O O1 0.075721 0.943303 0.051290
O O2 0.220434 0.759764 0.062074
O O3 0.250000 0.000000 0.013343
O O4 0.155561 0.802083 0.962094
O O5 0.250000 0.500000 0.805333
O O6 0.254157 0.750000 0.750000
O O7 0.210561 0.744645 0.856435
O O8 0.391371 0.696632 0.822309
O O9 0.438859 0.121505 0.593947
O O10 0.447036 0.404373 0.614997
O O11 0.750000 0.500000 0.760150
O O12 0.827634 0.250000 0.750000
O O13 0.746198 0.340242 0.841693
O O14 0.925139 0.405768 0.813281
O O15 0.455588 0.367740 0.349065
O O16 0.495101 0.139053 0.407059
O O17 0.121377 0.099071 0.422493
O O18 0.000000 0.000000 0.500000
O O19 0.133568 0.133008 0.119110
#
# Coordination Sequence:
#
# PCOD9410762 Si02
#       8
#     8   8   8   8   8   8   8   8
#     4  10  21  37  69 105 148 186 229 281 355 439
#     4  12  30  53  74 100 139 184 252 307 357 415
#     4  11  25  45  69 103 139 188 239 293 353 423
#     4  12  27  46  74 104 143 184 238 291 361 427
#     4  12  25  47  71 104 141 182 238 291 350 435
#     4  11  24  43  71 107 147 186 229 295 362 426
#     4  10  23  41  70 102 146 182 227 282 355 422
#     4  10  23  45  66 107 146 184 229 292 355 429
#
# _framework density 21.143516000000002
#
# number of rings (size 3 to 8) (size 9 to 14) (size 15 to 20)
#    0.000    1.000    3.750    1.500    7.000    1.000 
#    0.000    3.125    0.000    0.000    0.000    0.000 
#    0.000    0.000    0.000    0.000    0.000    0.000 
#
# Total GULP energy -357686.083055 kJ/mol
# GULP energy per Si atom -5588.845048 kJ/mol
# Density = 2.109539 g / cm^3
# Si number density = 21.143516 Si / 1000 Ang^3
#
#
#
# Elastic Constant Matrix: (Units=GPa)
#
#
# Indices 1 2 3 4 5 6 
#
# 1 122.4284 27.1082 39.3392 0.0000 0.0000 0.0000
# 2 27.1082 86.0934 17.4216 0.0000 0.0000 0.0000
# 3 39.3392 17.4216 66.5322 0.0000 0.0000 0.0000
# 4 0.0000 0.0000 0.0000 37.5537 0.0000 0.0000
# 5 0.0000 0.0000 0.0000 0.0000 17.5594 0.0000
# 6 0.0000 0.0000 0.0000 0.0000 0.0000 24.9615
#
#
#
# Elastic Compliance Matrix: (Units=1/GPa)
#
#
# Indices 1 2 3 4 5 6 
#
# 1 0.010449 -0.002154 -0.005614 0.000000 0.000000 0.000000
# 2 -0.002154 0.012709 -0.002054 0.000000 0.000000 0.000000
# 3 -0.005614 -0.002054 0.018888 0.000000 0.000000 0.000000
# 4 0.000000 0.000000 0.000000 0.026629 0.000000 0.000000
# 5 0.000000 0.000000 0.000000 0.000000 0.056950 0.000000
# 6 0.000000 0.000000 0.000000 0.000000 0.000000 0.040062
#
#
# Mechanical properties :
#
#
# Convention : Reuss Voigt Hill
#
# Bulk Modulus (GPa) = 44.64103 49.19911 46.92007
# Shear Modulus (GPa) = 25.93388 28.76059 27.34723
#
# Velocity S-wave (km/s) = 3.50603 3.69217 3.60030
# Velocity P-wave (km/s) = 6.12771 6.44172 6.28668
#
# Compressibility (1/GPa) = 0.02240092
#
# Stress axis : x y z
#
# Youngs Moduli (GPa) = 95.70322 78.68298 52.94413
#
# Poissons Ratio (x) = 0.16948 0.29724
# Poissons Ratio (y) = 0.20614 0.10876
# Poissons Ratio (z) = 0.53730 0.16164
#
# Static dielectric constant tensor:
#      x y z
#    x 1.686670 0.000000 0.000000 
#    y 0.000000 1.828760 0.000000 
#    z 0.000000 0.000000 1.729280 
# 
# From -- ./inp_files/40678.got.cif
#   From: 2010.05.17/outbox.cif.g08.bks.cpg/sg52_21_cif.got.tgz:40678.got - 2010.06.03 12:15:38.
