data_PCOD9410142
_publ_section_title
;
Structure prediction by ZEFSAII (Michael W. Deem and Ramdas Pophale) SiO2 
 PCOD9410142
Probable space group: P N N A
;
_chemical_formula_sum "Si O2"
_cell_formula_units_Z 40
_cell_length_a 10.119186
_cell_length_b 9.034478
_cell_length_c 21.397380
_cell_angle_alpha 90.000000
_cell_angle_beta 90.000000
_cell_angle_gamma 90.000000
_cell_volume 1956.181930
_symmetry_space_group_name_H-M "P N N A"
_symmetry_group_IT_number 52
_symmetry_cell_setting 'orthorhombic'
loop_
_space_group_symop_operation_xyz
x,y,z
1/2-x,-y,z
x,1/2-y,1/2-z
1/2-x,1/2+y,1/2-z
-x,-y,-z
1/2+x,y,-z
-x,1/2+y,1/2+z
1/2+x,1/2-y,1/2+z
loop_
_atom_site_type_symbol
_atom_site_label
_atom_site_fract_x
_atom_site_fract_y
_atom_site_fract_z
Si Si1 0.456629 0.750000 0.750000
Si Si2 0.478719 0.145098 0.457922
Si Si3 0.772275 0.335012 0.343885
Si Si4 0.016459 0.750000 0.750000
Si Si5 0.750674 0.819932 0.021493
Si Si6 0.095735 0.989804 0.326357
O O1 0.356575 0.723158 0.692060
O O2 0.550949 0.883454 0.730305
O O3 0.599377 0.257859 0.473591
O O4 0.342567 0.233833 0.472451
O O5 0.472674 0.078373 0.387816
O O6 0.500000 0.000000 0.500000
O O7 0.750000 0.500000 0.365042
O O8 0.885545 0.345131 0.292618
O O9 0.806046 0.263950 0.410314
O O10 0.942890 0.650642 0.800314
O O11 0.750000 0.000000 0.009940
O O12 0.250000 0.000000 0.338795
#
# Coordination Sequence:
#
# PCOD9410142 Si02
#       6
#     4   8   8   4   8   8
#     4  11  21  42  64  96 133 171 228 280 352 409
#     4  12  25  45  69 102 144 191 240 299 360 432
#     4  10  20  38  67  96 128 168 223 292 338 415
#     4  11  23  38  64  96 127 171 224 280 356 423
#     4  11  24  44  70 103 139 189 245 296 362 426
#     4  12  25  43  64  95 138 179 225 285 356 429
#
# _framework density 20.447994999999999
#
# number of rings (size 3 to 8) (size 9 to 14) (size 15 to 20)
#    0.000    0.800    4.000    4.200    0.000    0.000 
#    0.000    3.000    0.000    0.000    0.000    0.000 
#    0.000    0.000    0.000    0.000    0.000    0.000 
#
# Total GULP energy -222768.372515 kJ/mol
# GULP energy per Si atom -5569.209313 kJ/mol
# Density = 2.040145 g / cm^3
# Si number density = 20.447995 Si / 1000 Ang^3
#
#
#
# Elastic Constant Matrix: (Units=GPa)
#
#
# Indices 1 2 3 4 5 6 
#
# 1 99.0730 48.4721 17.8097 0.0000 0.0000 0.0000
# 2 48.4721 103.2006 31.7102 0.0000 0.0000 0.0000
# 3 17.8097 31.7102 92.6203 0.0000 0.0000 0.0000
# 4 0.0000 0.0000 0.0000 27.3317 0.0000 0.0000
# 5 0.0000 0.0000 0.0000 0.0000 3.1142 0.0000
# 6 0.0000 0.0000 0.0000 0.0000 0.0000 29.7694
#
#
#
# Elastic Compliance Matrix: (Units=1/GPa)
#
#
# Indices 1 2 3 4 5 6 
#
# 1 0.013123 -0.006022 -0.000462 0.000000 0.000000 0.000000
# 2 -0.006022 0.013592 -0.003496 0.000000 0.000000 0.000000
# 3 -0.000462 -0.003496 0.012082 0.000000 0.000000 0.000000
# 4 0.000000 0.000000 0.000000 0.036588 0.000000 0.000000
# 5 0.000000 0.000000 0.000000 0.000000 0.321111 0.000000
# 6 0.000000 0.000000 0.000000 0.000000 0.000000 0.033592
#
#
# Mechanical properties :
#
#
# Convention : Reuss Voigt Hill
#
# Bulk Modulus (GPa) = 53.08073 54.54197 53.81135
# Shear Modulus (GPa) = 10.95709 25.16986 18.06347
#
# Velocity S-wave (km/s) = 2.31736 3.51225 2.97541
# Velocity P-wave (km/s) = 5.75981 6.57110 6.17878
#
# Compressibility (1/GPa) = 0.01883923
#
# Stress axis : x y z
#
# Youngs Moduli (GPa) = 76.20373 73.57108 82.76538
#
# Poissons Ratio (x) = 0.44302 0.03821
# Poissons Ratio (y) = 0.45888 0.28932
# Poissons Ratio (z) = 0.03518 0.25718
#
# Static dielectric constant tensor:
#      x y z
#    x 1.730140 0.000000 0.000000 
#    y 0.000000 1.441430 0.000000 
#    z 0.000000 0.000000 1.772160 
# 
# From -- ./inp_files/39288.got.cif
#   From: 2010.05.17/outbox.cif.g08.bks.cpg/sg52_20_cif.got.tgz:39288.got - 2010.06.03 12:15:38.
