data_PCOD9410463
_publ_section_title
;
Structure prediction by ZEFSAII (Michael W. Deem and Ramdas Pophale) SiO2 
 PCOD9410463
Probable space group: P N N A
;
_chemical_formula_sum "Si O2"
_cell_formula_units_Z 60
_cell_length_a 16.061105
_cell_length_b 20.353092
_cell_length_c 8.317558
_cell_angle_alpha 90.000000
_cell_angle_beta 90.000000
_cell_angle_gamma 90.000000
_cell_volume 2718.952716
_symmetry_space_group_name_H-M "P N N A"
_symmetry_group_IT_number 52
_symmetry_cell_setting 'orthorhombic'
loop_
_space_group_symop_operation_xyz
x,y,z
1/2-x,-y,z
x,1/2-y,1/2-z
1/2-x,1/2+y,1/2-z
-x,-y,-z
1/2+x,y,-z
-x,1/2+y,1/2+z
1/2+x,1/2-y,1/2+z
loop_
_atom_site_type_symbol
_atom_site_label
_atom_site_fract_x
_atom_site_fract_y
_atom_site_fract_z
Si Si1 0.017214 0.452365 0.648674
Si Si2 0.300795 0.558994 0.217136
Si Si3 0.874238 0.163813 0.432964
Si Si4 0.998791 0.750000 0.750000
Si Si5 0.891104 0.653711 0.547494
Si Si6 0.158360 0.989845 0.622948
Si Si7 0.274249 0.274052 0.437126
Si Si8 0.631038 0.870586 0.762717
O O1 0.058931 0.384966 0.587247
O O2 0.080931 0.483302 0.775746
O O3 0.000000 0.500000 0.500000
O O4 0.926259 0.433057 0.711745
O O5 0.250000 0.500000 0.305267
O O6 0.369450 0.598371 0.316447
O O7 0.223279 0.609309 0.200358
O O8 0.333156 0.529074 0.048208
O O9 0.942261 0.193075 0.316587
O O10 0.854836 0.088136 0.397485
O O11 0.797055 0.214089 0.447323
O O12 0.909413 0.167802 0.615163
O O13 0.941605 0.714434 0.619351
O O14 0.802311 0.683698 0.499154
O O15 0.250000 0.000000 0.701022
O O16 0.258050 0.250000 0.250000
O O17 0.351980 0.324289 0.414618
#
# Coordination Sequence:
#
# PCOD9410463 Si02
#       8
#     8   8   8   4   8   8   8   8
#     4  12  27  42  63 107 145 177 221 286 361 411
#     4  10  20  42  72  98 127 179 233 274 335 405
#     4  11  23  43  67  96 133 180 224 283 340 404
#     4  12  26  40  68 100 136 176 230 278 346 404
#     4  11  24  42  69 102 137 179 227 281 337 421
#     4  11  25  44  70 102 134 178 236 283 340 413
#     4   9  20  42  71  93 128 178 234 268 334 409
#     4  10  21  42  69  95 135 180 220 282 348 405
#
# _framework density 22.067319000000001
#
# number of rings (size 3 to 8) (size 9 to 14) (size 15 to 20)
#    0.000    1.333    3.333    2.400    1.867    4.267 
#    0.000    0.000    0.000    0.000    0.000    0.000 
#    0.000    0.000    0.000    0.000    0.000    0.000 
#
# Total GULP energy -334942.733711 kJ/mol
# GULP energy per Si atom -5582.378895 kJ/mol
# Density = 2.201709 g / cm^3
# Si number density = 22.067319 Si / 1000 Ang^3
#
#
#
# Elastic Constant Matrix: (Units=GPa)
#
#
# Indices 1 2 3 4 5 6 
#
# 1 103.5949 47.7253 37.5461 0.0000 0.0000 0.0000
# 2 47.7253 136.5521 27.3606 0.0000 0.0000 0.0000
# 3 37.5461 27.3606 42.0528 0.0000 0.0000 0.0000
# 4 0.0000 0.0000 0.0000 41.8361 0.0000 0.0000
# 5 0.0000 0.0000 0.0000 0.0000 21.9786 0.0000
# 6 0.0000 0.0000 0.0000 0.0000 0.0000 37.6011
#
#
#
# Elastic Compliance Matrix: (Units=1/GPa)
#
#
# Indices 1 2 3 4 5 6 
#
# 1 0.015267 -0.002995 -0.011682 0.000000 0.000000 0.000000
# 2 -0.002995 0.009009 -0.003187 0.000000 0.000000 0.000000
# 3 -0.011682 -0.003187 0.036283 0.000000 0.000000 0.000000
# 4 0.000000 0.000000 0.000000 0.023903 0.000000 0.000000
# 5 0.000000 0.000000 0.000000 0.000000 0.045499 0.000000
# 6 0.000000 0.000000 0.000000 0.000000 0.000000 0.026595
#
#
# Mechanical properties :
#
#
# Convention : Reuss Voigt Hill
#
# Bulk Modulus (GPa) = 40.27334 56.38486 48.32910
# Shear Modulus (GPa) = 24.93017 31.58767 28.25892
#
# Velocity S-wave (km/s) = 3.36480 3.78752 3.58240
# Velocity P-wave (km/s) = 5.77803 6.68834 6.24978
#
# Compressibility (1/GPa) = 0.02483032
#
# Stress axis : x y z
#
# Youngs Moduli (GPa) = 65.50207 111.00517 27.56090
#
# Poissons Ratio (x) = 0.33247 0.32196
# Poissons Ratio (y) = 0.19618 0.08784
# Poissons Ratio (z) = 0.76519 0.35379
#
# Static dielectric constant tensor:
#      x y z
#    x 1.830820 0.000000 0.000000 
#    y 0.000000 1.246210 0.000000 
#    z 0.000000 0.000000 1.849030 
# 
# From -- ./inp_files/10986.got.cif
#   From: 2010.05.17/outbox.cif.g08.bks.cpg/sg52_6_cif.got.tgz:10986.got - 2010.06.03 12:15:38.
