data_PCOD9410278
_publ_section_title
;
Structure prediction by ZEFSAII (Michael W. Deem and Ramdas Pophale) SiO2 
 PCOD9410278
Probable space group: P N N A
;
_chemical_formula_sum "Si O2"
_cell_formula_units_Z 48
_cell_length_a 8.741609
_cell_length_b 24.434980
_cell_length_c 9.448100
_cell_angle_alpha 90.000000
_cell_angle_beta 90.000000
_cell_angle_gamma 90.000000
_cell_volume 2018.123996
_symmetry_space_group_name_H-M "P N N A"
_symmetry_group_IT_number 52
_symmetry_cell_setting 'orthorhombic'
loop_
_space_group_symop_operation_xyz
x,y,z
1/2-x,-y,z
x,1/2-y,1/2-z
1/2-x,1/2+y,1/2-z
-x,-y,-z
1/2+x,y,-z
-x,1/2+y,1/2+z
1/2+x,1/2-y,1/2+z
loop_
_atom_site_type_symbol
_atom_site_label
_atom_site_fract_x
_atom_site_fract_y
_atom_site_fract_z
Si Si1 0.187494 0.613181 0.480240
Si Si2 0.933607 0.144418 0.667420
Si Si3 0.049037 0.159992 0.147317
Si Si4 0.750000 0.500000 0.595469
Si Si5 0.225185 0.084159 0.566852
Si Si6 0.528732 0.056670 0.678436
Si Si7 0.772550 0.250000 0.750000
O O1 0.367587 0.624326 0.472745
O O2 0.177156 0.548357 0.497598
O O3 0.124484 0.624388 0.321438
O O4 0.120714 0.657173 0.589275
O O5 0.108676 0.126037 0.643874
O O6 0.835817 0.115147 0.544703
O O7 0.883020 0.208152 0.666898
O O8 0.052911 0.121747 0.285134
O O9 0.151166 0.213278 0.162295
O O10 0.618482 0.476866 0.701711
O O11 0.346314 0.053285 0.666171
O O12 0.115363 0.046929 0.469391
#
# Coordination Sequence:
#
# PCOD9410278 Si02
#       7
#     8   8   8   4   8   8   4
#     4  10  22  40  62  92 132 170 218 274 320 393
#     4  10  21  39  61  91 125 170 212 273 329 386
#     4  10  22  41  62  91 132 167 216 274 325 393
#     4  10  20  42  64  94 130 174 222 262 342 376
#     4  10  20  40  62  86 133 165 211 272 325 384
#     4  10  21  39  61  92 127 172 214 274 325 386
#     4  10  20  42  64  94 122 168 214 268 342 388
#
# _framework density 23.784465000000001
#
# number of rings (size 3 to 8) (size 9 to 14) (size 15 to 20)
#    0.000    2.000    5.000    0.000    2.333    6.000 
#    0.000    0.833    0.000    0.000    0.000    0.000 
#    0.000    0.000    0.000    0.000    0.000    0.000 
#
# Total GULP energy -267650.478967 kJ/mol
# GULP energy per Si atom -5576.051645 kJ/mol
# Density = 2.373033 g / cm^3
# Si number density = 23.784465 Si / 1000 Ang^3
#
#
#
# Elastic Constant Matrix: (Units=GPa)
#
#
# Indices 1 2 3 4 5 6 
#
# 1 142.0101 39.8819 34.2501 0.0000 0.0000 0.0000
# 2 39.8819 100.8542 18.3604 0.0000 0.0000 0.0000
# 3 34.2501 18.3604 68.8103 0.0000 0.0000 0.0000
# 4 0.0000 0.0000 0.0000 11.4792 0.0000 0.0000
# 5 0.0000 0.0000 0.0000 0.0000 41.0701 0.0000
# 6 0.0000 0.0000 0.0000 0.0000 0.0000 32.3497
#
#
#
# Elastic Compliance Matrix: (Units=1/GPa)
#
#
# Indices 1 2 3 4 5 6 
#
# 1 0.008687 -0.002783 -0.003581 0.000000 0.000000 0.000000
# 2 -0.002783 0.011313 -0.001633 0.000000 0.000000 0.000000
# 3 -0.003581 -0.001633 0.016751 0.000000 0.000000 0.000000
# 4 0.000000 0.000000 0.000000 0.087114 0.000000 0.000000
# 5 0.000000 0.000000 0.000000 0.000000 0.024349 0.000000
# 6 0.000000 0.000000 0.000000 0.000000 0.000000 0.030912
#
#
# Mechanical properties :
#
#
# Convention : Reuss Voigt Hill
#
# Bulk Modulus (GPa) = 48.17959 55.18437 51.68198
# Shear Modulus (GPa) = 24.74741 31.59192 28.16967
#
# Velocity S-wave (km/s) = 3.22916 3.64848 3.44520
# Velocity P-wave (km/s) = 5.84842 6.40319 6.13208
#
# Compressibility (1/GPa) = 0.02075567
#
# Stress axis : x y z
#
# Youngs Moduli (GPa) = 115.11242 88.39174 59.69743
#
# Poissons Ratio (x) = 0.24602 0.21380
# Poissons Ratio (y) = 0.32039 0.09750
# Poissons Ratio (z) = 0.41226 0.14437
#
# Static dielectric constant tensor:
#      x y z
#    x 1.942010 0.000000 0.000000 
#    y 0.000000 1.974640 0.000000 
#    z 0.000000 0.000000 1.950690 
# 
# From -- ./inp_files/16990.got.cif
#   From: 2010.05.17/outbox.cif.g08.bks.cpg/sg52_9_cif.got.tgz:16990.got - 2010.06.03 12:15:38.
