data_PCOD9410351
_publ_section_title
;
Structure prediction by ZEFSAII (Michael W. Deem and Ramdas Pophale) SiO2 
 PCOD9410351
Probable space group: P N N A
;
_chemical_formula_sum "Si O2"
_cell_formula_units_Z 56
_cell_length_a 13.525446
_cell_length_b 32.213179
_cell_length_c 4.991241
_cell_angle_alpha 90.000000
_cell_angle_beta 90.000000
_cell_angle_gamma 90.000000
_cell_volume 2174.671790
_symmetry_space_group_name_H-M "P N N A"
_symmetry_group_IT_number 52
_symmetry_cell_setting 'orthorhombic'
loop_
_space_group_symop_operation_xyz
x,y,z
1/2-x,-y,z
x,1/2-y,1/2-z
1/2-x,1/2+y,1/2-z
-x,-y,-z
1/2+x,y,-z
-x,1/2+y,1/2+z
1/2+x,1/2-y,1/2+z
loop_
_atom_site_type_symbol
_atom_site_label
_atom_site_fract_x
_atom_site_fract_y
_atom_site_fract_z
Si Si1 0.938949 0.624866 0.362394
Si Si2 0.250000 0.500000 0.434218
Si Si3 0.063493 0.208879 0.167425
Si Si4 0.781841 0.750000 0.250000
Si Si5 0.644452 0.564672 0.174688
Si Si6 0.283755 0.669370 0.968005
Si Si7 0.947234 0.536540 0.668748
Si Si8 0.649731 0.885332 0.801425
O O1 0.968854 0.666426 0.528126
O O2 0.833951 0.634857 0.222760
O O3 0.929437 0.580683 0.515511
O O4 0.038681 0.621244 0.188829
O O5 0.293297 0.466506 0.644396
O O6 0.158733 0.482160 0.263702
O O7 0.001998 0.250000 0.250000
O O8 0.116603 0.190923 0.427641
O O9 0.148702 0.228374 0.975366
O O10 0.725017 0.708940 0.148614
O O11 0.533973 0.547029 0.124799
O O12 0.638886 0.603327 0.387535
O O13 0.686673 0.577297 0.888838
O O14 0.223085 0.650826 0.214856
O O15 0.000000 0.500000 0.500000
#
# Coordination Sequence:
#
# PCOD9410351 Si02
#       8
#     8   4   8   4   8   8   8   8
#     4  10  22  39  66  97 134 182 223 283 346 408
#     4  10  20  40  70  92 134 178 238 276 344 408
#     4   9  19  38  67  93 127 173 221 277 341 404
#     4   8  18  38  62  92 132 162 214 280 342 390
#     4  10  24  42  61  96 132 177 222 288 334 404
#     4  10  21  37  70  92 129 179 225 276 341 417
#     4   9  20  40  63  95 134 174 223 285 340 397
#     4  11  25  40  67  98 136 170 232 277 339 410
#
# _framework density 25.751011999999999
#
# number of rings (size 3 to 8) (size 9 to 14) (size 15 to 20)
#    0.000    2.286    0.000    0.857   10.000    0.571 
#    0.000   17.857   37.714    0.000    0.000    0.000 
#    0.000    0.000    0.000    0.000    0.000    0.000 
#
# Total GULP energy -312254.992148 kJ/mol
# GULP energy per Si atom -5575.982003 kJ/mol
# Density = 2.569240 g / cm^3
# Si number density = 25.751012 Si / 1000 Ang^3
#
#
#
# Elastic Constant Matrix: (Units=GPa)
#
#
# Indices 1 2 3 4 5 6 
#
# 1 102.7942 40.9133 7.0215 0.0000 0.0000 0.0000
# 2 40.9133 165.5815 22.8262 0.0000 0.0000 0.0000
# 3 7.0215 22.8262 77.8329 0.0000 0.0000 0.0000
# 4 0.0000 0.0000 0.0000 42.0582 0.0000 0.0000
# 5 0.0000 0.0000 0.0000 0.0000 22.0386 0.0000
# 6 0.0000 0.0000 0.0000 0.0000 0.0000 22.3895
#
#
#
# Elastic Compliance Matrix: (Units=1/GPa)
#
#
# Indices 1 2 3 4 5 6 
#
# 1 0.010792 -0.002639 -0.000200 0.000000 0.000000 0.000000
# 2 -0.002639 0.006939 -0.001797 0.000000 0.000000 0.000000
# 3 -0.000200 -0.001797 0.013393 0.000000 0.000000 0.000000
# 4 0.000000 0.000000 0.000000 0.023777 0.000000 0.000000
# 5 0.000000 0.000000 0.000000 0.000000 0.045375 0.000000
# 6 0.000000 0.000000 0.000000 0.000000 0.000000 0.044664
#
#
# Mechanical properties :
#
#
# Convention : Reuss Voigt Hill
#
# Bulk Modulus (GPa) = 45.76032 54.19229 49.97630
# Shear Modulus (GPa) = 30.96062 35.66043 33.31052
#
# Velocity S-wave (km/s) = 3.47119 3.72535 3.60051
# Velocity P-wave (km/s) = 5.82017 6.29243 6.06091
#
# Compressibility (1/GPa) = 0.02185299
#
# Stress axis : x y z
#
# Youngs Moduli (GPa) = 92.65943 144.11012 74.66557
#
# Poissons Ratio (x) = 0.38032 0.01490
# Poissons Ratio (y) = 0.24454 0.13417
# Poissons Ratio (z) = 0.01850 0.25896
#
# Static dielectric constant tensor:
#      x y z
#    x 2.050700 0.000000 0.000000 
#    y 0.000000 2.398500 0.000000 
#    z 0.000000 0.000000 2.142120 
# 
# From -- ./inp_files/2651.got.cif
#   From: 2010.05.17/outbox.cif.g08.bks.cpg/sg52_2_cif.got.tgz:2651.got - 2010.06.03 12:15:38.
