data_PCOD9410744
_publ_section_title
;
Structure prediction by ZEFSAII (Michael W. Deem and Ramdas Pophale) SiO2 
 PCOD9410744
Probable space group: P N N A
;
_chemical_formula_sum "Si O2"
_cell_formula_units_Z 40
_cell_length_a 8.817305
_cell_length_b 15.446643
_cell_length_c 14.377262
_cell_angle_alpha 90.000000
_cell_angle_beta 90.000000
_cell_angle_gamma 90.000000
_cell_volume 1958.150916
_symmetry_space_group_name_H-M "P N N A"
_symmetry_group_IT_number 52
_symmetry_cell_setting 'orthorhombic'
loop_
_space_group_symop_operation_xyz
x,y,z
1/2-x,-y,z
x,1/2-y,1/2-z
1/2-x,1/2+y,1/2-z
-x,-y,-z
1/2+x,y,-z
-x,1/2+y,1/2+z
1/2+x,1/2-y,1/2+z
loop_
_atom_site_type_symbol
_atom_site_label
_atom_site_fract_x
_atom_site_fract_y
_atom_site_fract_z
Si Si1 0.750000 0.500000 0.919234
Si Si2 0.002883 0.577035 0.220993
Si Si3 0.695337 0.750000 0.750000
Si Si4 0.585591 0.956682 0.915911
Si Si5 0.162213 0.741228 0.449078
Si Si6 0.855589 0.850741 0.437591
O O1 0.611882 0.526887 0.851494
O O2 0.810803 0.577287 0.985633
O O3 0.854885 0.604345 0.163137
O O4 0.091382 0.664976 0.249044
O O5 0.991812 0.531652 0.320096
O O6 0.764947 0.751960 0.645948
O O7 0.607633 0.856682 0.945415
O O8 0.750000 0.000000 0.900276
O O9 0.500000 0.000000 0.000000
O O10 0.250237 0.769127 0.540874
O O11 0.023052 0.809019 0.444673
#
# Coordination Sequence:
#
# PCOD9410744 Si02
#       6
#     4   8   4   8   8   8
#     4  12  20  38  60  96 126 166 212 264 324 396
#     4  10  21  37  64  90 126 168 215 260 326 388
#     4   8  16  36  56  82 114 168 206 242 304 388
#     4  11  23  44  69  93 127 174 226 276 325 398
#     4  10  21  37  63  90 123 170 212 266 329 387
#     4  11  21  38  61  94 131 167 211 267 323 393
#
# _framework density 20.427434999999999
#
# number of rings (size 3 to 8) (size 9 to 14) (size 15 to 20)
#    0.000    1.600    5.000    1.800    0.000    0.000 
#    1.800    0.000    0.000    7.200    0.000    0.000 
#    0.000    0.000    0.000    0.000    0.000    0.000 
#
# Total GULP energy -222748.260552 kJ/mol
# GULP energy per Si atom -5568.706514 kJ/mol
# Density = 2.038094 g / cm^3
# Si number density = 20.427435 Si / 1000 Ang^3
#
#
#
# Elastic Constant Matrix: (Units=GPa)
#
#
# Indices 1 2 3 4 5 6 
#
# 1 32.5722 9.7096 42.3135 0.0000 0.0000 0.0000
# 2 9.7096 96.8759 53.8965 0.0000 0.0000 0.0000
# 3 42.3135 53.8965 180.2499 0.0000 0.0000 0.0000
# 4 0.0000 0.0000 0.0000 21.5437 0.0000 0.0000
# 5 0.0000 0.0000 0.0000 0.0000 29.6640 0.0000
# 6 0.0000 0.0000 0.0000 0.0000 0.0000 12.8585
#
#
#
# Elastic Compliance Matrix: (Units=1/GPa)
#
#
# Indices 1 2 3 4 5 6 
#
# 1 0.044381 0.001617 -0.010902 0.000000 0.000000 0.000000
# 2 0.001617 0.012441 -0.004100 0.000000 0.000000 0.000000
# 3 -0.010902 -0.004100 0.009333 0.000000 0.000000 0.000000
# 4 0.000000 0.000000 0.000000 0.046417 0.000000 0.000000
# 5 0.000000 0.000000 0.000000 0.000000 0.033711 0.000000
# 6 0.000000 0.000000 0.000000 0.000000 0.000000 0.077770
#
#
# Mechanical properties :
#
#
# Convention : Reuss Voigt Hill
#
# Bulk Modulus (GPa) = 25.38951 57.94857 41.66904
# Shear Modulus (GPa) = 18.94287 26.39847 22.67067
#
# Velocity S-wave (km/s) = 3.04851 3.59876 3.33500
# Velocity P-wave (km/s) = 4.98470 6.76001 5.93907
#
# Compressibility (1/GPa) = 0.03938634
#
# Stress axis : x y z
#
# Youngs Moduli (GPa) = 22.53195 80.37788 107.14765
#
# Poissons Ratio (x) = -0.12997 1.16812
# Poissons Ratio (y) = -0.03643 0.43927
# Poissons Ratio (z) = 0.24564 0.32952
#
# Static dielectric constant tensor:
#      x y z
#    x 1.740680 0.000000 0.000000 
#    y 0.000000 1.745690 0.000000 
#    z 0.000000 0.000000 1.815670 
# 
# From -- ./inp_files/16697.got.cif
#   From: 2010.05.17/outbox.cif.g08.bks.cpg/sg52_9_cif.got.tgz:16697.got - 2010.06.03 12:15:38.
