data_PCOD9410050
_publ_section_title
;
Structure prediction by ZEFSAII (Michael W. Deem and Ramdas Pophale) SiO2 
 PCOD9410050
Probable space group: P N N A
;
_chemical_formula_sum "Si O2"
_cell_formula_units_Z 44
_cell_length_a 7.781007
_cell_length_b 17.657173
_cell_length_c 15.899184
_cell_angle_alpha 90.000000
_cell_angle_beta 90.000000
_cell_angle_gamma 90.000000
_cell_volume 2184.398218
_symmetry_space_group_name_H-M "P N N A"
_symmetry_group_IT_number 52
_symmetry_cell_setting 'orthorhombic'
loop_
_space_group_symop_operation_xyz
x,y,z
1/2-x,-y,z
x,1/2-y,1/2-z
1/2-x,1/2+y,1/2-z
-x,-y,-z
1/2+x,y,-z
-x,1/2+y,1/2+z
1/2+x,1/2-y,1/2+z
loop_
_atom_site_type_symbol
_atom_site_label
_atom_site_fract_x
_atom_site_fract_y
_atom_site_fract_z
Si Si1 0.011176 0.212117 0.520026
Si Si2 0.156076 0.141393 0.740237
Si Si3 0.709458 0.774682 0.119943
Si Si4 0.250000 0.500000 0.866845
Si Si5 0.608351 0.067269 0.577339
Si Si6 0.287635 0.184202 0.310360
O O1 0.950778 0.244229 0.430650
O O2 0.876050 0.205496 0.598096
O O3 0.145664 0.274043 0.549526
O O4 0.093491 0.129042 0.499383
O O5 0.267448 0.151305 0.824416
O O6 0.231790 0.205632 0.679060
O O7 0.176979 0.064157 0.693178
O O8 0.952623 0.158345 0.745760
O O9 0.417171 0.466674 0.914074
O O10 0.662032 0.116698 0.660028
O O11 0.750000 0.000000 0.570693
O O12 0.208148 0.250000 0.250000
#
# Coordination Sequence:
#
# PCOD9410050 Si02
#       6
#     8   8   8   4   8   8
#     4  11  21  39  60  95 125 164 219 260 313 371
#     4  10  20  39  63  87 130 173 212 260 317 384
#     4  10  20  38  61  91 123 170 216 268 309 371
#     4  12  24  42  64  96 138 174 208 256 326 404
#     4  12  26  40  63  98 136 172 209 255 329 394
#     4  11  22  42  64  90 127 172 220 263 309 379
#
# _framework density 20.142848000000001
#
# number of rings (size 3 to 8) (size 9 to 14) (size 15 to 20)
#    0.000    1.091    9.091    0.000    0.000    2.182 
#    8.182    0.000    0.000    1.091    2.364    0.000 
#    0.000    0.000    0.000    0.000    0.000    0.000 
#
# Total GULP energy -245201.265551 kJ/mol
# GULP energy per Si atom -5572.756035 kJ/mol
# Density = 2.009700 g / cm^3
# Si number density = 20.142848 Si / 1000 Ang^3
#
#
#
# Elastic Constant Matrix: (Units=GPa)
#
#
# Indices 1 2 3 4 5 6 
#
# 1 72.6995 18.3873 34.8855 0.0000 0.0000 0.0000
# 2 18.3873 68.0697 47.0434 0.0000 0.0000 0.0000
# 3 34.8855 47.0434 96.8178 0.0000 0.0000 0.0000
# 4 0.0000 0.0000 0.0000 25.4315 0.0000 0.0000
# 5 0.0000 0.0000 0.0000 0.0000 24.1073 0.0000
# 6 0.0000 0.0000 0.0000 0.0000 0.0000 30.9580
#
#
#
# Elastic Compliance Matrix: (Units=1/GPa)
#
#
# Indices 1 2 3 4 5 6 
#
# 1 0.016643 -0.000529 -0.005740 0.000000 0.000000 0.000000
# 2 -0.000529 0.022135 -0.010565 0.000000 0.000000 0.000000
# 3 -0.005740 -0.010565 0.017530 0.000000 0.000000 0.000000
# 4 0.000000 0.000000 0.000000 0.039321 0.000000 0.000000
# 5 0.000000 0.000000 0.000000 0.000000 0.041481 0.000000
# 6 0.000000 0.000000 0.000000 0.000000 0.000000 0.032302
#
#
# Mechanical properties :
#
#
# Convention : Reuss Voigt Hill
#
# Bulk Modulus (GPa) = 44.16668 48.69105 46.42886
# Shear Modulus (GPa) = 23.73860 25.25076 24.49468
#
# Velocity S-wave (km/s) = 3.43667 3.54444 3.49097
# Velocity P-wave (km/s) = 6.14182 6.40126 6.27288
#
# Compressibility (1/GPa) = 0.02264150
#
# Stress axis : x y z
#
# Youngs Moduli (GPa) = 60.08392 45.17722 57.04411
#
# Poissons Ratio (x) = 0.02389 0.32743
# Poissons Ratio (y) = 0.03177 0.60266
# Poissons Ratio (z) = 0.34488 0.47729
#
# Static dielectric constant tensor:
#      x y z
#    x 1.887840 0.000000 0.000000 
#    y 0.000000 1.811590 0.000000 
#    z 0.000000 0.000000 1.804530 
# 
# From -- ./inp_files/24626.got.cif
#   From: 2010.05.17/outbox.cif.g08.bks.cpg/sg52_13_cif.got.tgz:24626.got - 2010.06.03 12:15:38.
