data_PCOD9410951
_publ_section_title
;
Structure prediction by ZEFSAII (Michael W. Deem and Ramdas Pophale) SiO2 
 PCOD9410951
Probable space group: P N N A
;
_chemical_formula_sum "Si O2"
_cell_formula_units_Z 36
_cell_length_a 17.711589
_cell_length_b 7.595275
_cell_length_c 14.765086
_cell_angle_alpha 90.000000
_cell_angle_beta 90.000000
_cell_angle_gamma 90.000000
_cell_volume 1986.264175
_symmetry_space_group_name_H-M "P N N A"
_symmetry_group_IT_number 52
_symmetry_cell_setting 'orthorhombic'
loop_
_space_group_symop_operation_xyz
x,y,z
1/2-x,-y,z
x,1/2-y,1/2-z
1/2-x,1/2+y,1/2-z
-x,-y,-z
1/2+x,y,-z
-x,1/2+y,1/2+z
1/2+x,1/2-y,1/2+z
loop_
_atom_site_type_symbol
_atom_site_label
_atom_site_fract_x
_atom_site_fract_y
_atom_site_fract_z
Si Si1 0.069521 0.750000 0.250000
Si Si2 0.093914 0.703039 0.050165
Si Si3 0.839573 0.499590 0.416808
Si Si4 0.444875 0.046753 0.745291
Si Si5 0.915490 0.866121 0.446269
O O1 0.112396 0.728097 0.155687
O O2 0.014406 0.582752 0.265633
O O3 0.002011 0.699575 0.039335
O O4 0.130101 0.851152 0.986328
O O5 0.112943 0.505747 0.019321
O O6 0.750000 0.500000 0.409236
O O7 0.879997 0.470577 0.320211
O O8 0.865628 0.693479 0.445653
O O9 0.468937 0.250000 0.750000
O O10 0.416379 0.975991 0.648081
#
# Coordination Sequence:
#
# PCOD9410951 Si02
#       5
#     4   8   8   8   8
#     4  10  22  38  66  88 118 146 210 264 292 340
#     4  10  21  39  63  88 113 159 210 254 294 343
#     4  12  24  37  59  90 129 163 195 241 309 377
#     4  11  20  36  57  94 120 154 194 238 303 360
#     4  10  21  39  62  88 121 158 201 248 293 357
#
# _framework density 18.124478
#
# number of rings (size 3 to 8) (size 9 to 14) (size 15 to 20)
#    0.000    1.333    6.667    0.667    0.000    2.667 
#    0.000    0.000    4.889    0.000    0.000    0.000 
#    0.000    0.000    0.000    0.000    0.000    0.000 
#
# Total GULP energy -200884.856381 kJ/mol
# GULP energy per Si atom -5580.134899 kJ/mol
# Density = 1.808323 g / cm^3
# Si number density = 18.124478 Si / 1000 Ang^3
#
#
#
# Elastic Constant Matrix: (Units=GPa)
#
#
# Indices 1 2 3 4 5 6 
#
# 1 50.0258 34.4552 23.6815 0.0000 0.0000 0.0000
# 2 34.4552 127.2445 10.2985 0.0000 0.0000 0.0000
# 3 23.6815 10.2985 88.3778 0.0000 0.0000 0.0000
# 4 0.0000 0.0000 0.0000 24.6606 0.0000 0.0000
# 5 0.0000 0.0000 0.0000 0.0000 -8.8411 0.0000
# 6 0.0000 0.0000 0.0000 0.0000 0.0000 5.3989
#
#
#
# Elastic Compliance Matrix: (Units=1/GPa)
#
#
# Indices 1 2 3 4 5 6 
#
# 1 0.028003 -0.007042 -0.006683 0.000000 0.000000 0.000000
# 2 -0.007042 0.009704 0.000756 0.000000 0.000000 0.000000
# 3 -0.006683 0.000756 0.013018 0.000000 0.000000 0.000000
# 4 0.000000 0.000000 0.000000 0.040551 0.000000 0.000000
# 5 0.000000 0.000000 0.000000 0.000000 -0.113108 0.000000
# 6 0.000000 0.000000 0.000000 0.000000 0.000000 0.185222
#
#
# Mechanical properties :
#
#
# Convention : Reuss Voigt Hill
#
# Bulk Modulus (GPa) = 40.34244 44.72428 42.53336
# Shear Modulus (GPa) = 25.30483 17.39121 21.34802
#
# Velocity S-wave (km/s) = 3.74059 3.10101 3.43571
# Velocity P-wave (km/s) = 6.40022 6.12792 6.26555
#
# Compressibility (1/GPa) = 0.02478779
#
# Stress axis : x y z
#
# Youngs Moduli (GPa) = 35.70989 103.04520 76.81807
#
# Poissons Ratio (x) = 0.72563 0.51339
# Poissons Ratio (y) = 0.25146 -0.05808
# Poissons Ratio (z) = 0.23866 -0.07791
#
# Static dielectric constant tensor:
#      x y z
#    x 1.595690 0.000000 0.000000 
#    y 0.000000 1.624140 0.000000 
#    z 0.000000 0.000000 1.672250 
# 
# From -- ./inp_files/33902.got.cif
#   From: 2010.05.17/outbox.cif.g08.bks.cpg/sg52_17_cif.got.tgz:33902.got - 2010.06.03 12:15:38.
