data_PCOD9410625
_publ_section_title
;
Structure prediction by ZEFSAII (Michael W. Deem and Ramdas Pophale) SiO2 
 PCOD9410625
Probable space group: P N N A
;
_chemical_formula_sum "Si O2"
_cell_formula_units_Z 60
_cell_length_a 5.286058
_cell_length_b 25.789428
_cell_length_c 22.915266
_cell_angle_alpha 90.000000
_cell_angle_beta 90.000000
_cell_angle_gamma 90.000000
_cell_volume 3123.910168
_symmetry_space_group_name_H-M "P N N A"
_symmetry_group_IT_number 52
_symmetry_cell_setting 'orthorhombic'
loop_
_space_group_symop_operation_xyz
x,y,z
1/2-x,-y,z
x,1/2-y,1/2-z
1/2-x,1/2+y,1/2-z
-x,-y,-z
1/2+x,y,-z
-x,1/2+y,1/2+z
1/2+x,1/2-y,1/2+z
loop_
_atom_site_type_symbol
_atom_site_label
_atom_site_fract_x
_atom_site_fract_y
_atom_site_fract_z
Si Si1 0.750000 0.500000 0.759756
Si Si2 0.970806 0.809762 0.536238
Si Si3 0.028021 0.101852 0.259229
Si Si4 0.567623 0.314721 0.535720
Si Si5 0.965931 0.254283 0.681230
Si Si6 0.167958 0.854053 0.361966
Si Si7 0.547502 0.817575 0.160528
Si Si8 0.359043 0.551271 0.849964
O O1 0.868373 0.549612 0.728534
O O2 0.544051 0.524861 0.802785
O O3 0.745645 0.821342 0.489932
O O4 0.948924 0.747779 0.546834
O O5 0.895936 0.840646 0.594377
O O6 0.240140 0.131479 0.296806
O O7 0.923177 0.140997 0.212000
O O8 0.842274 0.081870 0.310120
O O9 0.336869 0.326480 0.492576
O O10 0.528469 0.340824 0.598218
O O11 0.024427 0.250000 0.750000
O O12 0.184110 0.289476 0.653962
O O13 0.978949 0.199615 0.647566
O O14 0.684690 0.278624 0.676201
O O15 0.012010 0.904114 0.383499
O O16 0.250000 0.500000 0.882175
#
# Coordination Sequence:
#
# PCOD9410625 Si02
#       8
#     4   8   8   8   8   8   8   8
#     4   8  18  38  56  86 114 146 194 236 288 354
#     4  10  23  36  54  77 108 154 206 243 276 336
#     4  10  21  36  59  88 116 152 186 241 300 355
#     4  10  21  39  55  75 111 161 204 244 278 334
#     4  12  24  35  51  87 128 158 185 231 300 365
#     4  11  22  35  57  80 115 153 194 238 297 349
#     4  12  24  37  56  87 122 157 197 235 288 361
#     4   9  19  36  59  83 112 145 192 239 296 354
#
# _framework density 19.206696000000001
#
# number of rings (size 3 to 8) (size 9 to 14) (size 15 to 20)
#    0.000    1.600    2.667    2.000    9.333    0.000 
#    0.000    0.000    0.000    0.800    0.000    0.933 
#    0.000    0.000    0.000    0.000    0.000    0.000 
#
# Total GULP energy -334809.020900 kJ/mol
# GULP energy per Si atom -5580.150348 kJ/mol
# Density = 1.916298 g / cm^3
# Si number density = 19.206696 Si / 1000 Ang^3
#
#
#
# Elastic Constant Matrix: (Units=GPa)
#
#
# Indices 1 2 3 4 5 6 
#
# 1 57.0518 17.9797 -8.2612 0.0000 0.0000 0.0000
# 2 17.9797 75.7770 3.0483 0.0000 0.0000 0.0000
# 3 -8.2612 3.0483 53.6430 0.0000 0.0000 0.0000
# 4 0.0000 0.0000 0.0000 4.5132 0.0000 0.0000
# 5 0.0000 0.0000 0.0000 0.0000 20.6515 0.0000
# 6 0.0000 0.0000 0.0000 0.0000 0.0000 22.3982
#
#
#
# Elastic Compliance Matrix: (Units=1/GPa)
#
#
# Indices 1 2 3 4 5 6 
#
# 1 0.019502 -0.004759 0.003274 0.000000 0.000000 0.000000
# 2 -0.004759 0.014388 -0.001551 0.000000 0.000000 0.000000
# 3 0.003274 -0.001551 0.019234 0.000000 0.000000 0.000000
# 4 0.000000 0.000000 0.000000 0.221570 0.000000 0.000000
# 5 0.000000 0.000000 0.000000 0.000000 0.048423 0.000000
# 6 0.000000 0.000000 0.000000 0.000000 0.000000 0.044646
#
#
# Mechanical properties :
#
#
# Convention : Reuss Voigt Hill
#
# Bulk Modulus (GPa) = 21.25281 23.55618 22.40449
# Shear Modulus (GPa) = 12.83637 21.09293 16.96465
#
# Velocity S-wave (km/s) = 2.58801 3.31752 2.97521
# Velocity P-wave (km/s) = 4.47434 5.19285 4.84693
#
# Compressibility (1/GPa) = 0.04705260
#
# Stress axis : x y z
#
# Youngs Moduli (GPa) = 51.27747 69.50172 51.99118
#
# Poissons Ratio (x) = 0.33075 -0.17021
# Poissons Ratio (y) = 0.24402 0.08061
# Poissons Ratio (z) = -0.16787 0.10776
#
# Static dielectric constant tensor:
#      x y z
#    x 1.801920 0.000000 0.000000 
#    y 0.000000 1.773530 0.000000 
#    z 0.000000 0.000000 1.657850 
# 
# From -- ./inp_files/35276.got.cif
#   From: 2010.05.17/outbox.cif.g08.bks.cpg/sg52_18_cif.got.tgz:35276.got - 2010.06.03 12:15:38.
