data_PCOD9410102
_publ_section_title
;
Structure prediction by ZEFSAII (Michael W. Deem and Ramdas Pophale) SiO2 
 PCOD9410102
Probable space group: P N N A
;
_chemical_formula_sum "Si O2"
_cell_formula_units_Z 28
_cell_length_a 27.517254
_cell_length_b 5.563462
_cell_length_c 8.059934
_cell_angle_alpha 90.000000
_cell_angle_beta 90.000000
_cell_angle_gamma 90.000000
_cell_volume 1233.904944
_symmetry_space_group_name_H-M "P N N A"
_symmetry_group_IT_number 52
_symmetry_cell_setting 'orthorhombic'
loop_
_space_group_symop_operation_xyz
x,y,z
1/2-x,-y,z
x,1/2-y,1/2-z
1/2-x,1/2+y,1/2-z
-x,-y,-z
1/2+x,y,-z
-x,1/2+y,1/2+z
1/2+x,1/2-y,1/2+z
loop_
_atom_site_type_symbol
_atom_site_label
_atom_site_fract_x
_atom_site_fract_y
_atom_site_fract_z
Si Si1 0.556340 0.997184 0.451401
Si Si2 0.702583 0.841947 0.065759
Si Si3 0.750000 0.000000 0.661977
Si Si4 0.905280 0.995508 0.064725
O O1 0.572061 0.000418 0.253879
O O2 0.576734 0.743841 0.515477
O O3 0.500000 0.000000 0.500000
O O4 0.577983 0.247666 0.515882
O O5 0.707441 0.750000 0.250000
O O6 0.652780 0.987026 0.061231
O O7 0.750000 0.000000 0.032573
O O8 0.706079 0.609488 0.947300
O O9 0.766578 0.750000 0.750000
#
# Coordination Sequence:
#
# PCOD9410102 Si02
#       4
#     8   8   4   8
#     4  10  20  38  64  91 137 175 225 306 378 409
#     4  12  25  42  81 114 147 200 260 312 367 464
#     4  12  28  48  70 102 164 206 240 306 396 446
#     4  10  23  39  67 103 135 177 247 305 362 444
#
# _framework density 22.692184999999998
#
# number of rings (size 3 to 8) (size 9 to 14) (size 15 to 20)
#    0.000    1.143    5.714    0.857    8.000    0.000 
#    0.000    0.000   25.143    0.000    0.000    0.000 
#    0.000    0.000    0.000    0.000    0.000    0.000 
#
# Total GULP energy -156063.709291 kJ/mol
# GULP energy per Si atom -5573.703903 kJ/mol
# Density = 2.264054 g / cm^3
# Si number density = 22.692185 Si / 1000 Ang^3
#
#
#
# Elastic Constant Matrix: (Units=GPa)
#
#
# Indices 1 2 3 4 5 6 
#
# 1 198.5797 96.2186 41.9748 0.0000 0.0000 0.0000
# 2 96.2186 261.4352 43.8978 0.0000 0.0000 0.0000
# 3 41.9748 43.8978 48.8397 0.0000 0.0000 0.0000
# 4 0.0000 0.0000 0.0000 8.7456 0.0000 0.0000
# 5 0.0000 0.0000 0.0000 0.0000 113.5403 0.0000
# 6 0.0000 0.0000 0.0000 0.0000 0.0000 48.1638
#
#
#
# Elastic Compliance Matrix: (Units=1/GPa)
#
#
# Indices 1 2 3 4 5 6 
#
# 1 0.006798 -0.001791 -0.004233 0.000000 0.000000 0.000000
# 2 -0.001791 0.004977 -0.002934 0.000000 0.000000 0.000000
# 3 -0.004233 -0.002934 0.026750 0.000000 0.000000 0.000000
# 4 0.000000 0.000000 0.000000 0.114344 0.000000 0.000000
# 5 0.000000 0.000000 0.000000 0.000000 0.008807 0.000000
# 6 0.000000 0.000000 0.000000 0.000000 0.000000 0.020762
#
#
# Mechanical properties :
#
#
# Convention : Reuss Voigt Hill
#
# Bulk Modulus (GPa) = 48.52137 97.00413 72.76275
# Shear Modulus (GPa) = 24.12842 55.87416 40.00129
#
# Velocity S-wave (km/s) = 3.26435 4.96750 4.20310
# Velocity P-wave (km/s) = 5.96966 8.70299 7.46254
#
# Compressibility (1/GPa) = 0.02060948
#
# Stress axis : x y z
#
# Youngs Moduli (GPa) = 147.09255 200.92632 37.38336
#
# Poissons Ratio (x) = 0.35993 0.15823
# Poissons Ratio (y) = 0.26350 0.10967
# Poissons Ratio (z) = 0.62261 0.58947
#
# Static dielectric constant tensor:
#      x y z
#    x 1.895060 0.000000 0.000000 
#    y 0.000000 1.832560 0.000000 
#    z 0.000000 0.000000 2.126200 
# 
# From -- ./inp_files/14625.got.cif
#   From: 2010.05.17/outbox.cif.g08.bks.cpg/sg52_8_cif.got.tgz:14625.got - 2010.06.03 12:15:38.
