data_PCOD9410668
_publ_section_title
;
Structure prediction by ZEFSAII (Michael W. Deem and Ramdas Pophale) SiO2 
 PCOD9410668
Probable space group: P N N A
;
_chemical_formula_sum "Si O2"
_cell_formula_units_Z 32
_cell_length_a 20.001183
_cell_length_b 5.073504
_cell_length_c 16.373103
_cell_angle_alpha 90.000000
_cell_angle_beta 90.000000
_cell_angle_gamma 90.000000
_cell_volume 1661.478342
_symmetry_space_group_name_H-M "P N N A"
_symmetry_group_IT_number 52
_symmetry_cell_setting 'orthorhombic'
loop_
_space_group_symop_operation_xyz
x,y,z
1/2-x,-y,z
x,1/2-y,1/2-z
1/2-x,1/2+y,1/2-z
-x,-y,-z
1/2+x,y,-z
-x,1/2+y,1/2+z
1/2+x,1/2-y,1/2+z
loop_
_atom_site_type_symbol
_atom_site_label
_atom_site_fract_x
_atom_site_fract_y
_atom_site_fract_z
Si Si1 0.707647 0.251174 0.651970
Si Si2 0.074545 0.743729 0.559981
Si Si3 0.176058 0.994067 0.690265
Si Si4 0.077787 0.247837 0.451460
O O1 0.750000 0.500000 0.624532
O O2 0.704023 0.250000 0.750000
O O3 0.634397 0.263080 0.615712
O O4 0.750000 0.000000 0.624773
O O5 0.118581 0.892399 0.628433
O O6 0.095549 0.459451 0.523261
O O7 0.996660 0.698965 0.582562
O O8 0.075816 0.952591 0.486228
O O9 0.183844 0.750000 0.750000
O O10 0.250000 0.000000 0.648265
O O11 0.162978 0.250000 0.750000
#
# Coordination Sequence:
#
# PCOD9410668 Si02
#       4
#     8   8   8   8
#     4  10  21  37  56  81 112 145 186 232 278 335
#     4  10  21  37  57  82 113 144 183 230 276 331
#     4  10  21  37  56  81 112 145 185 230 274 327
#     4  10  21  37  56  82 112 144 183 229 277 330
#
# _framework density 19.259955000000001
#
# number of rings (size 3 to 8) (size 9 to 14) (size 15 to 20)
#    0.000    2.000    0.000    3.000    0.000    4.000 
#    0.000    3.750    0.000    0.000    0.000    0.000 
#    0.000    0.000    0.000    0.000    0.000    0.000 
#
# Total GULP energy -178231.887979 kJ/mol
# GULP energy per Si atom -5569.746499 kJ/mol
# Density = 1.921612 g / cm^3
# Si number density = 19.259955 Si / 1000 Ang^3
#
#
#
# Elastic Constant Matrix: (Units=GPa)
#
#
# Indices 1 2 3 4 5 6 
#
# 1 130.0373 34.3325 45.0260 0.0000 0.0000 0.0000
# 2 34.3325 134.0034 9.6354 0.0000 0.0000 0.0000
# 3 45.0260 9.6354 23.1399 0.0000 0.0000 0.0000
# 4 0.0000 0.0000 0.0000 43.1118 0.0000 0.0000
# 5 0.0000 0.0000 0.0000 0.0000 34.9908 0.0000
# 6 0.0000 0.0000 0.0000 0.0000 0.0000 24.2613
#
#
#
# Elastic Compliance Matrix: (Units=1/GPa)
#
#
# Indices 1 2 3 4 5 6 
#
# 1 0.024657 -0.002956 -0.046747 0.000000 0.000000 0.000000
# 2 -0.002956 0.008047 0.002401 0.000000 0.000000 0.000000
# 3 -0.046747 0.002401 0.133177 0.000000 0.000000 0.000000
# 4 0.000000 0.000000 0.000000 0.023195 0.000000 0.000000
# 5 0.000000 0.000000 0.000000 0.000000 0.028579 0.000000
# 6 0.000000 0.000000 0.000000 0.000000 0.000000 0.041218
#
#
# Mechanical properties :
#
#
# Convention : Reuss Voigt Hill
#
# Bulk Modulus (GPa) = 14.02976 51.68537 32.85757
# Shear Modulus (GPa) = 13.25425 33.68523 23.46974
#
# Velocity S-wave (km/s) = 2.62616 4.18661 3.49460
# Velocity P-wave (km/s) = 4.06151 7.08973 5.77755
#
# Compressibility (1/GPa) = 0.07127705
#
# Stress axis : x y z
#
# Youngs Moduli (GPa) = 40.55648 124.26691 7.50878
#
# Poissons Ratio (x) = 0.36733 0.35101
# Poissons Ratio (y) = 0.11988 -0.01803
# Poissons Ratio (z) = 1.89590 -0.29835
#
# Static dielectric constant tensor:
#      x y z
#    x 1.713770 0.000000 0.000000 
#    y 0.000000 1.661910 0.000000 
#    z 0.000000 0.000000 1.632000 
# 
# From -- ./inp_files/27585.got.cif
#   From: 2010.05.17/outbox.cif.g08.bks.cpg/sg52_14_cif.got.tgz:27585.got - 2010.06.03 12:15:38.
