data_PCOD9410454
_publ_section_title
;
Structure prediction by ZEFSAII (Michael W. Deem and Ramdas Pophale) SiO2 
 PCOD9410454
Probable space group: P N N A
;
_chemical_formula_sum "Si O2"
_cell_formula_units_Z 32
_cell_length_a 24.864131
_cell_length_b 6.952288
_cell_length_c 7.228699
_cell_angle_alpha 90.000000
_cell_angle_beta 90.000000
_cell_angle_gamma 90.000000
_cell_volume 1249.571701
_symmetry_space_group_name_H-M "P N N A"
_symmetry_group_IT_number 52
_symmetry_cell_setting 'orthorhombic'
loop_
_space_group_symop_operation_xyz
x,y,z
1/2-x,-y,z
x,1/2-y,1/2-z
1/2-x,1/2+y,1/2-z
-x,-y,-z
1/2+x,y,-z
-x,1/2+y,1/2+z
1/2+x,1/2-y,1/2+z
loop_
_atom_site_type_symbol
_atom_site_label
_atom_site_fract_x
_atom_site_fract_y
_atom_site_fract_z
Si Si1 0.100603 0.969539 0.678962
Si Si2 0.190457 0.919121 0.909760
Si Si3 0.866160 0.981635 0.727988
Si Si4 0.012363 0.025859 0.212982
O O1 0.090412 0.750000 0.750000
O O2 0.140500 0.049588 0.834952
O O3 0.039594 0.049735 0.671119
O O4 0.134425 0.978703 0.491312
O O5 0.192943 0.750000 0.750000
O O6 0.250000 0.000000 0.907833
O O7 0.172677 0.911349 0.126009
O O8 0.858824 0.750000 0.750000
O O9 0.927486 0.047395 0.764415
O O10 0.018351 0.250000 0.250000
O O11 0.000000 0.000000 0.000000
#
# Coordination Sequence:
#
# PCOD9410454 Si02
#       4
#     8   8   8   8
#     4  10  23  45  71 104 148 189 239 297 368 437
#     4  11  27  49  75 105 144 193 249 308 367 433
#     4  11  25  45  75 111 147 191 243 306 378 443
#     4  10  20  42  70 108 146 193 238 301 367 446
#
# _framework density 25.608775000000001
#
# number of rings (size 3 to 8) (size 9 to 14) (size 15 to 20)
#    0.000    1.500    2.500    0.750    3.500    5.000 
#    4.500    5.000    0.000    0.000    0.000    0.000 
#    0.000    0.000    0.000    0.000    0.000    0.000 
#
# Total GULP energy -178432.117097 kJ/mol
# GULP energy per Si atom -5576.003659 kJ/mol
# Density = 2.555049 g / cm^3
# Si number density = 25.608775 Si / 1000 Ang^3
#
#
#
# Elastic Constant Matrix: (Units=GPa)
#
#
# Indices 1 2 3 4 5 6 
#
# 1 199.2435 10.9763 39.6105 0.0000 0.0000 0.0000
# 2 10.9763 143.1585 57.8057 0.0000 0.0000 0.0000
# 3 39.6105 57.8057 197.3826 0.0000 0.0000 0.0000
# 4 0.0000 0.0000 0.0000 44.1550 0.0000 0.0000
# 5 0.0000 0.0000 0.0000 0.0000 195.0647 0.0000
# 6 0.0000 0.0000 0.0000 0.0000 0.0000 -10.8014
#
#
#
# Elastic Compliance Matrix: (Units=1/GPa)
#
#
# Indices 1 2 3 4 5 6 
#
# 1 0.005228 0.000026 -0.001057 0.000000 0.000000 0.000000
# 2 0.000026 0.007922 -0.002325 0.000000 0.000000 0.000000
# 3 -0.001057 -0.002325 0.005959 0.000000 0.000000 0.000000
# 4 0.000000 0.000000 0.000000 0.022647 0.000000 0.000000
# 5 0.000000 0.000000 0.000000 0.000000 0.005127 0.000000
# 6 0.000000 0.000000 0.000000 0.000000 0.000000 -0.092581
#
#
# Mechanical properties :
#
#
# Convention : Reuss Voigt Hill
#
# Bulk Modulus (GPa) = 80.66475 84.06330 82.36402
# Shear Modulus (GPa) = -143.45837 74.44315 -34.50761
#
# Velocity S-wave (km/s) = -7.49272 5.39745 -3.67480
# Velocity P-wave (km/s) = 6.57930 8.46998 3.77183
#
# Compressibility (1/GPa) = 0.01239699
#
# Stress axis : x y z
#
# Youngs Moduli (GPa) = 191.29138 126.22739 167.80390
#
# Poissons Ratio (x) = -0.00326 0.17731
# Poissons Ratio (y) = -0.00494 0.39019
# Poissons Ratio (z) = 0.20213 0.29352
#
# Static dielectric constant tensor:
#      x y z
#    x 2.051250 0.000000 0.000000 
#    y 0.000000 2.205800 0.000000 
#    z 0.000000 0.000000 1.494520 
# 
# From -- ./inp_files/6214.got.cif
#   From: 2010.05.17/outbox.cif.g08.bks.cpg/sg52_4_cif.got.tgz:6214.got - 2010.06.03 12:15:38.
