data_PCOD9410515
_publ_section_title
;
Structure prediction by ZEFSAII (Michael W. Deem and Ramdas Pophale) SiO2 
 PCOD9410515
Probable space group: P N N A
;
_chemical_formula_sum "Si O2"
_cell_formula_units_Z 36
_cell_length_a 25.031153
_cell_length_b 5.066102
_cell_length_c 16.748627
_cell_angle_alpha 90.000000
_cell_angle_beta 90.000000
_cell_angle_gamma 90.000000
_cell_volume 2123.899658
_symmetry_space_group_name_H-M "P N N A"
_symmetry_group_IT_number 52
_symmetry_cell_setting 'orthorhombic'
loop_
_space_group_symop_operation_xyz
x,y,z
1/2-x,-y,z
x,1/2-y,1/2-z
1/2-x,1/2+y,1/2-z
-x,-y,-z
1/2+x,y,-z
-x,1/2+y,1/2+z
1/2+x,1/2-y,1/2+z
loop_
_atom_site_type_symbol
_atom_site_label
_atom_site_fract_x
_atom_site_fract_y
_atom_site_fract_z
Si Si1 0.456939 0.750000 0.750000
Si Si2 0.215085 0.250000 0.250000
Si Si3 0.467293 0.750000 0.250000
Si Si4 0.568434 0.707863 0.970521
Si Si5 0.446343 0.718313 0.574570
Si Si6 0.877913 0.049390 0.826113
O O1 0.494757 0.497065 0.761515
O O2 0.427124 0.725015 0.665821
O O3 0.250000 0.500000 0.221081
O O4 0.175836 0.381431 0.315474
O O5 0.426763 0.659828 0.319463
O O6 0.510141 0.715096 0.927626
O O7 0.612513 0.786538 0.905683
O O8 0.578053 0.433590 0.014926
O O9 0.562942 0.931990 0.037821
O O10 0.881264 0.250000 0.750000
#
# Coordination Sequence:
#
# PCOD9410515 Si02
#       6
#     4   4   4   8   8   8
#     4  12  20  33  46  65  98 144 172 221 261 286
#     4  11  24  39  54  78 100 130 174 216 263 320
#     4  11  20  28  48  69  88 132 184 207 244 302
#     4  10  21  32  45  73  93 131 175 225 250 280
#     4  10  21  31  46  65 103 127 179 225 247 289
#     4  11  22  34  56  71  99 136 172 214 256 319
#
# _framework density 16.949954000000002
#
# number of rings (size 3 to 8) (size 9 to 14) (size 15 to 20)
#    0.000    1.333    4.444    1.333   12.444    0.000 
#    0.000    0.000    0.000    0.000    0.000    0.000 
#    0.000    0.000    0.000    6.000    7.111    0.222 
#
# Total GULP energy -200910.228268 kJ/mol
# GULP energy per Si atom -5580.839674 kJ/mol
# Density = 1.691138 g / cm^3
# Si number density = 16.949954 Si / 1000 Ang^3
#
#
#
# Elastic Constant Matrix: (Units=GPa)
#
#
# Indices 1 2 3 4 5 6 
#
# 1 38.6451 10.8191 11.4468 0.0000 0.0000 0.0000
# 2 10.8191 82.8551 5.0617 0.0000 0.0000 0.0000
# 3 11.4468 5.0617 98.4461 0.0000 0.0000 0.0000
# 4 0.0000 0.0000 0.0000 18.4864 0.0000 0.0000
# 5 0.0000 0.0000 0.0000 0.0000 2.8853 0.0000
# 6 0.0000 0.0000 0.0000 0.0000 0.0000 17.6495
#
#
#
# Elastic Compliance Matrix: (Units=1/GPa)
#
#
# Indices 1 2 3 4 5 6 
#
# 1 0.027742 -0.003436 -0.003049 0.000000 0.000000 0.000000
# 2 -0.003436 0.012533 -0.000245 0.000000 0.000000 0.000000
# 3 -0.003049 -0.000245 0.010525 0.000000 0.000000 0.000000
# 4 0.000000 0.000000 0.000000 0.054094 0.000000 0.000000
# 5 0.000000 0.000000 0.000000 0.000000 0.346590 0.000000
# 6 0.000000 0.000000 0.000000 0.000000 0.000000 0.056659
#
#
# Mechanical properties :
#
#
# Convention : Reuss Voigt Hill
#
# Bulk Modulus (GPa) = 26.78135 30.51129 28.64632
# Shear Modulus (GPa) = 9.36245 20.64548 15.00396
#
# Velocity S-wave (km/s) = 2.35278 3.49381 2.97845
# Velocity P-wave (km/s) = 4.81823 5.85794 5.36334
#
# Compressibility (1/GPa) = 0.03733941
#
# Stress axis : x y z
#
# Youngs Moduli (GPa) = 36.04696 79.78986 95.01229
#
# Poissons Ratio (x) = 0.27417 0.28969
# Poissons Ratio (y) = 0.12386 0.02326
# Poissons Ratio (z) = 0.10991 0.01954
#
# Static dielectric constant tensor:
#      x y z
#    x 1.567910 0.000000 0.000000 
#    y 0.000000 1.616100 0.000000 
#    z 0.000000 0.000000 1.609370 
# 
# From -- ./inp_files/34189.got.cif
#   From: 2010.05.17/outbox.cif.g08.bks.cpg/sg52_18_cif.got.tgz:34189.got - 2010.06.03 12:15:38.
