data_PCOD9410865
_publ_section_title
;
Structure prediction by ZEFSAII (Michael W. Deem and Ramdas Pophale) SiO2 
 PCOD9410865
Probable space group: P N N A
;
_chemical_formula_sum "Si O2"
_cell_formula_units_Z 40
_cell_length_a 9.791007
_cell_length_b 15.607269
_cell_length_c 12.633096
_cell_angle_alpha 90.000000
_cell_angle_beta 90.000000
_cell_angle_gamma 90.000000
_cell_volume 1930.474517
_symmetry_space_group_name_H-M "P N N A"
_symmetry_group_IT_number 52
_symmetry_cell_setting 'orthorhombic'
loop_
_space_group_symop_operation_xyz
x,y,z
1/2-x,-y,z
x,1/2-y,1/2-z
1/2-x,1/2+y,1/2-z
-x,-y,-z
1/2+x,y,-z
-x,1/2+y,1/2+z
1/2+x,1/2-y,1/2+z
loop_
_atom_site_type_symbol
_atom_site_label
_atom_site_fract_x
_atom_site_fract_y
_atom_site_fract_z
Si Si1 0.341577 0.107959 0.040755
Si Si2 0.551371 0.052845 0.871964
Si Si3 0.125293 0.564020 0.999417
Si Si4 0.702649 0.716063 0.869087
Si Si5 0.497863 0.171189 0.678434
O O1 0.181531 0.087656 0.060146
O O2 0.355831 0.208583 0.057742
O O3 0.421765 0.048813 0.126460
O O4 0.411961 0.077728 0.932162
O O5 0.551162 0.098100 0.759259
O O6 0.250000 0.500000 0.990659
O O7 0.108123 0.628608 0.900791
O O8 0.137994 0.625478 0.101054
O O9 0.000000 0.500000 0.000000
O O10 0.683211 0.750000 0.750000
O O11 0.866663 0.704841 0.881970
O O12 0.446013 0.250000 0.750000
#
# Coordination Sequence:
#
# PCOD9410865 Si02
#       5
#     8   8   8   8   8
#     4  10  21  38  64  97 131 171 226 285 338 409
#     4  10  21  39  66  96 134 175 223 286 347 406
#     4  12  27  46  70 102 144 184 234 293 357 427
#     4  11  23  40  70  98 128 183 233 277 342 422
#     4  11  22  44  71  99 137 188 231 290 353 421
#
# _framework density 20.720295
#
# number of rings (size 3 to 8) (size 9 to 14) (size 15 to 20)
#    0.000    1.200    6.000    1.200    2.800    0.000 
#    7.200    1.000    0.000    0.000    0.000    0.000 
#    0.000    0.000    0.000    0.000    0.000    0.000 
#
# Total GULP energy -223318.692837 kJ/mol
# GULP energy per Si atom -5582.967321 kJ/mol
# Density = 2.067313 g / cm^3
# Si number density = 20.720295 Si / 1000 Ang^3
#
#
#
# Elastic Constant Matrix: (Units=GPa)
#
#
# Indices 1 2 3 4 5 6 
#
# 1 80.7242 41.9327 32.5196 0.0000 0.0000 0.0000
# 2 41.9327 166.2595 44.6573 0.0000 0.0000 0.0000
# 3 32.5196 44.6573 51.8646 0.0000 0.0000 0.0000
# 4 0.0000 0.0000 0.0000 50.7092 0.0000 0.0000
# 5 0.0000 0.0000 0.0000 0.0000 16.1455 0.0000
# 6 0.0000 0.0000 0.0000 0.0000 0.0000 18.7882
#
#
#
# Elastic Compliance Matrix: (Units=1/GPa)
#
#
# Indices 1 2 3 4 5 6 
#
# 1 0.017002 -0.001853 -0.009065 0.000000 0.000000 0.000000
# 2 -0.001853 0.008026 -0.005749 0.000000 0.000000 0.000000
# 3 -0.009065 -0.005749 0.029915 0.000000 0.000000 0.000000
# 4 0.000000 0.000000 0.000000 0.019720 0.000000 0.000000
# 5 0.000000 0.000000 0.000000 0.000000 0.061937 0.000000
# 6 0.000000 0.000000 0.000000 0.000000 0.000000 0.053225
#
#
# Mechanical properties :
#
#
# Convention : Reuss Voigt Hill
#
# Bulk Modulus (GPa) = 46.27650 59.67416 52.97533
# Shear Modulus (GPa) = 21.70495 29.11116 25.40805
#
# Velocity S-wave (km/s) = 3.24005 3.75234 3.50557
# Velocity P-wave (km/s) = 6.03156 6.90187 6.48134
#
# Compressibility (1/GPa) = 0.02160924
#
# Stress axis : x y z
#
# Youngs Moduli (GPa) = 58.81536 124.59087 33.42850
#
# Poissons Ratio (x) = 0.23092 0.30302
# Poissons Ratio (y) = 0.10901 0.19217
# Poissons Ratio (z) = 0.53315 0.71625
#
# Static dielectric constant tensor:
#      x y z
#    x 1.714120 0.000000 0.000000 
#    y 0.000000 1.786370 0.000000 
#    z 0.000000 0.000000 1.770250 
# 
# From -- ./inp_files/24433.got.cif
#   From: 2010.05.17/outbox.cif.g08.bks.cpg/sg52_13_cif.got.tgz:24433.got - 2010.06.03 12:15:38.
