data_PCOD9410109
_publ_section_title
;
Structure prediction by ZEFSAII (Michael W. Deem and Ramdas Pophale) SiO2 
 PCOD9410109
Probable space group: P N N A
;
_chemical_formula_sum "Si O2"
_cell_formula_units_Z 48
_cell_length_a 18.944534
_cell_length_b 7.890051
_cell_length_c 14.813570
_cell_angle_alpha 90.000000
_cell_angle_beta 90.000000
_cell_angle_gamma 90.000000
_cell_volume 2214.233777
_symmetry_space_group_name_H-M "P N N A"
_symmetry_group_IT_number 52
_symmetry_cell_setting 'orthorhombic'
loop_
_space_group_symop_operation_xyz
x,y,z
1/2-x,-y,z
x,1/2-y,1/2-z
1/2-x,1/2+y,1/2-z
-x,-y,-z
1/2+x,y,-z
-x,1/2+y,1/2+z
1/2+x,1/2-y,1/2+z
loop_
_atom_site_type_symbol
_atom_site_label
_atom_site_fract_x
_atom_site_fract_y
_atom_site_fract_z
Si Si1 0.197159 0.748739 0.024450
Si Si2 0.643781 0.137983 0.525701
Si Si3 0.327813 0.427738 0.301126
Si Si4 0.417123 0.889185 0.672161
Si Si5 0.449894 0.894316 0.308638
Si Si6 0.800510 0.346144 0.165590
O O1 0.281317 0.730159 0.041694
O O2 0.161645 0.563336 0.037459
O O3 0.165186 0.883333 0.093060
O O4 0.188107 0.778849 0.917979
O O5 0.612604 0.168304 0.425696
O O6 0.585833 0.176876 0.600888
O O7 0.250000 0.500000 0.284867
O O8 0.331740 0.250000 0.250000
O O9 0.386939 0.542516 0.256185
O O10 0.410016 0.750000 0.750000
O O11 0.497329 0.954058 0.666910
O O12 0.370455 0.055382 0.694495
O O13 0.487708 0.750000 0.250000
O O14 0.750000 0.500000 0.133514
O O15 0.768057 0.250000 0.250000
#
# Coordination Sequence:
#
# PCOD9410109 Si02
#       6
#     8   8   8   8   8   8
#     4  10  20  38  64  96 125 165 224 261 340 391
#     4  10  20  41  67  90 128 177 212 271 332 410
#     4  12  23  38  65  99 136 171 216 277 331 405
#     4  11  24  44  67  95 127 177 231 273 331 399
#     4  12  25  43  64  96 135 178 220 271 336 402
#     4  11  22  41  68  92 128 171 220 282 333 394
#
# _framework density 21.677927
#
# number of rings (size 3 to 8) (size 9 to 14) (size 15 to 20)
#    0.000    1.000    5.000    4.500    0.000    0.667 
#    3.000    0.833    0.000    0.000    0.000    0.000 
#    0.000    0.000    0.000    0.000    0.000    0.000 
#
# Total GULP energy -268350.175638 kJ/mol
# GULP energy per Si atom -5590.628659 kJ/mol
# Density = 2.162859 g / cm^3
# Si number density = 21.677927 Si / 1000 Ang^3
#
#
#
# Elastic Constant Matrix: (Units=GPa)
#
#
# Indices 1 2 3 4 5 6 
#
# 1 85.7486 6.5464 30.7854 0.0000 0.0000 0.0000
# 2 6.5464 37.3921 36.2031 0.0000 0.0000 0.0000
# 3 30.7854 36.2031 147.7367 0.0000 0.0000 0.0000
# 4 0.0000 0.0000 0.0000 38.3445 0.0000 0.0000
# 5 0.0000 0.0000 0.0000 0.0000 15.7583 0.0000
# 6 0.0000 0.0000 0.0000 0.0000 0.0000 18.2230
#
#
#
# Elastic Compliance Matrix: (Units=1/GPa)
#
#
# Indices 1 2 3 4 5 6 
#
# 1 0.012611 0.000441 -0.002736 0.000000 0.000000 0.000000
# 2 0.000441 0.035078 -0.008688 0.000000 0.000000 0.000000
# 3 -0.002736 -0.008688 0.009468 0.000000 0.000000 0.000000
# 4 0.000000 0.000000 0.000000 0.026079 0.000000 0.000000
# 5 0.000000 0.000000 0.000000 0.000000 0.063459 0.000000
# 6 0.000000 0.000000 0.000000 0.000000 0.000000 0.054876
#
#
# Mechanical properties :
#
#
# Convention : Reuss Voigt Hill
#
# Bulk Modulus (GPa) = 28.41623 46.43859 37.42741
# Shear Modulus (GPa) = 21.25257 27.62132 24.43694
#
# Velocity S-wave (km/s) = 3.13450 3.57342 3.36113
# Velocity P-wave (km/s) = 5.12220 6.20438 5.68908
#
# Compressibility (1/GPa) = 0.03519115
#
# Stress axis : x y z
#
# Youngs Moduli (GPa) = 79.29864 28.50794 105.62043
#
# Poissons Ratio (x) = -0.01257 0.28896
# Poissons Ratio (y) = -0.03498 0.91761
# Poissons Ratio (z) = 0.21695 0.24767
#
# Static dielectric constant tensor:
#      x y z
#    x 1.818790 0.000000 0.000000 
#    y 0.000000 1.822200 0.000000 
#    z 0.000000 0.000000 1.814580 
# 
# From -- ./inp_files/28063.got.cif
#   From: 2010.05.17/outbox.cif.g08.bks.cpg/sg52_15_cif.got.tgz:28063.got - 2010.06.03 12:15:38.
