data_PCOD9410040
_publ_section_title
;
Structure prediction by ZEFSAII (Michael W. Deem and Ramdas Pophale) SiO2 
 PCOD9410040
Probable space group: P N N A
;
_chemical_formula_sum "Si O2"
_cell_formula_units_Z 40
_cell_length_a 15.516969
_cell_length_b 5.137542
_cell_length_c 24.069384
_cell_angle_alpha 90.000000
_cell_angle_beta 90.000000
_cell_angle_gamma 90.000000
_cell_volume 1918.789147
_symmetry_space_group_name_H-M "P N N A"
_symmetry_group_IT_number 52
_symmetry_cell_setting 'orthorhombic'
loop_
_space_group_symop_operation_xyz
x,y,z
1/2-x,-y,z
x,1/2-y,1/2-z
1/2-x,1/2+y,1/2-z
-x,-y,-z
1/2+x,y,-z
-x,1/2+y,1/2+z
1/2+x,1/2-y,1/2+z
loop_
_atom_site_type_symbol
_atom_site_label
_atom_site_fract_x
_atom_site_fract_y
_atom_site_fract_z
Si Si1 0.541321 0.318696 0.376261
Si Si2 0.084838 0.889511 0.030606
Si Si3 0.004065 0.810705 0.685209
Si Si4 0.802170 0.748369 0.817742
Si Si5 0.842393 0.629199 0.022576
O O1 0.449319 0.337398 0.407852
O O2 0.557133 0.602072 0.350870
O O3 0.612000 0.226306 0.420920
O O4 0.531870 0.101244 0.329365
O O5 0.106535 0.612091 0.004211
O O6 0.153378 0.119258 0.018464
O O7 0.000000 0.000000 0.000000
O O8 0.013008 0.750000 0.750000
O O9 0.903121 0.773052 0.669764
O O10 0.750000 0.500000 0.838616
O O11 0.797980 0.750000 0.750000
O O12 0.750000 0.000000 0.837353
O O13 0.750000 0.500000 0.032742
#
# Coordination Sequence:
#
# PCOD9410040 Si02
#       5
#     8   8   8   8   8
#     4  11  21  38  60  84 117 156 196 241 294 350
#     4  10  20  38  61  86 116 150 188 238 300 362
#     4  11  22  36  57  84 117 161 208 244 280 340
#     4   9  17  31  49  69  99 141 188 236 281 322
#     4  11  22  39  64  91 119 152 193 243 303 368
#
# _framework density 20.846482000000002
#
# number of rings (size 3 to 8) (size 9 to 14) (size 15 to 20)
#    0.000    1.600    0.000    8.400    0.000    3.200 
#    0.000   10.000    0.000    2.400    0.000    0.000 
#    0.000    0.000    0.000    0.000    0.000    0.000 
#
# Total GULP energy -223444.202995 kJ/mol
# GULP energy per Si atom -5586.105075 kJ/mol
# Density = 2.079903 g / cm^3
# Si number density = 20.846482 Si / 1000 Ang^3
#
#
#
# Elastic Constant Matrix: (Units=GPa)
#
#
# Indices 1 2 3 4 5 6 
#
# 1 62.8306 15.9409 10.9901 0.0000 0.0000 0.0000
# 2 15.9409 126.8854 16.2172 0.0000 0.0000 0.0000
# 3 10.9901 16.2172 58.1495 0.0000 0.0000 0.0000
# 4 0.0000 0.0000 0.0000 38.1578 0.0000 0.0000
# 5 0.0000 0.0000 0.0000 0.0000 12.2078 0.0000
# 6 0.0000 0.0000 0.0000 0.0000 0.0000 32.8409
#
#
#
# Elastic Compliance Matrix: (Units=1/GPa)
#
#
# Indices 1 2 3 4 5 6 
#
# 1 0.016835 -0.001772 -0.002688 0.000000 0.000000 0.000000
# 2 -0.001772 0.008359 -0.001996 0.000000 0.000000 0.000000
# 3 -0.002688 -0.001996 0.018262 0.000000 0.000000 0.000000
# 4 0.000000 0.000000 0.000000 0.026207 0.000000 0.000000
# 5 0.000000 0.000000 0.000000 0.000000 0.081915 0.000000
# 6 0.000000 0.000000 0.000000 0.000000 0.000000 0.030450
#
#
# Mechanical properties :
#
#
# Convention : Reuss Voigt Hill
#
# Bulk Modulus (GPa) = 32.73892 37.12909 34.93401
# Shear Modulus (GPa) = 24.37587 30.28912 27.33250
#
# Velocity S-wave (km/s) = 3.42322 3.81591 3.62488
# Velocity P-wave (km/s) = 5.60031 6.10445 5.85780
#
# Compressibility (1/GPa) = 0.03054468
#
# Stress axis : x y z
#
# Youngs Moduli (GPa) = 59.39865 119.63378 54.75910
#
# Poissons Ratio (x) = 0.21194 0.14718
# Poissons Ratio (y) = 0.10523 0.10932
# Poissons Ratio (z) = 0.15965 0.23883
#
# Static dielectric constant tensor:
#      x y z
#    x 1.760440 0.000000 0.000000 
#    y 0.000000 1.779750 0.000000 
#    z 0.000000 0.000000 1.760680 
# 
# From -- ./inp_files/40493.got.cif
#   From: 2010.05.17/outbox.cif.g08.bks.cpg/sg52_21_cif.got.tgz:40493.got - 2010.06.03 12:15:38.
