data_PCOD9410240
_publ_section_title
;
Structure prediction by ZEFSAII (Michael W. Deem and Ramdas Pophale) SiO2 
 PCOD9410240
Probable space group: P N N A
;
_chemical_formula_sum "Si O2"
_cell_formula_units_Z 64
_cell_length_a 16.567113
_cell_length_b 9.005888
_cell_length_c 21.496848
_cell_angle_alpha 90.000000
_cell_angle_beta 90.000000
_cell_angle_gamma 90.000000
_cell_volume 3207.363346
_symmetry_space_group_name_H-M "P N N A"
_symmetry_group_IT_number 52
_symmetry_cell_setting 'orthorhombic'
loop_
_space_group_symop_operation_xyz
x,y,z
1/2-x,-y,z
x,1/2-y,1/2-z
1/2-x,1/2+y,1/2-z
-x,-y,-z
1/2+x,y,-z
-x,1/2+y,1/2+z
1/2+x,1/2-y,1/2+z
loop_
_atom_site_type_symbol
_atom_site_label
_atom_site_fract_x
_atom_site_fract_y
_atom_site_fract_z
Si Si1 0.811773 0.386645 0.418073
Si Si2 0.935149 0.291516 0.314862
Si Si3 0.924384 0.609666 0.492427
Si Si4 0.708741 0.836714 0.522688
Si Si5 0.956109 0.278824 0.913696
Si Si6 0.931382 0.967281 0.678024
Si Si7 0.835025 0.771675 0.887254
Si Si8 0.420575 0.481504 0.316980
O O1 0.750000 0.500000 0.384899
O O2 0.873637 0.310215 0.370968
O O3 0.856775 0.500887 0.464947
O O4 0.774057 0.256718 0.460311
O O5 0.891690 0.250000 0.250000
O O6 0.002197 0.161998 0.316320
O O7 0.991487 0.437928 0.317909
O O8 0.895848 0.687280 0.555818
O O9 0.000000 0.500000 0.500000
O O10 0.960839 0.730959 0.445926
O O11 0.613051 0.826128 0.536669
O O12 0.749900 0.748130 0.579795
O O13 0.750000 0.000000 0.520200
O O14 0.967626 0.415975 0.868841
O O15 0.925040 0.147644 0.867899
O O16 0.856842 0.882550 0.646153
O O17 0.909194 0.043885 0.743399
O O18 0.851951 0.902338 0.838666
#
# Coordination Sequence:
#
# PCOD9410240 Si02
#       8
#     8   8   8   8   8   8   8   8
#     4  12  23  42  68  93 125 168 215 258 324 391
#     4   9  20  42  68  92 125 164 208 262 317 378
#     4  12  21  37  66  96 114 161 213 267 308 374
#     4  12  26  41  57  93 140 168 202 271 326 373
#     4  12  23  38  65  92 131 158 219 264 311 377
#     4  10  22  39  63  94 129 164 205 263 318 371
#     4  11  21  40  59  88 129 169 210 249 326 373
#     4  10  20  39  67  93 120 166 219 259 302 377
#
# _framework density 19.954084000000002
#
# number of rings (size 3 to 8) (size 9 to 14) (size 15 to 20)
#    0.000    1.000    6.250    2.250    0.000    1.500 
#    0.000    4.375    2.750    0.000    0.000    0.000 
#    0.000    0.000    0.000    0.000    0.000    0.000 
#
# Total GULP energy -357022.874174 kJ/mol
# GULP energy per Si atom -5578.482409 kJ/mol
# Density = 1.990867 g / cm^3
# Si number density = 19.954084 Si / 1000 Ang^3
#
#
#
# Elastic Constant Matrix: (Units=GPa)
#
#
# Indices 1 2 3 4 5 6 
#
# 1 32.5453 0.8163 3.0421 0.0000 0.0000 0.0000
# 2 0.8163 48.8552 13.6725 0.0000 0.0000 0.0000
# 3 3.0421 13.6725 75.2719 0.0000 0.0000 0.0000
# 4 0.0000 0.0000 0.0000 28.3666 0.0000 0.0000
# 5 0.0000 0.0000 0.0000 0.0000 24.2782 0.0000
# 6 0.0000 0.0000 0.0000 0.0000 0.0000 13.3749
#
#
#
# Elastic Compliance Matrix: (Units=1/GPa)
#
#
# Indices 1 2 3 4 5 6 
#
# 1 0.030844 -0.000175 -0.001215 0.000000 0.000000 0.000000
# 2 -0.000175 0.021566 -0.003910 0.000000 0.000000 0.000000
# 3 -0.001215 -0.003910 0.014045 0.000000 0.000000 0.000000
# 4 0.000000 0.000000 0.000000 0.035253 0.000000 0.000000
# 5 0.000000 0.000000 0.000000 0.000000 0.041189 0.000000
# 6 0.000000 0.000000 0.000000 0.000000 0.000000 0.074767
#
#
# Mechanical properties :
#
#
# Convention : Reuss Voigt Hill
#
# Bulk Modulus (GPa) = 17.90379 21.30381 19.60380
# Shear Modulus (GPa) = 20.25258 22.48004 21.36631
#
# Velocity S-wave (km/s) = 3.18930 3.36011 3.27582
# Velocity P-wave (km/s) = 4.74912 5.07478 4.91465
#
# Compressibility (1/GPa) = 0.05585410
#
# Stress axis : x y z
#
# Youngs Moduli (GPa) = 32.42089 46.36959 71.20220
#
# Poissons Ratio (x) = 0.00813 0.08649
# Poissons Ratio (y) = 0.00569 0.27841
# Poissons Ratio (z) = 0.03938 0.18131
#
# Static dielectric constant tensor:
#      x y z
#    x 1.779160 0.000000 0.000000 
#    y 0.000000 1.772050 0.000000 
#    z 0.000000 0.000000 1.737760 
# 
# From -- ./inp_files/37698.got.cif
#   From: 2010.05.17/outbox.cif.g08.bks.cpg/sg52_19_cif.got.tgz:37698.got - 2010.06.03 12:15:38.
