data_PCOD9410569
_publ_section_title
;
Structure prediction by ZEFSAII (Michael W. Deem and Ramdas Pophale) SiO2 
 PCOD9410569
Probable space group: P N N A
;
_chemical_formula_sum "Si O2"
_cell_formula_units_Z 40
_cell_length_a 25.531748
_cell_length_b 8.513719
_cell_length_c 8.807742
_cell_angle_alpha 90.000000
_cell_angle_beta 90.000000
_cell_angle_gamma 90.000000
_cell_volume 1914.540006
_symmetry_space_group_name_H-M "P N N A"
_symmetry_group_IT_number 52
_symmetry_cell_setting 'orthorhombic'
loop_
_space_group_symop_operation_xyz
x,y,z
1/2-x,-y,z
x,1/2-y,1/2-z
1/2-x,1/2+y,1/2-z
-x,-y,-z
1/2+x,y,-z
-x,1/2+y,1/2+z
1/2+x,1/2-y,1/2+z
loop_
_atom_site_type_symbol
_atom_site_label
_atom_site_fract_x
_atom_site_fract_y
_atom_site_fract_z
Si Si1 0.907726 0.141436 0.400423
Si Si2 0.079332 0.960051 0.049379
Si Si3 0.487984 0.936207 0.760728
Si Si4 0.305616 0.054793 0.099157
Si Si5 0.195597 0.570614 0.047956
O O1 0.897801 0.250000 0.250000
O O2 0.919855 0.270359 0.529317
O O3 0.856072 0.044892 0.447096
O O4 0.957210 0.031266 0.368123
O O5 0.139607 0.009542 0.037131
O O6 0.046685 0.996032 0.201385
O O7 0.046602 0.026609 0.910160
O O8 0.487718 0.750000 0.750000
O O9 0.303508 0.241167 0.069892
O O10 0.308657 0.012146 0.278218
O O11 0.250000 0.000000 0.037184
O O12 0.250000 0.500000 0.985979
#
# Coordination Sequence:
#
# PCOD9410569 Si02
#       5
#     8   8   8   8   8
#     4   9  19  37  55  76 109 145 178 218 270 327
#     4   9  20  38  55  80 112 142 179 222 272 321
#     4  10  21  35  56  81 109 144 184 222 262 322
#     4   9  18  34  58  79 106 139 174 225 271 315
#     4   9  18  33  55  81 106 139 178 218 269 325
#
# _framework density 20.892748000000001
#
# number of rings (size 3 to 8) (size 9 to 14) (size 15 to 20)
#    0.000    2.800    0.000    0.000    5.600    2.400 
#    0.000   10.000   22.000    0.000    0.000    0.000 
#    0.000    0.000    0.000    0.000    0.000    0.000 
#
# Total GULP energy -222912.901283 kJ/mol
# GULP energy per Si atom -5572.822532 kJ/mol
# Density = 2.084519 g / cm^3
# Si number density = 20.892748 Si / 1000 Ang^3
#
#
#
# Elastic Constant Matrix: (Units=GPa)
#
#
# Indices 1 2 3 4 5 6 
#
# 1 190.5606 30.3420 42.0598 0.0000 0.0000 0.0000
# 2 30.3420 19.7781 2.3109 0.0000 0.0000 0.0000
# 3 42.0598 2.3109 25.3712 0.0000 0.0000 0.0000
# 4 0.0000 0.0000 0.0000 20.8123 0.0000 0.0000
# 5 0.0000 0.0000 0.0000 0.0000 34.3384 0.0000
# 6 0.0000 0.0000 0.0000 0.0000 0.0000 29.8649
#
#
#
# Elastic Compliance Matrix: (Units=1/GPa)
#
#
# Indices 1 2 3 4 5 6 
#
# 1 0.011776 -0.015955 -0.018069 0.000000 0.000000 0.000000
# 2 -0.015955 0.072721 0.019826 0.000000 0.000000 0.000000
# 3 -0.018069 0.019826 0.067564 0.000000 0.000000 0.000000
# 4 0.000000 0.000000 0.000000 0.048049 0.000000 0.000000
# 5 0.000000 0.000000 0.000000 0.000000 0.029122 0.000000
# 6 0.000000 0.000000 0.000000 0.000000 0.000000 0.033484
#
#
# Mechanical properties :
#
#
# Convention : Reuss Voigt Hill
#
# Bulk Modulus (GPa) = 8.08639 42.79283 25.43961
# Shear Modulus (GPa) = 15.04514 27.73628 21.39071
#
# Velocity S-wave (km/s) = 2.68640 3.64752 3.20321
# Velocity P-wave (km/s) = 3.67440 6.18593 5.08758
#
# Compressibility (1/GPa) = 0.12366455
#
# Stress axis : x y z
#
# Youngs Moduli (GPa) = 84.91672 13.75116 14.80088
#
# Poissons Ratio (x) = 0.21940 0.26744
# Poissons Ratio (y) = 1.35484 -0.29344
# Poissons Ratio (z) = 1.53437 -0.27263
#
# Static dielectric constant tensor:
#      x y z
#    x 1.809740 0.000000 0.000000 
#    y 0.000000 1.729510 0.000000 
#    z 0.000000 0.000000 1.817770 
# 
# From -- ./inp_files/13970.got.cif
#   From: 2010.05.17/outbox.cif.g08.bks.cpg/sg52_7_cif.got.tgz:13970.got - 2010.06.03 12:15:38.
