data_PCOD9410687
_publ_section_title
;
Structure prediction by ZEFSAII (Michael W. Deem and Ramdas Pophale) SiO2 
 PCOD9410687
Probable space group: P N N A
;
_chemical_formula_sum "Si O2"
_cell_formula_units_Z 32
_cell_length_a 5.415567
_cell_length_b 8.477874
_cell_length_c 29.646589
_cell_angle_alpha 90.000000
_cell_angle_beta 90.000000
_cell_angle_gamma 90.000000
_cell_volume 1361.148859
_symmetry_space_group_name_H-M "P N N A"
_symmetry_group_IT_number 52
_symmetry_cell_setting 'orthorhombic'
loop_
_space_group_symop_operation_xyz
x,y,z
1/2-x,-y,z
x,1/2-y,1/2-z
1/2-x,1/2+y,1/2-z
-x,-y,-z
1/2+x,y,-z
-x,1/2+y,1/2+z
1/2+x,1/2-y,1/2+z
loop_
_atom_site_type_symbol
_atom_site_label
_atom_site_fract_x
_atom_site_fract_y
_atom_site_fract_z
Si Si1 0.497638 0.563731 0.350833
Si Si2 0.504510 0.900348 0.384719
Si Si3 0.498770 0.563430 0.247003
Si Si4 0.185595 0.817134 0.516534
O O1 0.750000 0.500000 0.371785
O O2 0.485253 0.751887 0.351677
O O3 0.497509 0.501494 0.299035
O O4 0.250000 0.500000 0.373339
O O5 0.569238 0.826377 0.433754
O O6 0.750000 0.000000 0.374339
O O7 0.250000 0.000000 0.386428
O O8 0.750000 0.500000 0.226204
O O9 0.498324 0.750000 0.250000
O O10 0.250000 0.500000 0.224696
O O11 0.462758 0.746850 0.513583
O O12 0.250000 0.000000 0.503225
#
# Coordination Sequence:
#
# PCOD9410687 Si02
#       4
#     8   8   8   8
#     4  10  22  39  55  76 112 149 172 206 271 327
#     4  11  21  33  55  83 104 134 184 227 257 305
#     4  10  21  37  58  82 108 141 178 216 262 313
#     4   9  16  28  47  73 103 131 166 219 271 305
#
# _framework density 23.509553
#
# number of rings (size 3 to 8) (size 9 to 14) (size 15 to 20)
#    0.000    2.000    0.000    6.000    0.000    2.000 
#    0.000    0.000    0.000    4.500    0.000    0.000 
#    0.000    0.000    0.000    0.000    0.000    0.000 
#
# Total GULP energy -178635.456770 kJ/mol
# GULP energy per Si atom -5582.358024 kJ/mol
# Density = 2.345604 g / cm^3
# Si number density = 23.509553 Si / 1000 Ang^3
#
#
#
# Elastic Constant Matrix: (Units=GPa)
#
#
# Indices 1 2 3 4 5 6 
#
# 1 287.7159 60.0811 12.9911 0.0000 0.0000 0.0000
# 2 60.0811 70.7979 -17.9959 0.0000 0.0000 0.0000
# 3 12.9911 -17.9959 80.7101 0.0000 0.0000 0.0000
# 4 0.0000 0.0000 0.0000 4.9994 0.0000 0.0000
# 5 0.0000 0.0000 0.0000 0.0000 -25.1767 0.0000
# 6 0.0000 0.0000 0.0000 0.0000 0.0000 33.3672
#
#
#
# Elastic Compliance Matrix: (Units=1/GPa)
#
#
# Indices 1 2 3 4 5 6 
#
# 1 0.004420 -0.004168 -0.001641 0.000000 0.000000 0.000000
# 2 -0.004168 0.018904 0.004886 0.000000 0.000000 0.000000
# 3 -0.001641 0.004886 0.013744 0.000000 0.000000 0.000000
# 4 0.000000 0.000000 0.000000 0.200025 0.000000 0.000000
# 5 0.000000 0.000000 0.000000 0.000000 -0.039719 0.000000
# 6 0.000000 0.000000 0.000000 0.000000 0.000000 0.029970
#
#
# Mechanical properties :
#
#
# Convention : Reuss Voigt Hill
#
# Bulk Modulus (GPa) = 28.39185 61.04182 44.71684
# Shear Modulus (GPa) = 20.75301 28.24782 24.50042
#
# Velocity S-wave (km/s) = 2.97433 3.47009 3.23173
# Velocity P-wave (km/s) = 4.88861 6.48664 5.74347
#
# Compressibility (1/GPa) = 0.03522137
#
# Stress axis : x y z
#
# Youngs Moduli (GPa) = 226.23773 52.89935 72.76142
#
# Poissons Ratio (x) = 0.22049 0.11939
# Poissons Ratio (y) = 0.94299 -0.35550
# Poissons Ratio (z) = 0.37122 -0.25846
#
# Static dielectric constant tensor:
#      x y z
#    x 1.927740 0.000000 0.000000 
#    y 0.000000 1.830350 0.000000 
#    z 0.000000 0.000000 1.963090 
# 
# From -- ./inp_files/43452.got.cif
#   From: 2010.05.17/outbox.cif.g08.bks.cpg/sg52_22_cif.got.tgz:43452.got - 2010.06.03 12:15:38.
