data_PCOD9410943
_publ_section_title
;
Structure prediction by ZEFSAII (Michael W. Deem and Ramdas Pophale) SiO2 
 PCOD9410943
Probable space group: P N N A
;
_chemical_formula_sum "Si O2"
_cell_formula_units_Z 36
_cell_length_a 8.535844
_cell_length_b 9.490800
_cell_length_c 17.721867
_cell_angle_alpha 90.000000
_cell_angle_beta 90.000000
_cell_angle_gamma 90.000000
_cell_volume 1435.683681
_symmetry_space_group_name_H-M "P N N A"
_symmetry_group_IT_number 52
_symmetry_cell_setting 'orthorhombic'
loop_
_space_group_symop_operation_xyz
x,y,z
1/2-x,-y,z
x,1/2-y,1/2-z
1/2-x,1/2+y,1/2-z
-x,-y,-z
1/2+x,y,-z
-x,1/2+y,1/2+z
1/2+x,1/2-y,1/2+z
loop_
_atom_site_type_symbol
_atom_site_label
_atom_site_fract_x
_atom_site_fract_y
_atom_site_fract_z
Si Si1 0.074931 0.010325 0.670396
Si Si2 0.123958 0.750000 0.250000
Si Si3 0.489684 0.265670 0.609316
Si Si4 0.104924 0.933953 0.113159
Si Si5 0.859477 0.716832 0.043449
O O1 0.000799 0.856588 0.671364
O O2 0.250000 0.000000 0.701742
O O3 0.980099 0.129223 0.712112
O O4 0.091553 0.071324 0.584769
O O5 0.187376 0.841472 0.179466
O O6 0.509018 0.425919 0.635405
O O7 0.615366 0.218707 0.545653
O O8 0.315517 0.249813 0.572317
O O9 0.982712 0.834132 0.072100
O O10 0.250000 0.000000 0.066203
#
# Coordination Sequence:
#
# PCOD9410943 Si02
#       5
#     8   4   8   8   8
#     4   9  21  38  61  90 123 161 200 246 301 355
#     4  10  24  42  58  86 122 156 208 258 292 348
#     4  11  21  38  65  93 122 161 198 242 304 364
#     4  11  24  41  61  87 120 161 201 250 302 355
#     4  10  21  39  61  94 127 154 195 247 301 363
#
# _framework density 25.075161999999999
#
# number of rings (size 3 to 8) (size 9 to 14) (size 15 to 20)
#    0.000    1.778    0.000    3.333    0.000    8.000 
#    0.000    7.778    0.000    1.333    0.000    0.000 
#    0.000    0.000    0.000    0.000    0.000    0.000 
#
# Total GULP energy -201193.279069 kJ/mol
# GULP energy per Si atom -5588.702196 kJ/mol
# Density = 2.501809 g / cm^3
# Si number density = 25.075162 Si / 1000 Ang^3
#
#
#
# Elastic Constant Matrix: (Units=GPa)
#
#
# Indices 1 2 3 4 5 6 
#
# 1 64.0960 29.2600 3.9756 0.0000 0.0000 0.0000
# 2 29.2600 176.2196 11.6677 0.0000 0.0000 0.0000
# 3 3.9756 11.6677 58.1650 0.0000 0.0000 0.0000
# 4 0.0000 0.0000 0.0000 20.5501 0.0000 0.0000
# 5 0.0000 0.0000 0.0000 0.0000 19.7208 0.0000
# 6 0.0000 0.0000 0.0000 0.0000 0.0000 40.8699
#
#
#
# Elastic Compliance Matrix: (Units=1/GPa)
#
#
# Indices 1 2 3 4 5 6 
#
# 1 0.016902 -0.002767 -0.000600 0.000000 0.000000 0.000000
# 2 -0.002767 0.006204 -0.001055 0.000000 0.000000 0.000000
# 3 -0.000600 -0.001055 0.017445 0.000000 0.000000 0.000000
# 4 0.000000 0.000000 0.000000 0.048662 0.000000 0.000000
# 5 0.000000 0.000000 0.000000 0.000000 0.050708 0.000000
# 6 0.000000 0.000000 0.000000 0.000000 0.000000 0.024468
#
#
# Mechanical properties :
#
#
# Convention : Reuss Voigt Hill
#
# Bulk Modulus (GPa) = 31.53942 43.14302 37.34122
# Shear Modulus (GPa) = 27.20320 33.13330 30.16825
#
# Velocity S-wave (km/s) = 3.29730 3.63899 3.47235
# Velocity P-wave (km/s) = 5.20591 5.90755 5.56780
#
# Compressibility (1/GPa) = 0.03170635
#
# Stress axis : x y z
#
# Youngs Moduli (GPa) = 59.16514 161.18615 57.32233
#
# Poissons Ratio (x) = 0.44595 0.03441
# Poissons Ratio (y) = 0.16369 0.06050
# Poissons Ratio (z) = 0.03551 0.17012
#
# Static dielectric constant tensor:
#      x y z
#    x 1.994580 0.000000 0.000000 
#    y 0.000000 2.005620 0.000000 
#    z 0.000000 0.000000 2.086390 
# 
# From -- ./inp_files/35536.got.cif
#   From: 2010.05.17/outbox.cif.g08.bks.cpg/sg52_18_cif.got.tgz:35536.got - 2010.06.03 12:15:38.
