data_PCOD9410353
_publ_section_title
;
Structure prediction by ZEFSAII (Michael W. Deem and Ramdas Pophale) SiO2 
 PCOD9410353
Probable space group: P N N A
;
_chemical_formula_sum "Si O2"
_cell_formula_units_Z 48
_cell_length_a 17.431877
_cell_length_b 14.532865
_cell_length_c 8.860605
_cell_angle_alpha 90.000000
_cell_angle_beta 90.000000
_cell_angle_gamma 90.000000
_cell_volume 2244.702388
_symmetry_space_group_name_H-M "P N N A"
_symmetry_group_IT_number 52
_symmetry_cell_setting 'orthorhombic'
loop_
_space_group_symop_operation_xyz
x,y,z
1/2-x,-y,z
x,1/2-y,1/2-z
1/2-x,1/2+y,1/2-z
-x,-y,-z
1/2+x,y,-z
-x,1/2+y,1/2+z
1/2+x,1/2-y,1/2+z
loop_
_atom_site_type_symbol
_atom_site_label
_atom_site_fract_x
_atom_site_fract_y
_atom_site_fract_z
Si Si1 0.334141 0.250000 0.750000
Si Si2 0.518298 0.250000 0.250000
Si Si3 0.170770 0.554547 0.234772
Si Si4 0.583456 0.850441 0.505691
Si Si5 0.054510 0.391415 0.183375
Si Si6 0.395175 0.793119 0.034104
Si Si7 0.763385 0.391339 0.468556
O O1 0.388078 0.223622 0.612111
O O2 0.285744 0.334699 0.680952
O O3 0.465668 0.187065 0.354834
O O4 0.571767 0.303556 0.367208
O O5 0.250000 0.500000 0.231577
O O6 0.160100 0.612773 0.084037
O O7 0.101521 0.482857 0.217144
O O8 0.174234 0.608077 0.394234
O O9 0.524707 0.910027 0.403848
O O10 0.101648 0.314762 0.083831
O O11 0.049053 0.342257 0.345685
O O12 0.312353 0.841432 0.037284
O O13 0.750000 0.500000 0.435202
#
# Coordination Sequence:
#
# PCOD9410353 Si02
#       7
#     4   4   8   8   8   8   8
#     4  12  27  44  66  97 144 182 222 298 334 413
#     4  10  21  42  68  95 128 180 234 276 342 407
#     4  11  23  43  68 102 135 178 227 279 336 415
#     4  11  24  43  66 101 135 179 229 277 346 402
#     4  10  21  41  69  96 137 173 228 279 336 402
#     4  10  20  40  70  95 131 180 225 278 340 402
#     4  11  24  46  67 105 138 179 233 279 352 406
#
# _framework density 21.383680999999999
#
# number of rings (size 3 to 8) (size 9 to 14) (size 15 to 20)
#    0.000    1.333    3.333    4.000    2.333    0.667 
#    9.000    1.667    0.000    0.000    0.000    0.000 
#    0.000    0.000    0.000    0.000    0.000    0.000 
#
# Total GULP energy -267710.593074 kJ/mol
# GULP energy per Si atom -5577.304022 kJ/mol
# Density = 2.133501 g / cm^3
# Si number density = 21.383681 Si / 1000 Ang^3
#
#
#
# Elastic Constant Matrix: (Units=GPa)
#
#
# Indices 1 2 3 4 5 6 
#
# 1 52.6507 14.9618 38.1923 0.0000 0.0000 0.0000
# 2 14.9618 55.6613 40.4461 0.0000 0.0000 0.0000
# 3 38.1923 40.4461 154.8254 0.0000 0.0000 0.0000
# 4 0.0000 0.0000 0.0000 41.7562 0.0000 0.0000
# 5 0.0000 0.0000 0.0000 0.0000 17.5309 0.0000
# 6 0.0000 0.0000 0.0000 0.0000 0.0000 26.1353
#
#
#
# Elastic Compliance Matrix: (Units=1/GPa)
#
#
# Indices 1 2 3 4 5 6 
#
# 1 0.023431 -0.002590 -0.005103 0.000000 0.000000 0.000000
# 2 -0.002590 0.022462 -0.005229 0.000000 0.000000 0.000000
# 3 -0.005103 -0.005229 0.009084 0.000000 0.000000 0.000000
# 4 0.000000 0.000000 0.000000 0.023949 0.000000 0.000000
# 5 0.000000 0.000000 0.000000 0.000000 0.057042 0.000000
# 6 0.000000 0.000000 0.000000 0.000000 0.000000 0.038262
#
#
# Mechanical properties :
#
#
# Convention : Reuss Voigt Hill
#
# Bulk Modulus (GPa) = 34.32662 50.03753 42.18207
# Shear Modulus (GPa) = 23.83401 28.38697 26.11049
#
# Velocity S-wave (km/s) = 3.34217 3.64745 3.49814
# Velocity P-wave (km/s) = 5.56606 6.41788 6.00709
#
# Compressibility (1/GPa) = 0.02913191
#
# Stress axis : x y z
#
# Youngs Moduli (GPa) = 42.67848 44.52055 110.08649
#
# Poissons Ratio (x) = 0.11531 0.56181
# Poissons Ratio (y) = 0.11053 0.57563
# Poissons Ratio (z) = 0.21780 0.23279
#
# Static dielectric constant tensor:
#      x y z
#    x 1.810340 0.000000 0.000000 
#    y 0.000000 1.837000 0.000000 
#    z 0.000000 0.000000 1.813080 
# 
# From -- ./inp_files/12139.got.cif
#   From: 2010.05.17/outbox.cif.g08.bks.cpg/sg52_7_cif.got.tgz:12139.got - 2010.06.03 12:15:38.
