data_PCOD9410035
_publ_section_title
;
Structure prediction by ZEFSAII (Michael W. Deem and Ramdas Pophale) SiO2 
 PCOD9410035
Probable space group: P N N A
;
_chemical_formula_sum "Si O2"
_cell_formula_units_Z 60
_cell_length_a 28.003042
_cell_length_b 17.529415
_cell_length_c 5.757911
_cell_angle_alpha 90.000000
_cell_angle_beta 90.000000
_cell_angle_gamma 90.000000
_cell_volume 2826.425758
_symmetry_space_group_name_H-M "P N N A"
_symmetry_group_IT_number 52
_symmetry_cell_setting 'orthorhombic'
loop_
_space_group_symop_operation_xyz
x,y,z
1/2-x,-y,z
x,1/2-y,1/2-z
1/2-x,1/2+y,1/2-z
-x,-y,-z
1/2+x,y,-z
-x,1/2+y,1/2+z
1/2+x,1/2-y,1/2+z
loop_
_atom_site_type_symbol
_atom_site_label
_atom_site_fract_x
_atom_site_fract_y
_atom_site_fract_z
Si Si1 0.554408 0.291304 0.534899
Si Si2 0.111613 0.913152 0.992283
Si Si3 0.864367 0.750000 0.250000
Si Si4 0.302846 0.204515 0.002613
Si Si5 0.059408 0.982044 0.623139
Si Si6 0.008963 0.900360 0.228642
Si Si7 0.198392 0.171501 0.101782
Si Si8 0.883211 0.572133 0.746207
O O1 0.529239 0.250000 0.750000
O O2 0.596875 0.234109 0.452019
O O3 0.519737 0.325200 0.339869
O O4 0.583237 0.365977 0.619854
O O5 0.059368 0.894641 0.097663
O O6 0.124957 0.993838 0.106319
O O7 0.151333 0.849727 0.010620
O O8 0.101015 0.931084 0.726105
O O9 0.830894 0.686399 0.362226
O O10 0.301632 0.250000 0.750000
O O11 0.305099 0.250000 0.250000
O O12 0.252874 0.158438 0.028926
O O13 0.024644 0.923919 0.488359
O O14 0.086151 0.044546 0.466510
O O15 0.027859 0.028791 0.808915
O O16 0.197228 0.250000 0.250000
O O17 0.168767 0.111505 0.255210
#
# Coordination Sequence:
#
# PCOD9410035 Si02
#       8
#     8   8   4   8   8   8   8   8
#     4  11  24  36  58  96 143 179 229 289 351 432
#     4  11  24  43  70  96 138 185 235 295 354 426
#     4  10  20  38  60  92 130 180 216 278 356 416
#     4  11  27  51  77 101 141 189 244 298 360 434
#     4  10  22  39  68  96 132 185 226 295 353 426
#     4  10  23  39  62  96 137 181 238 282 358 420
#     4  10  22  42  70 100 138 179 225 288 363 428
#     4  10  22  38  67 104 135 172 230 288 363 431
#
# _framework density 21.228224000000001
#
# number of rings (size 3 to 8) (size 9 to 14) (size 15 to 20)
#    0.000    1.600    2.000    2.000   11.200    1.067 
#    1.200    0.000    0.000    0.000    0.000    0.000 
#    0.000    0.000    0.000    0.000    0.000    0.000 
#
# Total GULP energy -334135.018543 kJ/mol
# GULP energy per Si atom -5568.916976 kJ/mol
# Density = 2.117991 g / cm^3
# Si number density = 21.228224 Si / 1000 Ang^3
#
#
#
# Elastic Constant Matrix: (Units=GPa)
#
#
# Indices 1 2 3 4 5 6 
#
# 1 165.2311 72.5569 49.3469 0.0000 0.0000 0.0000
# 2 72.5569 77.8111 41.4061 0.0000 0.0000 0.0000
# 3 49.3469 41.4061 81.7016 0.0000 0.0000 0.0000
# 4 0.0000 0.0000 0.0000 26.6210 0.0000 0.0000
# 5 0.0000 0.0000 0.0000 0.0000 19.9873 0.0000
# 6 0.0000 0.0000 0.0000 0.0000 0.0000 34.3294
#
#
#
# Elastic Compliance Matrix: (Units=1/GPa)
#
#
# Indices 1 2 3 4 5 6 
#
# 1 0.010456 -0.008749 -0.001881 0.000000 0.000000 0.000000
# 2 -0.008749 0.024917 -0.007344 0.000000 0.000000 0.000000
# 3 -0.001881 -0.007344 0.017098 0.000000 0.000000 0.000000
# 4 0.000000 0.000000 0.000000 0.037564 0.000000 0.000000
# 5 0.000000 0.000000 0.000000 0.000000 0.050032 0.000000
# 6 0.000000 0.000000 0.000000 0.000000 0.000000 0.029130
#
#
# Mechanical properties :
#
#
# Convention : Reuss Voigt Hill
#
# Bulk Modulus (GPa) = 60.52126 72.37373 66.44750
# Shear Modulus (GPa) = 23.73578 26.94981 25.34280
#
# Velocity S-wave (km/s) = 3.34746 3.56691 3.45893
# Velocity P-wave (km/s) = 6.59639 7.15059 6.87907
#
# Compressibility (1/GPa) = 0.01652312
#
# Stress axis : x y z
#
# Youngs Moduli (GPa) = 95.64165 40.13246 58.48648
#
# Poissons Ratio (x) = 0.35110 0.11004
# Poissons Ratio (y) = 0.83672 0.42953
# Poissons Ratio (z) = 0.17994 0.29474
#
# Static dielectric constant tensor:
#      x y z
#    x 1.760170 0.000000 0.000000 
#    y 0.000000 1.757190 0.000000 
#    z 0.000000 0.000000 1.914490 
# 
# From -- ./inp_files/5974.got.cif
#   From: 2010.05.17/outbox.cif.g08.bks.cpg/sg52_3_cif.got.tgz:5974.got - 2010.06.03 12:15:38.
