data_PCOD9410880
_publ_section_title
;
Structure prediction by ZEFSAII (Michael W. Deem and Ramdas Pophale) SiO2 
 PCOD9410880
Probable space group: P N N A
;
_chemical_formula_sum "Si O2"
_cell_formula_units_Z 60
_cell_length_a 7.855911
_cell_length_b 11.557559
_cell_length_c 31.076161
_cell_angle_alpha 90.000000
_cell_angle_beta 90.000000
_cell_angle_gamma 90.000000
_cell_volume 2821.564851
_symmetry_space_group_name_H-M "P N N A"
_symmetry_group_IT_number 52
_symmetry_cell_setting 'orthorhombic'
loop_
_space_group_symop_operation_xyz
x,y,z
1/2-x,-y,z
x,1/2-y,1/2-z
1/2-x,1/2+y,1/2-z
-x,-y,-z
1/2+x,y,-z
-x,1/2+y,1/2+z
1/2+x,1/2-y,1/2+z
loop_
_atom_site_type_symbol
_atom_site_label
_atom_site_fract_x
_atom_site_fract_y
_atom_site_fract_z
Si Si1 0.501476 0.583781 0.726142
Si Si2 0.625594 0.829759 0.214316
Si Si3 0.105083 0.246778 0.500381
Si Si4 0.858580 0.383252 0.549955
Si Si5 0.972461 0.680330 0.855239
Si Si6 0.180448 0.630303 0.357563
Si Si7 0.852931 0.118296 0.444788
Si Si8 0.750000 0.000000 0.701030
O O1 0.471545 0.451049 0.710327
O O2 0.312726 0.635539 0.731475
O O3 0.585154 0.652664 0.686859
O O4 0.624991 0.573609 0.767215
O O5 0.536901 0.750000 0.250000
O O6 0.615546 0.749335 0.172450
O O7 0.227261 0.280920 0.461456
O O8 0.211479 0.213257 0.542409
O O9 0.998639 0.359904 0.513850
O O10 0.990074 0.142340 0.482663
O O11 0.750000 0.500000 0.547534
O O12 0.926697 0.368872 0.598308
O O13 0.831010 0.778480 0.863307
O O14 0.874565 0.580058 0.828160
O O15 0.056295 0.634640 0.899053
O O16 0.250000 0.500000 0.354566
O O17 0.750000 0.000000 0.446591
#
# Coordination Sequence:
#
# PCOD9410880 Si02
#       8
#     8   8   8   8   8   8   8   4
#     4  11  24  42  70 100 131 188 224 281 351 410
#     4  11  24  44  67  98 140 173 230 288 341 408
#     4  10  22  44  69  98 133 180 221 273 349 401
#     4  10  21  38  66 100 135 171 217 277 331 415
#     4  12  26  45  68 103 138 177 229 295 339 414
#     4  11  22  41  67  98 136 177 232 271 344 413
#     4  11  25  46  70  98 136 178 232 283 342 408
#     4  12  26  46  72  98 140 184 238 282 354 414
#
# _framework density 21.264794999999999
#
# number of rings (size 3 to 8) (size 9 to 14) (size 15 to 20)
#    0.000    1.067    4.667    0.800    3.733    2.133 
#    1.200    0.000    0.000    0.000    0.000    0.000 
#    0.000    0.000    0.000    0.000    0.000    0.000 
#
# Total GULP energy -334622.434067 kJ/mol
# GULP energy per Si atom -5577.040568 kJ/mol
# Density = 2.121640 g / cm^3
# Si number density = 21.264795 Si / 1000 Ang^3
#
#
#
# Elastic Constant Matrix: (Units=GPa)
#
#
# Indices 1 2 3 4 5 6 
#
# 1 79.7271 32.6053 50.0271 0.0000 0.0000 0.0000
# 2 32.6053 88.1254 37.8921 0.0000 0.0000 0.0000
# 3 50.0271 37.8921 131.6623 0.0000 0.0000 0.0000
# 4 0.0000 0.0000 0.0000 24.7766 0.0000 0.0000
# 5 0.0000 0.0000 0.0000 0.0000 5.0687 0.0000
# 6 0.0000 0.0000 0.0000 0.0000 0.0000 26.4145
#
#
#
# Elastic Compliance Matrix: (Units=1/GPa)
#
#
# Indices 1 2 3 4 5 6 
#
# 1 0.017723 -0.004179 -0.005531 0.000000 0.000000 0.000000
# 2 -0.004179 0.013935 -0.002423 0.000000 0.000000 0.000000
# 3 -0.005531 -0.002423 0.010394 0.000000 0.000000 0.000000
# 4 0.000000 0.000000 0.000000 0.040361 0.000000 0.000000
# 5 0.000000 0.000000 0.000000 0.000000 0.197290 0.000000
# 6 0.000000 0.000000 0.000000 0.000000 0.000000 0.037858
#
#
# Mechanical properties :
#
#
# Convention : Reuss Voigt Hill
#
# Bulk Modulus (GPa) = 56.22302 60.06265 58.14283
# Shear Modulus (GPa) = 14.37792 23.18464 18.78128
#
# Velocity S-wave (km/s) = 2.60309 3.30553 2.97511
# Velocity P-wave (km/s) = 5.96084 6.54791 6.26126
#
# Compressibility (1/GPa) = 0.01778631
#
# Stress axis : x y z
#
# Youngs Moduli (GPa) = 56.42537 71.76024 96.20793
#
# Poissons Ratio (x) = 0.29987 0.53215
# Poissons Ratio (y) = 0.23579 0.23309
# Poissons Ratio (z) = 0.31211 0.17386
#
# Static dielectric constant tensor:
#      x y z
#    x 1.806360 0.000000 0.000000 
#    y 0.000000 1.762540 0.000000 
#    z 0.000000 0.000000 1.795930 
# 
# From -- ./inp_files/42355.got.cif
#   From: 2010.05.17/outbox.cif.g08.bks.cpg/sg52_22_cif.got.tgz:42355.got - 2010.06.03 12:15:38.
