data_PCOD9410608
_publ_section_title
;
Structure prediction by ZEFSAII (Michael W. Deem and Ramdas Pophale) SiO2 
 PCOD9410608
Probable space group: P N N A
;
_chemical_formula_sum "Si O2"
_cell_formula_units_Z 32
_cell_length_a 13.740822
_cell_length_b 5.036715
_cell_length_c 26.676949
_cell_angle_alpha 90.000000
_cell_angle_beta 90.000000
_cell_angle_gamma 90.000000
_cell_volume 1846.274407
_symmetry_space_group_name_H-M "P N N A"
_symmetry_group_IT_number 52
_symmetry_cell_setting 'orthorhombic'
loop_
_space_group_symop_operation_xyz
x,y,z
1/2-x,-y,z
x,1/2-y,1/2-z
1/2-x,1/2+y,1/2-z
-x,-y,-z
1/2+x,y,-z
-x,1/2+y,1/2+z
1/2+x,1/2-y,1/2+z
loop_
_atom_site_type_symbol
_atom_site_label
_atom_site_fract_x
_atom_site_fract_y
_atom_site_fract_z
Si Si1 0.441465 0.452296 0.397412
Si Si2 0.461857 0.031150 0.557593
Si Si3 0.179406 0.746331 0.308601
Si Si4 0.750000 0.000000 0.961898
Si Si5 0.250000 0.000000 0.529329
O O1 0.478431 0.750029 0.409985
O O2 0.411656 0.332674 0.343361
O O3 0.341663 0.417921 0.428611
O O4 0.521595 0.256633 0.419245
O O5 0.500000 0.000000 0.500000
O O6 0.347151 0.091544 0.557564
O O7 0.250000 0.500000 0.315543
O O8 0.151415 0.750000 0.250000
O O9 0.250000 0.000000 0.320449
O O10 0.720309 0.250856 0.995090
#
# Coordination Sequence:
#
# PCOD9410608 Si02
#       5
#     8   8   8   4   4
#     4  12  22  35  56  81 110 152 185 218 277 341
#     4  12  23  37  52  80 109 151 193 225 271 327
#     4  10  21  36  56  84 115 144 180 229 285 344
#     4  12  20  32  56  77 110 149 184 218 270 326
#     4  12  24  36  52  75 114 149 188 240 258 314
#
# _framework density 17.332201999999999
#
# number of rings (size 3 to 8) (size 9 to 14) (size 15 to 20)
#    0.000    0.500    6.250    3.750    1.750    0.000 
#    0.000    0.000    0.000    0.000    0.000    3.500 
#    0.000    0.000    0.000    0.000    0.000    0.000 
#
# Total GULP energy -178392.781164 kJ/mol
# GULP energy per Si atom -5574.774411 kJ/mol
# Density = 1.729275 g / cm^3
# Si number density = 17.332202 Si / 1000 Ang^3
#
#
#
# Elastic Constant Matrix: (Units=GPa)
#
#
# Indices 1 2 3 4 5 6 
#
# 1 81.5105 -7.4272 21.0258 0.0000 0.0000 0.0000
# 2 -7.4272 99.1504 15.7591 0.0000 0.0000 0.0000
# 3 21.0258 15.7591 60.2035 0.0000 0.0000 0.0000
# 4 0.0000 0.0000 0.0000 35.4464 0.0000 0.0000
# 5 0.0000 0.0000 0.0000 0.0000 24.0908 0.0000
# 6 0.0000 0.0000 0.0000 0.0000 0.0000 26.4503
#
#
#
# Elastic Compliance Matrix: (Units=1/GPa)
#
#
# Indices 1 2 3 4 5 6 
#
# 1 0.013811 0.001879 -0.005315 0.000000 0.000000 0.000000
# 2 0.001879 0.010779 -0.003478 0.000000 0.000000 0.000000
# 3 -0.005315 -0.003478 0.019377 0.000000 0.000000 0.000000
# 4 0.000000 0.000000 0.000000 0.028212 0.000000 0.000000
# 5 0.000000 0.000000 0.000000 0.000000 0.041510 0.000000
# 6 0.000000 0.000000 0.000000 0.000000 0.000000 0.037807
#
#
# Mechanical properties :
#
#
# Convention : Reuss Voigt Hill
#
# Bulk Modulus (GPa) = 33.17935 33.28665 33.23300
# Shear Modulus (GPa) = 28.51126 31.29794 29.90460
#
# Velocity S-wave (km/s) = 4.06025 4.25404 4.15827
# Velocity P-wave (km/s) = 6.41604 6.58604 6.50160
#
# Compressibility (1/GPa) = 0.03013923
#
# Stress axis : x y z
#
# Youngs Moduli (GPa) = 72.40765 92.77072 51.60736
#
# Poissons Ratio (x) = -0.17435 0.27431
# Poissons Ratio (y) = -0.13608 0.17949
# Poissons Ratio (z) = 0.38487 0.32266
#
# Static dielectric constant tensor:
#      x y z
#    x 1.558200 0.000000 0.000000 
#    y 0.000000 1.590820 0.000000 
#    z 0.000000 0.000000 1.899140 
# 
# From -- ./inp_files/39867.got.cif
#   From: 2010.05.17/outbox.cif.g08.bks.cpg/sg52_20_cif.got.tgz:39867.got - 2010.06.03 12:15:38.
