data_PCOD9410893
_publ_section_title
;
Structure prediction by ZEFSAII (Michael W. Deem and Ramdas Pophale) SiO2 
 PCOD9410893
Probable space group: P N N A
;
_chemical_formula_sum "Si O2"
_cell_formula_units_Z 56
_cell_length_a 5.535405
_cell_length_b 15.730580
_cell_length_c 30.884167
_cell_angle_alpha 90.000000
_cell_angle_beta 90.000000
_cell_angle_gamma 90.000000
_cell_volume 2689.242893
_symmetry_space_group_name_H-M "P N N A"
_symmetry_group_IT_number 52
_symmetry_cell_setting 'orthorhombic'
loop_
_space_group_symop_operation_xyz
x,y,z
1/2-x,-y,z
x,1/2-y,1/2-z
1/2-x,1/2+y,1/2-z
-x,-y,-z
1/2+x,y,-z
-x,1/2+y,1/2+z
1/2+x,1/2-y,1/2+z
loop_
_atom_site_type_symbol
_atom_site_label
_atom_site_fract_x
_atom_site_fract_y
_atom_site_fract_z
Si Si1 0.268740 0.594593 0.714815
Si Si2 0.248841 0.900068 0.527353
Si Si3 0.536878 0.250000 0.750000
Si Si4 0.464643 0.386352 0.621866
Si Si5 0.250000 0.000000 0.060640
Si Si6 0.640464 0.788873 0.824772
Si Si7 0.625860 0.261991 0.095790
Si Si8 0.646653 0.819896 0.975986
O O1 0.250000 0.500000 0.733633
O O2 0.169153 0.587959 0.665687
O O3 0.524889 0.639300 0.706373
O O4 0.118978 0.666369 0.739924
O O5 0.497692 0.885349 0.499353
O O6 0.262804 0.841685 0.570383
O O7 0.250000 0.000000 0.538716
O O8 0.695350 0.265437 0.792868
O O9 0.541747 0.463051 0.591555
O O10 0.700574 0.340309 0.640868
O O11 0.306196 0.318576 0.595596
O O12 0.152331 0.920311 0.034090
O O13 0.452531 0.734528 0.853646
O O14 0.396127 0.234698 0.066997
O O15 0.404922 0.801247 0.003186
#
# Coordination Sequence:
#
# PCOD9410893 Si02
#       8
#     8   8   4   8   4   8   8   8
#     4  10  21  38  66  96 131 172 219 274 333 404
#     4  10  23  43  70 101 133 173 233 295 348 409
#     4  10  22  40  66  96 138 162 216 278 338 418
#     4  10  22  36  59  94 126 174 224 264 317 394
#     4  12  22  40  58  86 136 180 228 270 318 384
#     4  10  21  41  64  96 127 169 212 271 330 409
#     4  11  23  39  65  92 130 173 224 274 339 404
#     4  12  26  40  55  85 134 184 224 273 324 383
#
# _framework density 20.823705
#
# number of rings (size 3 to 8) (size 9 to 14) (size 15 to 20)
#    0.000    1.429    1.429    3.429    4.000    2.857 
#    0.000    0.000    0.000   20.571    0.000    0.000 
#    0.000    0.000    0.000    0.000    0.000    0.000 
#
# Total GULP energy -312748.072842 kJ/mol
# GULP energy per Si atom -5584.787015 kJ/mol
# Density = 2.077631 g / cm^3
# Si number density = 20.823705 Si / 1000 Ang^3
#
#
#
# Elastic Constant Matrix: (Units=GPa)
#
#
# Indices 1 2 3 4 5 6 
#
# 1 63.1408 24.8130 11.2148 0.0000 0.0000 0.0000
# 2 24.8130 151.2303 47.0776 0.0000 0.0000 0.0000
# 3 11.2148 47.0776 49.6902 0.0000 0.0000 0.0000
# 4 0.0000 0.0000 0.0000 33.3367 0.0000 0.0000
# 5 0.0000 0.0000 0.0000 0.0000 45.9486 0.0000
# 6 0.0000 0.0000 0.0000 0.0000 0.0000 11.9984
#
#
#
# Elastic Compliance Matrix: (Units=1/GPa)
#
#
# Indices 1 2 3 4 5 6 
#
# 1 0.017029 -0.002266 -0.001697 0.000000 0.000000 0.000000
# 2 -0.002266 0.009680 -0.008660 0.000000 0.000000 0.000000
# 3 -0.001697 -0.008660 0.028712 0.000000 0.000000 0.000000
# 4 0.000000 0.000000 0.000000 0.029997 0.000000 0.000000
# 5 0.000000 0.000000 0.000000 0.000000 0.021763 0.000000
# 6 0.000000 0.000000 0.000000 0.000000 0.000000 0.083345
#
#
# Mechanical properties :
#
#
# Convention : Reuss Voigt Hill
#
# Bulk Modulus (GPa) = 33.13788 47.80800 40.47294
# Shear Modulus (GPa) = 22.14059 30.32045 26.23052
#
# Velocity S-wave (km/s) = 3.26427 3.81997 3.55300
# Velocity P-wave (km/s) = 5.49139 6.51648 6.02577
#
# Compressibility (1/GPa) = 0.03017694
#
# Stress axis : x y z
#
# Youngs Moduli (GPa) = 58.72182 103.30685 34.82882
#
# Poissons Ratio (x) = 0.23409 0.05909
# Poissons Ratio (y) = 0.13306 0.30160
# Poissons Ratio (z) = 0.09963 0.89459
#
# Static dielectric constant tensor:
#      x y z
#    x 1.821200 0.000000 0.000000 
#    y 0.000000 1.739810 0.000000 
#    z 0.000000 0.000000 1.764290 
# 
# From -- ./inp_files/43822.got.cif
#   From: 2010.05.17/outbox.cif.g08.bks.cpg/sg52_22_cif.got.tgz:43822.got - 2010.06.03 12:15:38.
