data_PCOD9410245
_publ_section_title
;
Structure prediction by ZEFSAII (Michael W. Deem and Ramdas Pophale) SiO2 
 PCOD9410245
Probable space group: P N N A
;
_chemical_formula_sum "Si O2"
_cell_formula_units_Z 48
_cell_length_a 15.555856
_cell_length_b 5.434324
_cell_length_c 26.936776
_cell_angle_alpha 90.000000
_cell_angle_beta 90.000000
_cell_angle_gamma 90.000000
_cell_volume 2277.115487
_symmetry_space_group_name_H-M "P N N A"
_symmetry_group_IT_number 52
_symmetry_cell_setting 'orthorhombic'
loop_
_space_group_symop_operation_xyz
x,y,z
1/2-x,-y,z
x,1/2-y,1/2-z
1/2-x,1/2+y,1/2-z
-x,-y,-z
1/2+x,y,-z
-x,1/2+y,1/2+z
1/2+x,1/2-y,1/2+z
loop_
_atom_site_type_symbol
_atom_site_label
_atom_site_fract_x
_atom_site_fract_y
_atom_site_fract_z
Si Si1 0.916460 0.519927 0.931326
Si Si2 0.891024 0.904064 0.453584
Si Si3 0.431161 0.750000 0.250000
Si Si4 0.660102 0.922965 0.097553
Si Si5 0.483566 0.596252 0.353236
Si Si6 0.185125 0.797481 0.141057
Si Si7 0.322135 0.250000 0.250000
O O1 0.839635 0.407532 0.898682
O O2 0.008381 0.378416 0.937072
O O3 0.946587 0.757735 0.900730
O O4 0.887733 0.553786 0.987678
O O5 0.848514 0.640840 0.443010
O O6 0.851472 0.145874 0.425231
O O7 0.481885 0.745491 0.301837
O O8 0.376000 0.501130 0.248311
O O9 0.580583 0.967367 0.134255
O O10 0.750000 0.000000 0.122150
O O11 0.412022 0.387618 0.346985
O O12 0.223543 0.747177 0.195971
O O13 0.250000 0.000000 0.119309
#
# Coordination Sequence:
#
# PCOD9410245 Si02
#       7
#     8   8   4   8   8   8   4
#     4  10  21  40  61  91 125 168 206 261 316 369
#     4  10  23  39  67  89 129 161 214 256 316 376
#     4  10  20  39  68  89 120 168 206 261 316 385
#     4  11  23  42  65  94 123 169 209 263 317 381
#     4  10  22  40  64  88 130 159 217 255 321 375
#     4  11  23  39  62  90 127 171 212 266 314 382
#     4  10  22  41  58  89 124 164 220 251 312 381
#
# _framework density 21.0793
#
# number of rings (size 3 to 8) (size 9 to 14) (size 15 to 20)
#    0.000    1.667    3.333    0.500    2.333    6.000 
#    3.000    0.000    0.000    8.000    0.000    0.000 
#    0.000    0.000    0.000    0.000    0.000    0.000 
#
# Total GULP energy -267512.578037 kJ/mol
# GULP energy per Si atom -5573.178709 kJ/mol
# Density = 2.103132 g / cm^3
# Si number density = 21.079300 Si / 1000 Ang^3
#
#
#
# Elastic Constant Matrix: (Units=GPa)
#
#
# Indices 1 2 3 4 5 6 
#
# 1 126.5655 42.1624 29.1095 0.0000 0.0000 0.0000
# 2 42.1624 93.4571 14.2929 0.0000 0.0000 0.0000
# 3 29.1095 14.2929 72.1842 0.0000 0.0000 0.0000
# 4 0.0000 0.0000 0.0000 20.1999 0.0000 0.0000
# 5 0.0000 0.0000 0.0000 0.0000 65.3728 0.0000
# 6 0.0000 0.0000 0.0000 0.0000 0.0000 32.0084
#
#
#
# Elastic Compliance Matrix: (Units=1/GPa)
#
#
# Indices 1 2 3 4 5 6 
#
# 1 0.009979 -0.004008 -0.003231 0.000000 0.000000 0.000000
# 2 -0.004008 0.012644 -0.000887 0.000000 0.000000 0.000000
# 3 -0.003231 -0.000887 0.015332 0.000000 0.000000 0.000000
# 4 0.000000 0.000000 0.000000 0.049505 0.000000 0.000000
# 5 0.000000 0.000000 0.000000 0.000000 0.015297 0.000000
# 6 0.000000 0.000000 0.000000 0.000000 0.000000 0.031242
#
#
# Mechanical properties :
#
#
# Convention : Reuss Voigt Hill
#
# Bulk Modulus (GPa) = 46.07606 51.48182 48.77894
# Shear Modulus (GPa) = 31.74896 37.29234 34.52065
#
# Velocity S-wave (km/s) = 3.88515 4.21068 4.05119
# Velocity P-wave (km/s) = 6.48319 6.93655 6.71370
#
# Compressibility (1/GPa) = 0.02170324
#
# Stress axis : x y z
#
# Youngs Moduli (GPa) = 100.20787 79.08917 65.22323
#
# Poissons Ratio (x) = 0.31699 0.21072
# Poissons Ratio (y) = 0.40163 0.05787
# Poissons Ratio (z) = 0.32374 0.07018
#
# Static dielectric constant tensor:
#      x y z
#    x 1.860100 0.000000 0.000000 
#    y 0.000000 1.856720 0.000000 
#    z 0.000000 0.000000 1.775820 
# 
# From -- ./inp_files/43010.got.cif
#   From: 2010.05.17/outbox.cif.g08.bks.cpg/sg52_22_cif.got.tgz:43010.got - 2010.06.03 12:15:38.
