data_PCOD9410535
_publ_section_title
;
Structure prediction by ZEFSAII (Michael W. Deem and Ramdas Pophale) SiO2 
 PCOD9410535
Probable space group: P N N A
;
_chemical_formula_sum "Si O2"
_cell_formula_units_Z 48
_cell_length_a 5.118275
_cell_length_b 23.463207
_cell_length_c 16.413102
_cell_angle_alpha 90.000000
_cell_angle_beta 90.000000
_cell_angle_gamma 90.000000
_cell_volume 1971.068225
_symmetry_space_group_name_H-M "P N N A"
_symmetry_group_IT_number 52
_symmetry_cell_setting 'orthorhombic'
loop_
_space_group_symop_operation_xyz
x,y,z
1/2-x,-y,z
x,1/2-y,1/2-z
1/2-x,1/2+y,1/2-z
-x,-y,-z
1/2+x,y,-z
-x,1/2+y,1/2+z
1/2+x,1/2-y,1/2+z
loop_
_atom_site_type_symbol
_atom_site_label
_atom_site_fract_x
_atom_site_fract_y
_atom_site_fract_z
Si Si1 0.399487 0.944289 0.097807
Si Si2 0.742187 0.903215 0.553269
Si Si3 0.241538 0.409889 0.237879
Si Si4 0.399784 0.613113 0.627181
Si Si5 0.977558 0.298167 0.307728
Si Si6 0.234559 0.765679 0.447241
O O1 0.409038 0.949135 0.197099
O O2 0.697513 0.928504 0.080878
O O3 0.187328 0.892707 0.087289
O O4 0.250000 0.000000 0.068069
O O5 0.483916 0.918748 0.503829
O O6 0.758155 0.926576 0.644736
O O7 0.741930 0.834147 0.564698
O O8 0.526830 0.405352 0.280117
O O9 0.112553 0.347419 0.253481
O O10 0.240097 0.670557 0.638167
O O11 0.857972 0.250000 0.250000
O O12 0.187410 0.267053 0.365339
O O13 0.457737 0.751885 0.513373
#
# Coordination Sequence:
#
# PCOD9410535 Si02
#       6
#     8   8   8   8   8   8
#     4   9  18  35  56  80 111 139 175 246 296 325
#     4  10  21  34  50  71 109 147 187 230 268 321
#     4   9  21  34  54  84 104 142 194 221 284 331
#     4   9  21  32  54  84 107 136 191 221 284 342
#     4  11  21  36  57  81 118 152 185 234 270 324
#     4  10  23  37  51  75 111 156 194 219 271 322
#
# _framework density 24.352277000000001
#
# number of rings (size 3 to 8) (size 9 to 14) (size 15 to 20)
#    1.000    1.333    1.667    0.500    7.000    2.000 
#    0.000    0.000    0.000    1.000    0.000    0.000 
#    0.000   70.667    0.000    0.000    0.000    0.000 
#
# Total GULP energy -267902.167130 kJ/mol
# GULP energy per Si atom -5581.295149 kJ/mol
# Density = 2.429685 g / cm^3
# Si number density = 24.352277 Si / 1000 Ang^3
#
#
#
# Elastic Constant Matrix: (Units=GPa)
#
#
# Indices 1 2 3 4 5 6 
#
# 1 118.0875 1.8406 -9.8718 0.0000 0.0000 0.0000
# 2 1.8406 64.4914 4.7440 0.0000 0.0000 0.0000
# 3 -9.8718 4.7440 132.3262 0.0000 0.0000 0.0000
# 4 0.0000 0.0000 0.0000 29.7013 0.0000 0.0000
# 5 0.0000 0.0000 0.0000 0.0000 -15.1318 0.0000
# 6 0.0000 0.0000 0.0000 0.0000 0.0000 -5.9002
#
#
#
# Elastic Compliance Matrix: (Units=1/GPa)
#
#
# Indices 1 2 3 4 5 6 
#
# 1 0.008527 -0.000291 0.000647 0.000000 0.000000 0.000000
# 2 -0.000291 0.015557 -0.000579 0.000000 0.000000 0.000000
# 3 0.000647 -0.000579 0.007626 0.000000 0.000000 0.000000
# 4 0.000000 0.000000 0.000000 0.033669 0.000000 0.000000
# 5 0.000000 0.000000 0.000000 0.000000 -0.066086 0.000000
# 6 0.000000 0.000000 0.000000 0.000000 0.000000 -0.169487
#
#
# Mechanical properties :
#
#
# Convention : Reuss Voigt Hill
#
# Bulk Modulus (GPa) = 31.98744 34.25895 33.12320
# Shear Modulus (GPa) = -31.38216 22.94669 -4.21773
#
# Velocity S-wave (km/s) = -3.59371 3.07299 -1.31747
# Velocity P-wave (km/s) = 2.01391 5.16620 3.36406
#
# Compressibility (1/GPa) = 0.03126227
#
# Stress axis : x y z
#
# Youngs Moduli (GPa) = 117.27615 64.28024 131.12881
#
# Poissons Ratio (x) = 0.01870 -0.08478
# Poissons Ratio (y) = 0.03412 0.07598
# Poissons Ratio (z) = -0.07583 0.03725
#
# Static dielectric constant tensor:
#      x y z
#    x 1.929140 0.000000 0.000000 
#    y 0.000000 1.990260 0.000000 
#    z 0.000000 0.000000 1.966860 
# 
# From -- ./inp_files/30274.got.cif
#   From: 2010.05.17/outbox.cif.g08.bks.cpg/sg52_16_cif.got.tgz:30274.got - 2010.06.03 12:15:38.
