data_PCOD9410539
_publ_section_title
;
Structure prediction by ZEFSAII (Michael W. Deem and Ramdas Pophale) SiO2 
 PCOD9410539
Probable space group: P N N A
;
_chemical_formula_sum "Si O2"
_cell_formula_units_Z 36
_cell_length_a 27.717382
_cell_length_b 5.701190
_cell_length_c 11.386202
_cell_angle_alpha 90.000000
_cell_angle_beta 90.000000
_cell_angle_gamma 90.000000
_cell_volume 1799.271108
_symmetry_space_group_name_H-M "P N N A"
_symmetry_group_IT_number 52
_symmetry_cell_setting 'orthorhombic'
loop_
_space_group_symop_operation_xyz
x,y,z
1/2-x,-y,z
x,1/2-y,1/2-z
1/2-x,1/2+y,1/2-z
-x,-y,-z
1/2+x,y,-z
-x,1/2+y,1/2+z
1/2+x,1/2-y,1/2+z
loop_
_atom_site_type_symbol
_atom_site_label
_atom_site_fract_x
_atom_site_fract_y
_atom_site_fract_z
Si Si1 0.058446 0.879090 0.076782
Si Si2 0.406735 0.750000 0.250000
Si Si3 0.042971 0.239211 0.613173
Si Si4 0.373382 0.009793 0.471917
Si Si5 0.191977 0.000087 0.689807
O O1 0.014239 0.700430 0.095813
O O2 0.059698 0.059550 0.185052
O O3 0.110912 0.764461 0.072108
O O4 0.050742 0.015698 0.955169
O O5 0.374745 0.852773 0.355632
O O6 0.053211 0.250000 0.750000
O O7 0.080769 0.067561 0.552029
O O8 0.328350 0.999158 0.557539
O O9 0.176557 0.250000 0.750000
O O10 0.250000 0.000000 0.691465
O O11 0.176206 0.750000 0.750000
#
# Coordination Sequence:
#
# PCOD9410539 Si02
#       5
#     8   4   8   8   8
#     4  10  22  37  53  83 122 171 201 265 303 375
#     4  10  22  38  56  82 124 166 218 246 320 364
#     4  10  21  34  54  85 122 156 216 254 316 369
#     4  11  22  36  64  85 120 163 210 259 315 381
#     4  10  24  45  71 100 130 160 203 269 336 386
#
# _framework density 20.008102999999998
#
# number of rings (size 3 to 8) (size 9 to 14) (size 15 to 20)
#    0.000    1.778    0.000    3.333    9.333    3.556 
#    0.000    0.000    4.889    0.000    0.000    0.000 
#    0.000    0.000    0.000    0.000    0.000    0.000 
#
# Total GULP energy -200792.698107 kJ/mol
# GULP energy per Si atom -5577.574947 kJ/mol
# Density = 1.996256 g / cm^3
# Si number density = 20.008103 Si / 1000 Ang^3
#
#
#
# Elastic Constant Matrix: (Units=GPa)
#
#
# Indices 1 2 3 4 5 6 
#
# 1 25.6879 19.5661 21.4193 0.0000 0.0000 0.0000
# 2 19.5661 76.5098 46.8574 0.0000 0.0000 0.0000
# 3 21.4193 46.8574 163.5431 0.0000 0.0000 0.0000
# 4 0.0000 0.0000 0.0000 33.5699 0.0000 0.0000
# 5 0.0000 0.0000 0.0000 0.0000 39.0843 0.0000
# 6 0.0000 0.0000 0.0000 0.0000 0.0000 11.2047
#
#
#
# Elastic Compliance Matrix: (Units=1/GPa)
#
#
# Indices 1 2 3 4 5 6 
#
# 1 0.049941 -0.010631 -0.003495 0.000000 0.000000 0.000000
# 2 -0.010631 0.018115 -0.003798 0.000000 0.000000 0.000000
# 3 -0.003495 -0.003798 0.007660 0.000000 0.000000 0.000000
# 4 0.000000 0.000000 0.000000 0.029789 0.000000 0.000000
# 5 0.000000 0.000000 0.000000 0.000000 0.025586 0.000000
# 6 0.000000 0.000000 0.000000 0.000000 0.000000 0.089248
#
#
# Mechanical properties :
#
#
# Convention : Reuss Voigt Hill
#
# Bulk Modulus (GPa) = 25.08251 49.04737 37.06494
# Shear Modulus (GPa) = 18.55457 28.63163 23.59310
#
# Velocity S-wave (km/s) = 3.04855 3.78696 3.43764
# Velocity P-wave (km/s) = 4.99549 6.60972 5.85847
#
# Compressibility (1/GPa) = 0.03986842
#
# Stress axis : x y z
#
# Youngs Moduli (GPa) = 20.02383 55.20328 130.54100
#
# Poissons Ratio (x) = 0.58687 0.45621
# Poissons Ratio (y) = 0.21288 0.49577
# Poissons Ratio (z) = 0.06998 0.20965
#
# Static dielectric constant tensor:
#      x y z
#    x 1.697930 0.000000 0.000000 
#    y 0.000000 1.834350 0.000000 
#    z 0.000000 0.000000 1.690730 
# 
# From -- ./inp_files/22074.got.cif
#   From: 2010.05.17/outbox.cif.g08.bks.cpg/sg52_12_cif.got.tgz:22074.got - 2010.06.03 12:15:38.
