data_PCOD9410490
_publ_section_title
;
Structure prediction by ZEFSAII (Michael W. Deem and Ramdas Pophale) SiO2 
 PCOD9410490
Probable space group: P N N A
;
_chemical_formula_sum "Si O2"
_cell_formula_units_Z 56
_cell_length_a 16.689079
_cell_length_b 13.363723
_cell_length_c 11.576128
_cell_angle_alpha 90.000000
_cell_angle_beta 90.000000
_cell_angle_gamma 90.000000
_cell_volume 2581.803325
_symmetry_space_group_name_H-M "P N N A"
_symmetry_group_IT_number 52
_symmetry_cell_setting 'orthorhombic'
loop_
_space_group_symop_operation_xyz
x,y,z
1/2-x,-y,z
x,1/2-y,1/2-z
1/2-x,1/2+y,1/2-z
-x,-y,-z
1/2+x,y,-z
-x,1/2+y,1/2+z
1/2+x,1/2-y,1/2+z
loop_
_atom_site_type_symbol
_atom_site_label
_atom_site_fract_x
_atom_site_fract_y
_atom_site_fract_z
Si Si1 0.358023 0.796770 0.905903
Si Si2 0.408405 0.499466 0.204287
Si Si3 0.447069 0.006383 0.883813
Si Si4 0.424722 0.296686 0.056922
Si Si5 0.250000 0.500000 0.363283
Si Si6 0.307420 0.158659 0.951112
Si Si7 0.067895 0.208508 0.380075
Si Si8 0.477786 0.750000 0.750000
O O1 0.410241 0.710864 0.840865
O O2 0.400063 0.901751 0.874128
O O3 0.266246 0.807186 0.872838
O O4 0.374752 0.776047 0.040566
O O5 0.489238 0.516104 0.280199
O O6 0.419636 0.399637 0.127803
O O7 0.329984 0.499966 0.285402
O O8 0.399737 0.596369 0.124711
O O9 0.380679 0.094449 0.896636
O O10 0.500000 0.000000 0.000000
O O11 0.341709 0.256561 0.011988
O O12 0.459194 0.216547 0.151149
O O13 0.483768 0.296157 0.947791
O O14 0.265776 0.409495 0.451466
O O15 0.061379 0.250000 0.250000
#
# Coordination Sequence:
#
# PCOD9410490 Si02
#       8
#     8   8   8   8   4   8   8   4
#     4  11  23  41  68  99 142 174 227 288 347 408
#     4  12  25  43  69  99 139 185 227 288 355 427
#     4  12  20  42  68  96 132 178 233 281 345 414
#     4  11  24  43  72  98 137 184 234 279 350 432
#     4  12  24  38  66 102 138 166 228 292 348 388
#     4  12  23  41  67 106 133 178 235 293 341 412
#     4  11  24  44  68 101 137 183 230 285 347 417
#     4  10  20  44  66  98 132 188 218 280 352 414
#
# _framework density 21.690265
#
# number of rings (size 3 to 8) (size 9 to 14) (size 15 to 20)
#    0.000    0.571    4.286    5.571    2.000    0.000 
#    5.143    0.000    0.000    0.000    0.000    0.000 
#    0.000    0.000    0.000    0.000    0.000    0.000 
#
# Total GULP energy -312255.723284 kJ/mol
# GULP energy per Si atom -5575.995059 kJ/mol
# Density = 2.164090 g / cm^3
# Si number density = 21.690265 Si / 1000 Ang^3
#
#
#
# Elastic Constant Matrix: (Units=GPa)
#
#
# Indices 1 2 3 4 5 6 
#
# 1 146.7532 32.5240 30.8440 0.0000 0.0000 0.0000
# 2 32.5240 87.3173 24.0115 0.0000 0.0000 0.0000
# 3 30.8440 24.0115 88.1084 0.0000 0.0000 0.0000
# 4 0.0000 0.0000 0.0000 14.5498 0.0000 0.0000
# 5 0.0000 0.0000 0.0000 0.0000 31.4754 0.0000
# 6 0.0000 0.0000 0.0000 0.0000 0.0000 35.1242
#
#
#
# Elastic Compliance Matrix: (Units=1/GPa)
#
#
# Indices 1 2 3 4 5 6 
#
# 1 0.007767 -0.002319 -0.002087 0.000000 0.000000 0.000000
# 2 -0.002319 0.013073 -0.002751 0.000000 0.000000 0.000000
# 3 -0.002087 -0.002751 0.012830 0.000000 0.000000 0.000000
# 4 0.000000 0.000000 0.000000 0.068730 0.000000 0.000000
# 5 0.000000 0.000000 0.000000 0.000000 0.031771 0.000000
# 6 0.000000 0.000000 0.000000 0.000000 0.000000 0.028470
#
#
# Mechanical properties :
#
#
# Convention : Reuss Voigt Hill
#
# Bulk Modulus (GPa) = 51.66399 55.21531 53.43965
# Shear Modulus (GPa) = 27.26200 31.88318 29.57259
#
# Velocity S-wave (km/s) = 3.54909 3.83813 3.69644
# Velocity P-wave (km/s) = 6.37695 6.71961 6.55052
#
# Compressibility (1/GPa) = 0.01935584
#
# Stress axis : x y z
#
# Youngs Moduli (GPa) = 128.75412 76.49507 77.94322
#
# Poissons Ratio (x) = 0.17740 0.16266
# Poissons Ratio (y) = 0.29859 0.21440
# Poissons Ratio (z) = 0.26870 0.21042
#
# Static dielectric constant tensor:
#      x y z
#    x 1.856880 0.000000 0.000000 
#    y 0.000000 1.978960 0.000000 
#    z 0.000000 0.000000 1.848850 
# 
# From -- ./inp_files/19703.got.cif
#   From: 2010.05.17/outbox.cif.g08.bks.cpg/sg52_10_cif.got.tgz:19703.got - 2010.06.03 12:15:38.
