data_PCOD9410348
_publ_section_title
;
Structure prediction by ZEFSAII (Michael W. Deem and Ramdas Pophale) SiO2 
 PCOD9410348
Probable space group: P N N A
;
_chemical_formula_sum "Si O2"
_cell_formula_units_Z 40
_cell_length_a 26.539807
_cell_length_b 7.628438
_cell_length_c 7.772825
_cell_angle_alpha 90.000000
_cell_angle_beta 90.000000
_cell_angle_gamma 90.000000
_cell_volume 1573.664947
_symmetry_space_group_name_H-M "P N N A"
_symmetry_group_IT_number 52
_symmetry_cell_setting 'orthorhombic'
loop_
_space_group_symop_operation_xyz
x,y,z
1/2-x,-y,z
x,1/2-y,1/2-z
1/2-x,1/2+y,1/2-z
-x,-y,-z
1/2+x,y,-z
-x,1/2+y,1/2+z
1/2+x,1/2-y,1/2+z
loop_
_atom_site_type_symbol
_atom_site_label
_atom_site_fract_x
_atom_site_fract_y
_atom_site_fract_z
Si Si1 0.918992 0.250000 0.250000
Si Si2 0.399989 0.803285 0.440063
Si Si3 0.837226 0.971795 0.177975
Si Si4 0.250000 0.500000 0.460448
Si Si5 0.006127 0.792930 0.055463
Si Si6 0.795437 0.878376 0.544012
O O1 0.882078 0.086035 0.250235
O O2 0.953065 0.233554 0.417681
O O3 0.416832 0.750000 0.250000
O O4 0.368695 0.665714 0.559605
O O5 0.453518 0.812870 0.534409
O O6 0.351991 0.928649 0.394538
O O7 0.797943 0.080402 0.064157
O O8 0.802837 0.906050 0.337695
O O9 0.221782 0.319244 0.409882
O O10 0.023032 0.750000 0.250000
O O11 0.000000 0.000000 0.000000
O O12 0.750000 0.000000 0.608101
#
# Coordination Sequence:
#
# PCOD9410348 Si02
#       6
#     4   8   8   4   8   8
#     4  12  26  44  80 114 160 206 272 332 406 490
#     4  11  24  45  71 107 157 205 261 337 408 478
#     4  11  22  41  70 108 143 202 258 321 396 478
#     4  10  20  40  70 102 150 188 270 330 380 492
#     4  12  27  51  77 116 160 212 272 338 412 499
#     4  11  23  42  73 106 146 206 269 332 411 485
#
# _framework density 25.418371
#
# number of rings (size 3 to 8) (size 9 to 14) (size 15 to 20)
#    0.000    0.800    4.000    4.800    0.000    2.400 
#    7.200    0.000    0.000    0.000    0.000    0.000 
#    0.000    0.000    0.000    0.000    0.000    0.000 
#
# Total GULP energy -222869.733317 kJ/mol
# GULP energy per Si atom -5571.743333 kJ/mol
# Density = 2.536052 g / cm^3
# Si number density = 25.418371 Si / 1000 Ang^3
#
#
#
# Elastic Constant Matrix: (Units=GPa)
#
#
# Indices 1 2 3 4 5 6 
#
# 1 198.3358 49.1834 32.2462 0.0000 0.0000 0.0000
# 2 49.1834 102.1640 27.7650 0.0000 0.0000 0.0000
# 3 32.2462 27.7650 100.3869 0.0000 0.0000 0.0000
# 4 0.0000 0.0000 0.0000 32.0686 0.0000 0.0000
# 5 0.0000 0.0000 0.0000 0.0000 107.2925 0.0000
# 6 0.0000 0.0000 0.0000 0.0000 0.0000 -79.4938
#
#
#
# Elastic Compliance Matrix: (Units=1/GPa)
#
#
# Indices 1 2 3 4 5 6 
#
# 1 0.005854 -0.002495 -0.001190 0.000000 0.000000 0.000000
# 2 -0.002495 0.011647 -0.002420 0.000000 0.000000 0.000000
# 3 -0.001190 -0.002420 0.011013 0.000000 0.000000 0.000000
# 4 0.000000 0.000000 0.000000 0.031183 0.000000 0.000000
# 5 0.000000 0.000000 0.000000 0.000000 0.009320 0.000000
# 6 0.000000 0.000000 0.000000 0.000000 0.000000 -0.012580
#
#
# Mechanical properties :
#
#
# Convention : Reuss Voigt Hill
#
# Bulk Modulus (GPa) = 61.33507 68.80842 65.07175
# Shear Modulus (GPa) = 67.49189 31.41960 49.45575
#
# Velocity S-wave (km/s) = 5.15849 3.51963 4.41576
# Velocity P-wave (km/s) = 7.72416 6.60653 7.18710
#
# Compressibility (1/GPa) = 0.01630389
#
# Stress axis : x y z
#
# Youngs Moduli (GPa) = 170.81881 85.86003 90.80042
#
# Poissons Ratio (x) = 0.21420 0.10809
# Poissons Ratio (y) = 0.42615 0.21973
# Poissons Ratio (z) = 0.20335 0.20777
#
# Static dielectric constant tensor:
#      x y z
#    x 2.066750 0.000000 0.000000 
#    y 0.000000 2.190490 0.000000 
#    z 0.000000 0.000000 2.287570 
# 
# From -- ./inp_files/14854.got.cif
#   From: 2010.05.17/outbox.cif.g08.bks.cpg/sg52_8_cif.got.tgz:14854.got - 2010.06.03 12:15:38.
