data_PCOD9410646
_publ_section_title
;
Structure prediction by ZEFSAII (Michael W. Deem and Ramdas Pophale) SiO2 
 PCOD9410646
Probable space group: P N N A
;
_chemical_formula_sum "Si O2"
_cell_formula_units_Z 64
_cell_length_a 27.951507
_cell_length_b 11.308112
_cell_length_c 9.451761
_cell_angle_alpha 90.000000
_cell_angle_beta 90.000000
_cell_angle_gamma 90.000000
_cell_volume 2987.501008
_symmetry_space_group_name_H-M "P N N A"
_symmetry_group_IT_number 52
_symmetry_cell_setting 'orthorhombic'
loop_
_space_group_symop_operation_xyz
x,y,z
1/2-x,-y,z
x,1/2-y,1/2-z
1/2-x,1/2+y,1/2-z
-x,-y,-z
1/2+x,y,-z
-x,1/2+y,1/2+z
1/2+x,1/2-y,1/2+z
loop_
_atom_site_type_symbol
_atom_site_label
_atom_site_fract_x
_atom_site_fract_y
_atom_site_fract_z
Si Si1 0.874979 0.108514 0.730231
Si Si2 0.635375 0.374847 0.326207
Si Si3 0.303905 0.009998 0.037494
Si Si4 0.359839 0.420575 0.906230
Si Si5 0.227435 0.870950 0.763321
Si Si6 0.043571 0.722438 0.895761
Si Si7 0.544692 0.511151 0.396467
Si Si8 0.486784 0.122730 0.317375
O O1 0.868056 0.250000 0.750000
O O2 0.843624 0.044115 0.848795
O O3 0.858828 0.065779 0.574576
O O4 0.932555 0.091173 0.729874
O O5 0.630702 0.250000 0.250000
O O6 0.677512 0.399407 0.441085
O O7 0.639991 0.464824 0.193762
O O8 0.587744 0.418820 0.408941
O O9 0.250000 0.000000 0.099195
O O10 0.296150 0.108883 0.916649
O O11 0.313600 0.352927 0.852062
O O12 0.408037 0.349512 0.872485
O O13 0.257607 0.750000 0.750000
O O14 0.250000 0.000000 0.732029
O O15 0.016121 0.750000 0.750000
O O16 0.061010 0.644339 0.568019
O O17 0.014773 0.654632 0.016796
O O18 0.500000 0.500000 0.500000
O O19 0.522156 0.476446 0.242656
O O20 0.499562 0.250000 0.250000
#
# Coordination Sequence:
#
# PCOD9410646 Si02
#       8
#     8   8   8   8   8   8   8   8
#     4  10  21  39  66  96 130 169 216 282 341 398
#     4  11  25  44  69  96 136 181 229 281 344 404
#     4  10  23  41  64  94 130 174 226 281 344 420
#     4  10  22  40  66  94 131 173 227 279 332 408
#     4  10  21  36  63  94 130 169 226 284 345 404
#     4  11  22  39  63  95 131 169 222 277 322 392
#     4  12  23  39  68  98 134 181 222 274 339 400
#     4  10  21  37  60  96 131 167 220 268 326 406
#
# _framework density 21.422587
#
# number of rings (size 3 to 8) (size 9 to 14) (size 15 to 20)
#    0.000    1.500    2.500    2.250    5.250    5.500 
#    0.000    1.875    0.000    0.000    0.000    0.000 
#    0.000    0.000    0.000    0.000    0.000    0.000 
#
# Total GULP energy -356952.120680 kJ/mol
# GULP energy per Si atom -5577.376886 kJ/mol
# Density = 2.137383 g / cm^3
# Si number density = 21.422587 Si / 1000 Ang^3
#
#
#
# Elastic Constant Matrix: (Units=GPa)
#
#
# Indices 1 2 3 4 5 6 
#
# 1 92.7482 30.9722 38.3141 0.0000 0.0000 0.0000
# 2 30.9722 111.2790 19.0021 0.0000 0.0000 0.0000
# 3 38.3141 19.0021 115.0308 0.0000 0.0000 0.0000
# 4 0.0000 0.0000 0.0000 29.4027 0.0000 0.0000
# 5 0.0000 0.0000 0.0000 0.0000 4.0179 0.0000
# 6 0.0000 0.0000 0.0000 0.0000 0.0000 13.9045
#
#
#
# Elastic Compliance Matrix: (Units=1/GPa)
#
#
# Indices 1 2 3 4 5 6 
#
# 1 0.013446 -0.003064 -0.003972 0.000000 0.000000 0.000000
# 2 -0.003064 0.009946 -0.000622 0.000000 0.000000 0.000000
# 3 -0.003972 -0.000622 0.010119 0.000000 0.000000 0.000000
# 4 0.000000 0.000000 0.000000 0.034010 0.000000 0.000000
# 5 0.000000 0.000000 0.000000 0.000000 0.248886 0.000000
# 6 0.000000 0.000000 0.000000 0.000000 0.000000 0.071919
#
#
# Mechanical properties :
#
#
# Convention : Reuss Voigt Hill
#
# Bulk Modulus (GPa) = 54.96573 55.07053 55.01813
# Shear Modulus (GPa) = 12.20379 24.84966 18.52672
#
# Velocity S-wave (km/s) = 2.38936 3.40954 2.94398
# Velocity P-wave (km/s) = 5.77283 6.42359 6.10689
#
# Compressibility (1/GPa) = 0.01819315
#
# Stress axis : x y z
#
# Youngs Moduli (GPa) = 74.37100 100.54775 98.82155
#
# Poissons Ratio (x) = 0.30809 0.39256
# Poissons Ratio (y) = 0.22788 0.06150
# Poissons Ratio (z) = 0.29543 0.06257
#
# Static dielectric constant tensor:
#      x y z
#    x 1.832030 0.000000 0.000000 
#    y 0.000000 1.834770 0.000000 
#    z 0.000000 0.000000 1.839660 
# 
# From -- ./inp_files/15731.got.cif
#   From: 2010.05.17/outbox.cif.g08.bks.cpg/sg52_8_cif.got.tgz:15731.got - 2010.06.03 12:15:38.
