data_PCOD9410883
_publ_section_title
;
Structure prediction by ZEFSAII (Michael W. Deem and Ramdas Pophale) SiO2 
 PCOD9410883
Probable space group: P N N A
;
_chemical_formula_sum "Si O2"
_cell_formula_units_Z 48
_cell_length_a 15.476751
_cell_length_b 7.287834
_cell_length_c 17.855665
_cell_angle_alpha 90.000000
_cell_angle_beta 90.000000
_cell_angle_gamma 90.000000
_cell_volume 2013.976026
_symmetry_space_group_name_H-M "P N N A"
_symmetry_group_IT_number 52
_symmetry_cell_setting 'orthorhombic'
loop_
_space_group_symop_operation_xyz
x,y,z
1/2-x,-y,z
x,1/2-y,1/2-z
1/2-x,1/2+y,1/2-z
-x,-y,-z
1/2+x,y,-z
-x,1/2+y,1/2+z
1/2+x,1/2-y,1/2+z
loop_
_atom_site_type_symbol
_atom_site_label
_atom_site_fract_x
_atom_site_fract_y
_atom_site_fract_z
Si Si1 0.217026 0.210616 0.663888
Si Si2 0.250000 0.500000 0.298613
Si Si3 0.548302 0.314466 0.584587
Si Si4 0.947865 0.856269 0.423731
Si Si5 0.138252 0.696287 0.409202
Si Si6 0.893848 0.750000 0.750000
Si Si7 0.129736 0.740774 0.571712
O O1 0.205388 0.250000 0.750000
O O2 0.127989 0.242849 0.621452
O O3 0.298573 0.315850 0.629780
O O4 0.250000 0.000000 0.653180
O O5 0.212286 0.673642 0.346921
O O6 0.168495 0.426461 0.253148
O O7 0.563499 0.185390 0.512414
O O8 0.613873 0.482687 0.580601
O O9 0.556222 0.247583 0.670914
O O10 0.452026 0.393047 0.570948
O O11 0.045550 0.800649 0.398212
O O12 0.921032 0.068873 0.410943
O O13 0.171235 0.763182 0.489843
#
# Coordination Sequence:
#
# PCOD9410883 Si02
#       7
#     8   4   8   8   8   4   8
#     4  10  24  41  59  94 127 159 204 253 313 377
#     4  10  24  42  60  94 126 162 214 258 320 374
#     4  10  21  39  60  90 121 157 207 253 306 368
#     4  10  21  41  63  91 120 163 210 250 309 373
#     4  10  21  39  63  92 120 159 212 256 305 375
#     4  10  24  40  58  90 126 156 208 258 312 374
#     4  10  21  38  66  90 120 164 205 255 308 374
#
# _framework density 23.833451
#
# number of rings (size 3 to 8) (size 9 to 14) (size 15 to 20)
#    0.000    2.000    0.000    4.000    5.833    5.333 
#   12.000    0.000    0.000    0.000    0.000    0.000 
#    0.000    0.000    0.000    0.000    0.000    0.000 
#
# Total GULP energy -267866.888492 kJ/mol
# GULP energy per Si atom -5580.560177 kJ/mol
# Density = 2.377920 g / cm^3
# Si number density = 23.833451 Si / 1000 Ang^3
#
#
#
# Elastic Constant Matrix: (Units=GPa)
#
#
# Indices 1 2 3 4 5 6 
#
# 1 92.3950 14.7628 76.1713 0.0000 0.0000 0.0000
# 2 14.7628 54.6206 11.3099 0.0000 0.0000 0.0000
# 3 76.1713 11.3099 155.2898 0.0000 0.0000 0.0000
# 4 0.0000 0.0000 0.0000 28.8101 0.0000 0.0000
# 5 0.0000 0.0000 0.0000 0.0000 37.1257 0.0000
# 6 0.0000 0.0000 0.0000 0.0000 0.0000 14.3360
#
#
#
# Elastic Compliance Matrix: (Units=1/GPa)
#
#
# Indices 1 2 3 4 5 6 
#
# 1 0.018708 -0.003205 -0.008943 0.000000 0.000000 0.000000
# 2 -0.003205 0.019137 0.000178 0.000000 0.000000 0.000000
# 3 -0.008943 0.000178 0.010813 0.000000 0.000000 0.000000
# 4 0.000000 0.000000 0.000000 0.034710 0.000000 0.000000
# 5 0.000000 0.000000 0.000000 0.000000 0.026936 0.000000
# 6 0.000000 0.000000 0.000000 0.000000 0.000000 0.069754
#
#
# Mechanical properties :
#
#
# Convention : Reuss Voigt Hill
#
# Bulk Modulus (GPa) = 40.45398 56.31039 48.38218
# Shear Modulus (GPa) = 23.55855 29.39179 26.47517
#
# Velocity S-wave (km/s) = 3.14740 3.51553 3.33654
# Velocity P-wave (km/s) = 5.49715 6.33691 5.93191
#
# Compressibility (1/GPa) = 0.02471945
#
# Stress axis : x y z
#
# Youngs Moduli (GPa) = 53.45358 52.25383 92.47921
#
# Poissons Ratio (x) = 0.16745 0.82704
# Poissons Ratio (y) = 0.17130 -0.01647
# Poissons Ratio (z) = 0.47804 -0.00931
#
# Static dielectric constant tensor:
#      x y z
#    x 1.943460 0.000000 0.000000 
#    y 0.000000 2.072520 0.000000 
#    z 0.000000 0.000000 1.850340 
# 
# From -- ./inp_files/33088.got.cif
#   From: 2010.05.17/outbox.cif.g08.bks.cpg/sg52_17_cif.got.tgz:33088.got - 2010.06.03 12:15:38.
