data_PCOD9410935
_publ_section_title
;
Structure prediction by ZEFSAII (Michael W. Deem and Ramdas Pophale) SiO2 
 PCOD9410935
Probable space group: P N N A
;
_chemical_formula_sum "Si O2"
_cell_formula_units_Z 40
_cell_length_a 29.134139
_cell_length_b 7.774369
_cell_length_c 7.345348
_cell_angle_alpha 90.000000
_cell_angle_beta 90.000000
_cell_angle_gamma 90.000000
_cell_volume 1663.717995
_symmetry_space_group_name_H-M "P N N A"
_symmetry_group_IT_number 52
_symmetry_cell_setting 'orthorhombic'
loop_
_space_group_symop_operation_xyz
x,y,z
1/2-x,-y,z
x,1/2-y,1/2-z
1/2-x,1/2+y,1/2-z
-x,-y,-z
1/2+x,y,-z
-x,1/2+y,1/2+z
1/2+x,1/2-y,1/2+z
loop_
_atom_site_type_symbol
_atom_site_label
_atom_site_fract_x
_atom_site_fract_y
_atom_site_fract_z
Si Si1 0.089147 0.599969 0.056745
Si Si2 0.385145 0.728048 0.463767
Si Si3 0.284868 0.782168 0.537066
Si Si4 0.188048 0.814922 0.540272
Si Si5 0.949231 0.433915 0.531091
O O1 0.099372 0.415754 0.965617
O O2 0.065811 0.573208 0.254628
O O3 0.057178 0.740108 0.960876
O O4 0.139186 0.693191 0.057733
O O5 0.394250 0.750000 0.250000
O O6 0.330971 0.688439 0.475074
O O7 0.414003 0.574059 0.546529
O O8 0.280516 0.750000 0.750000
O O9 0.234836 0.728266 0.463286
O O10 0.297689 0.983834 0.523334
O O11 0.181738 0.750000 0.750000
O O12 0.000000 0.500000 0.500000
#
# Coordination Sequence:
#
# PCOD9410935 Si02
#       5
#     8   8   8   8   8
#     4   9  20  40  59  84 116 151 197 251 299 360
#     4   9  19  38  60  84 120 154 192 245 302 359
#     4   9  18  33  56  88 121 156 196 236 296 372
#     4   9  18  34  57  84 122 156 192 243 302 362
#     4  10  21  39  61  83 116 152 203 254 301 356
#
# _framework density 24.042536999999999
#
# number of rings (size 3 to 8) (size 9 to 14) (size 15 to 20)
#    0.000    2.800    0.000    0.000    2.800    0.800 
#    7.200    3.000    0.000    0.000    0.000    0.000 
#    0.000    0.000    0.000    0.000    0.000    0.000 
#
# Total GULP energy -222950.148700 kJ/mol
# GULP energy per Si atom -5573.753717 kJ/mol
# Density = 2.398782 g / cm^3
# Si number density = 24.042537 Si / 1000 Ang^3
#
#
#
# Elastic Constant Matrix: (Units=GPa)
#
#
# Indices 1 2 3 4 5 6 
#
# 1 184.6481 61.7051 30.1931 0.0000 0.0000 0.0000
# 2 61.7051 78.3143 6.2285 0.0000 0.0000 0.0000
# 3 30.1931 6.2285 94.9495 0.0000 0.0000 0.0000
# 4 0.0000 0.0000 0.0000 1.0291 0.0000 0.0000
# 5 0.0000 0.0000 0.0000 0.0000 33.5289 0.0000
# 6 0.0000 0.0000 0.0000 0.0000 0.0000 40.3859
#
#
#
# Elastic Compliance Matrix: (Units=1/GPa)
#
#
# Indices 1 2 3 4 5 6 
#
# 1 0.007736 -0.005931 -0.002071 0.000000 0.000000 0.000000
# 2 -0.005931 0.017383 0.000746 0.000000 0.000000 0.000000
# 3 -0.002071 0.000746 0.011142 0.000000 0.000000 0.000000
# 4 0.000000 0.000000 0.000000 0.971681 0.000000 0.000000
# 5 0.000000 0.000000 0.000000 0.000000 0.029825 0.000000
# 6 0.000000 0.000000 0.000000 0.000000 0.000000 0.024761
#
#
# Mechanical properties :
#
#
# Convention : Reuss Voigt Hill
#
# Bulk Modulus (GPa) = 45.98068 61.57391 53.77730
# Shear Modulus (GPa) = 4.61131 32.30779 18.45955
#
# Velocity S-wave (km/s) = 1.38641 3.66973 2.77390
# Velocity P-wave (km/s) = 4.66145 6.60469 5.71625
#
# Compressibility (1/GPa) = 0.02174826
#
# Stress axis : x y z
#
# Youngs Moduli (GPa) = 129.26069 57.52825 89.75399
#
# Poissons Ratio (x) = 0.34119 0.18588
# Poissons Ratio (y) = 0.76662 -0.06693
# Poissons Ratio (z) = 0.26770 -0.04290
#
# Static dielectric constant tensor:
#      x y z
#    x 1.948920 0.000000 0.000000 
#    y 0.000000 2.019440 0.000000 
#    z 0.000000 0.000000 1.930880 
# 
# From -- ./inp_files/14800.got.cif
#   From: 2010.05.17/outbox.cif.g08.bks.cpg/sg52_8_cif.got.tgz:14800.got - 2010.06.03 12:15:38.
