data_PCOD9410886
_publ_section_title
;
Structure prediction by ZEFSAII (Michael W. Deem and Ramdas Pophale) SiO2 
 PCOD9410886
Probable space group: P N N A
;
_chemical_formula_sum "Si O2"
_cell_formula_units_Z 40
_cell_length_a 14.601514
_cell_length_b 14.231993
_cell_length_c 9.164082
_cell_angle_alpha 90.000000
_cell_angle_beta 90.000000
_cell_angle_gamma 90.000000
_cell_volume 1904.375463
_symmetry_space_group_name_H-M "P N N A"
_symmetry_group_IT_number 52
_symmetry_cell_setting 'orthorhombic'
loop_
_space_group_symop_operation_xyz
x,y,z
1/2-x,-y,z
x,1/2-y,1/2-z
1/2-x,1/2+y,1/2-z
-x,-y,-z
1/2+x,y,-z
-x,1/2+y,1/2+z
1/2+x,1/2-y,1/2+z
loop_
_atom_site_type_symbol
_atom_site_label
_atom_site_fract_x
_atom_site_fract_y
_atom_site_fract_z
Si Si1 0.002924 0.585882 0.892702
Si Si2 0.389560 0.342359 0.655144
Si Si3 0.492448 0.769210 0.919105
Si Si4 0.207568 0.396542 0.185902
Si Si5 0.783014 0.710935 0.511589
O O1 0.902862 0.598751 0.821802
O O2 0.078789 0.577355 0.766025
O O3 0.018477 0.673591 0.998760
O O4 0.000000 0.500000 0.000000
O O5 0.417759 0.250000 0.750000
O O6 0.445608 0.345093 0.503741
O O7 0.285420 0.327152 0.610685
O O8 0.508716 0.750000 0.750000
O O9 0.386566 0.790576 0.953451
O O10 0.250000 0.500000 0.164861
O O11 0.229139 0.352809 0.344208
O O12 0.237181 0.318278 0.065319
#
# Coordination Sequence:
#
# PCOD9410886 Si02
#       5
#     8   8   8   8   8
#     4  10  22  42  64  94 130 167 218 278 325 397
#     4  10  21  38  66  91 123 170 221 260 331 398
#     4  10  21  39  62  90 124 166 212 263 328 387
#     4  10  22  39  63  94 131 172 216 267 338 396
#     4  10  21  41  62  91 133 171 215 277 324 393
#
# _framework density 21.004261
#
# number of rings (size 3 to 8) (size 9 to 14) (size 15 to 20)
#    0.000    2.000    2.000    0.600    8.400    0.000 
#    3.600    2.000    0.000    0.000    0.000    0.000 
#    0.000    0.000    0.000    0.000    0.000    0.000 
#
# Total GULP energy -223259.760243 kJ/mol
# GULP energy per Si atom -5581.494006 kJ/mol
# Density = 2.095645 g / cm^3
# Si number density = 21.004261 Si / 1000 Ang^3
#
#
#
# Elastic Constant Matrix: (Units=GPa)
#
#
# Indices 1 2 3 4 5 6 
#
# 1 72.3380 17.0389 48.2463 0.0000 0.0000 0.0000
# 2 17.0389 53.0563 5.0648 0.0000 0.0000 0.0000
# 3 48.2463 5.0648 99.6028 0.0000 0.0000 0.0000
# 4 0.0000 0.0000 0.0000 26.1784 0.0000 0.0000
# 5 0.0000 0.0000 0.0000 0.0000 72.1139 0.0000
# 6 0.0000 0.0000 0.0000 0.0000 0.0000 14.3638
#
#
#
# Elastic Compliance Matrix: (Units=1/GPa)
#
#
# Indices 1 2 3 4 5 6 
#
# 1 0.022252 -0.006147 -0.010466 0.000000 0.000000 0.000000
# 2 -0.006147 0.020638 0.001928 0.000000 0.000000 0.000000
# 3 -0.010466 0.001928 0.015012 0.000000 0.000000 0.000000
# 4 0.000000 0.000000 0.000000 0.038199 0.000000 0.000000
# 5 0.000000 0.000000 0.000000 0.000000 0.013867 0.000000
# 6 0.000000 0.000000 0.000000 0.000000 0.000000 0.069620
#
#
# Mechanical properties :
#
#
# Convention : Reuss Voigt Hill
#
# Bulk Modulus (GPa) = 35.04898 40.63301 37.84099
# Shear Modulus (GPa) = 22.88657 32.84103 27.86380
#
# Velocity S-wave (km/s) = 3.30451 3.95845 3.64617
# Velocity P-wave (km/s) = 5.59308 6.34662 5.98173
#
# Compressibility (1/GPa) = 0.02853150
#
# Stress axis : x y z
#
# Youngs Moduli (GPa) = 44.93894 48.45436 66.61554
#
# Poissons Ratio (x) = 0.29786 0.69721
# Poissons Ratio (y) = 0.27625 -0.12845
# Poissons Ratio (z) = 0.47034 -0.09343
#
# Static dielectric constant tensor:
#      x y z
#    x 1.804840 0.000000 0.000000 
#    y 0.000000 1.802670 0.000000 
#    z 0.000000 0.000000 1.739590 
# 
# From -- ./inp_files/10039.got.cif
#   From: 2010.05.17/outbox.cif.g08.bks.cpg/sg52_6_cif.got.tgz:10039.got - 2010.06.03 12:15:38.
