data_PCOD9410138
_publ_section_title
;
Structure prediction by ZEFSAII (Michael W. Deem and Ramdas Pophale) SiO2 
 PCOD9410138
Probable space group: P N N A
;
_chemical_formula_sum "Si O2"
_cell_formula_units_Z 60
_cell_length_a 28.318876
_cell_length_b 8.052766
_cell_length_c 12.267329
_cell_angle_alpha 90.000000
_cell_angle_beta 90.000000
_cell_angle_gamma 90.000000
_cell_volume 2797.506499
_symmetry_space_group_name_H-M "P N N A"
_symmetry_group_IT_number 52
_symmetry_cell_setting 'orthorhombic'
loop_
_space_group_symop_operation_xyz
x,y,z
1/2-x,-y,z
x,1/2-y,1/2-z
1/2-x,1/2+y,1/2-z
-x,-y,-z
1/2+x,y,-z
-x,1/2+y,1/2+z
1/2+x,1/2-y,1/2+z
loop_
_atom_site_type_symbol
_atom_site_label
_atom_site_fract_x
_atom_site_fract_y
_atom_site_fract_z
Si Si1 0.642424 0.906575 0.170507
Si Si2 0.036236 0.242940 0.969817
Si Si3 0.303979 0.674719 0.373654
Si Si4 0.901680 0.664057 0.857839
Si Si5 0.067398 0.874498 0.021542
Si Si6 0.789103 0.170454 0.986046
Si Si7 0.902642 0.750000 0.250000
Si Si8 0.642624 0.817376 0.646319
O O1 0.645891 0.750000 0.250000
O O2 0.628698 0.083229 0.227018
O O3 0.599079 0.865750 0.087535
O O4 0.690878 0.906447 0.098252
O O5 0.062470 0.265024 0.854686
O O6 0.980131 0.233113 0.971329
O O7 0.058971 0.371466 0.053160
O O8 0.051990 0.066284 0.023818
O O9 0.295897 0.750000 0.250000
O O10 0.357289 0.728354 0.402174
O O11 0.263554 0.730673 0.459400
O O12 0.299933 0.477379 0.397861
O O13 0.921340 0.750000 0.750000
O O14 0.877692 0.493561 0.826104
O O15 0.100981 0.809279 0.116578
O O16 0.823324 0.321956 0.956715
O O17 0.669825 0.750000 0.750000
#
# Coordination Sequence:
#
# PCOD9410138 Si02
#       8
#     8   8   8   8   8   8   4   8
#     4  10  22  43  68  93 132 185 230 277 336 397
#     4  10  21  40  61  91 127 169 220 273 332 393
#     4  10  20  38  67  91 124 160 201 264 342 405
#     4  11  23  37  59  91 125 165 209 257 327 404
#     4   9  21  39  59  89 125 165 216 277 324 383
#     4  10  22  40  63  93 129 162 212 272 326 403
#     4  10  22  38  68  92 130 180 230 278 334 398
#     4  11  21  35  58  86 126 163 203 258 324 385
#
# _framework density 21.447673000000002
#
# number of rings (size 3 to 8) (size 9 to 14) (size 15 to 20)
#    0.000    1.867    0.000    5.200    4.667    3.733 
#    2.400    0.000   13.200    0.000    0.000    0.000 
#    0.000    0.000    0.000    0.000    0.000    0.000 
#
# Total GULP energy -334234.519995 kJ/mol
# GULP energy per Si atom -5570.575333 kJ/mol
# Density = 2.139886 g / cm^3
# Si number density = 21.447673 Si / 1000 Ang^3
#
#
#
# Elastic Constant Matrix: (Units=GPa)
#
#
# Indices 1 2 3 4 5 6 
#
# 1 109.4958 0.7083 28.8230 0.0000 0.0000 0.0000
# 2 0.7083 68.9029 42.6918 0.0000 0.0000 0.0000
# 3 28.8230 42.6918 72.3138 0.0000 0.0000 0.0000
# 4 0.0000 0.0000 0.0000 36.0319 0.0000 0.0000
# 5 0.0000 0.0000 0.0000 0.0000 10.5869 0.0000
# 6 0.0000 0.0000 0.0000 0.0000 0.0000 14.7536
#
#
#
# Elastic Compliance Matrix: (Units=1/GPa)
#
#
# Indices 1 2 3 4 5 6 
#
# 1 0.010879 0.004060 -0.006733 0.000000 0.000000 0.000000
# 2 0.004060 0.024399 -0.016022 0.000000 0.000000 0.000000
# 3 -0.006733 -0.016022 0.025971 0.000000 0.000000 0.000000
# 4 0.000000 0.000000 0.000000 0.027753 0.000000 0.000000
# 5 0.000000 0.000000 0.000000 0.000000 0.094456 0.000000
# 6 0.000000 0.000000 0.000000 0.000000 0.000000 0.067780
#
#
# Mechanical properties :
#
#
# Convention : Reuss Voigt Hill
#
# Bulk Modulus (GPa) = 41.91472 43.90654 42.91063
# Shear Modulus (GPa) = 16.85872 24.17379 20.51626
#
# Velocity S-wave (km/s) = 2.80668 3.36088 3.09621
# Velocity P-wave (km/s) = 5.48530 5.96461 5.72997
#
# Compressibility (1/GPa) = 0.02385797
#
# Stress axis : x y z
#
# Youngs Moduli (GPa) = 91.92162 40.98551 38.50390
#
# Poissons Ratio (x) = -0.16639 0.25924
# Poissons Ratio (y) = -0.37319 0.61693
# Poissons Ratio (z) = 0.61890 0.65669
#
# Static dielectric constant tensor:
#      x y z
#    x 1.814850 0.000000 0.000000 
#    y 0.000000 1.834900 0.000000 
#    z 0.000000 0.000000 1.792340 
# 
# From -- ./inp_files/23157.got.cif
#   From: 2010.05.17/outbox.cif.g08.bks.cpg/sg52_12_cif.got.tgz:23157.got - 2010.06.03 12:15:38.
