data_PCOD9410418
_publ_section_title
;
Structure prediction by ZEFSAII (Michael W. Deem and Ramdas Pophale) SiO2 
 PCOD9410418
Probable space group: P N N A
;
_chemical_formula_sum "Si O2"
_cell_formula_units_Z 44
_cell_length_a 9.582709
_cell_length_b 14.529965
_cell_length_c 15.778032
_cell_angle_alpha 90.000000
_cell_angle_beta 90.000000
_cell_angle_gamma 90.000000
_cell_volume 2196.876791
_symmetry_space_group_name_H-M "P N N A"
_symmetry_group_IT_number 52
_symmetry_cell_setting 'orthorhombic'
loop_
_space_group_symop_operation_xyz
x,y,z
1/2-x,-y,z
x,1/2-y,1/2-z
1/2-x,1/2+y,1/2-z
-x,-y,-z
1/2+x,y,-z
-x,1/2+y,1/2+z
1/2+x,1/2-y,1/2+z
loop_
_atom_site_type_symbol
_atom_site_label
_atom_site_fract_x
_atom_site_fract_y
_atom_site_fract_z
Si Si1 0.753350 0.892009 0.107936
Si Si2 0.358699 0.217612 0.340762
Si Si3 0.490121 0.186279 0.004613
Si Si4 0.799097 0.250000 0.250000
Si Si5 0.458549 0.828495 0.364134
Si Si6 0.090123 0.979445 0.417383
O O1 0.775131 0.825558 0.189938
O O2 0.874273 0.866340 0.039877
O O3 0.750000 0.000000 0.129167
O O4 0.605070 0.867535 0.063231
O O5 0.413052 0.250000 0.250000
O O6 0.397855 0.289322 0.413673
O O7 0.191565 0.207562 0.334205
O O8 0.417371 0.119319 0.373160
O O9 0.528801 0.282589 0.957609
O O10 0.904754 0.199961 0.314031
O O11 0.451053 0.937810 0.356202
O O12 0.250000 0.000000 0.441641
O O13 0.000000 0.000000 0.500000
#
# Coordination Sequence:
#
# PCOD9410418 Si02
#       6
#     8   8   8   4   8   8
#     4  11  25  45  67  99 130 176 226 269 337 400
#     4  11  22  38  63  98 135 167 222 274 327 389
#     4  11  22  41  69  93 131 175 219 273 331 402
#     4  10  24  42  68  88 136 174 214 276 332 384
#     4  10  20  42  63  90 129 177 212 265 335 393
#     4  10  21  37  63  94 123 168 217 263 323 392
#
# _framework density 20.028433
#
# number of rings (size 3 to 8) (size 9 to 14) (size 15 to 20)
#    0.000    1.455    4.545    0.545    1.273    1.455 
#    0.000    2.727    0.000    0.000    0.000    0.000 
#    0.000    0.000    0.000    0.000    0.000    0.000 
#
# Total GULP energy -245359.229334 kJ/mol
# GULP energy per Si atom -5576.346121 kJ/mol
# Density = 1.998285 g / cm^3
# Si number density = 20.028433 Si / 1000 Ang^3
#
#
#
# Elastic Constant Matrix: (Units=GPa)
#
#
# Indices 1 2 3 4 5 6 
#
# 1 47.4515 45.5658 23.9292 0.0000 0.0000 0.0000
# 2 45.5658 106.0163 51.1489 0.0000 0.0000 0.0000
# 3 23.9292 51.1489 114.9912 0.0000 0.0000 0.0000
# 4 0.0000 0.0000 0.0000 12.6225 0.0000 0.0000
# 5 0.0000 0.0000 0.0000 0.0000 17.6172 0.0000
# 6 0.0000 0.0000 0.0000 0.0000 0.0000 -12.6723
#
#
#
# Elastic Compliance Matrix: (Units=1/GPa)
#
#
# Indices 1 2 3 4 5 6 
#
# 1 0.035938 -0.015073 -0.000774 0.000000 0.000000 0.000000
# 2 -0.015073 0.018331 -0.005017 0.000000 0.000000 0.000000
# 3 -0.000774 -0.005017 0.011089 0.000000 0.000000 0.000000
# 4 0.000000 0.000000 0.000000 0.079224 0.000000 0.000000
# 5 0.000000 0.000000 0.000000 0.000000 0.056763 0.000000
# 6 0.000000 0.000000 0.000000 0.000000 0.000000 -0.078913
#
#
# Mechanical properties :
#
#
# Convention : Reuss Voigt Hill
#
# Bulk Modulus (GPa) = 42.31846 56.63854 49.47850
# Shear Modulus (GPa) = 29.06330 13.36782 21.21556
#
# Velocity S-wave (km/s) = 3.81347 2.58629 3.25818
# Velocity P-wave (km/s) = 6.36907 6.10402 6.23795
#
# Compressibility (1/GPa) = 0.02363035
#
# Stress axis : x y z
#
# Youngs Moduli (GPa) = 27.82549 54.55095 90.17791
#
# Poissons Ratio (x) = 0.82223 0.06981
# Poissons Ratio (y) = 0.41941 0.45246
# Poissons Ratio (z) = 0.02154 0.27370
#
# Static dielectric constant tensor:
#      x y z
#    x 1.715670 0.000000 0.000000 
#    y 0.000000 1.802620 0.000000 
#    z 0.000000 0.000000 1.731230 
# 
# From -- ./inp_files/31174.got.cif
#   From: 2010.05.17/outbox.cif.g08.bks.cpg/sg52_16_cif.got.tgz:31174.got - 2010.06.03 12:15:38.
