data_PCOD9410058
_publ_section_title
;
Structure prediction by ZEFSAII (Michael W. Deem and Ramdas Pophale) SiO2 
 PCOD9410058
Probable space group: P N N A
;
_chemical_formula_sum "Si O2"
_cell_formula_units_Z 60
_cell_length_a 5.516572
_cell_length_b 18.827570
_cell_length_c 25.521937
_cell_angle_alpha 90.000000
_cell_angle_beta 90.000000
_cell_angle_gamma 90.000000
_cell_volume 2650.801417
_symmetry_space_group_name_H-M "P N N A"
_symmetry_group_IT_number 52
_symmetry_cell_setting 'orthorhombic'
loop_
_space_group_symop_operation_xyz
x,y,z
1/2-x,-y,z
x,1/2-y,1/2-z
1/2-x,1/2+y,1/2-z
-x,-y,-z
1/2+x,y,-z
-x,1/2+y,1/2+z
1/2+x,1/2-y,1/2+z
loop_
_atom_site_type_symbol
_atom_site_label
_atom_site_fract_x
_atom_site_fract_y
_atom_site_fract_z
Si Si1 0.628095 0.237630 0.112201
Si Si2 0.291723 0.585234 0.025403
Si Si3 0.106283 0.424934 0.224918
Si Si4 0.620983 0.185794 0.887259
Si Si5 0.652898 0.343954 0.497899
Si Si6 0.997569 0.545232 0.660693
Si Si7 0.750000 0.500000 0.153738
Si Si8 0.389551 0.384893 0.129559
O O1 0.390568 0.196790 0.135771
O O2 0.552002 0.318558 0.115143
O O3 0.895579 0.228704 0.136494
O O4 0.655214 0.204020 0.054088
O O5 0.250000 0.500000 0.020584
O O6 0.316493 0.607918 0.085793
O O7 0.532140 0.611871 0.996258
O O8 0.250000 0.500000 0.227652
O O9 0.026814 0.411490 0.284160
O O10 0.279206 0.378400 0.187866
O O11 0.869380 0.441294 0.191068
O O12 0.649627 0.203114 0.949079
O O13 0.527058 0.105083 0.883247
O O14 0.402395 0.386014 0.497654
O O15 0.750000 0.500000 0.656841
O O16 0.250000 0.500000 0.659853
O O17 0.543732 0.457567 0.123611
#
# Coordination Sequence:
#
# PCOD9410058 Si02
#       8
#     8   8   8   8   8   8   4   8
#     4  10  22  38  61  89 126 172 216 252 312 388
#     4  10  23  37  53  80 119 156 202 270 327 359
#     4   9  20  38  61  90 121 162 207 268 319 377
#     4  10  21  40  64  93 130 165 206 265 319 382
#     4   8  16  33  58  82 116 164 206 246 299 370
#     4  11  22  41  71 101 126 159 211 263 331 399
#     4  10  20  38  62  84 122 160 216 278 318 356
#     4  11  24  37  63  87 121 173 224 265 321 377
#
# _framework density 22.634664999999998
#
# number of rings (size 3 to 8) (size 9 to 14) (size 15 to 20)
#    0.000    2.133    0.667    2.000    6.533    3.200 
#    0.000    0.667    0.000   21.600    0.000    0.000 
#    0.000    0.000    0.000    0.000    0.000    0.000 
#
# Total GULP energy -334284.300888 kJ/mol
# GULP energy per Si atom -5571.405015 kJ/mol
# Density = 2.258315 g / cm^3
# Si number density = 22.634665 Si / 1000 Ang^3
#
#
#
# Elastic Constant Matrix: (Units=GPa)
#
#
# Indices 1 2 3 4 5 6 
#
# 1 143.0595 -1.5456 8.7646 0.0000 0.0000 0.0000
# 2 -1.5456 38.8461 19.8248 0.0000 0.0000 0.0000
# 3 8.7646 19.8248 55.6320 0.0000 0.0000 0.0000
# 4 0.0000 0.0000 0.0000 11.7354 0.0000 0.0000
# 5 0.0000 0.0000 0.0000 0.0000 21.9466 0.0000
# 6 0.0000 0.0000 0.0000 0.0000 0.0000 23.2244
#
#
#
# Elastic Compliance Matrix: (Units=1/GPa)
#
#
# Indices 1 2 3 4 5 6 
#
# 1 0.007093 0.001042 -0.001489 0.000000 0.000000 0.000000
# 2 0.001042 0.031618 -0.011431 0.000000 0.000000 0.000000
# 3 -0.001489 -0.011431 0.022283 0.000000 0.000000 0.000000
# 4 0.000000 0.000000 0.000000 0.085212 0.000000 0.000000
# 5 0.000000 0.000000 0.000000 0.000000 0.045565 0.000000
# 6 0.000000 0.000000 0.000000 0.000000 0.000000 0.043058
#
#
# Mechanical properties :
#
#
# Convention : Reuss Voigt Hill
#
# Bulk Modulus (GPa) = 26.85454 32.40279 29.62866
# Shear Modulus (GPa) = 18.45029 25.41419 21.93224
#
# Velocity S-wave (km/s) = 2.85815 3.35446 3.11620
# Velocity P-wave (km/s) = 4.77306 5.41755 5.10548
#
# Compressibility (1/GPa) = 0.03723765
#
# Stress axis : x y z
#
# Youngs Moduli (GPa) = 140.99272 31.62755 44.87626
#
# Poissons Ratio (x) = -0.03295 0.06681
# Poissons Ratio (y) = -0.14691 0.51300
# Poissons Ratio (z) = 0.20990 0.36155
#
# Static dielectric constant tensor:
#      x y z
#    x 2.025760 0.000000 0.000000 
#    y 0.000000 1.829540 0.000000 
#    z 0.000000 0.000000 1.892040 
# 
# From -- ./inp_files/41826.got.cif
#   From: 2010.05.17/outbox.cif.g08.bks.cpg/sg52_21_cif.got.tgz:41826.got - 2010.06.03 12:15:38.
