data_PCOD9410518
_publ_section_title
;
Structure prediction by ZEFSAII (Michael W. Deem and Ramdas Pophale) SiO2 
 PCOD9410518
Probable space group: P N N A
;
_chemical_formula_sum "Si O2"
_cell_formula_units_Z 40
_cell_length_a 12.943717
_cell_length_b 10.879739
_cell_length_c 14.868733
_cell_angle_alpha 90.000000
_cell_angle_beta 90.000000
_cell_angle_gamma 90.000000
_cell_volume 2093.878361
_symmetry_space_group_name_H-M "P N N A"
_symmetry_group_IT_number 52
_symmetry_cell_setting 'orthorhombic'
loop_
_space_group_symop_operation_xyz
x,y,z
1/2-x,-y,z
x,1/2-y,1/2-z
1/2-x,1/2+y,1/2-z
-x,-y,-z
1/2+x,y,-z
-x,1/2+y,1/2+z
1/2+x,1/2-y,1/2+z
loop_
_atom_site_type_symbol
_atom_site_label
_atom_site_fract_x
_atom_site_fract_y
_atom_site_fract_z
Si Si1 0.509642 0.372641 0.206587
Si Si2 0.379218 0.745240 0.143283
Si Si3 0.840450 0.223126 0.561951
Si Si4 0.132090 0.981934 0.137022
Si Si5 0.440925 0.069231 0.580648
O O1 0.557410 0.250000 0.250000
O O2 0.423134 0.328413 0.134363
O O3 0.445303 0.440476 0.284792
O O4 0.584806 0.465670 0.154347
O O5 0.361147 0.750000 0.250000
O O6 0.274408 0.699014 0.097470
O O7 0.474629 0.658089 0.124738
O O8 0.399804 0.882564 0.105901
O O9 0.859329 0.370798 0.565403
O O10 0.857155 0.154353 0.468025
O O11 0.250000 0.000000 0.172517
O O12 0.500000 0.000000 0.500000
#
# Coordination Sequence:
#
# PCOD9410518 Si02
#       5
#     8   8   8   8   8
#     4   9  16  28  46  69 107 143 181 228 271 322
#     4  11  19  32  56  82 109 146 186 227 279 333
#     4   9  19  31  47  79 116 144 173 233 281 326
#     4   9  16  28  49  77 106 139 181 223 271 324
#     4  10  21  32  47  80 116 144 179 230 287 325
#
# _framework density 19.103307000000001
#
# number of rings (size 3 to 8) (size 9 to 14) (size 15 to 20)
#    0.000    2.400    2.000    3.000    0.000    3.200 
#    0.000    0.000    0.000    0.000    0.000   22.400 
#    0.000    0.000    0.000    0.000    0.000    0.000 
#
# Total GULP energy -222940.428195 kJ/mol
# GULP energy per Si atom -5573.510705 kJ/mol
# Density = 1.905983 g / cm^3
# Si number density = 19.103307 Si / 1000 Ang^3
#
#
#
# Elastic Constant Matrix: (Units=GPa)
#
#
# Indices 1 2 3 4 5 6 
#
# 1 34.5932 27.0817 36.7658 0.0000 0.0000 0.0000
# 2 27.0817 104.7541 53.9151 0.0000 0.0000 0.0000
# 3 36.7658 53.9151 81.4401 0.0000 0.0000 0.0000
# 4 0.0000 0.0000 0.0000 20.3117 0.0000 0.0000
# 5 0.0000 0.0000 0.0000 0.0000 20.6625 0.0000
# 6 0.0000 0.0000 0.0000 0.0000 0.0000 9.7610
#
#
#
# Elastic Compliance Matrix: (Units=1/GPa)
#
#
# Indices 1 2 3 4 5 6 
#
# 1 0.055908 -0.002220 -0.023770 0.000000 0.000000 0.000000
# 2 -0.002220 0.014568 -0.008642 0.000000 0.000000 0.000000
# 3 -0.023770 -0.008642 0.028731 0.000000 0.000000 0.000000
# 4 0.000000 0.000000 0.000000 0.049233 0.000000 0.000000
# 5 0.000000 0.000000 0.000000 0.000000 0.048397 0.000000
# 6 0.000000 0.000000 0.000000 0.000000 0.000000 0.102449
#
#
# Mechanical properties :
#
#
# Convention : Reuss Voigt Hill
#
# Bulk Modulus (GPa) = 33.39642 50.70140 42.04891
# Shear Modulus (GPa) = 13.20897 17.01535 15.11216
#
# Velocity S-wave (km/s) = 2.63240 2.98770 2.81566
# Velocity P-wave (km/s) = 5.17294 6.20484 5.71224
#
# Compressibility (1/GPa) = 0.02994333
#
# Stress axis : x y z
#
# Youngs Moduli (GPa) = 17.88657 68.64329 34.80538
#
# Poissons Ratio (x) = 0.15237 0.82732
# Poissons Ratio (y) = 0.03970 0.30080
# Poissons Ratio (z) = 0.42516 0.59324
#
# Static dielectric constant tensor:
#      x y z
#    x 1.623910 0.000000 0.000000 
#    y 0.000000 1.745260 0.000000 
#    z 0.000000 0.000000 1.728110 
# 
# From -- ./inp_files/25845.got.cif
#   From: 2010.05.17/outbox.cif.g08.bks.cpg/sg52_13_cif.got.tgz:25845.got - 2010.06.03 12:15:38.
