data_PCOD9410250
_publ_section_title
;
Structure prediction by ZEFSAII (Michael W. Deem and Ramdas Pophale) SiO2 
 PCOD9410250
Probable space group: P N N A
;
_chemical_formula_sum "Si O2"
_cell_formula_units_Z 40
_cell_length_a 14.679598
_cell_length_b 15.869882
_cell_length_c 7.649962
_cell_angle_alpha 90.000000
_cell_angle_beta 90.000000
_cell_angle_gamma 90.000000
_cell_volume 1782.161831
_symmetry_space_group_name_H-M "P N N A"
_symmetry_group_IT_number 52
_symmetry_cell_setting 'orthorhombic'
loop_
_space_group_symop_operation_xyz
x,y,z
1/2-x,-y,z
x,1/2-y,1/2-z
1/2-x,1/2+y,1/2-z
-x,-y,-z
1/2+x,y,-z
-x,1/2+y,1/2+z
1/2+x,1/2-y,1/2+z
loop_
_atom_site_type_symbol
_atom_site_label
_atom_site_fract_x
_atom_site_fract_y
_atom_site_fract_z
Si Si1 0.435751 0.125486 0.421615
Si Si2 0.263979 0.906356 0.375584
Si Si3 0.594781 0.231447 0.539534
Si Si4 0.456468 0.022282 0.772489
Si Si5 0.873353 0.912297 0.977266
O O1 0.332826 0.139579 0.363027
O O2 0.499568 0.205240 0.454587
O O3 0.485456 0.058198 0.295895
O O4 0.430988 0.078463 0.608526
O O5 0.337377 0.848169 0.473313
O O6 0.305170 0.920836 0.183106
O O7 0.250000 0.000000 0.451852
O O8 0.586913 0.250000 0.750000
O O9 0.632602 0.316931 0.456118
O O10 0.525184 0.075355 0.893838
O O11 0.372037 0.984604 0.878646
#
# Coordination Sequence:
#
# PCOD9410250 Si02
#       5
#     8   8   8   8   8
#     4  11  20  39  73  96 123 186 222 264 340 420
#     4  11  20  39  68  93 131 175 226 270 335 404
#     4  10  21  42  65  94 144 170 217 291 333 390
#     4  10  20  39  70  93 128 176 224 268 339 411
#     4  10  21  42  64  95 139 170 214 295 332 387
#
# _framework density 22.444651
#
# number of rings (size 3 to 8) (size 9 to 14) (size 15 to 20)
#    0.000    1.600    6.000    1.200    0.000    0.800 
#   10.800    3.000    8.800    0.000    0.000    0.000 
#    0.000    0.000    0.000    0.000    0.000    0.000 
#
# Total GULP energy -223618.478481 kJ/mol
# GULP energy per Si atom -5590.461962 kJ/mol
# Density = 2.239357 g / cm^3
# Si number density = 22.444651 Si / 1000 Ang^3
#
#
#
# Elastic Constant Matrix: (Units=GPa)
#
#
# Indices 1 2 3 4 5 6 
#
# 1 103.4084 18.1414 8.1957 0.0000 0.0000 0.0000
# 2 18.1414 96.7708 3.8638 0.0000 0.0000 0.0000
# 3 8.1957 3.8638 59.2976 0.0000 0.0000 0.0000
# 4 0.0000 0.0000 0.0000 13.4087 0.0000 0.0000
# 5 0.0000 0.0000 0.0000 0.0000 24.2176 0.0000
# 6 0.0000 0.0000 0.0000 0.0000 0.0000 31.0905
#
#
#
# Elastic Compliance Matrix: (Units=1/GPa)
#
#
# Indices 1 2 3 4 5 6 
#
# 1 0.010095 -0.001841 -0.001275 0.000000 0.000000 0.000000
# 2 -0.001841 0.010697 -0.000442 0.000000 0.000000 0.000000
# 3 -0.001275 -0.000442 0.017069 0.000000 0.000000 0.000000
# 4 0.000000 0.000000 0.000000 0.074579 0.000000 0.000000
# 5 0.000000 0.000000 0.000000 0.000000 0.041292 0.000000
# 6 0.000000 0.000000 0.000000 0.000000 0.000000 0.032164
#
#
# Mechanical properties :
#
#
# Convention : Reuss Voigt Hill
#
# Bulk Modulus (GPa) = 32.52885 35.54209 34.03547
# Shear Modulus (GPa) = 24.59894 29.02843 26.81368
#
# Velocity S-wave (km/s) = 3.31415 3.60020 3.46013
# Velocity P-wave (km/s) = 5.40085 5.75775 5.58215
#
# Compressibility (1/GPa) = 0.03074194
#
# Stress axis : x y z
#
# Youngs Moduli (GPa) = 99.06365 93.48780 58.58520
#
# Poissons Ratio (x) = 0.17216 0.07471
# Poissons Ratio (y) = 0.18242 0.02592
# Poissons Ratio (z) = 0.12633 0.04137
#
# Static dielectric constant tensor:
#      x y z
#    x 1.829270 0.000000 0.000000 
#    y 0.000000 1.872630 0.000000 
#    z 0.000000 0.000000 1.879800 
# 
# From -- ./inp_files/10035.got.cif
#   From: 2010.05.17/outbox.cif.g08.bks.cpg/sg52_6_cif.got.tgz:10035.got - 2010.06.03 12:15:38.
