data_PCOD9410556
_publ_section_title
;
Structure prediction by ZEFSAII (Michael W. Deem and Ramdas Pophale) SiO2 
 PCOD9410556
Probable space group: P N N A
;
_chemical_formula_sum "Si O2"
_cell_formula_units_Z 48
_cell_length_a 14.382416
_cell_length_b 16.888853
_cell_length_c 8.173299
_cell_angle_alpha 90.000000
_cell_angle_beta 90.000000
_cell_angle_gamma 90.000000
_cell_volume 1985.314839
_symmetry_space_group_name_H-M "P N N A"
_symmetry_group_IT_number 52
_symmetry_cell_setting 'orthorhombic'
loop_
_space_group_symop_operation_xyz
x,y,z
1/2-x,-y,z
x,1/2-y,1/2-z
1/2-x,1/2+y,1/2-z
-x,-y,-z
1/2+x,y,-z
-x,1/2+y,1/2+z
1/2+x,1/2-y,1/2+z
loop_
_atom_site_type_symbol
_atom_site_label
_atom_site_fract_x
_atom_site_fract_y
_atom_site_fract_z
Si Si1 0.750000 0.500000 0.630519
Si Si2 0.510106 0.881108 0.564908
Si Si3 0.908942 0.750000 0.250000
Si Si4 0.163374 0.250000 0.250000
Si Si5 0.776877 0.122664 0.585701
Si Si6 0.538460 0.533397 0.261868
Si Si7 0.902965 0.880610 0.985121
Si Si8 0.750000 0.500000 0.173075
O O1 0.785327 0.431734 0.752803
O O2 0.827567 0.548747 0.532410
O O3 0.464421 0.798629 0.611802
O O4 0.618059 0.863215 0.539299
O O5 0.488100 0.922543 0.392386
O O6 0.491285 0.943053 0.714250
O O7 0.873871 0.674185 0.358024
O O8 0.227270 0.204166 0.378949
O O9 0.108161 0.182521 0.159753
O O10 0.722988 0.072022 0.449480
O O11 0.499079 0.575632 0.425573
O O12 0.651723 0.531020 0.248404
#
# Coordination Sequence:
#
# PCOD9410556 Si02
#       8
#     4   8   4   4   8   8   8   4
#     4   9  18  38  65  98 136 197 249 292 360 452
#     4  10  21  39  69 101 140 191 237 302 365 451
#     4  12  27  40  66 101 148 186 244 321 374 417
#     4  10  21  34  72 101 144 186 242 303 368 445
#     4   9  17  35  63 102 138 188 244 293 367 450
#     4  10  21  41  72 102 141 195 250 288 370 458
#     4  11  23  42  68 104 146 196 244 306 374 449
#     4   9  20  34  69 104 146 183 247 310 358 448
#
# _framework density 24.177526
#
# number of rings (size 3 to 8) (size 9 to 14) (size 15 to 20)
#    0.000    2.000    1.667    1.500    9.333    0.667 
#    0.000    0.833   11.000    2.000    0.000    0.000 
#    0.000    1.333    0.000    0.000    0.000    0.000 
#
# Total GULP energy -267384.361386 kJ/mol
# GULP energy per Si atom -5570.507529 kJ/mol
# Density = 2.412250 g / cm^3
# Si number density = 24.177526 Si / 1000 Ang^3
#
#
#
# Elastic Constant Matrix: (Units=GPa)
#
#
# Indices 1 2 3 4 5 6 
#
# 1 109.4600 52.5734 26.1779 0.0000 0.0000 0.0000
# 2 52.5734 161.5971 44.6737 0.0000 0.0000 0.0000
# 3 26.1779 44.6737 101.2048 0.0000 0.0000 0.0000
# 4 0.0000 0.0000 0.0000 59.5082 0.0000 0.0000
# 5 0.0000 0.0000 0.0000 0.0000 -13.2133 0.0000
# 6 0.0000 0.0000 0.0000 0.0000 0.0000 38.1197
#
#
#
# Elastic Compliance Matrix: (Units=1/GPa)
#
#
# Indices 1 2 3 4 5 6 
#
# 1 0.011010 -0.003183 -0.001443 0.000000 0.000000 0.000000
# 2 -0.003183 0.007969 -0.002694 0.000000 0.000000 0.000000
# 3 -0.001443 -0.002694 0.011443 0.000000 0.000000 0.000000
# 4 0.000000 0.000000 0.000000 0.016804 0.000000 0.000000
# 5 0.000000 0.000000 0.000000 0.000000 -0.075681 0.000000
# 6 0.000000 0.000000 0.000000 0.000000 0.000000 0.026233
#
#
# Mechanical properties :
#
#
# Convention : Reuss Voigt Hill
#
# Bulk Modulus (GPa) = 63.36419 68.79022 66.07720
# Shear Modulus (GPa) = 282.83485 33.47204 158.15345
#
# Velocity S-wave (km/s) = 10.82758 3.72483 8.09663
# Velocity P-wave (km/s) = 13.51222 6.85660 10.71432
#
# Compressibility (1/GPa) = 0.01578179
#
# Stress axis : x y z
#
# Youngs Moduli (GPa) = 90.83010 125.49301 87.38663
#
# Poissons Ratio (x) = 0.39944 0.12608
# Poissons Ratio (y) = 0.28911 0.23543
# Poissons Ratio (z) = 0.13104 0.33810
#
# Static dielectric constant tensor:
#      x y z
#    x 1.942180 0.000000 0.000000 
#    y 0.000000 1.909710 0.000000 
#    z 0.000000 0.000000 2.069110 
# 
# From -- ./inp_files/10570.got.cif
#   From: 2010.05.17/outbox.cif.g08.bks.cpg/sg52_6_cif.got.tgz:10570.got - 2010.06.03 12:15:38.
