data_PCOD9410522
_publ_section_title
;
Structure prediction by ZEFSAII (Michael W. Deem and Ramdas Pophale) SiO2 
 PCOD9410522
Probable space group: P N N A
;
_chemical_formula_sum "Si O2"
_cell_formula_units_Z 60
_cell_length_a 31.057792
_cell_length_b 7.959092
_cell_length_c 12.870262
_cell_angle_alpha 90.000000
_cell_angle_beta 90.000000
_cell_angle_gamma 90.000000
_cell_volume 3181.423537
_symmetry_space_group_name_H-M "P N N A"
_symmetry_group_IT_number 52
_symmetry_cell_setting 'orthorhombic'
loop_
_space_group_symop_operation_xyz
x,y,z
1/2-x,-y,z
x,1/2-y,1/2-z
1/2-x,1/2+y,1/2-z
-x,-y,-z
1/2+x,y,-z
-x,1/2+y,1/2+z
1/2+x,1/2-y,1/2+z
loop_
_atom_site_type_symbol
_atom_site_label
_atom_site_fract_x
_atom_site_fract_y
_atom_site_fract_z
Si Si1 0.253830 0.701630 0.128770
Si Si2 0.159311 0.713615 0.127552
Si Si3 0.152606 0.311289 0.130063
Si Si4 0.562793 0.192626 0.956569
Si Si5 0.992344 0.979301 0.780119
Si Si6 0.510642 0.820510 0.585659
Si Si7 0.912477 0.328182 0.470417
Si Si8 0.073383 0.750000 0.750000
O O1 0.250000 0.500000 0.120555
O O2 0.255153 0.750000 0.250000
O O3 0.207488 0.767899 0.092280
O O4 0.300882 0.753311 0.087636
O O5 0.153780 0.750000 0.250000
O O6 0.154520 0.512658 0.121598
O O7 0.124030 0.802370 0.056668
O O8 0.149340 0.250000 0.250000
O O9 0.110083 0.253041 0.072215
O O10 0.536237 0.144179 0.851480
O O11 0.534650 0.320471 0.025593
O O12 0.569760 0.017828 0.019393
O O13 0.976633 0.034472 0.666137
O O14 0.992158 0.150172 0.846237
O O15 0.039546 0.904264 0.759664
O O16 0.547471 0.788508 0.502209
O O17 0.899706 0.269321 0.355342
#
# Coordination Sequence:
#
# PCOD9410522 Si02
#       8
#     8   8   8   8   8   8   8   4
#     4   8  16  34  52  78 113 142 170 216 280 347
#     4  10  21  36  57  84 113 145 180 225 285 339
#     4  10  21  32  55  84 114 145 178 223 282 347
#     4  11  21  39  52  83 114 148 192 236 279 331
#     4  10  22  36  56  73 106 152 183 241 271 325
#     4  10  21  39  55  73 108 152 195 223 289 317
#     4  11  23  36  54  79 111 151 188 236 272 327
#     4  12  22  38  52  76 112 146 198 224 272 314
#
# _framework density 18.859483000000001
#
# number of rings (size 3 to 8) (size 9 to 14) (size 15 to 20)
#    0.000    1.867    2.667    1.600    8.400    1.600 
#    0.000    0.000    0.000    0.000    0.000    7.467 
#    0.000    0.000    0.000    0.000    0.000    0.000 
#
# Total GULP energy -334737.790218 kJ/mol
# GULP energy per Si atom -5578.963170 kJ/mol
# Density = 1.881656 g / cm^3
# Si number density = 18.859483 Si / 1000 Ang^3
#
#
#
# Elastic Constant Matrix: (Units=GPa)
#
#
# Indices 1 2 3 4 5 6 
#
# 1 121.3503 3.0594 39.3234 0.0000 0.0000 0.0000
# 2 3.0594 41.6608 18.2378 0.0000 0.0000 0.0000
# 3 39.3234 18.2378 97.1710 0.0000 0.0000 0.0000
# 4 0.0000 0.0000 0.0000 19.6346 0.0000 0.0000
# 5 0.0000 0.0000 0.0000 0.0000 18.1293 0.0000
# 6 0.0000 0.0000 0.0000 0.0000 0.0000 6.8839
#
#
#
# Elastic Compliance Matrix: (Units=1/GPa)
#
#
# Indices 1 2 3 4 5 6 
#
# 1 0.009528 0.001077 -0.004058 0.000000 0.000000 0.000000
# 2 0.001077 0.026274 -0.005367 0.000000 0.000000 0.000000
# 3 -0.004058 -0.005367 0.012941 0.000000 0.000000 0.000000
# 4 0.000000 0.000000 0.000000 0.050931 0.000000 0.000000
# 5 0.000000 0.000000 0.000000 0.000000 0.055159 0.000000
# 6 0.000000 0.000000 0.000000 0.000000 0.000000 0.145267
#
#
# Mechanical properties :
#
#
# Convention : Reuss Voigt Hill
#
# Bulk Modulus (GPa) = 31.20485 42.38038 36.79261
# Shear Modulus (GPa) = 15.26818 22.23364 18.75091
#
# Velocity S-wave (km/s) = 2.84839 3.43725 3.15658
# Velocity P-wave (km/s) = 5.23447 6.18655 5.73032
#
# Compressibility (1/GPa) = 0.03204630
#
# Stress axis : x y z
#
# Youngs Moduli (GPa) = 104.94851 38.06067 77.27552
#
# Poissons Ratio (x) = -0.04098 0.31359
# Poissons Ratio (y) = -0.11301 0.41474
# Poissons Ratio (z) = 0.42589 0.20427
#
# Static dielectric constant tensor:
#      x y z
#    x 1.676680 0.000000 0.000000 
#    y 0.000000 1.737530 0.000000 
#    z 0.000000 0.000000 1.677040 
# 
# From -- ./inp_files/23162.got.cif
#   From: 2010.05.17/outbox.cif.g08.bks.cpg/sg52_12_cif.got.tgz:23162.got - 2010.06.03 12:15:38.
