data_PCOD9410676
_publ_section_title
;
Structure prediction by ZEFSAII (Michael W. Deem and Ramdas Pophale) SiO2 
 PCOD9410676
Probable space group: P N N A
;
_chemical_formula_sum "Si O2"
_cell_formula_units_Z 40
_cell_length_a 10.228075
_cell_length_b 23.922150
_cell_length_c 7.349284
_cell_angle_alpha 90.000000
_cell_angle_beta 90.000000
_cell_angle_gamma 90.000000
_cell_volume 1798.204762
_symmetry_space_group_name_H-M "P N N A"
_symmetry_group_IT_number 52
_symmetry_cell_setting 'orthorhombic'
loop_
_space_group_symop_operation_xyz
x,y,z
1/2-x,-y,z
x,1/2-y,1/2-z
1/2-x,1/2+y,1/2-z
-x,-y,-z
1/2+x,y,-z
-x,1/2+y,1/2+z
1/2+x,1/2-y,1/2+z
loop_
_atom_site_type_symbol
_atom_site_label
_atom_site_fract_x
_atom_site_fract_y
_atom_site_fract_z
Si Si1 0.327232 0.809615 0.845758
Si Si2 0.000000 0.500000 0.500000
Si Si3 0.470029 0.426202 0.858393
Si Si4 0.834445 0.927890 0.324817
Si Si5 0.473457 0.311075 0.669654
Si Si6 0.750000 0.500000 0.496953
O O1 0.352150 0.750000 0.750000
O O2 0.345480 0.862553 0.714576
O O3 0.175272 0.811245 0.903078
O O4 0.422590 0.819678 0.012451
O O5 0.016475 0.455982 0.325409
O O6 0.136839 0.536074 0.421299
O O7 0.315444 0.439359 0.881128
O O8 0.481822 0.359973 0.818935
O O9 0.559746 0.443064 0.026802
O O10 0.850441 0.963151 0.132708
O O11 0.497344 0.250000 0.750000
#
# Coordination Sequence:
#
# PCOD9410676 Si02
#       6
#     8   4   8   8   8   4
#     4  10  21  37  57  84 116 149 193 243 295 359
#     4  10  22  38  58  82 114 152 192 240 290 350
#     4  10  22  39  59  86 118 154 199 246 300 360
#     4  10  22  38  57  84 115 149 194 243 292 355
#     4  10  21  37  58  85 117 153 195 245 300 361
#     4  10  22  38  56  84 114 148 194 236 288 348
#
# _framework density 22.244409000000001
#
# number of rings (size 3 to 8) (size 9 to 14) (size 15 to 20)
#    0.000    2.000    0.000    2.400    0.000    8.000 
#    0.000    0.000    0.000    0.000    0.000    0.000 
#    0.000    0.000    0.000    0.000    0.000    0.000 
#
# Total GULP energy -222836.472719 kJ/mol
# GULP energy per Si atom -5570.911818 kJ/mol
# Density = 2.219378 g / cm^3
# Si number density = 22.244409 Si / 1000 Ang^3
#
#
#
# Elastic Constant Matrix: (Units=GPa)
#
#
# Indices 1 2 3 4 5 6 
#
# 1 132.1969 18.7513 83.2843 0.0000 0.0000 0.0000
# 2 18.7513 129.2717 26.2714 0.0000 0.0000 0.0000
# 3 83.2843 26.2714 88.7070 0.0000 0.0000 0.0000
# 4 0.0000 0.0000 0.0000 17.3777 0.0000 0.0000
# 5 0.0000 0.0000 0.0000 0.0000 47.5240 0.0000
# 6 0.0000 0.0000 0.0000 0.0000 0.0000 32.5772
#
#
#
# Elastic Compliance Matrix: (Units=1/GPa)
#
#
# Indices 1 2 3 4 5 6 
#
# 1 0.018616 0.000906 -0.017747 0.000000 0.000000 0.000000
# 2 0.000906 0.008275 -0.003302 0.000000 0.000000 0.000000
# 3 -0.017747 -0.003302 0.028913 0.000000 0.000000 0.000000
# 4 0.000000 0.000000 0.000000 0.057545 0.000000 0.000000
# 5 0.000000 0.000000 0.000000 0.000000 0.021042 0.000000
# 6 0.000000 0.000000 0.000000 0.000000 0.000000 0.030696
#
#
# Mechanical properties :
#
#
# Convention : Reuss Voigt Hill
#
# Bulk Modulus (GPa) = 64.43268 67.42106 65.92687
# Shear Modulus (GPa) = 23.74784 34.28702 29.01743
#
# Velocity S-wave (km/s) = 3.27094 3.93030 3.61568
# Velocity P-wave (km/s) = 6.57982 7.13942 6.86533
#
# Compressibility (1/GPa) = 0.01552008
#
# Stress axis : x y z
#
# Youngs Moduli (GPa) = 53.71599 120.84351 34.58677
#
# Poissons Ratio (x) = -0.10951 0.61380
# Poissons Ratio (y) = -0.04868 0.11419
# Poissons Ratio (z) = 0.95329 0.39898
#
# Static dielectric constant tensor:
#      x y z
#    x 9.179380 0.000000 0.000000 
#    y 0.000000 1.921910 0.000000 
#    z 0.000000 0.000000 2.084200 
# 
# From -- ./inp_files/1441.got.cif
#   From: 2010.05.17/outbox.cif.g08.bks.cpg/sg52_1_cif.got.tgz:1441.got - 2010.06.03 12:15:38.
