data_PCOD9410693
_publ_section_title
;
Structure prediction by ZEFSAII (Michael W. Deem and Ramdas Pophale) SiO2 
 PCOD9410693
Probable space group: P N N A
;
_chemical_formula_sum "Si O2"
_cell_formula_units_Z 28
_cell_length_a 10.119687
_cell_length_b 7.855869
_cell_length_c 17.037752
_cell_angle_alpha 90.000000
_cell_angle_beta 90.000000
_cell_angle_gamma 90.000000
_cell_volume 1354.483145
_symmetry_space_group_name_H-M "P N N A"
_symmetry_group_IT_number 52
_symmetry_cell_setting 'orthorhombic'
loop_
_space_group_symop_operation_xyz
x,y,z
1/2-x,-y,z
x,1/2-y,1/2-z
1/2-x,1/2+y,1/2-z
-x,-y,-z
1/2+x,y,-z
-x,1/2+y,1/2+z
1/2+x,1/2-y,1/2+z
loop_
_atom_site_type_symbol
_atom_site_label
_atom_site_fract_x
_atom_site_fract_y
_atom_site_fract_z
Si Si1 0.400949 0.663526 0.075280
Si Si2 0.880601 0.266577 0.963035
Si Si3 0.561511 0.250000 0.750000
Si Si4 0.602309 0.582791 0.696765
O O1 0.276859 0.733336 0.026086
O O2 0.408915 0.459683 0.067292
O O3 0.373787 0.702985 0.165908
O O4 0.532557 0.747420 0.040783
O O5 0.914674 0.136535 0.893521
O O6 0.503297 0.434366 0.726147
O O7 0.750000 0.500000 0.706848
O O8 0.592012 0.750000 0.750000
#
# Coordination Sequence:
#
# PCOD9410693 Si02
#       4
#     8   8   4   8
#     4  10  21  37  62  84 120 154 194 240 296 341
#     4  10  21  37  58  88 120 153 191 243 294 347
#     4  12  22  36  62  88 114 156 202 246 286 348
#     4  12  20  33  58  91 119 147 201 250 288 340
#
# _framework density 20.672091999999999
#
# number of rings (size 3 to 8) (size 9 to 14) (size 15 to 20)
#    0.000    1.143    7.143    0.000    0.000    1.143 
#    0.000    0.000    3.143    0.000    0.000    0.000 
#    0.000    0.000    0.000    0.000    0.000    0.000 
#
# Total GULP energy -155911.708352 kJ/mol
# GULP energy per Si atom -5568.275298 kJ/mol
# Density = 2.062504 g / cm^3
# Si number density = 20.672092 Si / 1000 Ang^3
#
#
#
# Elastic Constant Matrix: (Units=GPa)
#
#
# Indices 1 2 3 4 5 6 
#
# 1 61.5653 7.5450 45.1780 0.0000 0.0000 0.0000
# 2 7.5450 125.1751 27.7482 0.0000 0.0000 0.0000
# 3 45.1780 27.7482 89.6889 0.0000 0.0000 0.0000
# 4 0.0000 0.0000 0.0000 41.0009 0.0000 0.0000
# 5 0.0000 0.0000 0.0000 0.0000 15.1836 0.0000
# 6 0.0000 0.0000 0.0000 0.0000 0.0000 9.5766
#
#
#
# Elastic Compliance Matrix: (Units=1/GPa)
#
#
# Indices 1 2 3 4 5 6 
#
# 1 0.026005 0.001435 -0.013543 0.000000 0.000000 0.000000
# 2 0.001435 0.008656 -0.003401 0.000000 0.000000 0.000000
# 3 -0.013543 -0.003401 0.019024 0.000000 0.000000 0.000000
# 4 0.000000 0.000000 0.000000 0.024390 0.000000 0.000000
# 5 0.000000 0.000000 0.000000 0.000000 0.065861 0.000000
# 6 0.000000 0.000000 0.000000 0.000000 0.000000 0.104421
#
#
# Mechanical properties :
#
#
# Convention : Reuss Voigt Hill
#
# Bulk Modulus (GPa) = 44.11749 48.59683 46.35716
# Shear Modulus (GPa) = 17.42578 26.21608 21.82093
#
# Velocity S-wave (km/s) = 2.90653 3.56503 3.25249
# Velocity P-wave (km/s) = 5.71417 6.36438 6.04802
#
# Compressibility (1/GPa) = 0.02266675
#
# Stress axis : x y z
#
# Youngs Moduli (GPa) = 38.45341 115.52420 52.56563
#
# Poissons Ratio (x) = -0.16575 0.71191
# Poissons Ratio (y) = -0.05517 0.17876
# Poissons Ratio (z) = 0.52079 0.39287
#
# Static dielectric constant tensor:
#      x y z
#    x 1.777050 0.000000 0.000000 
#    y 0.000000 1.868390 0.000000 
#    z 0.000000 0.000000 1.696020 
# 
# From -- ./inp_files/31815.got.cif
#   From: 2010.05.17/outbox.cif.g08.bks.cpg/sg52_16_cif.got.tgz:31815.got - 2010.06.03 12:15:38.
