data_PCOD9410373
_publ_section_title
;
Structure prediction by ZEFSAII (Michael W. Deem and Ramdas Pophale) SiO2 
 PCOD9410373
Probable space group: P N N A
;
_chemical_formula_sum "Si O2"
_cell_formula_units_Z 48
_cell_length_a 9.011871
_cell_length_b 9.072931
_cell_length_c 29.691694
_cell_angle_alpha 90.000000
_cell_angle_beta 90.000000
_cell_angle_gamma 90.000000
_cell_volume 2427.714155
_symmetry_space_group_name_H-M "P N N A"
_symmetry_group_IT_number 52
_symmetry_cell_setting 'orthorhombic'
loop_
_space_group_symop_operation_xyz
x,y,z
1/2-x,-y,z
x,1/2-y,1/2-z
1/2-x,1/2+y,1/2-z
-x,-y,-z
1/2+x,y,-z
-x,1/2+y,1/2+z
1/2+x,1/2-y,1/2+z
loop_
_atom_site_type_symbol
_atom_site_label
_atom_site_fract_x
_atom_site_fract_y
_atom_site_fract_z
Si Si1 0.700440 0.166066 0.616251
Si Si2 0.159192 0.846509 0.613931
Si Si3 0.378382 0.390722 0.544446
Si Si4 0.824540 0.657058 0.707080
Si Si5 0.178872 0.662067 0.705060
Si Si6 0.115181 0.886541 0.055367
O O1 0.521688 0.151901 0.608310
O O2 0.715573 0.258254 0.661769
O O3 0.812274 0.247269 0.581010
O O4 0.750000 0.000000 0.622389
O O5 0.194392 0.740502 0.572198
O O6 0.199621 0.762902 0.660559
O O7 0.250000 0.000000 0.612164
O O8 0.250000 0.500000 0.531989
O O9 0.439306 0.342453 0.495281
O O10 0.488236 0.498553 0.572695
O O11 0.750000 0.500000 0.707166
O O12 0.774161 0.750000 0.750000
O O13 0.001981 0.641102 0.709516
O O14 0.250000 0.500000 0.701109
O O15 0.230624 0.750000 0.750000
O O16 0.250000 0.000000 0.055681
#
# Coordination Sequence:
#
# PCOD9410373 Si02
#       6
#     8   8   8   8   8   8
#     4  11  24  39  61  87 122 166 202 250 314 367
#     4  11  24  40  58  90 126 157 206 257 304 370
#     4  10  22  38  64  91 117 157 204 257 307 366
#     4  10  22  39  62  91 123 157 204 253 300 364
#     4  10  22  40  63  90 122 161 202 249 306 363
#     4  10  20  41  63  87 120 158 207 251 307 371
#
# _framework density 19.771685999999999
#
# number of rings (size 3 to 8) (size 9 to 14) (size 15 to 20)
#    0.000    1.667    1.667    2.000    4.667    2.667 
#    0.000    1.667    0.000    0.000    0.000    0.000 
#    0.000    0.000    0.000    0.000    0.000    0.000 
#
# Total GULP energy -267240.922622 kJ/mol
# GULP energy per Si atom -5567.519221 kJ/mol
# Density = 1.972669 g / cm^3
# Si number density = 19.771686 Si / 1000 Ang^3
#
#
#
# Elastic Constant Matrix: (Units=GPa)
#
#
# Indices 1 2 3 4 5 6 
#
# 1 42.7441 49.4965 24.4095 0.0000 0.0000 0.0000
# 2 49.4965 188.5054 69.8734 0.0000 0.0000 0.0000
# 3 24.4095 69.8734 92.2261 0.0000 0.0000 0.0000
# 4 0.0000 0.0000 0.0000 54.5645 0.0000 0.0000
# 5 0.0000 0.0000 0.0000 0.0000 2.6457 0.0000
# 6 0.0000 0.0000 0.0000 0.0000 0.0000 28.1484
#
#
#
# Elastic Compliance Matrix: (Units=1/GPa)
#
#
# Indices 1 2 3 4 5 6 
#
# 1 0.034254 -0.007834 -0.003131 0.000000 0.000000 0.000000
# 2 -0.007834 0.009168 -0.004873 0.000000 0.000000 0.000000
# 3 -0.003131 -0.004873 0.015363 0.000000 0.000000 0.000000
# 4 0.000000 0.000000 0.000000 0.018327 0.000000 0.000000
# 5 0.000000 0.000000 0.000000 0.000000 0.377969 0.000000
# 6 0.000000 0.000000 0.000000 0.000000 0.000000 0.035526
#
#
# Mechanical properties :
#
#
# Convention : Reuss Voigt Hill
#
# Bulk Modulus (GPa) = 36.88566 67.89270 52.38918
# Shear Modulus (GPa) = 9.41054 29.05147 19.23100
#
# Velocity S-wave (km/s) = 2.18402 3.83736 3.12212
# Velocity P-wave (km/s) = 5.00562 7.35165 6.28900
#
# Compressibility (1/GPa) = 0.02711080
#
# Stress axis : x y z
#
# Youngs Moduli (GPa) = 29.19352 109.07609 65.09057
#
# Poissons Ratio (x) = 0.85446 0.20380
# Poissons Ratio (y) = 0.22869 0.31716
# Poissons Ratio (z) = 0.09141 0.53148
#
# Static dielectric constant tensor:
#      x y z
#    x 2.368030 0.000000 0.000000 
#    y 0.000000 1.681400 0.000000 
#    z 0.000000 0.000000 1.740460 
# 
# From -- ./inp_files/44390.got.cif
#   From: 2010.05.17/outbox.cif.g08.bks.cpg/sg52_23_cif.got.tgz:44390.got - 2010.06.03 12:15:38.
