data_PCOD9410396
_publ_section_title
;
Structure prediction by ZEFSAII (Michael W. Deem and Ramdas Pophale) SiO2 
 PCOD9410396
Probable space group: P N N A
;
_chemical_formula_sum "Si O2"
_cell_formula_units_Z 52
_cell_length_a 16.002088
_cell_length_b 15.590339
_cell_length_c 9.096352
_cell_angle_alpha 90.000000
_cell_angle_beta 90.000000
_cell_angle_gamma 90.000000
_cell_volume 2269.339492
_symmetry_space_group_name_H-M "P N N A"
_symmetry_group_IT_number 52
_symmetry_cell_setting 'orthorhombic'
loop_
_space_group_symop_operation_xyz
x,y,z
1/2-x,-y,z
x,1/2-y,1/2-z
1/2-x,1/2+y,1/2-z
-x,-y,-z
1/2+x,y,-z
-x,1/2+y,1/2+z
1/2+x,1/2-y,1/2+z
loop_
_atom_site_type_symbol
_atom_site_label
_atom_site_fract_x
_atom_site_fract_y
_atom_site_fract_z
Si Si1 0.147995 0.418286 0.302269
Si Si2 0.211281 0.250000 0.750000
Si Si3 0.548202 0.800409 0.878517
Si Si4 0.359758 0.319822 0.906276
Si Si5 0.169414 0.062701 0.853569
Si Si6 0.313112 0.392993 0.188838
Si Si7 0.041656 0.911052 0.842817
O O1 0.169620 0.413249 0.474198
O O2 0.217495 0.365628 0.214045
O O3 0.166524 0.514828 0.253769
O O4 0.050667 0.402982 0.276117
O O5 0.276211 0.264411 0.884729
O O6 0.171092 0.155099 0.771859
O O7 0.495964 0.750000 0.750000
O O8 0.626495 0.833298 0.783810
O O9 0.571463 0.730672 0.000877
O O10 0.529376 0.880299 0.987881
O O11 0.397065 0.350855 0.752774
O O12 0.334278 0.395259 0.016963
O O13 0.250000 0.000000 0.823589
O O14 0.087700 0.002907 0.830116
#
# Coordination Sequence:
#
# PCOD9410396 Si02
#       7
#     8   4   8   8   8   8   8
#     4  11  23  42  70 102 140 187 243 292 369 443
#     4  12  24  42  72 104 142 186 252 296 366 446
#     4  10  20  41  70 100 140 187 238 285 357 436
#     4  11  22  41  69 101 136 182 235 302 356 429
#     4  12  22  43  72 102 142 195 243 294 369 449
#     4  10  22  41  70  97 134 193 240 286 358 444
#     4  12  23  42  73 104 141 190 237 307 369 425
#
# _framework density 22.914158
#
# number of rings (size 3 to 8) (size 9 to 14) (size 15 to 20)
#    0.000    0.923    6.154    1.385    0.000    3.077 
#    1.385    7.692    0.000    0.000    0.000    0.000 
#    0.000    0.000    0.000    0.000    0.000    0.000 
#
# Total GULP energy -289785.312596 kJ/mol
# GULP energy per Si atom -5572.794473 kJ/mol
# Density = 2.286200 g / cm^3
# Si number density = 22.914158 Si / 1000 Ang^3
#
#
#
# Elastic Constant Matrix: (Units=GPa)
#
#
# Indices 1 2 3 4 5 6 
#
# 1 112.5478 38.8030 21.8236 0.0000 0.0000 0.0000
# 2 38.8030 111.5392 27.9616 0.0000 0.0000 0.0000
# 3 21.8236 27.9616 98.9207 0.0000 0.0000 0.0000
# 4 0.0000 0.0000 0.0000 35.0390 0.0000 0.0000
# 5 0.0000 0.0000 0.0000 0.0000 -11.7738 0.0000
# 6 0.0000 0.0000 0.0000 0.0000 0.0000 -70.5408
#
#
#
# Elastic Compliance Matrix: (Units=1/GPa)
#
#
# Indices 1 2 3 4 5 6 
#
# 1 0.010261 -0.003231 -0.001350 0.000000 0.000000 0.000000
# 2 -0.003231 0.010667 -0.002302 0.000000 0.000000 0.000000
# 3 -0.001350 -0.002302 0.011058 0.000000 0.000000 0.000000
# 4 0.000000 0.000000 0.000000 0.028540 0.000000 0.000000
# 5 0.000000 0.000000 0.000000 0.000000 -0.084934 0.000000
# 6 0.000000 0.000000 0.000000 0.000000 0.000000 -0.014176
#
#
# Mechanical properties :
#
#
# Convention : Reuss Voigt Hill
#
# Bulk Modulus (GPa) = 54.89127 55.57600 55.23364
# Shear Modulus (GPa) = -266.73464 6.17285 -130.28090
#
# Velocity S-wave (km/s) = -10.80087 1.64309 -7.54848
# Velocity P-wave (km/s) = 11.46899 5.28264 7.19832
#
# Compressibility (1/GPa) = 0.01821783
#
# Stress axis : x y z
#
# Youngs Moduli (GPa) = 97.45682 93.74994 90.43381
#
# Poissons Ratio (x) = 0.30292 0.12212
# Poissons Ratio (y) = 0.31489 0.20820
# Poissons Ratio (z) = 0.13161 0.21584
#
# Static dielectric constant tensor:
#      x y z
#    x 1.956160 0.000000 0.000000 
#    y 0.000000 3.034630 0.000000 
#    z 0.000000 0.000000 1.867140 
# 
# From -- ./inp_files/12364.got.cif
#   From: 2010.05.17/outbox.cif.g08.bks.cpg/sg52_7_cif.got.tgz:12364.got - 2010.06.03 12:15:38.
