data_PCOD9410003
_publ_section_title
;
Structure prediction by ZEFSAII (Michael W. Deem and Ramdas Pophale) SiO2 
 PCOD9410003
Probable space group: P N N A
;
_chemical_formula_sum "Si O2"
_cell_formula_units_Z 44
_cell_length_a 14.335772
_cell_length_b 23.751774
_cell_length_c 5.248683
_cell_angle_alpha 90.000000
_cell_angle_beta 90.000000
_cell_angle_gamma 90.000000
_cell_volume 1787.176649
_symmetry_space_group_name_H-M "P N N A"
_symmetry_group_IT_number 52
_symmetry_cell_setting 'orthorhombic'
loop_
_space_group_symop_operation_xyz
x,y,z
1/2-x,-y,z
x,1/2-y,1/2-z
1/2-x,1/2+y,1/2-z
-x,-y,-z
1/2+x,y,-z
-x,1/2+y,1/2+z
1/2+x,1/2-y,1/2+z
loop_
_atom_site_type_symbol
_atom_site_label
_atom_site_fract_x
_atom_site_fract_y
_atom_site_fract_z
Si Si1 0.060224 0.283846 0.495007
Si Si2 0.754104 0.890980 0.490087
Si Si3 0.404635 0.162447 0.733749
Si Si4 0.894688 0.062493 0.883274
Si Si5 0.950193 0.621458 0.153713
Si Si6 0.750000 0.500000 0.370277
O O1 0.078783 0.250000 0.750000
O O2 0.949997 0.293468 0.426871
O O3 0.086268 0.346959 0.591212
O O4 0.099727 0.250000 0.250000
O O5 0.701827 0.838171 0.356084
O O6 0.688083 0.906701 0.725276
O O7 0.862724 0.882594 0.531208
O O8 0.753341 0.945063 0.303631
O O9 0.473016 0.159663 0.491118
O O10 0.414681 0.101835 0.873824
O O11 0.990145 0.065846 0.723783
O O12 0.844439 0.005286 0.964111
#
# Coordination Sequence:
#
# PCOD9410003 Si02
#       6
#     8   8   8   8   8   4
#     4  11  21  40  68  93 130 170 210 260 318 381
#     4  10  21  39  62  91 123 167 214 264 316 389
#     4   9  20  39  61  89 124 164 206 258 321 376
#     4   9  20  37  60  87 125 167 207 262 322 373
#     4  10  21  39  65  93 126 169 211 265 327 380
#     4  10  20  38  58  88 128 164 216 264 314 394
#
# _framework density 24.619838000000001
#
# number of rings (size 3 to 8) (size 9 to 14) (size 15 to 20)
#    0.000    2.182    1.818    0.545    0.000    6.545 
#    0.000   14.545    0.000    0.000    0.000    0.000 
#    0.000    0.000    0.000    0.000    0.000    0.000 
#
# Total GULP energy -245161.710542 kJ/mol
# GULP energy per Si atom -5571.857058 kJ/mol
# Density = 2.456380 g / cm^3
# Si number density = 24.619838 Si / 1000 Ang^3
#
#
#
# Elastic Constant Matrix: (Units=GPa)
#
#
# Indices 1 2 3 4 5 6 
#
# 1 116.9596 10.3825 24.4836 0.0000 0.0000 0.0000
# 2 10.3825 28.8259 9.0658 0.0000 0.0000 0.0000
# 3 24.4836 9.0658 116.3997 0.0000 0.0000 0.0000
# 4 0.0000 0.0000 0.0000 32.8499 0.0000 0.0000
# 5 0.0000 0.0000 0.0000 0.0000 2.6143 0.0000
# 6 0.0000 0.0000 0.0000 0.0000 0.0000 11.8952
#
#
#
# Elastic Compliance Matrix: (Units=1/GPa)
#
#
# Indices 1 2 3 4 5 6 
#
# 1 0.009153 -0.002759 -0.001710 0.000000 0.000000 0.000000
# 2 -0.002759 0.036394 -0.002254 0.000000 0.000000 0.000000
# 3 -0.001710 -0.002254 0.009126 0.000000 0.000000 0.000000
# 4 0.000000 0.000000 0.000000 0.030442 0.000000 0.000000
# 5 0.000000 0.000000 0.000000 0.000000 0.382506 0.000000
# 6 0.000000 0.000000 0.000000 0.000000 0.000000 0.084067
#
#
# Mechanical properties :
#
#
# Convention : Reuss Voigt Hill
#
# Bulk Modulus (GPa) = 24.25640 38.89435 31.57538
# Shear Modulus (GPa) = 8.63742 24.02210 16.32976
#
# Velocity S-wave (km/s) = 1.87508 3.12704 2.57821
# Velocity P-wave (km/s) = 3.81598 5.37309 4.66003
#
# Compressibility (1/GPa) = 0.04122623
#
# Stress axis : x y z
#
# Youngs Moduli (GPa) = 109.25502 27.47728 109.57203
#
# Poissons Ratio (x) = 0.07580 0.18741
# Poissons Ratio (y) = 0.30141 0.24700
# Poissons Ratio (z) = 0.18687 0.06194
#
# Static dielectric constant tensor:
#      x y z
#    x 1.988650 0.000000 0.000000 
#    y 0.000000 2.085900 0.000000 
#    z 0.000000 0.000000 2.036540 
# 
# From -- ./inp_files/2380.got.cif
#   From: 2010.05.17/outbox.cif.g08.bks.cpg/sg52_2_cif.got.tgz:2380.got - 2010.06.03 12:15:38.
