data_PCOD9410568
_publ_section_title
;
Structure prediction by ZEFSAII (Michael W. Deem and Ramdas Pophale) SiO2 
 PCOD9410568
Probable space group: P N N A
;
_chemical_formula_sum "Si O2"
_cell_formula_units_Z 60
_cell_length_a 5.717271
_cell_length_b 18.399637
_cell_length_c 27.436243
_cell_angle_alpha 90.000000
_cell_angle_beta 90.000000
_cell_angle_gamma 90.000000
_cell_volume 2886.175090
_symmetry_space_group_name_H-M "P N N A"
_symmetry_group_IT_number 52
_symmetry_cell_setting 'orthorhombic'
loop_
_space_group_symop_operation_xyz
x,y,z
1/2-x,-y,z
x,1/2-y,1/2-z
1/2-x,1/2+y,1/2-z
-x,-y,-z
1/2+x,y,-z
-x,1/2+y,1/2+z
1/2+x,1/2-y,1/2+z
loop_
_atom_site_type_symbol
_atom_site_label
_atom_site_fract_x
_atom_site_fract_y
_atom_site_fract_z
Si Si1 0.890998 0.935380 0.399024
Si Si2 0.573267 0.680280 0.972051
Si Si3 0.585636 0.794798 0.890661
Si Si4 0.463061 0.804163 0.182730
Si Si5 0.788504 0.679908 0.173071
Si Si6 0.347706 0.576936 0.660197
Si Si7 0.250000 0.500000 0.177608
Si Si8 0.134018 0.888169 0.249457
O O1 0.050055 0.886793 0.434057
O O2 0.729874 0.878634 0.368836
O O3 0.043902 0.974341 0.357419
O O4 0.750000 0.000000 0.424736
O O5 0.568157 0.756382 0.942506
O O6 0.826763 0.675634 0.998232
O O7 0.849139 0.798244 0.870951
O O8 0.452182 0.739076 0.854197
O O9 0.474485 0.873843 0.880834
O O10 0.577376 0.726997 0.192974
O O11 0.645800 0.870116 0.180863
O O12 0.263723 0.825634 0.220245
O O13 0.931058 0.643315 0.216379
O O14 0.250000 0.500000 0.643185
O O15 0.520918 0.564224 0.706036
O O16 0.299640 0.566293 0.214491
#
# Coordination Sequence:
#
# PCOD9410568 Si02
#       8
#     8   8   8   8   8   8   4   8
#     4  10  24  42  65  93 128 177 221 274 350 398
#     4  11  27  47  78 105 133 165 224 288 344 425
#     4   9  22  40  62  94 121 169 209 264 348 393
#     4  10  21  37  62  80 133 165 220 276 320 393
#     4   9  21  37  55  86 123 168 225 273 318 390
#     4  10  21  36  59  93 130 168 220 264 321 398
#     4  10  22  40  58  82 142 176 228 272 324 398
#     4  10  21  35  54  92 120 179 227 265 324 377
#
# _framework density 20.788758999999999
#
# number of rings (size 3 to 8) (size 9 to 14) (size 15 to 20)
#    0.000    2.133    0.000    0.800    7.467   15.467 
#    0.000    2.667    0.000    0.800    0.000    0.000 
#    0.000    0.000    0.000    0.000    0.000    0.000 
#
# Total GULP energy -335084.520697 kJ/mol
# GULP energy per Si atom -5584.742012 kJ/mol
# Density = 2.074144 g / cm^3
# Si number density = 20.788759 Si / 1000 Ang^3
#
#
#
# Elastic Constant Matrix: (Units=GPa)
#
#
# Indices 1 2 3 4 5 6 
#
# 1 60.1890 27.4466 37.8682 0.0000 0.0000 0.0000
# 2 27.4466 118.9606 38.6478 0.0000 0.0000 0.0000
# 3 37.8682 38.6478 72.0208 0.0000 0.0000 0.0000
# 4 0.0000 0.0000 0.0000 18.1142 0.0000 0.0000
# 5 0.0000 0.0000 0.0000 0.0000 29.9540 0.0000
# 6 0.0000 0.0000 0.0000 0.0000 0.0000 27.6574
#
#
#
# Elastic Compliance Matrix: (Units=1/GPa)
#
#
# Indices 1 2 3 4 5 6 
#
# 1 0.025150 -0.001825 -0.012245 0.000000 0.000000 0.000000
# 2 -0.001825 0.010313 -0.004575 0.000000 0.000000 0.000000
# 3 -0.012245 -0.004575 0.022778 0.000000 0.000000 0.000000
# 4 0.000000 0.000000 0.000000 0.055205 0.000000 0.000000
# 5 0.000000 0.000000 0.000000 0.000000 0.033385 0.000000
# 6 0.000000 0.000000 0.000000 0.000000 0.000000 0.036157
#
#
# Mechanical properties :
#
#
# Convention : Reuss Voigt Hill
#
# Bulk Modulus (GPa) = 47.72574 51.01063 49.36818
# Shear Modulus (GPa) = 22.00110 24.95898 23.48004
#
# Velocity S-wave (km/s) = 3.25671 3.46873 3.36439
# Velocity P-wave (km/s) = 6.09499 6.37445 6.23628
#
# Compressibility (1/GPa) = 0.02095305
#
# Stress axis : x y z
#
# Youngs Moduli (GPa) = 39.76109 96.96081 43.90172
#
# Poissons Ratio (x) = 0.17691 0.53757
# Poissons Ratio (y) = 0.07255 0.20085
# Poissons Ratio (z) = 0.48686 0.44360
#
# Static dielectric constant tensor:
#      x y z
#    x 1.808340 0.000000 0.000000 
#    y 0.000000 1.748840 0.000000 
#    z 0.000000 0.000000 1.735540 
# 
# From -- ./inp_files/41817.got.cif
#   From: 2010.05.17/outbox.cif.g08.bks.cpg/sg52_21_cif.got.tgz:41817.got - 2010.06.03 12:15:38.
