data_PCOD9410159
_publ_section_title
;
Structure prediction by ZEFSAII (Michael W. Deem and Ramdas Pophale) SiO2 
 PCOD9410159
Probable space group: P N N A
;
_chemical_formula_sum "Si O2"
_cell_formula_units_Z 36
_cell_length_a 17.922191
_cell_length_b 14.639933
_cell_length_c 5.249677
_cell_angle_alpha 90.000000
_cell_angle_beta 90.000000
_cell_angle_gamma 90.000000
_cell_volume 1377.408547
_symmetry_space_group_name_H-M "P N N A"
_symmetry_group_IT_number 52
_symmetry_cell_setting 'orthorhombic'
loop_
_space_group_symop_operation_xyz
x,y,z
1/2-x,-y,z
x,1/2-y,1/2-z
1/2-x,1/2+y,1/2-z
-x,-y,-z
1/2+x,y,-z
-x,1/2+y,1/2+z
1/2+x,1/2-y,1/2+z
loop_
_atom_site_type_symbol
_atom_site_label
_atom_site_fract_x
_atom_site_fract_y
_atom_site_fract_z
Si Si1 0.730897 0.194671 0.028521
Si Si2 0.463451 0.250000 0.250000
Si Si3 0.462874 0.852324 0.386742
Si Si4 0.613099 0.631847 0.394052
Si Si5 0.169128 0.473819 0.249347
O O1 0.741208 0.250000 0.750000
O O2 0.690124 0.101835 0.957955
O O3 0.689187 0.250000 0.250000
O O4 0.803429 0.156764 0.188830
O O5 0.514461 0.167134 0.324156
O O6 0.411585 0.272703 0.481227
O O7 0.447659 0.750000 0.250000
O O8 0.538799 0.893870 0.261112
O O9 0.394062 0.919854 0.399055
O O10 0.630944 0.560576 0.619515
O O11 0.250000 0.500000 0.130875
#
# Coordination Sequence:
#
# PCOD9410159 Si02
#       5
#     8   4   8   8   8
#     4  11  23  45  70 100 145 194 238 289 362 438
#     4  10  20  38  70  98 130 186 238 300 354 422
#     4  10  21  41  69 100 136 181 240 298 359 431
#     4  10  21  41  69 102 137 182 242 299 360 420
#     4  10  23  44  65 103 144 184 235 297 362 436
#
# _framework density 26.136035
#
# number of rings (size 3 to 8) (size 9 to 14) (size 15 to 20)
#    0.000    1.778    1.111    3.333    0.000    0.889 
#   22.000    3.333    0.000    0.000    0.000    0.000 
#    0.000    0.000    0.000    0.000    0.000    0.000 
#
# Total GULP energy -200592.693455 kJ/mol
# GULP energy per Si atom -5572.019263 kJ/mol
# Density = 2.607655 g / cm^3
# Si number density = 26.136035 Si / 1000 Ang^3
#
#
#
# Elastic Constant Matrix: (Units=GPa)
#
#
# Indices 1 2 3 4 5 6 
#
# 1 145.6544 30.4250 26.0548 0.0000 0.0000 0.0000
# 2 30.4250 74.4876 3.3070 0.0000 0.0000 0.0000
# 3 26.0548 3.3070 75.5564 0.0000 0.0000 0.0000
# 4 0.0000 0.0000 0.0000 29.0055 0.0000 0.0000
# 5 0.0000 0.0000 0.0000 0.0000 46.0441 0.0000
# 6 0.0000 0.0000 0.0000 0.0000 0.0000 47.5512
#
#
#
# Elastic Compliance Matrix: (Units=1/GPa)
#
#
# Indices 1 2 3 4 5 6 
#
# 1 0.007991 -0.003148 -0.002618 0.000000 0.000000 0.000000
# 2 -0.003148 0.014691 0.000443 0.000000 0.000000 0.000000
# 3 -0.002618 0.000443 0.014119 0.000000 0.000000 0.000000
# 4 0.000000 0.000000 0.000000 0.034476 0.000000 0.000000
# 5 0.000000 0.000000 0.000000 0.000000 0.021718 0.000000
# 6 0.000000 0.000000 0.000000 0.000000 0.000000 0.021030
#
#
# Mechanical properties :
#
#
# Convention : Reuss Voigt Hill
#
# Bulk Modulus (GPa) = 38.23448 46.14134 42.18791
# Shear Modulus (GPa) = 37.48390 40.24760 38.86575
#
# Velocity S-wave (km/s) = 3.79117 3.92845 3.86042
# Velocity P-wave (km/s) = 5.81591 6.18624 6.00393
#
# Compressibility (1/GPa) = 0.02615441
#
# Stress axis : x y z
#
# Youngs Moduli (GPa) = 125.13412 68.06799 70.82871
#
# Poissons Ratio (x) = 0.21427 0.18543
# Poissons Ratio (y) = 0.39391 -0.03134
# Poissons Ratio (z) = 0.32760 -0.03012
#
# Static dielectric constant tensor:
#      x y z
#    x 2.069710 0.000000 0.000000 
#    y 0.000000 2.136520 0.000000 
#    z 0.000000 0.000000 2.400250 
# 
# From -- ./inp_files/4101.got.cif
#   From: 2010.05.17/outbox.cif.g08.bks.cpg/sg52_3_cif.got.tgz:4101.got - 2010.06.03 12:15:38.
