data_PCOD9410273
_publ_section_title
;
Structure prediction by ZEFSAII (Michael W. Deem and Ramdas Pophale) SiO2 
 PCOD9410273
Probable space group: P N N A
;
_chemical_formula_sum "Si O2"
_cell_formula_units_Z 48
_cell_length_a 17.783462
_cell_length_b 8.630184
_cell_length_c 15.626390
_cell_angle_alpha 90.000000
_cell_angle_beta 90.000000
_cell_angle_gamma 90.000000
_cell_volume 2398.253161
_symmetry_space_group_name_H-M "P N N A"
_symmetry_group_IT_number 52
_symmetry_cell_setting 'orthorhombic'
loop_
_space_group_symop_operation_xyz
x,y,z
1/2-x,-y,z
x,1/2-y,1/2-z
1/2-x,1/2+y,1/2-z
-x,-y,-z
1/2+x,y,-z
-x,1/2+y,1/2+z
1/2+x,1/2-y,1/2+z
loop_
_atom_site_type_symbol
_atom_site_label
_atom_site_fract_x
_atom_site_fract_y
_atom_site_fract_z
Si Si1 0.818475 0.250000 0.750000
Si Si2 0.626203 0.406905 0.486367
Si Si3 0.374845 0.243836 0.576871
Si Si4 0.271231 0.819569 0.835585
Si Si5 0.971640 0.647821 0.944694
Si Si6 0.162688 0.948932 0.403674
Si Si7 0.250000 0.500000 0.373652
O O1 0.860730 0.145183 0.681057
O O2 0.770917 0.359950 0.688298
O O3 0.613325 0.575634 0.445704
O O4 0.675135 0.310625 0.417639
O O5 0.552693 0.305514 0.506672
O O6 0.680972 0.446015 0.566332
O O7 0.305729 0.230907 0.641399
O O8 0.454547 0.182716 0.610465
O O9 0.351492 0.154351 0.488949
O O10 0.305447 0.750000 0.750000
O O11 0.250000 0.000000 0.824332
O O12 0.892889 0.594323 0.905822
O O13 0.000000 0.500000 0.000000
O O14 0.250000 0.000000 0.399225
#
# Coordination Sequence:
#
# PCOD9410273 Si02
#       7
#     4   8   8   8   8   8   4
#     4  12  22  34  58  92 126 148 210 262 306 372
#     4  11  20  41  65  91 123 167 211 257 321 384
#     4  10  20  40  61  89 123 162 207 253 326 385
#     4  10  21  37  64  93 119 156 213 263 307 362
#     4  10  23  37  63  89 122 168 210 252 323 386
#     4  11  21  38  60  90 121 160 206 264 307 376
#     4  12  22  38  66  96 122 160 208 262 320 372
#
# _framework density 20.014565999999999
#
# number of rings (size 3 to 8) (size 9 to 14) (size 15 to 20)
#    0.000    1.333    5.000    2.500    0.000    3.333 
#    0.000    1.667   14.667    0.000    0.000    0.000 
#    0.000    0.000    0.000    0.000    0.000    0.000 
#
# Total GULP energy -267681.615872 kJ/mol
# GULP energy per Si atom -5576.700331 kJ/mol
# Density = 1.996901 g / cm^3
# Si number density = 20.014566 Si / 1000 Ang^3
#
#
#
# Elastic Constant Matrix: (Units=GPa)
#
#
# Indices 1 2 3 4 5 6 
#
# 1 100.5308 13.8300 14.9779 0.0000 0.0000 0.0000
# 2 13.8300 45.8882 7.8476 0.0000 0.0000 0.0000
# 3 14.9779 7.8476 74.3952 0.0000 0.0000 0.0000
# 4 0.0000 0.0000 0.0000 22.5654 0.0000 0.0000
# 5 0.0000 0.0000 0.0000 0.0000 -2.4020 0.0000
# 6 0.0000 0.0000 0.0000 0.0000 0.0000 38.5285
#
#
#
# Elastic Compliance Matrix: (Units=1/GPa)
#
#
# Indices 1 2 3 4 5 6 
#
# 1 0.010617 -0.002886 -0.001833 0.000000 0.000000 0.000000
# 2 -0.002886 0.022977 -0.001843 0.000000 0.000000 0.000000
# 3 -0.001833 -0.001843 0.014005 0.000000 0.000000 0.000000
# 4 0.000000 0.000000 0.000000 0.044316 0.000000 0.000000
# 5 0.000000 0.000000 0.000000 0.000000 -0.416313 0.000000
# 6 0.000000 0.000000 0.000000 0.000000 0.000000 0.025955
#
#
# Mechanical properties :
#
#
# Convention : Reuss Voigt Hill
#
# Bulk Modulus (GPa) = 29.00621 32.68057 30.84339
# Shear Modulus (GPa) = -18.25975 24.01562 2.87793
#
# Velocity S-wave (km/s) = -3.02375 3.46773 1.20043
# Velocity P-wave (km/s) = 1.52751 5.69187 4.16717
#
# Compressibility (1/GPa) = 0.03447538
#
# Stress axis : x y z
#
# Youngs Moduli (GPa) = 94.18507 43.52150 71.40224
#
# Poissons Ratio (x) = 0.12562 0.13089
# Poissons Ratio (y) = 0.27186 0.13157
# Poissons Ratio (z) = 0.17265 0.08019
#
# Static dielectric constant tensor:
#      x y z
#    x 1.722540 0.000000 0.000000 
#    y 0.000000 1.783930 0.000000 
#    z 0.000000 0.000000 1.693350 
# 
# From -- ./inp_files/28125.got.cif
#   From: 2010.05.17/outbox.cif.g08.bks.cpg/sg52_15_cif.got.tgz:28125.got - 2010.06.03 12:15:38.
