data_PCOD9410284
_publ_section_title
;
Structure prediction by ZEFSAII (Michael W. Deem and Ramdas Pophale) SiO2 
 PCOD9410284
Probable space group: P N N A
;
_chemical_formula_sum "Si O2"
_cell_formula_units_Z 44
_cell_length_a 29.311354
_cell_length_b 7.787093
_cell_length_c 7.696671
_cell_angle_alpha 90.000000
_cell_angle_beta 90.000000
_cell_angle_gamma 90.000000
_cell_volume 1756.767000
_symmetry_space_group_name_H-M "P N N A"
_symmetry_group_IT_number 52
_symmetry_cell_setting 'orthorhombic'
loop_
_space_group_symop_operation_xyz
x,y,z
1/2-x,-y,z
x,1/2-y,1/2-z
1/2-x,1/2+y,1/2-z
-x,-y,-z
1/2+x,y,-z
-x,1/2+y,1/2+z
1/2+x,1/2-y,1/2+z
loop_
_atom_site_type_symbol
_atom_site_label
_atom_site_fract_x
_atom_site_fract_y
_atom_site_fract_z
Si Si1 0.646893 0.339918 0.518027
Si Si2 0.250688 0.710157 0.059639
Si Si3 0.690591 0.750000 0.250000
Si Si4 0.468862 0.944306 0.777605
Si Si5 0.061256 0.060840 0.176063
Si Si6 0.620236 0.500737 0.148123
O O1 0.698325 0.290645 0.561134
O O2 0.616000 0.447752 0.653115
O O3 0.640838 0.431579 0.332164
O O4 0.623532 0.153867 0.486392
O O5 0.250000 0.500000 0.029694
O O6 0.230682 0.750000 0.250000
O O7 0.225679 0.806125 0.900813
O O8 0.655398 0.651682 0.121534
O O9 0.453825 0.750000 0.750000
O O10 0.432236 0.053759 0.669193
O O11 0.521704 0.955978 0.725641
O O12 0.455662 0.972240 0.978428
O O13 0.051755 0.250000 0.250000
#
# Coordination Sequence:
#
# PCOD9410284 Si02
#       6
#     8   8   4   8   8   8
#     4  10  20  43  67  91 135 181 221 279 358 413
#     4  12  28  45  72 106 142 184 236 293 356 428
#     4  12  26  44  72 110 134 184 244 286 360 428
#     4  10  20  40  62  92 131 171 224 278 335 412
#     4  10  21  37  62  94 123 175 217 270 343 408
#     4  10  20  40  69  97 133 177 226 283 341 421
#
# _framework density 25.046008
#
# number of rings (size 3 to 8) (size 9 to 14) (size 15 to 20)
#    0.000    1.455    5.455    1.636    3.818    0.727 
#    0.000    0.000    0.000    0.000    0.000    0.000 
#    0.000    0.000    0.000    0.000    0.000    0.000 
#
# Total GULP energy -245011.710508 kJ/mol
# GULP energy per Si atom -5568.447966 kJ/mol
# Density = 2.498900 g / cm^3
# Si number density = 25.046008 Si / 1000 Ang^3
#
#
#
# Elastic Constant Matrix: (Units=GPa)
#
#
# Indices 1 2 3 4 5 6 
#
# 1 189.2071 22.7949 27.3033 0.0000 0.0000 0.0000
# 2 22.7949 35.3323 -20.0911 0.0000 0.0000 0.0000
# 3 27.3033 -20.0911 94.5725 0.0000 0.0000 0.0000
# 4 0.0000 0.0000 0.0000 17.0759 0.0000 0.0000
# 5 0.0000 0.0000 0.0000 0.0000 -10.9020 0.0000
# 6 0.0000 0.0000 0.0000 0.0000 0.0000 35.9259
#
#
#
# Elastic Compliance Matrix: (Units=1/GPa)
#
#
# Indices 1 2 3 4 5 6 
#
# 1 0.006452 -0.005939 -0.003124 0.000000 0.000000 0.000000
# 2 -0.005939 0.037658 0.009715 0.000000 0.000000 0.000000
# 3 -0.003124 0.009715 0.013540 0.000000 0.000000 0.000000
# 4 0.000000 0.000000 0.000000 0.058562 0.000000 0.000000
# 5 0.000000 0.000000 0.000000 0.000000 -0.091727 0.000000
# 6 0.000000 0.000000 0.000000 0.000000 0.000000 0.027835
#
#
# Mechanical properties :
#
#
# Convention : Reuss Voigt Hill
#
# Bulk Modulus (GPa) = 16.96271 42.12515 29.54393
# Shear Modulus (GPa) = 70.75386 27.69362 49.22374
#
# Velocity S-wave (km/s) = 5.32080 3.32883 4.43802
# Velocity P-wave (km/s) = 6.67347 5.62409 6.17113
#
# Compressibility (1/GPa) = 0.05895283
#
# Stress axis : x y z
#
# Youngs Moduli (GPa) = 155.00201 26.55461 73.85710
#
# Poissons Ratio (x) = 0.15770 0.23075
# Poissons Ratio (y) = 0.92052 -0.71750
# Poissons Ratio (z) = 0.48426 -0.25797
#
# Static dielectric constant tensor:
#      x y z
#    x 2.091710 0.000000 0.000000 
#    y 0.000000 1.428210 0.000000 
#    z 0.000000 0.000000 2.198090 
# 
# From -- ./inp_files/15421.got.cif
#   From: 2010.05.17/outbox.cif.g08.bks.cpg/sg52_8_cif.got.tgz:15421.got - 2010.06.03 12:15:38.
