data_PCOD9410167
_publ_section_title
;
Structure prediction by ZEFSAII (Michael W. Deem and Ramdas Pophale) SiO2 
 PCOD9410167
Probable space group: P N N A
;
_chemical_formula_sum "Si O2"
_cell_formula_units_Z 48
_cell_length_a 16.250381
_cell_length_b 5.436932
_cell_length_c 27.697360
_cell_angle_alpha 90.000000
_cell_angle_beta 90.000000
_cell_angle_gamma 90.000000
_cell_volume 2447.123146
_symmetry_space_group_name_H-M "P N N A"
_symmetry_group_IT_number 52
_symmetry_cell_setting 'orthorhombic'
loop_
_space_group_symop_operation_xyz
x,y,z
1/2-x,-y,z
x,1/2-y,1/2-z
1/2-x,1/2+y,1/2-z
-x,-y,-z
1/2+x,y,-z
-x,1/2+y,1/2+z
1/2+x,1/2-y,1/2+z
loop_
_atom_site_type_symbol
_atom_site_label
_atom_site_fract_x
_atom_site_fract_y
_atom_site_fract_z
Si Si1 0.867249 0.250000 0.750000
Si Si2 0.033191 0.350412 0.953246
Si Si3 0.022140 0.250000 0.250000
Si Si4 0.405536 0.971397 0.083005
Si Si5 0.004568 0.122964 0.354385
Si Si6 0.176334 0.668183 0.148013
Si Si7 0.303865 0.751578 0.495308
O O1 0.810737 0.252248 0.797206
O O2 0.922467 0.500593 0.743334
O O3 0.125271 0.258010 0.963933
O O4 0.036825 0.494535 0.901458
O O5 0.964209 0.139085 0.949214
O O6 0.000000 0.500000 0.000000
O O7 0.973519 0.180912 0.299931
O O8 0.465324 0.880763 0.124809
O O9 0.335603 0.124303 0.108956
O O10 0.360433 0.762334 0.052746
O O11 0.088723 0.968882 0.348720
O O12 0.250000 0.500000 0.132697
O O13 0.250000 0.500000 0.497849
O O14 0.250000 0.000000 0.496744
#
# Coordination Sequence:
#
# PCOD9410167 Si02
#       7
#     4   8   4   8   8   8   8
#     4  10  20  39  54  76 122 167 214 264 320 345
#     4  11  23  43  65  92 127 175 216 260 325 390
#     4  10  20  41  60  92 118 161 218 274 310 373
#     4  11  23  40  64  86 122 176 210 262 318 381
#     4  10  22  37  63  86 125 164 216 265 317 379
#     4  10  23  36  54  83 121 168 222 266 309 370
#     4  12  28  42  64  96 134 165 213 273 322 389
#
# _framework density 19.614871000000001
#
# number of rings (size 3 to 8) (size 9 to 14) (size 15 to 20)
#    0.000    1.333    3.333    1.500    7.000    2.667 
#    0.000    0.000    0.000    0.000    0.000    0.000 
#    5.000    0.000    0.000    0.000    0.000    0.000 
#
# Total GULP energy -267613.653002 kJ/mol
# GULP energy per Si atom -5575.284438 kJ/mol
# Density = 1.957023 g / cm^3
# Si number density = 19.614871 Si / 1000 Ang^3
#
#
#
# Elastic Constant Matrix: (Units=GPa)
#
#
# Indices 1 2 3 4 5 6 
#
# 1 63.8385 27.9763 43.3732 0.0000 0.0000 0.0000
# 2 27.9763 86.2683 27.5221 0.0000 0.0000 0.0000
# 3 43.3732 27.5221 143.8482 0.0000 0.0000 0.0000
# 4 0.0000 0.0000 0.0000 -90.0784 0.0000 0.0000
# 5 0.0000 0.0000 0.0000 0.0000 405.5748 0.0000
# 6 0.0000 0.0000 0.0000 0.0000 0.0000 24.6155
#
#
#
# Elastic Compliance Matrix: (Units=1/GPa)
#
#
# Indices 1 2 3 4 5 6 
#
# 1 0.021748 -0.005283 -0.005547 0.000000 0.000000 0.000000
# 2 -0.005283 0.013629 -0.001015 0.000000 0.000000 0.000000
# 3 -0.005547 -0.001015 0.008818 0.000000 0.000000 0.000000
# 4 0.000000 0.000000 0.000000 -0.011101 0.000000 0.000000
# 5 0.000000 0.000000 0.000000 0.000000 0.002466 0.000000
# 6 0.000000 0.000000 0.000000 0.000000 0.000000 0.040625
#
#
# Mechanical properties :
#
#
# Convention : Reuss Voigt Hill
#
# Bulk Modulus (GPa) = 48.76543 54.63315 51.69929
# Shear Modulus (GPa) = 46.85627 81.02792 63.94210
#
# Velocity S-wave (km/s) = 4.89285 6.43421 5.71573
# Velocity P-wave (km/s) = 7.53893 9.11659 8.36504
#
# Compressibility (1/GPa) = 0.02050633
#
# Stress axis : x y z
#
# Youngs Moduli (GPa) = 45.98029 73.37427 113.39995
#
# Poissons Ratio (x) = 0.38766 0.62900
# Poissons Ratio (y) = 0.24293 0.11505
# Poissons Ratio (z) = 0.25504 0.07444
#
# Static dielectric constant tensor:
#      x y z
#    x 1.632980 0.000000 0.000000 
#    y 0.000000 1.719080 0.000000 
#    z 0.000000 0.000000 1.842550 
# 
# From -- ./inp_files/43023.got.cif
#   From: 2010.05.17/outbox.cif.g08.bks.cpg/sg52_22_cif.got.tgz:43023.got - 2010.06.03 12:15:38.
