data_PCOD9410582
_publ_section_title
;
Structure prediction by ZEFSAII (Michael W. Deem and Ramdas Pophale) SiO2 
 PCOD9410582
Probable space group: P N N A
;
_chemical_formula_sum "Si O2"
_cell_formula_units_Z 60
_cell_length_a 16.470355
_cell_length_b 12.135340
_cell_length_c 14.028592
_cell_angle_alpha 90.000000
_cell_angle_beta 90.000000
_cell_angle_gamma 90.000000
_cell_volume 2803.941789
_symmetry_space_group_name_H-M "P N N A"
_symmetry_group_IT_number 52
_symmetry_cell_setting 'orthorhombic'
loop_
_space_group_symop_operation_xyz
x,y,z
1/2-x,-y,z
x,1/2-y,1/2-z
1/2-x,1/2+y,1/2-z
-x,-y,-z
1/2+x,y,-z
-x,1/2+y,1/2+z
1/2+x,1/2-y,1/2+z
loop_
_atom_site_type_symbol
_atom_site_label
_atom_site_fract_x
_atom_site_fract_y
_atom_site_fract_z
Si Si1 0.820219 0.723077 0.533910
Si Si2 0.967537 0.099848 0.566113
Si Si3 0.496542 0.493544 0.746203
Si Si4 0.914479 0.520548 0.447860
Si Si5 0.924902 0.250000 0.250000
Si Si6 0.137722 0.778217 0.962373
Si Si7 0.175249 0.446611 0.074614
Si Si8 0.823486 0.573315 0.709187
O O1 0.865160 0.628301 0.476067
O O2 0.727411 0.747956 0.502955
O O3 0.863955 0.841571 0.524344
O O4 0.827853 0.677880 0.641233
O O5 0.937800 0.212991 0.514784
O O6 0.013497 0.079348 0.666322
O O7 0.880603 0.049217 0.593638
O O8 0.000000 0.000000 0.500000
O O9 0.435977 0.525660 0.662870
O O10 0.476924 0.362992 0.765290
O O11 0.589627 0.488315 0.708894
O O12 0.867271 0.409496 0.473383
O O13 0.000000 0.500000 0.500000
O O14 0.874282 0.241741 0.151346
O O15 0.250000 0.500000 0.019631
O O16 0.198195 0.404711 0.180328
O O17 0.750000 0.500000 0.670010
#
# Coordination Sequence:
#
# PCOD9410582 Si02
#       8
#     8   8   8   8   4   8   8   8
#     4  12  23  41  67  93 137 179 223 278 334 412
#     4  11  22  40  69  99 130 168 219 288 344 396
#     4  10  22  39  64  97 134 174 228 277 335 414
#     4  11  24  41  65  96 133 181 226 270 333 412
#     4  10  22  42  68  96 128 180 232 270 334 414
#     4  11  24  43  69  96 131 178 223 279 341 413
#     4  10  22  39  59  96 132 169 219 272 342 400
#     4  10  21  35  60  97 133 169 216 275 344 402
#
# _framework density 21.398447000000001
#
# number of rings (size 3 to 8) (size 9 to 14) (size 15 to 20)
#    0.000    1.333    4.000    1.600    5.600    0.000 
#    0.000    2.000    5.867    0.000    0.000    0.000 
#    0.000    0.000    0.000    0.000    0.000    0.000 
#
# Total GULP energy -334109.409235 kJ/mol
# GULP energy per Si atom -5568.490154 kJ/mol
# Density = 2.134974 g / cm^3
# Si number density = 21.398447 Si / 1000 Ang^3
#
#
#
# Elastic Constant Matrix: (Units=GPa)
#
#
# Indices 1 2 3 4 5 6 
#
# 1 41.8905 10.2341 7.7323 0.0000 0.0000 0.0000
# 2 10.2341 121.3652 37.3923 0.0000 0.0000 0.0000
# 3 7.7323 37.3923 87.8289 0.0000 0.0000 0.0000
# 4 0.0000 0.0000 0.0000 23.0209 0.0000 0.0000
# 5 0.0000 0.0000 0.0000 0.0000 23.4087 0.0000
# 6 0.0000 0.0000 0.0000 0.0000 0.0000 30.4750
#
#
#
# Elastic Compliance Matrix: (Units=1/GPa)
#
#
# Indices 1 2 3 4 5 6 
#
# 1 0.024538 -0.001616 -0.001473 0.000000 0.000000 0.000000
# 2 -0.001616 0.009590 -0.003941 0.000000 0.000000 0.000000
# 3 -0.001473 -0.003941 0.013193 0.000000 0.000000 0.000000
# 4 0.000000 0.000000 0.000000 0.043439 0.000000 0.000000
# 5 0.000000 0.000000 0.000000 0.000000 0.042719 0.000000
# 6 0.000000 0.000000 0.000000 0.000000 0.000000 0.032814
#
#
# Mechanical properties :
#
#
# Convention : Reuss Voigt Hill
#
# Bulk Modulus (GPa) = 30.06255 40.20025 35.13140
# Shear Modulus (GPa) = 26.11809 28.42931 27.27370
#
# Velocity S-wave (km/s) = 3.49744 3.64891 3.57398
# Velocity P-wave (km/s) = 5.51261 6.04814 5.78658
#
# Compressibility (1/GPa) = 0.03326398
#
# Stress axis : x y z
#
# Youngs Moduli (GPa) = 40.75274 104.27632 75.79729
#
# Poissons Ratio (x) = 0.16846 0.11161
# Poissons Ratio (y) = 0.06584 0.29869
# Poissons Ratio (z) = 0.06001 0.41091
#
# Static dielectric constant tensor:
#      x y z
#    x 1.876470 0.000000 0.000000 
#    y 0.000000 1.873130 0.000000 
#    z 0.000000 0.000000 1.834830 
# 
# From -- ./inp_files/28278.got.cif
#   From: 2010.05.17/outbox.cif.g08.bks.cpg/sg52_15_cif.got.tgz:28278.got - 2010.06.03 12:15:38.
