data_PCOD9410653
_publ_section_title
;
Structure prediction by ZEFSAII (Michael W. Deem and Ramdas Pophale) SiO2 
 PCOD9410653
Probable space group: P N N A
;
_chemical_formula_sum "Si O2"
_cell_formula_units_Z 28
_cell_length_a 8.175486
_cell_length_b 5.420337
_cell_length_c 31.915454
_cell_angle_alpha 90.000000
_cell_angle_beta 90.000000
_cell_angle_gamma 90.000000
_cell_volume 1414.297894
_symmetry_space_group_name_H-M "P N N A"
_symmetry_group_IT_number 52
_symmetry_cell_setting 'orthorhombic'
loop_
_space_group_symop_operation_xyz
x,y,z
1/2-x,-y,z
x,1/2-y,1/2-z
1/2-x,1/2+y,1/2-z
-x,-y,-z
1/2+x,y,-z
-x,1/2+y,1/2+z
1/2+x,1/2-y,1/2+z
loop_
_atom_site_type_symbol
_atom_site_label
_atom_site_fract_x
_atom_site_fract_y
_atom_site_fract_z
Si Si1 0.250000 0.000000 0.607706
Si Si2 0.250000 0.000000 0.838313
Si Si3 0.436968 0.499415 0.277627
Si Si4 0.005132 0.326490 0.960200
Si Si5 0.250000 0.000000 0.010092
O O1 0.260792 0.249702 0.634553
O O2 0.090574 0.038411 0.578222
O O3 0.085257 0.008128 0.810407
O O4 0.250000 0.500000 0.295167
O O5 0.450064 0.250000 0.250000
O O6 0.453758 0.750000 0.250000
O O7 0.123213 0.111918 0.976956
O O8 0.827792 0.203305 0.959169
O O9 0.000000 0.500000 0.000000
#
# Coordination Sequence:
#
# PCOD9410653 Si02
#       5
#     4   4   8   8   4
#     4  12  26  41  64  92 139 172 220 283 348 397
#     4  12  25  43  64 102 146 172 204 280 352 391
#     4  10  21  42  74 102 130 175 223 257 308 413
#     4  11  21  40  61  88 114 171 230 286 327 401
#     4  10  21  36  66  82 115 152 242 285 326 380
#
# _framework density 19.797809000000001
#
# number of rings (size 3 to 8) (size 9 to 14) (size 15 to 20)
#    0.000    1.143    2.857    3.429    4.000    0.000 
#    2.571    0.000    0.000    0.000    0.000    0.000 
#    0.000    0.000    0.000    0.000    0.000    0.000 
#
# Total GULP energy -156149.351362 kJ/mol
# GULP energy per Si atom -5576.762549 kJ/mol
# Density = 1.975275 g / cm^3
# Si number density = 19.797809 Si / 1000 Ang^3
#
#
#
# Elastic Constant Matrix: (Units=GPa)
#
#
# Indices 1 2 3 4 5 6 
#
# 1 108.6332 42.1955 76.6845 0.0000 0.0000 0.0000
# 2 42.1955 145.8316 62.9995 0.0000 0.0000 0.0000
# 3 76.6845 62.9995 105.6565 0.0000 0.0000 0.0000
# 4 0.0000 0.0000 0.0000 41.6953 0.0000 0.0000
# 5 0.0000 0.0000 0.0000 0.0000 23.6485 0.0000
# 6 0.0000 0.0000 0.0000 0.0000 0.0000 43.7279
#
#
#
# Elastic Compliance Matrix: (Units=1/GPa)
#
#
# Indices 1 2 3 4 5 6 
#
# 1 0.018917 0.000617 -0.014098 0.000000 0.000000 0.000000
# 2 0.000617 0.009257 -0.005967 0.000000 0.000000 0.000000
# 3 -0.014098 -0.005967 0.023255 0.000000 0.000000 0.000000
# 4 0.000000 0.000000 0.000000 0.023984 0.000000 0.000000
# 5 0.000000 0.000000 0.000000 0.000000 0.042286 0.000000
# 6 0.000000 0.000000 0.000000 0.000000 0.000000 0.022869
#
#
# Mechanical properties :
#
#
# Convention : Reuss Voigt Hill
#
# Bulk Modulus (GPa) = 79.79326 80.43117 80.11222
# Shear Modulus (GPa) = 27.22712 33.69711 30.46212
#
# Velocity S-wave (km/s) = 3.71247 4.13008 3.92683
# Velocity P-wave (km/s) = 7.66604 7.96605 7.81748
#
# Compressibility (1/GPa) = 0.01253239
#
# Stress axis : x y z
#
# Youngs Moduli (GPa) = 52.86123 108.03194 43.00233
#
# Poissons Ratio (x) = -0.06661 0.60624
# Poissons Ratio (y) = -0.03260 0.25659
# Poissons Ratio (z) = 0.74523 0.64462
#
# Static dielectric constant tensor:
#      x y z
#    x 1.578310 0.000000 0.000000 
#    y 0.000000 1.678530 0.000000 
#    z 0.000000 0.000000 1.687680 
# 
# From -- ./inp_files/41970.got.cif
#   From: 2010.05.17/outbox.cif.g08.bks.cpg/sg52_21_cif.got.tgz:41970.got - 2010.06.03 12:15:38.
