data_PCOD9410877
_publ_section_title
;
Structure prediction by ZEFSAII (Michael W. Deem and Ramdas Pophale) SiO2 
 PCOD9410877
Probable space group: P N N A
;
_chemical_formula_sum "Si O2"
_cell_formula_units_Z 64
_cell_length_a 31.015167
_cell_length_b 5.257218
_cell_length_c 20.021862
_cell_angle_alpha 90.000000
_cell_angle_beta 90.000000
_cell_angle_gamma 90.000000
_cell_volume 3264.634560
_symmetry_space_group_name_H-M "P N N A"
_symmetry_group_IT_number 52
_symmetry_cell_setting 'orthorhombic'
loop_
_space_group_symop_operation_xyz
x,y,z
1/2-x,-y,z
x,1/2-y,1/2-z
1/2-x,1/2+y,1/2-z
-x,-y,-z
1/2+x,y,-z
-x,1/2+y,1/2+z
1/2+x,1/2-y,1/2+z
loop_
_atom_site_type_symbol
_atom_site_label
_atom_site_fract_x
_atom_site_fract_y
_atom_site_fract_z
Si Si1 0.300494 0.497453 0.591870
Si Si2 0.940643 0.231367 0.675732
Si Si3 0.197654 0.499585 0.986098
Si Si4 0.010815 0.292535 0.365362
Si Si5 0.143777 0.006127 0.792575
Si Si6 0.387130 0.175149 0.455575
Si Si7 0.040278 0.307551 0.000404
Si Si8 0.576620 0.570237 0.409802
O O1 0.250000 0.500000 0.583241
O O2 0.311720 0.209060 0.571460
O O3 0.312043 0.555039 0.667911
O O4 0.315844 0.722621 0.542095
O O5 0.920805 0.250000 0.750000
O O6 0.975014 0.463898 0.676874
O O7 0.905359 0.266866 0.616135
O O8 0.965016 0.963554 0.659094
O O9 0.250000 0.500000 0.001182
O O10 0.163353 0.596946 0.041736
O O11 0.026567 0.375580 0.439773
O O12 0.959879 0.252816 0.376142
O O13 0.131620 0.250000 0.750000
O O14 0.144795 0.750000 0.750000
O O15 0.111882 0.975772 0.854773
O O16 0.401554 0.344177 0.520210
O O17 0.416015 0.930986 0.473213
O O18 0.050645 0.181171 0.930742
O O19 0.000000 0.500000 0.000000
#
# Coordination Sequence:
#
# PCOD9410877 Si02
#       8
#     8   8   8   8   8   8   8   8
#     4  10  21  41  64  85 119 158 203 257 314 371
#     4  11  25  42  60  90 127 164 208 248 313 380
#     4  10  21  38  65  98 121 153 203 267 322 370
#     4  11  23  39  62  87 119 162 205 259 299 362
#     4  12  28  41  57  86 123 164 209 255 311 368
#     4  11  22  37  67  91 122 165 204 268 311 370
#     4  11  21  36  61  95 117 153 210 266 304 362
#     4  12  23  39  63  84 122 160 218 255 311 367
#
# _framework density 19.604033000000001
#
# number of rings (size 3 to 8) (size 9 to 14) (size 15 to 20)
#    0.000    1.000    3.750    3.750    1.750    2.000 
#    0.000    0.000    0.000    0.000    0.000    6.125 
#    0.000    0.000    0.000    0.000    0.000    0.000 
#
# Total GULP energy -356582.195087 kJ/mol
# GULP energy per Si atom -5571.596798 kJ/mol
# Density = 1.955941 g / cm^3
# Si number density = 19.604033 Si / 1000 Ang^3
#
#
#
# Elastic Constant Matrix: (Units=GPa)
#
#
# Indices 1 2 3 4 5 6 
#
# 1 66.7253 23.2682 25.3966 0.0000 0.0000 0.0000
# 2 23.2682 86.6372 26.7504 0.0000 0.0000 0.0000
# 3 25.3966 26.7504 104.5061 0.0000 0.0000 0.0000
# 4 0.0000 0.0000 0.0000 23.1104 0.0000 0.0000
# 5 0.0000 0.0000 0.0000 0.0000 32.5580 0.0000
# 6 0.0000 0.0000 0.0000 0.0000 0.0000 21.8510
#
#
#
# Elastic Compliance Matrix: (Units=1/GPa)
#
#
# Indices 1 2 3 4 5 6 
#
# 1 0.017535 -0.003685 -0.003318 0.000000 0.000000 0.000000
# 2 -0.003685 0.013307 -0.002511 0.000000 0.000000 0.000000
# 3 -0.003318 -0.002511 0.011018 0.000000 0.000000 0.000000
# 4 0.000000 0.000000 0.000000 0.043271 0.000000 0.000000
# 5 0.000000 0.000000 0.000000 0.000000 0.030714 0.000000
# 6 0.000000 0.000000 0.000000 0.000000 0.000000 0.045765
#
#
# Mechanical properties :
#
#
# Convention : Reuss Voigt Hill
#
# Bulk Modulus (GPa) = 43.79714 45.41101 44.60407
# Shear Modulus (GPa) = 26.56079 27.66743 27.11411
#
# Velocity S-wave (km/s) = 3.68484 3.76082 3.72302
# Velocity P-wave (km/s) = 6.36345 6.48635 6.42519
#
# Compressibility (1/GPa) = 0.02283254
#
# Stress axis : x y z
#
# Youngs Moduli (GPa) = 57.02996 75.14691 90.76205
#
# Poissons Ratio (x) = 0.27690 0.30115
# Poissons Ratio (y) = 0.21015 0.22788
# Poissons Ratio (z) = 0.18922 0.18868
#
# Static dielectric constant tensor:
#      x y z
#    x 1.767990 0.000000 0.000000 
#    y 0.000000 1.791510 0.000000 
#    z 0.000000 0.000000 1.701290 
# 
# From -- ./inp_files/34581.got.cif
#   From: 2010.05.17/outbox.cif.g08.bks.cpg/sg52_18_cif.got.tgz:34581.got - 2010.06.03 12:15:38.
