data_PCOD9410155
_publ_section_title
;
Structure prediction by ZEFSAII (Michael W. Deem and Ramdas Pophale) SiO2 
 PCOD9410155
Probable space group: P N N A
;
_chemical_formula_sum "Si O2"
_cell_formula_units_Z 60
_cell_length_a 11.259400
_cell_length_b 7.782115
_cell_length_c 31.140861
_cell_angle_alpha 90.000000
_cell_angle_beta 90.000000
_cell_angle_gamma 90.000000
_cell_volume 2728.622829
_symmetry_space_group_name_H-M "P N N A"
_symmetry_group_IT_number 52
_symmetry_cell_setting 'orthorhombic'
loop_
_space_group_symop_operation_xyz
x,y,z
1/2-x,-y,z
x,1/2-y,1/2-z
1/2-x,1/2+y,1/2-z
-x,-y,-z
1/2+x,y,-z
-x,1/2+y,1/2+z
1/2+x,1/2-y,1/2+z
loop_
_atom_site_type_symbol
_atom_site_label
_atom_site_fract_x
_atom_site_fract_y
_atom_site_fract_z
Si Si1 0.201800 0.186212 0.373752
Si Si2 0.216967 0.246616 0.559314
Si Si3 0.185871 0.314701 0.468074
Si Si4 0.009529 0.526377 0.831434
Si Si5 0.250000 0.500000 0.869465
Si Si6 0.611104 0.955203 0.755609
Si Si7 0.573369 0.630407 0.653715
Si Si8 0.454255 0.059182 0.927098
O O1 0.220996 0.223222 0.423762
O O2 0.286887 0.321163 0.350420
O O3 0.065682 0.156979 0.361226
O O4 0.250000 0.000000 0.361261
O O5 0.223068 0.202334 0.509132
O O6 0.179134 0.114576 0.595568
O O7 0.344433 0.309341 0.577400
O O8 0.119208 0.395335 0.556587
O O9 0.250000 0.500000 0.471614
O O10 0.047569 0.359185 0.460093
O O11 0.146873 0.568816 0.838731
O O12 0.959556 0.543489 0.783121
O O13 0.986573 0.321568 0.842672
O O14 0.602595 0.750000 0.750000
O O15 0.558256 0.979469 0.803040
O O16 0.750000 0.000000 0.753018
O O17 0.526349 0.520080 0.613415
#
# Coordination Sequence:
#
# PCOD9410155 Si02
#       8
#     8   8   8   8   4   8   8   8
#     4  10  22  39  62  98 129 161 205 266 317 381
#     4  11  26  42  64  88 126 171 217 266 316 383
#     4  12  23  38  65  94 127 162 212 268 322 374
#     4  10  21  42  63  91 127 168 213 256 318 380
#     4  12  24  46  66  84 126 184 214 258 322 380
#     4  10  21  39  67  97 128 160 202 263 321 381
#     4  10  20  38  69  92 127 164 205 260 330 379
#     4  11  22  43  61  93 127 163 212 267 318 379
#
# _framework density 21.989114000000001
#
# number of rings (size 3 to 8) (size 9 to 14) (size 15 to 20)
#    0.000    1.333    4.000    3.200    2.800    0.000 
#    2.400    2.667    0.000    0.000    0.000    0.000 
#    0.000    0.000    0.000    0.000    0.000    0.000 
#
# Total GULP energy -334698.309009 kJ/mol
# GULP energy per Si atom -5578.305150 kJ/mol
# Density = 2.193907 g / cm^3
# Si number density = 21.989114 Si / 1000 Ang^3
#
#
#
# Elastic Constant Matrix: (Units=GPa)
#
#
# Indices 1 2 3 4 5 6 
#
# 1 60.3905 -5.6768 47.9375 0.0000 0.0000 0.0000
# 2 -5.6768 55.6127 20.1219 0.0000 0.0000 0.0000
# 3 47.9375 20.1219 156.5764 0.0000 0.0000 0.0000
# 4 0.0000 0.0000 0.0000 22.4123 0.0000 0.0000
# 5 0.0000 0.0000 0.0000 0.0000 23.6886 0.0000
# 6 0.0000 0.0000 0.0000 0.0000 0.0000 12.5716
#
#
#
# Elastic Compliance Matrix: (Units=1/GPa)
#
#
# Indices 1 2 3 4 5 6 
#
# 1 0.023217 0.005183 -0.007774 0.000000 0.000000 0.000000
# 2 0.005183 0.020015 -0.004159 0.000000 0.000000 0.000000
# 3 -0.007774 -0.004159 0.009301 0.000000 0.000000 0.000000
# 4 0.000000 0.000000 0.000000 0.044618 0.000000 0.000000
# 5 0.000000 0.000000 0.000000 0.000000 0.042214 0.000000
# 6 0.000000 0.000000 0.000000 0.000000 0.000000 0.079544
#
#
# Mechanical properties :
#
#
# Convention : Reuss Voigt Hill
#
# Bulk Modulus (GPa) = 25.61923 44.14940 34.88431
# Shear Modulus (GPa) = 20.37299 25.74763 23.06031
#
# Velocity S-wave (km/s) = 3.04715 3.42559 3.24190
# Velocity P-wave (km/s) = 4.90473 5.98061 5.46919
#
# Compressibility (1/GPa) = 0.03903318
#
# Stress axis : x y z
#
# Youngs Moduli (GPa) = 43.07142 49.96153 107.51180
#
# Poissons Ratio (x) = -0.25894 0.83582
# Poissons Ratio (y) = -0.22323 0.44714
# Poissons Ratio (z) = 0.33485 0.20779
#
# Static dielectric constant tensor:
#      x y z
#    x 1.823580 0.000000 0.000000 
#    y 0.000000 1.850500 0.000000 
#    z 0.000000 0.000000 1.855090 
# 
# From -- ./inp_files/44804.got.cif
#   From: 2010.05.17/outbox.cif.g08.bks.cpg/sg52_23_cif.got.tgz:44804.got - 2010.06.03 12:15:38.
