data_PCOD9410920
_publ_section_title
;
Structure prediction by ZEFSAII (Michael W. Deem and Ramdas Pophale) SiO2 
 PCOD9410920
Probable space group: P N N A
;
_chemical_formula_sum "Si O2"
_cell_formula_units_Z 60
_cell_length_a 27.797324
_cell_length_b 10.125661
_cell_length_c 10.934040
_cell_angle_alpha 90.000000
_cell_angle_beta 90.000000
_cell_angle_gamma 90.000000
_cell_volume 3077.563559
_symmetry_space_group_name_H-M "P N N A"
_symmetry_group_IT_number 52
_symmetry_cell_setting 'orthorhombic'
loop_
_space_group_symop_operation_xyz
x,y,z
1/2-x,-y,z
x,1/2-y,1/2-z
1/2-x,1/2+y,1/2-z
-x,-y,-z
1/2+x,y,-z
-x,1/2+y,1/2+z
1/2+x,1/2-y,1/2+z
loop_
_atom_site_type_symbol
_atom_site_label
_atom_site_fract_x
_atom_site_fract_y
_atom_site_fract_z
Si Si1 0.806421 0.501959 0.082079
Si Si2 0.134142 0.763349 0.892511
Si Si3 0.989849 0.961978 0.796729
Si Si4 0.085322 0.250000 0.250000
Si Si5 0.861168 0.769433 0.504780
Si Si6 0.307061 0.968541 0.866823
Si Si7 0.464018 0.305134 0.476668
Si Si8 0.044180 0.354852 0.859612
O O1 0.750000 0.500000 0.064579
O O2 0.831180 0.359538 0.078891
O O3 0.827974 0.602825 0.985224
O O4 0.814055 0.554963 0.221257
O O5 0.118595 0.750000 0.750000
O O6 0.163429 0.899937 0.900739
O O7 0.089046 0.766180 0.982962
O O8 0.949534 0.875418 0.730983
O O9 0.966865 0.090321 0.864088
O O10 0.032179 0.007406 0.705501
O O11 0.012027 0.876853 0.906779
O O12 0.117514 0.278513 0.367625
O O13 0.830984 0.654423 0.437547
O O14 0.907031 0.827060 0.430687
O O15 0.250000 0.000000 0.886822
O O16 0.497972 0.183872 0.440061
O O17 0.046238 0.250000 0.750000
#
# Coordination Sequence:
#
# PCOD9410920 Si02
#       8
#     8   8   8   4   8   8   8   8
#     4  10  22  40  63  95 124 148 196 269 321 369
#     4  10  22  33  59  91 120 156 193 244 311 372
#     4  10  23  39  57  83 130 170 209 262 302 368
#     4  12  26  40  58  88 128 172 216 256 302 370
#     4  12  24  40  65  91 125 168 211 254 314 384
#     4  10  21  41  67  93 120 155 202 256 322 377
#     4  10  21  39  58  86 129 159 209 254 309 382
#     4  10  22  37  63  88 118 165 209 253 316 370
#
# _framework density 19.495943
#
# number of rings (size 3 to 8) (size 9 to 14) (size 15 to 20)
#    0.000    1.600    1.333    2.800   10.267    2.667 
#    0.000    0.667    0.000    0.000    0.000    0.000 
#    0.000    0.000    0.000    0.000    0.000    0.000 
#
# Total GULP energy -335225.811058 kJ/mol
# GULP energy per Si atom -5587.096851 kJ/mol
# Density = 1.945157 g / cm^3
# Si number density = 19.495943 Si / 1000 Ang^3
#
#
#
# Elastic Constant Matrix: (Units=GPa)
#
#
# Indices 1 2 3 4 5 6 
#
# 1 97.0124 10.1594 24.4119 0.0000 0.0000 0.0000
# 2 10.1594 60.4281 5.8459 0.0000 0.0000 0.0000
# 3 24.4119 5.8459 38.0994 0.0000 0.0000 0.0000
# 4 0.0000 0.0000 0.0000 10.5802 0.0000 0.0000
# 5 0.0000 0.0000 0.0000 0.0000 95.3110 0.0000
# 6 0.0000 0.0000 0.0000 0.0000 0.0000 34.5975
#
#
#
# Elastic Compliance Matrix: (Units=1/GPa)
#
#
# Indices 1 2 3 4 5 6 
#
# 1 0.012395 -0.001335 -0.007737 0.000000 0.000000 0.000000
# 2 -0.001335 0.016942 -0.001744 0.000000 0.000000 0.000000
# 3 -0.007737 -0.001744 0.031472 0.000000 0.000000 0.000000
# 4 0.000000 0.000000 0.000000 0.094516 0.000000 0.000000
# 5 0.000000 0.000000 0.000000 0.000000 0.010492 0.000000
# 6 0.000000 0.000000 0.000000 0.000000 0.000000 0.028904
#
#
# Mechanical properties :
#
#
# Convention : Reuss Voigt Hill
#
# Bulk Modulus (GPa) = 25.52566 30.70825 28.11695
# Shear Modulus (GPa) = 21.79492 38.43927 30.11710
#
# Velocity S-wave (km/s) = 3.34716 4.44515 3.93464
# Velocity P-wave (km/s) = 5.29709 6.49085 5.92412
#
# Compressibility (1/GPa) = 0.03917627
#
# Stress axis : x y z
#
# Youngs Moduli (GPa) = 80.67965 59.02555 31.77419
#
# Poissons Ratio (x) = 0.07882 0.24583
# Poissons Ratio (y) = 0.10774 0.05541
# Poissons Ratio (z) = 0.62421 0.10293
#
# Static dielectric constant tensor:
#      x y z
#    x 1.690550 0.000000 0.000000 
#    y 0.000000 1.692730 0.000000 
#    z 0.000000 0.000000 1.686250 
# 
# From -- ./inp_files/22890.got.cif
#   From: 2010.05.17/outbox.cif.g08.bks.cpg/sg52_12_cif.got.tgz:22890.got - 2010.06.03 12:15:38.
