data_PCOD9410179
_publ_section_title
;
Structure prediction by ZEFSAII (Michael W. Deem and Ramdas Pophale) SiO2 
 PCOD9410179
Probable space group: P N N A
;
_chemical_formula_sum "Si O2"
_cell_formula_units_Z 40
_cell_length_a 8.434122
_cell_length_b 12.582770
_cell_length_c 19.108385
_cell_angle_alpha 90.000000
_cell_angle_beta 90.000000
_cell_angle_gamma 90.000000
_cell_volume 2027.870045
_symmetry_space_group_name_H-M "P N N A"
_symmetry_group_IT_number 52
_symmetry_cell_setting 'orthorhombic'
loop_
_space_group_symop_operation_xyz
x,y,z
1/2-x,-y,z
x,1/2-y,1/2-z
1/2-x,1/2+y,1/2-z
-x,-y,-z
1/2+x,y,-z
-x,1/2+y,1/2+z
1/2+x,1/2-y,1/2+z
loop_
_atom_site_type_symbol
_atom_site_label
_atom_site_fract_x
_atom_site_fract_y
_atom_site_fract_z
Si Si1 0.520413 0.148605 0.551574
Si Si2 0.205962 0.610512 0.605182
Si Si3 0.062191 0.299854 0.324277
Si Si4 0.750000 0.000000 0.461809
Si Si5 0.465433 0.146527 0.029127
Si Si6 0.250000 0.500000 0.372106
O O1 0.603215 0.219183 0.611968
O O2 0.376873 0.073805 0.578502
O O3 0.443311 0.231697 0.495813
O O4 0.644488 0.075888 0.510986
O O5 0.250000 0.500000 0.639599
O O6 0.070197 0.590547 0.545778
O O7 0.359097 0.646026 0.561686
O O8 0.126172 0.686554 0.660800
O O9 0.098597 0.250000 0.250000
O O10 0.139028 0.417535 0.329775
O O11 0.349623 0.084755 0.081418
#
# Coordination Sequence:
#
# PCOD9410179 Si02
#       6
#     8   8   8   4   8   4
#     4  10  21  37  60  86 121 151 207 245 309 368
#     4  11  19  35  60  94 128 152 190 256 325 366
#     4  11  25  42  58  88 125 170 211 250 297 383
#     4  10  20  39  60  85 116 162 190 258 308 360
#     4  11  20  34  64 102 119 150 193 272 326 364
#     4  12  22  39  66  89 128 154 202 266 322 354
#
# _framework density 19.72513
#
# number of rings (size 3 to 8) (size 9 to 14) (size 15 to 20)
#    0.000    1.200    3.000    6.600    0.000    0.800 
#    1.800    1.000    0.000    0.000    0.000    0.000 
#    0.000    0.000    0.000    0.000    0.000    0.000 
#
# Total GULP energy -222746.960021 kJ/mol
# GULP energy per Si atom -5568.674001 kJ/mol
# Density = 1.968024 g / cm^3
# Si number density = 19.725130 Si / 1000 Ang^3
#
#
#
# Elastic Constant Matrix: (Units=GPa)
#
#
# Indices 1 2 3 4 5 6 
#
# 1 77.7842 36.2127 23.7204 0.0000 0.0000 0.0000
# 2 36.2127 126.1244 45.1277 0.0000 0.0000 0.0000
# 3 23.7204 45.1277 68.0326 0.0000 0.0000 0.0000
# 4 0.0000 0.0000 0.0000 26.4640 0.0000 0.0000
# 5 0.0000 0.0000 0.0000 0.0000 9.1459 0.0000
# 6 0.0000 0.0000 0.0000 0.0000 0.0000 54.3654
#
#
#
# Elastic Compliance Matrix: (Units=1/GPa)
#
#
# Indices 1 2 3 4 5 6 
#
# 1 0.015348 -0.003268 -0.003184 0.000000 0.000000 0.000000
# 2 -0.003268 0.011092 -0.006218 0.000000 0.000000 0.000000
# 3 -0.003184 -0.006218 0.019934 0.000000 0.000000 0.000000
# 4 0.000000 0.000000 0.000000 0.037787 0.000000 0.000000
# 5 0.000000 0.000000 0.000000 0.000000 0.109338 0.000000
# 6 0.000000 0.000000 0.000000 0.000000 0.000000 0.018394
#
#
# Mechanical properties :
#
#
# Convention : Reuss Voigt Hill
#
# Bulk Modulus (GPa) = 47.54127 53.56254 50.55190
# Shear Modulus (GPa) = 20.47136 29.12043 24.79590
#
# Velocity S-wave (km/s) = 3.22503 3.84645 3.54937
# Velocity P-wave (km/s) = 6.16620 6.85130 6.51776
#
# Compressibility (1/GPa) = 0.02103436
#
# Stress axis : x y z
#
# Youngs Moduli (GPa) = 65.15400 90.15721 50.16653
#
# Poissons Ratio (x) = 0.29459 0.15973
# Poissons Ratio (y) = 0.21290 0.31194
# Poissons Ratio (z) = 0.20744 0.56061
#
# Static dielectric constant tensor:
#      x y z
#    x 1.770310 0.000000 0.000000 
#    y 0.000000 1.768510 0.000000 
#    z 0.000000 0.000000 1.666800 
# 
# From -- ./inp_files/30943.got.cif
#   From: 2010.05.17/outbox.cif.g08.bks.cpg/sg52_16_cif.got.tgz:30943.got - 2010.06.03 12:15:38.
