data_PCOD9410170
_publ_section_title
;
Structure prediction by ZEFSAII (Michael W. Deem and Ramdas Pophale) SiO2 
 PCOD9410170
Probable space group: P N N A
;
_chemical_formula_sum "Si O2"
_cell_formula_units_Z 56
_cell_length_a 14.966670
_cell_length_b 13.936899
_cell_length_c 13.597883
_cell_angle_alpha 90.000000
_cell_angle_beta 90.000000
_cell_angle_gamma 90.000000
_cell_volume 2836.368384
_symmetry_space_group_name_H-M "P N N A"
_symmetry_group_IT_number 52
_symmetry_cell_setting 'orthorhombic'
loop_
_space_group_symop_operation_xyz
x,y,z
1/2-x,-y,z
x,1/2-y,1/2-z
1/2-x,1/2+y,1/2-z
-x,-y,-z
1/2+x,y,-z
-x,1/2+y,1/2+z
1/2+x,1/2-y,1/2+z
loop_
_atom_site_type_symbol
_atom_site_label
_atom_site_fract_x
_atom_site_fract_y
_atom_site_fract_z
Si Si1 0.856402 0.969997 0.158071
Si Si2 0.611653 0.143680 0.459500
Si Si3 0.912484 0.142578 0.034799
Si Si4 0.417146 0.449357 0.867451
Si Si5 0.782374 0.220046 0.363722
Si Si6 0.556554 0.218714 0.641423
Si Si7 0.512974 0.294354 0.356837
O O1 0.897439 0.862444 0.145045
O O2 0.750000 0.000000 0.159878
O O3 0.900514 0.035266 0.073715
O O4 0.895643 0.002521 0.262939
O O5 0.685145 0.179173 0.383073
O O6 0.633593 0.192397 0.563833
O O7 0.524456 0.199872 0.423918
O O8 0.592150 0.032156 0.448433
O O9 0.820773 0.196386 0.066834
O O10 0.989455 0.198768 0.098713
O O11 0.938884 0.148451 0.920178
O O12 0.342206 0.371355 0.886766
O O13 0.504125 0.383152 0.857593
O O14 0.794435 0.250000 0.250000
O O15 0.583002 0.250000 0.750000
O O16 0.493720 0.250000 0.250000
#
# Coordination Sequence:
#
# PCOD9410170 Si02
#       7
#     8   8   8   8   8   8   8
#     4  12  21  35  59  88 118 153 191 253 306 353
#     4  11  22  34  57  88 115 150 200 249 296 361
#     4  10  21  38  57  80 115 157 193 241 301 364
#     4  11  20  34  58  86 121 149 185 249 314 350
#     4  11  20  36  58  87 118 148 194 257 315 355
#     4  10  20  39  57  81 115 159 195 235 298 371
#     4  11  23  36  54  84 119 154 199 240 295 360
#
# _framework density 19.743556999999999
#
# number of rings (size 3 to 8) (size 9 to 14) (size 15 to 20)
#    0.000    1.143    4.286    4.286    0.000    0.000 
#    0.000    0.714    0.000    0.000    0.000    0.000 
#    0.000    0.000    0.000    0.000    0.000    0.000 
#
# Total GULP energy -311934.065506 kJ/mol
# GULP energy per Si atom -5570.251170 kJ/mol
# Density = 1.969862 g / cm^3
# Si number density = 19.743557 Si / 1000 Ang^3
#
#
#
# Elastic Constant Matrix: (Units=GPa)
#
#
# Indices 1 2 3 4 5 6 
#
# 1 29.3847 8.7102 9.3756 0.0000 0.0000 0.0000
# 2 8.7102 107.2453 28.0060 0.0000 0.0000 0.0000
# 3 9.3756 28.0060 113.4001 0.0000 0.0000 0.0000
# 4 0.0000 0.0000 0.0000 36.4563 0.0000 0.0000
# 5 0.0000 0.0000 0.0000 0.0000 17.6376 0.0000
# 6 0.0000 0.0000 0.0000 0.0000 0.0000 7.1004
#
#
#
# Elastic Compliance Matrix: (Units=1/GPa)
#
#
# Indices 1 2 3 4 5 6 
#
# 1 0.035459 -0.002260 -0.002373 0.000000 0.000000 0.000000
# 2 -0.002260 0.010111 -0.002310 0.000000 0.000000 0.000000
# 3 -0.002373 -0.002310 0.009585 0.000000 0.000000 0.000000
# 4 0.000000 0.000000 0.000000 0.027430 0.000000 0.000000
# 5 0.000000 0.000000 0.000000 0.000000 0.056697 0.000000
# 6 0.000000 0.000000 0.000000 0.000000 0.000000 0.140837
#
#
# Mechanical properties :
#
#
# Convention : Reuss Voigt Hill
#
# Bulk Modulus (GPa) = 24.23225 38.02375 31.12800
# Shear Modulus (GPa) = 16.24632 25.83474 21.04053
#
# Velocity S-wave (km/s) = 2.87168 3.62126 3.26803
# Velocity P-wave (km/s) = 4.82654 6.06509 5.48092
#
# Compressibility (1/GPa) = 0.04126732
#
# Stress axis : x y z
#
# Youngs Moduli (GPa) = 28.20196 98.89940 104.32824
#
# Poissons Ratio (x) = 0.22352 0.24762
# Poissons Ratio (y) = 0.06374 0.24103
# Poissons Ratio (z) = 0.06694 0.22849
#
# Static dielectric constant tensor:
#      x y z
#    x 1.755470 0.000000 0.000000 
#    y 0.000000 1.793530 0.000000 
#    z 0.000000 0.000000 1.747430 
# 
# From -- ./inp_files/19619.got.cif
#   From: 2010.05.17/outbox.cif.g08.bks.cpg/sg52_10_cif.got.tgz:19619.got - 2010.06.03 12:15:38.
