data_PCOD9410649
_publ_section_title
;
Structure prediction by ZEFSAII (Michael W. Deem and Ramdas Pophale) SiO2 
 PCOD9410649
Probable space group: P N N A
;
_chemical_formula_sum "Si O2"
_cell_formula_units_Z 40
_cell_length_a 18.636843
_cell_length_b 11.456337
_cell_length_c 9.036865
_cell_angle_alpha 90.000000
_cell_angle_beta 90.000000
_cell_angle_gamma 90.000000
_cell_volume 1929.460631
_symmetry_space_group_name_H-M "P N N A"
_symmetry_group_IT_number 52
_symmetry_cell_setting 'orthorhombic'
loop_
_space_group_symop_operation_xyz
x,y,z
1/2-x,-y,z
x,1/2-y,1/2-z
1/2-x,1/2+y,1/2-z
-x,-y,-z
1/2+x,y,-z
-x,1/2+y,1/2+z
1/2+x,1/2-y,1/2+z
loop_
_atom_site_type_symbol
_atom_site_label
_atom_site_fract_x
_atom_site_fract_y
_atom_site_fract_z
Si Si1 0.646389 0.711599 0.081518
Si Si2 0.176440 0.437234 0.315958
Si Si3 0.693821 0.296470 0.978264
Si Si4 0.923183 0.440241 0.497134
Si Si5 0.835774 0.523796 0.210655
O O1 0.662601 0.750000 0.250000
O O2 0.585568 0.801088 0.027468
O O3 0.632679 0.574238 0.098293
O O4 0.720884 0.725787 0.994760
O O5 0.250000 0.500000 0.360270
O O6 0.183564 0.391720 0.150129
O O7 0.162274 0.323489 0.417102
O O8 0.114441 0.528371 0.348541
O O9 0.662582 0.351737 0.128388
O O10 0.876698 0.499497 0.363593
O O11 0.000000 0.500000 0.500000
O O12 0.750000 0.500000 0.230185
#
# Coordination Sequence:
#
# PCOD9410649 Si02
#       5
#     8   8   8   8   8
#     4   9  18  36  64  92 118 161 207 262 313 371
#     4  11  21  37  63  92 124 158 208 264 321 364
#     4  10  21  36  64  95 120 151 209 270 316 367
#     4  11  23  39  61  90 129 172 207 250 317 387
#     4   9  19  38  67  94 118 156 217 263 311 373
#
# _framework density 20.731182
#
# number of rings (size 3 to 8) (size 9 to 14) (size 15 to 20)
#    0.000    2.000    2.000    2.400    5.600    0.000 
#   10.800    1.000   13.200    0.000    0.000    0.000 
#    0.000    0.000    0.000    0.000    0.000    0.000 
#
# Total GULP energy -223099.002167 kJ/mol
# GULP energy per Si atom -5577.475054 kJ/mol
# Density = 2.068400 g / cm^3
# Si number density = 20.731182 Si / 1000 Ang^3
#
#
#
# Elastic Constant Matrix: (Units=GPa)
#
#
# Indices 1 2 3 4 5 6 
#
# 1 80.7955 28.4964 15.8470 0.0000 0.0000 0.0000
# 2 28.4964 105.3181 43.4949 0.0000 0.0000 0.0000
# 3 15.8470 43.4949 51.2556 0.0000 0.0000 0.0000
# 4 0.0000 0.0000 0.0000 28.1836 0.0000 0.0000
# 5 0.0000 0.0000 0.0000 0.0000 -3.8920 0.0000
# 6 0.0000 0.0000 0.0000 0.0000 0.0000 28.2119
#
#
#
# Elastic Compliance Matrix: (Units=1/GPa)
#
#
# Indices 1 2 3 4 5 6 
#
# 1 0.013777 -0.003031 -0.001688 0.000000 0.000000 0.000000
# 2 -0.003031 0.015285 -0.012033 0.000000 0.000000 0.000000
# 3 -0.001688 -0.012033 0.030243 0.000000 0.000000 0.000000
# 4 0.000000 0.000000 0.000000 0.035482 0.000000 0.000000
# 5 0.000000 0.000000 0.000000 0.000000 -0.256936 0.000000
# 6 0.000000 0.000000 0.000000 0.000000 0.000000 0.035446
#
#
# Mechanical properties :
#
#
# Convention : Reuss Voigt Hill
#
# Bulk Modulus (GPa) = 38.75775 45.89398 42.32586
# Shear Modulus (GPa) = -59.10199 20.46943 -19.31628
#
# Velocity S-wave (km/s) = -5.34515 3.14566 -3.05577
# Velocity P-wave (km/s) = 4.39980 5.94805 2.83029
#
# Compressibility (1/GPa) = 0.02580129
#
# Stress axis : x y z
#
# Youngs Moduli (GPa) = 72.58552 65.42499 33.06527
#
# Poissons Ratio (x) = 0.19828 0.05580
# Poissons Ratio (y) = 0.21998 0.39789
# Poissons Ratio (z) = 0.12250 0.78728
#
# Static dielectric constant tensor:
#      x y z
#    x 1.718440 0.000000 0.000000 
#    y 0.000000 1.761010 0.000000 
#    z 0.000000 0.000000 1.790860 
# 
# From -- ./inp_files/11632.got.cif
#   From: 2010.05.17/outbox.cif.g08.bks.cpg/sg52_6_cif.got.tgz:11632.got - 2010.06.03 12:15:38.
