data_PCOD9410956
_publ_section_title
;
Structure prediction by ZEFSAII (Michael W. Deem and Ramdas Pophale) SiO2 
 PCOD9410956
Probable space group: P N N A
;
_chemical_formula_sum "Si O2"
_cell_formula_units_Z 32
_cell_length_a 12.354848
_cell_length_b 5.034534
_cell_length_c 22.616488
_cell_angle_alpha 90.000000
_cell_angle_beta 90.000000
_cell_angle_gamma 90.000000
_cell_volume 1406.765961
_symmetry_space_group_name_H-M "P N N A"
_symmetry_group_IT_number 52
_symmetry_cell_setting 'orthorhombic'
loop_
_space_group_symop_operation_xyz
x,y,z
1/2-x,-y,z
x,1/2-y,1/2-z
1/2-x,1/2+y,1/2-z
-x,-y,-z
1/2+x,y,-z
-x,1/2+y,1/2+z
1/2+x,1/2-y,1/2+z
loop_
_atom_site_type_symbol
_atom_site_label
_atom_site_fract_x
_atom_site_fract_y
_atom_site_fract_z
Si Si1 0.943617 0.366026 0.872450
Si Si2 0.250000 0.000000 0.784731
Si Si3 0.088754 0.633761 0.617477
Si Si4 0.174664 0.750000 0.250000
Si Si5 0.079974 0.748990 0.005041
O O1 0.892987 0.311896 0.808956
O O2 0.987559 0.665937 0.875537
O O3 0.044771 0.166744 0.881850
O O4 0.869834 0.288661 0.929862
O O5 0.301407 0.750000 0.750000
O O6 0.165096 0.849965 0.826503
O O7 0.146002 0.718779 0.555752
O O8 0.250000 0.500000 0.263070
O O9 0.000000 0.500000 0.000000
O O10 0.000000 0.000000 0.000000
#
# Coordination Sequence:
#
# PCOD9410956 Si02
#       5
#     8   4   8   4   8
#     4  10  21  39  67  85 118 163 198 246 317 373
#     4  12  26  38  56  94 138 160 210 256 288 364
#     4  10  21  39  62  90 120 164 202 246 300 363
#     4  12  26  42  60  94 122 150 206 264 308 370
#     4   8  16  34  60  87 111 148 204 243 289 366
#
# _framework density 22.747209999999999
#
# number of rings (size 3 to 8) (size 9 to 14) (size 15 to 20)
#    0.000    2.000    0.000    3.000    5.250    0.000 
#    2.250    0.000    2.750    0.000    0.000    0.000 
#    0.000    0.000    0.000    0.000    0.000    0.000 
#
# Total GULP energy -178454.253636 kJ/mol
# GULP energy per Si atom -5576.695426 kJ/mol
# Density = 2.269544 g / cm^3
# Si number density = 22.747210 Si / 1000 Ang^3
#
#
#
# Elastic Constant Matrix: (Units=GPa)
#
#
# Indices 1 2 3 4 5 6 
#
# 1 13.1318 -0.4038 24.1723 0.0000 0.0000 0.0000
# 2 -0.4038 124.6025 8.2221 0.0000 0.0000 0.0000
# 3 24.1723 8.2221 196.2766 0.0000 0.0000 0.0000
# 4 0.0000 0.0000 0.0000 39.2114 0.0000 0.0000
# 5 0.0000 0.0000 0.0000 0.0000 166.8604 0.0000
# 6 0.0000 0.0000 0.0000 0.0000 0.0000 26.6967
#
#
#
# Elastic Compliance Matrix: (Units=1/GPa)
#
#
# Indices 1 2 3 4 5 6 
#
# 1 0.098632 0.001124 -0.012194 0.000000 0.000000 0.000000
# 2 0.001124 0.008061 -0.000476 0.000000 0.000000 0.000000
# 3 -0.012194 -0.000476 0.006617 0.000000 0.000000 0.000000
# 4 0.000000 0.000000 0.000000 0.025503 0.000000 0.000000
# 5 0.000000 0.000000 0.000000 0.000000 0.005993 0.000000
# 6 0.000000 0.000000 0.000000 0.000000 0.000000 0.037458
#
#
# Mechanical properties :
#
#
# Convention : Reuss Voigt Hill
#
# Bulk Modulus (GPa) = 11.08436 44.22133 27.65284
# Shear Modulus (GPa) = 21.23804 66.68840 43.96322
#
# Velocity S-wave (km/s) = 3.05889 5.42041 4.40100
# Velocity P-wave (km/s) = 4.16643 7.65878 6.16507
#
# Compressibility (1/GPa) = 0.09021724
#
# Stress axis : x y z
#
# Youngs Moduli (GPa) = 10.13872 124.06054 151.13633
#
# Poissons Ratio (x) = -0.13948 1.84296
# Poissons Ratio (y) = -0.01140 0.07196
# Poissons Ratio (z) = 0.12363 0.05907
#
# Static dielectric constant tensor:
#      x y z
#    x 1.856570 0.000000 0.000000 
#    y 0.000000 1.795590 0.000000 
#    z 0.000000 0.000000 2.026040 
# 
# From -- ./inp_files/37022.got.cif
#   From: 2010.05.17/outbox.cif.g08.bks.cpg/sg52_19_cif.got.tgz:37022.got - 2010.06.03 12:15:38.
