data_PCOD9410640
_publ_section_title
;
Structure prediction by ZEFSAII (Michael W. Deem and Ramdas Pophale) SiO2 
 PCOD9410640
Probable space group: P N N A
;
_chemical_formula_sum "Si O2"
_cell_formula_units_Z 32
_cell_length_a 7.408365
_cell_length_b 7.863764
_cell_length_c 27.469681
_cell_angle_alpha 90.000000
_cell_angle_beta 90.000000
_cell_angle_gamma 90.000000
_cell_volume 1600.318621
_symmetry_space_group_name_H-M "P N N A"
_symmetry_group_IT_number 52
_symmetry_cell_setting 'orthorhombic'
loop_
_space_group_symop_operation_xyz
x,y,z
1/2-x,-y,z
x,1/2-y,1/2-z
1/2-x,1/2+y,1/2-z
-x,-y,-z
1/2+x,y,-z
-x,1/2+y,1/2+z
1/2+x,1/2-y,1/2+z
loop_
_atom_site_type_symbol
_atom_site_label
_atom_site_fract_x
_atom_site_fract_y
_atom_site_fract_z
Si Si1 0.839037 0.671041 0.878694
Si Si2 0.111073 0.731285 0.692483
Si Si3 0.459336 0.957725 0.055561
Si Si4 0.974922 0.864552 0.148023
O O1 0.750000 0.500000 0.898352
O O2 0.954926 0.770272 0.920169
O O3 0.671115 0.778725 0.855760
O O4 0.977780 0.639958 0.834727
O O5 0.113210 0.750000 0.750000
O O6 0.033953 0.543803 0.677263
O O7 0.312899 0.742333 0.670970
O O8 0.250000 0.000000 0.061164
O O9 0.565775 0.081368 0.092141
O O10 0.500000 0.000000 0.000000
#
# Coordination Sequence:
#
# PCOD9410640 Si02
#       4
#     8   8   8   8
#     4  10  22  38  56  87 127 150 196 253 297 359
#     4  10  21  36  61  84 114 164 200 244 297 346
#     4   9  19  36  63  84 110 161 201 240 304 356
#     4   9  21  40  56  86 121 149 206 245 287 369
#
# _framework density 19.996016000000001
#
# number of rings (size 3 to 8) (size 9 to 14) (size 15 to 20)
#    0.000    2.500    0.000    2.250    7.000    8.000 
#    0.000    5.000    0.000    0.000    0.000    0.000 
#    0.000    0.000    0.000    0.000    0.000    0.000 
#
# Total GULP energy -178144.331283 kJ/mol
# GULP energy per Si atom -5567.010353 kJ/mol
# Density = 1.995050 g / cm^3
# Si number density = 19.996016 Si / 1000 Ang^3
#
#
#
# Elastic Constant Matrix: (Units=GPa)
#
#
# Indices 1 2 3 4 5 6 
#
# 1 84.3422 15.5510 35.4319 0.0000 0.0000 0.0000
# 2 15.5510 43.2576 31.0555 0.0000 0.0000 0.0000
# 3 35.4319 31.0555 193.0186 0.0000 0.0000 0.0000
# 4 0.0000 0.0000 0.0000 11.0869 0.0000 0.0000
# 5 0.0000 0.0000 0.0000 0.0000 31.6251 0.0000
# 6 0.0000 0.0000 0.0000 0.0000 0.0000 23.1962
#
#
#
# Elastic Compliance Matrix: (Units=1/GPa)
#
#
# Indices 1 2 3 4 5 6 
#
# 1 0.013280 -0.003419 -0.001888 0.000000 0.000000 0.000000
# 2 -0.003419 0.027017 -0.003719 0.000000 0.000000 0.000000
# 3 -0.001888 -0.003719 0.006126 0.000000 0.000000 0.000000
# 4 0.000000 0.000000 0.000000 0.090197 0.000000 0.000000
# 5 0.000000 0.000000 0.000000 0.000000 0.031620 0.000000
# 6 0.000000 0.000000 0.000000 0.000000 0.000000 0.043111
#
#
# Mechanical properties :
#
#
# Convention : Reuss Voigt Hill
#
# Bulk Modulus (GPa) = 35.24776 53.85505 44.55140
# Shear Modulus (GPa) = 20.93292 29.08696 25.00994
#
# Velocity S-wave (km/s) = 3.23902 3.81811 3.54043
# Velocity P-wave (km/s) = 5.62619 6.81386 6.24831
#
# Compressibility (1/GPa) = 0.02837060
#
# Stress axis : x y z
#
# Youngs Moduli (GPa) = 75.30213 37.01441 163.24506
#
# Poissons Ratio (x) = 0.12655 0.30815
# Poissons Ratio (y) = 0.25745 0.60714
# Poissons Ratio (z) = 0.14215 0.13766
#
# Static dielectric constant tensor:
#      x y z
#    x 1.726600 0.000000 0.000000 
#    y 0.000000 1.823580 0.000000 
#    z 0.000000 0.000000 1.735370 
# 
# From -- ./inp_files/39120.got.cif
#   From: 2010.05.17/outbox.cif.g08.bks.cpg/sg52_20_cif.got.tgz:39120.got - 2010.06.03 12:15:38.
