data_PCOD9410018
_publ_section_title
;
Structure prediction by ZEFSAII (Michael W. Deem and Ramdas Pophale) SiO2 
 PCOD9410018
Probable space group: P N N A
;
_chemical_formula_sum "Si O2"
_cell_formula_units_Z 60
_cell_length_a 18.429125
_cell_length_b 25.750584
_cell_length_c 6.191607
_cell_angle_alpha 90.000000
_cell_angle_beta 90.000000
_cell_angle_gamma 90.000000
_cell_volume 2938.293546
_symmetry_space_group_name_H-M "P N N A"
_symmetry_group_IT_number 52
_symmetry_cell_setting 'orthorhombic'
loop_
_space_group_symop_operation_xyz
x,y,z
1/2-x,-y,z
x,1/2-y,1/2-z
1/2-x,1/2+y,1/2-z
-x,-y,-z
1/2+x,y,-z
-x,1/2+y,1/2+z
1/2+x,1/2-y,1/2+z
loop_
_atom_site_type_symbol
_atom_site_label
_atom_site_fract_x
_atom_site_fract_y
_atom_site_fract_z
Si Si1 0.371841 0.599311 0.333363
Si Si2 0.450465 0.051123 0.480950
Si Si3 0.116878 0.890141 0.875987
Si Si4 0.994246 0.862918 0.158066
Si Si5 0.196999 0.250000 0.250000
Si Si6 0.260240 0.834891 0.923622
Si Si7 0.380225 0.670256 0.947292
Si Si8 0.834055 0.484510 0.678093
O O1 0.433403 0.625966 0.478098
O O2 0.295070 0.621077 0.420141
O O3 0.375280 0.538241 0.370916
O O4 0.379808 0.616567 0.084466
O O5 0.435150 0.086466 0.690704
O O6 0.487727 0.085771 0.296461
O O7 0.500000 0.000000 0.500000
O O8 0.370057 0.035460 0.399135
O O9 0.186408 0.855537 0.818618
O O10 0.068581 0.853888 0.033010
O O11 0.147807 0.940498 0.003126
O O12 0.956963 0.823900 0.326971
O O13 0.242377 0.284155 0.422438
O O14 0.143443 0.212504 0.380615
O O15 0.318592 0.827737 0.734689
O O16 0.750000 0.500000 0.694423
#
# Coordination Sequence:
#
# PCOD9410018 Si02
#       8
#     8   8   8   8   4   8   8   8
#     4  10  20  38  59  87 124 158 208 257 301 362
#     4  11  23  37  56  87 128 177 214 251 302 365
#     4  11  23  38  59  89 133 169 211 259 309 369
#     4  10  21  38  60  86 121 165 202 251 306 369
#     4  10  22  42  68  92 118 146 204 268 322 392
#     4  10  22  39  63  91 119 159 202 263 323 377
#     4  10  21  38  68  93 115 155 205 256 318 376
#     4  11  22  35  55  89 125 169 213 252 294 358
#
# _framework density 20.420016
#
# number of rings (size 3 to 8) (size 9 to 14) (size 15 to 20)
#    0.000    1.600    1.333    3.600    1.867    4.800 
#    0.000    0.000   11.733    0.000    0.000    0.000 
#    0.000    0.000    0.000    0.000    0.000    0.000 
#
# Total GULP energy -334652.665402 kJ/mol
# GULP energy per Si atom -5577.544423 kJ/mol
# Density = 2.037354 g / cm^3
# Si number density = 20.420016 Si / 1000 Ang^3
#
#
#
# Elastic Constant Matrix: (Units=GPa)
#
#
# Indices 1 2 3 4 5 6 
#
# 1 78.1359 12.6711 29.0778 0.0000 0.0000 0.0000
# 2 12.6711 54.3273 11.5201 0.0000 0.0000 0.0000
# 3 29.0778 11.5201 80.4723 0.0000 0.0000 0.0000
# 4 0.0000 0.0000 0.0000 25.0183 0.0000 0.0000
# 5 0.0000 0.0000 0.0000 0.0000 23.7396 0.0000
# 6 0.0000 0.0000 0.0000 0.0000 0.0000 11.3656
#
#
#
# Elastic Compliance Matrix: (Units=1/GPa)
#
#
# Indices 1 2 3 4 5 6 
#
# 1 0.015093 -0.002438 -0.005105 0.000000 0.000000 0.000000
# 2 -0.002438 0.019377 -0.001893 0.000000 0.000000 0.000000
# 3 -0.005105 -0.001893 0.014542 0.000000 0.000000 0.000000
# 4 0.000000 0.000000 0.000000 0.039971 0.000000 0.000000
# 5 0.000000 0.000000 0.000000 0.000000 0.042124 0.000000
# 6 0.000000 0.000000 0.000000 0.000000 0.000000 0.087985
#
#
# Mechanical properties :
#
#
# Convention : Reuss Voigt Hill
#
# Bulk Modulus (GPa) = 33.17732 35.49708 34.33720
# Shear Modulus (GPa) = 20.16045 22.66913 21.41479
#
# Velocity S-wave (km/s) = 3.14552 3.33549 3.24190
# Velocity P-wave (km/s) = 5.42910 5.67937 5.55565
#
# Compressibility (1/GPa) = 0.03014107
#
# Stress axis : x y z
#
# Youngs Moduli (GPa) = 66.25470 51.60765 68.76538
#
# Poissons Ratio (x) = 0.12581 0.35103
# Poissons Ratio (y) = 0.16152 0.13018
# Poissons Ratio (z) = 0.33822 0.09770
#
# Static dielectric constant tensor:
#      x y z
#    x 1.730530 0.000000 0.000000 
#    y 0.000000 1.734860 0.000000 
#    z 0.000000 0.000000 1.749690 
# 
# From -- ./inp_files/3596.got.cif
#   From: 2010.05.17/outbox.cif.g08.bks.cpg/sg52_2_cif.got.tgz:3596.got - 2010.06.03 12:15:38.
