data_PCOD9410564
_publ_section_title
;
Structure prediction by ZEFSAII (Michael W. Deem and Ramdas Pophale) SiO2 
 PCOD9410564
Probable space group: P N N A
;
_chemical_formula_sum "Si O2"
_cell_formula_units_Z 48
_cell_length_a 27.831186
_cell_length_b 6.055099
_cell_length_c 15.430692
_cell_angle_alpha 90.000000
_cell_angle_beta 90.000000
_cell_angle_gamma 90.000000
_cell_volume 2600.389266
_symmetry_space_group_name_H-M "P N N A"
_symmetry_group_IT_number 52
_symmetry_cell_setting 'orthorhombic'
loop_
_space_group_symop_operation_xyz
x,y,z
1/2-x,-y,z
x,1/2-y,1/2-z
1/2-x,1/2+y,1/2-z
-x,-y,-z
1/2+x,y,-z
-x,1/2+y,1/2+z
1/2+x,1/2-y,1/2+z
loop_
_atom_site_type_symbol
_atom_site_label
_atom_site_fract_x
_atom_site_fract_y
_atom_site_fract_z
Si Si1 0.632113 0.890529 0.866260
Si Si2 0.605140 0.226631 0.503860
Si Si3 0.323259 0.750000 0.250000
Si Si4 0.455669 0.418718 0.123984
Si Si5 0.452868 0.859513 0.844365
Si Si6 0.197610 0.504551 0.078484
Si Si7 0.507181 0.750000 0.250000
O O1 0.590341 0.718997 0.847785
O O2 0.678323 0.746692 0.894861
O O3 0.611766 0.050854 0.940675
O O4 0.645726 0.050684 0.788299
O O5 0.590096 0.296907 0.408007
O O6 0.655293 0.098515 0.519599
O O7 0.563534 0.070576 0.545367
O O8 0.297431 0.645706 0.166112
O O9 0.499243 0.246158 0.112005
O O10 0.474144 0.578229 0.199460
O O11 0.446427 0.750000 0.750000
O O12 0.462033 0.115637 0.821224
O O13 0.250000 0.500000 0.036786
#
# Coordination Sequence:
#
# PCOD9410564 Si02
#       7
#     8   8   4   8   8   8   4
#     4  10  22  35  52  81 115 153 189 227 269 324
#     4  10  22  38  56  81 111 147 187 234 283 333
#     4  10  22  33  54  80 116 150 186 222 272 323
#     4  10  21  35  54  80 118 154 190 224 271 325
#     4  10  22  38  56  81 112 145 189 234 283 334
#     4  10  23  38  57  81 109 148 186 230 279 332
#     4  10  22  33  52  80 112 156 196 228 266 323
#
# _framework density 18.458777000000001
#
# number of rings (size 3 to 8) (size 9 to 14) (size 15 to 20)
#    0.000    2.000    0.000    2.000    2.333   30.000 
#    0.000    0.000    0.000    0.000    4.333    0.000 
#    0.000    0.000    0.000    0.000    0.000    0.000 
#
# Total GULP energy -267948.911163 kJ/mol
# GULP energy per Si atom -5582.268983 kJ/mol
# Density = 1.841676 g / cm^3
# Si number density = 18.458777 Si / 1000 Ang^3
#
#
#
# Elastic Constant Matrix: (Units=GPa)
#
#
# Indices 1 2 3 4 5 6 
#
# 1 98.0734 37.9231 52.7801 0.0000 0.0000 0.0000
# 2 37.9231 110.9798 31.2559 0.0000 0.0000 0.0000
# 3 52.7801 31.2559 73.0895 0.0000 0.0000 0.0000
# 4 0.0000 0.0000 0.0000 15.4063 0.0000 0.0000
# 5 0.0000 0.0000 0.0000 0.0000 16.3073 0.0000
# 6 0.0000 0.0000 0.0000 0.0000 0.0000 0.9499
#
#
#
# Elastic Compliance Matrix: (Units=1/GPa)
#
#
# Indices 1 2 3 4 5 6 
#
# 1 0.017378 -0.002733 -0.011380 0.000000 0.000000 0.000000
# 2 -0.002733 0.010674 -0.002591 0.000000 0.000000 0.000000
# 3 -0.011380 -0.002591 0.023008 0.000000 0.000000 0.000000
# 4 0.000000 0.000000 0.000000 0.064909 0.000000 0.000000
# 5 0.000000 0.000000 0.000000 0.000000 0.061322 0.000000
# 6 0.000000 0.000000 0.000000 0.000000 0.000000 1.052770
#
#
# Mechanical properties :
#
#
# Convention : Reuss Voigt Hill
#
# Bulk Modulus (GPa) = 56.65353 58.45121 57.55237
# Shear Modulus (GPa) = 3.93901 17.21160 10.57531
#
# Velocity S-wave (km/s) = 1.46239 3.05689 2.39616
# Velocity P-wave (km/s) = 5.79741 6.64786 6.23715
#
# Compressibility (1/GPa) = 0.01765115
#
# Stress axis : x y z
#
# Youngs Moduli (GPa) = 57.54482 93.68267 43.46328
#
# Poissons Ratio (x) = 0.25604 0.49462
# Poissons Ratio (y) = 0.15728 0.11262
# Poissons Ratio (z) = 0.65487 0.24274
#
# Static dielectric constant tensor:
#      x y z
#    x 1.646730 0.000000 0.000000 
#    y 0.000000 1.699950 0.000000 
#    z 0.000000 0.000000 1.642850 
# 
# From -- ./inp_files/29478.got.cif
#   From: 2010.05.17/outbox.cif.g08.bks.cpg/sg52_15_cif.got.tgz:29478.got - 2010.06.03 12:15:38.
