data_PCOD9410793
_publ_section_title
;
Structure prediction by ZEFSAII (Michael W. Deem and Ramdas Pophale) SiO2 
 PCOD9410793
Probable space group: P N N A
;
_chemical_formula_sum "Si O2"
_cell_formula_units_Z 60
_cell_length_a 11.139300
_cell_length_b 26.712667
_cell_length_c 9.541203
_cell_angle_alpha 90.000000
_cell_angle_beta 90.000000
_cell_angle_gamma 90.000000
_cell_volume 2839.084291
_symmetry_space_group_name_H-M "P N N A"
_symmetry_group_IT_number 52
_symmetry_cell_setting 'orthorhombic'
loop_
_space_group_symop_operation_xyz
x,y,z
1/2-x,-y,z
x,1/2-y,1/2-z
1/2-x,1/2+y,1/2-z
-x,-y,-z
1/2+x,y,-z
-x,1/2+y,1/2+z
1/2+x,1/2-y,1/2+z
loop_
_atom_site_type_symbol
_atom_site_label
_atom_site_fract_x
_atom_site_fract_y
_atom_site_fract_z
Si Si1 0.560738 0.828570 0.301054
Si Si2 0.738186 0.250000 0.250000
Si Si3 0.037567 0.109308 0.042277
Si Si4 0.801232 0.372849 0.949558
Si Si5 0.280898 0.440863 0.546046
Si Si6 0.504767 0.376279 0.235928
Si Si7 0.611158 0.295091 0.016700
Si Si8 0.697804 0.055110 0.347638
O O1 0.677320 0.798804 0.249829
O O2 0.490556 0.856734 0.177672
O O3 0.602324 0.866804 0.423782
O O4 0.482502 0.788971 0.392145
O O5 0.658242 0.250233 0.110365
O O6 0.171322 0.084999 0.040738
O O7 0.029847 0.138045 0.894445
O O8 0.921675 0.071598 0.021360
O O9 0.866545 0.380162 0.804518
O O10 0.725064 0.322498 0.948543
O O11 0.720286 0.417445 0.005992
O O12 0.250000 0.500000 0.540438
O O13 0.263210 0.423527 0.708349
O O14 0.561108 0.334395 0.133384
O O15 0.562755 0.430248 0.196017
O O16 0.750000 0.000000 0.360618
#
# Coordination Sequence:
#
# PCOD9410793 Si02
#       8
#     8   4   8   8   8   8   8   8
#     4  10  21  39  61  90 117 164 203 251 325 383
#     4  10  22  40  66  90 124 150 204 268 326 378
#     4  11  22  37  63  92 125 167 215 268 320 393
#     4   9  17  36  56  77 116 153 202 241 305 372
#     4  10  21  38  59  90 128 170 215 271 328 382
#     4   9  20  34  55  83 113 154 203 251 311 364
#     4   9  20  39  63  83 118 159 191 256 313 386
#     4   9  17  32  53  77 113 159 201 253 315 365
#
# _framework density 21.133575
#
# number of rings (size 3 to 8) (size 9 to 14) (size 15 to 20)
#    0.000    2.400    1.333    0.400    3.733    1.600 
#    0.000    0.667    0.000    3.200    0.000    0.000 
#    0.000    0.000    0.000    0.000    0.000    0.000 
#
# Total GULP energy -334010.080605 kJ/mol
# GULP energy per Si atom -5566.834677 kJ/mol
# Density = 2.108547 g / cm^3
# Si number density = 21.133575 Si / 1000 Ang^3
#
#
#
# Elastic Constant Matrix: (Units=GPa)
#
#
# Indices 1 2 3 4 5 6 
#
# 1 88.4176 17.4730 34.4949 0.0000 0.0000 0.0000
# 2 17.4730 45.9692 20.4235 0.0000 0.0000 0.0000
# 3 34.4949 20.4235 70.6861 0.0000 0.0000 0.0000
# 4 0.0000 0.0000 0.0000 13.7745 0.0000 0.0000
# 5 0.0000 0.0000 0.0000 0.0000 30.9518 0.0000
# 6 0.0000 0.0000 0.0000 0.0000 0.0000 20.8048
#
#
#
# Elastic Compliance Matrix: (Units=1/GPa)
#
#
# Indices 1 2 3 4 5 6 
#
# 1 0.014250 -0.002670 -0.006182 0.000000 0.000000 0.000000
# 2 -0.002670 0.025458 -0.006053 0.000000 0.000000 0.000000
# 3 -0.006182 -0.006053 0.018913 0.000000 0.000000 0.000000
# 4 0.000000 0.000000 0.000000 0.072598 0.000000 0.000000
# 5 0.000000 0.000000 0.000000 0.000000 0.032308 0.000000
# 6 0.000000 0.000000 0.000000 0.000000 0.000000 0.048066
#
#
# Mechanical properties :
#
#
# Convention : Reuss Voigt Hill
#
# Bulk Modulus (GPa) = 34.70954 38.87285 36.79120
# Shear Modulus (GPa) = 19.91992 21.95165 20.93579
#
# Velocity S-wave (km/s) = 3.07346 3.22640 3.15086
# Velocity P-wave (km/s) = 5.39022 5.68448 5.53930
#
# Compressibility (1/GPa) = 0.02881052
#
# Stress axis : x y z
#
# Youngs Moduli (GPa) = 70.17785 39.28104 52.87379
#
# Poissons Ratio (x) = 0.10486 0.32689
# Poissons Ratio (y) = 0.18734 0.32003
# Poissons Ratio (z) = 0.43387 0.23776
#
# Static dielectric constant tensor:
#      x y z
#    x 1.845760 0.000000 0.000000 
#    y 0.000000 1.789450 0.000000 
#    z 0.000000 0.000000 1.774410 
# 
# From -- ./inp_files/9024.got.cif
#   From: 2010.05.17/outbox.cif.g08.bks.cpg/sg52_5_cif.got.tgz:9024.got - 2010.06.03 12:15:38.
