data_PCOD9410004
_publ_section_title
;
Structure prediction by ZEFSAII (Michael W. Deem and Ramdas Pophale) SiO2 
 PCOD9410004
Probable space group: P N N A
;
_chemical_formula_sum "Si O2"
_cell_formula_units_Z 48
_cell_length_a 20.271166
_cell_length_b 11.815912
_cell_length_c 9.999928
_cell_angle_alpha 90.000000
_cell_angle_beta 90.000000
_cell_angle_gamma 90.000000
_cell_volume 2395.205890
_symmetry_space_group_name_H-M "P N N A"
_symmetry_group_IT_number 52
_symmetry_cell_setting 'orthorhombic'
loop_
_space_group_symop_operation_xyz
x,y,z
1/2-x,-y,z
x,1/2-y,1/2-z
1/2-x,1/2+y,1/2-z
-x,-y,-z
1/2+x,y,-z
-x,1/2+y,1/2+z
1/2+x,1/2-y,1/2+z
loop_
_atom_site_type_symbol
_atom_site_label
_atom_site_fract_x
_atom_site_fract_y
_atom_site_fract_z
Si Si1 0.328533 0.206091 0.100928
Si Si2 0.439774 0.429043 0.736948
Si Si3 0.821498 0.511974 0.442684
Si Si4 0.463841 0.247014 0.957691
Si Si5 0.289633 0.761491 0.592403
Si Si6 0.576222 0.156904 0.366898
O O1 0.315590 0.250000 0.250000
O O2 0.320124 0.070778 0.071526
O O3 0.404743 0.229038 0.062374
O O4 0.275893 0.264887 0.998652
O O5 0.373425 0.459633 0.658317
O O6 0.434462 0.335872 0.851554
O O7 0.481713 0.368703 0.620757
O O8 0.458039 0.545774 0.806396
O O9 0.750000 0.500000 0.377597
O O10 0.827721 0.646453 0.457559
O O11 0.529343 0.297717 0.018695
O O12 0.271713 0.750000 0.750000
O O13 0.347359 0.856450 0.587191
O O14 0.578802 0.250000 0.250000
#
# Coordination Sequence:
#
# PCOD9410004 Si02
#       6
#     8   8   8   8   8   8
#     4  10  22  40  59  90 130 162 200 251 318 379
#     4  10  20  38  58  90 116 156 209 255 305 361
#     4   9  18  35  65  85 119 153 200 257 306 359
#     4  10  23  37  60  87 125 162 201 254 313 372
#     4  10  20  38  66  91 116 158 212 259 302 363
#     4  11  21  39  60  88 119 156 211 255 304 368
#
# _framework density 20.040030999999999
#
# number of rings (size 3 to 8) (size 9 to 14) (size 15 to 20)
#    0.000    2.000    3.333    1.000    7.000    0.667 
#    6.000    5.000    0.000    0.000    0.000    0.000 
#    0.000    0.000    0.000    0.000    0.000    0.000 
#
# Total GULP energy -267297.331715 kJ/mol
# GULP energy per Si atom -5568.694411 kJ/mol
# Density = 1.999442 g / cm^3
# Si number density = 20.040031 Si / 1000 Ang^3
#
#
#
# Elastic Constant Matrix: (Units=GPa)
#
#
# Indices 1 2 3 4 5 6 
#
# 1 46.4965 -9.1490 23.7585 0.0000 0.0000 0.0000
# 2 -9.1490 69.9668 18.3618 0.0000 0.0000 0.0000
# 3 23.7585 18.3618 97.0741 0.0000 0.0000 0.0000
# 4 0.0000 0.0000 0.0000 12.3910 0.0000 0.0000
# 5 0.0000 0.0000 0.0000 0.0000 246.0906 0.0000
# 6 0.0000 0.0000 0.0000 0.0000 0.0000 7.9929
#
#
#
# Elastic Compliance Matrix: (Units=1/GPa)
#
#
# Indices 1 2 3 4 5 6 
#
# 1 0.026397 0.005416 -0.007485 0.000000 0.000000 0.000000
# 2 0.005416 0.016150 -0.004380 0.000000 0.000000 0.000000
# 3 -0.007485 -0.004380 0.012962 0.000000 0.000000 0.000000
# 4 0.000000 0.000000 0.000000 0.080704 0.000000 0.000000
# 5 0.000000 0.000000 0.000000 0.000000 0.004064 0.000000
# 6 0.000000 0.000000 0.000000 0.000000 0.000000 0.125111
#
#
# Mechanical properties :
#
#
# Convention : Reuss Voigt Hill
#
# Bulk Modulus (GPa) = 23.46820 31.05333 27.26076
# Shear Modulus (GPa) = 17.09456 65.33262 41.21359
#
# Velocity S-wave (km/s) = 2.92382 5.71593 4.53985
# Velocity P-wave (km/s) = 4.80982 7.68711 6.41195
#
# Compressibility (1/GPa) = 0.04261086
#
# Stress axis : x y z
#
# Youngs Moduli (GPa) = 37.88239 61.91822 77.14880
#
# Poissons Ratio (x) = -0.33536 0.57747
# Poissons Ratio (y) = -0.20518 0.33795
# Poissons Ratio (z) = 0.28356 0.27123
#
# Static dielectric constant tensor:
#      x y z
#    x 1.725920 0.000000 0.000000 
#    y 0.000000 1.808890 0.000000 
#    z 0.000000 0.000000 1.690310 
# 
# From -- ./inp_files/14274.got.cif
#   From: 2010.05.17/outbox.cif.g08.bks.cpg/sg52_8_cif.got.tgz:14274.got - 2010.06.03 12:15:38.
