data_PCOD9410323
_publ_section_title
;
Structure prediction by ZEFSAII (Michael W. Deem and Ramdas Pophale) SiO2 
 PCOD9410323
Probable space group: P N N A
;
_chemical_formula_sum "Si O2"
_cell_formula_units_Z 32
_cell_length_a 15.514106
_cell_length_b 17.285079
_cell_length_c 5.875623
_cell_angle_alpha 90.000000
_cell_angle_beta 90.000000
_cell_angle_gamma 90.000000
_cell_volume 1575.622034
_symmetry_space_group_name_H-M "P N N A"
_symmetry_group_IT_number 52
_symmetry_cell_setting 'orthorhombic'
loop_
_space_group_symop_operation_xyz
x,y,z
1/2-x,-y,z
x,1/2-y,1/2-z
1/2-x,1/2+y,1/2-z
-x,-y,-z
1/2+x,y,-z
-x,1/2+y,1/2+z
1/2+x,1/2-y,1/2+z
loop_
_atom_site_type_symbol
_atom_site_label
_atom_site_fract_x
_atom_site_fract_y
_atom_site_fract_z
Si Si1 0.358092 0.606917 0.990408
Si Si2 0.994855 0.331996 0.649587
Si Si3 0.905251 0.750000 0.750000
Si Si4 0.750000 0.000000 0.217300
Si Si5 0.408631 0.483224 0.377701
O O1 0.347839 0.688883 0.113954
O O2 0.392854 0.540172 0.163681
O O3 0.429042 0.628717 0.799295
O O4 0.272597 0.572585 0.877011
O O5 0.969223 0.250000 0.750000
O O6 0.035321 0.306135 0.406952
O O7 0.917731 0.392360 0.670083
O O8 0.832088 0.007467 0.056071
O O9 0.500000 0.500000 0.500000
#
# Coordination Sequence:
#
# PCOD9410323 Si02
#       5
#     8   8   4   4   8
#     4  11  22  41  70  98 133 179 235 283 349 420
#     4  10  22  39  73  97 130 178 225 282 354 411
#     4  10  20  40  68 100 132 174 226 282 352 416
#     4  12  26  38  70 102 134 182 234 288 354 418
#     4  12  23  44  71  97 133 182 234 288 344 423
#
# _framework density 20.309441
#
# number of rings (size 3 to 8) (size 9 to 14) (size 15 to 20)
#    0.000    1.000    5.000    1.500    0.000    0.000 
#    0.000    0.000   71.500    0.000    0.000    0.000 
#    0.000    0.000    0.000    0.000    0.000    0.000 
#
# Total GULP energy -178488.738020 kJ/mol
# GULP energy per Si atom -5577.773063 kJ/mol
# Density = 2.026322 g / cm^3
# Si number density = 20.309441 Si / 1000 Ang^3
#
#
#
# Elastic Constant Matrix: (Units=GPa)
#
#
# Indices 1 2 3 4 5 6 
#
# 1 86.7769 40.7355 39.7460 0.0000 0.0000 0.0000
# 2 40.7355 157.8033 58.1693 0.0000 0.0000 0.0000
# 3 39.7460 58.1693 105.1415 0.0000 0.0000 0.0000
# 4 0.0000 0.0000 0.0000 48.3234 0.0000 0.0000
# 5 0.0000 0.0000 0.0000 0.0000 9.5525 0.0000
# 6 0.0000 0.0000 0.0000 0.0000 0.0000 29.6117
#
#
#
# Elastic Compliance Matrix: (Units=1/GPa)
#
#
# Indices 1 2 3 4 5 6 
#
# 1 0.014502 -0.002164 -0.004285 0.000000 0.000000 0.000000
# 2 -0.002164 0.008283 -0.003765 0.000000 0.000000 0.000000
# 3 -0.004285 -0.003765 0.013214 0.000000 0.000000 0.000000
# 4 0.000000 0.000000 0.000000 0.020694 0.000000 0.000000
# 5 0.000000 0.000000 0.000000 0.000000 0.104685 0.000000
# 6 0.000000 0.000000 0.000000 0.000000 0.000000 0.033770
#
#
# Mechanical properties :
#
#
# Convention : Reuss Voigt Hill
#
# Bulk Modulus (GPa) = 64.21850 69.66924 66.94387
# Shear Modulus (GPa) = 22.64840 31.56892 27.10866
#
# Velocity S-wave (km/s) = 3.34303 3.94686 3.65743
# Velocity P-wave (km/s) = 6.82567 7.42621 7.13227
#
# Compressibility (1/GPa) = 0.01557184
#
# Stress axis : x y z
#
# Youngs Moduli (GPa) = 68.95458 120.72363 75.67968
#
# Poissons Ratio (x) = 0.26126 0.32428
# Poissons Ratio (y) = 0.14923 0.28491
# Poissons Ratio (z) = 0.29546 0.45448
#
# Static dielectric constant tensor:
#      x y z
#    x 1.679620 0.000000 0.000000 
#    y 0.000000 1.822260 0.000000 
#    z 0.000000 0.000000 1.844630 
# 
# From -- ./inp_files/1946.got.cif
#   From: 2010.05.17/outbox.cif.g08.bks.cpg/sg52_1_cif.got.tgz:1946.got - 2010.06.03 12:15:38.
