data_PCOD9410913
_publ_section_title
;
Structure prediction by ZEFSAII (Michael W. Deem and Ramdas Pophale) SiO2 
 PCOD9410913
Probable space group: P N N A
;
_chemical_formula_sum "Si O2"
_cell_formula_units_Z 64
_cell_length_a 23.537663
_cell_length_b 15.338216
_cell_length_c 8.715124
_cell_angle_alpha 90.000000
_cell_angle_beta 90.000000
_cell_angle_gamma 90.000000
_cell_volume 3146.384259
_symmetry_space_group_name_H-M "P N N A"
_symmetry_group_IT_number 52
_symmetry_cell_setting 'orthorhombic'
loop_
_space_group_symop_operation_xyz
x,y,z
1/2-x,-y,z
x,1/2-y,1/2-z
1/2-x,1/2+y,1/2-z
-x,-y,-z
1/2+x,y,-z
-x,1/2+y,1/2+z
1/2+x,1/2-y,1/2+z
loop_
_atom_site_type_symbol
_atom_site_label
_atom_site_fract_x
_atom_site_fract_y
_atom_site_fract_z
Si Si1 0.054330 0.331085 0.353743
Si Si2 0.222549 0.347276 0.307353
Si Si3 0.121355 0.465370 0.170771
Si Si4 0.301403 0.944301 0.890348
Si Si5 0.946177 0.503629 0.117419
Si Si6 0.576543 0.663898 0.340531
Si Si7 0.153971 0.900110 0.109500
Si Si8 0.594502 0.348595 0.305906
O O1 0.072724 0.250000 0.250000
O O2 0.070210 0.411820 0.248161
O O3 0.086452 0.343769 0.511842
O O4 0.988400 0.320822 0.391589
O O5 0.209910 0.250000 0.250000
O O6 0.180116 0.413523 0.214838
O O7 0.214730 0.368393 0.488554
O O8 0.290388 0.363183 0.304219
O O9 0.118896 0.558213 0.253328
O O10 0.107006 0.477646 0.994846
O O11 0.346038 0.898709 0.780859
O O12 0.250000 0.000000 0.817473
O O13 0.328054 0.017758 0.001946
O O14 0.930599 0.420132 0.225705
O O15 0.951419 0.588315 0.226975
O O16 0.000000 0.500000 0.000000
O O17 0.595406 0.750000 0.250000
O O18 0.616912 0.653504 0.488211
O O19 0.593503 0.250000 0.250000
#
# Coordination Sequence:
#
# PCOD9410913 Si02
#       8
#     8   8   8   8   8   8   8   8
#     4  11  22  40  66 100 135 181 225 282 350 413
#     4  10  21  38  70  97 128 173 232 284 345 416
#     4  11  21  39  71  93 137 176 228 284 348 412
#     4   9  19  40  64  90 130 175 217 278 343 413
#     4  12  26  43  64 105 144 178 231 289 347 422
#     4  11  25  44  68  95 139 189 231 282 351 424
#     4  10  21  43  66  92 129 186 228 272 352 425
#     4  12  25  40  70 106 138 178 235 292 351 416
#
# _framework density 20.340807000000002
#
# number of rings (size 3 to 8) (size 9 to 14) (size 15 to 20)
#    0.000    1.250    5.000    2.250    5.250    2.000 
#    0.000    4.375    0.000    0.000    0.000    0.000 
#    0.000    0.000    0.000    0.000    0.000    0.000 
#
# Total GULP energy -356446.946065 kJ/mol
# GULP energy per Si atom -5569.483532 kJ/mol
# Density = 2.029451 g / cm^3
# Si number density = 20.340807 Si / 1000 Ang^3
#
#
#
# Elastic Constant Matrix: (Units=GPa)
#
#
# Indices 1 2 3 4 5 6 
#
# 1 70.1998 32.1402 26.8796 0.0000 0.0000 0.0000
# 2 32.1402 109.9813 45.6490 0.0000 0.0000 0.0000
# 3 26.8796 45.6490 84.9094 0.0000 0.0000 0.0000
# 4 0.0000 0.0000 0.0000 22.3318 0.0000 0.0000
# 5 0.0000 0.0000 0.0000 0.0000 22.8142 0.0000
# 6 0.0000 0.0000 0.0000 0.0000 0.0000 37.5739
#
#
#
# Elastic Compliance Matrix: (Units=1/GPa)
#
#
# Indices 1 2 3 4 5 6 
#
# 1 0.017233 -0.003568 -0.003537 0.000000 0.000000 0.000000
# 2 -0.003568 0.012443 -0.005560 0.000000 0.000000 0.000000
# 3 -0.003537 -0.005560 0.015886 0.000000 0.000000 0.000000
# 4 0.000000 0.000000 0.000000 0.044779 0.000000 0.000000
# 5 0.000000 0.000000 0.000000 0.000000 0.043832 0.000000
# 6 0.000000 0.000000 0.000000 0.000000 0.000000 0.026614
#
#
# Mechanical properties :
#
#
# Convention : Reuss Voigt Hill
#
# Bulk Modulus (GPa) = 49.42733 52.71423 51.07078
# Shear Modulus (GPa) = 25.92524 27.23875 26.58200
#
# Velocity S-wave (km/s) = 3.57395 3.66337 3.61893
# Velocity P-wave (km/s) = 6.43297 6.62310 6.52873
#
# Compressibility (1/GPa) = 0.02023172
#
# Stress axis : x y z
#
# Youngs Moduli (GPa) = 58.02826 80.36728 62.94765
#
# Poissons Ratio (x) = 0.28674 0.22266
# Poissons Ratio (y) = 0.20704 0.34999
# Poissons Ratio (z) = 0.20526 0.44685
#
# Static dielectric constant tensor:
#      x y z
#    x 1.838920 0.000000 0.000000 
#    y 0.000000 1.795070 0.000000 
#    z 0.000000 0.000000 1.695300 
# 
# From -- ./inp_files/14487.got.cif
#   From: 2010.05.17/outbox.cif.g08.bks.cpg/sg52_8_cif.got.tgz:14487.got - 2010.06.03 12:15:38.
