data_PCOD9410771
_publ_section_title
;
Structure prediction by ZEFSAII (Michael W. Deem and Ramdas Pophale) SiO2 
 PCOD9410771
Probable space group: P N N A
;
_chemical_formula_sum "Si O2"
_cell_formula_units_Z 52
_cell_length_a 5.046328
_cell_length_b 22.226156
_cell_length_c 22.086169
_cell_angle_alpha 90.000000
_cell_angle_beta 90.000000
_cell_angle_gamma 90.000000
_cell_volume 2477.195170
_symmetry_space_group_name_H-M "P N N A"
_symmetry_group_IT_number 52
_symmetry_cell_setting 'orthorhombic'
loop_
_space_group_symop_operation_xyz
x,y,z
1/2-x,-y,z
x,1/2-y,1/2-z
1/2-x,1/2+y,1/2-z
-x,-y,-z
1/2+x,y,-z
-x,1/2+y,1/2+z
1/2+x,1/2-y,1/2+z
loop_
_atom_site_type_symbol
_atom_site_label
_atom_site_fract_x
_atom_site_fract_y
_atom_site_fract_z
Si Si1 0.747141 0.863818 0.178485
Si Si2 0.246617 0.927894 0.237527
Si Si3 0.315097 0.560473 0.962130
Si Si4 0.751827 0.317901 0.458226
Si Si5 0.315076 0.686089 0.905351
Si Si6 0.313121 0.668314 0.165127
Si Si7 0.450440 0.750000 0.750000
O O1 0.478216 0.896670 0.198000
O O2 0.764113 0.851645 0.106522
O O3 0.786618 0.799290 0.211769
O O4 0.978589 0.905262 0.205772
O O5 0.279829 0.896707 0.303673
O O6 0.250000 0.000000 0.240037
O O7 0.250000 0.500000 0.924825
O O8 0.235622 0.623566 0.935032
O O9 0.620469 0.557176 0.980037
O O10 0.515491 0.331534 0.504421
O O11 0.737293 0.246804 0.441597
O O12 0.628301 0.677553 0.893598
O O13 0.116203 0.685493 0.847546
O O14 0.156176 0.713469 0.208467
#
# Coordination Sequence:
#
# PCOD9410771 Si02
#       7
#     8   8   8   8   8   8   4
#     4  11  24  42  72  95 133 179 214 279 328 404
#     4  11  25  44  67  98 132 174 218 273 338 395
#     4  10  21  38  57  77 112 166 219 258 298 355
#     4  12  25  41  64  96 136 170 219 275 330 391
#     4  12  23  38  59  95 126 174 205 266 321 380
#     4  11  24  36  64  92 132 163 207 259 316 398
#     4  10  22  42  64 102 128 170 218 254 334 406
#
# _framework density 20.991482000000001
#
# number of rings (size 3 to 8) (size 9 to 14) (size 15 to 20)
#    0.000    0.923    1.538    6.000    4.308    2.462 
#    0.000    0.000    0.000    9.231    0.000    0.000 
#    0.000    0.000    0.000    0.000    0.000    0.000 
#
# Total GULP energy -290451.195014 kJ/mol
# GULP energy per Si atom -5585.599904 kJ/mol
# Density = 2.094370 g / cm^3
# Si number density = 20.991482 Si / 1000 Ang^3
#
#
#
# Elastic Constant Matrix: (Units=GPa)
#
#
# Indices 1 2 3 4 5 6 
#
# 1 70.9012 0.4031 3.7097 0.0000 0.0000 0.0000
# 2 0.4031 100.9274 -3.3651 0.0000 0.0000 0.0000
# 3 3.7097 -3.3651 38.0735 0.0000 0.0000 0.0000
# 4 0.0000 0.0000 0.0000 -11.4388 0.0000 0.0000
# 5 0.0000 0.0000 0.0000 0.0000 21.7641 0.0000
# 6 0.0000 0.0000 0.0000 0.0000 0.0000 24.5739
#
#
#
# Elastic Compliance Matrix: (Units=1/GPa)
#
#
# Indices 1 2 3 4 5 6 
#
# 1 0.014177 -0.000103 -0.001390 0.000000 0.000000 0.000000
# 2 -0.000103 0.009938 0.000888 0.000000 0.000000 0.000000
# 3 -0.001390 0.000888 0.026479 0.000000 0.000000 0.000000
# 4 0.000000 0.000000 0.000000 -0.087422 0.000000 0.000000
# 5 0.000000 0.000000 0.000000 0.000000 0.045947 0.000000
# 6 0.000000 0.000000 0.000000 0.000000 0.000000 0.040694
#
#
# Mechanical properties :
#
#
# Convention : Reuss Voigt Hill
#
# Bulk Modulus (GPa) = 20.24927 23.48861 21.86894
# Shear Modulus (GPa) = 74.09052 20.92347 47.50699
#
# Velocity S-wave (km/s) = 5.94745 3.16058 4.76242
# Velocity P-wave (km/s) = 7.53858 4.95307 6.37821
#
# Compressibility (1/GPa) = 0.04938451
#
# Stress axis : x y z
#
# Youngs Moduli (GPa) = 70.53443 100.62243 37.76576
#
# Poissons Ratio (x) = 0.01036 0.05251
# Poissons Ratio (y) = 0.00726 -0.03355
# Poissons Ratio (z) = 0.09808 -0.08939
#
# Static dielectric constant tensor:
#      x y z
#    x 1.749610 0.000000 0.000000 
#    y 0.000000 1.784020 0.000000 
#    z 0.000000 0.000000 1.946130 
# 
# From -- ./inp_files/35179.got.cif
#   From: 2010.05.17/outbox.cif.g08.bks.cpg/sg52_18_cif.got.tgz:35179.got - 2010.06.03 12:15:38.
