data_PCOD9410760
_publ_section_title
;
Structure prediction by ZEFSAII (Michael W. Deem and Ramdas Pophale) SiO2 
 PCOD9410760
Probable space group: P N N A
;
_chemical_formula_sum "Si O2"
_cell_formula_units_Z 64
_cell_length_a 17.781351
_cell_length_b 28.660526
_cell_length_c 5.224843
_cell_angle_alpha 90.000000
_cell_angle_beta 90.000000
_cell_angle_gamma 90.000000
_cell_volume 2662.699499
_symmetry_space_group_name_H-M "P N N A"
_symmetry_group_IT_number 52
_symmetry_cell_setting 'orthorhombic'
loop_
_space_group_symop_operation_xyz
x,y,z
1/2-x,-y,z
x,1/2-y,1/2-z
1/2-x,1/2+y,1/2-z
-x,-y,-z
1/2+x,y,-z
-x,1/2+y,1/2+z
1/2+x,1/2-y,1/2+z
loop_
_atom_site_type_symbol
_atom_site_label
_atom_site_fract_x
_atom_site_fract_y
_atom_site_fract_z
Si Si1 0.264010 0.153977 0.252103
Si Si2 0.440939 0.792393 0.059252
Si Si3 0.685861 0.431206 0.966472
Si Si4 0.536478 0.568595 0.439653
Si Si5 0.794496 0.801251 0.257009
Si Si6 0.956517 0.874400 0.573570
Si Si7 0.123601 0.024734 0.948182
Si Si8 0.068201 0.667574 0.308667
O O1 0.253531 0.100970 0.358353
O O2 0.214344 0.183144 0.451990
O O3 0.347801 0.173428 0.280718
O O4 0.240499 0.163731 0.957233
O O5 0.425199 0.750000 0.250000
O O6 0.432980 0.843777 0.183255
O O7 0.379945 0.794382 0.835044
O O8 0.528107 0.792374 0.973110
O O9 0.681861 0.462098 0.222354
O O10 0.619854 0.394184 0.036932
O O11 0.657648 0.460464 0.721369
O O12 0.507643 0.581776 0.156523
O O13 0.458697 0.550871 0.572864
O O14 0.598876 0.529014 0.444155
O O15 0.566985 0.617298 0.547917
O O16 0.757578 0.750000 0.250000
O O17 0.008996 0.840695 0.415564
#
# Coordination Sequence:
#
# PCOD9410760 Si02
#       8
#     8   8   8   8   8   8   8   8
#     4  12  27  46  71  98 151 187 233 287 371 436
#     4  11  25  45  74 108 135 184 245 309 354 425
#     4  11  21  40  66  98 131 181 235 282 343 422
#     4   9  21  37  65 100 136 174 231 294 354 401
#     4  12  27  49  73 104 133 189 243 296 350 428
#     4  10  21  40  67  99 134 181 235 286 350 422
#     4  10  21  37  68 102 131 174 236 299 336 409
#     4  11  25  43  69 102 145 191 225 295 367 440
#
# _framework density 24.035758000000001
#
# number of rings (size 3 to 8) (size 9 to 14) (size 15 to 20)
#    0.000    1.250    2.500    2.625    8.750    2.000 
#    2.250    0.625    0.000    0.000    0.000    0.000 
#    0.000    0.000    0.000    0.000    0.000    0.000 
#
# Total GULP energy -357498.240346 kJ/mol
# GULP energy per Si atom -5585.910005 kJ/mol
# Density = 2.398105 g / cm^3
# Si number density = 24.035758 Si / 1000 Ang^3
#
#
#
# Elastic Constant Matrix: (Units=GPa)
#
#
# Indices 1 2 3 4 5 6 
#
# 1 89.2907 4.9224 24.4797 0.0000 0.0000 0.0000
# 2 4.9224 62.3708 10.1412 0.0000 0.0000 0.0000
# 3 24.4797 10.1412 87.5253 0.0000 0.0000 0.0000
# 4 0.0000 0.0000 0.0000 18.9859 0.0000 0.0000
# 5 0.0000 0.0000 0.0000 0.0000 14.8863 0.0000
# 6 0.0000 0.0000 0.0000 0.0000 0.0000 18.9855
#
#
#
# Elastic Compliance Matrix: (Units=1/GPa)
#
#
# Indices 1 2 3 4 5 6 
#
# 1 0.012140 -0.000414 -0.003347 0.000000 0.000000 0.000000
# 2 -0.000414 0.016355 -0.001779 0.000000 0.000000 0.000000
# 3 -0.003347 -0.001779 0.012568 0.000000 0.000000 0.000000
# 4 0.000000 0.000000 0.000000 0.052671 0.000000 0.000000
# 5 0.000000 0.000000 0.000000 0.000000 0.067176 0.000000
# 6 0.000000 0.000000 0.000000 0.000000 0.000000 0.052672
#
#
# Mechanical properties :
#
#
# Convention : Reuss Voigt Hill
#
# Bulk Modulus (GPa) = 33.35374 35.36372 34.35873
# Shear Modulus (GPa) = 21.30779 23.88110 22.59444
#
# Velocity S-wave (km/s) = 2.98065 3.15551 3.06932
# Velocity P-wave (km/s) = 5.07470 5.29351 5.18526
#
# Compressibility (1/GPa) = 0.02998164
#
# Stress axis : x y z
#
# Youngs Moduli (GPa) = 82.37292 61.14299 79.56930
#
# Poissons Ratio (x) = 0.02530 0.26635
# Poissons Ratio (y) = 0.03409 0.14157
# Poissons Ratio (z) = 0.27574 0.10879
#
# Static dielectric constant tensor:
#      x y z
#    x 1.921360 0.000000 0.000000 
#    y 0.000000 1.970970 0.000000 
#    z 0.000000 0.000000 1.989580 
# 
# From -- ./inp_files/3664.got.cif
#   From: 2010.05.17/outbox.cif.g08.bks.cpg/sg52_2_cif.got.tgz:3664.got - 2010.06.03 12:15:38.
