data_PCOD9410896
_publ_section_title
;
Structure prediction by ZEFSAII (Michael W. Deem and Ramdas Pophale) SiO2 
 PCOD9410896
Probable space group: P N N A
;
_chemical_formula_sum "Si O2"
_cell_formula_units_Z 40
_cell_length_a 16.194335
_cell_length_b 18.201469
_cell_length_c 5.739146
_cell_angle_alpha 90.000000
_cell_angle_beta 90.000000
_cell_angle_gamma 90.000000
_cell_volume 1691.674615
_symmetry_space_group_name_H-M "P N N A"
_symmetry_group_IT_number 52
_symmetry_cell_setting 'orthorhombic'
loop_
_space_group_symop_operation_xyz
x,y,z
1/2-x,-y,z
x,1/2-y,1/2-z
1/2-x,1/2+y,1/2-z
-x,-y,-z
1/2+x,y,-z
-x,1/2+y,1/2+z
1/2+x,1/2-y,1/2+z
loop_
_atom_site_type_symbol
_atom_site_label
_atom_site_fract_x
_atom_site_fract_y
_atom_site_fract_z
Si Si1 0.889527 0.663388 0.223425
Si Si2 0.089183 0.837145 0.237935
Si Si3 0.046131 0.562584 0.645297
Si Si4 0.333265 0.032507 0.478150
Si Si5 0.128041 0.104740 0.225978
O O1 0.881475 0.750000 0.250000
O O2 0.851596 0.631506 0.465735
O O3 0.989974 0.649206 0.223310
O O4 0.848341 0.640785 0.975715
O O5 0.103189 0.750000 0.250000
O O6 0.149068 0.883474 0.408152
O O7 0.102394 0.879572 0.993079
O O8 0.000000 0.500000 0.500000
O O9 0.970856 0.610754 0.738957
O O10 0.093807 0.518643 0.841964
O O11 0.250000 0.000000 0.583890
O O12 0.345597 0.979841 0.255490
#
# Coordination Sequence:
#
# PCOD9410896 Si02
#       5
#     8   8   8   8   8
#     4  10  21  38  67 102 136 174 230 292 353 403
#     4  10  22  40  65  99 134 177 229 291 352 425
#     4  11  21  41  70 100 135 177 236 294 348 417
#     4  12  25  41  65 101 134 185 237 291 353 426
#     4  11  21  39  67  98 134 176 233 291 341 412
#
# _framework density 23.645209999999999
#
# number of rings (size 3 to 8) (size 9 to 14) (size 15 to 20)
#    0.000    1.200    4.000    3.600    0.000    1.600 
#    0.000    2.000    0.000    0.000    0.000    0.000 
#    0.000    0.000    0.000    0.000    0.000    0.000 
#
# Total GULP energy -222943.752760 kJ/mol
# GULP energy per Si atom -5573.593819 kJ/mol
# Density = 2.359139 g / cm^3
# Si number density = 23.645210 Si / 1000 Ang^3
#
#
#
# Elastic Constant Matrix: (Units=GPa)
#
#
# Indices 1 2 3 4 5 6 
#
# 1 47.5490 16.0520 15.0830 0.0000 0.0000 0.0000
# 2 16.0520 166.5968 62.9336 0.0000 0.0000 0.0000
# 3 15.0830 62.9336 147.2482 0.0000 0.0000 0.0000
# 4 0.0000 0.0000 0.0000 38.0023 0.0000 0.0000
# 5 0.0000 0.0000 0.0000 0.0000 -1.3805 0.0000
# 6 0.0000 0.0000 0.0000 0.0000 0.0000 11.6924
#
#
#
# Elastic Compliance Matrix: (Units=1/GPa)
#
#
# Indices 1 2 3 4 5 6 
#
# 1 0.022054 -0.001516 -0.001611 0.000000 0.000000 0.000000
# 2 -0.001516 0.007263 -0.002949 0.000000 0.000000 0.000000
# 3 -0.001611 -0.002949 0.008217 0.000000 0.000000 0.000000
# 4 0.000000 0.000000 0.000000 0.026314 0.000000 0.000000
# 5 0.000000 0.000000 0.000000 0.000000 -0.724396 0.000000
# 6 0.000000 0.000000 0.000000 0.000000 0.000000 0.085526
#
#
# Mechanical properties :
#
#
# Convention : Reuss Voigt Hill
#
# Bulk Modulus (GPa) = 39.39967 61.05904 50.22935
# Shear Modulus (GPa) = -9.01859 27.48454 9.23297
#
# Velocity S-wave (km/s) = -1.95510 3.41306 1.97820
# Velocity P-wave (km/s) = 3.40624 6.43514 5.14847
#
# Compressibility (1/GPa) = 0.02538092
#
# Stress axis : x y z
#
# Youngs Moduli (GPa) = 45.34352 137.69344 121.70611
#
# Poissons Ratio (x) = 0.20880 0.19606
# Poissons Ratio (y) = 0.06876 0.35887
# Poissons Ratio (z) = 0.07304 0.40601
#
# Static dielectric constant tensor:
#      x y z
#    x 1.989010 0.000000 0.000000 
#    y 0.000000 1.661900 0.000000 
#    z 0.000000 0.000000 2.050620 
# 
# From -- ./inp_files/3195.got.cif
#   From: 2010.05.17/outbox.cif.g08.bks.cpg/sg52_2_cif.got.tgz:3195.got - 2010.06.03 12:15:38.
