data_PCOD9410293
_publ_section_title
;
Structure prediction by ZEFSAII (Michael W. Deem and Ramdas Pophale) SiO2 
 PCOD9410293
Probable space group: P N N A
;
_chemical_formula_sum "Si O2"
_cell_formula_units_Z 44
_cell_length_a 13.565971
_cell_length_b 12.042055
_cell_length_c 13.171536
_cell_angle_alpha 90.000000
_cell_angle_beta 90.000000
_cell_angle_gamma 90.000000
_cell_volume 2151.730689
_symmetry_space_group_name_H-M "P N N A"
_symmetry_group_IT_number 52
_symmetry_cell_setting 'orthorhombic'
loop_
_space_group_symop_operation_xyz
x,y,z
1/2-x,-y,z
x,1/2-y,1/2-z
1/2-x,1/2+y,1/2-z
-x,-y,-z
1/2+x,y,-z
-x,1/2+y,1/2+z
1/2+x,1/2-y,1/2+z
loop_
_atom_site_type_symbol
_atom_site_label
_atom_site_fract_x
_atom_site_fract_y
_atom_site_fract_z
Si Si1 0.466972 0.750000 0.750000
Si Si2 0.917337 0.911665 0.971037
Si Si3 0.143135 0.468677 0.685259
Si Si4 0.134458 0.016487 0.453329
Si Si5 0.499973 0.183657 0.461443
Si Si6 0.454737 0.884623 0.242724
O O1 0.401276 0.642733 0.731818
O O2 0.527987 0.773230 0.649591
O O3 0.845283 0.932935 0.065544
O O4 0.971644 0.792579 0.977275
O O5 0.886778 0.920445 0.853963
O O6 0.000000 0.000000 0.000000
O O7 0.250000 0.500000 0.725030
O O8 0.061867 0.563531 0.712187
O O9 0.099286 0.109596 0.533147
O O10 0.085354 0.058917 0.346603
O O11 0.250000 0.000000 0.442841
O O12 0.084809 0.901949 0.491211
O O13 0.456561 0.750000 0.250000
#
# Coordination Sequence:
#
# PCOD9410293 Si02
#       6
#     4   8   8   8   8   8
#     4  10  20  40  64  88 128 160 206 258 310 370
#     4   9  20  40  63  86 127 166 200 257 317 367
#     4  10  22  38  61  95 124 166 208 253 315 373
#     4  11  24  43  65  94 125 171 214 259 319 386
#     4  10  21  44  63  88 129 162 210 264 313 372
#     4  11  21  42  63  91 129 163 205 266 314 368
#
# _framework density 20.448656
#
# number of rings (size 3 to 8) (size 9 to 14) (size 15 to 20)
#    0.000    1.818    3.636    0.000    1.273    1.455 
#   14.727    0.000    0.000    0.000    0.000    0.000 
#    0.000    0.000    0.000    0.000    0.000    0.000 
#
# Total GULP energy -245007.554236 kJ/mol
# GULP energy per Si atom -5568.353505 kJ/mol
# Density = 2.040211 g / cm^3
# Si number density = 20.448656 Si / 1000 Ang^3
#
#
#
# Elastic Constant Matrix: (Units=GPa)
#
#
# Indices 1 2 3 4 5 6 
#
# 1 83.6756 35.9267 -4.4432 0.0000 0.0000 0.0000
# 2 35.9267 124.6257 -12.0981 0.0000 0.0000 0.0000
# 3 -4.4432 -12.0981 84.3641 0.0000 0.0000 0.0000
# 4 0.0000 0.0000 0.0000 11.4118 0.0000 0.0000
# 5 0.0000 0.0000 0.0000 0.0000 -51.6287 0.0000
# 6 0.0000 0.0000 0.0000 0.0000 0.0000 5.5473
#
#
#
# Elastic Compliance Matrix: (Units=1/GPa)
#
#
# Indices 1 2 3 4 5 6 
#
# 1 0.013641 -0.003917 0.000157 0.000000 0.000000 0.000000
# 2 -0.003917 0.009262 0.001122 0.000000 0.000000 0.000000
# 3 0.000157 0.001122 0.012023 0.000000 0.000000 0.000000
# 4 0.000000 0.000000 0.000000 0.087628 0.000000 0.000000
# 5 0.000000 0.000000 0.000000 0.000000 -0.019369 0.000000
# 6 0.000000 0.000000 0.000000 0.000000 0.000000 0.180267
#
#
# Mechanical properties :
#
#
# Convention : Reuss Voigt Hill
#
# Bulk Modulus (GPa) = 33.72838 36.82626 35.27732
# Shear Modulus (GPa) = 16.74413 11.28477 14.01445
#
# Velocity S-wave (km/s) = 2.86464 2.35172 2.62076
# Velocity P-wave (km/s) = 5.24133 5.04206 5.14266
#
# Compressibility (1/GPa) = 0.02964862
#
# Stress axis : x y z
#
# Youngs Moduli (GPa) = 73.30785 107.96605 83.17726
#
# Poissons Ratio (x) = 0.42292 -0.01303
# Poissons Ratio (y) = 0.28716 -0.09332
# Poissons Ratio (z) = -0.01149 -0.12113
#
# Static dielectric constant tensor:
#      x y z
#    x 1.618870 0.000000 0.000000 
#    y 0.000000 1.718370 0.000000 
#    z 0.000000 0.000000 0.215520 
# 
# From -- ./inp_files/27096.got.cif
#   From: 2010.05.17/outbox.cif.g08.bks.cpg/sg52_14_cif.got.tgz:27096.got - 2010.06.03 12:15:38.
