data_PCOD9410379
_publ_section_title
;
Structure prediction by ZEFSAII (Michael W. Deem and Ramdas Pophale) SiO2 
 PCOD9410379
Probable space group: P N N A
;
_chemical_formula_sum "Si O2"
_cell_formula_units_Z 48
_cell_length_a 28.013759
_cell_length_b 8.564611
_cell_length_c 8.457011
_cell_angle_alpha 90.000000
_cell_angle_beta 90.000000
_cell_angle_gamma 90.000000
_cell_volume 2029.064843
_symmetry_space_group_name_H-M "P N N A"
_symmetry_group_IT_number 52
_symmetry_cell_setting 'orthorhombic'
loop_
_space_group_symop_operation_xyz
x,y,z
1/2-x,-y,z
x,1/2-y,1/2-z
1/2-x,1/2+y,1/2-z
-x,-y,-z
1/2+x,y,-z
-x,1/2+y,1/2+z
1/2+x,1/2-y,1/2+z
loop_
_atom_site_type_symbol
_atom_site_label
_atom_site_fract_x
_atom_site_fract_y
_atom_site_fract_z
Si Si1 0.640734 0.461100 0.144622
Si Si2 0.129516 0.163542 0.999790
Si Si3 0.978379 0.825909 0.068565
Si Si4 0.160969 0.644331 0.403198
Si Si5 0.570650 0.701516 0.070387
Si Si6 0.271200 0.166851 0.600338
O O1 0.655633 0.328482 0.020690
O O2 0.633507 0.402416 0.320960
O O3 0.592290 0.530032 0.075052
O O4 0.678160 0.599354 0.161084
O O5 0.072693 0.182272 0.019338
O O6 0.155222 0.041038 0.113252
O O7 0.969690 0.750000 0.250000
O O8 0.021148 0.715562 0.015605
O O9 0.000000 0.000000 0.000000
O O10 0.157877 0.750000 0.250000
O O11 0.112234 0.690688 0.496632
O O12 0.210708 0.698688 0.483102
O O13 0.563488 0.750000 0.250000
O O14 0.245562 0.250000 0.750000
O O15 0.250000 0.000000 0.544060
#
# Coordination Sequence:
#
# PCOD9410379 Si02
#       6
#     8   8   8   8   8   8
#     4  10  20  41  65  91 131 171 226 285 350 414
#     4  11  21  40  64  93 130 181 231 283 349 417
#     4  12  24  39  63  95 134 184 245 297 354 425
#     4  11  22  44  71  94 138 190 224 283 374 428
#     4  11  21  40  62  92 134 181 234 295 351 421
#     4  11  24  42  71 107 130 171 226 280 349 438
#
# _framework density 23.656217999999999
#
# number of rings (size 3 to 8) (size 9 to 14) (size 15 to 20)
#    0.000    1.000    6.667    1.500    2.333    0.667 
#    0.000    5.833    0.000    0.000    0.000    0.000 
#    0.000    0.000    0.000    0.000    0.000    0.000 
#
# Total GULP energy -267279.754723 kJ/mol
# GULP energy per Si atom -5568.328223 kJ/mol
# Density = 2.360238 g / cm^3
# Si number density = 23.656218 Si / 1000 Ang^3
#
#
#
# Elastic Constant Matrix: (Units=GPa)
#
#
# Indices 1 2 3 4 5 6 
#
# 1 69.8905 16.2760 6.8679 0.0000 0.0000 0.0000
# 2 16.2760 131.3336 20.2114 0.0000 0.0000 0.0000
# 3 6.8679 20.2114 56.7980 0.0000 0.0000 0.0000
# 4 0.0000 0.0000 0.0000 34.9951 0.0000 0.0000
# 5 0.0000 0.0000 0.0000 0.0000 21.5868 0.0000
# 6 0.0000 0.0000 0.0000 0.0000 0.0000 44.2749
#
#
#
# Elastic Compliance Matrix: (Units=1/GPa)
#
#
# Indices 1 2 3 4 5 6 
#
# 1 0.014811 -0.001650 -0.001204 0.000000 0.000000 0.000000
# 2 -0.001650 0.008239 -0.002732 0.000000 0.000000 0.000000
# 3 -0.001204 -0.002732 0.018724 0.000000 0.000000 0.000000
# 4 0.000000 0.000000 0.000000 0.028575 0.000000 0.000000
# 5 0.000000 0.000000 0.000000 0.000000 0.046325 0.000000
# 6 0.000000 0.000000 0.000000 0.000000 0.000000 0.022586
#
#
# Mechanical properties :
#
#
# Convention : Reuss Voigt Hill
#
# Bulk Modulus (GPa) = 32.67811 38.30364 35.49087
# Shear Modulus (GPa) = 31.12681 34.48247 32.80464
#
# Velocity S-wave (km/s) = 3.63133 3.82206 3.72791
# Velocity P-wave (km/s) = 5.60587 5.97532 5.79354
#
# Compressibility (1/GPa) = 0.03060152
#
# Stress axis : x y z
#
# Youngs Moduli (GPa) = 67.51882 121.37097 53.40708
#
# Poissons Ratio (x) = 0.20029 0.06428
# Poissons Ratio (y) = 0.11142 0.14593
# Poissons Ratio (z) = 0.08127 0.33163
#
# Static dielectric constant tensor:
#      x y z
#    x 1.925680 0.000000 0.000000 
#    y 0.000000 2.167520 0.000000 
#    z 0.000000 0.000000 1.946730 
# 
# From -- ./inp_files/15530.got.cif
#   From: 2010.05.17/outbox.cif.g08.bks.cpg/sg52_8_cif.got.tgz:15530.got - 2010.06.03 12:15:38.
