data_PCOD9410626
_publ_section_title
;
Structure prediction by ZEFSAII (Michael W. Deem and Ramdas Pophale) SiO2 
 PCOD9410626
Probable space group: P N N A
;
_chemical_formula_sum "Si O2"
_cell_formula_units_Z 48
_cell_length_a 32.661051
_cell_length_b 8.138006
_cell_length_c 9.009650
_cell_angle_alpha 90.000000
_cell_angle_beta 90.000000
_cell_angle_gamma 90.000000
_cell_volume 2394.727391
_symmetry_space_group_name_H-M "P N N A"
_symmetry_group_IT_number 52
_symmetry_cell_setting 'orthorhombic'
loop_
_space_group_symop_operation_xyz
x,y,z
1/2-x,-y,z
x,1/2-y,1/2-z
1/2-x,1/2+y,1/2-z
-x,-y,-z
1/2+x,y,-z
-x,1/2+y,1/2+z
1/2+x,1/2-y,1/2+z
loop_
_atom_site_type_symbol
_atom_site_label
_atom_site_fract_x
_atom_site_fract_y
_atom_site_fract_z
Si Si1 0.415273 0.803274 0.919435
Si Si2 0.501504 0.191137 0.927264
Si Si3 0.166431 0.303848 0.419046
Si Si4 0.751332 0.805958 0.418731
Si Si5 0.830568 0.194897 0.918197
Si Si6 0.911706 0.298805 0.421186
O O1 0.417162 0.750000 0.750000
O O2 0.413285 0.002250 0.926535
O O3 0.456447 0.745055 0.001955
O O4 0.373475 0.739851 0.993853
O O5 0.503484 0.250000 0.750000
O O6 0.456762 0.259126 0.973343
O O7 0.500000 0.000000 0.000000
O O8 0.164362 0.250000 0.250000
O O9 0.208963 0.250203 0.491168
O O10 0.165703 0.499772 0.423053
O O11 0.755285 0.750000 0.250000
O O12 0.709073 0.741885 0.487397
O O13 0.750000 0.000000 0.424061
O O14 0.824894 0.250000 0.750000
O O15 0.873104 0.262882 0.985090
O O16 0.906002 0.250000 0.250000
#
# Coordination Sequence:
#
# PCOD9410626 Si02
#       6
#     8   8   8   8   8   8
#     4  10  21  36  59  88 119 156 200 245 297 355
#     4   9  18  37  59  84 120 161 201 248 302 359
#     4  11  23  40  60  86 120 156 196 245 296 353
#     4  12  25  42  63  87 116 152 192 240 295 355
#     4  11  23  39  60  87 116 153 196 242 294 351
#     4   9  20  38  58  82 118 156 194 242 295 351
#
# _framework density 20.044035999999998
#
# number of rings (size 3 to 8) (size 9 to 14) (size 15 to 20)
#    0.000    1.667    0.000    4.500    0.000    6.000 
#    0.000    7.500    0.000    0.000    0.000    0.000 
#    0.000    0.000    0.000    0.000    0.000    0.000 
#
# Total GULP energy -267693.626913 kJ/mol
# GULP energy per Si atom -5576.950561 kJ/mol
# Density = 1.999842 g / cm^3
# Si number density = 20.044036 Si / 1000 Ang^3
#
#
#
# Elastic Constant Matrix: (Units=GPa)
#
#
# Indices 1 2 3 4 5 6 
#
# 1 199.2331 26.3533 84.7720 0.0000 0.0000 0.0000
# 2 26.3533 48.9879 18.0134 0.0000 0.0000 0.0000
# 3 84.7720 18.0134 129.4427 0.0000 0.0000 0.0000
# 4 0.0000 0.0000 0.0000 31.5910 0.0000 0.0000
# 5 0.0000 0.0000 0.0000 0.0000 47.6667 0.0000
# 6 0.0000 0.0000 0.0000 0.0000 0.0000 -29.0332
#
#
#
# Elastic Compliance Matrix: (Units=1/GPa)
#
#
# Indices 1 2 3 4 5 6 
#
# 1 0.007186 -0.002250 -0.004393 0.000000 0.000000 0.000000
# 2 -0.002250 0.022219 -0.001618 0.000000 0.000000 0.000000
# 3 -0.004393 -0.001618 0.010828 0.000000 0.000000 0.000000
# 4 0.000000 0.000000 0.000000 0.031655 0.000000 0.000000
# 5 0.000000 0.000000 0.000000 0.000000 0.020979 0.000000
# 6 0.000000 0.000000 0.000000 0.000000 0.000000 -0.034443
#
#
# Mechanical properties :
#
#
# Convention : Reuss Voigt Hill
#
# Bulk Modulus (GPa) = 42.17756 70.66013 56.41884
# Shear Modulus (GPa) = 60.35061 26.61323 43.48192
#
# Velocity S-wave (km/s) = 5.49312 3.64777 4.66265
# Velocity P-wave (km/s) = 7.83075 7.28496 7.56278
#
# Compressibility (1/GPa) = 0.02370929
#
# Stress axis : x y z
#
# Youngs Moduli (GPa) = 139.15735 45.00679 92.35662
#
# Poissons Ratio (x) = 0.10129 0.40572
# Poissons Ratio (y) = 0.31317 0.14945
# Poissons Ratio (z) = 0.61132 0.07283
#
# Static dielectric constant tensor:
#      x y z
#    x 1.790860 0.000000 0.000000 
#    y 0.000000 1.721760 0.000000 
#    z 0.000000 0.000000 1.674310 
# 
# From -- ./inp_files/15516.got.cif
#   From: 2010.05.17/outbox.cif.g08.bks.cpg/sg52_8_cif.got.tgz:15516.got - 2010.06.03 12:15:38.
