data_PCOD9410494
_publ_section_title
;
Structure prediction by ZEFSAII (Michael W. Deem and Ramdas Pophale) SiO2 
 PCOD9410494
Probable space group: P N N A
;
_chemical_formula_sum "Si O2"
_cell_formula_units_Z 32
_cell_length_a 13.048675
_cell_length_b 8.881371
_cell_length_c 10.380333
_cell_angle_alpha 90.000000
_cell_angle_beta 90.000000
_cell_angle_gamma 90.000000
_cell_volume 1202.978076
_symmetry_space_group_name_H-M "P N N A"
_symmetry_group_IT_number 52
_symmetry_cell_setting 'orthorhombic'
loop_
_space_group_symop_operation_xyz
x,y,z
1/2-x,-y,z
x,1/2-y,1/2-z
1/2-x,1/2+y,1/2-z
-x,-y,-z
1/2+x,y,-z
-x,1/2+y,1/2+z
1/2+x,1/2-y,1/2+z
loop_
_atom_site_type_symbol
_atom_site_label
_atom_site_fract_x
_atom_site_fract_y
_atom_site_fract_z
Si Si1 0.434298 0.644334 0.621341
Si Si2 0.151560 0.579717 0.303874
Si Si3 0.669258 0.898896 0.287515
Si Si4 0.455391 0.873413 0.408967
O O1 0.444244 0.750000 0.750000
O O2 0.552699 0.592626 0.605154
O O3 0.366309 0.506238 0.670978
O O4 0.406895 0.743044 0.496369
O O5 0.250000 0.500000 0.363892
O O6 0.172438 0.750000 0.250000
O O7 0.116289 0.459592 0.192715
O O8 0.729298 0.750000 0.250000
O O9 0.566342 0.834304 0.350360
O O10 0.750000 0.000000 0.368064
O O11 0.500000 0.000000 0.500000
#
# Coordination Sequence:
#
# PCOD9410494 Si02
#       4
#     8   8   8   8
#     4  10  20  44  67  97 134 179 230 282 340 411
#     4  10  21  38  64 102 137 176 231 285 347 412
#     4  11  25  43  68 104 141 178 230 290 348 419
#     4  11  21  43  74  92 131 190 232 281 345 417
#
# _framework density 26.600648
#
# number of rings (size 3 to 8) (size 9 to 14) (size 15 to 20)
#    0.000    1.500    7.500    0.750    0.000    6.000 
#    0.000    1.250    0.000    0.000    0.000    0.000 
#    0.000    0.000    0.000    0.000    0.000    0.000 
#
# Total GULP energy -178843.963687 kJ/mol
# GULP energy per Si atom -5588.873865 kJ/mol
# Density = 2.654010 g / cm^3
# Si number density = 26.600648 Si / 1000 Ang^3
#
#
#
# Elastic Constant Matrix: (Units=GPa)
#
#
# Indices 1 2 3 4 5 6 
#
# 1 116.3739 40.5040 10.4059 0.0000 0.0000 0.0000
# 2 40.5040 156.3043 39.9444 0.0000 0.0000 0.0000
# 3 10.4059 39.9444 96.4592 0.0000 0.0000 0.0000
# 4 0.0000 0.0000 0.0000 68.5537 0.0000 0.0000
# 5 0.0000 0.0000 0.0000 0.0000 20.8015 0.0000
# 6 0.0000 0.0000 0.0000 0.0000 0.0000 52.0596
#
#
#
# Elastic Compliance Matrix: (Units=1/GPa)
#
#
# Indices 1 2 3 4 5 6 
#
# 1 0.009445 -0.002446 -0.000006 0.000000 0.000000 0.000000
# 2 -0.002446 0.007788 -0.002961 0.000000 0.000000 0.000000
# 3 -0.000006 -0.002961 0.011594 0.000000 0.000000 0.000000
# 4 0.000000 0.000000 0.000000 0.014587 0.000000 0.000000
# 5 0.000000 0.000000 0.000000 0.000000 0.048073 0.000000
# 6 0.000000 0.000000 0.000000 0.000000 0.000000 0.019209
#
#
# Mechanical properties :
#
#
# Convention : Reuss Voigt Hill
#
# Bulk Modulus (GPa) = 55.55359 61.20510 58.37934
# Shear Modulus (GPa) = 39.20845 46.83515 43.02180
#
# Velocity S-wave (km/s) = 3.84339 4.20059 4.02596
# Velocity P-wave (km/s) = 6.37379 6.82536 6.60343
#
# Compressibility (1/GPa) = 0.01800064
#
# Stress axis : x y z
#
# Youngs Moduli (GPa) = 105.87779 128.39600 86.25119
#
# Poissons Ratio (x) = 0.31405 0.00052
# Poissons Ratio (y) = 0.25897 0.25542
# Poissons Ratio (z) = 0.00064 0.38023
#
# Static dielectric constant tensor:
#      x y z
#    x 2.642680 0.000000 0.000000 
#    y 0.000000 2.087660 0.000000 
#    z 0.000000 0.000000 1.390480 
# 
# From -- ./inp_files/19005.got.cif
#   From: 2010.05.17/outbox.cif.g08.bks.cpg/sg52_10_cif.got.tgz:19005.got - 2010.06.03 12:15:38.
