data_PCOD9410545
_publ_section_title
;
Structure prediction by ZEFSAII (Michael W. Deem and Ramdas Pophale) SiO2 
 PCOD9410545
Probable space group: P N N A
;
_chemical_formula_sum "Si O2"
_cell_formula_units_Z 52
_cell_length_a 5.478314
_cell_length_b 19.443429
_cell_length_c 22.281491
_cell_angle_alpha 90.000000
_cell_angle_beta 90.000000
_cell_angle_gamma 90.000000
_cell_volume 2373.362240
_symmetry_space_group_name_H-M "P N N A"
_symmetry_group_IT_number 52
_symmetry_cell_setting 'orthorhombic'
loop_
_space_group_symop_operation_xyz
x,y,z
1/2-x,-y,z
x,1/2-y,1/2-z
1/2-x,1/2+y,1/2-z
-x,-y,-z
1/2+x,y,-z
-x,1/2+y,1/2+z
1/2+x,1/2-y,1/2+z
loop_
_atom_site_type_symbol
_atom_site_label
_atom_site_fract_x
_atom_site_fract_y
_atom_site_fract_z
Si Si1 0.721230 0.108544 0.971769
Si Si2 0.250000 0.500000 0.230683
Si Si3 0.203036 0.766068 0.517488
Si Si4 0.786083 0.747105 0.145939
Si Si5 0.750000 0.000000 0.189007
Si Si6 0.950212 0.379248 0.647366
Si Si7 0.372248 0.356893 0.210464
Si Si8 0.492624 0.750000 0.250000
O O1 0.747103 0.097709 0.900289
O O2 0.469309 0.080946 0.998127
O O3 0.735645 0.189927 0.991012
O O4 0.501451 0.512719 0.270351
O O5 0.303305 0.432857 0.190881
O O6 0.472906 0.799542 0.515532
O O7 0.129421 0.765543 0.587466
O O8 0.979179 0.803667 0.124557
O O9 0.655203 0.786848 0.200560
O O10 0.904168 0.680011 0.176961
O O11 0.667309 0.065048 0.149368
O O12 0.889433 0.368109 0.717231
O O13 0.161425 0.300577 0.209056
#
# Coordination Sequence:
#
# PCOD9410545 Si02
#       8
#     8   4   8   8   4   8   8   4
#     4  10  21  34  56  80 113 165 204 257 300 352
#     4  10  24  44  60  85 132 165 210 238 332 386
#     4  10  22  37  56  84 118 165 198 253 315 368
#     4  12  22  36  59  91 123 154 211 258 322 366
#     4  10  24  40  62  83 118 181 202 256 306 382
#     4  11  20  41  56  84 126 160 215 249 315 371
#     4  11  24  38  60  93 125 166 199 269 316 388
#     4  12  22  32  62  98 124 156 202 272 308 378
#
# _framework density 21.909845000000001
#
# number of rings (size 3 to 8) (size 9 to 14) (size 15 to 20)
#    0.000    1.231    6.154    0.923    8.615    2.462 
#    0.000    0.769    0.000    0.000    0.000    1.077 
#    0.000    0.000    0.000    0.000    0.000    0.000 
#
# Total GULP energy -289711.215302 kJ/mol
# GULP energy per Si atom -5571.369525 kJ/mol
# Density = 2.185998 g / cm^3
# Si number density = 21.909845 Si / 1000 Ang^3
#
#
#
# Elastic Constant Matrix: (Units=GPa)
#
#
# Indices 1 2 3 4 5 6 
#
# 1 108.9752 10.6823 9.9099 0.0000 0.0000 0.0000
# 2 10.6823 93.3001 6.1140 0.0000 0.0000 0.0000
# 3 9.9099 6.1140 82.9589 0.0000 0.0000 0.0000
# 4 0.0000 0.0000 0.0000 3.1169 0.0000 0.0000
# 5 0.0000 0.0000 0.0000 0.0000 18.9313 0.0000
# 6 0.0000 0.0000 0.0000 0.0000 0.0000 20.2465
#
#
#
# Elastic Compliance Matrix: (Units=1/GPa)
#
#
# Indices 1 2 3 4 5 6 
#
# 1 0.009370 -0.001004 -0.001045 0.000000 0.000000 0.000000
# 2 -0.001004 0.010878 -0.000682 0.000000 0.000000 0.000000
# 3 -0.001045 -0.000682 0.012229 0.000000 0.000000 0.000000
# 4 0.000000 0.000000 0.000000 0.320827 0.000000 0.000000
# 5 0.000000 0.000000 0.000000 0.000000 0.052823 0.000000
# 6 0.000000 0.000000 0.000000 0.000000 0.000000 0.049391
#
#
# Mechanical properties :
#
#
# Convention : Reuss Voigt Hill
#
# Bulk Modulus (GPa) = 37.01734 37.62739 37.32237
# Shear Modulus (GPa) = 10.63864 25.69415 18.16640
#
# Velocity S-wave (km/s) = 2.20594 3.42822 2.88261
# Velocity P-wave (km/s) = 4.83944 5.73422 5.30573
#
# Compressibility (1/GPa) = 0.02701437
#
# Stress axis : x y z
#
# Youngs Moduli (GPa) = 106.72478 91.93065 81.77102
#
# Poissons Ratio (x) = 0.09233 0.08547
# Poissons Ratio (y) = 0.10718 0.05574
# Poissons Ratio (z) = 0.11156 0.06267
#
# Static dielectric constant tensor:
#      x y z
#    x 1.982610 0.000000 0.000000 
#    y 0.000000 2.052300 0.000000 
#    z 0.000000 0.000000 1.810410 
# 
# From -- ./inp_files/35201.got.cif
#   From: 2010.05.17/outbox.cif.g08.bks.cpg/sg52_18_cif.got.tgz:35201.got - 2010.06.03 12:15:38.
