data_PCOD9410009
_publ_section_title
;
Structure prediction by ZEFSAII (Michael W. Deem and Ramdas Pophale) SiO2 
 PCOD9410009
Probable space group: P N N A
;
_chemical_formula_sum "Si O2"
_cell_formula_units_Z 56
_cell_length_a 12.095903
_cell_length_b 13.483434
_cell_length_c 13.564942
_cell_angle_alpha 90.000000
_cell_angle_beta 90.000000
_cell_angle_gamma 90.000000
_cell_volume 2212.364853
_symmetry_space_group_name_H-M "P N N A"
_symmetry_group_IT_number 52
_symmetry_cell_setting 'orthorhombic'
loop_
_space_group_symop_operation_xyz
x,y,z
1/2-x,-y,z
x,1/2-y,1/2-z
1/2-x,1/2+y,1/2-z
-x,-y,-z
1/2+x,y,-z
-x,1/2+y,1/2+z
1/2+x,1/2-y,1/2+z
loop_
_atom_site_type_symbol
_atom_site_label
_atom_site_fract_x
_atom_site_fract_y
_atom_site_fract_z
Si Si1 0.650937 0.077776 0.873595
Si Si2 0.743913 0.816101 0.447606
Si Si3 0.190698 0.108652 0.335842
Si Si4 0.002124 0.699658 0.106806
Si Si5 0.493518 0.096568 0.198884
Si Si6 0.204424 0.110105 0.914432
Si Si7 0.541346 0.586608 0.073226
O O1 0.691701 0.141725 0.779393
O O2 0.750000 0.000000 0.885799
O O3 0.549590 0.006344 0.843435
O O4 0.636683 0.124661 0.981317
O O5 0.762252 0.837353 0.565931
O O6 0.870019 0.815324 0.404058
O O7 0.713098 0.702691 0.417150
O O8 0.669444 0.903854 0.397942
O O9 0.058500 0.101498 0.353551
O O10 0.250000 0.000000 0.337234
O O11 0.046865 0.805149 0.142297
O O12 0.036101 0.618380 0.188357
O O13 0.047066 0.680078 0.999789
O O14 0.623047 0.109336 0.178363
O O15 0.250000 0.000000 0.916053
O O16 0.500000 0.500000 0.000000
#
# Coordination Sequence:
#
# PCOD9410009 Si02
#       7
#     8   8   8   8   8   8   8
#     4  10  22  37  62  90 123 163 214 263 323 383
#     4  10  22  40  64  91 135 165 214 270 321 398
#     4  10  20  38  58  96 133 164 208 268 328 396
#     4   9  22  37  65  93 121 168 212 257 329 391
#     4  10  20  43  62  88 125 163 214 267 318 393
#     4  10  23  43  64  89 121 173 223 267 319 379
#     4  11  20  35  62  94 129 168 204 257 331 381
#
# _framework density 25.312280000000001
#
# number of rings (size 3 to 8) (size 9 to 14) (size 15 to 20)
#    0.000    2.000    1.429    1.286    6.000    0.571 
#    7.714    0.000    0.000    0.000    0.000    0.000 
#    0.000    0.000    0.000    0.000    0.000    0.000 
#
# Total GULP energy -312179.496443 kJ/mol
# GULP energy per Si atom -5574.633865 kJ/mol
# Density = 2.525467 g / cm^3
# Si number density = 25.312280 Si / 1000 Ang^3
#
#
#
# Elastic Constant Matrix: (Units=GPa)
#
#
# Indices 1 2 3 4 5 6 
#
# 1 81.8416 30.6387 4.7728 0.0000 0.0000 0.0000
# 2 30.6387 98.2440 1.2294 0.0000 0.0000 0.0000
# 3 4.7728 1.2294 78.4114 0.0000 0.0000 0.0000
# 4 0.0000 0.0000 0.0000 24.7496 0.0000 0.0000
# 5 0.0000 0.0000 0.0000 0.0000 40.3444 0.0000
# 6 0.0000 0.0000 0.0000 0.0000 0.0000 43.3011
#
#
#
# Elastic Compliance Matrix: (Units=1/GPa)
#
#
# Indices 1 2 3 4 5 6 
#
# 1 0.013881 -0.004319 -0.000777 0.000000 0.000000 0.000000
# 2 -0.004319 0.011525 0.000082 0.000000 0.000000 0.000000
# 3 -0.000777 0.000082 0.012799 0.000000 0.000000 0.000000
# 4 0.000000 0.000000 0.000000 0.040405 0.000000 0.000000
# 5 0.000000 0.000000 0.000000 0.000000 0.024787 0.000000
# 6 0.000000 0.000000 0.000000 0.000000 0.000000 0.023094
#
#
# Mechanical properties :
#
#
# Convention : Reuss Voigt Hill
#
# Bulk Modulus (GPa) = 35.49054 36.86432 36.17743
# Shear Modulus (GPa) = 34.26746 36.46944 35.36845
#
# Velocity S-wave (km/s) = 3.68338 3.79988 3.74208
# Velocity P-wave (km/s) = 5.66932 5.81786 5.74407
#
# Compressibility (1/GPa) = 0.02817653
#
# Stress axis : x y z
#
# Youngs Moduli (GPa) = 72.04070 86.76990 78.12949
#
# Poissons Ratio (x) = 0.37478 0.06072
# Poissons Ratio (y) = 0.31116 -0.00642
# Poissons Ratio (z) = 0.05599 -0.00713
#
# Static dielectric constant tensor:
#      x y z
#    x 2.212260 0.000000 0.000000 
#    y 0.000000 1.831320 0.000000 
#    z 0.000000 0.000000 1.983170 
# 
# From -- ./inp_files/26137.got.cif
#   From: 2010.05.17/outbox.cif.g08.bks.cpg/sg52_14_cif.got.tgz:26137.got - 2010.06.03 12:15:38.
