data_PCOD9410092
_publ_section_title
;
Structure prediction by ZEFSAII (Michael W. Deem and Ramdas Pophale) SiO2 
 PCOD9410092
Probable space group: P N N A
;
_chemical_formula_sum "Si O2"
_cell_formula_units_Z 52
_cell_length_a 21.601605
_cell_length_b 17.526066
_cell_length_c 5.711344
_cell_angle_alpha 90.000000
_cell_angle_beta 90.000000
_cell_angle_gamma 90.000000
_cell_volume 2162.264321
_symmetry_space_group_name_H-M "P N N A"
_symmetry_group_IT_number 52
_symmetry_cell_setting 'orthorhombic'
loop_
_space_group_symop_operation_xyz
x,y,z
1/2-x,-y,z
x,1/2-y,1/2-z
1/2-x,1/2+y,1/2-z
-x,-y,-z
1/2+x,y,-z
-x,1/2+y,1/2+z
1/2+x,1/2-y,1/2+z
loop_
_atom_site_type_symbol
_atom_site_label
_atom_site_fract_x
_atom_site_fract_y
_atom_site_fract_z
Si Si1 0.272261 0.250000 0.750000
Si Si2 0.949514 0.869060 0.311224
Si Si3 0.219572 0.146232 0.356143
Si Si4 0.163768 0.481377 0.850361
Si Si5 0.573209 0.960550 0.729728
Si Si6 0.673419 0.610384 0.491180
Si Si7 0.581616 0.140836 0.820033
O O1 0.231487 0.216388 0.534913
O O2 0.315935 0.320235 0.682881
O O3 0.944514 0.831951 0.568148
O O4 0.006887 0.926849 0.327711
O O5 0.885963 0.916807 0.282246
O O6 0.948881 0.828460 0.058625
O O7 0.212179 0.069191 0.508002
O O8 0.278026 0.131312 0.192776
O O9 0.155703 0.153300 0.209517
O O10 0.187032 0.530257 0.634742
O O11 0.122712 0.535526 0.018227
O O12 0.604765 0.903829 0.915086
O O13 0.569398 0.048447 0.814182
#
# Coordination Sequence:
#
# PCOD9410092 Si02
#       7
#     4   8   8   8   8   8   8
#     4  12  28  46  64  86 136 192 234 292 352 422
#     4  10  20  38  64 108 140 177 215 279 352 413
#     4  10  26  44  65  96 134 183 233 292 351 418
#     4  10  23  41  68 106 135 173 229 287 352 415
#     4  10  21  36  64  98 144 172 213 275 346 422
#     4  12  25  43  65  99 136 177 236 282 355 418
#     4  10  21  37  65 101 133 174 225 281 342 407
#
# _framework density 24.048862
#
# number of rings (size 3 to 8) (size 9 to 14) (size 15 to 20)
#    0.000    1.846    1.538    3.692    6.462    8.000 
#    0.000    0.000    0.000    3.692    0.000    0.000 
#    0.000    0.000    0.000    0.000    0.000    0.000 
#
# Total GULP energy -290674.899805 kJ/mol
# GULP energy per Si atom -5589.901919 kJ/mol
# Density = 2.399413 g / cm^3
# Si number density = 24.048862 Si / 1000 Ang^3
#
#
#
# Elastic Constant Matrix: (Units=GPa)
#
#
# Indices 1 2 3 4 5 6 
#
# 1 33.8575 17.4065 3.9445 0.0000 0.0000 0.0000
# 2 17.4065 81.2988 12.3790 0.0000 0.0000 0.0000
# 3 3.9445 12.3790 132.5966 0.0000 0.0000 0.0000
# 4 0.0000 0.0000 0.0000 36.2802 0.0000 0.0000
# 5 0.0000 0.0000 0.0000 0.0000 7.4297 0.0000
# 6 0.0000 0.0000 0.0000 0.0000 0.0000 -13.0868
#
#
#
# Elastic Compliance Matrix: (Units=1/GPa)
#
#
# Indices 1 2 3 4 5 6 
#
# 1 0.033203 -0.007059 -0.000329 0.000000 0.000000 0.000000
# 2 -0.007059 0.013978 -0.001095 0.000000 0.000000 0.000000
# 3 -0.000329 -0.001095 0.007654 0.000000 0.000000 0.000000
# 4 0.000000 0.000000 0.000000 0.027563 0.000000 0.000000
# 5 0.000000 0.000000 0.000000 0.000000 0.134595 0.000000
# 6 0.000000 0.000000 0.000000 0.000000 0.000000 -0.076413
#
#
# Mechanical properties :
#
#
# Convention : Reuss Voigt Hill
#
# Bulk Modulus (GPa) = 26.40632 35.02366 30.71499
# Shear Modulus (GPa) = 29.38269 20.39282 24.88776
#
# Velocity S-wave (km/s) = 3.49921 2.91516 3.22045
# Velocity P-wave (km/s) = 5.22781 5.09176 5.16024
#
# Compressibility (1/GPa) = 0.03786973
#
# Stress axis : x y z
#
# Youngs Moduli (GPa) = 30.11793 71.53916 130.65617
#
# Poissons Ratio (x) = 0.50498 0.04295
# Poissons Ratio (y) = 0.21260 0.14307
# Poissons Ratio (z) = 0.00990 0.07834
#
# Static dielectric constant tensor:
#      x y z
#    x 1.872550 0.000000 0.000000 
#    y 0.000000 1.895750 0.000000 
#    z 0.000000 0.000000 2.080720 
# 
# From -- ./inp_files/4432.got.cif
#   From: 2010.05.17/outbox.cif.g08.bks.cpg/sg52_3_cif.got.tgz:4432.got - 2010.06.03 12:15:38.
