data_PCOD9410071
_publ_section_title
;
Structure prediction by ZEFSAII (Michael W. Deem and Ramdas Pophale) SiO2 
 PCOD9410071
Probable space group: P N N A
;
_chemical_formula_sum "Si O2"
_cell_formula_units_Z 40
_cell_length_a 5.350672
_cell_length_b 25.824440
_cell_length_c 11.077186
_cell_angle_alpha 90.000000
_cell_angle_beta 90.000000
_cell_angle_gamma 90.000000
_cell_volume 1530.624604
_symmetry_space_group_name_H-M "P N N A"
_symmetry_group_IT_number 52
_symmetry_cell_setting 'orthorhombic'
loop_
_space_group_symop_operation_xyz
x,y,z
1/2-x,-y,z
x,1/2-y,1/2-z
1/2-x,1/2+y,1/2-z
-x,-y,-z
1/2+x,y,-z
-x,1/2+y,1/2+z
1/2+x,1/2-y,1/2+z
loop_
_atom_site_type_symbol
_atom_site_label
_atom_site_fract_x
_atom_site_fract_y
_atom_site_fract_z
Si Si1 0.756815 0.829968 0.922890
Si Si2 0.805025 0.659518 0.128650
Si Si3 0.673394 0.447209 0.573737
Si Si4 0.471953 0.250000 0.750000
Si Si5 0.310261 0.616709 0.147382
Si Si6 0.250000 0.000000 0.420152
O O1 0.786501 0.889642 0.877422
O O2 0.855110 0.786764 0.830994
O O3 0.473286 0.825287 0.971853
O O4 0.699646 0.716073 0.159583
O O5 0.596038 0.622930 0.187736
O O6 0.070166 0.649261 0.188146
O O7 0.837823 0.642081 0.989773
O O8 0.750000 0.500000 0.642086
O O9 0.385287 0.449571 0.532463
O O10 0.246830 0.556484 0.140796
O O11 0.500000 0.000000 0.500000
#
# Coordination Sequence:
#
# PCOD9410071 Si02
#       6
#     8   8   8   4   8   4
#     4  10  24  42  64  97 129 172 226 279 341 406
#     4  10  22  36  56  88 125 171 216 267 319 394
#     4   8  14  30  58  89 116 152 201 263 332 388
#     4  12  28  42  68  94 140 184 238 278 340 414
#     4  10  20  38  62  93 127 166 216 270 342 400
#     4  12  16  32  64 100 118 172 214 266 338 422
#
# _framework density 26.133120999999999
#
# number of rings (size 3 to 8) (size 9 to 14) (size 15 to 20)
#    0.000    2.000    4.000    0.000    5.600    3.200 
#    0.000    0.000    2.200    0.000   41.600    0.000 
#    0.000    0.000    0.000    0.000    0.000    0.000 
#
# Total GULP energy -223475.846692 kJ/mol
# GULP energy per Si atom -5586.896167 kJ/mol
# Density = 2.607364 g / cm^3
# Si number density = 26.133121 Si / 1000 Ang^3
#
#
#
# Elastic Constant Matrix: (Units=GPa)
#
#
# Indices 1 2 3 4 5 6 
#
# 1 160.3346 17.5008 2.2453 0.0000 0.0000 0.0000
# 2 17.5008 200.7095 36.2208 0.0000 0.0000 0.0000
# 3 2.2453 36.2208 45.2130 0.0000 0.0000 0.0000
# 4 0.0000 0.0000 0.0000 62.4342 0.0000 0.0000
# 5 0.0000 0.0000 0.0000 0.0000 30.1595 0.0000
# 6 0.0000 0.0000 0.0000 0.0000 0.0000 59.4936
#
#
#
# Elastic Compliance Matrix: (Units=1/GPa)
#
#
# Indices 1 2 3 4 5 6 
#
# 1 0.006298 -0.000576 0.000149 0.000000 0.000000 0.000000
# 2 -0.000576 0.005877 -0.004680 0.000000 0.000000 0.000000
# 3 0.000149 -0.004680 0.025859 0.000000 0.000000 0.000000
# 4 0.000000 0.000000 0.000000 0.016017 0.000000 0.000000
# 5 0.000000 0.000000 0.000000 0.000000 0.033157 0.000000
# 6 0.000000 0.000000 0.000000 0.000000 0.000000 0.016809
#
#
# Mechanical properties :
#
#
# Convention : Reuss Voigt Hill
#
# Bulk Modulus (GPa) = 35.94528 57.57677 46.76103
# Shear Modulus (GPa) = 40.48472 53.77015 47.12743
#
# Velocity S-wave (km/s) = 3.94022 4.54094 4.25121
# Velocity P-wave (km/s) = 5.87240 7.04084 6.48300
#
# Compressibility (1/GPa) = 0.02782006
#
# Stress axis : x y z
#
# Youngs Moduli (GPa) = 158.78706 170.15358 38.67117
#
# Poissons Ratio (x) = 0.09800 -0.00575
# Poissons Ratio (y) = 0.09145 0.18097
# Poissons Ratio (z) = -0.02360 0.79625
#
# Static dielectric constant tensor:
#      x y z
#    x 2.018020 0.000000 0.000000 
#    y 0.000000 2.041200 0.000000 
#    z 0.000000 0.000000 2.589850 
# 
# From -- ./inp_files/16060.got.cif
#   From: 2010.05.17/outbox.cif.g08.bks.cpg/sg52_9_cif.got.tgz:16060.got - 2010.06.03 12:15:38.
