data_PCOD9410806
_publ_section_title
;
Structure prediction by ZEFSAII (Michael W. Deem and Ramdas Pophale) SiO2 
 PCOD9410806
Probable space group: P N N A
;
_chemical_formula_sum "Si O2"
_cell_formula_units_Z 60
_cell_length_a 28.324848
_cell_length_b 8.516607
_cell_length_c 11.445902
_cell_angle_alpha 90.000000
_cell_angle_beta 90.000000
_cell_angle_gamma 90.000000
_cell_volume 2761.113239
_symmetry_space_group_name_H-M "P N N A"
_symmetry_group_IT_number 52
_symmetry_cell_setting 'orthorhombic'
loop_
_space_group_symop_operation_xyz
x,y,z
1/2-x,-y,z
x,1/2-y,1/2-z
1/2-x,1/2+y,1/2-z
-x,-y,-z
1/2+x,y,-z
-x,1/2+y,1/2+z
1/2+x,1/2-y,1/2+z
loop_
_atom_site_type_symbol
_atom_site_label
_atom_site_fract_x
_atom_site_fract_y
_atom_site_fract_z
Si Si1 0.628776 0.290089 0.912272
Si Si2 0.671052 0.522863 0.278933
Si Si3 0.284796 0.645401 0.512025
Si Si4 0.624804 0.873355 0.643673
Si Si5 0.087494 0.391033 0.842644
Si Si6 0.802159 0.178023 0.437716
Si Si7 0.017826 0.590687 0.171636
Si Si8 0.046600 0.250000 0.250000
O O1 0.638474 0.444585 0.833782
O O2 0.580969 0.220446 0.860302
O O3 0.672450 0.173983 0.924146
O O4 0.617349 0.349031 0.043046
O O5 0.691514 0.384515 0.360312
O O6 0.616657 0.516310 0.235639
O O7 0.682862 0.671509 0.359439
O O8 0.697034 0.539298 0.155882
O O9 0.250000 0.500000 0.484809
O O10 0.249416 0.791250 0.511994
O O11 0.629178 0.750000 0.750000
O O12 0.658953 0.828492 0.538370
O O13 0.568902 0.885225 0.610302
O O14 0.085997 0.250000 0.750000
O O15 0.033922 0.418154 0.885413
O O16 0.015797 0.750000 0.250000
O O17 0.021163 0.417170 0.230996
#
# Coordination Sequence:
#
# PCOD9410806 Si02
#       8
#     8   8   8   8   8   8   8   4
#     4  11  23  42  67  94 132 183 221 287 345 416
#     4  10  21  38  60  94 135 169 211 283 337 421
#     4  10  23  39  63  97 133 176 223 284 344 426
#     4  10  22  44  66  90 135 180 234 291 342 404
#     4  11  21  41  66  98 138 178 223 279 355 414
#     4  10  22  40  63  98 126 176 224 275 354 406
#     4   9  22  43  68  99 136 183 231 288 348 422
#     4  10  24  44  68  96 132 180 238 286 346 410
#
# _framework density 21.730366
#
# number of rings (size 3 to 8) (size 9 to 14) (size 15 to 20)
#    0.000    1.867    2.667    0.000    0.000   15.467 
#    3.600    1.333    0.000    0.000    0.000    0.000 
#    0.000    0.000    0.000    0.000    0.000    0.000 
#
# Total GULP energy -334232.487667 kJ/mol
# GULP energy per Si atom -5570.541461 kJ/mol
# Density = 2.168091 g / cm^3
# Si number density = 21.730366 Si / 1000 Ang^3
#
#
#
# Elastic Constant Matrix: (Units=GPa)
#
#
# Indices 1 2 3 4 5 6 
#
# 1 114.0299 31.8606 30.3852 0.0000 0.0000 0.0000
# 2 31.8606 79.9862 26.3684 0.0000 0.0000 0.0000
# 3 30.3852 26.3684 72.1904 0.0000 0.0000 0.0000
# 4 0.0000 0.0000 0.0000 31.3269 0.0000 0.0000
# 5 0.0000 0.0000 0.0000 0.0000 136.3747 0.0000
# 6 0.0000 0.0000 0.0000 0.0000 0.0000 10.3809
#
#
#
# Elastic Compliance Matrix: (Units=1/GPa)
#
#
# Indices 1 2 3 4 5 6 
#
# 1 0.010514 -0.003103 -0.003292 0.000000 0.000000 0.000000
# 2 -0.003103 0.015129 -0.004220 0.000000 0.000000 0.000000
# 3 -0.003292 -0.004220 0.016779 0.000000 0.000000 0.000000
# 4 0.000000 0.000000 0.000000 0.031921 0.000000 0.000000
# 5 0.000000 0.000000 0.000000 0.000000 0.007333 0.000000
# 6 0.000000 0.000000 0.000000 0.000000 0.000000 0.096331
#
#
# Mechanical properties :
#
#
# Convention : Reuss Voigt Hill
#
# Bulk Modulus (GPa) = 47.18622 49.27054 48.22838
# Shear Modulus (GPa) = 24.23639 47.45599 35.84619
#
# Velocity S-wave (km/s) = 3.34327 4.67824 4.06592
# Velocity P-wave (km/s) = 6.05515 7.20445 6.65466
#
# Compressibility (1/GPa) = 0.02119263
#
# Stress axis : x y z
#
# Youngs Moduli (GPa) = 95.11362 66.09704 59.59705
#
# Poissons Ratio (x) = 0.20508 0.19619
# Poissons Ratio (y) = 0.29510 0.25151
# Poissons Ratio (z) = 0.31311 0.27894
#
# Static dielectric constant tensor:
#      x y z
#    x 1.816580 0.000000 0.000000 
#    y 0.000000 1.941010 0.000000 
#    z 0.000000 0.000000 1.789990 
# 
# From -- ./inp_files/23161.got.cif
#   From: 2010.05.17/outbox.cif.g08.bks.cpg/sg52_12_cif.got.tgz:23161.got - 2010.06.03 12:15:38.
