data_PCOD9410473
_publ_section_title
;
Structure prediction by ZEFSAII (Michael W. Deem and Ramdas Pophale) SiO2 
 PCOD9410473
Probable space group: P N N A
;
_chemical_formula_sum "Si O2"
_cell_formula_units_Z 24
_cell_length_a 10.246188
_cell_length_b 7.949295
_cell_length_c 11.003372
_cell_angle_alpha 90.000000
_cell_angle_beta 90.000000
_cell_angle_gamma 90.000000
_cell_volume 896.224331
_symmetry_space_group_name_H-M "P N N A"
_symmetry_group_IT_number 52
_symmetry_cell_setting 'orthorhombic'
loop_
_space_group_symop_operation_xyz
x,y,z
1/2-x,-y,z
x,1/2-y,1/2-z
1/2-x,1/2+y,1/2-z
-x,-y,-z
1/2+x,y,-z
-x,1/2+y,1/2+z
1/2+x,1/2-y,1/2+z
loop_
_atom_site_type_symbol
_atom_site_label
_atom_site_fract_x
_atom_site_fract_y
_atom_site_fract_z
Si Si1 0.751654 0.750000 0.750000
Si Si2 0.990667 0.607965 0.877005
Si Si3 0.173101 0.831576 0.989886
Si Si4 0.250000 0.500000 0.859363
O O1 0.668971 0.810453 0.864843
O O2 0.856670 0.618022 0.807196
O O3 0.110763 0.531727 0.797777
O O4 0.034905 0.792663 0.925715
O O5 0.000000 0.500000 0.000000
O O6 0.250000 0.000000 0.961409
O O7 0.255205 0.671136 0.938158
#
# Coordination Sequence:
#
# PCOD9410473 Si02
#       4
#     4   8   8   4
#     4  12  22  40  74  96 128 196 222 268 380 392
#     4  10  20  43  65  95 138 176 222 292 339 405
#     4  10  23  39  67  97 134 172 237 283 322 435
#     4   8  20  44  60  88 144 164 210 304 320 384
#
# _framework density 26.779012000000002
#
# number of rings (size 3 to 8) (size 9 to 14) (size 15 to 20)
#    2.000    0.000    3.333    0.000    7.000    1.333 
#    3.000    0.000    0.000    0.000    0.000    0.000 
#    0.000    0.000    0.000    0.000    0.000    0.000 
#
# Total GULP energy -133939.655312 kJ/mol
# GULP energy per Si atom -5580.818971 kJ/mol
# Density = 2.671806 g / cm^3
# Si number density = 26.779012 Si / 1000 Ang^3
#
#
#
# Elastic Constant Matrix: (Units=GPa)
#
#
# Indices 1 2 3 4 5 6 
#
# 1 113.2541 17.4698 40.6405 0.0000 0.0000 0.0000
# 2 17.4698 158.3002 42.4263 0.0000 0.0000 0.0000
# 3 40.6405 42.4263 117.2381 0.0000 0.0000 0.0000
# 4 0.0000 0.0000 0.0000 13.5902 0.0000 0.0000
# 5 0.0000 0.0000 0.0000 0.0000 29.4810 0.0000
# 6 0.0000 0.0000 0.0000 0.0000 0.0000 42.3013
#
#
#
# Elastic Compliance Matrix: (Units=1/GPa)
#
#
# Indices 1 2 3 4 5 6 
#
# 1 0.010090 -0.000195 -0.003427 0.000000 0.000000 0.000000
# 2 -0.000195 0.006999 -0.002465 0.000000 0.000000 0.000000
# 3 -0.003427 -0.002465 0.010610 0.000000 0.000000 0.000000
# 4 0.000000 0.000000 0.000000 0.073583 0.000000 0.000000
# 5 0.000000 0.000000 0.000000 0.000000 0.033920 0.000000
# 6 0.000000 0.000000 0.000000 0.000000 0.000000 0.023640
#
#
# Mechanical properties :
#
#
# Convention : Reuss Voigt Hill
#
# Bulk Modulus (GPa) = 64.41619 65.54064 64.97842
# Shear Modulus (GPa) = 28.37835 36.29154 32.33495
#
# Velocity S-wave (km/s) = 3.25887 3.68533 3.47864
# Velocity P-wave (km/s) = 6.18605 6.52967 6.36019
#
# Compressibility (1/GPa) = 0.01552405
#
# Stress axis : x y z
#
# Youngs Moduli (GPa) = 99.11275 142.86993 94.25283
#
# Poissons Ratio (x) = 0.02786 0.32300
# Poissons Ratio (y) = 0.01933 0.23237
# Poissons Ratio (z) = 0.33965 0.35222
#
# Static dielectric constant tensor:
#      x y z
#    x 2.187480 0.000000 0.000000 
#    y 0.000000 2.365010 0.000000 
#    z 0.000000 0.000000 2.126830 
# 
# From -- ./inp_files/17462.got.cif
#   From: 2010.05.17/outbox.cif.g08.bks.cpg/sg52_9_cif.got.tgz:17462.got - 2010.06.03 12:15:38.
