data_PCOD9410790
_publ_section_title
;
Structure prediction by ZEFSAII (Michael W. Deem and Ramdas Pophale) SiO2 
 PCOD9410790
Probable space group: P N N A
;
_chemical_formula_sum "Si O2"
_cell_formula_units_Z 56
_cell_length_a 24.994608
_cell_length_b 18.244301
_cell_length_c 5.119618
_cell_angle_alpha 90.000000
_cell_angle_beta 90.000000
_cell_angle_gamma 90.000000
_cell_volume 2334.592661
_symmetry_space_group_name_H-M "P N N A"
_symmetry_group_IT_number 52
_symmetry_cell_setting 'orthorhombic'
loop_
_space_group_symop_operation_xyz
x,y,z
1/2-x,-y,z
x,1/2-y,1/2-z
1/2-x,1/2+y,1/2-z
-x,-y,-z
1/2+x,y,-z
-x,1/2+y,1/2+z
1/2+x,1/2-y,1/2+z
loop_
_atom_site_type_symbol
_atom_site_label
_atom_site_fract_x
_atom_site_fract_y
_atom_site_fract_z
Si Si1 0.441296 0.801477 0.500459
Si Si2 0.195189 0.045061 0.656167
Si Si3 0.341083 0.326330 0.197283
Si Si4 0.997206 0.054353 0.260465
Si Si5 0.091490 0.671744 0.686868
Si Si6 0.816347 0.797299 0.487319
Si Si7 0.687724 0.983087 0.832049
O O1 0.440911 0.750000 0.250000
O O2 0.465661 0.877352 0.378803
O O3 0.378830 0.815947 0.568096
O O4 0.462013 0.750000 0.750000
O O5 0.210560 0.123801 0.543800
O O6 0.250000 0.000000 0.700953
O O7 0.159905 0.007162 0.434752
O O8 0.167063 0.033110 0.933103
O O9 0.310933 0.250000 0.250000
O O10 0.392784 0.321457 0.384837
O O11 0.314716 0.396271 0.331902
O O12 0.359124 0.332110 0.896069
O O13 0.942832 0.099889 0.222788
O O14 0.000000 0.000000 0.500000
O O15 0.000000 0.000000 0.000000
O O16 0.064096 0.750000 0.750000
O O17 0.812964 0.750000 0.750000
O O18 0.794783 0.750000 0.250000
O O19 0.750000 0.000000 0.795817
#
# Coordination Sequence:
#
# PCOD9410790 Si02
#       7
#     8   8   8   8   8   8   8
#     4  10  22  41  63  86 120 167 209 251 307 369
#     4  10  21  38  59  88 122 156 195 249 321 378
#     4  10  21  39  63  89 118 160 213 256 298 368
#     4  12  25  39  60  96 130 161 207 264 317 370
#     4  10  22  40  62  87 121 167 209 253 310 370
#     4  10  21  39  63  89 117 160 215 259 302 371
#     4  10  21  38  59  87 120 157 196 246 317 376
#
# _framework density 23.987054000000001
#
# number of rings (size 3 to 8) (size 9 to 14) (size 15 to 20)
#    0.000    1.714    0.000    3.857    0.000    5.143 
#    0.000    8.571    0.000    0.000    0.000    0.000 
#    0.000    0.000    0.000    0.000    0.000    0.000 
#
# Total GULP energy -311752.970254 kJ/mol
# GULP energy per Si atom -5567.017326 kJ/mol
# Density = 2.393246 g / cm^3
# Si number density = 23.987054 Si / 1000 Ang^3
#
#
#
# Elastic Constant Matrix: (Units=GPa)
#
#
# Indices 1 2 3 4 5 6 
#
# 1 36.7288 25.7983 2.6335 0.0000 0.0000 0.0000
# 2 25.7983 177.9809 15.0258 0.0000 0.0000 0.0000
# 3 2.6335 15.0258 151.2325 0.0000 0.0000 0.0000
# 4 0.0000 0.0000 0.0000 56.4746 0.0000 0.0000
# 5 0.0000 0.0000 0.0000 0.0000 11.6288 0.0000
# 6 0.0000 0.0000 0.0000 0.0000 0.0000 40.5920
#
#
#
# Elastic Compliance Matrix: (Units=1/GPa)
#
#
# Indices 1 2 3 4 5 6 
#
# 1 0.030314 -0.004386 -0.000092 0.000000 0.000000 0.000000
# 2 -0.004386 0.006301 -0.000550 0.000000 0.000000 0.000000
# 3 -0.000092 -0.000550 0.006669 0.000000 0.000000 0.000000
# 4 0.000000 0.000000 0.000000 0.017707 0.000000 0.000000
# 5 0.000000 0.000000 0.000000 0.000000 0.085993 0.000000
# 6 0.000000 0.000000 0.000000 0.000000 0.000000 0.024635
#
#
# Mechanical properties :
#
#
# Convention : Reuss Voigt Hill
#
# Bulk Modulus (GPa) = 30.09554 50.31746 40.20650
# Shear Modulus (GPa) = 25.94019 43.23807 34.58913
#
# Velocity S-wave (km/s) = 3.29207 4.25026 3.80148
# Velocity P-wave (km/s) = 5.19847 6.71630 6.00553
#
# Compressibility (1/GPa) = 0.03322752
#
# Stress axis : x y z
#
# Youngs Moduli (GPa) = 32.98793 158.71080 149.95763
#
# Poissons Ratio (x) = 0.69614 0.01381
# Poissons Ratio (y) = 0.14469 0.08242
# Poissons Ratio (z) = 0.00304 0.08723
#
# Static dielectric constant tensor:
#      x y z
#    x 1.861520 0.000000 0.000000 
#    y 0.000000 1.839150 0.000000 
#    z 0.000000 0.000000 2.074050 
# 
# From -- ./inp_files/6434.got.cif
#   From: 2010.05.17/outbox.cif.g08.bks.cpg/sg52_4_cif.got.tgz:6434.got - 2010.06.03 12:15:38.
