data_PCOD9410929
_publ_section_title
;
Structure prediction by ZEFSAII (Michael W. Deem and Ramdas Pophale) SiO2 
 PCOD9410929
Probable space group: P N N A
;
_chemical_formula_sum "Si O2"
_cell_formula_units_Z 64
_cell_length_a 21.863639
_cell_length_b 8.449973
_cell_length_c 18.079187
_cell_angle_alpha 90.000000
_cell_angle_beta 90.000000
_cell_angle_gamma 90.000000
_cell_volume 3340.078439
_symmetry_space_group_name_H-M "P N N A"
_symmetry_group_IT_number 52
_symmetry_cell_setting 'orthorhombic'
loop_
_space_group_symop_operation_xyz
x,y,z
1/2-x,-y,z
x,1/2-y,1/2-z
1/2-x,1/2+y,1/2-z
-x,-y,-z
1/2+x,y,-z
-x,1/2+y,1/2+z
1/2+x,1/2-y,1/2+z
loop_
_atom_site_type_symbol
_atom_site_label
_atom_site_fract_x
_atom_site_fract_y
_atom_site_fract_z
Si Si1 0.601927 0.305117 0.612117
Si Si2 0.238186 0.314883 0.329520
Si Si3 0.106458 0.700712 0.965357
Si Si4 0.471034 0.100650 0.068469
Si Si5 0.061920 0.296004 0.832479
Si Si6 0.229000 0.682080 0.488976
Si Si7 0.520897 0.658023 0.173094
Si Si8 0.150304 0.156210 0.536497
O O1 0.666101 0.287475 0.654404
O O2 0.577808 0.484999 0.607335
O O3 0.547287 0.204298 0.647373
O O4 0.614846 0.249250 0.528421
O O5 0.250000 0.500000 0.325977
O O6 0.256502 0.250000 0.250000
O O7 0.273210 0.257278 0.403623
O O8 0.068697 0.714247 0.889787
O O9 0.135618 0.527984 0.975615
O O10 0.060789 0.748550 0.030740
O O11 0.164174 0.815306 0.971414
O O12 0.518673 0.166747 0.127885
O O13 0.500000 0.000000 0.000000
O O14 0.078149 0.250000 0.750000
O O15 0.029752 0.468572 0.826448
O O16 0.120852 0.306763 0.884751
O O17 0.250000 0.500000 0.486179
O O18 0.279829 0.789230 0.529031
O O19 0.532543 0.750000 0.250000
#
# Coordination Sequence:
#
# PCOD9410929 Si02
#       8
#     8   8   8   8   8   8   8   8
#     4  11  21  38  62  86 119 158 206 246 307 369
#     4  10  22  39  57  83 117 154 196 246 300 356
#     4  11  22  38  61  88 119 158 204 252 305 368
#     4  12  21  36  63  89 123 162 206 249 308 382
#     4  11  24  38  59  90 124 159 200 254 313 370
#     4  10  22  39  63  86 113 155 208 252 306 371
#     4  11  23  39  59  88 125 157 198 252 317 374
#     4  10  21  39  60  87 117 155 204 257 296 370
#
# _framework density 19.161227
#
# number of rings (size 3 to 8) (size 9 to 14) (size 15 to 20)
#    0.000    1.250    2.500    4.500    0.000    4.000 
#    0.000    6.875    0.000    0.000    0.000    0.000 
#    0.000    0.000    0.000    0.000    0.000    0.000 
#
# Total GULP energy -357461.356070 kJ/mol
# GULP energy per Si atom -5585.333689 kJ/mol
# Density = 1.911761 g / cm^3
# Si number density = 19.161227 Si / 1000 Ang^3
#
#
#
# Elastic Constant Matrix: (Units=GPa)
#
#
# Indices 1 2 3 4 5 6 
#
# 1 49.7279 4.3000 15.2246 0.0000 0.0000 0.0000
# 2 4.3000 42.6680 28.3778 0.0000 0.0000 0.0000
# 3 15.2246 28.3778 87.7309 0.0000 0.0000 0.0000
# 4 0.0000 0.0000 0.0000 30.6428 0.0000 0.0000
# 5 0.0000 0.0000 0.0000 0.0000 8.1506 0.0000
# 6 0.0000 0.0000 0.0000 0.0000 0.0000 35.5337
#
#
#
# Elastic Compliance Matrix: (Units=1/GPa)
#
#
# Indices 1 2 3 4 5 6 
#
# 1 0.021243 0.000396 -0.003815 0.000000 0.000000 0.000000
# 2 0.000396 0.029868 -0.009730 0.000000 0.000000 0.000000
# 3 -0.003815 -0.009730 0.015208 0.000000 0.000000 0.000000
# 4 0.000000 0.000000 0.000000 0.032634 0.000000 0.000000
# 5 0.000000 0.000000 0.000000 0.000000 0.122690 0.000000
# 6 0.000000 0.000000 0.000000 0.000000 0.000000 0.028142
#
#
# Mechanical properties :
#
#
# Convention : Reuss Voigt Hill
#
# Bulk Modulus (GPa) = 24.98618 30.65905 27.82262
# Shear Modulus (GPa) = 17.27576 23.68038 20.47807
#
# Velocity S-wave (km/s) = 3.00592 3.51928 3.27268
# Velocity P-wave (km/s) = 5.01156 5.70518 5.36958
#
# Compressibility (1/GPa) = 0.04002212
#
# Stress axis : x y z
#
# Youngs Moduli (GPa) = 47.07424 33.48046 65.75572
#
# Poissons Ratio (x) = -0.01327 0.25083
# Poissons Ratio (y) = -0.01865 0.63981
# Poissons Ratio (z) = 0.17957 0.32577
#
# Static dielectric constant tensor:
#      x y z
#    x 1.671300 0.000000 0.000000 
#    y 0.000000 1.692930 0.000000 
#    z 0.000000 0.000000 1.658060 
# 
# From -- ./inp_files/34128.got.cif
#   From: 2010.05.17/outbox.cif.g08.bks.cpg/sg52_18_cif.got.tgz:34128.got - 2010.06.03 12:15:38.
