data_PCOD9410420
_publ_section_title
;
Structure prediction by ZEFSAII (Michael W. Deem and Ramdas Pophale) SiO2 
 PCOD9410420
Probable space group: P N N A
;
_chemical_formula_sum "Si O2"
_cell_formula_units_Z 52
_cell_length_a 12.876072
_cell_length_b 18.967617
_cell_length_c 9.472618
_cell_angle_alpha 90.000000
_cell_angle_beta 90.000000
_cell_angle_gamma 90.000000
_cell_volume 2313.482358
_symmetry_space_group_name_H-M "P N N A"
_symmetry_group_IT_number 52
_symmetry_cell_setting 'orthorhombic'
loop_
_space_group_symop_operation_xyz
x,y,z
1/2-x,-y,z
x,1/2-y,1/2-z
1/2-x,1/2+y,1/2-z
-x,-y,-z
1/2+x,y,-z
-x,1/2+y,1/2+z
1/2+x,1/2-y,1/2+z
loop_
_atom_site_type_symbol
_atom_site_label
_atom_site_fract_x
_atom_site_fract_y
_atom_site_fract_z
Si Si1 0.410738 0.604933 0.252384
Si Si2 0.999878 0.843931 0.023443
Si Si3 0.378318 0.607651 0.772763
Si Si4 0.250000 0.500000 0.113541
Si Si5 0.366799 0.709526 0.030971
Si Si6 0.088144 0.964021 0.597416
Si Si7 0.799656 0.198701 0.123720
O O1 0.429083 0.609732 0.417992
O O2 0.331811 0.543903 0.205273
O O3 0.367540 0.676978 0.186047
O O4 0.524875 0.594627 0.181457
O O5 0.115210 0.842552 0.964951
O O6 0.958256 0.764532 0.001883
O O7 0.978277 0.870337 0.180331
O O8 0.374886 0.524406 0.794397
O O9 0.281352 0.644335 0.694959
O O10 0.383274 0.643685 0.925658
O O11 0.183244 0.550754 0.008284
O O12 0.264466 0.750544 0.981391
O O13 0.000000 0.000000 0.500000
O O14 0.839966 0.250000 0.250000
#
# Coordination Sequence:
#
# PCOD9410420 Si02
#       7
#     8   8   8   4   8   8   8
#     4  11  23  40  64  95 130 166 217 273 319 387
#     4  11  23  39  63  99 129 165 206 276 340 376
#     4  10  21  43  63  90 131 166 218 262 314 401
#     4  10  22  40  62  94 120 168 220 264 318 380
#     4  10  20  42  64  89 129 167 217 262 311 403
#     4  10  21  41  65  92 119 175 218 261 310 381
#     4   9  20  37  62  94 126 170 210 259 331 391
#
# _framework density 22.476938000000001
#
# number of rings (size 3 to 8) (size 9 to 14) (size 15 to 20)
#    0.000    1.846    3.077    2.769    2.154    1.846 
#   11.077    3.846    0.000    0.000    0.000    0.000 
#    0.000    0.000    0.000    0.000    0.000    0.000 
#
# Total GULP energy -290671.832497 kJ/mol
# GULP energy per Si atom -5589.842933 kJ/mol
# Density = 2.242578 g / cm^3
# Si number density = 22.476938 Si / 1000 Ang^3
#
#
#
# Elastic Constant Matrix: (Units=GPa)
#
#
# Indices 1 2 3 4 5 6 
#
# 1 79.4615 21.4532 19.8039 0.0000 0.0000 0.0000
# 2 21.4532 72.2594 11.1070 0.0000 0.0000 0.0000
# 3 19.8039 11.1070 38.6628 0.0000 0.0000 0.0000
# 4 0.0000 0.0000 0.0000 28.0685 0.0000 0.0000
# 5 0.0000 0.0000 0.0000 0.0000 18.6030 0.0000
# 6 0.0000 0.0000 0.0000 0.0000 0.0000 22.8684
#
#
#
# Elastic Compliance Matrix: (Units=1/GPa)
#
#
# Indices 1 2 3 4 5 6 
#
# 1 0.015216 -0.003473 -0.006796 0.000000 0.000000 0.000000
# 2 -0.003473 0.015271 -0.002608 0.000000 0.000000 0.000000
# 3 -0.006796 -0.002608 0.030095 0.000000 0.000000 0.000000
# 4 0.000000 0.000000 0.000000 0.035627 0.000000 0.000000
# 5 0.000000 0.000000 0.000000 0.000000 0.053755 0.000000
# 6 0.000000 0.000000 0.000000 0.000000 0.000000 0.043728
#
#
# Mechanical properties :
#
#
# Convention : Reuss Voigt Hill
#
# Bulk Modulus (GPa) = 28.71287 32.79018 30.75153
# Shear Modulus (GPa) = 21.63971 23.10928 22.37450
#
# Velocity S-wave (km/s) = 3.10619 3.20993 3.15849
# Velocity P-wave (km/s) = 5.06623 5.32525 5.19735
#
# Compressibility (1/GPa) = 0.03482758
#
# Stress axis : x y z
#
# Youngs Moduli (GPa) = 65.71968 65.48360 33.22794
#
# Poissons Ratio (x) = 0.22742 0.22583
# Poissons Ratio (y) = 0.22824 0.08666
# Poissons Ratio (z) = 0.44665 0.17079
#
# Static dielectric constant tensor:
#      x y z
#    x 1.852920 0.000000 0.000000 
#    y 0.000000 1.823930 0.000000 
#    z 0.000000 0.000000 1.820460 
# 
# From -- ./inp_files/10716.got.cif
#   From: 2010.05.17/outbox.cif.g08.bks.cpg/sg52_6_cif.got.tgz:10716.got - 2010.06.03 12:15:38.
