data_PCOD9410422
_publ_section_title
;
Structure prediction by ZEFSAII (Michael W. Deem and Ramdas Pophale) SiO2 
 PCOD9410422
Probable space group: P N N A
;
_chemical_formula_sum "Si O2"
_cell_formula_units_Z 44
_cell_length_a 18.438984
_cell_length_b 14.606550
_cell_length_c 8.750163
_cell_angle_alpha 90.000000
_cell_angle_beta 90.000000
_cell_angle_gamma 90.000000
_cell_volume 2356.680891
_symmetry_space_group_name_H-M "P N N A"
_symmetry_group_IT_number 52
_symmetry_cell_setting 'orthorhombic'
loop_
_space_group_symop_operation_xyz
x,y,z
1/2-x,-y,z
x,1/2-y,1/2-z
1/2-x,1/2+y,1/2-z
-x,-y,-z
1/2+x,y,-z
-x,1/2+y,1/2+z
1/2+x,1/2-y,1/2+z
loop_
_atom_site_type_symbol
_atom_site_label
_atom_site_fract_x
_atom_site_fract_y
_atom_site_fract_z
Si Si1 0.389503 0.750000 0.250000
Si Si2 0.615797 0.519319 0.429548
Si Si3 0.194077 0.103763 0.423018
Si Si4 0.750000 0.500000 0.204070
Si Si5 0.445234 0.250000 0.250000
Si Si6 0.344495 0.428986 0.231295
Si Si7 0.517009 0.353769 0.515052
O O1 0.344638 0.802859 0.380489
O O2 0.438361 0.679297 0.340820
O O3 0.680269 0.522164 0.307838
O O4 0.649158 0.531692 0.598500
O O5 0.567501 0.427162 0.426620
O O6 0.556010 0.599054 0.422292
O O7 0.263136 0.100726 0.309667
O O8 0.226019 0.082602 0.590317
O O9 0.143651 0.015836 0.381205
O O10 0.396600 0.340841 0.218159
O O11 0.493338 0.275339 0.396966
#
# Coordination Sequence:
#
# PCOD9410422 Si02
#       7
#     4   8   8   4   4   8   8
#     4  12  23  40  58  91 130 168 206 258 306 383
#     4  10  20  42  64  91 118 169 202 260 315 367
#     4  10  22  37  61  93 118 163 207 254 311 357
#     4  10  22  38  68  90 120 154 218 262 304 360
#     4  10  21  38  62  87 118 164 208 250 310 373
#     4   9  18  39  62  83 120 158 202 250 307 376
#     4  10  24  38  62  90 128 163 210 251 318 379
#
# _framework density 18.670325999999999
#
# number of rings (size 3 to 8) (size 9 to 14) (size 15 to 20)
#    0.000    2.182    1.818    1.636    2.545    2.909 
#    0.000    1.818    8.000    0.000    0.000    0.000 
#    0.000    0.000    0.000    0.000    0.000    0.000 
#
# Total GULP energy -245197.679008 kJ/mol
# GULP energy per Si atom -5572.674523 kJ/mol
# Density = 1.862783 g / cm^3
# Si number density = 18.670326 Si / 1000 Ang^3
#
#
#
# Elastic Constant Matrix: (Units=GPa)
#
#
# Indices 1 2 3 4 5 6 
#
# 1 99.8909 28.5087 60.3886 0.0000 0.0000 0.0000
# 2 28.5087 53.9370 35.5402 0.0000 0.0000 0.0000
# 3 60.3886 35.5402 90.0071 0.0000 0.0000 0.0000
# 4 0.0000 0.0000 0.0000 20.1122 0.0000 0.0000
# 5 0.0000 0.0000 0.0000 0.0000 37.0469 0.0000
# 6 0.0000 0.0000 0.0000 0.0000 0.0000 11.0841
#
#
#
# Elastic Compliance Matrix: (Units=1/GPa)
#
#
# Indices 1 2 3 4 5 6 
#
# 1 0.016998 -0.001987 -0.010620 0.000000 0.000000 0.000000
# 2 -0.001987 0.025293 -0.008654 0.000000 0.000000 0.000000
# 3 -0.010620 -0.008654 0.021653 0.000000 0.000000 0.000000
# 4 0.000000 0.000000 0.000000 0.049721 0.000000 0.000000
# 5 0.000000 0.000000 0.000000 0.000000 0.026993 0.000000
# 6 0.000000 0.000000 0.000000 0.000000 0.000000 0.090219
#
#
# Mechanical properties :
#
#
# Convention : Reuss Voigt Hill
#
# Bulk Modulus (GPa) = 46.68162 54.74557 50.71360
# Shear Modulus (GPa) = 17.82278 21.60846 19.71562
#
# Velocity S-wave (km/s) = 3.09302 3.40570 3.25312
# Velocity P-wave (km/s) = 6.14923 6.69709 6.42900
#
# Compressibility (1/GPa) = 0.02142171
#
# Stress axis : x y z
#
# Youngs Moduli (GPa) = 58.82921 39.53729 46.18321
#
# Poissons Ratio (x) = 0.07855 0.49048
# Poissons Ratio (y) = 0.11687 0.39967
# Poissons Ratio (z) = 0.62478 0.34216
#
# Static dielectric constant tensor:
#      x y z
#    x 1.641100 0.000000 0.000000 
#    y 0.000000 1.702460 0.000000 
#    z 0.000000 0.000000 1.629690 
# 
# From -- ./inp_files/11997.got.cif
#   From: 2010.05.17/outbox.cif.g08.bks.cpg/sg52_6_cif.got.tgz:11997.got - 2010.06.03 12:15:38.
