data_PCOD9410992
_publ_section_title
;
Structure prediction by ZEFSAII (Michael W. Deem and Ramdas Pophale) SiO2 
 PCOD9410992
Probable space group: P N N A
;
_chemical_formula_sum "Si O2"
_cell_formula_units_Z 28
_cell_length_a 11.046853
_cell_length_b 5.132944
_cell_length_c 21.033482
_cell_angle_alpha 90.000000
_cell_angle_beta 90.000000
_cell_angle_gamma 90.000000
_cell_volume 1192.658960
_symmetry_space_group_name_H-M "P N N A"
_symmetry_group_IT_number 52
_symmetry_cell_setting 'orthorhombic'
loop_
_space_group_symop_operation_xyz
x,y,z
1/2-x,-y,z
x,1/2-y,1/2-z
1/2-x,1/2+y,1/2-z
-x,-y,-z
1/2+x,y,-z
-x,1/2+y,1/2+z
1/2+x,1/2-y,1/2+z
loop_
_atom_site_type_symbol
_atom_site_label
_atom_site_fract_x
_atom_site_fract_y
_atom_site_fract_z
Si Si1 0.629749 0.845645 0.014376
Si Si2 0.030471 0.589073 0.869518
Si Si3 0.316513 0.250000 0.750000
Si Si4 0.369376 0.102956 0.127321
O O1 0.599578 0.606805 0.062116
O O2 0.750000 0.000000 0.040288
O O3 0.668915 0.784541 0.942234
O O4 0.500000 0.000000 0.000000
O O5 0.114331 0.634383 0.809791
O O6 0.954496 0.335151 0.851229
O O7 0.947095 0.842338 0.875484
O O8 0.250000 0.500000 0.722159
O O9 0.250000 0.000000 0.162526
#
# Coordination Sequence:
#
# PCOD9410992 Si02
#       4
#     8   8   4   8
#     4   9  19  36  61  94 130 170 215 269 335 399
#     4  11  22  40  62  91 127 169 214 266 327 395
#     4  12  26  44  64  90 126 172 224 278 328 398
#     4  10  21  39  64  94 127 163 210 270 331 398
#
# _framework density 23.476953999999999
#
# number of rings (size 3 to 8) (size 9 to 14) (size 15 to 20)
#    0.000    1.714    0.000    4.286    0.000    2.286 
#    0.000   14.286    0.000    0.000    0.000    0.000 
#    0.000    0.000    0.000    0.000    0.000    0.000 
#
# Total GULP energy -155949.894832 kJ/mol
# GULP energy per Si atom -5569.639101 kJ/mol
# Density = 2.342352 g / cm^3
# Si number density = 23.476954 Si / 1000 Ang^3
#
#
#
# Elastic Constant Matrix: (Units=GPa)
#
#
# Indices 1 2 3 4 5 6 
#
# 1 119.1497 71.0159 14.7617 0.0000 0.0000 0.0000
# 2 71.0159 186.0817 19.9720 0.0000 0.0000 0.0000
# 3 14.7617 19.9720 44.7746 0.0000 0.0000 0.0000
# 4 0.0000 0.0000 0.0000 25.4074 0.0000 0.0000
# 5 0.0000 0.0000 0.0000 0.0000 -347.5648 0.0000
# 6 0.0000 0.0000 0.0000 0.0000 0.0000 65.9462
#
#
#
# Elastic Compliance Matrix: (Units=1/GPa)
#
#
# Indices 1 2 3 4 5 6 
#
# 1 0.011007 -0.004003 -0.001843 0.000000 0.000000 0.000000
# 2 -0.004003 0.007100 -0.001847 0.000000 0.000000 0.000000
# 3 -0.001843 -0.001847 0.023766 0.000000 0.000000 0.000000
# 4 0.000000 0.000000 0.000000 0.039359 0.000000 0.000000
# 5 0.000000 0.000000 0.000000 0.000000 -0.002877 0.000000
# 6 0.000000 0.000000 0.000000 0.000000 0.000000 0.015164
#
#
# Mechanical properties :
#
#
# Convention : Reuss Voigt Hill
#
# Bulk Modulus (GPa) = 37.75620 62.38945 50.07283
# Shear Modulus (GPa) = 42.46881 -34.95847 3.75517
#
# Velocity S-wave (km/s) = 4.25780 -3.86301 1.26609
# Velocity P-wave (km/s) = 6.34736 2.59524 4.84893
#
# Compressibility (1/GPa) = 0.02648572
#
# Stress axis : x y z
#
# Youngs Moduli (GPa) = 90.85159 140.84748 42.07724
#
# Poissons Ratio (x) = 0.56379 0.07756
# Poissons Ratio (y) = 0.36366 0.07773
# Poissons Ratio (z) = 0.16747 0.26018
#
# Static dielectric constant tensor:
#      x y z
#    x 2.021940 0.000000 0.000000 
#    y 0.000000 1.868160 0.000000 
#    z 0.000000 0.000000 1.933140 
# 
# From -- ./inp_files/36381.got.cif
#   From: 2010.05.17/outbox.cif.g08.bks.cpg/sg52_19_cif.got.tgz:36381.got - 2010.06.03 12:15:38.
