data_PCOD9410229
_publ_section_title
;
Structure prediction by ZEFSAII (Michael W. Deem and Ramdas Pophale) SiO2 
 PCOD9410229
Probable space group: P N N A
;
_chemical_formula_sum "Si O2"
_cell_formula_units_Z 60
_cell_length_a 8.819796
_cell_length_b 11.677294
_cell_length_c 26.629903
_cell_angle_alpha 90.000000
_cell_angle_beta 90.000000
_cell_angle_gamma 90.000000
_cell_volume 2742.649685
_symmetry_space_group_name_H-M "P N N A"
_symmetry_group_IT_number 52
_symmetry_cell_setting 'orthorhombic'
loop_
_space_group_symop_operation_xyz
x,y,z
1/2-x,-y,z
x,1/2-y,1/2-z
1/2-x,1/2+y,1/2-z
-x,-y,-z
1/2+x,y,-z
-x,1/2+y,1/2+z
1/2+x,1/2-y,1/2+z
loop_
_atom_site_type_symbol
_atom_site_label
_atom_site_fract_x
_atom_site_fract_y
_atom_site_fract_z
Si Si1 0.091748 0.433901 0.244336
Si Si2 0.050359 0.284423 0.500674
Si Si3 0.126878 0.084273 0.089427
Si Si4 0.406413 0.752099 0.166597
Si Si5 0.750000 0.000000 0.286011
Si Si6 0.605636 0.082699 0.102447
Si Si7 0.297606 0.126689 0.518311
Si Si8 0.260587 0.197520 0.633142
O O1 0.250000 0.500000 0.254886
O O2 0.125632 0.370750 0.190800
O O3 0.082900 0.338388 0.287236
O O4 0.917316 0.484956 0.240775
O O5 0.019681 0.364769 0.453575
O O6 0.046587 0.357621 0.551127
O O7 0.221593 0.239746 0.494128
O O8 0.967902 0.161512 0.495626
O O9 0.192349 0.186433 0.123580
O O10 0.250000 0.000000 0.066086
O O11 0.025147 0.999420 0.123239
O O12 0.569095 0.740244 0.140754
O O13 0.728985 0.108702 0.322727
O O14 0.654603 0.191232 0.135271
O O15 0.750000 0.000000 0.094281
O O16 0.257252 0.140761 0.577589
O O17 0.250000 0.000000 0.502011
#
# Coordination Sequence:
#
# PCOD9410229 Si02
#       8
#     8   8   8   8   4   8   8   8
#     4  10  23  43  67  97 131 169 213 276 340 403
#     4  11  22  37  55  87 124 166 217 269 323 378
#     4  12  22  35  57  87 122 165 205 261 326 388
#     4  10  21  42  63  91 130 163 211 271 336 388
#     4  10  22  42  72  94 132 176 216 274 344 400
#     4  11  21  37  59  88 125 171 217 270 317 380
#     4  11  21  38  60  84 124 170 223 274 324 384
#     4  10  20  39  66  91 121 172 220 270 323 402
#
# _framework density 21.876655
#
# number of rings (size 3 to 8) (size 9 to 14) (size 15 to 20)
#    0.000    1.333    3.333    3.200    0.000    2.133 
#    0.000    6.000    0.000    0.000    0.000    0.000 
#    0.000    0.000    0.000    0.000    0.000    0.000 
#
# Total GULP energy -334128.450825 kJ/mol
# GULP energy per Si atom -5568.807514 kJ/mol
# Density = 2.182686 g / cm^3
# Si number density = 21.876655 Si / 1000 Ang^3
#
#
#
# Elastic Constant Matrix: (Units=GPa)
#
#
# Indices 1 2 3 4 5 6 
#
# 1 55.9762 27.5538 -4.3349 0.0000 0.0000 0.0000
# 2 27.5538 98.0367 6.2471 0.0000 0.0000 0.0000
# 3 -4.3349 6.2471 25.2583 0.0000 0.0000 0.0000
# 4 0.0000 0.0000 0.0000 26.6933 0.0000 0.0000
# 5 0.0000 0.0000 0.0000 0.0000 -8.4985 0.0000
# 6 0.0000 0.0000 0.0000 0.0000 0.0000 37.9640
#
#
#
# Elastic Compliance Matrix: (Units=1/GPa)
#
#
# Indices 1 2 3 4 5 6 
#
# 1 0.021395 -0.006347 0.005242 0.000000 0.000000 0.000000
# 2 -0.006347 0.012247 -0.004118 0.000000 0.000000 0.000000
# 3 0.005242 -0.004118 0.041509 0.000000 0.000000 0.000000
# 4 0.000000 0.000000 0.000000 0.037463 0.000000 0.000000
# 5 0.000000 0.000000 0.000000 0.000000 -0.117668 0.000000
# 6 0.000000 0.000000 0.000000 0.000000 0.000000 0.026341
#
#
# Mechanical properties :
#
#
# Convention : Reuss Voigt Hill
#
# Bulk Modulus (GPa) = 15.45514 26.46701 20.96108
# Shear Modulus (GPa) = 93.80557 21.21877 57.51217
#
# Velocity S-wave (km/s) = 6.55533 3.11774 5.13287
# Velocity P-wave (km/s) = 8.02350 5.00849 6.68811
#
# Compressibility (1/GPa) = 0.06470338
#
# Stress axis : x y z
#
# Youngs Moduli (GPa) = 46.73984 81.65523 24.09104
#
# Poissons Ratio (x) = 0.51828 -0.12628
# Poissons Ratio (y) = 0.29667 0.09921
# Poissons Ratio (z) = -0.24500 0.33628
#
# Static dielectric constant tensor:
#      x y z
#    x 1.822180 0.000000 0.000000 
#    y 0.000000 1.917310 0.000000 
#    z 0.000000 0.000000 1.790410 
# 
# From -- ./inp_files/44563.got.cif
#   From: 2010.05.17/outbox.cif.g08.bks.cpg/sg52_23_cif.got.tgz:44563.got - 2010.06.03 12:15:38.
