data_PCOD9410882
_publ_section_title
;
Structure prediction by ZEFSAII (Michael W. Deem and Ramdas Pophale) SiO2 
 PCOD9410882
Probable space group: P N N A
;
_chemical_formula_sum "Si O2"
_cell_formula_units_Z 64
_cell_length_a 9.708640
_cell_length_b 16.213313
_cell_length_c 20.469282
_cell_angle_alpha 90.000000
_cell_angle_beta 90.000000
_cell_angle_gamma 90.000000
_cell_volume 3222.053696
_symmetry_space_group_name_H-M "P N N A"
_symmetry_group_IT_number 52
_symmetry_cell_setting 'orthorhombic'
loop_
_space_group_symop_operation_xyz
x,y,z
1/2-x,-y,z
x,1/2-y,1/2-z
1/2-x,1/2+y,1/2-z
-x,-y,-z
1/2+x,y,-z
-x,1/2+y,1/2+z
1/2+x,1/2-y,1/2+z
loop_
_atom_site_type_symbol
_atom_site_label
_atom_site_fract_x
_atom_site_fract_y
_atom_site_fract_z
Si Si1 0.665067 0.735792 0.545189
Si Si2 0.125413 0.692681 0.186897
Si Si3 0.869713 0.442581 0.496734
Si Si4 0.539732 0.214145 0.559033
Si Si5 0.146253 0.429012 0.151983
Si Si6 0.131939 0.930228 0.726728
Si Si7 0.142284 0.656248 0.632525
Si Si8 0.817846 0.793265 0.320640
O O1 0.657677 0.758760 0.620622
O O2 0.616425 0.642731 0.534895
O O3 0.824279 0.746717 0.526940
O O4 0.573700 0.792923 0.497789
O O5 0.125358 0.750000 0.250000
O O6 0.245659 0.625890 0.193712
O O7 0.967240 0.665473 0.174294
O O8 0.750000 0.500000 0.523284
O O9 0.841678 0.412533 0.422737
O O10 0.000000 0.500000 0.500000
O O11 0.585209 0.130372 0.595324
O O12 0.479665 0.281440 0.610444
O O13 0.250000 0.500000 0.126370
O O14 0.015293 0.456009 0.196129
O O15 0.115875 0.885835 0.797397
O O16 0.199186 0.861510 0.678973
O O17 0.250000 0.000000 0.733146
O O18 0.275864 0.716631 0.633852
O O19 0.814408 0.750000 0.250000
#
# Coordination Sequence:
#
# PCOD9410882 Si02
#       8
#     8   8   8   8   8   8   8   8
#     4  10  23  40  66  92 127 175 231 261 330 400
#     4  10  23  41  66  97 132 171 223 270 328 403
#     4  11  23  39  57  91 133 165 212 269 318 385
#     4  10  22  41  66  94 125 178 227 272 329 403
#     4  11  24  42  63  95 141 167 218 283 347 389
#     4  11  22  38  63  96 129 173 225 275 338 393
#     4  10  21  38  66  89 126 179 224 263 321 399
#     4   9  19  36  62  89 119 167 224 264 317 390
#
# _framework density 19.863108
#
# number of rings (size 3 to 8) (size 9 to 14) (size 15 to 20)
#    0.000    1.750    1.250    2.625    8.750    0.000 
#    4.500    2.500    0.000    1.500    0.000    0.000 
#    0.000    0.000    0.000    0.000    0.000    0.000 
#
# Total GULP energy -356814.777911 kJ/mol
# GULP energy per Si atom -5575.230905 kJ/mol
# Density = 1.981790 g / cm^3
# Si number density = 19.863108 Si / 1000 Ang^3
#
#
#
# Elastic Constant Matrix: (Units=GPa)
#
#
# Indices 1 2 3 4 5 6 
#
# 1 141.6023 35.0945 24.2807 0.0000 0.0000 0.0000
# 2 35.0945 78.7589 31.3871 0.0000 0.0000 0.0000
# 3 24.2807 31.3871 72.3474 0.0000 0.0000 0.0000
# 4 0.0000 0.0000 0.0000 -2.7089 0.0000 0.0000
# 5 0.0000 0.0000 0.0000 0.0000 29.4029 0.0000
# 6 0.0000 0.0000 0.0000 0.0000 0.0000 47.4562
#
#
#
# Elastic Compliance Matrix: (Units=1/GPa)
#
#
# Indices 1 2 3 4 5 6 
#
# 1 0.008052 -0.003036 -0.001385 0.000000 0.000000 0.000000
# 2 -0.003036 0.016496 -0.006138 0.000000 0.000000 0.000000
# 3 -0.001385 -0.006138 0.016950 0.000000 0.000000 0.000000
# 4 0.000000 0.000000 0.000000 -0.369152 0.000000 0.000000
# 5 0.000000 0.000000 0.000000 0.000000 0.034010 0.000000
# 6 0.000000 0.000000 0.000000 0.000000 0.000000 0.021072
#
#
# Mechanical properties :
#
#
# Convention : Reuss Voigt Hill
#
# Bulk Modulus (GPa) = 49.06757 52.69258 50.88007
# Shear Modulus (GPa) = -20.43644 28.29312 3.92834
#
# Velocity S-wave (km/s) = -3.21107 3.77822 1.40784
# Velocity P-wave (km/s) = 3.31791 6.75417 5.32106
#
# Compressibility (1/GPa) = 0.02038006
#
# Stress axis : x y z
#
# Youngs Moduli (GPa) = 124.19325 60.62187 58.99758
#
# Poissons Ratio (x) = 0.18404 0.08173
# Poissons Ratio (y) = 0.37703 0.36210
# Poissons Ratio (z) = 0.17204 0.37207
#
# Static dielectric constant tensor:
#      x y z
#    x 1.747700 0.000000 0.000000 
#    y 0.000000 1.706930 0.000000 
#    z 0.000000 0.000000 1.693060 
# 
# From -- ./inp_files/36200.got.cif
#   From: 2010.05.17/outbox.cif.g08.bks.cpg/sg52_19_cif.got.tgz:36200.got - 2010.06.03 12:15:38.
