data_PCOD9410870
_publ_section_title
;
Structure prediction by ZEFSAII (Michael W. Deem and Ramdas Pophale) SiO2 
 PCOD9410870
Probable space group: P N N A
;
_chemical_formula_sum "Si O2"
_cell_formula_units_Z 24
_cell_length_a 12.471593
_cell_length_b 9.983774
_cell_length_c 7.148405
_cell_angle_alpha 90.000000
_cell_angle_beta 90.000000
_cell_angle_gamma 90.000000
_cell_volume 890.073397
_symmetry_space_group_name_H-M "P N N A"
_symmetry_group_IT_number 52
_symmetry_cell_setting 'orthorhombic'
loop_
_space_group_symop_operation_xyz
x,y,z
1/2-x,-y,z
x,1/2-y,1/2-z
1/2-x,1/2+y,1/2-z
-x,-y,-z
1/2+x,y,-z
-x,1/2+y,1/2+z
1/2+x,1/2-y,1/2+z
loop_
_atom_site_type_symbol
_atom_site_label
_atom_site_fract_x
_atom_site_fract_y
_atom_site_fract_z
Si Si1 0.562916 0.055207 0.260334
Si Si2 0.842450 0.389303 0.938605
Si Si3 0.346251 0.780201 0.042214
O O1 0.438064 0.083462 0.294105
O O2 0.613206 0.165615 0.401835
O O3 0.606038 0.921164 0.357927
O O4 0.609708 0.087162 0.056900
O O5 0.750000 0.500000 0.895660
O O6 0.781191 0.247701 0.947538
O O7 0.387298 0.750000 0.250000
#
# Coordination Sequence:
#
# PCOD9410870 Si02
#       3
#     8   8   8
#     4   9  20  42  63  95 139 175 222 287 335 406
#     4   9  19  41  67  92 137 176 222 281 340 409
#     4  10  21  38  65 103 132 176 226 280 341 405
#
# _framework density 26.964068999999999
#
# number of rings (size 3 to 8) (size 9 to 14) (size 15 to 20)
#    0.000    2.667    0.000    0.000    4.667    0.000 
#   12.000   40.000    0.000    2.000    0.000    0.000 
#    0.000    0.000    0.000    0.000    0.000    0.000 
#
# Total GULP energy -134175.040080 kJ/mol
# GULP energy per Si atom -5590.626670 kJ/mol
# Density = 2.690270 g / cm^3
# Si number density = 26.964069 Si / 1000 Ang^3
#
#
#
# Elastic Constant Matrix: (Units=GPa)
#
#
# Indices 1 2 3 4 5 6 
#
# 1 214.6480 47.0145 77.0507 0.0000 0.0000 0.0000
# 2 47.0145 49.0091 49.4162 0.0000 0.0000 0.0000
# 3 77.0507 49.4162 230.2316 0.0000 0.0000 0.0000
# 4 0.0000 0.0000 0.0000 34.9371 0.0000 0.0000
# 5 0.0000 0.0000 0.0000 0.0000 18.5445 0.0000
# 6 0.0000 0.0000 0.0000 0.0000 0.0000 1.8691
#
#
#
# Elastic Compliance Matrix: (Units=1/GPa)
#
#
# Indices 1 2 3 4 5 6 
#
# 1 0.006073 -0.004819 -0.000998 0.000000 0.000000 0.000000
# 2 -0.004819 0.029864 -0.004797 0.000000 0.000000 0.000000
# 3 -0.000998 -0.004797 0.005707 0.000000 0.000000 0.000000
# 4 0.000000 0.000000 0.000000 0.028623 0.000000 0.000000
# 5 0.000000 0.000000 0.000000 0.000000 0.053924 0.000000
# 6 0.000000 0.000000 0.000000 0.000000 0.000000 0.535009
#
#
# Mechanical properties :
#
#
# Convention : Reuss Voigt Hill
#
# Bulk Modulus (GPa) = 48.98240 93.42793 71.20517
# Shear Modulus (GPa) = 7.27554 32.43064 19.85309
#
# Velocity S-wave (km/s) = 1.64441 3.47181 2.71639
# Velocity P-wave (km/s) = 4.67019 7.12710 6.02521
#
# Compressibility (1/GPa) = 0.02041549
#
# Stress axis : x y z
#
# Youngs Moduli (GPa) = 164.67536 33.48458 175.22125
#
# Poissons Ratio (x) = 0.16137 0.17485
# Poissons Ratio (y) = 0.79361 0.84057
# Poissons Ratio (z) = 0.16433 0.16063
#
# Static dielectric constant tensor:
#      x y z
#    x 2.138860 0.000000 0.000000 
#    y 0.000000 2.375850 0.000000 
#    z 0.000000 0.000000 2.164990 
# 
# From -- ./inp_files/8008.got.cif
#   From: 2010.05.17/outbox.cif.g08.bks.cpg/sg52_5_cif.got.tgz:8008.got - 2010.06.03 12:15:38.
