data_PCOD9410667
_publ_section_title
;
Structure prediction by ZEFSAII (Michael W. Deem and Ramdas Pophale) SiO2 
 PCOD9410667
Probable space group: P N N A
;
_chemical_formula_sum "Si O2"
_cell_formula_units_Z 32
_cell_length_a 18.911048
_cell_length_b 5.207643
_cell_length_c 15.011599
_cell_angle_alpha 90.000000
_cell_angle_beta 90.000000
_cell_angle_gamma 90.000000
_cell_volume 1478.372094
_symmetry_space_group_name_H-M "P N N A"
_symmetry_group_IT_number 52
_symmetry_cell_setting 'orthorhombic'
loop_
_space_group_symop_operation_xyz
x,y,z
1/2-x,-y,z
x,1/2-y,1/2-z
1/2-x,1/2+y,1/2-z
-x,-y,-z
1/2+x,y,-z
-x,1/2+y,1/2+z
1/2+x,1/2-y,1/2+z
loop_
_atom_site_type_symbol
_atom_site_label
_atom_site_fract_x
_atom_site_fract_y
_atom_site_fract_z
Si Si1 0.326231 0.003945 0.687600
Si Si2 0.031907 0.777038 0.607103
Si Si3 0.543577 0.732909 0.605377
Si Si4 0.708536 0.745614 0.642436
O O1 0.317225 0.250000 0.750000
O O2 0.393316 0.090272 0.630056
O O3 0.250000 0.000000 0.638332
O O4 0.337528 0.750000 0.750000
O O5 0.030159 0.748985 0.500594
O O6 0.006679 0.497142 0.641014
O O7 0.976894 0.988139 0.641593
O O8 0.626698 0.704730 0.619262
O O9 0.750000 0.500000 0.607448
O O10 0.712096 0.750000 0.750000
O O11 0.750000 0.000000 0.611023
#
# Coordination Sequence:
#
# PCOD9410667 Si02
#       4
#     8   8   8   8
#     4  10  21  37  56  81 113 148 189 235 281 336
#     4  10  21  37  56  82 113 144 185 231 279 337
#     4  10  21  37  57  82 112 145 183 231 281 335
#     4  10  21  37  56  81 111 143 184 230 277 335
#
# _framework density 21.645430999999999
#
# number of rings (size 3 to 8) (size 9 to 14) (size 15 to 20)
#    0.000    2.000    0.000    3.000    0.000    4.000 
#    0.000    3.750    0.000    0.000    0.000    0.000 
#    0.000    0.000    0.000    0.000    0.000    0.000 
#
# Total GULP energy -178321.583810 kJ/mol
# GULP energy per Si atom -5572.549494 kJ/mol
# Density = 2.159617 g / cm^3
# Si number density = 21.645431 Si / 1000 Ang^3
#
#
#
# Elastic Constant Matrix: (Units=GPa)
#
#
# Indices 1 2 3 4 5 6 
#
# 1 143.3704 73.6645 -2.1277 0.0000 0.0000 0.0000
# 2 73.6645 191.7648 23.8122 0.0000 0.0000 0.0000
# 3 -2.1277 23.8122 27.6040 0.0000 0.0000 0.0000
# 4 0.0000 0.0000 0.0000 3.0418 0.0000 0.0000
# 5 0.0000 0.0000 0.0000 0.0000 -7.8311 0.0000
# 6 0.0000 0.0000 0.0000 0.0000 0.0000 40.7414
#
#
#
# Elastic Compliance Matrix: (Units=1/GPa)
#
#
# Indices 1 2 3 4 5 6 
#
# 1 0.009098 -0.004012 0.004162 0.000000 0.000000 0.000000
# 2 -0.004012 0.007609 -0.006873 0.000000 0.000000 0.000000
# 3 0.004162 -0.006873 0.042477 0.000000 0.000000 0.000000
# 4 0.000000 0.000000 0.000000 0.328755 0.000000 0.000000
# 5 0.000000 0.000000 0.000000 0.000000 -0.127696 0.000000
# 6 0.000000 0.000000 0.000000 0.000000 0.000000 0.024545
#
#
# Mechanical properties :
#
#
# Convention : Reuss Voigt Hill
#
# Bulk Modulus (GPa) = 21.86382 61.49301 41.67842
# Shear Modulus (GPa) = 15.95002 25.01643 20.48322
#
# Velocity S-wave (km/s) = 2.71749 3.40330 3.07955
# Velocity P-wave (km/s) = 4.46869 6.62678 5.65170
#
# Compressibility (1/GPa) = 0.04573766
#
# Stress axis : x y z
#
# Youngs Moduli (GPa) = 109.91509 131.41914 23.54242
#
# Poissons Ratio (x) = 0.52721 -0.09798
# Poissons Ratio (y) = 0.44094 0.16181
# Poissons Ratio (z) = -0.45745 0.90327
#
# Static dielectric constant tensor:
#      x y z
#    x 1.914320 0.000000 0.000000 
#    y 0.000000 1.847600 0.000000 
#    z 0.000000 0.000000 1.774290 
# 
# From -- ./inp_files/27594.got.cif
#   From: 2010.05.17/outbox.cif.g08.bks.cpg/sg52_14_cif.got.tgz:27594.got - 2010.06.03 12:15:38.
