data_PCOD9410811
_publ_section_title
;
Structure prediction by ZEFSAII (Michael W. Deem and Ramdas Pophale) SiO2 
 PCOD9410811
Probable space group: P N N A
;
_chemical_formula_sum "Si O2"
_cell_formula_units_Z 32
_cell_length_a 34.116693
_cell_length_b 5.020124
_cell_length_c 8.963134
_cell_angle_alpha 90.000000
_cell_angle_beta 90.000000
_cell_angle_gamma 90.000000
_cell_volume 1535.116223
_symmetry_space_group_name_H-M "P N N A"
_symmetry_group_IT_number 52
_symmetry_cell_setting 'orthorhombic'
loop_
_space_group_symop_operation_xyz
x,y,z
1/2-x,-y,z
x,1/2-y,1/2-z
1/2-x,1/2+y,1/2-z
-x,-y,-z
1/2+x,y,-z
-x,1/2+y,1/2+z
1/2+x,1/2-y,1/2+z
loop_
_atom_site_type_symbol
_atom_site_label
_atom_site_fract_x
_atom_site_fract_y
_atom_site_fract_z
Si Si1 0.609516 0.774799 0.915415
Si Si2 0.721937 0.248329 0.923272
Si Si3 0.475611 0.478974 0.150517
Si Si4 0.860203 0.721536 0.075201
O O1 0.627803 0.750000 0.750000
O O2 0.566250 0.649688 0.895426
O O3 0.631368 0.579264 0.026829
O O4 0.612963 0.072286 0.979512
O O5 0.750000 0.500000 0.948945
O O6 0.708138 0.250000 0.750000
O O7 0.750000 0.000000 0.942997
O O8 0.684520 0.225756 0.028645
O O9 0.495581 0.250000 0.250000
O O10 0.471865 0.750000 0.250000
O O11 0.500000 0.500000 0.000000
O O12 0.867157 0.750000 0.250000
#
# Coordination Sequence:
#
# PCOD9410811 Si02
#       4
#     8   8   8   8
#     4  11  23  43  65  89 125 171 214 253 309 388
#     4  10  21  38  61  88 120 163 209 252 308 381
#     4  11  24  43  67  97 129 168 214 266 325 382
#     4  12  25  40  63  96 128 162 208 267 323 367
#
# _framework density 20.845327999999999
#
# number of rings (size 3 to 8) (size 9 to 14) (size 15 to 20)
#    0.000    1.000    0.000    8.250    0.000    6.000 
#    0.000    0.000    0.000    0.000    0.000    0.000 
#    0.000    0.000    0.000    0.000    0.000    0.000 
#
# Total GULP energy -178869.213033 kJ/mol
# GULP energy per Si atom -5589.662907 kJ/mol
# Density = 2.079788 g / cm^3
# Si number density = 20.845328 Si / 1000 Ang^3
#
#
#
# Elastic Constant Matrix: (Units=GPa)
#
#
# Indices 1 2 3 4 5 6 
#
# 1 54.3439 8.0918 23.5454 0.0000 0.0000 0.0000
# 2 8.0918 108.6406 12.9896 0.0000 0.0000 0.0000
# 3 23.5454 12.9896 116.7031 0.0000 0.0000 0.0000
# 4 0.0000 0.0000 0.0000 40.2629 0.0000 0.0000
# 5 0.0000 0.0000 0.0000 0.0000 17.5405 0.0000
# 6 0.0000 0.0000 0.0000 0.0000 0.0000 24.9296
#
#
#
# Elastic Compliance Matrix: (Units=1/GPa)
#
#
# Indices 1 2 3 4 5 6 
#
# 1 0.020278 -0.001035 -0.003976 0.000000 0.000000 0.000000
# 2 -0.001035 0.009382 -0.000835 0.000000 0.000000 0.000000
# 3 -0.003976 -0.000835 0.009464 0.000000 0.000000 0.000000
# 4 0.000000 0.000000 0.000000 0.024837 0.000000 0.000000
# 5 0.000000 0.000000 0.000000 0.000000 0.057011 0.000000
# 6 0.000000 0.000000 0.000000 0.000000 0.000000 0.040113
#
#
# Mechanical properties :
#
#
# Convention : Reuss Voigt Hill
#
# Bulk Modulus (GPa) = 36.45526 40.99347 38.72436
# Shear Modulus (GPa) = 27.48449 32.21731 29.85090
#
# Velocity S-wave (km/s) = 3.63505 3.93560 3.78831
# Velocity P-wave (km/s) = 5.92828 6.35297 6.14430
#
# Compressibility (1/GPa) = 0.02743088
#
# Stress axis : x y z
#
# Youngs Moduli (GPa) = 49.31423 106.59125 105.66445
#
# Poissons Ratio (x) = 0.11032 0.42012
# Poissons Ratio (y) = 0.05104 0.08827
# Poissons Ratio (z) = 0.19607 0.08905
#
# Static dielectric constant tensor:
#      x y z
#    x 1.746140 0.000000 0.000000 
#    y 0.000000 1.724880 0.000000 
#    z 0.000000 0.000000 1.740560 
# 
# From -- ./inp_files/15174.got.cif
#   From: 2010.05.17/outbox.cif.g08.bks.cpg/sg52_8_cif.got.tgz:15174.got - 2010.06.03 12:15:38.
