data_PCOD9410953
_publ_section_title
;
Structure prediction by ZEFSAII (Michael W. Deem and Ramdas Pophale) SiO2 
 PCOD9410953
Probable space group: P N N A
;
_chemical_formula_sum "Si O2"
_cell_formula_units_Z 44
_cell_length_a 15.272333
_cell_length_b 21.600853
_cell_length_c 7.050207
_cell_angle_alpha 90.000000
_cell_angle_beta 90.000000
_cell_angle_gamma 90.000000
_cell_volume 2325.831000
_symmetry_space_group_name_H-M "P N N A"
_symmetry_group_IT_number 52
_symmetry_cell_setting 'orthorhombic'
loop_
_space_group_symop_operation_xyz
x,y,z
1/2-x,-y,z
x,1/2-y,1/2-z
1/2-x,1/2+y,1/2-z
-x,-y,-z
1/2+x,y,-z
-x,1/2+y,1/2+z
1/2+x,1/2-y,1/2+z
loop_
_atom_site_type_symbol
_atom_site_label
_atom_site_fract_x
_atom_site_fract_y
_atom_site_fract_z
Si Si1 0.345092 0.523864 0.995863
Si Si2 0.804301 0.878882 0.815321
Si Si3 0.892604 0.407272 0.754475
Si Si4 0.493264 0.695799 0.887927
Si Si5 0.575970 0.091098 0.158240
Si Si6 0.895236 0.750000 0.750000
O O1 0.250000 0.500000 0.931808
O O2 0.331644 0.585046 0.123767
O O3 0.381882 0.470742 0.132082
O O4 0.402992 0.539907 0.815295
O O5 0.700061 0.887710 0.831212
O O6 0.835509 0.808068 0.809580
O O7 0.857421 0.910142 0.986855
O O8 0.929552 0.355027 0.900224
O O9 0.973049 0.412966 0.606370
O O10 0.524649 0.750000 0.750000
O O11 0.419755 0.657046 0.770274
O O12 0.455602 0.724577 0.078910
#
# Coordination Sequence:
#
# PCOD9410953 Si02
#       6
#     8   8   8   8   8   4
#     4  10  21  40  61  92 129 167 216 263 320 384
#     4  11  22  37  64  93 124 178 205 267 322 377
#     4   9  22  40  64  91 131 165 216 262 319 384
#     4  10  21  40  62  93 125 164 211 265 314 389
#     4  10  21  39  62  88 129 165 212 261 318 375
#     4  12  20  38  68  84 130 174 204 264 338 370
#
# _framework density 18.917967999999998
#
# number of rings (size 3 to 8) (size 9 to 14) (size 15 to 20)
#    1.091    0.727    3.636    0.545    1.273    2.909 
#    0.000   12.727    2.000    0.000    0.000    0.000 
#    0.000    0.000    0.000    0.000    0.000    0.000 
#
# Total GULP energy -245118.561358 kJ/mol
# GULP energy per Si atom -5570.876395 kJ/mol
# Density = 1.887491 g / cm^3
# Si number density = 18.917968 Si / 1000 Ang^3
#
#
#
# Elastic Constant Matrix: (Units=GPa)
#
#
# Indices 1 2 3 4 5 6 
#
# 1 151.9437 30.6862 53.9528 0.0000 0.0000 0.0000
# 2 30.6862 71.2016 -9.9692 0.0000 0.0000 0.0000
# 3 53.9528 -9.9692 34.7310 0.0000 0.0000 0.0000
# 4 0.0000 0.0000 0.0000 13.5687 0.0000 0.0000
# 5 0.0000 0.0000 0.0000 0.0000 21.5151 0.0000
# 6 0.0000 0.0000 0.0000 0.0000 0.0000 23.5688
#
#
#
# Elastic Compliance Matrix: (Units=1/GPa)
#
#
# Indices 1 2 3 4 5 6 
#
# 1 0.027075 -0.018292 -0.047310 0.000000 0.000000 0.000000
# 2 -0.018292 0.026992 0.036164 0.000000 0.000000 0.000000
# 3 -0.047310 0.036164 0.112666 0.000000 0.000000 0.000000
# 4 0.000000 0.000000 0.000000 0.073699 0.000000 0.000000
# 5 0.000000 0.000000 0.000000 0.000000 0.046479 0.000000
# 6 0.000000 0.000000 0.000000 0.000000 0.000000 0.042429
#
#
# Mechanical properties :
#
#
# Convention : Reuss Voigt Hill
#
# Bulk Modulus (GPa) = 9.27157 45.24619 27.25888
# Shear Modulus (GPa) = 11.78780 23.94432 17.86606
#
# Velocity S-wave (km/s) = 2.49891 3.56152 3.07644
# Velocity P-wave (km/s) = 3.63835 6.39386 5.20188
#
# Compressibility (1/GPa) = 0.10785664
#
# Stress axis : x y z
#
# Youngs Moduli (GPa) = 36.93507 37.04841 8.87578
#
# Poissons Ratio (x) = 0.67771 0.41991
# Poissons Ratio (y) = 0.67563 -0.32098
# Poissons Ratio (z) = 1.74738 -1.33982
#
# Static dielectric constant tensor:
#      x y z
#    x 1.662360 0.000000 0.000000 
#    y 0.000000 1.684210 0.000000 
#    z 0.000000 0.000000 1.640430 
# 
# From -- ./inp_files/3395.got.cif
#   From: 2010.05.17/outbox.cif.g08.bks.cpg/sg52_2_cif.got.tgz:3395.got - 2010.06.03 12:15:38.
