data_PCOD9410228
_publ_section_title
;
Structure prediction by ZEFSAII (Michael W. Deem and Ramdas Pophale) SiO2 
 PCOD9410228
Probable space group: P N N A
;
_chemical_formula_sum "Si O2"
_cell_formula_units_Z 52
_cell_length_a 11.397859
_cell_length_b 8.509702
_cell_length_c 27.752793
_cell_angle_alpha 90.000000
_cell_angle_beta 90.000000
_cell_angle_gamma 90.000000
_cell_volume 2691.809543
_symmetry_space_group_name_H-M "P N N A"
_symmetry_group_IT_number 52
_symmetry_cell_setting 'orthorhombic'
loop_
_space_group_symop_operation_xyz
x,y,z
1/2-x,-y,z
x,1/2-y,1/2-z
1/2-x,1/2+y,1/2-z
-x,-y,-z
1/2+x,y,-z
-x,1/2+y,1/2+z
1/2+x,1/2-y,1/2+z
loop_
_atom_site_type_symbol
_atom_site_label
_atom_site_fract_x
_atom_site_fract_y
_atom_site_fract_z
Si Si1 0.890263 0.676381 0.097901
Si Si2 0.943078 0.162478 0.980037
Si Si3 0.381098 0.186374 0.577154
Si Si4 0.005287 0.204270 0.806706
Si Si5 0.250000 0.500000 0.429754
Si Si6 0.955710 0.886666 0.857986
Si Si7 0.244953 0.308371 0.303345
O O1 0.758613 0.709580 0.079834
O O2 0.909294 0.491036 0.092010
O O3 0.908705 0.721093 0.153958
O O4 0.980106 0.771966 0.064065
O O5 0.809444 0.131233 0.962814
O O6 0.934550 0.279679 0.024792
O O7 0.000000 0.000000 0.000000
O O8 0.439728 0.308160 0.613781
O O9 0.023596 0.250000 0.750000
O O10 0.871032 0.253061 0.820501
O O11 0.001588 0.018151 0.820346
O O12 0.139379 0.453115 0.396646
O O13 0.871893 0.762476 0.831212
O O14 0.250000 0.500000 0.303625
O O15 0.232575 0.250000 0.250000
#
# Coordination Sequence:
#
# PCOD9410228 Si02
#       7
#     8   8   8   8   4   8   8
#     4  11  24  46  59  90 135 164 214 272 316 377
#     4  12  22  40  69  90 122 168 210 263 323 388
#     4  11  26  40  62  92 129 173 213 260 323 386
#     4  10  20  39  66  90 124 172 215 263 323 374
#     4  12  20  38  62  94 122 150 218 258 314 382
#     4  11  20  39  61  93 126 163 214 261 312 384
#     4   9  18  33  57  88 121 155 203 259 314 370
#
# _framework density 19.317861000000001
#
# number of rings (size 3 to 8) (size 9 to 14) (size 15 to 20)
#    0.000    1.231    5.385    1.385    0.000    5.538 
#    0.000    5.385    0.000    0.000    0.000    0.000 
#    0.000    0.000    0.000    0.000    0.000    0.000 
#
# Total GULP energy -289865.915904 kJ/mol
# GULP energy per Si atom -5574.344537 kJ/mol
# Density = 1.927389 g / cm^3
# Si number density = 19.317861 Si / 1000 Ang^3
#
#
#
# Elastic Constant Matrix: (Units=GPa)
#
#
# Indices 1 2 3 4 5 6 
#
# 1 54.5795 44.7678 34.8556 0.0000 0.0000 0.0000
# 2 44.7678 55.0327 37.4041 0.0000 0.0000 0.0000
# 3 34.8556 37.4041 99.7995 0.0000 0.0000 0.0000
# 4 0.0000 0.0000 0.0000 32.9308 0.0000 0.0000
# 5 0.0000 0.0000 0.0000 0.0000 43.4740 0.0000
# 6 0.0000 0.0000 0.0000 0.0000 0.0000 27.0387
#
#
#
# Elastic Compliance Matrix: (Units=1/GPa)
#
#
# Indices 1 2 3 4 5 6 
#
# 1 0.055871 -0.043189 -0.003326 0.000000 0.000000 0.000000
# 2 -0.043189 0.057768 -0.006567 0.000000 0.000000 0.000000
# 3 -0.003326 -0.006567 0.013643 0.000000 0.000000 0.000000
# 4 0.000000 0.000000 0.000000 0.030367 0.000000 0.000000
# 5 0.000000 0.000000 0.000000 0.000000 0.023002 0.000000
# 6 0.000000 0.000000 0.000000 0.000000 0.000000 0.036984
#
#
# Mechanical properties :
#
#
# Convention : Reuss Voigt Hill
#
# Bulk Modulus (GPa) = 47.35463 49.27408 48.31435
# Shear Modulus (GPa) = 15.11308 26.84764 20.98036
#
# Velocity S-wave (km/s) = 2.80006 3.73202 3.29912
# Velocity P-wave (km/s) = 5.91781 6.64327 6.29100
#
# Compressibility (1/GPa) = 0.02111726
#
# Stress axis : x y z
#
# Youngs Moduli (GPa) = 17.89824 17.31071 73.29745
#
# Poissons Ratio (x) = 0.74764 0.24382
# Poissons Ratio (y) = 0.77301 0.48133
# Poissons Ratio (z) = 0.05954 0.11368
#
# Static dielectric constant tensor:
#      x y z
#    x 1.696390 0.000000 0.000000 
#    y 0.000000 1.680210 0.000000 
#    z 0.000000 0.000000 1.727010 
# 
# From -- ./inp_files/42739.got.cif
#   From: 2010.05.17/outbox.cif.g08.bks.cpg/sg52_22_cif.got.tgz:42739.got - 2010.06.03 12:15:38.
