data_PCOD9410596
_publ_section_title
;
Structure prediction by ZEFSAII (Michael W. Deem and Ramdas Pophale) SiO2 
 PCOD9410596
Probable space group: P N N A
;
_chemical_formula_sum "Si O2"
_cell_formula_units_Z 32
_cell_length_a 38.731409
_cell_length_b 7.545005
_cell_length_c 5.205015
_cell_angle_alpha 90.000000
_cell_angle_beta 90.000000
_cell_angle_gamma 90.000000
_cell_volume 1521.054635
_symmetry_space_group_name_H-M "P N N A"
_symmetry_group_IT_number 52
_symmetry_cell_setting 'orthorhombic'
loop_
_space_group_symop_operation_xyz
x,y,z
1/2-x,-y,z
x,1/2-y,1/2-z
1/2-x,1/2+y,1/2-z
-x,-y,-z
1/2+x,y,-z
-x,1/2+y,1/2+z
1/2+x,1/2-y,1/2+z
loop_
_atom_site_type_symbol
_atom_site_label
_atom_site_fract_x
_atom_site_fract_y
_atom_site_fract_z
Si Si1 0.788971 0.538121 0.292083
Si Si2 0.532575 0.627294 0.001374
Si Si3 0.176702 0.459722 0.203339
Si Si4 0.108756 0.625703 0.000492
O O1 0.750000 0.500000 0.373993
O O2 0.792993 0.750000 0.250000
O O3 0.815028 0.468307 0.511865
O O4 0.796613 0.465696 0.007584
O O5 0.530177 0.750000 0.250000
O O6 0.531481 0.750000 0.750000
O O7 0.500000 0.500000 0.000000
O O8 0.570683 0.538920 0.017971
O O9 0.180555 0.250000 0.250000
O O10 0.140002 0.495689 0.069185
O O11 0.107515 0.750000 0.250000
O O12 0.114053 0.750000 0.750000
#
# Coordination Sequence:
#
# PCOD9410596 Si02
#       4
#     8   8   8   8
#     4  10  21  36  54  78 108 141 182 230 278 333
#     4  10  21  38  59  86 119 152 191 236 281 336
#     4  10  21  37  55  79 110 144 184 229 279 336
#     4  10  21  37  57  83 113 145 186 233 278 331
#
# _framework density 21.038032999999999
#
# number of rings (size 3 to 8) (size 9 to 14) (size 15 to 20)
#    0.000    2.000    0.000    3.000    0.000    4.000 
#    0.000    3.750    0.000    0.000    0.000    0.000 
#    0.000    0.000    0.000    0.000    0.000    0.000 
#
# Total GULP energy -178458.717441 kJ/mol
# GULP energy per Si atom -5576.834920 kJ/mol
# Density = 2.099015 g / cm^3
# Si number density = 21.038033 Si / 1000 Ang^3
#
#
#
# Elastic Constant Matrix: (Units=GPa)
#
#
# Indices 1 2 3 4 5 6 
#
# 1 130.0512 3.1787 51.2793 0.0000 0.0000 0.0000
# 2 3.1787 13.1298 23.8788 0.0000 0.0000 0.0000
# 3 51.2793 23.8788 182.2490 0.0000 0.0000 0.0000
# 4 0.0000 0.0000 0.0000 9.6631 0.0000 0.0000
# 5 0.0000 0.0000 0.0000 0.0000 32.2525 0.0000
# 6 0.0000 0.0000 0.0000 0.0000 0.0000 29.2829
#
#
#
# Elastic Compliance Matrix: (Units=1/GPa)
#
#
# Indices 1 2 3 4 5 6 
#
# 1 0.008744 0.003095 -0.002866 0.000000 0.000000 0.000000
# 2 0.003095 0.101085 -0.014115 0.000000 0.000000 0.000000
# 3 -0.002866 -0.014115 0.008143 0.000000 0.000000 0.000000
# 4 0.000000 0.000000 0.000000 0.103487 0.000000 0.000000
# 5 0.000000 0.000000 0.000000 0.000000 0.031005 0.000000
# 6 0.000000 0.000000 0.000000 0.000000 0.000000 0.034150
#
#
# Mechanical properties :
#
#
# Convention : Reuss Voigt Hill
#
# Bulk Modulus (GPa) = 11.08660 53.56707 32.32684
# Shear Modulus (GPa) = 14.51585 30.71256 22.61420
#
# Velocity S-wave (km/s) = 2.62960 3.82496 3.28215
# Velocity P-wave (km/s) = 3.80801 6.71002 5.45551
#
# Compressibility (1/GPa) = 0.09019898
#
# Stress axis : x y z
#
# Youngs Moduli (GPa) = 114.36966 9.89270 122.80885
#
# Poissons Ratio (x) = -0.03062 0.35193
# Poissons Ratio (y) = -0.35397 1.73348
# Poissons Ratio (z) = 0.32775 0.13964
#
# Static dielectric constant tensor:
#      x y z
#    x 1.808920 0.000000 0.000000 
#    y 0.000000 1.748310 0.000000 
#    z 0.000000 0.000000 1.772210 
# 
# From -- ./inp_files/6120.got.cif
#   From: 2010.05.17/outbox.cif.g08.bks.cpg/sg52_4_cif.got.tgz:6120.got - 2010.06.03 12:15:38.
