data_PCOD9410826
_publ_section_title
;
Structure prediction by ZEFSAII (Michael W. Deem and Ramdas Pophale) SiO2 
 PCOD9410826
Probable space group: P N N A
;
_chemical_formula_sum "Si O2"
_cell_formula_units_Z 40
_cell_length_a 8.463581
_cell_length_b 18.924171
_cell_length_c 13.213340
_cell_angle_alpha 90.000000
_cell_angle_beta 90.000000
_cell_angle_gamma 90.000000
_cell_volume 2116.331172
_symmetry_space_group_name_H-M "P N N A"
_symmetry_group_IT_number 52
_symmetry_cell_setting 'orthorhombic'
loop_
_space_group_symop_operation_xyz
x,y,z
1/2-x,-y,z
x,1/2-y,1/2-z
1/2-x,1/2+y,1/2-z
-x,-y,-z
1/2+x,y,-z
-x,1/2+y,1/2+z
1/2+x,1/2-y,1/2+z
loop_
_atom_site_type_symbol
_atom_site_label
_atom_site_fract_x
_atom_site_fract_y
_atom_site_fract_z
Si Si1 0.720856 0.331192 0.028711
Si Si2 0.035049 0.935953 0.422862
Si Si3 0.750000 0.000000 0.065187
Si Si4 0.750000 0.000000 0.743187
Si Si5 0.502756 0.752911 0.127986
Si Si6 0.054202 0.416321 0.397357
O O1 0.609591 0.382687 0.094400
O O2 0.826265 0.277927 0.095052
O O3 0.835180 0.385877 0.973196
O O4 0.620583 0.291879 0.940868
O O5 0.109706 0.969767 0.324263
O O6 0.000000 0.000000 0.500000
O O7 0.886497 0.044298 0.120404
O O8 0.644691 0.052962 0.995810
O O9 0.824489 0.937717 0.809577
O O10 0.480745 0.750000 0.250000
O O11 0.479973 0.833999 0.096535
#
# Coordination Sequence:
#
# PCOD9410826 Si02
#       6
#     8   8   4   4   8   8
#     4  10  23  39  61  91 119 166 202 246 317 371
#     4  11  20  39  61  86 122 149 197 256 309 361
#     4   9  20  40  61  86 116 164 203 262 292 351
#     4  11  22  36  61  98 112 162 205 258 306 367
#     4  11  23  40  61  87 128 163 202 250 305 380
#     4  10  21  38  62  87 122 156 211 248 307 352
#
# _framework density 18.900634
#
# number of rings (size 3 to 8) (size 9 to 14) (size 15 to 20)
#    0.000    1.600    2.000    2.400    2.800    1.600 
#    0.000   10.000    0.000    0.000    0.000    0.000 
#    0.000    0.000    0.000    0.000    0.000    0.000 
#
# Total GULP energy -223114.752428 kJ/mol
# GULP energy per Si atom -5577.868811 kJ/mol
# Density = 1.885762 g / cm^3
# Si number density = 18.900634 Si / 1000 Ang^3
#
#
#
# Elastic Constant Matrix: (Units=GPa)
#
#
# Indices 1 2 3 4 5 6 
#
# 1 102.4781 55.5097 22.4733 0.0000 0.0000 0.0000
# 2 55.5097 146.3570 37.4671 0.0000 0.0000 0.0000
# 3 22.4733 37.4671 63.1383 0.0000 0.0000 0.0000
# 4 0.0000 0.0000 0.0000 3.3996 0.0000 0.0000
# 5 0.0000 0.0000 0.0000 0.0000 51.6917 0.0000
# 6 0.0000 0.0000 0.0000 0.0000 0.0000 38.1339
#
#
#
# Elastic Compliance Matrix: (Units=1/GPa)
#
#
# Indices 1 2 3 4 5 6 
#
# 1 0.012477 -0.004239 -0.001925 0.000000 0.000000 0.000000
# 2 -0.004239 0.009497 -0.004127 0.000000 0.000000 0.000000
# 3 -0.001925 -0.004127 0.018972 0.000000 0.000000 0.000000
# 4 0.000000 0.000000 0.000000 0.294148 0.000000 0.000000
# 5 0.000000 0.000000 0.000000 0.000000 0.019345 0.000000
# 6 0.000000 0.000000 0.000000 0.000000 0.000000 0.026223
#
#
# Mechanical properties :
#
#
# Convention : Reuss Voigt Hill
#
# Bulk Modulus (GPa) = 49.10750 60.31930 54.71340
# Shear Modulus (GPa) = 12.25390 31.74660 22.00025
#
# Velocity S-wave (km/s) = 2.54900 4.10281 3.41544
# Velocity P-wave (km/s) = 5.89080 7.37748 6.67566
#
# Compressibility (1/GPa) = 0.02036349
#
# Stress axis : x y z
#
# Youngs Moduli (GPa) = 80.14956 105.29792 52.70826
#
# Poissons Ratio (x) = 0.44638 0.10148
# Poissons Ratio (y) = 0.33977 0.21751
# Poissons Ratio (z) = 0.15431 0.43453
#
# Static dielectric constant tensor:
#      x y z
#    x 1.486560 0.000000 0.000000 
#    y 0.000000 1.637630 0.000000 
#    z 0.000000 0.000000 1.674730 
# 
# From -- ./inp_files/16699.got.cif
#   From: 2010.05.17/outbox.cif.g08.bks.cpg/sg52_9_cif.got.tgz:16699.got - 2010.06.03 12:15:38.
