data_PCOD9410208
_publ_section_title
;
Structure prediction by ZEFSAII (Michael W. Deem and Ramdas Pophale) SiO2 
 PCOD9410208
Probable space group: P N N A
;
_chemical_formula_sum "Si O2"
_cell_formula_units_Z 48
_cell_length_a 15.096892
_cell_length_b 19.056048
_cell_length_c 8.469770
_cell_angle_alpha 90.000000
_cell_angle_beta 90.000000
_cell_angle_gamma 90.000000
_cell_volume 2436.643557
_symmetry_space_group_name_H-M "P N N A"
_symmetry_group_IT_number 52
_symmetry_cell_setting 'orthorhombic'
loop_
_space_group_symop_operation_xyz
x,y,z
1/2-x,-y,z
x,1/2-y,1/2-z
1/2-x,1/2+y,1/2-z
-x,-y,-z
1/2+x,y,-z
-x,1/2+y,1/2+z
1/2+x,1/2-y,1/2+z
loop_
_atom_site_type_symbol
_atom_site_label
_atom_site_fract_x
_atom_site_fract_y
_atom_site_fract_z
Si Si1 0.421316 0.355185 0.989844
Si Si2 0.950875 0.250000 0.250000
Si Si3 0.466493 0.610917 0.709846
Si Si4 0.149826 0.250000 0.750000
Si Si5 0.344977 0.476528 0.766657
Si Si6 0.759685 0.248631 0.576820
Si Si7 0.624446 0.866897 0.023566
O O1 0.485077 0.300108 0.892018
O O2 0.390786 0.420878 0.883877
O O3 0.471913 0.385576 0.137628
O O4 0.337666 0.309404 0.052547
O O5 0.895445 0.308700 0.342400
O O6 0.408335 0.681186 0.717511
O O7 0.405428 0.542861 0.725323
O O8 0.532642 0.613150 0.560490
O O9 0.204420 0.241627 0.585713
O O10 0.250000 0.500000 0.830878
O O11 0.331489 0.433072 0.605499
O O12 0.712995 0.250000 0.750000
O O13 0.808252 0.324286 0.583485
#
# Coordination Sequence:
#
# PCOD9410208 Si02
#       7
#     8   4   8   4   8   8   8
#     4  10  20  39  64  90 122 165 212 255 315 379
#     4   8  17  32  60  90 115 154 196 256 307 366
#     4  12  23  41  63  91 126 164 212 260 313 385
#     4  12  25  40  66  98 131 164 212 266 319 378
#     4  11  23  41  65  89 126 167 209 264 326 377
#     4  11  20  40  65  94 127 165 207 264 322 377
#     4  10  20  39  64  90 122 165 212 255 315 379
#
# _framework density 19.69923
#
# number of rings (size 3 to 8) (size 9 to 14) (size 15 to 20)
#    0.000    1.333    1.667    8.000    0.000    0.000 
#    9.000    0.833    0.000    0.000    0.000    0.000 
#    0.000    0.000    0.000    0.000    0.000    0.000 
#
# Total GULP energy -267393.706941 kJ/mol
# GULP energy per Si atom -5570.702228 kJ/mol
# Density = 1.965439 g / cm^3
# Si number density = 19.699230 Si / 1000 Ang^3
#
#
#
# Elastic Constant Matrix: (Units=GPa)
#
#
# Indices 1 2 3 4 5 6 
#
# 1 43.2709 17.1901 15.1198 0.0000 0.0000 0.0000
# 2 17.1901 116.6242 14.8951 0.0000 0.0000 0.0000
# 3 15.1198 14.8951 89.1930 0.0000 0.0000 0.0000
# 4 0.0000 0.0000 0.0000 15.5633 0.0000 0.0000
# 5 0.0000 0.0000 0.0000 0.0000 30.2792 0.0000
# 6 0.0000 0.0000 0.0000 0.0000 0.0000 29.0693
#
#
#
# Elastic Compliance Matrix: (Units=1/GPa)
#
#
# Indices 1 2 3 4 5 6 
#
# 1 0.025758 -0.003310 -0.003814 0.000000 0.000000 0.000000
# 2 -0.003310 0.009187 -0.000973 0.000000 0.000000 0.000000
# 3 -0.003814 -0.000973 0.012021 0.000000 0.000000 0.000000
# 4 0.000000 0.000000 0.000000 0.064254 0.000000 0.000000
# 5 0.000000 0.000000 0.000000 0.000000 0.033026 0.000000
# 6 0.000000 0.000000 0.000000 0.000000 0.000000 0.034401
#
#
# Mechanical properties :
#
#
# Convention : Reuss Voigt Hill
#
# Bulk Modulus (GPa) = 32.49687 38.16645 35.33166
# Shear Modulus (GPa) = 24.37893 28.44123 26.41008
#
# Velocity S-wave (km/s) = 3.52171 3.80382 3.66548
# Velocity P-wave (km/s) = 5.75056 6.22164 5.99073
#
# Compressibility (1/GPa) = 0.03077219
#
# Stress axis : x y z
#
# Youngs Moduli (GPa) = 38.82357 108.85354 83.19022
#
# Poissons Ratio (x) = 0.36025 0.31726
# Poissons Ratio (y) = 0.12849 0.08096
# Poissons Ratio (z) = 0.14806 0.10593
#
# Static dielectric constant tensor:
#      x y z
#    x 1.702530 0.000000 0.000000 
#    y 0.000000 1.688600 0.000000 
#    z 0.000000 0.000000 1.740860 
# 
# From -- ./inp_files/10556.got.cif
#   From: 2010.05.17/outbox.cif.g08.bks.cpg/sg52_6_cif.got.tgz:10556.got - 2010.06.03 12:15:38.
