data_PCOD9410259
_publ_section_title
;
Structure prediction by ZEFSAII (Michael W. Deem and Ramdas Pophale) SiO2 
 PCOD9410259
Probable space group: P N N A
;
_chemical_formula_sum "Si O2"
_cell_formula_units_Z 44
_cell_length_a 12.359942
_cell_length_b 25.832689
_cell_length_c 5.525504
_cell_angle_alpha 90.000000
_cell_angle_beta 90.000000
_cell_angle_gamma 90.000000
_cell_volume 1764.241143
_symmetry_space_group_name_H-M "P N N A"
_symmetry_group_IT_number 52
_symmetry_cell_setting 'orthorhombic'
loop_
_space_group_symop_operation_xyz
x,y,z
1/2-x,-y,z
x,1/2-y,1/2-z
1/2-x,1/2+y,1/2-z
-x,-y,-z
1/2+x,y,-z
-x,1/2+y,1/2+z
1/2+x,1/2-y,1/2+z
loop_
_atom_site_type_symbol
_atom_site_label
_atom_site_fract_x
_atom_site_fract_y
_atom_site_fract_z
Si Si1 0.250000 0.500000 0.772888
Si Si2 0.570660 0.571008 0.442804
Si Si3 0.194910 0.250000 0.250000
Si Si4 0.861998 0.575109 0.844516
Si Si5 0.735755 0.854373 0.978035
Si Si6 0.555937 0.250000 0.250000
Si Si7 0.955181 0.640621 0.209656
O O1 0.339312 0.471503 0.611749
O O2 0.184976 0.460724 0.946519
O O3 0.461927 0.552292 0.305561
O O4 0.632497 0.625542 0.369588
O O5 0.523058 0.591549 0.697345
O O6 0.261265 0.198444 0.174910
O O7 0.124832 0.243453 0.499197
O O8 0.761194 0.597174 0.697511
O O9 0.919716 0.627046 0.942619
O O10 0.842275 0.854473 0.145402
O O11 0.492422 0.303959 0.255486
#
# Coordination Sequence:
#
# PCOD9410259 Si02
#       7
#     4   8   4   8   8   4   8
#     4  12  26  48  72  98 144 198 242 318 380 438
#     4  11  26  44  70 104 140 184 248 302 370 441
#     4  10  20  39  78 105 148 200 242 289 388 447
#     4  11  24  47  69 104 137 189 248 301 372 446
#     4  10  22  44  69 104 147 188 236 311 364 448
#     4  10  20  41  74 109 148 200 234 307 376 447
#     4  10  22  43  71 100 145 184 241 299 367 450
#
# _framework density 24.939902
#
# number of rings (size 3 to 8) (size 9 to 14) (size 15 to 20)
#    0.000    1.455    3.636    0.545    2.545    2.182 
#    0.000    0.000    4.000    0.000    0.000    0.000 
#    0.000    0.000    0.000    0.000    0.000    0.000 
#
# Total GULP energy -245323.247975 kJ/mol
# GULP energy per Si atom -5575.528363 kJ/mol
# Density = 2.488314 g / cm^3
# Si number density = 24.939902 Si / 1000 Ang^3
#
#
#
# Elastic Constant Matrix: (Units=GPa)
#
#
# Indices 1 2 3 4 5 6 
#
# 1 144.6225 50.9518 48.7743 0.0000 0.0000 0.0000
# 2 50.9518 146.3571 47.0279 0.0000 0.0000 0.0000
# 3 48.7743 47.0279 86.8531 0.0000 0.0000 0.0000
# 4 0.0000 0.0000 0.0000 42.0110 0.0000 0.0000
# 5 0.0000 0.0000 0.0000 0.0000 17.6445 0.0000
# 6 0.0000 0.0000 0.0000 0.0000 0.0000 23.1159
#
#
#
# Elastic Compliance Matrix: (Units=1/GPa)
#
#
# Indices 1 2 3 4 5 6 
#
# 1 0.008909 -0.001809 -0.004024 0.000000 0.000000 0.000000
# 2 -0.001809 0.008639 -0.003662 0.000000 0.000000 0.000000
# 3 -0.004024 -0.003662 0.015756 0.000000 0.000000 0.000000
# 4 0.000000 0.000000 0.000000 0.023803 0.000000 0.000000
# 5 0.000000 0.000000 0.000000 0.000000 0.056675 0.000000
# 6 0.000000 0.000000 0.000000 0.000000 0.000000 0.043260
#
#
# Mechanical properties :
#
#
# Convention : Reuss Voigt Hill
#
# Bulk Modulus (GPa) = 69.85521 74.59342 72.22432
# Shear Modulus (GPa) = 27.65453 31.95953 29.80703
#
# Velocity S-wave (km/s) = 3.33355 3.58363 3.46085
# Velocity P-wave (km/s) = 6.54881 6.86276 6.70762
#
# Compressibility (1/GPa) = 0.01431532
#
# Stress axis : x y z
#
# Youngs Moduli (GPa) = 112.24994 115.75525 63.46747
#
# Poissons Ratio (x) = 0.20935 0.25537
# Poissons Ratio (y) = 0.20301 0.23242
# Poissons Ratio (z) = 0.45165 0.42390
#
# Static dielectric constant tensor:
#      x y z
#    x 2.068200 0.000000 0.000000 
#    y 0.000000 2.070320 0.000000 
#    z 0.000000 0.000000 1.977430 
# 
# From -- ./inp_files/2423.got.cif
#   From: 2010.05.17/outbox.cif.g08.bks.cpg/sg52_2_cif.got.tgz:2423.got - 2010.06.03 12:15:38.
