data_PCOD9410283
_publ_section_title
;
Structure prediction by ZEFSAII (Michael W. Deem and Ramdas Pophale) SiO2 
 PCOD9410283
Probable space group: P N N A
;
_chemical_formula_sum "Si O2"
_cell_formula_units_Z 32
_cell_length_a 9.732464
_cell_length_b 13.792633
_cell_length_c 11.712064
_cell_angle_alpha 90.000000
_cell_angle_beta 90.000000
_cell_angle_gamma 90.000000
_cell_volume 1572.184185
_symmetry_space_group_name_H-M "P N N A"
_symmetry_group_IT_number 52
_symmetry_cell_setting 'orthorhombic'
loop_
_space_group_symop_operation_xyz
x,y,z
1/2-x,-y,z
x,1/2-y,1/2-z
1/2-x,1/2+y,1/2-z
-x,-y,-z
1/2+x,y,-z
-x,1/2+y,1/2+z
1/2+x,1/2-y,1/2+z
loop_
_atom_site_type_symbol
_atom_site_label
_atom_site_fract_x
_atom_site_fract_y
_atom_site_fract_z
Si Si1 0.842827 0.090086 0.706271
Si Si2 0.668188 0.263640 0.386214
Si Si3 0.102033 0.047645 0.593137
Si Si4 0.363398 0.297987 0.421458
O O1 0.842577 0.187836 0.628453
O O2 0.798383 0.128327 0.830056
O O3 0.000729 0.053833 0.701837
O O4 0.750000 0.000000 0.667297
O O5 0.686915 0.250000 0.250000
O O6 0.639103 0.157238 0.437617
O O7 0.525973 0.316994 0.414370
O O8 0.796779 0.305133 0.454663
O O9 0.250000 0.000000 0.611272
O O10 0.000000 0.000000 0.500000
#
# Coordination Sequence:
#
# PCOD9410283 Si02
#       4
#     8   8   8   8
#     4  10  20  40  62  92 128 163 206 259 311 373
#     4  11  21  42  62  90 128 163 207 262 315 374
#     4  11  20  35  63  94 120 157 210 267 307 365
#     4  10  21  41  64  88 130 165 206 261 313 373
#
# _framework density 20.353850999999999
#
# number of rings (size 3 to 8) (size 9 to 14) (size 15 to 20)
#    0.000    1.500    5.000    5.250    0.000    0.000 
#    9.000    2.500    0.000    0.000    0.000    0.000 
#    0.000    0.000    0.000    0.000    0.000    0.000 
#
# Total GULP energy -178251.999977 kJ/mol
# GULP energy per Si atom -5570.374999 kJ/mol
# Density = 2.030752 g / cm^3
# Si number density = 20.353851 Si / 1000 Ang^3
#
#
#
# Elastic Constant Matrix: (Units=GPa)
#
#
# Indices 1 2 3 4 5 6 
#
# 1 128.2050 20.6586 70.1816 0.0000 0.0000 0.0000
# 2 20.6586 52.1789 2.5454 0.0000 0.0000 0.0000
# 3 70.1816 2.5454 135.0532 0.0000 0.0000 0.0000
# 4 0.0000 0.0000 0.0000 7.8665 0.0000 0.0000
# 5 0.0000 0.0000 0.0000 0.0000 20.1020 0.0000
# 6 0.0000 0.0000 0.0000 0.0000 0.0000 6.9614
#
#
#
# Elastic Compliance Matrix: (Units=1/GPa)
#
#
# Indices 1 2 3 4 5 6 
#
# 1 0.011826 -0.004386 -0.006063 0.000000 0.000000 0.000000
# 2 -0.004386 0.020809 0.001887 0.000000 0.000000 0.000000
# 3 -0.006063 0.001887 0.010519 0.000000 0.000000 0.000000
# 4 0.000000 0.000000 0.000000 0.127121 0.000000 0.000000
# 5 0.000000 0.000000 0.000000 0.000000 0.049746 0.000000
# 6 0.000000 0.000000 0.000000 0.000000 0.000000 0.143650
#
#
# Mechanical properties :
#
#
# Convention : Reuss Voigt Hill
#
# Bulk Modulus (GPa) = 38.41577 55.80093 47.10835
# Shear Modulus (GPa) = 12.83789 21.78940 17.31365
#
# Velocity S-wave (km/s) = 2.51417 3.27544 2.91972
# Velocity P-wave (km/s) = 5.22905 6.46372 5.87889
#
# Compressibility (1/GPa) = 0.02603098
#
# Stress axis : x y z
#
# Youngs Moduli (GPa) = 84.56261 48.05530 95.06242
#
# Poissons Ratio (x) = 0.21078 0.57632
# Poissons Ratio (y) = 0.37091 -0.17940
# Poissons Ratio (z) = 0.51267 -0.09069
#
# Static dielectric constant tensor:
#      x y z
#    x 1.773030 0.000000 0.000000 
#    y 0.000000 1.792570 0.000000 
#    z 0.000000 0.000000 1.767470 
# 
# From -- ./inp_files/16398.got.cif
#   From: 2010.05.17/outbox.cif.g08.bks.cpg/sg52_9_cif.got.tgz:16398.got - 2010.06.03 12:15:38.
