data_PCOD9410682
_publ_section_title
;
Structure prediction by ZEFSAII (Michael W. Deem and Ramdas Pophale) SiO2 
 PCOD9410682
Probable space group: P N N A
;
_chemical_formula_sum "Si O2"
_cell_formula_units_Z 60
_cell_length_a 16.254435
_cell_length_b 7.275443
_cell_length_c 19.934079
_cell_angle_alpha 90.000000
_cell_angle_beta 90.000000
_cell_angle_gamma 90.000000
_cell_volume 2357.368607
_symmetry_space_group_name_H-M "P N N A"
_symmetry_group_IT_number 52
_symmetry_cell_setting 'orthorhombic'
loop_
_space_group_symop_operation_xyz
x,y,z
1/2-x,-y,z
x,1/2-y,1/2-z
1/2-x,1/2+y,1/2-z
-x,-y,-z
1/2+x,y,-z
-x,1/2+y,1/2+z
1/2+x,1/2-y,1/2+z
loop_
_atom_site_type_symbol
_atom_site_label
_atom_site_fract_x
_atom_site_fract_y
_atom_site_fract_z
Si Si1 0.615554 0.384391 0.350742
Si Si2 0.250000 0.500000 0.758138
Si Si3 0.843693 0.538985 0.495940
Si Si4 0.073355 0.977023 0.127061
Si Si5 0.341628 0.530216 0.245809
Si Si6 0.839739 0.526750 0.981733
Si Si7 0.047684 0.410062 0.131352
Si Si8 0.140737 0.551726 0.870643
O O1 0.673556 0.441553 0.288784
O O2 0.640868 0.497816 0.417558
O O3 0.516641 0.412425 0.348673
O O4 0.633280 0.168573 0.360354
O O5 0.202400 0.627007 0.814213
O O6 0.750000 0.500000 0.514601
O O7 0.902131 0.437488 0.549855
O O8 0.852668 0.759152 0.501291
O O9 0.141369 0.931083 0.183428
O O10 0.076449 0.199557 0.127772
O O11 0.250000 0.500000 0.221050
O O12 0.348485 0.750000 0.250000
O O13 0.412994 0.484055 0.193620
O O14 0.750000 0.500000 0.948427
O O15 0.916793 0.485974 0.933833
O O16 0.835146 0.418043 0.051947
O O17 0.951528 0.386808 0.138561
#
# Coordination Sequence:
#
# PCOD9410682 Si02
#       8
#     8   4   8   8   8   8   8   8
#     4  11  24  40  61  89 119 157 207 253 305 368
#     4  12  24  42  62  86 124 158 204 256 310 364
#     4  10  21  39  61  90 122 160 205 250 303 362
#     4  10  22  39  61  88 123 160 200 249 303 364
#     4  10  21  37  57  87 118 153 196 242 299 359
#     4  10  21  39  61  90 122 160 205 250 303 362
#     4  10  22  39  61  88 123 160 200 249 303 364
#     4  11  24  40  61  89 119 157 207 253 305 368
#
# _framework density 25.452109
#
# number of rings (size 3 to 8) (size 9 to 14) (size 15 to 20)
#    0.000    1.600    1.333    2.800    0.000    5.333 
#    0.000    0.000    0.000    0.000    0.000    0.000 
#    0.000    0.000    0.000    0.000    0.000    0.000 
#
# Total GULP energy -335411.636445 kJ/mol
# GULP energy per Si atom -5590.193941 kJ/mol
# Density = 2.539418 g / cm^3
# Si number density = 25.452109 Si / 1000 Ang^3
#
#
#
# Elastic Constant Matrix: (Units=GPa)
#
#
# Indices 1 2 3 4 5 6 
#
# 1 140.0038 -28.7644 63.9982 0.0000 0.0000 0.0000
# 2 -28.7644 66.8515 0.0040 0.0000 0.0000 0.0000
# 3 63.9982 0.0040 147.4550 0.0000 0.0000 0.0000
# 4 0.0000 0.0000 0.0000 7.9631 0.0000 0.0000
# 5 0.0000 0.0000 0.0000 0.0000 40.5018 0.0000
# 6 0.0000 0.0000 0.0000 0.0000 0.0000 37.0226
#
#
#
# Elastic Compliance Matrix: (Units=1/GPa)
#
#
# Indices 1 2 3 4 5 6 
#
# 1 0.010015 0.004309 -0.004347 0.000000 0.000000 0.000000
# 2 0.004309 0.016813 -0.001871 0.000000 0.000000 0.000000
# 3 -0.004347 -0.001871 0.008668 0.000000 0.000000 0.000000
# 4 0.000000 0.000000 0.000000 0.125580 0.000000 0.000000
# 5 0.000000 0.000000 0.000000 0.000000 0.024690 0.000000
# 6 0.000000 0.000000 0.000000 0.000000 0.000000 0.027011
#
#
# Mechanical properties :
#
#
# Convention : Reuss Voigt Hill
#
# Bulk Modulus (GPa) = 31.56575 47.19846 39.38211
# Shear Modulus (GPa) = 22.01156 38.36899 30.19027
#
# Velocity S-wave (km/s) = 2.94398 3.88686 3.44780
# Velocity P-wave (km/s) = 4.89744 6.22317 5.59968
#
# Compressibility (1/GPa) = 0.03167991
#
# Stress axis : x y z
#
# Youngs Moduli (GPa) = 99.84933 59.47820 115.36158
#
# Poissons Ratio (x) = -0.25632 0.50146
# Poissons Ratio (y) = -0.43030 0.21582
# Poissons Ratio (z) = 0.43403 0.11128
#
# Static dielectric constant tensor:
#      x y z
#    x 1.915350 0.000000 0.000000 
#    y 0.000000 2.860840 0.000000 
#    z 0.000000 0.000000 2.079020 
# 
# From -- ./inp_files/33789.got.cif
#   From: 2010.05.17/outbox.cif.g08.bks.cpg/sg52_17_cif.got.tgz:33789.got - 2010.06.03 12:15:38.
