data_PCOD9410292
_publ_section_title
;
Structure prediction by ZEFSAII (Michael W. Deem and Ramdas Pophale) SiO2 
 PCOD9410292
Probable space group: P N N A
;
_chemical_formula_sum "Si O2"
_cell_formula_units_Z 40
_cell_length_a 9.921687
_cell_length_b 12.896160
_cell_length_c 13.787529
_cell_angle_alpha 90.000000
_cell_angle_beta 90.000000
_cell_angle_gamma 90.000000
_cell_volume 1764.137265
_symmetry_space_group_name_H-M "P N N A"
_symmetry_group_IT_number 52
_symmetry_cell_setting 'orthorhombic'
loop_
_space_group_symop_operation_xyz
x,y,z
1/2-x,-y,z
x,1/2-y,1/2-z
1/2-x,1/2+y,1/2-z
-x,-y,-z
1/2+x,y,-z
-x,1/2+y,1/2+z
1/2+x,1/2-y,1/2+z
loop_
_atom_site_type_symbol
_atom_site_label
_atom_site_fract_x
_atom_site_fract_y
_atom_site_fract_z
Si Si1 0.750000 0.500000 0.209030
Si Si2 0.690795 0.653853 0.891493
Si Si3 0.611454 0.376554 0.059062
Si Si4 0.814390 0.840794 0.141004
Si Si5 0.878765 0.376943 0.678655
Si Si6 0.750000 0.000000 0.975088
O O1 0.867020 0.529235 0.133503
O O2 0.723220 0.597912 0.280389
O O3 0.547598 0.643188 0.947172
O O4 0.675220 0.602679 0.785778
O O5 0.698071 0.776466 0.864785
O O6 0.813254 0.613759 0.956604
O O7 0.689452 0.278682 0.109565
O O8 0.964001 0.851215 0.184787
O O9 0.795864 0.907338 0.043968
O O10 0.865394 0.466051 0.599419
#
# Coordination Sequence:
#
# PCOD9410292 Si02
#       6
#     4   8   8   8   8   4
#     4  11  22  37  66  92 122 169 220 251 322 382
#     4  10  22  41  67  88 134 171 209 263 335 378
#     4  11  22  43  65  94 128 175 213 271 319 396
#     4  10  21  40  63  93 125 167 216 269 317 383
#     4  10  20  40  63  91 127 170 207 268 329 378
#     4  11  20  35  68  94 120 161 224 261 314 380
#
# _framework density 22.673971999999999
#
# number of rings (size 3 to 8) (size 9 to 14) (size 15 to 20)
#    0.000    1.600    4.000    1.200    0.000    1.600 
#    3.600    0.000    4.400    0.000    0.000    0.000 
#    0.000    0.000    0.000    0.000    0.000    0.000 
#
# Total GULP energy -223285.215605 kJ/mol
# GULP energy per Si atom -5582.130390 kJ/mol
# Density = 2.262237 g / cm^3
# Si number density = 22.673972 Si / 1000 Ang^3
#
#
#
# Elastic Constant Matrix: (Units=GPa)
#
#
# Indices 1 2 3 4 5 6 
#
# 1 53.6502 14.3806 55.7420 0.0000 0.0000 0.0000
# 2 14.3806 63.2244 42.2510 0.0000 0.0000 0.0000
# 3 55.7420 42.2510 197.8339 0.0000 0.0000 0.0000
# 4 0.0000 0.0000 0.0000 41.1198 0.0000 0.0000
# 5 0.0000 0.0000 0.0000 0.0000 31.2132 0.0000
# 6 0.0000 0.0000 0.0000 0.0000 0.0000 23.3228
#
#
#
# Elastic Compliance Matrix: (Units=1/GPa)
#
#
# Indices 1 2 3 4 5 6 
#
# 1 0.026433 -0.001207 -0.007190 0.000000 0.000000 0.000000
# 2 -0.001207 0.018505 -0.003612 0.000000 0.000000 0.000000
# 3 -0.007190 -0.003612 0.007852 0.000000 0.000000 0.000000
# 4 0.000000 0.000000 0.000000 0.024319 0.000000 0.000000
# 5 0.000000 0.000000 0.000000 0.000000 0.032038 0.000000
# 6 0.000000 0.000000 0.000000 0.000000 0.000000 0.042876
#
#
# Mechanical properties :
#
#
# Convention : Reuss Voigt Hill
#
# Bulk Modulus (GPa) = 34.75650 59.93952 47.34801
# Shear Modulus (GPa) = 26.93489 32.62016 29.77753
#
# Velocity S-wave (km/s) = 3.45036 3.79708 3.62787
# Velocity P-wave (km/s) = 5.58887 6.76140 6.20290
#
# Compressibility (1/GPa) = 0.02877160
#
# Stress axis : x y z
#
# Youngs Moduli (GPa) = 37.83111 54.03934 127.35624
#
# Poissons Ratio (x) = 0.06525 0.91569
# Poissons Ratio (y) = 0.04568 0.45999
# Poissons Ratio (z) = 0.27201 0.19518
#
# Static dielectric constant tensor:
#      x y z
#    x 1.831960 0.000000 0.000000 
#    y 0.000000 1.950240 0.000000 
#    z 0.000000 0.000000 1.856840 
# 
# From -- ./inp_files/18061.got.cif
#   From: 2010.05.17/outbox.cif.g08.bks.cpg/sg52_10_cif.got.tgz:18061.got - 2010.06.03 12:15:38.
