data_PCOD9410601
_publ_section_title
;
Structure prediction by ZEFSAII (Michael W. Deem and Ramdas Pophale) SiO2 
 PCOD9410601
Probable space group: P N N A
;
_chemical_formula_sum "Si O2"
_cell_formula_units_Z 32
_cell_length_a 33.753815
_cell_length_b 7.193665
_cell_length_c 5.180557
_cell_angle_alpha 90.000000
_cell_angle_beta 90.000000
_cell_angle_gamma 90.000000
_cell_volume 1257.909890
_symmetry_space_group_name_H-M "P N N A"
_symmetry_group_IT_number 52
_symmetry_cell_setting 'orthorhombic'
loop_
_space_group_symop_operation_xyz
x,y,z
1/2-x,-y,z
x,1/2-y,1/2-z
1/2-x,1/2+y,1/2-z
-x,-y,-z
1/2+x,y,-z
-x,1/2+y,1/2+z
1/2+x,1/2-y,1/2+z
loop_
_atom_site_type_symbol
_atom_site_label
_atom_site_fract_x
_atom_site_fract_y
_atom_site_fract_z
Si Si1 0.538148 0.469133 0.683963
Si Si2 0.336771 0.026276 0.718710
Si Si3 0.574150 0.034658 0.304235
Si Si4 0.795448 0.470459 0.721512
O O1 0.541000 0.250000 0.750000
O O2 0.500000 0.500000 0.500000
O O3 0.571307 0.544552 0.485865
O O4 0.545576 0.548007 0.972744
O O5 0.336203 0.250000 0.750000
O O6 0.305386 0.959192 0.506742
O O7 0.380286 0.973615 0.618974
O O8 0.324751 0.955764 0.001254
O O9 0.563111 0.250000 0.250000
O O10 0.750000 0.500000 0.647276
O O11 0.801518 0.250000 0.750000
#
# Coordination Sequence:
#
# PCOD9410601 Si02
#       4
#     8   8   8   8
#     4  10  21  38  58  84 115 147 188 236 284 339
#     4  10  21  37  55  81 113 145 185 232 280 334
#     4  10  21  37  58  83 112 147 188 233 281 338
#     4  10  21  36  55  80 111 145 185 231 278 333
#
# _framework density 25.439025000000001
#
# number of rings (size 3 to 8) (size 9 to 14) (size 15 to 20)
#    0.000    2.000    0.000    3.000    0.000    3.000 
#    0.000    2.500    0.000    0.000    0.000    0.000 
#    0.000    0.000    0.000    0.000    0.000    0.000 
#
# Total GULP energy -178597.159117 kJ/mol
# GULP energy per Si atom -5581.161222 kJ/mol
# Density = 2.538112 g / cm^3
# Si number density = 25.439025 Si / 1000 Ang^3
#
#
#
# Elastic Constant Matrix: (Units=GPa)
#
#
# Indices 1 2 3 4 5 6 
#
# 1 104.8079 -31.7183 47.1036 0.0000 0.0000 0.0000
# 2 -31.7183 85.3252 12.8116 0.0000 0.0000 0.0000
# 3 47.1036 12.8116 214.8837 0.0000 0.0000 0.0000
# 4 0.0000 0.0000 0.0000 -8.8817 0.0000 0.0000
# 5 0.0000 0.0000 0.0000 0.0000 45.0577 0.0000
# 6 0.0000 0.0000 0.0000 0.0000 0.0000 25.9819
#
#
#
# Elastic Compliance Matrix: (Units=1/GPa)
#
#
# Indices 1 2 3 4 5 6 
#
# 1 0.012440 0.005079 -0.003030 0.000000 0.000000 0.000000
# 2 0.005079 0.013900 -0.001942 0.000000 0.000000 0.000000
# 3 -0.003030 -0.001942 0.005434 0.000000 0.000000 0.000000
# 4 0.000000 0.000000 0.000000 -0.112591 0.000000 0.000000
# 5 0.000000 0.000000 0.000000 0.000000 0.022194 0.000000
# 6 0.000000 0.000000 0.000000 0.000000 0.000000 0.038488
#
#
# Mechanical properties :
#
#
# Convention : Reuss Voigt Hill
#
# Bulk Modulus (GPa) = 31.26152 51.26784 41.26468
# Shear Modulus (GPa) = -516.09224 37.55291 -239.26966
#
# Velocity S-wave (km/s) = -14.25884 3.84629 -9.70878
# Velocity P-wave (km/s) = 16.08635 6.31841 10.46060
#
# Compressibility (1/GPa) = 0.03198821
#
# Stress axis : x y z
#
# Youngs Moduli (GPa) = 80.38524 71.94434 184.03964
#
# Poissons Ratio (x) = -0.36543 0.55760
# Poissons Ratio (y) = -0.40830 0.35743
# Poissons Ratio (z) = 0.24355 0.13972
#
# Static dielectric constant tensor:
#      x y z
#    x 1.997090 0.000000 0.000000 
#    y 0.000000 2.087100 0.000000 
#    z 0.000000 0.000000 2.046740 
# 
# From -- ./inp_files/6116.got.cif
#   From: 2010.05.17/outbox.cif.g08.bks.cpg/sg52_4_cif.got.tgz:6116.got - 2010.06.03 12:15:38.
