data_PCOD9410932
_publ_section_title
;
Structure prediction by ZEFSAII (Michael W. Deem and Ramdas Pophale) SiO2 
 PCOD9410932
Probable space group: P N N A
;
_chemical_formula_sum "Si O2"
_cell_formula_units_Z 40
_cell_length_a 8.586186
_cell_length_b 8.534588
_cell_length_c 24.092846
_cell_angle_alpha 90.000000
_cell_angle_beta 90.000000
_cell_angle_gamma 90.000000
_cell_volume 1765.513154
_symmetry_space_group_name_H-M "P N N A"
_symmetry_group_IT_number 52
_symmetry_cell_setting 'orthorhombic'
loop_
_space_group_symop_operation_xyz
x,y,z
1/2-x,-y,z
x,1/2-y,1/2-z
1/2-x,1/2+y,1/2-z
-x,-y,-z
1/2+x,y,-z
-x,1/2+y,1/2+z
1/2+x,1/2-y,1/2+z
loop_
_atom_site_type_symbol
_atom_site_label
_atom_site_fract_x
_atom_site_fract_y
_atom_site_fract_z
Si Si1 0.434443 0.212972 0.979913
Si Si2 0.250000 0.000000 0.179856
Si Si3 0.050589 0.207407 0.637169
Si Si4 0.748515 0.799045 0.919376
Si Si5 0.550585 0.750000 0.750000
Si Si6 0.750000 0.500000 0.394031
Si Si7 0.750000 0.000000 0.446626
O O1 0.611893 0.237103 0.961544
O O2 0.349884 0.113453 0.933092
O O3 0.357913 0.384821 0.981787
O O4 0.384750 0.131041 0.037982
O O5 0.170256 0.109338 0.132261
O O6 0.348508 0.117023 0.218153
O O7 0.130917 0.380841 0.636405
O O8 0.145821 0.103278 0.594612
O O9 0.871872 0.192620 0.615330
O O10 0.047256 0.165321 0.701826
#
# Coordination Sequence:
#
# PCOD9410932 Si02
#       7
#     8   4   8   8   4   4   4
#     4  11  22  38  63  92 131 172 208 260 320 381
#     4  10  23  42  65  96 127 166 217 268 322 384
#     4  10  23  41  62  91 127 168 219 270 321 384
#     4  11  23  39  64  95 129 170 216 260 318 391
#     4  10  22  42  66  92 126 166 216 272 324 374
#     4  10  21  39  60  88 126 163 205 254 316 388
#     4  10  24  41  61  98 133 169 218 270 328 384
#
# _framework density 22.656303999999999
#
# number of rings (size 3 to 8) (size 9 to 14) (size 15 to 20)
#    0.000    1.600    0.000    5.400    0.000   10.400 
#    0.000    1.000    0.000    1.200    0.000    0.000 
#    0.000    0.000    0.000    0.000    0.000    0.000 
#
# Total GULP energy -222683.053836 kJ/mol
# GULP energy per Si atom -5567.076346 kJ/mol
# Density = 2.260474 g / cm^3
# Si number density = 22.656304 Si / 1000 Ang^3
#
#
#
# Elastic Constant Matrix: (Units=GPa)
#
#
# Indices 1 2 3 4 5 6 
#
# 1 117.1124 38.4774 35.9196 0.0000 0.0000 0.0000
# 2 38.4774 86.2327 17.3463 0.0000 0.0000 0.0000
# 3 35.9196 17.3463 140.7916 0.0000 0.0000 0.0000
# 4 0.0000 0.0000 0.0000 23.1275 0.0000 0.0000
# 5 0.0000 0.0000 0.0000 0.0000 35.4820 0.0000
# 6 0.0000 0.0000 0.0000 0.0000 0.0000 28.0453
#
#
#
# Elastic Compliance Matrix: (Units=1/GPa)
#
#
# Indices 1 2 3 4 5 6 
#
# 1 0.010620 -0.004300 -0.002180 0.000000 0.000000 0.000000
# 2 -0.004300 0.013633 -0.000582 0.000000 0.000000 0.000000
# 3 -0.002180 -0.000582 0.007731 0.000000 0.000000 0.000000
# 4 0.000000 0.000000 0.000000 0.043239 0.000000 0.000000
# 5 0.000000 0.000000 0.000000 0.000000 0.028183 0.000000
# 6 0.000000 0.000000 0.000000 0.000000 0.000000 0.035657
#
#
# Mechanical properties :
#
#
# Convention : Reuss Voigt Hill
#
# Bulk Modulus (GPa) = 55.99626 58.62482 57.31054
# Shear Modulus (GPa) = 31.41897 34.15719 32.78808
#
# Velocity S-wave (km/s) = 3.72797 3.88703 3.80833
# Velocity P-wave (km/s) = 6.58024 6.78802 6.68494
#
# Compressibility (1/GPa) = 0.01785834
#
# Stress axis : x y z
#
# Youngs Moduli (GPa) = 94.16011 73.35398 129.35689
#
# Poissons Ratio (x) = 0.31545 0.28195
# Poissons Ratio (y) = 0.40492 0.07535
# Poissons Ratio (z) = 0.20524 0.04273
#
# Static dielectric constant tensor:
#      x y z
#    x 1.884290 0.000000 0.000000 
#    y 0.000000 2.031010 0.000000 
#    z 0.000000 0.000000 1.826320 
# 
# From -- ./inp_files/39299.got.cif
#   From: 2010.05.17/outbox.cif.g08.bks.cpg/sg52_20_cif.got.tgz:39299.got - 2010.06.03 12:15:38.
