data_PCOD9410491
_publ_section_title
;
Structure prediction by ZEFSAII (Michael W. Deem and Ramdas Pophale) SiO2 
 PCOD9410491
Probable space group: P N N A
;
_chemical_formula_sum "Si O2"
_cell_formula_units_Z 32
_cell_length_a 11.203986
_cell_length_b 7.523971
_cell_length_c 16.566329
_cell_angle_alpha 90.000000
_cell_angle_beta 90.000000
_cell_angle_gamma 90.000000
_cell_volume 1396.516118
_symmetry_space_group_name_H-M "P N N A"
_symmetry_group_IT_number 52
_symmetry_cell_setting 'orthorhombic'
loop_
_space_group_symop_operation_xyz
x,y,z
1/2-x,-y,z
x,1/2-y,1/2-z
1/2-x,1/2+y,1/2-z
-x,-y,-z
1/2+x,y,-z
-x,1/2+y,1/2+z
1/2+x,1/2-y,1/2+z
loop_
_atom_site_type_symbol
_atom_site_label
_atom_site_fract_x
_atom_site_fract_y
_atom_site_fract_z
Si Si1 0.328671 0.750000 0.750000
Si Si2 0.822111 0.189469 0.101437
Si Si3 0.518572 0.002320 0.816133
Si Si4 0.816500 0.308058 0.580136
Si Si5 0.750000 0.000000 0.701979
O O1 0.249676 0.715427 0.828414
O O2 0.413694 0.582719 0.735703
O O3 0.956690 0.161518 0.134989
O O4 0.750000 0.000000 0.095670
O O5 0.820860 0.262239 0.010872
O O6 0.633435 0.022331 0.758820
O O7 0.554419 0.858656 0.884492
O O8 0.750000 0.500000 0.580149
O O9 0.762546 0.169979 0.643757
#
# Coordination Sequence:
#
# PCOD9410491 Si02
#       5
#     4   8   8   8   4
#     4  10  20  44  66  98 136 182 240 284 340 420
#     4   9  22  41  69  94 133 190 226 281 350 407
#     4  11  21  42  70  99 141 181 232 285 344 416
#     4  11  23  43  70 101 141 179 230 282 350 409
#     4  12  24  42  70 110 138 180 228 290 344 412
#
# _framework density 22.914166000000002
#
# number of rings (size 3 to 8) (size 9 to 14) (size 15 to 20)
#    0.000    1.500    3.750    0.750    0.000    2.000 
#    6.750    1.250    0.000    0.000    0.000    0.000 
#    0.000    0.000    0.000    0.000    0.000    0.000 
#
# Total GULP energy -178821.461701 kJ/mol
# GULP energy per Si atom -5588.170678 kJ/mol
# Density = 2.286201 g / cm^3
# Si number density = 22.914166 Si / 1000 Ang^3
#
#
#
# Elastic Constant Matrix: (Units=GPa)
#
#
# Indices 1 2 3 4 5 6 
#
# 1 128.5110 24.7089 105.4023 0.0000 0.0000 0.0000
# 2 24.7089 53.7465 36.6836 0.0000 0.0000 0.0000
# 3 105.4023 36.6836 236.0475 0.0000 0.0000 0.0000
# 4 0.0000 0.0000 0.0000 28.4774 0.0000 0.0000
# 5 0.0000 0.0000 0.0000 0.0000 10.5571 0.0000
# 6 0.0000 0.0000 0.0000 0.0000 0.0000 27.8464
#
#
#
# Elastic Compliance Matrix: (Units=1/GPa)
#
#
# Indices 1 2 3 4 5 6 
#
# 1 0.012500 -0.002167 -0.005245 0.000000 0.000000 0.000000
# 2 -0.002167 0.021189 -0.002325 0.000000 0.000000 0.000000
# 3 -0.005245 -0.002325 0.006940 0.000000 0.000000 0.000000
# 4 0.000000 0.000000 0.000000 0.035116 0.000000 0.000000
# 5 0.000000 0.000000 0.000000 0.000000 0.094723 0.000000
# 6 0.000000 0.000000 0.000000 0.000000 0.000000 0.035911
#
#
# Mechanical properties :
#
#
# Convention : Reuss Voigt Hill
#
# Bulk Modulus (GPa) = 47.27082 83.54383 65.40732
# Shear Modulus (GPa) = 21.46809 30.14355 25.80582
#
# Velocity S-wave (km/s) = 3.06419 3.63091 3.35952
# Velocity P-wave (km/s) = 5.76136 7.35640 6.60719
#
# Compressibility (1/GPa) = 0.02115470
#
# Stress axis : x y z
#
# Youngs Moduli (GPa) = 80.00200 47.19395 144.09718
#
# Poissons Ratio (x) = 0.10226 0.75575
# Poissons Ratio (y) = 0.17335 0.33509
# Poissons Ratio (z) = 0.41959 0.10975
#
# Static dielectric constant tensor:
#      x y z
#    x 1.898320 0.000000 0.000000 
#    y 0.000000 1.923700 0.000000 
#    z 0.000000 0.000000 1.859340 
# 
# From -- ./inp_files/25525.got.cif
#   From: 2010.05.17/outbox.cif.g08.bks.cpg/sg52_13_cif.got.tgz:25525.got - 2010.06.03 12:15:38.
