data_PCOD9410872
_publ_section_title
;
Structure prediction by ZEFSAII (Michael W. Deem and Ramdas Pophale) SiO2 
 PCOD9410872
Probable space group: P N N A
;
_chemical_formula_sum "Si O2"
_cell_formula_units_Z 60
_cell_length_a 17.851439
_cell_length_b 18.337182
_cell_length_c 8.986062
_cell_angle_alpha 90.000000
_cell_angle_beta 90.000000
_cell_angle_gamma 90.000000
_cell_volume 2941.543237
_symmetry_space_group_name_H-M "P N N A"
_symmetry_group_IT_number 52
_symmetry_cell_setting 'orthorhombic'
loop_
_space_group_symop_operation_xyz
x,y,z
1/2-x,-y,z
x,1/2-y,1/2-z
1/2-x,1/2+y,1/2-z
-x,-y,-z
1/2+x,y,-z
-x,1/2+y,1/2+z
1/2+x,1/2-y,1/2+z
loop_
_atom_site_type_symbol
_atom_site_label
_atom_site_fract_x
_atom_site_fract_y
_atom_site_fract_z
Si Si1 0.721697 0.846865 0.198571
Si Si2 0.500804 0.074350 0.831140
Si Si3 0.942374 0.725902 0.586174
Si Si4 0.577027 0.666153 0.100099
Si Si5 0.169161 0.830481 0.306483
Si Si6 0.750000 0.500000 0.450989
Si Si7 0.290658 0.718156 0.976215
Si Si8 0.888143 0.457621 0.595431
O O1 0.641906 0.828352 0.274191
O O2 0.741318 0.789975 0.067152
O O3 0.779349 0.832983 0.333425
O O4 0.730572 0.928702 0.143318
O O5 0.546963 0.139419 0.911470
O O6 0.476077 0.105169 0.672027
O O7 0.548922 0.001493 0.814917
O O8 0.431053 0.062359 0.942416
O O9 0.917300 0.750000 0.750000
O O10 0.876114 0.756504 0.485980
O O11 0.023630 0.764274 0.570052
O O12 0.618750 0.648213 0.948393
O O13 0.147640 0.750000 0.250000
O O14 0.252644 0.819368 0.378635
O O15 0.150308 0.889985 0.180413
O O16 0.821785 0.512660 0.553623
#
# Coordination Sequence:
#
# PCOD9410872 Si02
#       8
#     8   8   8   8   8   4   8   8
#     4  10  22  40  68  93 129 175 225 262 325 398
#     4  10  22  42  63  91 132 171 218 259 336 397
#     4  10  21  38  65  94 128 169 210 276 330 382
#     4  10  22  41  67  91 129 175 218 265 330 395
#     4  11  23  39  64  96 127 170 219 273 328 393
#     4  12  22  42  70  94 126 182 218 270 322 402
#     4  10  22  40  63  98 130 165 220 284 320 385
#     4  11  24  40  64  95 129 172 215 276 324 396
#
# _framework density 20.397455999999998
#
# number of rings (size 3 to 8) (size 9 to 14) (size 15 to 20)
#    0.000    1.600    1.333    2.800   11.200    2.667 
#   12.000    8.000    0.000    0.000    0.000    0.000 
#    0.000    0.000    0.000    0.000    0.000    0.000 
#
# Total GULP energy -334629.518017 kJ/mol
# GULP energy per Si atom -5577.158634 kJ/mol
# Density = 2.035103 g / cm^3
# Si number density = 20.397456 Si / 1000 Ang^3
#
#
#
# Elastic Constant Matrix: (Units=GPa)
#
#
# Indices 1 2 3 4 5 6 
#
# 1 113.2574 32.2252 30.3311 0.0000 0.0000 0.0000
# 2 32.2252 80.5962 12.6362 0.0000 0.0000 0.0000
# 3 30.3311 12.6362 36.2403 0.0000 0.0000 0.0000
# 4 0.0000 0.0000 0.0000 28.3104 0.0000 0.0000
# 5 0.0000 0.0000 0.0000 0.0000 17.1330 0.0000
# 6 0.0000 0.0000 0.0000 0.0000 0.0000 24.9001
#
#
#
# Elastic Compliance Matrix: (Units=1/GPa)
#
#
# Indices 1 2 3 4 5 6 
#
# 1 0.012237 -0.003477 -0.009029 0.000000 0.000000 0.000000
# 2 -0.003477 0.014113 -0.002011 0.000000 0.000000 0.000000
# 3 -0.009029 -0.002011 0.035852 0.000000 0.000000 0.000000
# 4 0.000000 0.000000 0.000000 0.035323 0.000000 0.000000
# 5 0.000000 0.000000 0.000000 0.000000 0.058367 0.000000
# 6 0.000000 0.000000 0.000000 0.000000 0.000000 0.040160
#
#
# Mechanical properties :
#
#
# Convention : Reuss Voigt Hill
#
# Bulk Modulus (GPa) = 30.15006 42.27543 36.21275
# Shear Modulus (GPa) = 21.17374 24.39546 22.78460
#
# Velocity S-wave (km/s) = 3.22539 3.46208 3.34583
# Velocity P-wave (km/s) = 5.35576 6.06236 5.71998
#
# Compressibility (1/GPa) = 0.03316743
#
# Stress axis : x y z
#
# Youngs Moduli (GPa) = 81.72030 70.85634 27.89277
#
# Poissons Ratio (x) = 0.24638 0.25185
# Poissons Ratio (y) = 0.28415 0.05609
# Poissons Ratio (z) = 0.73787 0.14248
#
# Static dielectric constant tensor:
#      x y z
#    x 1.776450 0.000000 0.000000 
#    y 0.000000 1.728060 0.000000 
#    z 0.000000 0.000000 1.731910 
# 
# From -- ./inp_files/12421.got.cif
#   From: 2010.05.17/outbox.cif.g08.bks.cpg/sg52_7_cif.got.tgz:12421.got - 2010.06.03 12:15:38.
