data_PCOD9410406
_publ_section_title
;
Structure prediction by ZEFSAII (Michael W. Deem and Ramdas Pophale) SiO2 
 PCOD9410406
Probable space group: P N N A
;
_chemical_formula_sum "Si O2"
_cell_formula_units_Z 36
_cell_length_a 16.650327
_cell_length_b 8.831335
_cell_length_c 9.447630
_cell_angle_alpha 90.000000
_cell_angle_beta 90.000000
_cell_angle_gamma 90.000000
_cell_volume 1389.223122
_symmetry_space_group_name_H-M "P N N A"
_symmetry_group_IT_number 52
_symmetry_cell_setting 'orthorhombic'
loop_
_space_group_symop_operation_xyz
x,y,z
1/2-x,-y,z
x,1/2-y,1/2-z
1/2-x,1/2+y,1/2-z
-x,-y,-z
1/2+x,y,-z
-x,1/2+y,1/2+z
1/2+x,1/2-y,1/2+z
loop_
_atom_site_type_symbol
_atom_site_label
_atom_site_fract_x
_atom_site_fract_y
_atom_site_fract_z
Si Si1 0.489307 0.250000 0.750000
Si Si2 0.128256 0.040289 0.371266
Si Si3 0.939693 0.532924 0.375760
Si Si4 0.250000 0.000000 0.120177
Si Si5 0.933648 0.250000 0.750000
Si Si6 0.213991 0.241595 0.915098
O O1 0.550504 0.152330 0.648535
O O2 0.428006 0.370223 0.687326
O O3 0.179599 0.054457 0.225572
O O4 0.179342 0.108258 0.503860
O O5 0.114103 0.856118 0.364720
O O6 0.863448 0.630798 0.407419
O O7 0.000000 0.500000 0.500000
O O8 0.001306 0.622756 0.281254
O O9 0.269603 0.142892 0.020394
O O10 0.239339 0.250000 0.750000
#
# Coordination Sequence:
#
# PCOD9410406 Si02
#       6
#     4   8   8   4   4   8
#     4  10  20  41  76 105 144 198 244 308 368 472
#     4  11  23  46  75 106 144 203 259 305 357 475
#     4  11  21  42  70 109 153 189 236 311 393 451
#     4  12  26  50  72  98 148 212 260 290 370 474
#     4  10  24  39  76 111 138 198 254 288 384 460
#     4  12  26  47  72 110 157 190 252 342 387 439
#
# _framework density 25.913765999999999
#
# number of rings (size 3 to 8) (size 9 to 14) (size 15 to 20)
#    0.000    0.889    5.556    1.333    3.111    3.556 
#    2.000    0.000    0.000    0.000    0.000    0.000 
#    0.000    0.000    0.000    0.000    0.000    0.000 
#
# Total GULP energy -200503.457273 kJ/mol
# GULP energy per Si atom -5569.540480 kJ/mol
# Density = 2.585478 g / cm^3
# Si number density = 25.913766 Si / 1000 Ang^3
#
#
#
# Elastic Constant Matrix: (Units=GPa)
#
#
# Indices 1 2 3 4 5 6 
#
# 1 74.8185 52.0777 32.5986 0.0000 0.0000 0.0000
# 2 52.0777 187.4411 44.7327 0.0000 0.0000 0.0000
# 3 32.5986 44.7327 102.5898 0.0000 0.0000 0.0000
# 4 0.0000 0.0000 0.0000 37.0492 0.0000 0.0000
# 5 0.0000 0.0000 0.0000 0.0000 19.7164 0.0000
# 6 0.0000 0.0000 0.0000 0.0000 0.0000 24.0478
#
#
#
# Elastic Compliance Matrix: (Units=1/GPa)
#
#
# Indices 1 2 3 4 5 6 
#
# 1 0.017882 -0.004032 -0.003924 0.000000 0.000000 0.000000
# 2 -0.004032 0.006864 -0.001712 0.000000 0.000000 0.000000
# 3 -0.003924 -0.001712 0.011741 0.000000 0.000000 0.000000
# 4 0.000000 0.000000 0.000000 0.026991 0.000000 0.000000
# 5 0.000000 0.000000 0.000000 0.000000 0.050719 0.000000
# 6 0.000000 0.000000 0.000000 0.000000 0.000000 0.041584
#
#
# Mechanical properties :
#
#
# Convention : Reuss Voigt Hill
#
# Bulk Modulus (GPa) = 58.30477 69.29636 63.80057
# Shear Modulus (GPa) = 27.64995 31.85873 29.75434
#
# Velocity S-wave (km/s) = 3.27004 3.51010 3.39220
# Velocity P-wave (km/s) = 6.06679 6.57472 6.32585
#
# Compressibility (1/GPa) = 0.01715125
#
# Stress axis : x y z
#
# Youngs Moduli (GPa) = 55.92317 145.69525 85.17300
#
# Poissons Ratio (x) = 0.58740 0.33422
# Poissons Ratio (y) = 0.22546 0.14579
# Poissons Ratio (z) = 0.21945 0.24939
#
# Static dielectric constant tensor:
#      x y z
#    x 2.202810 0.000000 0.000000 
#    y 0.000000 2.087630 0.000000 
#    z 0.000000 0.000000 2.154750 
# 
# From -- ./inp_files/12996.got.cif
#   From: 2010.05.17/outbox.cif.g08.bks.cpg/sg52_7_cif.got.tgz:12996.got - 2010.06.03 12:15:38.
