data_PCOD9410782
_publ_section_title
;
Structure prediction by ZEFSAII (Michael W. Deem and Ramdas Pophale) SiO2 
 PCOD9410782
Probable space group: P N N A
;
_chemical_formula_sum "Si O2"
_cell_formula_units_Z 48
_cell_length_a 9.724405
_cell_length_b 8.552575
_cell_length_c 29.713600
_cell_angle_alpha 90.000000
_cell_angle_beta 90.000000
_cell_angle_gamma 90.000000
_cell_volume 2471.241576
_symmetry_space_group_name_H-M "P N N A"
_symmetry_group_IT_number 52
_symmetry_cell_setting 'orthorhombic'
loop_
_space_group_symop_operation_xyz
x,y,z
1/2-x,-y,z
x,1/2-y,1/2-z
1/2-x,1/2+y,1/2-z
-x,-y,-z
1/2+x,y,-z
-x,1/2+y,1/2+z
1/2+x,1/2-y,1/2+z
loop_
_atom_site_type_symbol
_atom_site_label
_atom_site_fract_x
_atom_site_fract_y
_atom_site_fract_z
Si Si1 0.221142 0.315931 0.559370
Si Si2 0.794190 0.667086 0.881628
Si Si3 0.371252 0.893622 0.485642
Si Si4 0.796397 0.681469 0.200059
Si Si5 0.000586 0.811111 0.132246
Si Si6 0.070518 0.679923 0.634189
O O1 0.250000 0.500000 0.558527
O O2 0.163315 0.266673 0.511041
O O3 0.096218 0.259167 0.590981
O O4 0.359991 0.264924 0.586385
O O5 0.750000 0.500000 0.862699
O O6 0.844520 0.635199 0.932999
O O7 0.659399 0.776160 0.878355
O O8 0.927258 0.735040 0.857676
O O9 0.250000 0.000000 0.504464
O O10 0.500000 0.000000 0.500000
O O11 0.750000 0.500000 0.199487
O O12 0.800938 0.750000 0.250000
O O13 0.940943 0.717008 0.174960
O O14 0.683714 0.777254 0.171108
O O15 0.964286 0.995401 0.135553
#
# Coordination Sequence:
#
# PCOD9410782 Si02
#       6
#     8   8   8   8   8   8
#     4   9  19  35  55  78 108 149 197 241 284 336
#     4  11  22  36  54  82 117 155 194 238 292 343
#     4  11  22  35  52  78 113 154 199 245 288 339
#     4  11  22  40  66  92 116 147 186 232 283 348
#     4  10  21  38  58  85 116 150 191 238 291 346
#     4  10  21  38  59  83 114 151 191 238 288 346
#
# _framework density 19.423434
#
# number of rings (size 3 to 8) (size 9 to 14) (size 15 to 20)
#    0.000    1.667    0.000    7.000    0.000    5.333 
#    0.000    5.000    0.000    0.000    0.000    0.000 
#    0.000    0.000    0.000    0.000    0.000    0.000 
#
# Total GULP energy -267343.850961 kJ/mol
# GULP energy per Si atom -5569.663562 kJ/mol
# Density = 1.937923 g / cm^3
# Si number density = 19.423434 Si / 1000 Ang^3
#
#
#
# Elastic Constant Matrix: (Units=GPa)
#
#
# Indices 1 2 3 4 5 6 
#
# 1 153.0773 22.5262 21.3817 0.0000 0.0000 0.0000
# 2 22.5262 47.8896 16.9582 0.0000 0.0000 0.0000
# 3 21.3817 16.9582 45.7066 0.0000 0.0000 0.0000
# 4 0.0000 0.0000 0.0000 38.6762 0.0000 0.0000
# 5 0.0000 0.0000 0.0000 0.0000 17.6084 0.0000
# 6 0.0000 0.0000 0.0000 0.0000 0.0000 39.8730
#
#
#
# Elastic Compliance Matrix: (Units=1/GPa)
#
#
# Indices 1 2 3 4 5 6 
#
# 1 0.007249 -0.002543 -0.002447 0.000000 0.000000 0.000000
# 2 -0.002543 0.024932 -0.008061 0.000000 0.000000 0.000000
# 3 -0.002447 -0.008061 0.026014 0.000000 0.000000 0.000000
# 4 0.000000 0.000000 0.000000 0.025856 0.000000 0.000000
# 5 0.000000 0.000000 0.000000 0.000000 0.056791 0.000000
# 6 0.000000 0.000000 0.000000 0.000000 0.000000 0.025080
#
#
# Mechanical properties :
#
#
# Convention : Reuss Voigt Hill
#
# Bulk Modulus (GPa) = 31.15981 40.93399 36.04690
# Shear Modulus (GPa) = 24.66442 31.61868 28.14155
#
# Velocity S-wave (km/s) = 3.56733 4.03905 3.81050
# Velocity P-wave (km/s) = 5.74848 6.54769 6.16106
#
# Compressibility (1/GPa) = 0.03209262
#
# Stress axis : x y z
#
# Youngs Moduli (GPa) = 137.95544 40.10929 38.44035
#
# Poissons Ratio (x) = 0.10200 0.09408
# Poissons Ratio (y) = 0.35081 0.30986
# Poissons Ratio (z) = 0.33764 0.32331
#
# Static dielectric constant tensor:
#      x y z
#    x 1.707600 0.000000 0.000000 
#    y 0.000000 1.697260 0.000000 
#    z 0.000000 0.000000 1.690650 
# 
# From -- ./inp_files/44400.got.cif
#   From: 2010.05.17/outbox.cif.g08.bks.cpg/sg52_23_cif.got.tgz:44400.got - 2010.06.03 12:15:38.
