data_PCOD9410777
_publ_section_title
;
Structure prediction by ZEFSAII (Michael W. Deem and Ramdas Pophale) SiO2 
 PCOD9410777
Probable space group: P N N A
;
_chemical_formula_sum "Si O2"
_cell_formula_units_Z 56
_cell_length_a 23.679733
_cell_length_b 22.374863
_cell_length_c 5.223768
_cell_angle_alpha 90.000000
_cell_angle_beta 90.000000
_cell_angle_gamma 90.000000
_cell_volume 2767.713083
_symmetry_space_group_name_H-M "P N N A"
_symmetry_group_IT_number 52
_symmetry_cell_setting 'orthorhombic'
loop_
_space_group_symop_operation_xyz
x,y,z
1/2-x,-y,z
x,1/2-y,1/2-z
1/2-x,1/2+y,1/2-z
-x,-y,-z
1/2+x,y,-z
-x,1/2+y,1/2+z
1/2+x,1/2-y,1/2+z
loop_
_atom_site_type_symbol
_atom_site_label
_atom_site_fract_x
_atom_site_fract_y
_atom_site_fract_z
Si Si1 0.336239 0.538158 0.685543
Si Si2 0.227809 0.434093 0.203360
Si Si3 0.601277 0.711415 0.494907
Si Si4 0.552824 0.418542 0.417113
Si Si5 0.049007 0.975345 0.314093
Si Si6 0.845679 0.084845 0.877756
Si Si7 0.034753 0.213334 0.005792
O O1 0.317870 0.574776 0.429101
O O2 0.398662 0.558521 0.774022
O O3 0.338297 0.468131 0.594599
O O4 0.296011 0.558068 0.917897
O O5 0.250000 0.500000 0.267194
O O6 0.285682 0.398411 0.248716
O O7 0.620288 0.750000 0.250000
O O8 0.627803 0.645373 0.510545
O O9 0.533159 0.705677 0.475334
O O10 0.613288 0.750000 0.750000
O O11 0.488765 0.424343 0.322821
O O12 0.558645 0.467724 0.635887
O O13 0.562232 0.351389 0.497017
O O14 0.110671 0.944576 0.331579
O O15 0.000000 0.000000 0.500000
O O16 0.046691 0.250000 0.750000
O O17 0.054130 0.250000 0.250000
#
# Coordination Sequence:
#
# PCOD9410777 Si02
#       7
#     8   8   8   8   8   8   8
#     4  10  23  37  61  90 120 160 205 253 309 371
#     4  10  21  38  57  89 118 156 203 242 303 371
#     4  10  22  38  58  89 123 165 208 250 306 379
#     4  10  22  38  57  90 127 156 206 254 310 379
#     4  10  22  36  59  95 125 162 195 255 333 382
#     4  10  21  41  62  91 129 169 205 266 323 387
#     4  10  22  38  59  86 123 167 207 246 299 375
#
# _framework density 20.233312000000002
#
# number of rings (size 3 to 8) (size 9 to 14) (size 15 to 20)
#    0.000    2.000    1.429    1.286    8.000    4.571 
#    2.571    0.000    0.000    3.429    0.000    0.000 
#    0.000    0.000    0.000    0.000    0.000    0.000 
#
# Total GULP energy -311811.365694 kJ/mol
# GULP energy per Si atom -5568.060102 kJ/mol
# Density = 2.018726 g / cm^3
# Si number density = 20.233312 Si / 1000 Ang^3
#
#
#
# Elastic Constant Matrix: (Units=GPa)
#
#
# Indices 1 2 3 4 5 6 
#
# 1 94.3827 8.3645 28.2096 0.0000 0.0000 0.0000
# 2 8.3645 50.9442 6.6225 0.0000 0.0000 0.0000
# 3 28.2096 6.6225 81.4663 0.0000 0.0000 0.0000
# 4 0.0000 0.0000 0.0000 2.6109 0.0000 0.0000
# 5 0.0000 0.0000 0.0000 0.0000 34.7465 0.0000
# 6 0.0000 0.0000 0.0000 0.0000 0.0000 20.7281
#
#
#
# Elastic Compliance Matrix: (Units=1/GPa)
#
#
# Indices 1 2 3 4 5 6 
#
# 1 0.011921 -0.001436 -0.004011 0.000000 0.000000 0.000000
# 2 -0.001436 0.020012 -0.001130 0.000000 0.000000 0.000000
# 3 -0.004011 -0.001130 0.013756 0.000000 0.000000 0.000000
# 4 0.000000 0.000000 0.000000 0.383012 0.000000 0.000000
# 5 0.000000 0.000000 0.000000 0.000000 0.028780 0.000000
# 6 0.000000 0.000000 0.000000 0.000000 0.000000 0.048244
#
#
# Mechanical properties :
#
#
# Convention : Reuss Voigt Hill
#
# Bulk Modulus (GPa) = 30.73565 34.79849 32.76707
# Shear Modulus (GPa) = 9.43888 23.85687 16.64788
#
# Velocity S-wave (km/s) = 2.16221 3.43751 2.87155
# Velocity P-wave (km/s) = 4.63218 5.74380 5.21768
#
# Compressibility (1/GPa) = 0.03253551
#
# Stress axis : x y z
#
# Youngs Moduli (GPa) = 83.88320 49.97026 72.69635
#
# Poissons Ratio (x) = 0.07175 0.29161
# Poissons Ratio (y) = 0.12045 0.08212
# Poissons Ratio (z) = 0.33648 0.05644
#
# Static dielectric constant tensor:
#      x y z
#    x 1.904420 0.000000 0.000000 
#    y 0.000000 1.691520 0.000000 
#    z 0.000000 0.000000 1.861500 
# 
# From -- ./inp_files/5218.got.cif
#   From: 2010.05.17/outbox.cif.g08.bks.cpg/sg52_3_cif.got.tgz:5218.got - 2010.06.03 12:15:38.
