data_PCOD9410743
_publ_section_title
;
Structure prediction by ZEFSAII (Michael W. Deem and Ramdas Pophale) SiO2 
 PCOD9410743
Probable space group: P N N A
;
_chemical_formula_sum "Si O2"
_cell_formula_units_Z 56
_cell_length_a 13.613010
_cell_length_b 12.109291
_cell_length_c 14.726318
_cell_angle_alpha 90.000000
_cell_angle_beta 90.000000
_cell_angle_gamma 90.000000
_cell_volume 2427.543684
_symmetry_space_group_name_H-M "P N N A"
_symmetry_group_IT_number 52
_symmetry_cell_setting 'orthorhombic'
loop_
_space_group_symop_operation_xyz
x,y,z
1/2-x,-y,z
x,1/2-y,1/2-z
1/2-x,1/2+y,1/2-z
-x,-y,-z
1/2+x,y,-z
-x,1/2+y,1/2+z
1/2+x,1/2-y,1/2+z
loop_
_atom_site_type_symbol
_atom_site_label
_atom_site_fract_x
_atom_site_fract_y
_atom_site_fract_z
Si Si1 0.596419 0.306846 0.905135
Si Si2 0.062898 0.145370 0.796769
Si Si3 0.536902 0.577719 0.222684
Si Si4 0.135075 0.982766 0.532085
Si Si5 0.508325 0.628924 0.516459
Si Si6 0.304119 0.249250 0.477303
Si Si7 0.271519 0.124899 0.838167
O O1 0.555505 0.351087 0.809560
O O2 0.707256 0.262564 0.916569
O O3 0.595881 0.412253 0.975348
O O4 0.523154 0.208382 0.934570
O O5 0.016735 0.250000 0.750000
O O6 0.178093 0.136623 0.771284
O O7 0.064678 0.161753 0.903606
O O8 0.007986 0.032970 0.775432
O O9 0.582627 0.536291 0.127283
O O10 0.626507 0.626841 0.282428
O O11 0.137237 0.866997 0.477725
O O12 0.250000 0.000000 0.550708
O O13 0.500000 0.500000 0.500000
O O14 0.617266 0.658563 0.549214
O O15 0.276989 0.285988 0.580987
O O16 0.250000 0.000000 0.876238
#
# Coordination Sequence:
#
# PCOD9410743 Si02
#       7
#     8   8   8   8   8   8   8
#     4  11  24  43  69 101 145 190 250 301 373 455
#     4  11  24  39  68 100 146 184 236 307 388 434
#     4  11  22  38  64 101 144 183 237 308 373 445
#     4  10  21  37  63 102 133 182 236 293 363 437
#     4  12  25  44  69 103 140 198 246 299 385 469
#     4  11  24  41  72 102 142 190 250 300 367 459
#     4  10  22  40  64 106 146 184 232 311 382 441
#
# _framework density 23.068586
#
# number of rings (size 3 to 8) (size 9 to 14) (size 15 to 20)
#    0.000    1.143    2.857    4.286    6.000    0.000 
#    2.571    0.000    0.000    5.143    0.000    0.000 
#    0.000    0.000    0.000    0.000    0.000    0.000 
#
# Total GULP energy -312981.999846 kJ/mol
# GULP energy per Si atom -5588.964283 kJ/mol
# Density = 2.301608 g / cm^3
# Si number density = 23.068586 Si / 1000 Ang^3
#
#
#
# Elastic Constant Matrix: (Units=GPa)
#
#
# Indices 1 2 3 4 5 6 
#
# 1 130.0730 41.7459 33.8817 0.0000 0.0000 0.0000
# 2 41.7459 141.9011 21.5630 0.0000 0.0000 0.0000
# 3 33.8817 21.5630 40.5171 0.0000 0.0000 0.0000
# 4 0.0000 0.0000 0.0000 43.4527 0.0000 0.0000
# 5 0.0000 0.0000 0.0000 0.0000 5.4970 0.0000
# 6 0.0000 0.0000 0.0000 0.0000 0.0000 34.5196
#
#
#
# Elastic Compliance Matrix: (Units=1/GPa)
#
#
# Indices 1 2 3 4 5 6 
#
# 1 0.010264 -0.001866 -0.007590 0.000000 0.000000 0.000000
# 2 -0.001866 0.008007 -0.002700 0.000000 0.000000 0.000000
# 3 -0.007590 -0.002700 0.032465 0.000000 0.000000 0.000000
# 4 0.000000 0.000000 0.000000 0.023014 0.000000 0.000000
# 5 0.000000 0.000000 0.000000 0.000000 0.181918 0.000000
# 6 0.000000 0.000000 0.000000 0.000000 0.000000 0.028969
#
#
# Mechanical properties :
#
#
# Convention : Reuss Voigt Hill
#
# Bulk Modulus (GPa) = 37.84664 56.31919 47.08292
# Shear Modulus (GPa) = 15.73531 31.04722 23.39127
#
# Velocity S-wave (km/s) = 2.61456 3.67258 3.18777
# Velocity P-wave (km/s) = 5.05532 6.51542 5.83125
#
# Compressibility (1/GPa) = 0.02642242
#
# Stress axis : x y z
#
# Youngs Moduli (GPa) = 97.42823 124.89785 30.80239
#
# Poissons Ratio (x) = 0.23309 0.23379
# Poissons Ratio (y) = 0.18182 0.08318
# Poissons Ratio (z) = 0.73947 0.33728
#
# Static dielectric constant tensor:
#      x y z
#    x 1.919960 0.000000 0.000000 
#    y 0.000000 1.941270 0.000000 
#    z 0.000000 0.000000 1.851990 
# 
# From -- ./inp_files/27279.got.cif
#   From: 2010.05.17/outbox.cif.g08.bks.cpg/sg52_14_cif.got.tgz:27279.got - 2010.06.03 12:15:38.
