data_PCOD9410312
_publ_section_title
;
Structure prediction by ZEFSAII (Michael W. Deem and Ramdas Pophale) SiO2 
 PCOD9410312
Probable space group: P N N A
;
_chemical_formula_sum "Si O2"
_cell_formula_units_Z 36
_cell_length_a 24.641196
_cell_length_b 10.297341
_cell_length_c 6.440935
_cell_angle_alpha 90.000000
_cell_angle_beta 90.000000
_cell_angle_gamma 90.000000
_cell_volume 1634.315104
_symmetry_space_group_name_H-M "P N N A"
_symmetry_group_IT_number 52
_symmetry_cell_setting 'orthorhombic'
loop_
_space_group_symop_operation_xyz
x,y,z
1/2-x,-y,z
x,1/2-y,1/2-z
1/2-x,1/2+y,1/2-z
-x,-y,-z
1/2+x,y,-z
-x,1/2+y,1/2+z
1/2+x,1/2-y,1/2+z
loop_
_atom_site_type_symbol
_atom_site_label
_atom_site_fract_x
_atom_site_fract_y
_atom_site_fract_z
Si Si1 0.204225 0.898130 0.707746
Si Si2 0.556555 0.250000 0.250000
Si Si3 0.976061 0.136548 0.426760
Si Si4 0.866834 0.114103 0.668020
Si Si5 0.906485 0.023923 0.089097
O O1 0.222708 0.750000 0.750000
O O2 0.181257 0.936531 0.478149
O O3 0.250000 0.000000 0.768756
O O4 0.149758 0.913280 0.840176
O O5 0.520048 0.226469 0.456366
O O6 0.588648 0.118467 0.192772
O O7 0.917923 0.157533 0.530062
O O8 0.956935 0.108111 0.186536
O O9 0.000000 0.000000 0.500000
O O10 0.844326 0.250000 0.750000
O O11 0.896607 0.025442 0.841561
#
# Coordination Sequence:
#
# PCOD9410312 Si02
#       5
#     8   4   8   8   8
#     4  11  25  46  72  96 127 172 230 291 364 420
#     4  10  20  40  66 104 144 184 228 274 336 400
#     4   9  20  38  59  97 133 183 225 261 325 398
#     4  11  21  43  65  97 129 179 224 278 346 414
#     4  10  23  42  67  94 141 178 226 284 342 415
#
# _framework density 22.027576
#
# number of rings (size 3 to 8) (size 9 to 14) (size 15 to 20)
#    0.000    1.778    3.333    0.000    1.556    4.444 
#    4.000    8.889    0.000    0.000    0.000    0.000 
#    0.000    0.000    0.000    0.000    0.000    0.000 
#
# Total GULP energy -200401.921406 kJ/mol
# GULP energy per Si atom -5566.720039 kJ/mol
# Density = 2.197744 g / cm^3
# Si number density = 22.027576 Si / 1000 Ang^3
#
#
#
# Elastic Constant Matrix: (Units=GPa)
#
#
# Indices 1 2 3 4 5 6 
#
# 1 61.5416 32.4651 11.2597 0.0000 0.0000 0.0000
# 2 32.4651 99.2746 35.8840 0.0000 0.0000 0.0000
# 3 11.2597 35.8840 96.1632 0.0000 0.0000 0.0000
# 4 0.0000 0.0000 0.0000 36.3443 0.0000 0.0000
# 5 0.0000 0.0000 0.0000 0.0000 17.7450 0.0000
# 6 0.0000 0.0000 0.0000 0.0000 0.0000 42.1798
#
#
#
# Elastic Compliance Matrix: (Units=1/GPa)
#
#
# Indices 1 2 3 4 5 6 
#
# 1 0.019638 -0.006463 0.000112 0.000000 0.000000 0.000000
# 2 -0.006463 0.013770 -0.004382 0.000000 0.000000 0.000000
# 3 0.000112 -0.004382 0.012021 0.000000 0.000000 0.000000
# 4 0.000000 0.000000 0.000000 0.027515 0.000000 0.000000
# 5 0.000000 0.000000 0.000000 0.000000 0.056354 0.000000
# 6 0.000000 0.000000 0.000000 0.000000 0.000000 0.023708
#
#
# Mechanical properties :
#
#
# Convention : Reuss Voigt Hill
#
# Bulk Modulus (GPa) = 41.72797 46.24409 43.98603
# Shear Modulus (GPa) = 27.40349 31.07852 29.24100
#
# Velocity S-wave (km/s) = 3.53094 3.76026 3.64740
# Velocity P-wave (km/s) = 5.96725 6.31601 6.14411
#
# Compressibility (1/GPa) = 0.02396474
#
# Stress axis : x y z
#
# Youngs Moduli (GPa) = 50.92202 72.61983 83.18813
#
# Poissons Ratio (x) = 0.46931 -0.00933
# Poissons Ratio (y) = 0.32909 0.36451
# Poissons Ratio (z) = -0.00571 0.31821
#
# Static dielectric constant tensor:
#      x y z
#    x 1.772770 0.000000 0.000000 
#    y 0.000000 1.966830 0.000000 
#    z 0.000000 0.000000 2.200610 
# 
# From -- ./inp_files/4913.got.cif
#   From: 2010.05.17/outbox.cif.g08.bks.cpg/sg52_3_cif.got.tgz:4913.got - 2010.06.03 12:15:38.
