data_PCOD9410437
_publ_section_title
;
Structure prediction by ZEFSAII (Michael W. Deem and Ramdas Pophale) SiO2 
 PCOD9410437
Probable space group: P N N A
;
_chemical_formula_sum "Si O2"
_cell_formula_units_Z 56
_cell_length_a 14.924294
_cell_length_b 11.525882
_cell_length_c 13.987937
_cell_angle_alpha 90.000000
_cell_angle_beta 90.000000
_cell_angle_gamma 90.000000
_cell_volume 2406.144097
_symmetry_space_group_name_H-M "P N N A"
_symmetry_group_IT_number 52
_symmetry_cell_setting 'orthorhombic'
loop_
_space_group_symop_operation_xyz
x,y,z
1/2-x,-y,z
x,1/2-y,1/2-z
1/2-x,1/2+y,1/2-z
-x,-y,-z
1/2+x,y,-z
-x,1/2+y,1/2+z
1/2+x,1/2-y,1/2+z
loop_
_atom_site_type_symbol
_atom_site_label
_atom_site_fract_x
_atom_site_fract_y
_atom_site_fract_z
Si Si1 0.562963 0.076360 0.123882
Si Si2 0.636465 0.859694 0.828537
Si Si3 0.727290 0.625261 0.105671
Si Si4 0.250000 0.000000 0.308243
Si Si5 0.949122 0.382117 0.213304
Si Si6 0.371195 0.816377 0.349409
Si Si7 0.660605 0.250000 0.250000
Si Si8 0.702730 0.158195 0.985862
O O1 0.455725 0.106287 0.115409
O O2 0.597585 0.194317 0.171754
O O3 0.565205 0.970241 0.199273
O O4 0.644300 0.061785 0.044713
O O5 0.628460 0.750000 0.750000
O O6 0.668240 0.962975 0.759187
O O7 0.720030 0.859143 0.904735
O O8 0.750000 0.500000 0.063259
O O9 0.625240 0.612548 0.133335
O O10 0.779981 0.647223 0.205810
O O11 0.751247 0.744542 0.052729
O O12 0.216523 0.108232 0.367615
O O13 0.948831 0.250000 0.250000
O O14 0.043372 0.396395 0.160987
O O15 0.356528 0.750000 0.250000
O O16 0.379000 0.721675 0.430654
#
# Coordination Sequence:
#
# PCOD9410437 Si02
#       8
#     8   8   8   4   8   8   4   8
#     4  11  24  44  73 107 144 194 253 306 365 450
#     4  12  24  46  74 103 147 205 246 296 387 457
#     4  11  23  41  68  99 141 185 238 299 377 433
#     4  12  20  42  72  96 132 200 248 282 374 452
#     4  11  24  44  71  99 136 198 246 295 379 454
#     4  11  23  44  66 100 142 188 245 302 369 456
#     4  10  20  42  66  98 136 188 244 290 354 462
#     4  11  26  44  67 112 152 181 249 325 360 436
#
# _framework density 23.273752000000002
#
# number of rings (size 3 to 8) (size 9 to 14) (size 15 to 20)
#    0.000    0.857    7.143    0.000    3.000    0.000 
#    2.571    4.286    0.000    0.000    0.000    0.000 
#    0.000    0.000    0.000    0.000    0.000    0.000 
#
# Total GULP energy -311881.517240 kJ/mol
# GULP energy per Si atom -5569.312808 kJ/mol
# Density = 2.322078 g / cm^3
# Si number density = 23.273752 Si / 1000 Ang^3
#
#
#
# Elastic Constant Matrix: (Units=GPa)
#
#
# Indices 1 2 3 4 5 6 
#
# 1 148.9072 34.3547 43.3933 0.0000 0.0000 0.0000
# 2 34.3547 73.2494 15.0797 0.0000 0.0000 0.0000
# 3 43.3933 15.0797 67.3750 0.0000 0.0000 0.0000
# 4 0.0000 0.0000 0.0000 43.2225 0.0000 0.0000
# 5 0.0000 0.0000 0.0000 0.0000 23.4093 0.0000
# 6 0.0000 0.0000 0.0000 0.0000 0.0000 24.6000
#
#
#
# Elastic Compliance Matrix: (Units=1/GPa)
#
#
# Indices 1 2 3 4 5 6 
#
# 1 0.008907 -0.003141 -0.005034 0.000000 0.000000 0.000000
# 2 -0.003141 0.015419 -0.001428 0.000000 0.000000 0.000000
# 3 -0.005034 -0.001428 0.018404 0.000000 0.000000 0.000000
# 4 0.000000 0.000000 0.000000 0.023136 0.000000 0.000000
# 5 0.000000 0.000000 0.000000 0.000000 0.042718 0.000000
# 6 0.000000 0.000000 0.000000 0.000000 0.000000 0.040650
#
#
# Mechanical properties :
#
#
# Convention : Reuss Voigt Hill
#
# Bulk Modulus (GPa) = 42.50877 52.79853 47.65365
# Shear Modulus (GPa) = 28.36361 31.35994 29.86178
#
# Velocity S-wave (km/s) = 3.49477 3.67473 3.58588
# Velocity P-wave (km/s) = 5.88123 6.38279 6.13713
#
# Compressibility (1/GPa) = 0.02352456
#
# Stress axis : x y z
#
# Youngs Moduli (GPa) = 112.26881 64.85398 54.33642
#
# Poissons Ratio (x) = 0.20373 0.27351
# Poissons Ratio (y) = 0.35267 0.07759
# Poissons Ratio (z) = 0.56512 0.09261
#
# Static dielectric constant tensor:
#      x y z
#    x 2.018580 0.000000 0.000000 
#    y 0.000000 1.965910 0.000000 
#    z 0.000000 0.000000 1.973200 
# 
# From -- ./inp_files/27307.got.cif
#   From: 2010.05.17/outbox.cif.g08.bks.cpg/sg52_14_cif.got.tgz:27307.got - 2010.06.03 12:15:38.
