data_PCOD9410201
_publ_section_title
;
Structure prediction by ZEFSAII (Michael W. Deem and Ramdas Pophale) SiO2 
 PCOD9410201
Probable space group: P N N A
;
_chemical_formula_sum "Si O2"
_cell_formula_units_Z 40
_cell_length_a 14.039085
_cell_length_b 13.538613
_cell_length_c 10.114755
_cell_angle_alpha 90.000000
_cell_angle_beta 90.000000
_cell_angle_gamma 90.000000
_cell_volume 1922.508840
_symmetry_space_group_name_H-M "P N N A"
_symmetry_group_IT_number 52
_symmetry_cell_setting 'orthorhombic'
loop_
_space_group_symop_operation_xyz
x,y,z
1/2-x,-y,z
x,1/2-y,1/2-z
1/2-x,1/2+y,1/2-z
-x,-y,-z
1/2+x,y,-z
-x,1/2+y,1/2+z
1/2+x,1/2-y,1/2+z
loop_
_atom_site_type_symbol
_atom_site_label
_atom_site_fract_x
_atom_site_fract_y
_atom_site_fract_z
Si Si1 0.846176 0.432296 0.506967
Si Si2 0.385751 0.828498 0.367731
Si Si3 0.995228 0.491456 0.282300
Si Si4 0.814858 0.214443 0.598854
Si Si5 0.019798 0.175395 0.628003
O O1 0.750000 0.500000 0.509264
O O2 0.919006 0.460069 0.628159
O O3 0.814198 0.317628 0.518488
O O4 0.914243 0.448800 0.379711
O O5 0.381863 0.750000 0.250000
O O6 0.452240 0.913751 0.311910
O O7 0.277618 0.853438 0.406832
O O8 0.425892 0.782974 0.502374
O O9 0.946794 0.572899 0.188934
O O10 0.819594 0.250000 0.750000
O O11 0.912860 0.159425 0.575407
O O12 0.021988 0.250000 0.750000
#
# Coordination Sequence:
#
# PCOD9410201 Si02
#       5
#     8   8   8   8   8
#     4  11  22  39  68  98 133 173 228 273 341 402
#     4  11  24  41  67  97 129 174 221 274 335 403
#     4  11  24  41  67  96 135 177 221 283 335 406
#     4  10  20  39  63  95 123 171 223 266 319 413
#     4  11  23  43  64  95 136 172 221 278 338 394
#
# _framework density 20.806146999999999
#
# number of rings (size 3 to 8) (size 9 to 14) (size 15 to 20)
#    0.000    1.200    4.000    4.200    5.600    0.000 
#    3.600    1.000    0.000    0.000    0.000    0.000 
#    0.000    0.000    0.000    0.000    0.000    0.000 
#
# Total GULP energy -223089.607028 kJ/mol
# GULP energy per Si atom -5577.240176 kJ/mol
# Density = 2.075879 g / cm^3
# Si number density = 20.806147 Si / 1000 Ang^3
#
#
#
# Elastic Constant Matrix: (Units=GPa)
#
#
# Indices 1 2 3 4 5 6 
#
# 1 72.3125 -14.1330 40.5872 0.0000 0.0000 0.0000
# 2 -14.1330 59.7534 21.8776 0.0000 0.0000 0.0000
# 3 40.5872 21.8776 96.1902 0.0000 0.0000 0.0000
# 4 0.0000 0.0000 0.0000 27.2563 0.0000 0.0000
# 5 0.0000 0.0000 0.0000 0.0000 14.1022 0.0000
# 6 0.0000 0.0000 0.0000 0.0000 0.0000 39.5090
#
#
#
# Elastic Compliance Matrix: (Units=1/GPa)
#
#
# Indices 1 2 3 4 5 6 
#
# 1 0.022113 0.009432 -0.011476 0.000000 0.000000 0.000000
# 2 0.009432 0.022279 -0.009047 0.000000 0.000000 0.000000
# 3 -0.011476 -0.009047 0.017296 0.000000 0.000000 0.000000
# 4 0.000000 0.000000 0.000000 0.036689 0.000000 0.000000
# 5 0.000000 0.000000 0.000000 0.000000 0.070911 0.000000
# 6 0.000000 0.000000 0.000000 0.000000 0.000000 0.025311
#
#
# Mechanical properties :
#
#
# Convention : Reuss Voigt Hill
#
# Bulk Modulus (GPa) = 25.31234 36.10217 30.70726
# Shear Modulus (GPa) = 21.74397 28.16846 24.95622
#
# Velocity S-wave (km/s) = 3.23627 3.68347 3.46708
# Velocity P-wave (km/s) = 5.11437 5.95650 5.55143
#
# Compressibility (1/GPa) = 0.03950643
#
# Stress axis : x y z
#
# Youngs Moduli (GPa) = 45.22138 44.88600 57.81703
#
# Poissons Ratio (x) = -0.42337 0.66350
# Poissons Ratio (y) = -0.42653 0.52306
# Poissons Ratio (z) = 0.51896 0.40608
#
# Static dielectric constant tensor:
#      x y z
#    x 1.861510 0.000000 0.000000 
#    y 0.000000 1.753200 0.000000 
#    z 0.000000 0.000000 1.751120 
# 
# From -- ./inp_files/10026.got.cif
#   From: 2010.05.17/outbox.cif.g08.bks.cpg/sg52_6_cif.got.tgz:10026.got - 2010.06.03 12:15:38.
