data_PCOD9410536
_publ_section_title
;
Structure prediction by ZEFSAII (Michael W. Deem and Ramdas Pophale) SiO2 
 PCOD9410536
Probable space group: P N N A
;
_chemical_formula_sum "Si O2"
_cell_formula_units_Z 36
_cell_length_a 9.071564
_cell_length_b 13.847412
_cell_length_c 12.998015
_cell_angle_alpha 90.000000
_cell_angle_beta 90.000000
_cell_angle_gamma 90.000000
_cell_volume 1632.780543
_symmetry_space_group_name_H-M "P N N A"
_symmetry_group_IT_number 52
_symmetry_cell_setting 'orthorhombic'
loop_
_space_group_symop_operation_xyz
x,y,z
1/2-x,-y,z
x,1/2-y,1/2-z
1/2-x,1/2+y,1/2-z
-x,-y,-z
1/2+x,y,-z
-x,1/2+y,1/2+z
1/2+x,1/2-y,1/2+z
loop_
_atom_site_type_symbol
_atom_site_label
_atom_site_fract_x
_atom_site_fract_y
_atom_site_fract_z
Si Si1 0.922354 0.396631 0.302339
Si Si2 0.913865 0.197277 0.620504
Si Si3 0.144257 0.250000 0.250000
Si Si4 0.607843 0.933498 0.435195
Si Si5 0.076884 0.383279 0.686290
O O1 0.936659 0.405501 0.178721
O O2 0.951434 0.505124 0.341936
O O3 0.752867 0.367897 0.324225
O O4 0.043852 0.316160 0.323776
O O5 0.758540 0.190514 0.679972
O O6 0.882993 0.159768 0.507379
O O7 0.981352 0.305060 0.624217
O O8 0.026799 0.137242 0.694674
O O9 0.750000 0.000000 0.425291
O O10 0.500000 0.000000 0.500000
#
# Coordination Sequence:
#
# PCOD9410536 Si02
#       5
#     8   8   4   8   8
#     4  11  19  36  58  84 113 162 205 246 291 361
#     4  10  21  34  51  85 125 156 183 248 313 359
#     4  10  22  32  54  82 120 162 204 242 294 368
#     4  12  21  34  58  90 124 151 189 259 314 349
#     4   9  19  35  54  79 117 160 196 237 293 370
#
# _framework density 22.048278
#
# number of rings (size 3 to 8) (size 9 to 14) (size 15 to 20)
#    0.000    1.778    4.444    2.667    0.000    2.667 
#    0.000    0.000    0.000    1.333    0.000    9.333 
#    0.000    1.778    0.000    0.000    0.000    0.000 
#
# Total GULP energy -201009.013574 kJ/mol
# GULP energy per Si atom -5583.583710 kJ/mol
# Density = 2.199810 g / cm^3
# Si number density = 22.048278 Si / 1000 Ang^3
#
#
#
# Elastic Constant Matrix: (Units=GPa)
#
#
# Indices 1 2 3 4 5 6 
#
# 1 112.1510 46.4753 -22.3628 0.0000 0.0000 0.0000
# 2 46.4753 102.8105 -4.5249 0.0000 0.0000 0.0000
# 3 -22.3628 -4.5249 35.3049 0.0000 0.0000 0.0000
# 4 0.0000 0.0000 0.0000 24.5886 0.0000 0.0000
# 5 0.0000 0.0000 0.0000 0.0000 24.4324 0.0000
# 6 0.0000 0.0000 0.0000 0.0000 0.0000 39.7684
#
#
#
# Elastic Compliance Matrix: (Units=1/GPa)
#
#
# Indices 1 2 3 4 5 6 
#
# 1 0.012597 -0.005374 0.007291 0.000000 0.000000 0.000000
# 2 -0.005374 0.012074 -0.001856 0.000000 0.000000 0.000000
# 3 0.007291 -0.001856 0.032705 0.000000 0.000000 0.000000
# 4 0.000000 0.000000 0.000000 0.040669 0.000000 0.000000
# 5 0.000000 0.000000 0.000000 0.000000 0.040929 0.000000
# 6 0.000000 0.000000 0.000000 0.000000 0.000000 0.025146
#
#
# Mechanical properties :
#
#
# Convention : Reuss Voigt Hill
#
# Bulk Modulus (GPa) = 17.39219 32.16019 24.77619
# Shear Modulus (GPa) = 27.29788 33.13646 30.21717
#
# Velocity S-wave (km/s) = 3.52248 3.88094 3.70604
# Velocity P-wave (km/s) = 4.94461 5.89068 5.43826
#
# Compressibility (1/GPa) = 0.05749707
#
# Stress axis : x y z
#
# Youngs Moduli (GPa) = 79.38336 82.82205 30.57667
#
# Poissons Ratio (x) = 0.44505 -0.22292
# Poissons Ratio (y) = 0.42658 0.05676
# Poissons Ratio (z) = -0.57874 0.15374
#
# Static dielectric constant tensor:
#      x y z
#    x 1.762940 0.000000 0.000000 
#    y 0.000000 1.907530 0.000000 
#    z 0.000000 0.000000 1.767900 
# 
# From -- ./inp_files/24329.got.cif
#   From: 2010.05.17/outbox.cif.g08.bks.cpg/sg52_13_cif.got.tgz:24329.got - 2010.06.03 12:15:38.
