data_PCOD9410214
_publ_section_title
;
Structure prediction by ZEFSAII (Michael W. Deem and Ramdas Pophale) SiO2 
 PCOD9410214
Probable space group: P N N A
;
_chemical_formula_sum "Si O2"
_cell_formula_units_Z 56
_cell_length_a 14.512615
_cell_length_b 21.407641
_cell_length_c 8.818415
_cell_angle_alpha 90.000000
_cell_angle_beta 90.000000
_cell_angle_gamma 90.000000
_cell_volume 2739.712685
_symmetry_space_group_name_H-M "P N N A"
_symmetry_group_IT_number 52
_symmetry_cell_setting 'orthorhombic'
loop_
_space_group_symop_operation_xyz
x,y,z
1/2-x,-y,z
x,1/2-y,1/2-z
1/2-x,1/2+y,1/2-z
-x,-y,-z
1/2+x,y,-z
-x,1/2+y,1/2+z
1/2+x,1/2-y,1/2+z
loop_
_atom_site_type_symbol
_atom_site_label
_atom_site_fract_x
_atom_site_fract_y
_atom_site_fract_z
Si Si1 0.867098 0.833252 0.573637
Si Si2 0.138415 0.779984 0.972680
Si Si3 0.305449 0.157361 0.654880
Si Si4 0.488833 0.582665 0.885745
Si Si5 0.042075 0.312729 0.646263
Si Si6 0.825379 0.689540 0.600056
Si Si7 0.350789 0.475274 0.942914
O O1 0.792963 0.841713 0.435678
O O2 0.952990 0.875359 0.527230
O O3 0.874426 0.758284 0.590666
O O4 0.841514 0.849060 0.747271
O O5 0.177643 0.812052 0.819399
O O6 0.136932 0.705476 0.949371
O O7 0.217410 0.796116 0.092941
O O8 0.039523 0.801123 0.026815
O O9 0.335952 0.086109 0.658177
O O10 0.491776 0.631779 0.752247
O O11 0.585130 0.549315 0.920343
O O12 0.410968 0.529522 0.866013
O O13 0.057996 0.250000 0.750000
O O14 0.131867 0.336619 0.555117
O O15 0.250000 0.500000 0.987628
#
# Coordination Sequence:
#
# PCOD9410214 Si02
#       7
#     8   8   8   8   8   8   8
#     4  10  20  39  64  95 133 169 213 266 322 396
#     4  10  24  38  66 101 131 167 210 272 342 391
#     4  10  21  41  67  90 130 170 218 265 326 393
#     4  11  24  41  65  93 128 174 227 276 324 398
#     4  12  24  40  66 101 138 170 214 279 343 397
#     4  10  23  36  62 101 138 165 206 267 339 393
#     4  11  24  41  67  90 122 179 236 264 322 401
#
# _framework density 20.440099
#
# number of rings (size 3 to 8) (size 9 to 14) (size 15 to 20)
#    0.000    1.429    2.857    1.714   10.000    1.143 
#    0.000    0.714    0.000    0.857    0.000    0.000 
#    0.000    0.000    0.000    0.000    0.000    0.000 
#
# Total GULP energy -312156.033970 kJ/mol
# GULP energy per Si atom -5574.214892 kJ/mol
# Density = 2.039358 g / cm^3
# Si number density = 20.440099 Si / 1000 Ang^3
#
#
#
# Elastic Constant Matrix: (Units=GPa)
#
#
# Indices 1 2 3 4 5 6 
#
# 1 116.6814 26.3426 23.9793 0.0000 0.0000 0.0000
# 2 26.3426 73.2214 -3.2734 0.0000 0.0000 0.0000
# 3 23.9793 -3.2734 72.0617 0.0000 0.0000 0.0000
# 4 0.0000 0.0000 0.0000 24.6871 0.0000 0.0000
# 5 0.0000 0.0000 0.0000 0.0000 15.3701 0.0000
# 6 0.0000 0.0000 0.0000 0.0000 0.0000 13.8960
#
#
#
# Elastic Compliance Matrix: (Units=1/GPa)
#
#
# Indices 1 2 3 4 5 6 
#
# 1 0.010162 -0.003815 -0.003555 0.000000 0.000000 0.000000
# 2 -0.003815 0.015117 0.001956 0.000000 0.000000 0.000000
# 3 -0.003555 0.001956 0.015149 0.000000 0.000000 0.000000
# 4 0.000000 0.000000 0.000000 0.040507 0.000000 0.000000
# 5 0.000000 0.000000 0.000000 0.000000 0.065061 0.000000
# 6 0.000000 0.000000 0.000000 0.000000 0.000000 0.071963
#
#
# Mechanical properties :
#
#
# Convention : Reuss Voigt Hill
#
# Bulk Modulus (GPa) = 33.78287 39.56240 36.67264
# Shear Modulus (GPa) = 20.95085 25.11838 23.03461
#
# Velocity S-wave (km/s) = 3.20502 3.50934 3.36062
# Velocity P-wave (km/s) = 5.50089 5.98481 5.74794
#
# Compressibility (1/GPa) = 0.02960080
#
# Stress axis : x y z
#
# Youngs Moduli (GPa) = 98.40398 66.14999 66.01198
#
# Poissons Ratio (x) = 0.25236 0.23466
# Poissons Ratio (y) = 0.37541 -0.12913
# Poissons Ratio (z) = 0.34981 -0.12940
#
# Static dielectric constant tensor:
#      x y z
#    x 1.785790 0.000000 0.000000 
#    y 0.000000 1.735870 0.000000 
#    z 0.000000 0.000000 1.825510 
# 
# From -- ./inp_files/10809.got.cif
#   From: 2010.05.17/outbox.cif.g08.bks.cpg/sg52_6_cif.got.tgz:10809.got - 2010.06.03 12:15:38.
