data_PCOD9410235
_publ_section_title
;
Structure prediction by ZEFSAII (Michael W. Deem and Ramdas Pophale) SiO2 
 PCOD9410235
Probable space group: P N N A
;
_chemical_formula_sum "Si O2"
_cell_formula_units_Z 40
_cell_length_a 10.543791
_cell_length_b 8.387815
_cell_length_c 18.741484
_cell_angle_alpha 90.000000
_cell_angle_beta 90.000000
_cell_angle_gamma 90.000000
_cell_volume 1657.485006
_symmetry_space_group_name_H-M "P N N A"
_symmetry_group_IT_number 52
_symmetry_cell_setting 'orthorhombic'
loop_
_space_group_symop_operation_xyz
x,y,z
1/2-x,-y,z
x,1/2-y,1/2-z
1/2-x,1/2+y,1/2-z
-x,-y,-z
1/2+x,y,-z
-x,1/2+y,1/2+z
1/2+x,1/2-y,1/2+z
loop_
_atom_site_type_symbol
_atom_site_label
_atom_site_fract_x
_atom_site_fract_y
_atom_site_fract_z
Si Si1 0.693194 0.324698 0.403238
Si Si2 0.884365 0.590393 0.540625
Si Si3 0.943468 0.088015 0.832859
Si Si4 0.364330 0.118213 0.688152
Si Si5 0.883253 0.072195 0.666957
O O1 0.750000 0.500000 0.412017
O O2 0.640429 0.274415 0.481316
O O3 0.588023 0.352729 0.341885
O O4 0.799843 0.209421 0.376653
O O5 0.750000 0.500000 0.547407
O O6 0.928131 0.575095 0.622853
O O7 0.000000 0.500000 0.500000
O O8 0.879793 0.248451 0.863691
O O9 0.891578 0.075465 0.753721
O O10 0.394525 0.250000 0.750000
O O11 0.485813 0.024450 0.656520
O O12 0.250000 0.000000 0.714190
O O13 0.750000 0.000000 0.644925
#
# Coordination Sequence:
#
# PCOD9410235 Si02
#       5
#     8   8   8   8   8
#     4  10  20  39  66  98 124 168 229 272 330 400
#     4   9  19  37  64  91 119 167 218 272 316 391
#     4  10  20  40  62  91 135 169 222 274 332 404
#     4  12  23  38  64  97 135 172 218 281 344 400
#     4  11  24  38  58  95 134 177 212 274 345 403
#
# _framework density 24.132949
#
# number of rings (size 3 to 8) (size 9 to 14) (size 15 to 20)
#    0.000    1.600    2.000    3.600    2.800    0.000 
#   10.800    0.000    0.000    9.600    0.000    0.000 
#    0.000    0.000    0.000    0.000    0.000    0.000 
#
# Total GULP energy -222706.035431 kJ/mol
# GULP energy per Si atom -5567.650886 kJ/mol
# Density = 2.407802 g / cm^3
# Si number density = 24.132949 Si / 1000 Ang^3
#
#
#
# Elastic Constant Matrix: (Units=GPa)
#
#
# Indices 1 2 3 4 5 6 
#
# 1 140.2431 30.7266 0.4947 0.0000 0.0000 0.0000
# 2 30.7266 73.3271 24.1125 0.0000 0.0000 0.0000
# 3 0.4947 24.1125 76.7823 0.0000 0.0000 0.0000
# 4 0.0000 0.0000 0.0000 -37.7279 0.0000 0.0000
# 5 0.0000 0.0000 0.0000 0.0000 18.3739 0.0000
# 6 0.0000 0.0000 0.0000 0.0000 0.0000 29.8682
#
#
#
# Elastic Compliance Matrix: (Units=1/GPa)
#
#
# Indices 1 2 3 4 5 6 
#
# 1 0.007935 -0.003689 0.001107 0.000000 0.000000 0.000000
# 2 -0.003689 0.016923 -0.005291 0.000000 0.000000 0.000000
# 3 0.001107 -0.005291 0.014678 0.000000 0.000000 0.000000
# 4 0.000000 0.000000 0.000000 -0.026506 0.000000 0.000000
# 5 0.000000 0.000000 0.000000 0.000000 0.054425 0.000000
# 6 0.000000 0.000000 0.000000 0.000000 0.000000 0.033480
#
#
# Mechanical properties :
#
#
# Convention : Reuss Voigt Hill
#
# Bulk Modulus (GPa) = 42.03222 44.55781 43.29501
# Shear Modulus (GPa) = 40.12472 17.77075 28.94774
#
# Velocity S-wave (km/s) = 4.08199 2.71656 3.46715
# Velocity P-wave (km/s) = 6.29854 5.32383 5.83158
#
# Compressibility (1/GPa) = 0.02379127
#
# Stress axis : x y z
#
# Youngs Moduli (GPa) = 126.02652 59.09058 68.12829
#
# Poissons Ratio (x) = 0.21799 -0.07545
# Poissons Ratio (y) = 0.46493 0.36045
# Poissons Ratio (z) = -0.13956 0.31263
#
# Static dielectric constant tensor:
#      x y z
#    x 2.054490 0.000000 0.000000 
#    y 0.000000 2.174730 0.000000 
#    z 0.000000 0.000000 2.046900 
# 
# From -- ./inp_files/36662.got.cif
#   From: 2010.05.17/outbox.cif.g08.bks.cpg/sg52_19_cif.got.tgz:36662.got - 2010.06.03 12:15:38.
