data_PCOD9410448
_publ_section_title
;
Structure prediction by ZEFSAII (Michael W. Deem and Ramdas Pophale) SiO2 
 PCOD9410448
Probable space group: P N N A
;
_chemical_formula_sum "Si O2"
_cell_formula_units_Z 32
_cell_length_a 5.294118
_cell_length_b 19.771783
_cell_length_c 11.028248
_cell_angle_alpha 90.000000
_cell_angle_beta 90.000000
_cell_angle_gamma 90.000000
_cell_volume 1154.372510
_symmetry_space_group_name_H-M "P N N A"
_symmetry_group_IT_number 52
_symmetry_cell_setting 'orthorhombic'
loop_
_space_group_symop_operation_xyz
x,y,z
1/2-x,-y,z
x,1/2-y,1/2-z
1/2-x,1/2+y,1/2-z
-x,-y,-z
1/2+x,y,-z
-x,1/2+y,1/2+z
1/2+x,1/2-y,1/2+z
loop_
_atom_site_type_symbol
_atom_site_label
_atom_site_fract_x
_atom_site_fract_y
_atom_site_fract_z
Si Si1 0.573692 0.750000 0.250000
Si Si2 0.839800 0.575403 0.631333
Si Si3 0.841591 0.869995 0.139503
Si Si4 0.500000 0.000000 0.500000
Si Si5 0.191271 0.354657 0.072748
O O1 0.750014 0.795024 0.164037
O O2 0.406973 0.698348 0.171987
O O3 0.750000 0.500000 0.607498
O O4 0.874698 0.613400 0.502372
O O5 0.607967 0.611466 0.697850
O O6 0.114997 0.582973 0.685552
O O7 0.667712 0.062545 0.576587
O O8 0.250000 0.000000 0.588218
O O9 0.479269 0.341992 0.033190
#
# Coordination Sequence:
#
# PCOD9410448 Si02
#       5
#     4   8   8   4   8
#     4  12  28  42  68 110 144 192 240 290 368 446
#     4  10  20  42  68  92 128 178 224 285 352 409
#     4  10  22  36  62  96 134 171 222 280 342 426
#     4   8  16  40  66  92 124 180 228 286 344 406
#     4  10  24  44  71  98 143 184 240 298 356 426
#
# _framework density 27.720685
#
# number of rings (size 3 to 8) (size 9 to 14) (size 15 to 20)
#    0.000    2.000    0.000    3.750    7.000    4.000 
#    0.000   15.000    0.000    0.000    0.000    0.000 
#    0.000    0.000    0.000    0.000    0.000    0.000 
#
# Total GULP energy -178227.058805 kJ/mol
# GULP energy per Si atom -5569.595588 kJ/mol
# Density = 2.765759 g / cm^3
# Si number density = 27.720685 Si / 1000 Ang^3
#
#
#
# Elastic Constant Matrix: (Units=GPa)
#
#
# Indices 1 2 3 4 5 6 
#
# 1 144.5141 30.0947 -3.2292 0.0000 0.0000 0.0000
# 2 30.0947 192.6092 74.2178 0.0000 0.0000 0.0000
# 3 -3.2292 74.2178 76.9029 0.0000 0.0000 0.0000
# 4 0.0000 0.0000 0.0000 55.3775 0.0000 0.0000
# 5 0.0000 0.0000 0.0000 0.0000 -33.9362 0.0000
# 6 0.0000 0.0000 0.0000 0.0000 0.0000 57.6488
#
#
#
# Elastic Compliance Matrix: (Units=1/GPa)
#
#
# Indices 1 2 3 4 5 6 
#
# 1 0.007393 -0.002029 0.002269 0.000000 0.000000 0.000000
# 2 -0.002029 0.008823 -0.008600 0.000000 0.000000 0.000000
# 3 0.002269 -0.008600 0.021398 0.000000 0.000000 0.000000
# 4 0.000000 0.000000 0.000000 0.018058 0.000000 0.000000
# 5 0.000000 0.000000 0.000000 0.000000 -0.029467 0.000000
# 6 0.000000 0.000000 0.000000 0.000000 0.000000 0.017346
#
#
# Mechanical properties :
#
#
# Convention : Reuss Voigt Hill
#
# Bulk Modulus (GPa) = 47.86176 68.46585 58.16381
# Shear Modulus (GPa) = 74.36421 36.68087 55.52254
#
# Velocity S-wave (km/s) = 5.18503 3.64157 4.48026
# Velocity P-wave (km/s) = 7.29035 6.51410 6.91313
#
# Compressibility (1/GPa) = 0.02089351
#
# Stress axis : x y z
#
# Youngs Moduli (GPa) = 135.26162 113.34323 46.73255
#
# Poissons Ratio (x) = 0.23003 -0.10604
# Poissons Ratio (y) = 0.27451 0.40190
# Poissons Ratio (z) = -0.30692 0.97474
#
# Static dielectric constant tensor:
#      x y z
#    x 1.698300 0.000000 0.000000 
#    y 0.000000 1.970390 0.000000 
#    z 0.000000 0.000000 2.035010 
# 
# From -- ./inp_files/15964.got.cif
#   From: 2010.05.17/outbox.cif.g08.bks.cpg/sg52_8_cif.got.tgz:15964.got - 2010.06.03 12:15:38.
