data_PCOD9410804
_publ_section_title
;
Structure prediction by ZEFSAII (Michael W. Deem and Ramdas Pophale) SiO2 
 PCOD9410804
Probable space group: P N N A
;
_chemical_formula_sum "Si O2"
_cell_formula_units_Z 56
_cell_length_a 25.718963
_cell_length_b 18.956056
_cell_length_c 6.448609
_cell_angle_alpha 90.000000
_cell_angle_beta 90.000000
_cell_angle_gamma 90.000000
_cell_volume 3143.891009
_symmetry_space_group_name_H-M "P N N A"
_symmetry_group_IT_number 52
_symmetry_cell_setting 'orthorhombic'
loop_
_space_group_symop_operation_xyz
x,y,z
1/2-x,-y,z
x,1/2-y,1/2-z
1/2-x,1/2+y,1/2-z
-x,-y,-z
1/2+x,y,-z
-x,1/2+y,1/2+z
1/2+x,1/2-y,1/2+z
loop_
_atom_site_type_symbol
_atom_site_label
_atom_site_fract_x
_atom_site_fract_y
_atom_site_fract_z
Si Si1 0.250000 0.000000 0.508731
Si Si2 0.192432 0.435344 0.337044
Si Si3 0.435382 0.564085 0.936754
Si Si4 0.863471 0.812025 0.601231
Si Si5 0.878273 0.036134 0.104184
Si Si6 0.275310 0.387946 0.650790
Si Si7 0.286831 0.750000 0.750000
Si Si8 0.968142 0.466164 0.688104
O O1 0.201267 0.015249 0.361704
O O2 0.255609 0.067059 0.653725
O O3 0.168325 0.363218 0.255039
O O4 0.155143 0.473600 0.498276
O O5 0.247398 0.420251 0.447741
O O6 0.405900 0.504384 0.796432
O O7 0.490077 0.578756 0.818881
O O8 0.403156 0.635103 0.982643
O O9 0.448118 0.526254 0.154431
O O10 0.885917 0.750000 0.750000
O O11 0.824273 0.778788 0.432321
O O12 0.836643 0.097115 0.152090
O O13 0.918886 0.064747 0.933490
O O14 0.251308 0.311210 0.671192
O O15 0.000000 0.500000 0.500000
#
# Coordination Sequence:
#
# PCOD9410804 Si02
#       8
#     4   8   8   8   8   8   4   8
#     4  12  20  34  58  82 120 158 204 256 282 344
#     4  12  21  35  55  90 121 153 209 247 293 366
#     4  10  21  38  60  94 117 148 204 260 316 356
#     4  12  24  36  58  85 127 169 196 246 315 378
#     4  11  20  35  60  90 117 156 202 256 307 358
#     4  12  23  35  54  87 122 164 204 243 296 367
#     4  12  26  40  52  90 132 166 204 242 302 378
#     4   9  20  37  63  93 114 139 193 274 308 357
#
# _framework density 17.812321000000001
#
# number of rings (size 3 to 8) (size 9 to 14) (size 15 to 20)
#    0.000    0.857    7.143    1.714    0.000    0.000 
#    0.000    0.000    0.000    0.000   31.571    0.000 
#    0.000    0.000    0.000    0.000    0.000    0.000 
#
# Total GULP energy -312223.891274 kJ/mol
# GULP energy per Si atom -5575.426630 kJ/mol
# Density = 1.777178 g / cm^3
# Si number density = 17.812321 Si / 1000 Ang^3
#
#
#
# Elastic Constant Matrix: (Units=GPa)
#
#
# Indices 1 2 3 4 5 6 
#
# 1 105.5958 49.2904 44.4019 0.0000 0.0000 0.0000
# 2 49.2904 100.7648 38.0785 0.0000 0.0000 0.0000
# 3 44.4019 38.0785 88.1790 0.0000 0.0000 0.0000
# 4 0.0000 0.0000 0.0000 23.5156 0.0000 0.0000
# 5 0.0000 0.0000 0.0000 0.0000 45.0924 0.0000
# 6 0.0000 0.0000 0.0000 0.0000 0.0000 25.7719
#
#
#
# Elastic Compliance Matrix: (Units=1/GPa)
#
#
# Indices 1 2 3 4 5 6 
#
# 1 0.013797 -0.004928 -0.004819 0.000000 0.000000 0.000000
# 2 -0.004928 0.013619 -0.003400 0.000000 0.000000 0.000000
# 3 -0.004819 -0.003400 0.015236 0.000000 0.000000 0.000000
# 4 0.000000 0.000000 0.000000 0.042525 0.000000 0.000000
# 5 0.000000 0.000000 0.000000 0.000000 0.022177 0.000000
# 6 0.000000 0.000000 0.000000 0.000000 0.000000 0.038802
#
#
# Mechanical properties :
#
#
# Convention : Reuss Voigt Hill
#
# Bulk Modulus (GPa) = 61.13335 62.00902 61.57119
# Shear Modulus (GPa) = 28.10540 29.72722 28.91631
#
# Velocity S-wave (km/s) = 3.97654 4.08967 4.03350
# Velocity P-wave (km/s) = 7.44843 7.56231 7.50559
#
# Compressibility (1/GPa) = 0.01635768
#
# Stress axis : x y z
#
# Youngs Moduli (GPa) = 72.48120 73.42484 65.63606
#
# Poissons Ratio (x) = 0.36181 0.31632
# Poissons Ratio (y) = 0.35716 0.22316
# Poissons Ratio (z) = 0.34931 0.24964
#
# Static dielectric constant tensor:
#      x y z
#    x 1.663240 0.000000 0.000000 
#    y 0.000000 1.615970 0.000000 
#    z 0.000000 0.000000 1.635220 
# 
# From -- ./inp_files/5995.got.cif
#   From: 2010.05.17/outbox.cif.g08.bks.cpg/sg52_3_cif.got.tgz:5995.got - 2010.06.03 12:15:38.
