data_PCOD9410236
_publ_section_title
;
Structure prediction by ZEFSAII (Michael W. Deem and Ramdas Pophale) SiO2 
 PCOD9410236
Probable space group: P N N A
;
_chemical_formula_sum "Si O2"
_cell_formula_units_Z 24
_cell_length_a 14.299366
_cell_length_b 4.925786
_cell_length_c 17.025850
_cell_angle_alpha 90.000000
_cell_angle_beta 90.000000
_cell_angle_gamma 90.000000
_cell_volume 1199.226247
_symmetry_space_group_name_H-M "P N N A"
_symmetry_group_IT_number 52
_symmetry_cell_setting 'orthorhombic'
loop_
_space_group_symop_operation_xyz
x,y,z
1/2-x,-y,z
x,1/2-y,1/2-z
1/2-x,1/2+y,1/2-z
-x,-y,-z
1/2+x,y,-z
-x,1/2+y,1/2+z
1/2+x,1/2-y,1/2+z
loop_
_atom_site_type_symbol
_atom_site_label
_atom_site_fract_x
_atom_site_fract_y
_atom_site_fract_z
Si Si1 0.750000 0.000000 0.626257
Si Si2 0.686507 0.764084 0.128920
Si Si3 0.250000 0.000000 0.020123
Si Si4 0.394343 0.250000 0.250000
Si Si5 0.025617 0.750000 0.750000
O O1 0.784015 0.750488 0.572452
O O2 0.671458 0.866897 0.681474
O O3 0.750000 0.500000 0.120927
O O4 0.594556 0.697078 0.177007
O O5 0.750000 0.000000 0.169947
O O6 0.827124 0.114262 0.041366
O O7 0.460822 0.498156 0.272704
#
# Coordination Sequence:
#
# PCOD9410236 Si02
#       5
#     4   8   4   4   4
#     4  12  23  48  63  86 124 170 232 252 319 370
#     4  10  20  39  66  99 128 173 194 252 329 380
#     4  10  21  40  71  90 122 180 204 252 317 396
#     4  12  27  41  68  90 120 176 212 279 305 364
#     4  12  23  41  64 104 130 154 222 259 313 382
#
# _framework density 20.012903000000001
#
# number of rings (size 3 to 8) (size 9 to 14) (size 15 to 20)
#    1.000    0.000    1.667    7.000    0.000    0.000 
#    0.000   10.000    0.000    0.000    0.000    0.000 
#    0.000    0.000    0.000    0.000    0.000    0.000 
#
# Total GULP energy -133906.990979 kJ/mol
# GULP energy per Si atom -5579.457957 kJ/mol
# Density = 1.996735 g / cm^3
# Si number density = 20.012903 Si / 1000 Ang^3
#
#
#
# Elastic Constant Matrix: (Units=GPa)
#
#
# Indices 1 2 3 4 5 6 
#
# 1 100.4744 58.8590 61.1345 0.0000 0.0000 0.0000
# 2 58.8590 166.2653 60.3368 0.0000 0.0000 0.0000
# 3 61.1345 60.3368 131.9125 0.0000 0.0000 0.0000
# 4 0.0000 0.0000 0.0000 31.1964 0.0000 0.0000
# 5 0.0000 0.0000 0.0000 0.0000 -6.9961 0.0000
# 6 0.0000 0.0000 0.0000 0.0000 0.0000 41.4741
#
#
#
# Elastic Compliance Matrix: (Units=1/GPa)
#
#
# Indices 1 2 3 4 5 6 
#
# 1 0.015324 -0.003414 -0.005540 0.000000 0.000000 0.000000
# 2 -0.003414 0.007972 -0.002064 0.000000 0.000000 0.000000
# 3 -0.005540 -0.002064 0.011092 0.000000 0.000000 0.000000
# 4 0.000000 0.000000 0.000000 0.032055 0.000000 0.000000
# 5 0.000000 0.000000 0.000000 0.000000 -0.142937 0.000000
# 6 0.000000 0.000000 0.000000 0.000000 0.000000 0.024111
#
#
# Mechanical properties :
#
#
# Convention : Reuss Voigt Hill
#
# Bulk Modulus (GPa) = 80.96203 84.36808 82.66505
# Shear Modulus (GPa) = -190.63550 27.68969 -81.47290
#
# Velocity S-wave (km/s) = -9.77052 3.72370 -6.38738
# Velocity P-wave (km/s) = 9.31351 7.79335 3.60590
#
# Compressibility (1/GPa) = 0.01235147
#
# Stress axis : x y z
#
# Youngs Moduli (GPa) = 65.25794 125.43546 90.15121
#
# Poissons Ratio (x) = 0.42827 0.49945
# Poissons Ratio (y) = 0.22281 0.18609
# Poissons Ratio (z) = 0.36154 0.25892
#
# Static dielectric constant tensor:
#      x y z
#    x 1.672030 0.000000 0.000000 
#    y 0.000000 1.727600 0.000000 
#    z 0.000000 0.000000 1.755390 
# 
# From -- ./inp_files/26588.got.cif
#   From: 2010.05.17/outbox.cif.g08.bks.cpg/sg52_14_cif.got.tgz:26588.got - 2010.06.03 12:15:38.
