data_PCOD9410318
_publ_section_title
;
Structure prediction by ZEFSAII (Michael W. Deem and Ramdas Pophale) SiO2 
 PCOD9410318
Probable space group: P N N A
;
_chemical_formula_sum "Si O2"
_cell_formula_units_Z 40
_cell_length_a 22.766579
_cell_length_b 14.017549
_cell_length_c 5.996863
_cell_angle_alpha 90.000000
_cell_angle_beta 90.000000
_cell_angle_gamma 90.000000
_cell_volume 1913.788704
_symmetry_space_group_name_H-M "P N N A"
_symmetry_group_IT_number 52
_symmetry_cell_setting 'orthorhombic'
loop_
_space_group_symop_operation_xyz
x,y,z
1/2-x,-y,z
x,1/2-y,1/2-z
1/2-x,1/2+y,1/2-z
-x,-y,-z
1/2+x,y,-z
-x,1/2+y,1/2+z
1/2+x,1/2-y,1/2+z
loop_
_atom_site_type_symbol
_atom_site_label
_atom_site_fract_x
_atom_site_fract_y
_atom_site_fract_z
Si Si1 0.843479 0.491666 0.412737
Si Si2 0.765559 0.349360 0.117052
Si Si3 0.431359 0.514561 0.961289
Si Si4 0.127390 0.848383 0.301144
Si Si5 0.839777 0.862972 0.707850
O O1 0.797055 0.432309 0.261848
O O2 0.865437 0.411031 0.582863
O O3 0.820059 0.577401 0.572107
O O4 0.899773 0.531936 0.276478
O O5 0.757699 0.250000 0.250000
O O6 0.810100 0.328267 0.914473
O O7 0.705575 0.380547 0.995968
O O8 0.406398 0.411284 0.023268
O O9 0.401461 0.591576 0.127410
O O10 0.500000 0.500000 0.000000
O O11 0.096506 0.750000 0.250000
O O12 0.842172 0.750000 0.750000
#
# Coordination Sequence:
#
# PCOD9410318 Si02
#       5
#     8   8   8   8   8
#     4  10  24  45  70  94 146 179 227 289 344 417
#     4  11  23  41  68 101 143 182 228 283 348 427
#     4  10  25  47  67  98 131 183 238 286 351 412
#     4  10  20  40  67 103 131 176 230 280 354 410
#     4  11  27  45  65 105 143 182 231 284 362 419
#
# _framework density 20.900950000000002
#
# number of rings (size 3 to 8) (size 9 to 14) (size 15 to 20)
#    0.000    1.600    2.000    0.600    2.800   12.000 
#    7.200    0.000    0.000    0.000    0.000    0.000 
#    0.000    0.000    0.000    0.000    0.000    0.000 
#
# Total GULP energy -223293.296921 kJ/mol
# GULP energy per Si atom -5582.332423 kJ/mol
# Density = 2.085338 g / cm^3
# Si number density = 20.900950 Si / 1000 Ang^3
#
#
#
# Elastic Constant Matrix: (Units=GPa)
#
#
# Indices 1 2 3 4 5 6 
#
# 1 138.4173 29.5646 45.0258 0.0000 0.0000 0.0000
# 2 29.5646 148.0007 45.1100 0.0000 0.0000 0.0000
# 3 45.0258 45.1100 104.3659 0.0000 0.0000 0.0000
# 4 0.0000 0.0000 0.0000 48.2487 0.0000 0.0000
# 5 0.0000 0.0000 0.0000 0.0000 14.8775 0.0000
# 6 0.0000 0.0000 0.0000 0.0000 0.0000 7.8099
#
#
#
# Elastic Compliance Matrix: (Units=1/GPa)
#
#
# Indices 1 2 3 4 5 6 
#
# 1 0.008460 -0.000665 -0.003362 0.000000 0.000000 0.000000
# 2 -0.000665 0.007834 -0.003099 0.000000 0.000000 0.000000
# 3 -0.003362 -0.003099 0.012372 0.000000 0.000000 0.000000
# 4 0.000000 0.000000 0.000000 0.020726 0.000000 0.000000
# 5 0.000000 0.000000 0.000000 0.000000 0.067215 0.000000
# 6 0.000000 0.000000 0.000000 0.000000 0.000000 0.128043
#
#
# Mechanical properties :
#
#
# Convention : Reuss Voigt Hill
#
# Bulk Modulus (GPa) = 69.38298 70.02053 69.70175
# Shear Modulus (GPa) = 18.96033 32.25946 25.60990
#
# Velocity S-wave (km/s) = 3.01516 3.93293 3.50422
# Velocity P-wave (km/s) = 6.73719 7.36191 7.05647
#
# Compressibility (1/GPa) = 0.01441276
#
# Stress axis : x y z
#
# Youngs Moduli (GPa) = 118.19781 127.64501 80.82833
#
# Poissons Ratio (x) = 0.08491 0.27178
# Poissons Ratio (y) = 0.07862 0.25050
# Poissons Ratio (z) = 0.39744 0.39560
#
# Static dielectric constant tensor:
#      x y z
#    x 1.846090 0.000000 0.000000 
#    y 0.000000 1.785560 0.000000 
#    z 0.000000 0.000000 1.870260 
# 
# From -- ./inp_files/5029.got.cif
#   From: 2010.05.17/outbox.cif.g08.bks.cpg/sg52_3_cif.got.tgz:5029.got - 2010.06.03 12:15:38.
