data_PCOD9410117
_publ_section_title
;
Structure prediction by ZEFSAII (Michael W. Deem and Ramdas Pophale) SiO2 
 PCOD9410117
Probable space group: P N N A
;
_chemical_formula_sum "Si O2"
_cell_formula_units_Z 36
_cell_length_a 14.609729
_cell_length_b 11.319027
_cell_length_c 11.420180
_cell_angle_alpha 90.000000
_cell_angle_beta 90.000000
_cell_angle_gamma 90.000000
_cell_volume 1888.531379
_symmetry_space_group_name_H-M "P N N A"
_symmetry_group_IT_number 52
_symmetry_cell_setting 'orthorhombic'
loop_
_space_group_symop_operation_xyz
x,y,z
1/2-x,-y,z
x,1/2-y,1/2-z
1/2-x,1/2+y,1/2-z
-x,-y,-z
1/2+x,y,-z
-x,1/2+y,1/2+z
1/2+x,1/2-y,1/2+z
loop_
_atom_site_type_symbol
_atom_site_label
_atom_site_fract_x
_atom_site_fract_y
_atom_site_fract_z
Si Si1 0.915045 0.126546 0.932869
Si Si2 0.873887 0.607260 0.428234
Si Si3 0.719704 0.868910 0.721529
Si Si4 0.750000 0.000000 0.271568
Si Si5 0.785709 0.298489 0.040818
O O1 0.864010 0.148481 0.811148
O O2 0.021917 0.148090 0.913522
O O3 0.873053 0.211921 0.032838
O O4 0.886648 0.995161 0.974584
O O5 0.830755 0.545927 0.313170
O O6 0.802955 0.711834 0.458730
O O7 0.778857 0.750000 0.750000
O O8 0.707381 0.866801 0.582354
O O9 0.750000 0.000000 0.751676
O O10 0.780145 0.109564 0.353362
#
# Coordination Sequence:
#
# PCOD9410117 Si02
#       5
#     8   8   8   4   8
#     4  10  22  42  68  94 124 171 215 266 321 395
#     4  11  23  42  68  92 130 173 213 261 332 395
#     4  10  20  38  65  93 128 166 212 267 318 377
#     4  12  24  40  66  92 136 176 212 264 330 396
#     4  11  22  41  64  94 130 167 213 271 318 384
#
# _framework density 19.062432000000001
#
# number of rings (size 3 to 8) (size 9 to 14) (size 15 to 20)
#    0.000    1.333    3.333    3.333    0.000    5.333 
#    4.000    2.222    0.000    0.000    0.000    0.000 
#    0.000    0.000    0.000    0.000    0.000    0.000 
#
# Total GULP energy -200483.067084 kJ/mol
# GULP energy per Si atom -5568.974086 kJ/mol
# Density = 1.901904 g / cm^3
# Si number density = 19.062432 Si / 1000 Ang^3
#
#
#
# Elastic Constant Matrix: (Units=GPa)
#
#
# Indices 1 2 3 4 5 6 
#
# 1 138.8672 62.9103 60.6553 0.0000 0.0000 0.0000
# 2 62.9103 110.1760 27.2772 0.0000 0.0000 0.0000
# 3 60.6553 27.2772 107.6204 0.0000 0.0000 0.0000
# 4 0.0000 0.0000 0.0000 31.3216 0.0000 0.0000
# 5 0.0000 0.0000 0.0000 0.0000 -11.9560 0.0000
# 6 0.0000 0.0000 0.0000 0.0000 0.0000 11.3447
#
#
#
# Elastic Compliance Matrix: (Units=1/GPa)
#
#
# Indices 1 2 3 4 5 6 
#
# 1 0.012078 -0.005560 -0.005398 0.000000 0.000000 0.000000
# 2 -0.005560 0.012244 0.000030 0.000000 0.000000 0.000000
# 3 -0.005398 0.000030 0.012326 0.000000 0.000000 0.000000
# 4 0.000000 0.000000 0.000000 0.031927 0.000000 0.000000
# 5 0.000000 0.000000 0.000000 0.000000 -0.083640 0.000000
# 6 0.000000 0.000000 0.000000 0.000000 0.000000 0.088147
#
#
# Mechanical properties :
#
#
# Convention : Reuss Voigt Hill
#
# Bulk Modulus (GPa) = 67.59977 73.14989 70.37483
# Shear Modulus (GPa) = 50.06657 19.86344 34.96501
#
# Velocity S-wave (km/s) = 5.13045 3.23154 4.28745
# Velocity P-wave (km/s) = 8.40444 7.23747 7.84269
#
# Compressibility (1/GPa) = 0.01479295
#
# Stress axis : x y z
#
# Youngs Moduli (GPa) = 82.79804 81.67552 81.12647
#
# Poissons Ratio (x) = 0.45411 0.43790
# Poissons Ratio (y) = 0.46035 -0.00246
# Poissons Ratio (z) = 0.44693 -0.00248
#
# Static dielectric constant tensor:
#      x y z
#    x 1.663020 0.000000 0.000000 
#    y 0.000000 1.796860 0.000000 
#    z 0.000000 0.000000 1.659750 
# 
# From -- ./inp_files/19137.got.cif
#   From: 2010.05.17/outbox.cif.g08.bks.cpg/sg52_10_cif.got.tgz:19137.got - 2010.06.03 12:15:38.
