data_PCOD9410859
_publ_section_title
;
Structure prediction by ZEFSAII (Michael W. Deem and Ramdas Pophale) SiO2 
 PCOD9410859
Probable space group: P N N A
;
_chemical_formula_sum "Si O2"
_cell_formula_units_Z 36
_cell_length_a 5.145503
_cell_length_b 17.258739
_cell_length_c 19.405623
_cell_angle_alpha 90.000000
_cell_angle_beta 90.000000
_cell_angle_gamma 90.000000
_cell_volume 1723.314280
_symmetry_space_group_name_H-M "P N N A"
_symmetry_group_IT_number 52
_symmetry_cell_setting 'orthorhombic'
loop_
_space_group_symop_operation_xyz
x,y,z
1/2-x,-y,z
x,1/2-y,1/2-z
1/2-x,1/2+y,1/2-z
-x,-y,-z
1/2+x,y,-z
-x,1/2+y,1/2+z
1/2+x,1/2-y,1/2+z
loop_
_atom_site_type_symbol
_atom_site_label
_atom_site_fract_x
_atom_site_fract_y
_atom_site_fract_z
Si Si1 0.619226 0.278903 0.175667
Si Si2 0.499484 0.619838 0.637104
Si Si3 0.651444 0.713124 0.451679
Si Si4 0.508696 0.449411 0.214596
Si Si5 0.750000 0.000000 0.952985
O O1 0.732859 0.250000 0.250000
O O2 0.423136 0.207414 0.158950
O O3 0.813189 0.274722 0.110564
O O4 0.500917 0.363853 0.181453
O O5 0.247242 0.635823 0.589508
O O6 0.443136 0.571019 0.704956
O O7 0.712451 0.574643 0.594661
O O8 0.880654 0.719690 0.509056
O O9 0.250000 0.500000 0.207696
O O10 0.750000 0.500000 0.188697
O O11 0.500000 0.000000 0.000000
#
# Coordination Sequence:
#
# PCOD9410859 Si02
#       5
#     8   8   8   8   4
#     4   8  20  44  62  93 124 172 214 262 312 385
#     4   9  21  41  60  91 129 166 205 245 315 384
#     4  10  21  38  64  91 124 164 208 251 311 380
#     4  11  23  41  64  91 122 163 213 271 316 365
#     4  12  24  36  58  94 134 166 196 244 310 388
#
# _framework density 20.889980000000001
#
# number of rings (size 3 to 8) (size 9 to 14) (size 15 to 20)
#    1.333    0.889    1.111    1.333    1.556    3.556 
#    0.000    4.444    0.000    4.000    0.000    0.000 
#    0.000    0.000    0.000    0.000    0.000    0.000 
#
# Total GULP energy -200632.674236 kJ/mol
# GULP energy per Si atom -5573.129840 kJ/mol
# Density = 2.084243 g / cm^3
# Si number density = 20.889980 Si / 1000 Ang^3
#
#
#
# Elastic Constant Matrix: (Units=GPa)
#
#
# Indices 1 2 3 4 5 6 
#
# 1 76.4385 52.6728 28.7898 0.0000 0.0000 0.0000
# 2 52.6728 165.8158 36.3845 0.0000 0.0000 0.0000
# 3 28.7898 36.3845 91.8508 0.0000 0.0000 0.0000
# 4 0.0000 0.0000 0.0000 22.3386 0.0000 0.0000
# 5 0.0000 0.0000 0.0000 0.0000 11.5146 0.0000
# 6 0.0000 0.0000 0.0000 0.0000 0.0000 9.4927
#
#
#
# Elastic Compliance Matrix: (Units=1/GPa)
#
#
# Indices 1 2 3 4 5 6 
#
# 1 0.017804 -0.004853 -0.003658 0.000000 0.000000 0.000000
# 2 -0.004853 0.007928 -0.001619 0.000000 0.000000 0.000000
# 3 -0.003658 -0.001619 0.012675 0.000000 0.000000 0.000000
# 4 0.000000 0.000000 0.000000 0.044766 0.000000 0.000000
# 5 0.000000 0.000000 0.000000 0.000000 0.086846 0.000000
# 6 0.000000 0.000000 0.000000 0.000000 0.000000 0.105344
#
#
# Mechanical properties :
#
#
# Convention : Reuss Voigt Hill
#
# Bulk Modulus (GPa) = 55.10724 63.31104 59.20914
# Shear Modulus (GPa) = 16.57424 23.08638 19.83031
#
# Velocity S-wave (km/s) = 2.81980 3.32797 3.08437
# Velocity P-wave (km/s) = 6.08595 6.71862 6.41009
#
# Compressibility (1/GPa) = 0.01814644
#
# Stress axis : x y z
#
# Youngs Moduli (GPa) = 56.16595 126.14017 78.89369
#
# Poissons Ratio (x) = 0.61216 0.28861
# Poissons Ratio (y) = 0.27257 0.12775
# Poissons Ratio (z) = 0.20547 0.20425
#
# Static dielectric constant tensor:
#      x y z
#    x 1.764170 0.000000 0.000000 
#    y 0.000000 1.803850 0.000000 
#    z 0.000000 0.000000 1.809220 
# 
# From -- ./inp_files/34944.got.cif
#   From: 2010.05.17/outbox.cif.g08.bks.cpg/sg52_18_cif.got.tgz:34944.got - 2010.06.03 12:15:38.
