data_PCOD9410712
_publ_section_title
;
Structure prediction by ZEFSAII (Michael W. Deem and Ramdas Pophale) SiO2 
 PCOD9410712
Probable space group: P N N A
;
_chemical_formula_sum "Si O2"
_cell_formula_units_Z 32
_cell_length_a 21.908743
_cell_length_b 4.734758
_cell_length_c 13.127298
_cell_angle_alpha 90.000000
_cell_angle_beta 90.000000
_cell_angle_gamma 90.000000
_cell_volume 1361.728702
_symmetry_space_group_name_H-M "P N N A"
_symmetry_group_IT_number 52
_symmetry_cell_setting 'orthorhombic'
loop_
_space_group_symop_operation_xyz
x,y,z
1/2-x,-y,z
x,1/2-y,1/2-z
1/2-x,1/2+y,1/2-z
-x,-y,-z
1/2+x,y,-z
-x,1/2+y,1/2+z
1/2+x,1/2-y,1/2+z
loop_
_atom_site_type_symbol
_atom_site_label
_atom_site_fract_x
_atom_site_fract_y
_atom_site_fract_z
Si Si1 0.557228 0.079883 0.644903
Si Si2 0.921736 0.050105 0.349121
Si Si3 0.611233 0.072402 0.022050
Si Si4 0.812598 0.639249 0.864733
O O1 0.559183 0.250000 0.750000
O O2 0.491654 0.937083 0.647785
O O3 0.558524 0.296406 0.550395
O O4 0.625201 0.947081 0.639963
O O5 0.914138 0.250000 0.250000
O O6 0.906674 0.266650 0.440129
O O7 0.882729 0.775160 0.378423
O O8 0.668622 0.124135 0.947592
O O9 0.750000 0.500000 0.896716
O O10 0.803627 0.750000 0.750000
#
# Coordination Sequence:
#
# PCOD9410712 Si02
#       4
#     8   8   8   8
#     4   8  18  36  56  89 123 156 196 245 311 374
#     4  11  21  37  59  89 122 158 200 253 301 360
#     4  10  21  37  60  86 122 158 200 244 308 363
#     4   9  20  38  57  89 122 156 197 246 302 369
#
# _framework density 23.499541000000001
#
# number of rings (size 3 to 8) (size 9 to 14) (size 15 to 20)
#    1.500    1.000    0.000    2.250    0.000    2.000 
#    0.000    6.250    0.000    3.000    0.000    0.000 
#    0.000    0.000    0.000    0.000    0.000    0.000 
#
# Total GULP energy -178253.638184 kJ/mol
# GULP energy per Si atom -5570.426193 kJ/mol
# Density = 2.344605 g / cm^3
# Si number density = 23.499541 Si / 1000 Ang^3
#
#
#
# Elastic Constant Matrix: (Units=GPa)
#
#
# Indices 1 2 3 4 5 6 
#
# 1 127.9220 41.0539 37.1907 0.0000 0.0000 0.0000
# 2 41.0539 88.6718 25.3039 0.0000 0.0000 0.0000
# 3 37.1907 25.3039 114.6910 0.0000 0.0000 0.0000
# 4 0.0000 0.0000 0.0000 42.6392 0.0000 0.0000
# 5 0.0000 0.0000 0.0000 0.0000 27.9803 0.0000
# 6 0.0000 0.0000 0.0000 0.0000 0.0000 16.0720
#
#
#
# Elastic Compliance Matrix: (Units=1/GPa)
#
#
# Indices 1 2 3 4 5 6 
#
# 1 0.009720 -0.003843 -0.002304 0.000000 0.000000 0.000000
# 2 -0.003843 0.013555 -0.001744 0.000000 0.000000 0.000000
# 3 -0.002304 -0.001744 0.009851 0.000000 0.000000 0.000000
# 4 0.000000 0.000000 0.000000 0.023453 0.000000 0.000000
# 5 0.000000 0.000000 0.000000 0.000000 0.035739 0.000000
# 6 0.000000 0.000000 0.000000 0.000000 0.000000 0.062220
#
#
# Mechanical properties :
#
#
# Convention : Reuss Voigt Hill
#
# Bulk Modulus (GPa) = 57.65954 59.82021 58.73988
# Shear Modulus (GPa) = 28.39262 32.52072 30.45667
#
# Velocity S-wave (km/s) = 3.47972 3.72410 3.60398
# Velocity P-wave (km/s) = 6.38234 6.63348 6.50912
#
# Compressibility (1/GPa) = 0.01734318
#
# Stress axis : x y z
#
# Youngs Moduli (GPa) = 102.87582 73.77606 101.51143
#
# Poissons Ratio (x) = 0.28351 0.23390
# Poissons Ratio (y) = 0.39534 0.17707
# Poissons Ratio (z) = 0.23705 0.12869
#
# Static dielectric constant tensor:
#      x y z
#    x 1.866030 0.000000 0.000000 
#    y 0.000000 2.032390 0.000000 
#    z 0.000000 0.000000 1.945700 
# 
# From -- ./inp_files/28939.got.cif
#   From: 2010.05.17/outbox.cif.g08.bks.cpg/sg52_15_cif.got.tgz:28939.got - 2010.06.03 12:15:38.
