data_PCOD9410481
_publ_section_title
;
Structure prediction by ZEFSAII (Michael W. Deem and Ramdas Pophale) SiO2 
 PCOD9410481
Probable space group: P N N A
;
_chemical_formula_sum "Si O2"
_cell_formula_units_Z 36
_cell_length_a 20.828565
_cell_length_b 11.635612
_cell_length_c 6.028898
_cell_angle_alpha 90.000000
_cell_angle_beta 90.000000
_cell_angle_gamma 90.000000
_cell_volume 1461.122125
_symmetry_space_group_name_H-M "P N N A"
_symmetry_group_IT_number 52
_symmetry_cell_setting 'orthorhombic'
loop_
_space_group_symop_operation_xyz
x,y,z
1/2-x,-y,z
x,1/2-y,1/2-z
1/2-x,1/2+y,1/2-z
-x,-y,-z
1/2+x,y,-z
-x,1/2+y,1/2+z
1/2+x,1/2-y,1/2+z
loop_
_atom_site_type_symbol
_atom_site_label
_atom_site_fract_x
_atom_site_fract_y
_atom_site_fract_z
Si Si1 0.707896 0.750000 0.250000
Si Si2 0.596736 0.146118 0.082719
Si Si3 0.205703 0.750000 0.250000
Si Si4 0.101760 0.563666 0.852833
Si Si5 0.995653 0.250000 0.250000
Si Si6 0.673809 0.500928 0.743140
O O1 0.738320 0.757970 0.501653
O O2 0.663146 0.635409 0.240857
O O3 0.613885 0.250000 0.250000
O O4 0.570927 0.030315 0.195157
O O5 0.542154 0.188967 0.920714
O O6 0.655484 0.090706 0.942101
O O7 0.162101 0.637568 0.283830
O O8 0.049501 0.662132 0.885912
O O9 0.129920 0.482041 0.044484
O O10 0.750000 0.500000 0.781371
#
# Coordination Sequence:
#
# PCOD9410481 Si02
#       6
#     4   8   4   8   4   8
#     4   9  18  40  70 105 140 197 252 321 370 473
#     4  12  26  46  72 115 158 199 258 331 410 480
#     4  10  20  43  72 103 148 200 266 316 386 472
#     4  10  23  46  74 109 148 200 264 321 400 472
#     4  11  26  47  80 112 152 203 260 341 396 483
#     4  11  26  48  76 111 153 210 266 329 401 491
#
# _framework density 24.638596
#
# number of rings (size 3 to 8) (size 9 to 14) (size 15 to 20)
#    0.000    1.333    2.222    2.000    0.000    8.889 
#    6.000    0.000    7.333    0.000    0.000    0.000 
#    0.000    0.000    0.000    0.000    0.000    0.000 
#
# Total GULP energy -200648.652436 kJ/mol
# GULP energy per Si atom -5573.573679 kJ/mol
# Density = 2.458252 g / cm^3
# Si number density = 24.638596 Si / 1000 Ang^3
#
#
#
# Elastic Constant Matrix: (Units=GPa)
#
#
# Indices 1 2 3 4 5 6 
#
# 1 93.3401 43.5153 25.5543 0.0000 0.0000 0.0000
# 2 43.5153 128.9349 12.5571 0.0000 0.0000 0.0000
# 3 25.5543 12.5571 98.4512 0.0000 0.0000 0.0000
# 4 0.0000 0.0000 0.0000 61.6582 0.0000 0.0000
# 5 0.0000 0.0000 0.0000 0.0000 -3.4900 0.0000
# 6 0.0000 0.0000 0.0000 0.0000 0.0000 -821.1616
#
#
#
# Elastic Compliance Matrix: (Units=1/GPa)
#
#
# Indices 1 2 3 4 5 6 
#
# 1 0.013517 -0.004273 -0.002963 0.000000 0.000000 0.000000
# 2 -0.004273 0.009204 -0.000065 0.000000 0.000000 0.000000
# 3 -0.002963 -0.000065 0.010935 0.000000 0.000000 0.000000
# 4 0.000000 0.000000 0.000000 0.016218 0.000000 0.000000
# 5 0.000000 0.000000 0.000000 0.000000 -0.286531 0.000000
# 6 0.000000 0.000000 0.000000 0.000000 0.000000 -0.001218
#
#
# Mechanical properties :
#
#
# Convention : Reuss Voigt Hill
#
# Bulk Modulus (GPa) = 52.48513 53.77552 53.13032
# Shear Modulus (GPa) = -23.05005 -136.65872 -79.85438
#
# Velocity S-wave (km/s) = -3.06196 -7.45558 -5.69918
# Velocity P-wave (km/s) = 2.97447 7.22781 4.65799
#
# Compressibility (1/GPa) = 0.01905302
#
# Stress axis : x y z
#
# Youngs Moduli (GPa) = 73.98042 108.64340 91.45127
#
# Poissons Ratio (x) = 0.46427 0.27101
# Poissons Ratio (y) = 0.31615 0.00592
# Poissons Ratio (z) = 0.21924 0.00704
#
# Static dielectric constant tensor:
#      x y z
#    x 1.916680 0.000000 0.000000 
#    y 0.000000 1.928380 0.000000 
#    z 0.000000 0.000000 1.902450 
# 
# From -- ./inp_files/4962.got.cif
#   From: 2010.05.17/outbox.cif.g08.bks.cpg/sg52_3_cif.got.tgz:4962.got - 2010.06.03 12:15:38.
