data_PCOD9410012
_publ_section_title
;
Structure prediction by ZEFSAII (Michael W. Deem and Ramdas Pophale) SiO2 
 PCOD9410012
Probable space group: P N N A
;
_chemical_formula_sum "Si O2"
_cell_formula_units_Z 48
_cell_length_a 9.745134
_cell_length_b 14.704482
_cell_length_c 15.678707
_cell_angle_alpha 90.000000
_cell_angle_beta 90.000000
_cell_angle_gamma 90.000000
_cell_volume 2246.713989
_symmetry_space_group_name_H-M "P N N A"
_symmetry_group_IT_number 52
_symmetry_cell_setting 'orthorhombic'
loop_
_space_group_symop_operation_xyz
x,y,z
1/2-x,-y,z
x,1/2-y,1/2-z
1/2-x,1/2+y,1/2-z
-x,-y,-z
1/2+x,y,-z
-x,1/2+y,1/2+z
1/2+x,1/2-y,1/2+z
loop_
_atom_site_type_symbol
_atom_site_label
_atom_site_fract_x
_atom_site_fract_y
_atom_site_fract_z
Si Si1 0.882705 0.559017 0.218412
Si Si2 0.555377 0.685539 0.332785
Si Si3 0.382706 0.559018 0.218410
Si Si4 0.055379 0.685539 0.332785
Si Si5 0.191367 0.274631 0.095353
Si Si6 0.308632 0.774631 0.595356
O O1 0.750000 0.500000 0.243675
O O2 0.820403 0.640392 0.160451
O O3 0.999999 0.500000 0.169486
O O4 0.974984 0.598756 0.296029
O O5 0.556581 0.750000 0.250000
O O6 0.474982 0.598755 0.296028
O O7 0.458679 0.731446 0.402346
O O8 0.707652 0.695919 0.368951
O O9 0.250000 0.500000 0.243672
O O10 0.320405 0.640392 0.160449
O O11 0.056589 0.750000 0.250000
O O12 0.207652 0.695918 0.368954
O O13 0.958678 0.731448 0.402344
O O14 0.230664 0.302504 0.999999
#
# Coordination Sequence:
#
# PCOD9410012 Si02
#       6
#     8   8   8   8   8   8
#     4  11  22  37  61  90 120 154 195 247 299 348
#     4  10  20  38  59  81 114 160 206 232 273 355
#     4  11  22  37  61  90 120 154 195 247 299 348
#     4  10  20  38  59  81 114 160 206 232 273 355
#     4  11  22  37  60  88 119 155 194 241 295 351
#     4  11  22  37  60  88 119 155 194 241 295 351
#
# _framework density 21.364536000000001
#
# number of rings (size 3 to 8) (size 9 to 14) (size 15 to 20)
#    0.000    1.333    0.000   10.000    0.000    1.333 
#    0.000    0.000    0.000   20.000    0.000    0.000 
#    0.000    0.000    0.000    0.000    0.000    0.000 
#
# Total GULP energy -267399.490345 kJ/mol
# GULP energy per Si atom -5570.822716 kJ/mol
# Density = 2.131591 g / cm^3
# Si number density = 21.364536 Si / 1000 Ang^3
#
#
#
# Elastic Constant Matrix: (Units=GPa)
#
#
# Indices 1 2 3 4 5 6 
#
# 1 143.0860 28.1531 22.2946 0.0000 0.0000 0.0000
# 2 28.1531 74.0164 26.1062 0.0000 0.0000 0.0000
# 3 22.2946 26.1062 70.4444 0.0000 0.0000 0.0000
# 4 0.0000 0.0000 0.0000 6.7391 0.0000 0.0000
# 5 0.0000 0.0000 0.0000 0.0000 18.4723 0.0000
# 6 0.0000 0.0000 0.0000 0.0000 0.0000 50.4933
#
#
#
# Elastic Compliance Matrix: (Units=1/GPa)
#
#
# Indices 1 2 3 4 5 6 
#
# 1 0.007699 -0.002380 -0.001555 0.000000 0.000000 0.000000
# 2 -0.002380 0.016278 -0.005279 0.000000 0.000000 0.000000
# 3 -0.001555 -0.005279 0.016644 0.000000 0.000000 0.000000
# 4 0.000000 0.000000 0.000000 0.148387 0.000000 0.000000
# 5 0.000000 0.000000 0.000000 0.000000 0.054135 0.000000
# 6 0.000000 0.000000 0.000000 0.000000 0.000000 0.019805
#
#
# Mechanical properties :
#
#
# Convention : Reuss Voigt Hill
#
# Bulk Modulus (GPa) = 45.05877 48.96160 47.01019
# Shear Modulus (GPa) = 17.31459 29.20715 23.26087
#
# Velocity S-wave (km/s) = 2.84990 3.70142 3.30322
# Velocity P-wave (km/s) = 5.65380 6.42140 6.04979
#
# Compressibility (1/GPa) = 0.02219324
#
# Stress axis : x y z
#
# Youngs Moduli (GPa) = 129.88094 61.43316 60.08159
#
# Poissons Ratio (x) = 0.14622 0.09341
# Poissons Ratio (y) = 0.30914 0.31718
# Poissons Ratio (z) = 0.20192 0.32431
#
# Static dielectric constant tensor:
#      x y z
#    x 1.776200 0.000000 0.000000 
#    y 0.000000 1.889080 0.000000 
#    z 0.000000 0.000000 1.781980 
# 
# From -- ./inp_files/31243.got.cif
#   From: 2010.05.17/outbox.cif.g08.bks.cpg/sg52_16_cif.got.tgz:31243.got - 2010.06.03 12:15:38.
