data_PCOD9410151
_publ_section_title
;
Structure prediction by ZEFSAII (Michael W. Deem and Ramdas Pophale) SiO2 
 PCOD9410151
Probable space group: P N N A
;
_chemical_formula_sum "Si O2"
_cell_formula_units_Z 56
_cell_length_a 15.355381
_cell_length_b 9.460684
_cell_length_c 18.918299
_cell_angle_alpha 90.000000
_cell_angle_beta 90.000000
_cell_angle_gamma 90.000000
_cell_volume 2748.306839
_symmetry_space_group_name_H-M "P N N A"
_symmetry_group_IT_number 52
_symmetry_cell_setting 'orthorhombic'
loop_
_space_group_symop_operation_xyz
x,y,z
1/2-x,-y,z
x,1/2-y,1/2-z
1/2-x,1/2+y,1/2-z
-x,-y,-z
1/2+x,y,-z
-x,1/2+y,1/2+z
1/2+x,1/2-y,1/2+z
loop_
_atom_site_type_symbol
_atom_site_label
_atom_site_fract_x
_atom_site_fract_y
_atom_site_fract_z
Si Si1 0.063311 0.250000 0.750000
Si Si2 0.933379 0.340115 0.640680
Si Si3 0.113676 0.149427 0.127885
Si Si4 0.480183 0.250000 0.750000
Si Si5 0.634022 0.556584 0.034956
Si Si6 0.034774 0.272454 0.993897
Si Si7 0.345559 0.485865 0.804510
Si Si8 0.220116 0.849047 0.389147
O O1 0.116618 0.355505 0.799764
O O2 0.000585 0.346990 0.703921
O O3 0.877836 0.482618 0.639114
O O4 0.867420 0.209035 0.646201
O O5 0.992654 0.307155 0.572279
O O6 0.202436 0.239073 0.124712
O O7 0.045013 0.211407 0.185082
O O8 0.072665 0.166215 0.050458
O O9 0.414754 0.378832 0.769490
O O10 0.607061 0.392825 0.022258
O O11 0.666686 0.566951 0.114876
O O12 0.544005 0.641741 0.029865
O O13 0.693391 0.620897 0.971860
O O14 0.250000 0.500000 0.770075
O O15 0.250000 0.000000 0.360341
#
# Coordination Sequence:
#
# PCOD9410151 Si02
#       8
#     4   8   8   4   8   8   8   8
#     4  12  25  45  68  96 134 188 234 277 355 430
#     4  11  25  42  67  98 142 184 232 282 358 416
#     4  12  24  44  67  99 149 180 234 286 351 417
#     4  12  27  45  70 102 136 196 230 283 357 420
#     4  10  20  39  70 105 127 170 236 292 341 400
#     4  10  20  38  68  97 129 179 229 284 341 413
#     4  12  25  45  70  99 140 176 232 295 348 422
#     4  11  24  40  69 105 134 175 235 290 339 407
#
# _framework density 20.376182
#
# number of rings (size 3 to 8) (size 9 to 14) (size 15 to 20)
#    0.000    0.857    5.714    1.714    2.000    0.571 
#    0.000    0.000    0.000    0.000    0.000    0.000 
#    0.000    0.000    0.000    0.000    0.000    0.000 
#
# Total GULP energy -312572.147719 kJ/mol
# GULP energy per Si atom -5581.645495 kJ/mol
# Density = 2.032980 g / cm^3
# Si number density = 20.376182 Si / 1000 Ang^3
#
#
#
# Elastic Constant Matrix: (Units=GPa)
#
#
# Indices 1 2 3 4 5 6 
#
# 1 103.9301 20.0222 21.4437 0.0000 0.0000 0.0000
# 2 20.0222 93.3001 6.8748 0.0000 0.0000 0.0000
# 3 21.4437 6.8748 47.1618 0.0000 0.0000 0.0000
# 4 0.0000 0.0000 0.0000 11.0506 0.0000 0.0000
# 5 0.0000 0.0000 0.0000 0.0000 -74.9687 0.0000
# 6 0.0000 0.0000 0.0000 0.0000 0.0000 42.7474
#
#
#
# Elastic Compliance Matrix: (Units=1/GPa)
#
#
# Indices 1 2 3 4 5 6 
#
# 1 0.010979 -0.002010 -0.004699 0.000000 0.000000 0.000000
# 2 -0.002010 0.011202 -0.000719 0.000000 0.000000 0.000000
# 3 -0.004699 -0.000719 0.023445 0.000000 0.000000 0.000000
# 4 0.000000 0.000000 0.000000 0.090493 0.000000 0.000000
# 5 0.000000 0.000000 0.000000 0.000000 -0.013339 0.000000
# 6 0.000000 0.000000 0.000000 0.000000 0.000000 0.023393
#
#
# Mechanical properties :
#
#
# Convention : Reuss Voigt Hill
#
# Bulk Modulus (GPa) = 32.49881 37.89706 35.19793
# Shear Modulus (GPa) = 29.19101 8.83592 19.01346
#
# Velocity S-wave (km/s) = 3.78908 2.08466 3.05802
# Velocity P-wave (km/s) = 5.92680 4.94302 5.45712
#
# Compressibility (1/GPa) = 0.03077035
#
# Stress axis : x y z
#
# Youngs Moduli (GPa) = 91.08687 89.26668 42.65321
#
# Poissons Ratio (x) = 0.17941 0.20042
# Poissons Ratio (y) = 0.18306 0.03067
# Poissons Ratio (z) = 0.42800 0.06420
#
# Static dielectric constant tensor:
#      x y z
#    x 1.729070 0.000000 0.000000 
#    y 0.000000 1.711720 0.000000 
#    z 0.000000 0.000000 1.719150 
# 
# From -- ./inp_files/37363.got.cif
#   From: 2010.05.17/outbox.cif.g08.bks.cpg/sg52_19_cif.got.tgz:37363.got - 2010.06.03 12:15:38.
