data_PCOD9410779
_publ_section_title
;
Structure prediction by ZEFSAII (Michael W. Deem and Ramdas Pophale) SiO2 
 PCOD9410779
Probable space group: P N N A
;
_chemical_formula_sum "Si O2"
_cell_formula_units_Z 40
_cell_length_a 17.012106
_cell_length_b 9.174961
_cell_length_c 13.349012
_cell_angle_alpha 90.000000
_cell_angle_beta 90.000000
_cell_angle_gamma 90.000000
_cell_volume 2083.585999
_symmetry_space_group_name_H-M "P N N A"
_symmetry_group_IT_number 52
_symmetry_cell_setting 'orthorhombic'
loop_
_space_group_symop_operation_xyz
x,y,z
1/2-x,-y,z
x,1/2-y,1/2-z
1/2-x,1/2+y,1/2-z
-x,-y,-z
1/2+x,y,-z
-x,1/2+y,1/2+z
1/2+x,1/2-y,1/2+z
loop_
_atom_site_type_symbol
_atom_site_label
_atom_site_fract_x
_atom_site_fract_y
_atom_site_fract_z
Si Si1 0.225833 0.156675 0.506061
Si Si2 0.555445 0.401694 0.929204
Si Si3 0.698716 0.866176 0.164319
Si Si4 0.048315 0.861608 0.962595
Si Si5 0.368010 0.320032 0.141499
O O1 0.133829 0.154366 0.484556
O O2 0.250135 0.284335 0.579806
O O3 0.281014 0.166425 0.407143
O O4 0.250000 0.000000 0.551268
O O5 0.504588 0.259182 0.904713
O O6 0.590468 0.520872 0.852295
O O7 0.500000 0.500000 0.000000
O O8 0.681079 0.750000 0.250000
O O9 0.618624 0.910916 0.109554
O O10 0.750000 0.000000 0.202726
O O11 0.084881 0.777576 0.059572
O O12 0.000000 0.000000 0.000000
O O13 0.366093 0.250000 0.250000
#
# Coordination Sequence:
#
# PCOD9410779 Si02
#       5
#     8   8   8   8   8
#     4   9  18  37  59  80 112 150 189 234 283 340
#     4   9  18  35  58  81 110 148 186 230 285 333
#     4  11  23  38  58  83 111 149 191 231 282 343
#     4  10  21  38  58  84 116 144 184 240 291 337
#     4   9  19  36  58  82 111 151 191 227 279 347
#
# _framework density 19.197671
#
# number of rings (size 3 to 8) (size 9 to 14) (size 15 to 20)
#    0.000    2.400    0.000    3.000    0.000    1.600 
#    0.000   26.000    0.000    0.000    0.000    0.000 
#    0.000    0.000    0.000    0.000    0.000    0.000 
#
# Total GULP energy -223028.302362 kJ/mol
# GULP energy per Si atom -5575.707559 kJ/mol
# Density = 1.915398 g / cm^3
# Si number density = 19.197671 Si / 1000 Ang^3
#
#
#
# Elastic Constant Matrix: (Units=GPa)
#
#
# Indices 1 2 3 4 5 6 
#
# 1 134.9253 44.2752 32.1780 0.0000 0.0000 0.0000
# 2 44.2752 87.0167 26.5594 0.0000 0.0000 0.0000
# 3 32.1780 26.5594 81.5820 0.0000 0.0000 0.0000
# 4 0.0000 0.0000 0.0000 28.4565 0.0000 0.0000
# 5 0.0000 0.0000 0.0000 0.0000 -10.1159 0.0000
# 6 0.0000 0.0000 0.0000 0.0000 0.0000 38.2867
#
#
#
# Elastic Compliance Matrix: (Units=1/GPa)
#
#
# Indices 1 2 3 4 5 6 
#
# 1 0.009289 -0.004006 -0.002360 0.000000 0.000000 0.000000
# 2 -0.004006 0.014488 -0.003136 0.000000 0.000000 0.000000
# 3 -0.002360 -0.003136 0.014209 0.000000 0.000000 0.000000
# 4 0.000000 0.000000 0.000000 0.035141 0.000000 0.000000
# 5 0.000000 0.000000 0.000000 0.000000 -0.098854 0.000000
# 6 0.000000 0.000000 0.000000 0.000000 0.000000 0.026119
#
#
# Mechanical properties :
#
#
# Convention : Reuss Voigt Hill
#
# Bulk Modulus (GPa) = 52.68219 56.61655 54.64937
# Shear Modulus (GPa) = 194.37621 24.69289 109.53455
#
# Velocity S-wave (km/s) = 10.07322 3.59031 7.56175
# Velocity P-wave (km/s) = 12.75909 6.83685 10.23565
#
# Compressibility (1/GPa) = 0.01898175
#
# Stress axis : x y z
#
# Youngs Moduli (GPa) = 107.65646 69.02410 70.37618
#
# Poissons Ratio (x) = 0.27652 0.16606
# Poissons Ratio (y) = 0.43128 0.22073
# Poissons Ratio (z) = 0.25402 0.21649
#
# Static dielectric constant tensor:
#      x y z
#    x 1.707670 0.000000 0.000000 
#    y 0.000000 1.679800 0.000000 
#    z 0.000000 0.000000 1.674510 
# 
# From -- ./inp_files/20279.got.cif
#   From: 2010.05.17/outbox.cif.g08.bks.cpg/sg52_11_cif.got.tgz:20279.got - 2010.06.03 12:15:38.
