data_PCOD9410734
_publ_section_title
;
Structure prediction by ZEFSAII (Michael W. Deem and Ramdas Pophale) SiO2 
 PCOD9410734
Probable space group: P N N A
;
_chemical_formula_sum "Si O2"
_cell_formula_units_Z 48
_cell_length_a 10.754245
_cell_length_b 19.603277
_cell_length_c 9.382172
_cell_angle_alpha 90.000000
_cell_angle_beta 90.000000
_cell_angle_gamma 90.000000
_cell_volume 1977.934899
_symmetry_space_group_name_H-M "P N N A"
_symmetry_group_IT_number 52
_symmetry_cell_setting 'orthorhombic'
loop_
_space_group_symop_operation_xyz
x,y,z
1/2-x,-y,z
x,1/2-y,1/2-z
1/2-x,1/2+y,1/2-z
-x,-y,-z
1/2+x,y,-z
-x,1/2+y,1/2+z
1/2+x,1/2-y,1/2+z
loop_
_atom_site_type_symbol
_atom_site_label
_atom_site_fract_x
_atom_site_fract_y
_atom_site_fract_z
Si Si1 0.342559 0.105713 0.039324
Si Si2 0.856387 0.233824 0.481684
Si Si3 0.399666 0.895506 0.861271
Si Si4 0.655166 0.250000 0.250000
Si Si5 0.735462 0.366493 0.814417
Si Si6 0.438715 0.750000 0.250000
Si Si7 0.379660 0.541030 0.947397
O O1 0.487192 0.085154 0.032719
O O2 0.297443 0.085710 0.197332
O O3 0.343716 0.188328 0.029681
O O4 0.235645 0.086897 0.927074
O O5 0.744832 0.218749 0.370889
O O6 0.839640 0.179830 0.607072
O O7 0.978869 0.231981 0.386302
O O8 0.409911 0.813957 0.825631
O O9 0.409589 0.930538 0.708484
O O10 0.646385 0.315308 0.727822
O O11 0.653940 0.403228 0.933028
O O12 0.250000 0.500000 0.936312
O O13 0.500000 0.500000 0.000000
#
# Coordination Sequence:
#
# PCOD9410734 Si02
#       7
#     8   8   8   4   8   4   8
#     4  11  24  41  70 111 146 190 233 315 398 457
#     4  10  21  37  62 107 155 185 226 295 395 463
#     4  11  25  47  72 108 155 192 258 312 388 463
#     4   9  20  37  64 106 142 194 226 312 384 436
#     4  12  24  44  70 112 152 195 254 316 382 466
#     4  11  24  37  70 110 154 192 236 320 394 440
#     4  12  30  53  79 107 149 214 271 313 370 461
#
# _framework density 24.267734000000001
#
# number of rings (size 3 to 8) (size 9 to 14) (size 15 to 20)
#    0.000    1.000    3.333    2.000    9.333    1.333 
#    0.000    4.167    0.000    0.000    0.000    0.000 
#    0.000    0.000    0.000    0.000    0.000    0.000 
#
# Total GULP energy -268644.259476 kJ/mol
# GULP energy per Si atom -5596.755406 kJ/mol
# Density = 2.421250 g / cm^3
# Si number density = 24.267734 Si / 1000 Ang^3
#
#
#
# Elastic Constant Matrix: (Units=GPa)
#
#
# Indices 1 2 3 4 5 6 
#
# 1 162.0917 32.4818 37.8461 0.0000 0.0000 0.0000
# 2 32.4818 52.5821 6.1439 0.0000 0.0000 0.0000
# 3 37.8461 6.1439 73.7392 0.0000 0.0000 0.0000
# 4 0.0000 0.0000 0.0000 26.7501 0.0000 0.0000
# 5 0.0000 0.0000 0.0000 0.0000 64.7177 0.0000
# 6 0.0000 0.0000 0.0000 0.0000 0.0000 22.4612
#
#
#
# Elastic Compliance Matrix: (Units=1/GPa)
#
#
# Indices 1 2 3 4 5 6 
#
# 1 0.007927 -0.004465 -0.003697 0.000000 0.000000 0.000000
# 2 -0.004465 0.021720 0.000482 0.000000 0.000000 0.000000
# 3 -0.003697 0.000482 0.015418 0.000000 0.000000 0.000000
# 4 0.000000 0.000000 0.000000 0.037383 0.000000 0.000000
# 5 0.000000 0.000000 0.000000 0.000000 0.015452 0.000000
# 6 0.000000 0.000000 0.000000 0.000000 0.000000 0.044521
#
#
# Mechanical properties :
#
#
# Convention : Reuss Voigt Hill
#
# Bulk Modulus (GPa) = 33.66306 49.03963 41.35134
# Shear Modulus (GPa) = 29.81823 36.91520 33.36672
#
# Velocity S-wave (km/s) = 3.50911 3.90444 3.71204
# Velocity P-wave (km/s) = 5.50637 6.37007 5.95390
#
# Compressibility (1/GPa) = 0.02970615
#
# Stress axis : x y z
#
# Youngs Moduli (GPa) = 126.14819 46.04104 64.85764
#
# Poissons Ratio (x) = 0.20557 0.23975
# Poissons Ratio (y) = 0.56325 -0.03126
# Poissons Ratio (z) = 0.46631 -0.02219
#
# Static dielectric constant tensor:
#      x y z
#    x 1.958630 0.000000 0.000000 
#    y 0.000000 1.958270 0.000000 
#    z 0.000000 0.000000 1.907280 
# 
# From -- ./inp_files/8891.got.cif
#   From: 2010.05.17/outbox.cif.g08.bks.cpg/sg52_5_cif.got.tgz:8891.got - 2010.06.03 12:15:38.
