data_PCOD9410586
_publ_section_title
;
Structure prediction by ZEFSAII (Michael W. Deem and Ramdas Pophale) SiO2 
 PCOD9410586
Probable space group: P N N A
;
_chemical_formula_sum "Si O2"
_cell_formula_units_Z 64
_cell_length_a 17.680791
_cell_length_b 20.252866
_cell_length_c 9.226371
_cell_angle_alpha 90.000000
_cell_angle_beta 90.000000
_cell_angle_gamma 90.000000
_cell_volume 3303.840660
_symmetry_space_group_name_H-M "P N N A"
_symmetry_group_IT_number 52
_symmetry_cell_setting 'orthorhombic'
loop_
_space_group_symop_operation_xyz
x,y,z
1/2-x,-y,z
x,1/2-y,1/2-z
1/2-x,1/2+y,1/2-z
-x,-y,-z
1/2+x,y,-z
-x,1/2+y,1/2+z
1/2+x,1/2-y,1/2+z
loop_
_atom_site_type_symbol
_atom_site_label
_atom_site_fract_x
_atom_site_fract_y
_atom_site_fract_z
Si Si1 0.829253 0.028050 0.699485
Si Si2 0.851028 0.234797 0.017971
Si Si3 0.997323 0.198721 0.500813
Si Si4 0.421092 0.837740 0.991300
Si Si5 0.247933 0.637277 0.015156
Si Si6 0.063490 0.859639 0.194432
Si Si7 0.397002 0.612901 0.182558
Si Si8 0.278969 0.823882 0.798733
O O1 0.799241 0.073553 0.566795
O O2 0.883121 0.077356 0.786345
O O3 0.750000 0.000000 0.766848
O O4 0.880027 0.964562 0.665935
O O5 0.798894 0.295498 0.970476
O O6 0.883861 0.193606 0.885247
O O7 0.925425 0.270064 0.081583
O O8 0.801398 0.188645 0.122549
O O9 0.056139 0.259739 0.513662
O O10 0.035027 0.139707 0.414049
O O11 0.968470 0.170930 0.655456
O O12 0.490951 0.871629 0.907610
O O13 0.342902 0.848699 0.906891
O O14 0.411587 0.864040 0.153712
O O15 0.320251 0.644003 0.118097
O O16 0.271346 0.633781 0.846909
O O17 0.302794 0.750000 0.750000
#
# Coordination Sequence:
#
# PCOD9410586 Si02
#       8
#     8   8   8   8   8   8   8   8
#     4  10  24  44  66  87 129 179 233 261 316 400
#     4  10  21  35  68  97 126 161 219 279 342 379
#     4  11  22  39  64  98 132 167 215 268 340 400
#     4  11  23  38  66 101 132 163 213 278 344 385
#     4  10  21  42  64  92 127 172 225 267 335 399
#     4  11  23  42  67  92 132 172 215 274 334 394
#     4  11  25  41  65  90 137 177 219 269 319 405
#     4  10  21  37  63  99 133 160 208 281 339 401
#
# _framework density 19.371395
#
# number of rings (size 3 to 8) (size 9 to 14) (size 15 to 20)
#    0.000    1.500    1.250    4.875    3.500    7.000 
#    0.000    0.000   11.000    0.000    0.000    0.000 
#    0.000    0.000    0.000    0.000    0.000    0.000 
#
# Total GULP energy -357230.934615 kJ/mol
# GULP energy per Si atom -5581.733353 kJ/mol
# Density = 1.932731 g / cm^3
# Si number density = 19.371395 Si / 1000 Ang^3
#
#
#
# Elastic Constant Matrix: (Units=GPa)
#
#
# Indices 1 2 3 4 5 6 
#
# 1 118.3125 61.1714 76.8015 0.0000 0.0000 0.0000
# 2 61.1714 83.0702 42.4534 0.0000 0.0000 0.0000
# 3 76.8015 42.4534 140.8287 0.0000 0.0000 0.0000
# 4 0.0000 0.0000 0.0000 1.0541 0.0000 0.0000
# 5 0.0000 0.0000 0.0000 0.0000 37.7721 0.0000
# 6 0.0000 0.0000 0.0000 0.0000 0.0000 17.1511
#
#
#
# Elastic Compliance Matrix: (Units=1/GPa)
#
#
# Indices 1 2 3 4 5 6 
#
# 1 0.017902 -0.009686 -0.006843 0.000000 0.000000 0.000000
# 2 -0.009686 0.019470 -0.000587 0.000000 0.000000 0.000000
# 3 -0.006843 -0.000587 0.011010 0.000000 0.000000 0.000000
# 4 0.000000 0.000000 0.000000 0.948698 0.000000 0.000000
# 5 0.000000 0.000000 0.000000 0.000000 0.026475 0.000000
# 6 0.000000 0.000000 0.000000 0.000000 0.000000 0.058305
#
#
# Mechanical properties :
#
#
# Convention : Reuss Voigt Hill
#
# Bulk Modulus (GPa) = 70.67087 78.11821 74.39454
# Shear Modulus (GPa) = 4.46106 21.98112 13.22109
#
# Velocity S-wave (km/s) = 1.51918 3.37222 2.61532
# Velocity P-wave (km/s) = 6.29591 7.45497 6.89982
#
# Compressibility (1/GPa) = 0.01415010
#
# Stress axis : x y z
#
# Youngs Moduli (GPa) = 55.85898 51.35978 90.82725
#
# Poissons Ratio (x) = 0.49745 0.62156
# Poissons Ratio (y) = 0.54103 0.05335
# Poissons Ratio (z) = 0.38226 0.03017
#
# Static dielectric constant tensor:
#      x y z
#    x 1.711400 0.000000 0.000000 
#    y 0.000000 1.677210 0.000000 
#    z 0.000000 0.000000 1.689380 
# 
# From -- ./inp_files/12608.got.cif
#   From: 2010.05.17/outbox.cif.g08.bks.cpg/sg52_7_cif.got.tgz:12608.got - 2010.06.03 12:15:38.
