data_PCOD9410889
_publ_section_title
;
Structure prediction by ZEFSAII (Michael W. Deem and Ramdas Pophale) SiO2 
 PCOD9410889
Probable space group: P N N A
;
_chemical_formula_sum "Si O2"
_cell_formula_units_Z 60
_cell_length_a 18.379297
_cell_length_b 9.071089
_cell_length_c 16.818825
_cell_angle_alpha 90.000000
_cell_angle_beta 90.000000
_cell_angle_gamma 90.000000
_cell_volume 2804.038521
_symmetry_space_group_name_H-M "P N N A"
_symmetry_group_IT_number 52
_symmetry_cell_setting 'orthorhombic'
loop_
_space_group_symop_operation_xyz
x,y,z
1/2-x,-y,z
x,1/2-y,1/2-z
1/2-x,1/2+y,1/2-z
-x,-y,-z
1/2+x,y,-z
-x,1/2+y,1/2+z
1/2+x,1/2-y,1/2+z
loop_
_atom_site_type_symbol
_atom_site_label
_atom_site_fract_x
_atom_site_fract_y
_atom_site_fract_z
Si Si1 0.574285 0.660151 0.174156
Si Si2 0.394067 0.098918 0.956080
Si Si3 0.929904 0.778688 0.032497
Si Si4 0.750000 0.500000 0.520305
Si Si5 0.335435 0.525027 0.938263
Si Si6 0.090345 0.453417 0.208027
Si Si7 0.364722 0.666116 0.371583
Si Si8 0.920080 0.334312 0.927549
O O1 0.600955 0.750000 0.250000
O O2 0.578179 0.778486 0.103352
O O3 0.628261 0.534709 0.142626
O O4 0.493252 0.600521 0.193715
O O5 0.430839 0.943914 0.934662
O O6 0.308019 0.076110 0.962131
O O7 0.406428 0.166400 0.044769
O O8 0.855825 0.695688 0.053845
O O9 0.993060 0.665918 0.057346
O O10 0.925937 0.809284 0.938673
O O11 0.704458 0.393430 0.579590
O O12 0.250000 0.500000 0.941850
O O13 0.375667 0.439495 0.011649
O O14 0.110275 0.441880 0.300623
O O15 0.141461 0.328524 0.167157
O O16 0.097327 0.605971 0.159996
#
# Coordination Sequence:
#
# PCOD9410889 Si02
#       8
#     8   8   8   4   8   8   8   8
#     4  11  23  44  71  96 133 174 232 286 359 411
#     4  10  25  39  71  94 137 181 231 287 346 417
#     4  11  21  43  68  97 137 175 236 283 337 404
#     4  10  24  48  58  98 140 182 226 264 354 432
#     4  11  24  39  67 101 130 181 231 281 342 423
#     4  11  21  40  67  98 134 175 231 289 341 404
#     4  10  21  38  66  93 137 180 214 283 350 400
#     4  11  22  39  66 103 126 179 237 279 331 411
#
# _framework density 21.397708999999999
#
# number of rings (size 3 to 8) (size 9 to 14) (size 15 to 20)
#    0.000    1.333    4.000    2.400    7.467    1.067 
#    7.200    2.667    0.000    0.000    0.000    0.000 
#    0.000    0.000    0.000    0.000    0.000    0.000 
#
# Total GULP energy -334604.861005 kJ/mol
# GULP energy per Si atom -5576.747683 kJ/mol
# Density = 2.134901 g / cm^3
# Si number density = 21.397709 Si / 1000 Ang^3
#
#
#
# Elastic Constant Matrix: (Units=GPa)
#
#
# Indices 1 2 3 4 5 6 
#
# 1 105.2805 16.2536 -0.0122 0.0000 0.0000 0.0000
# 2 16.2536 92.7661 18.6910 0.0000 0.0000 0.0000
# 3 -0.0122 18.6910 70.8413 0.0000 0.0000 0.0000
# 4 0.0000 0.0000 0.0000 41.4394 0.0000 0.0000
# 5 0.0000 0.0000 0.0000 0.0000 -22.1369 0.0000
# 6 0.0000 0.0000 0.0000 0.0000 0.0000 36.4229
#
#
#
# Elastic Compliance Matrix: (Units=1/GPa)
#
#
# Indices 1 2 3 4 5 6 
#
# 1 0.009778 -0.001810 0.000479 0.000000 0.000000 0.000000
# 2 -0.001810 0.011720 -0.003093 0.000000 0.000000 0.000000
# 3 0.000479 -0.003093 0.014932 0.000000 0.000000 0.000000
# 4 0.000000 0.000000 0.000000 0.024132 0.000000 0.000000
# 5 0.000000 0.000000 0.000000 0.000000 -0.045173 0.000000
# 6 0.000000 0.000000 0.000000 0.000000 0.000000 0.027455
#
#
# Mechanical properties :
#
#
# Convention : Reuss Voigt Hill
#
# Bulk Modulus (GPa) = 36.25325 37.63918 36.94622
# Shear Modulus (GPa) = 82.12310 26.74211 54.43261
#
# Velocity S-wave (km/s) = 6.20183 3.53904 5.04913
# Velocity P-wave (km/s) = 8.26214 5.85903 7.16209
#
# Compressibility (1/GPa) = 0.02758374
#
# Stress axis : x y z
#
# Youngs Moduli (GPa) = 102.27166 85.32436 66.96985
#
# Poissons Ratio (x) = 0.15441 -0.03209
# Poissons Ratio (y) = 0.18508 0.20711
# Poissons Ratio (z) = -0.04900 0.26387
#
# Static dielectric constant tensor:
#      x y z
#    x 1.862050 0.000000 0.000000 
#    y 0.000000 1.860520 0.000000 
#    z 0.000000 0.000000 1.817220 
# 
# From -- ./inp_files/33770.got.cif
#   From: 2010.05.17/outbox.cif.g08.bks.cpg/sg52_17_cif.got.tgz:33770.got - 2010.06.03 12:15:38.
