data_PCOD9410189
_publ_section_title
;
Structure prediction by ZEFSAII (Michael W. Deem and Ramdas Pophale) SiO2 
 PCOD9410189
Probable space group: P N N A
;
_chemical_formula_sum "Si O2"
_cell_formula_units_Z 44
_cell_length_a 5.069006
_cell_length_b 13.224753
_cell_length_c 30.588317
_cell_angle_alpha 90.000000
_cell_angle_beta 90.000000
_cell_angle_gamma 90.000000
_cell_volume 2050.529195
_symmetry_space_group_name_H-M "P N N A"
_symmetry_group_IT_number 52
_symmetry_cell_setting 'orthorhombic'
loop_
_space_group_symop_operation_xyz
x,y,z
1/2-x,-y,z
x,1/2-y,1/2-z
1/2-x,1/2+y,1/2-z
-x,-y,-z
1/2+x,y,-z
-x,1/2+y,1/2+z
1/2+x,1/2-y,1/2+z
loop_
_atom_site_type_symbol
_atom_site_label
_atom_site_fract_x
_atom_site_fract_y
_atom_site_fract_z
Si Si1 0.989583 0.613548 0.480304
Si Si2 0.658570 0.604691 0.820748
Si Si3 0.154621 0.250000 0.250000
Si Si4 0.352222 0.669216 0.614973
Si Si5 0.142415 0.112655 0.171592
Si Si6 0.170440 0.607875 0.879417
O O1 0.762181 0.665408 0.508234
O O2 0.930931 0.613278 0.429475
O O3 0.000000 0.500000 0.500000
O O4 0.750000 0.500000 0.800379
O O5 0.678597 0.684554 0.783111
O O6 0.363805 0.602003 0.837717
O O7 0.870674 0.615277 0.861133
O O8 0.033395 0.170763 0.214947
O O9 0.606473 0.666680 0.647237
O O10 0.259484 0.783469 0.601829
O O11 0.102870 0.616997 0.638247
O O12 0.250000 0.000000 0.180656
O O13 0.250000 0.500000 0.902330
#
# Coordination Sequence:
#
# PCOD9410189 Si02
#       6
#     8   8   4   8   8   8
#     4  10  23  39  65  98 126 174 204 265 334 419
#     4  10  21  36  59  82 119 163 215 270 310 375
#     4  12  22  44  58  88 132 170 236 250 356 350
#     4  12  23  45  66  95 137 166 222 271 341 396
#     4  12  28  40  65  95 131 183 216 286 318 397
#     4  10  20  39  62  91 114 165 215 261 317 373
#
# _framework density 21.457877
#
# number of rings (size 3 to 8) (size 9 to 14) (size 15 to 20)
#    0.000    1.091    3.636    2.182    7.636    2.909 
#    0.000    3.636    0.000    1.091    0.000    0.000 
#    0.000    0.000    0.000    0.000    0.000    0.000 
#
# Total GULP energy -245110.356648 kJ/mol
# GULP energy per Si atom -5570.689924 kJ/mol
# Density = 2.140904 g / cm^3
# Si number density = 21.457877 Si / 1000 Ang^3
#
#
#
# Elastic Constant Matrix: (Units=GPa)
#
#
# Indices 1 2 3 4 5 6 
#
# 1 111.2699 -1.1932 24.7506 0.0000 0.0000 0.0000
# 2 -1.1932 107.1018 33.6018 0.0000 0.0000 0.0000
# 3 24.7506 33.6018 111.8481 0.0000 0.0000 0.0000
# 4 0.0000 0.0000 0.0000 26.1140 0.0000 0.0000
# 5 0.0000 0.0000 0.0000 0.0000 23.9023 0.0000
# 6 0.0000 0.0000 0.0000 0.0000 0.0000 17.0604
#
#
#
# Elastic Compliance Matrix: (Units=1/GPa)
#
#
# Indices 1 2 3 4 5 6 
#
# 1 0.009522 0.000847 -0.002361 0.000000 0.000000 0.000000
# 2 0.000847 0.010384 -0.003307 0.000000 0.000000 0.000000
# 3 -0.002361 -0.003307 0.010457 0.000000 0.000000 0.000000
# 4 0.000000 0.000000 0.000000 0.038294 0.000000 0.000000
# 5 0.000000 0.000000 0.000000 0.000000 0.041837 0.000000
# 6 0.000000 0.000000 0.000000 0.000000 0.000000 0.058615
#
#
# Mechanical properties :
#
#
# Convention : Reuss Voigt Hill
#
# Bulk Modulus (GPa) = 48.26442 49.39313 48.82877
# Shear Modulus (GPa) = 26.93133 31.61938 29.27535
#
# Velocity S-wave (km/s) = 3.54655 3.84286 3.69767
# Velocity P-wave (km/s) = 6.26994 6.53901 6.40589
#
# Compressibility (1/GPa) = 0.02071920
#
# Stress axis : x y z
#
# Youngs Moduli (GPa) = 105.02531 96.30321 95.63202
#
# Poissons Ratio (x) = -0.08156 0.22583
# Poissons Ratio (y) = -0.08895 0.31625
# Poissons Ratio (z) = 0.24801 0.31847
#
# Static dielectric constant tensor:
#      x y z
#    x 1.881660 0.000000 0.000000 
#    y 0.000000 1.947280 0.000000 
#    z 0.000000 0.000000 1.745080 
# 
# From -- ./inp_files/41642.got.cif
#   From: 2010.05.17/outbox.cif.g08.bks.cpg/sg52_21_cif.got.tgz:41642.got - 2010.06.03 12:15:38.
