data_PCOD9410174
_publ_section_title
;
Structure prediction by ZEFSAII (Michael W. Deem and Ramdas Pophale) SiO2 
 PCOD9410174
Probable space group: P N N A
;
_chemical_formula_sum "Si O2"
_cell_formula_units_Z 60
_cell_length_a 10.634486
_cell_length_b 27.240023
_cell_length_c 9.602528
_cell_angle_alpha 90.000000
_cell_angle_beta 90.000000
_cell_angle_gamma 90.000000
_cell_volume 2781.695295
_symmetry_space_group_name_H-M "P N N A"
_symmetry_group_IT_number 52
_symmetry_cell_setting 'orthorhombic'
loop_
_space_group_symop_operation_xyz
x,y,z
1/2-x,-y,z
x,1/2-y,1/2-z
1/2-x,1/2+y,1/2-z
-x,-y,-z
1/2+x,y,-z
-x,1/2+y,1/2+z
1/2+x,1/2-y,1/2+z
loop_
_atom_site_type_symbol
_atom_site_label
_atom_site_fract_x
_atom_site_fract_y
_atom_site_fract_z
Si Si1 0.285390 0.404045 0.425969
Si Si2 0.105915 0.403296 0.846711
Si Si3 0.054436 0.250000 0.750000
Si Si4 0.050595 0.451149 0.572632
Si Si5 0.239222 0.175962 0.864575
Si Si6 0.405793 0.324417 0.075669
Si Si7 0.497131 0.302726 0.777024
Si Si8 0.182675 0.382980 0.139638
O O1 0.432991 0.413815 0.452733
O O2 0.247906 0.351047 0.487844
O O3 0.257201 0.408928 0.263036
O O4 0.184750 0.438661 0.503640
O O5 0.187167 0.364059 0.751699
O O6 0.075321 0.446997 0.739227
O O7 0.981091 0.375056 0.898684
O O8 0.165886 0.414110 0.998168
O O9 0.146181 0.222098 0.857435
O O10 0.962590 0.290360 0.808559
O O11 0.000000 0.500000 0.500000
O O12 0.378558 0.192200 0.824310
O O13 0.260767 0.335931 0.086198
O O14 0.440101 0.300500 0.931109
O O15 0.563000 0.250000 0.750000
O O16 0.567342 0.355430 0.783898
#
# Coordination Sequence:
#
# PCOD9410174 Si02
#       8
#     8   8   4   8   8   8   8   8
#     4  11  24  41  70 101 134 176 220 277 349 420
#     4   9  20  41  64  89 124 178 212 272 339 404
#     4  10  22  36  58  80 126 178 236 286 330 372
#     4  11  23  45  73 104 133 169 219 285 349 427
#     4  10  20  39  58  85 129 176 224 276 338 386
#     4  10  21  38  57  82 125 178 228 274 330 388
#     4  11  23  34  54  86 126 175 234 284 320 377
#     4  11  22  39  63  92 128 179 223 270 340 413
#
# _framework density 21.569579999999998
#
# number of rings (size 3 to 8) (size 9 to 14) (size 15 to 20)
#    0.000    1.600    3.333    1.200    2.800    1.067 
#    0.000    0.667    0.000    3.200    0.000    0.000 
#    0.000    0.000    0.000    0.000    0.000    0.000 
#
# Total GULP energy -334368.796601 kJ/mol
# GULP energy per Si atom -5572.813277 kJ/mol
# Density = 2.152049 g / cm^3
# Si number density = 21.569580 Si / 1000 Ang^3
#
#
#
# Elastic Constant Matrix: (Units=GPa)
#
#
# Indices 1 2 3 4 5 6 
#
# 1 50.3734 -13.0916 9.0925 0.0000 0.0000 0.0000
# 2 -13.0916 30.5190 18.5421 0.0000 0.0000 0.0000
# 3 9.0925 18.5421 124.0317 0.0000 0.0000 0.0000
# 4 0.0000 0.0000 0.0000 18.7540 0.0000 0.0000
# 5 0.0000 0.0000 0.0000 0.0000 20.4851 0.0000
# 6 0.0000 0.0000 0.0000 0.0000 0.0000 5.3900
#
#
#
# Elastic Compliance Matrix: (Units=1/GPa)
#
#
# Indices 1 2 3 4 5 6 
#
# 1 0.023708 0.012347 -0.003584 0.000000 0.000000 0.000000
# 2 0.012347 0.042470 -0.007254 0.000000 0.000000 0.000000
# 3 -0.003584 -0.007254 0.009410 0.000000 0.000000 0.000000
# 4 0.000000 0.000000 0.000000 0.053322 0.000000 0.000000
# 5 0.000000 0.000000 0.000000 0.000000 0.048816 0.000000
# 6 0.000000 0.000000 0.000000 0.000000 0.000000 0.185530
#
#
# Mechanical properties :
#
#
# Convention : Reuss Voigt Hill
#
# Bulk Modulus (GPa) = 12.72174 26.00110 19.36142
# Shear Modulus (GPa) = 12.93863 21.61787 17.27825
#
# Velocity S-wave (km/s) = 2.45185 3.16925 2.83335
# Velocity P-wave (km/s) = 3.73179 5.04707 4.43842
#
# Compressibility (1/GPa) = 0.07860560
#
# Stress axis : x y z
#
# Youngs Moduli (GPa) = 42.18073 23.54585 106.27399
#
# Poissons Ratio (x) = -0.29072 0.38086
# Poissons Ratio (y) = -0.52081 0.77093
# Poissons Ratio (z) = 0.15117 0.17081
#
# Static dielectric constant tensor:
#      x y z
#    x 1.920020 0.000000 0.000000 
#    y 0.000000 1.835580 0.000000 
#    z 0.000000 0.000000 1.830230 
# 
# From -- ./inp_files/9093.got.cif
#   From: 2010.05.17/outbox.cif.g08.bks.cpg/sg52_5_cif.got.tgz:9093.got - 2010.06.03 12:15:38.
