data_PCOD9410566
_publ_section_title
;
Structure prediction by ZEFSAII (Michael W. Deem and Ramdas Pophale) SiO2 
 PCOD9410566
Probable space group: P N N A
;
_chemical_formula_sum "Si O2"
_cell_formula_units_Z 60
_cell_length_a 29.683572
_cell_length_b 20.581811
_cell_length_c 5.030418
_cell_angle_alpha 90.000000
_cell_angle_beta 90.000000
_cell_angle_gamma 90.000000
_cell_volume 3073.291967
_symmetry_space_group_name_H-M "P N N A"
_symmetry_group_IT_number 52
_symmetry_cell_setting 'orthorhombic'
loop_
_space_group_symop_operation_xyz
x,y,z
1/2-x,-y,z
x,1/2-y,1/2-z
1/2-x,1/2+y,1/2-z
-x,-y,-z
1/2+x,y,-z
-x,1/2+y,1/2+z
1/2+x,1/2-y,1/2+z
loop_
_atom_site_type_symbol
_atom_site_label
_atom_site_fract_x
_atom_site_fract_y
_atom_site_fract_z
Si Si1 0.449023 0.484626 0.076219
Si Si2 0.168144 0.678630 0.616414
Si Si3 0.595520 0.920789 0.067204
Si Si4 0.250000 0.500000 0.365139
Si Si5 0.375231 0.589644 0.140717
Si Si6 0.183495 0.203497 0.498405
Si Si7 0.222332 0.868825 0.394814
Si Si8 0.162949 0.466203 0.638649
O O1 0.439509 0.442944 0.341306
O O2 0.423098 0.554090 0.107700
O O3 0.500000 0.500000 0.000000
O O4 0.426435 0.441843 0.844278
O O5 0.167376 0.750000 0.750000
O O6 0.118305 0.649915 0.556754
O O7 0.198854 0.670369 0.351529
O O8 0.190572 0.635706 0.849153
O O9 0.638400 0.968780 0.039578
O O10 0.228607 0.557359 0.194755
O O11 0.213881 0.466403 0.554634
O O12 0.361049 0.587230 0.448993
O O13 0.361266 0.659140 0.024465
O O14 0.344611 0.544069 0.948969
O O15 0.185148 0.250000 0.750000
O O16 0.228869 0.160205 0.473986
O O17 0.184125 0.250000 0.250000
#
# Coordination Sequence:
#
# PCOD9410566 Si02
#       8
#     8   8   8   4   8   8   8   8
#     4  10  21  40  67  95 119 142 183 255 325 377
#     4  12  25  42  58  83 125 170 210 244 281 348
#     4  10  21  37  62  89 119 151 197 237 307 365
#     4  12  24  36  60  84 122 154 202 260 310 324
#     4  10  22  38  57  85 113 149 193 238 299 357
#     4  12  24  39  57  79 120 166 208 242 281 343
#     4  12  26  38  57  84 119 163 214 253 293 333
#     4  10  21  35  54  82 117 150 189 248 292 343
#
# _framework density 19.523040000000002
#
# number of rings (size 3 to 8) (size 9 to 14) (size 15 to 20)
#    0.000    1.067    2.667    4.400    5.600    1.067 
#    0.000    0.000    0.000    2.400    0.000    0.000 
#    0.000    0.000    0.000    0.000    0.000    0.000 
#
# Total GULP energy -335118.682835 kJ/mol
# GULP energy per Si atom -5585.311381 kJ/mol
# Density = 1.947860 g / cm^3
# Si number density = 19.523040 Si / 1000 Ang^3
#
#
#
# Elastic Constant Matrix: (Units=GPa)
#
#
# Indices 1 2 3 4 5 6 
#
# 1 59.2778 17.3459 -9.5017 0.0000 0.0000 0.0000
# 2 17.3459 77.1826 8.5231 0.0000 0.0000 0.0000
# 3 -9.5017 8.5231 85.4685 0.0000 0.0000 0.0000
# 4 0.0000 0.0000 0.0000 27.5843 0.0000 0.0000
# 5 0.0000 0.0000 0.0000 0.0000 21.1921 0.0000
# 6 0.0000 0.0000 0.0000 0.0000 0.0000 19.0982
#
#
#
# Elastic Compliance Matrix: (Units=1/GPa)
#
#
# Indices 1 2 3 4 5 6 
#
# 1 0.018574 -0.004451 0.002509 0.000000 0.000000 0.000000
# 2 -0.004451 0.014167 -0.001908 0.000000 0.000000 0.000000
# 3 0.002509 -0.001908 0.012169 0.000000 0.000000 0.000000
# 4 0.000000 0.000000 0.000000 0.036253 0.000000 0.000000
# 5 0.000000 0.000000 0.000000 0.000000 0.047187 0.000000
# 6 0.000000 0.000000 0.000000 0.000000 0.000000 0.052361
#
#
# Mechanical properties :
#
#
# Convention : Reuss Voigt Hill
#
# Bulk Modulus (GPa) = 26.87400 28.29594 27.58497
# Shear Modulus (GPa) = 24.89837 27.27901 26.08869
#
# Velocity S-wave (km/s) = 3.57505 3.74207 3.65951
# Velocity P-wave (km/s) = 5.55306 5.76158 5.65828
#
# Compressibility (1/GPa) = 0.03721069
#
# Stress axis : x y z
#
# Youngs Moduli (GPa) = 53.83736 70.58472 82.17351
#
# Poissons Ratio (x) = 0.31420 -0.20616
# Poissons Ratio (y) = 0.23965 0.15676
# Poissons Ratio (z) = -0.13507 0.13465
#
# Static dielectric constant tensor:
#      x y z
#    x 1.703060 0.000000 0.000000 
#    y 0.000000 1.741830 0.000000 
#    z 0.000000 0.000000 1.692770 
# 
# From -- ./inp_files/6509.got.cif
#   From: 2010.05.17/outbox.cif.g08.bks.cpg/sg52_4_cif.got.tgz:6509.got - 2010.06.03 12:15:38.
