data_PCOD9410881
_publ_section_title
;
Structure prediction by ZEFSAII (Michael W. Deem and Ramdas Pophale) SiO2 
 PCOD9410881
Probable space group: P N N A
;
_chemical_formula_sum "Si O2"
_cell_formula_units_Z 56
_cell_length_a 30.087354
_cell_length_b 5.417241
_cell_length_c 15.424135
_cell_angle_alpha 90.000000
_cell_angle_beta 90.000000
_cell_angle_gamma 90.000000
_cell_volume 2513.986669
_symmetry_space_group_name_H-M "P N N A"
_symmetry_group_IT_number 52
_symmetry_cell_setting 'orthorhombic'
loop_
_space_group_symop_operation_xyz
x,y,z
1/2-x,-y,z
x,1/2-y,1/2-z
1/2-x,1/2+y,1/2-z
-x,-y,-z
1/2+x,y,-z
-x,1/2+y,1/2+z
1/2+x,1/2-y,1/2+z
loop_
_atom_site_type_symbol
_atom_site_label
_atom_site_fract_x
_atom_site_fract_y
_atom_site_fract_z
Si Si1 0.872931 0.312989 0.096077
Si Si2 0.914163 0.409584 0.642159
Si Si3 0.514911 0.358596 0.341529
Si Si4 0.222888 0.745459 0.974418
Si Si5 0.675482 0.639817 0.847503
Si Si6 0.913090 0.702940 0.475205
Si Si7 0.362551 0.750000 0.250000
Si Si8 0.565380 0.750000 0.250000
O O1 0.820682 0.263845 0.086536
O O2 0.883985 0.555689 0.039547
O O3 0.898138 0.378575 0.186258
O O4 0.893189 0.049555 0.065640
O O5 0.871905 0.244537 0.618651
O O6 0.918889 0.634250 0.574733
O O7 0.895921 0.529782 0.729630
O O8 0.963099 0.304530 0.649440
O O9 0.531376 0.250000 0.250000
O O10 0.540609 0.261588 0.424824
O O11 0.530739 0.637211 0.321090
O O12 0.250000 0.500000 0.952676
O O13 0.250000 0.000000 0.964892
O O14 0.208498 0.712288 0.076037
O O15 0.685983 0.750000 0.750000
O O16 0.668356 0.348529 0.827631
#
# Coordination Sequence:
#
# PCOD9410881 Si02
#       8
#     8   8   8   8   8   8   4   4
#     4  11  23  46  71  98 137 177 225 278 360 410
#     4  11  22  38  62  96 138 183 229 286 324 404
#     4  11  21  39  60 100 135 181 240 277 328 396
#     4  12  27  45  72 102 130 170 227 292 352 422
#     4  10  23  41  64  94 132 182 217 275 347 401
#     4  11  23  41  68  95 138 184 226 274 338 408
#     4  10  21  38  66  88 128 188 220 264 344 393
#     4  10  23  42  68  98 134 188 222 286 336 419
#
# _framework density 22.275376999999999
#
# number of rings (size 3 to 8) (size 9 to 14) (size 15 to 20)
#    0.000    1.143    2.857    3.857    4.000    0.571 
#    0.000    2.857    0.000    0.000    0.000    0.000 
#    0.000    0.000    0.000    0.000    0.000    0.000 
#
# Total GULP energy -312012.824282 kJ/mol
# GULP energy per Si atom -5571.657576 kJ/mol
# Density = 2.222468 g / cm^3
# Si number density = 22.275377 Si / 1000 Ang^3
#
#
#
# Elastic Constant Matrix: (Units=GPa)
#
#
# Indices 1 2 3 4 5 6 
#
# 1 72.3844 27.2772 -12.7685 0.0000 0.0000 0.0000
# 2 27.2772 90.4859 -8.8099 0.0000 0.0000 0.0000
# 3 -12.7685 -8.8099 33.3417 0.0000 0.0000 0.0000
# 4 0.0000 0.0000 0.0000 30.2320 0.0000 0.0000
# 5 0.0000 0.0000 0.0000 0.0000 27.4208 0.0000
# 6 0.0000 0.0000 0.0000 0.0000 0.0000 24.8650
#
#
#
# Elastic Compliance Matrix: (Units=1/GPa)
#
#
# Indices 1 2 3 4 5 6 
#
# 1 0.016390 -0.004444 0.005102 0.000000 0.000000 0.000000
# 2 -0.004444 0.012548 0.001614 0.000000 0.000000 0.000000
# 3 0.005102 0.001614 0.032373 0.000000 0.000000 0.000000
# 4 0.000000 0.000000 0.000000 0.033078 0.000000 0.000000
# 5 0.000000 0.000000 0.000000 0.000000 0.036469 0.000000
# 6 0.000000 0.000000 0.000000 0.000000 0.000000 0.040217
#
#
# Mechanical properties :
#
#
# Convention : Reuss Voigt Hill
#
# Bulk Modulus (GPa) = 15.18481 23.06774 19.12628
# Shear Modulus (GPa) = 26.52777 29.20444 27.86611
#
# Velocity S-wave (km/s) = 3.45469 3.62479 3.54076
# Velocity P-wave (km/s) = 4.76915 5.28176 5.03199
#
# Compressibility (1/GPa) = 0.06585530
#
# Stress axis : x y z
#
# Youngs Moduli (GPa) = 61.01342 79.69265 30.89004
#
# Poissons Ratio (x) = 0.35415 -0.15761
# Poissons Ratio (y) = 0.27114 -0.04985
# Poissons Ratio (z) = -0.31132 -0.12860
#
# Static dielectric constant tensor:
#      x y z
#    x 1.807040 0.000000 0.000000 
#    y 0.000000 2.144710 0.000000 
#    z 0.000000 0.000000 1.883630 
# 
# From -- ./inp_files/29725.got.cif
#   From: 2010.05.17/outbox.cif.g08.bks.cpg/sg52_15_cif.got.tgz:29725.got - 2010.06.03 12:15:38.
