data_PCOD9410925
_publ_section_title
;
Structure prediction by ZEFSAII (Michael W. Deem and Ramdas Pophale) SiO2 
 PCOD9410925
Probable space group: P N N A
;
_chemical_formula_sum "Si O2"
_cell_formula_units_Z 64
_cell_length_a 15.974169
_cell_length_b 21.647456
_cell_length_c 9.191906
_cell_angle_alpha 90.000000
_cell_angle_beta 90.000000
_cell_angle_gamma 90.000000
_cell_volume 3178.562203
_symmetry_space_group_name_H-M "P N N A"
_symmetry_group_IT_number 52
_symmetry_cell_setting 'orthorhombic'
loop_
_space_group_symop_operation_xyz
x,y,z
1/2-x,-y,z
x,1/2-y,1/2-z
1/2-x,1/2+y,1/2-z
-x,-y,-z
1/2+x,y,-z
-x,1/2+y,1/2+z
1/2+x,1/2-y,1/2+z
loop_
_atom_site_type_symbol
_atom_site_label
_atom_site_fract_x
_atom_site_fract_y
_atom_site_fract_z
Si Si1 0.534983 0.437303 0.071462
Si Si2 0.222888 0.936038 0.107725
Si Si3 0.479608 0.440998 0.398975
Si Si4 0.218884 0.815047 0.587400
Si Si5 0.517050 0.678340 0.416401
Si Si6 0.278570 0.180214 0.918418
Si Si7 0.479578 0.316098 0.915597
Si Si8 0.783456 0.566191 0.934249
O O1 0.525445 0.445093 0.244024
O O2 0.500000 0.500000 0.000000
O O3 0.491655 0.373274 0.022712
O O4 0.625598 0.429288 0.001837
O O5 0.121613 0.937469 0.128295
O O6 0.271635 0.934401 0.260837
O O7 0.250000 0.000000 0.032732
O O8 0.248406 0.876563 0.015996
O O9 0.500000 0.500000 0.500000
O O10 0.507596 0.378573 0.482159
O O11 0.250615 0.825656 0.751567
O O12 0.248828 0.748413 0.530257
O O13 0.119584 0.808363 0.601233
O O14 0.236050 0.873731 0.490328
O O15 0.619324 0.677281 0.419143
O O16 0.489159 0.669350 0.248379
O O17 0.489320 0.747720 0.461561
O O18 0.750000 0.500000 0.986816
#
# Coordination Sequence:
#
# PCOD9410925 Si02
#       8
#     8   8   8   8   8   8   8   8
#     4  12  24  39  58  82 115 156 197 248 302 355
#     4  10  21  39  59  85 119 157 199 245 294 355
#     4  11  23  39  61  92 122 157 204 253 303 362
#     4   9  17  35  58  84 112 146 191 234 282 348
#     4   8  17  34  59  88 116 151 195 234 288 356
#     4   8  17  33  58  84 113 150 186 228 285 349
#     4   9  17  36  62  84 114 156 194 238 290 351
#     4  11  24  39  55  81 112 149 197 244 294 353
#
# _framework density 20.134889999999999
#
# number of rings (size 3 to 8) (size 9 to 14) (size 15 to 20)
#    0.000    2.250    0.000    5.250    0.000    4.500 
#    0.000   10.000    0.000    0.000    0.000    0.000 
#    0.000    0.000    0.000    0.000    0.000    0.000 
#
# Total GULP energy -356892.152156 kJ/mol
# GULP energy per Si atom -5576.439877 kJ/mol
# Density = 2.008906 g / cm^3
# Si number density = 20.134890 Si / 1000 Ang^3
#
#
#
# Elastic Constant Matrix: (Units=GPa)
#
#
# Indices 1 2 3 4 5 6 
#
# 1 33.0113 6.0385 19.2633 0.0000 0.0000 0.0000
# 2 6.0385 196.5078 97.9228 0.0000 0.0000 0.0000
# 3 19.2633 97.9228 115.2993 0.0000 0.0000 0.0000
# 4 0.0000 0.0000 0.0000 32.4146 0.0000 0.0000
# 5 0.0000 0.0000 0.0000 0.0000 22.3855 0.0000
# 6 0.0000 0.0000 0.0000 0.0000 0.0000 23.7292
#
#
#
# Elastic Compliance Matrix: (Units=1/GPa)
#
#
# Indices 1 2 3 4 5 6 
#
# 1 0.034658 0.003156 -0.008471 0.000000 0.000000 0.000000
# 2 0.003156 0.009110 -0.008265 0.000000 0.000000 0.000000
# 3 -0.008471 -0.008265 0.017107 0.000000 0.000000 0.000000
# 4 0.000000 0.000000 0.000000 0.030850 0.000000 0.000000
# 5 0.000000 0.000000 0.000000 0.000000 0.044672 0.000000
# 6 0.000000 0.000000 0.000000 0.000000 0.000000 0.042142
#
#
# Mechanical properties :
#
#
# Convention : Reuss Voigt Hill
#
# Bulk Modulus (GPa) = 29.65836 65.69641 47.67739
# Shear Modulus (GPa) = 23.04806 30.47877 26.76341
#
# Velocity S-wave (km/s) = 3.38699 3.89489 3.64978
# Velocity P-wave (km/s) = 5.48246 7.27502 6.44140
#
# Compressibility (1/GPa) = 0.03371730
#
# Stress axis : x y z
#
# Youngs Moduli (GPa) = 28.85303 109.76677 58.45433
#
# Poissons Ratio (x) = -0.34645 0.49517
# Poissons Ratio (y) = -0.09107 0.48310
# Poissons Ratio (z) = 0.24441 0.90717
#
# Static dielectric constant tensor:
#      x y z
#    x 1.735520 0.000000 0.000000 
#    y 0.000000 1.546970 0.000000 
#    z 0.000000 0.000000 1.696740 
# 
# From -- ./inp_files/12578.got.cif
#   From: 2010.05.17/outbox.cif.g08.bks.cpg/sg52_7_cif.got.tgz:12578.got - 2010.06.03 12:15:38.
