data_PCOD9410642
_publ_section_title
;
Structure prediction by ZEFSAII (Michael W. Deem and Ramdas Pophale) SiO2 
 PCOD9410642
Probable space group: P N N A
;
_chemical_formula_sum "Si O2"
_cell_formula_units_Z 32
_cell_length_a 8.655970
_cell_length_b 9.774846
_cell_length_c 15.959079
_cell_angle_alpha 90.000000
_cell_angle_beta 90.000000
_cell_angle_gamma 90.000000
_cell_volume 1350.310022
_symmetry_space_group_name_H-M "P N N A"
_symmetry_group_IT_number 52
_symmetry_cell_setting 'orthorhombic'
loop_
_space_group_symop_operation_xyz
x,y,z
1/2-x,-y,z
x,1/2-y,1/2-z
1/2-x,1/2+y,1/2-z
-x,-y,-z
1/2+x,y,-z
-x,1/2+y,1/2+z
1/2+x,1/2-y,1/2+z
loop_
_atom_site_type_symbol
_atom_site_label
_atom_site_fract_x
_atom_site_fract_y
_atom_site_fract_z
Si Si1 0.583481 0.448955 0.190942
Si Si2 0.371637 0.613404 0.074274
Si Si3 0.890829 0.859675 0.124406
Si Si4 0.867542 0.295953 0.506836
O O1 0.750000 0.500000 0.160165
O O2 0.448551 0.544825 0.155334
O O3 0.572160 0.295350 0.156004
O O4 0.593475 0.446029 0.291306
O O5 0.250000 0.500000 0.040391
O O6 0.516484 0.672689 0.021813
O O7 0.259770 0.743753 0.073554
O O8 0.728269 0.849043 0.073839
O O9 0.022887 0.895637 0.058422
#
# Coordination Sequence:
#
# PCOD9410642 Si02
#       4
#     8   8   8   8
#     4  11  22  38  56  89 125 154 187 246 303 348
#     4  11  20  32  59  89 118 147 195 248 296 342
#     4  10  22  38  60  86 121 154 197 243 295 351
#     4  10  21  36  62  88 115 152 202 245 290 344
#
# _framework density 23.698262
#
# number of rings (size 3 to 8) (size 9 to 14) (size 15 to 20)
#    0.000    1.500    5.000    0.750    3.500    0.000 
#    0.000    8.750    0.000    0.000    0.000    0.000 
#    0.000    0.000    0.000    0.000    0.000    0.000 
#
# Total GULP energy -178519.167642 kJ/mol
# GULP energy per Si atom -5578.723989 kJ/mol
# Density = 2.364432 g / cm^3
# Si number density = 23.698262 Si / 1000 Ang^3
#
#
#
# Elastic Constant Matrix: (Units=GPa)
#
#
# Indices 1 2 3 4 5 6 
#
# 1 183.3487 35.8972 86.2946 0.0000 0.0000 0.0000
# 2 35.8972 51.1009 47.3762 0.0000 0.0000 0.0000
# 3 86.2946 47.3762 181.6200 0.0000 0.0000 0.0000
# 4 0.0000 0.0000 0.0000 32.3278 0.0000 0.0000
# 5 0.0000 0.0000 0.0000 0.0000 -18.4024 0.0000
# 6 0.0000 0.0000 0.0000 0.0000 0.0000 9.8666
#
#
#
# Elastic Compliance Matrix: (Units=1/GPa)
#
#
# Indices 1 2 3 4 5 6 
#
# 1 0.007261 -0.002509 -0.002796 0.000000 0.000000 0.000000
# 2 -0.002509 0.026678 -0.005767 0.000000 0.000000 0.000000
# 3 -0.002796 -0.005767 0.008339 0.000000 0.000000 0.000000
# 4 0.000000 0.000000 0.000000 0.030933 0.000000 0.000000
# 5 0.000000 0.000000 0.000000 0.000000 -0.054341 0.000000
# 6 0.000000 0.000000 0.000000 0.000000 0.000000 0.101352
#
#
# Mechanical properties :
#
#
# Convention : Reuss Voigt Hill
#
# Bulk Modulus (GPa) = 49.66490 83.91173 66.78831
# Shear Modulus (GPa) = 33.53979 21.19185 27.36582
#
# Velocity S-wave (km/s) = 3.76611 2.99362 3.40186
# Velocity P-wave (km/s) = 6.31776 6.88726 6.60865
#
# Compressibility (1/GPa) = 0.02013495
#
# Stress axis : x y z
#
# Youngs Moduli (GPa) = 137.72118 37.48363 119.92396
#
# Poissons Ratio (x) = 0.09404 0.33525
# Poissons Ratio (y) = 0.34553 0.69161
# Poissons Ratio (z) = 0.38500 0.21617
#
# Static dielectric constant tensor:
#      x y z
#    x 1.911030 0.000000 0.000000 
#    y 0.000000 1.982990 0.000000 
#    z 0.000000 0.000000 1.893160 
# 
# From -- ./inp_files/24066.got.cif
#   From: 2010.05.17/outbox.cif.g08.bks.cpg/sg52_13_cif.got.tgz:24066.got - 2010.06.03 12:15:38.
