data_PCOD9410842
_publ_section_title
;
Structure prediction by ZEFSAII (Michael W. Deem and Ramdas Pophale) SiO2 
 PCOD9410842
Probable space group: P N N A
;
_chemical_formula_sum "Si O2"
_cell_formula_units_Z 40
_cell_length_a 9.247881
_cell_length_b 10.118281
_cell_length_c 18.855726
_cell_angle_alpha 90.000000
_cell_angle_beta 90.000000
_cell_angle_gamma 90.000000
_cell_volume 1764.380412
_symmetry_space_group_name_H-M "P N N A"
_symmetry_group_IT_number 52
_symmetry_cell_setting 'orthorhombic'
loop_
_space_group_symop_operation_xyz
x,y,z
1/2-x,-y,z
x,1/2-y,1/2-z
1/2-x,1/2+y,1/2-z
-x,-y,-z
1/2+x,y,-z
-x,1/2+y,1/2+z
1/2+x,1/2-y,1/2+z
loop_
_atom_site_type_symbol
_atom_site_label
_atom_site_fract_x
_atom_site_fract_y
_atom_site_fract_z
Si Si1 0.920608 0.511189 0.155322
Si Si2 0.514905 0.739722 0.422896
Si Si3 0.197785 0.352268 0.307782
Si Si4 0.359405 0.720333 0.573044
Si Si5 0.484992 0.865485 0.795918
O O1 0.750000 0.500000 0.169798
O O2 0.919496 0.642150 0.106718
O O3 0.989771 0.524921 0.233897
O O4 0.987234 0.388713 0.111244
O O5 0.419743 0.651395 0.369223
O O6 0.435731 0.716085 0.497430
O O7 0.685975 0.716721 0.432103
O O8 0.250000 0.500000 0.291151
O O9 0.142186 0.250000 0.250000
O O10 0.362296 0.301408 0.321796
O O11 0.401974 0.610427 0.631522
O O12 0.406698 0.750000 0.750000
#
# Coordination Sequence:
#
# PCOD9410842 Si02
#       5
#     8   8   8   8   8
#     4   9  19  36  64  97 129 174 231 288 346 408
#     4  11  22  39  63  95 133 180 230 282 343 414
#     4  11  24  42  65  96 132 175 229 287 349 415
#     4  10  21  38  62  94 134 174 221 280 345 414
#     4   9  19  37  58  86 124 165 209 265 330 397
#
# _framework density 22.670847999999999
#
# number of rings (size 3 to 8) (size 9 to 14) (size 15 to 20)
#    0.000    2.000    0.000    3.000    0.000    5.600 
#    0.000   14.000    0.000    0.000    0.000    0.000 
#    0.000    0.000    0.000    0.000    0.000    0.000 
#
# Total GULP energy -222681.852416 kJ/mol
# GULP energy per Si atom -5567.046310 kJ/mol
# Density = 2.261925 g / cm^3
# Si number density = 22.670848 Si / 1000 Ang^3
#
#
#
# Elastic Constant Matrix: (Units=GPa)
#
#
# Indices 1 2 3 4 5 6 
#
# 1 110.7123 31.8045 94.8843 0.0000 0.0000 0.0000
# 2 31.8045 83.6206 53.5083 0.0000 0.0000 0.0000
# 3 94.8843 53.5083 210.7799 0.0000 0.0000 0.0000
# 4 0.0000 0.0000 0.0000 24.4188 0.0000 0.0000
# 5 0.0000 0.0000 0.0000 0.0000 12.6741 0.0000
# 6 0.0000 0.0000 0.0000 0.0000 0.0000 13.8993
#
#
#
# Elastic Compliance Matrix: (Units=1/GPa)
#
#
# Indices 1 2 3 4 5 6 
#
# 1 0.014892 -0.001641 -0.006287 0.000000 0.000000 0.000000
# 2 -0.001641 0.014459 -0.002932 0.000000 0.000000 0.000000
# 3 -0.006287 -0.002932 0.008319 0.000000 0.000000 0.000000
# 4 0.000000 0.000000 0.000000 0.040952 0.000000 0.000000
# 5 0.000000 0.000000 0.000000 0.000000 0.078901 0.000000
# 6 0.000000 0.000000 0.000000 0.000000 0.000000 0.071946
#
#
# Mechanical properties :
#
#
# Convention : Reuss Voigt Hill
#
# Bulk Modulus (GPa) = 62.69647 85.05634 73.87640
# Shear Modulus (GPa) = 19.49273 25.19283 22.34278
#
# Velocity S-wave (km/s) = 2.93544 3.33715 3.14272
# Velocity P-wave (km/s) = 6.26133 7.24211 6.76950
#
# Compressibility (1/GPa) = 0.01594986
#
# Stress axis : x y z
#
# Youngs Moduli (GPa) = 67.14901 69.16123 120.20909
#
# Poissons Ratio (x) = 0.11349 0.75579
# Poissons Ratio (y) = 0.11019 0.35243
# Poissons Ratio (z) = 0.42219 0.20277
#
# Static dielectric constant tensor:
#      x y z
#    x 1.946180 0.000000 0.000000 
#    y 0.000000 2.068560 0.000000 
#    z 0.000000 0.000000 1.870510 
# 
# From -- ./inp_files/30861.got.cif
#   From: 2010.05.17/outbox.cif.g08.bks.cpg/sg52_16_cif.got.tgz:30861.got - 2010.06.03 12:15:38.
