data_PCOD9410978
_publ_section_title
;
Structure prediction by ZEFSAII (Michael W. Deem and Ramdas Pophale) SiO2 
 PCOD9410978
Probable space group: P N N A
;
_chemical_formula_sum "Si O2"
_cell_formula_units_Z 60
_cell_length_a 22.453638
_cell_length_b 14.344088
_cell_length_c 9.033591
_cell_angle_alpha 90.000000
_cell_angle_beta 90.000000
_cell_angle_gamma 90.000000
_cell_volume 2909.511522
_symmetry_space_group_name_H-M "P N N A"
_symmetry_group_IT_number 52
_symmetry_cell_setting 'orthorhombic'
loop_
_space_group_symop_operation_xyz
x,y,z
1/2-x,-y,z
x,1/2-y,1/2-z
1/2-x,1/2+y,1/2-z
-x,-y,-z
1/2+x,y,-z
-x,1/2+y,1/2+z
1/2+x,1/2-y,1/2+z
loop_
_atom_site_type_symbol
_atom_site_label
_atom_site_fract_x
_atom_site_fract_y
_atom_site_fract_z
Si Si1 0.129369 0.890793 0.895879
Si Si2 0.515594 0.031244 0.748881
Si Si3 0.648698 0.065685 0.271780
Si Si4 0.995993 0.635376 0.482805
Si Si5 0.413889 0.432469 0.989719
Si Si6 0.431688 0.750000 0.750000
Si Si7 0.269453 0.344805 0.822692
Si Si8 0.328243 0.270653 0.081119
O O1 0.163869 0.858145 0.745429
O O2 0.134175 0.001354 0.871668
O O3 0.062794 0.863457 0.946989
O O4 0.167770 0.832049 0.010563
O O5 0.463630 0.073718 0.642298
O O6 0.495152 0.946502 0.857928
O O7 0.559104 0.983039 0.632984
O O8 0.539691 0.105796 0.868531
O O9 0.609976 0.159707 0.272317
O O10 0.718507 0.084708 0.279032
O O11 0.631307 0.006660 0.417119
O O12 0.972561 0.725114 0.393467
O O13 0.386104 0.335012 0.045183
O O14 0.247567 0.250000 0.750000
O O15 0.277111 0.327770 0.996325
O O16 0.320305 0.250000 0.250000
#
# Coordination Sequence:
#
# PCOD9410978 Si02
#       8
#     8   8   8   8   8   4   8   8
#     4  11  23  40  71 101 132 185 234 287 344 421
#     4  10  21  39  63  95 140 179 229 278 346 420
#     4  12  22  45  69  98 137 180 237 279 354 430
#     4  11  21  41  63 101 141 183 235 282 338 431
#     4  11  22  39  66  99 134 181 222 288 351 415
#     4  12  26  38  70 102 138 192 224 290 356 406
#     4  10  22  43  73  99 127 178 239 286 340 428
#     4  11  24  41  65 102 134 174 231 297 356 397
#
# _framework density 20.622019000000002
#
# number of rings (size 3 to 8) (size 9 to 14) (size 15 to 20)
#    0.000    1.067    4.667    2.000    2.800    0.000 
#    0.000    3.333   17.600    0.000    0.000    0.000 
#    0.000    0.000    0.000    0.000    0.000    0.000 
#
# Total GULP energy -334016.866978 kJ/mol
# GULP energy per Si atom -5566.947783 kJ/mol
# Density = 2.057508 g / cm^3
# Si number density = 20.622019 Si / 1000 Ang^3
#
#
#
# Elastic Constant Matrix: (Units=GPa)
#
#
# Indices 1 2 3 4 5 6 
#
# 1 96.3570 54.3556 46.5172 0.0000 0.0000 0.0000
# 2 54.3556 118.0758 48.9319 0.0000 0.0000 0.0000
# 3 46.5172 48.9319 146.7251 0.0000 0.0000 0.0000
# 4 0.0000 0.0000 0.0000 36.4866 0.0000 0.0000
# 5 0.0000 0.0000 0.0000 0.0000 14.0674 0.0000
# 6 0.0000 0.0000 0.0000 0.0000 0.0000 30.7731
#
#
#
# Elastic Compliance Matrix: (Units=1/GPa)
#
#
# Indices 1 2 3 4 5 6 
#
# 1 0.014974 -0.005716 -0.002841 0.000000 0.000000 0.000000
# 2 -0.005716 0.012009 -0.002193 0.000000 0.000000 0.000000
# 3 -0.002841 -0.002193 0.008448 0.000000 0.000000 0.000000
# 4 0.000000 0.000000 0.000000 0.027407 0.000000 0.000000
# 5 0.000000 0.000000 0.000000 0.000000 0.071087 0.000000
# 6 0.000000 0.000000 0.000000 0.000000 0.000000 0.032496
#
#
# Mechanical properties :
#
#
# Convention : Reuss Voigt Hill
#
# Bulk Modulus (GPa) = 71.78201 73.41858 72.60030
# Shear Modulus (GPa) = 25.96544 30.35561 28.16053
#
# Velocity S-wave (km/s) = 3.55225 3.84083 3.69935
# Velocity P-wave (km/s) = 7.19087 7.43966 7.31632
#
# Compressibility (1/GPa) = 0.01393107
#
# Stress axis : x y z
#
# Youngs Moduli (GPa) = 66.78248 83.26999 118.37816
#
# Poissons Ratio (x) = 0.47596 0.33633
# Poissons Ratio (y) = 0.38172 0.25958
# Poissons Ratio (z) = 0.18974 0.18260
#
# Static dielectric constant tensor:
#      x y z
#    x 1.834040 0.000000 0.000000 
#    y 0.000000 1.868870 0.000000 
#    z 0.000000 0.000000 1.777780 
# 
# From -- ./inp_files/15100.got.cif
#   From: 2010.05.17/outbox.cif.g08.bks.cpg/sg52_8_cif.got.tgz:15100.got - 2010.06.03 12:15:38.
