data_PCOD9410845
_publ_section_title
;
Structure prediction by ZEFSAII (Michael W. Deem and Ramdas Pophale) SiO2 
 PCOD9410845
Probable space group: P N N A
;
_chemical_formula_sum "Si O2"
_cell_formula_units_Z 52
_cell_length_a 8.466579
_cell_length_b 13.386664
_cell_length_c 21.953243
_cell_angle_alpha 90.000000
_cell_angle_beta 90.000000
_cell_angle_gamma 90.000000
_cell_volume 2488.164059
_symmetry_space_group_name_H-M "P N N A"
_symmetry_group_IT_number 52
_symmetry_cell_setting 'orthorhombic'
loop_
_space_group_symop_operation_xyz
x,y,z
1/2-x,-y,z
x,1/2-y,1/2-z
1/2-x,1/2+y,1/2-z
-x,-y,-z
1/2+x,y,-z
-x,1/2+y,1/2+z
1/2+x,1/2-y,1/2+z
loop_
_atom_site_type_symbol
_atom_site_label
_atom_site_fract_x
_atom_site_fract_y
_atom_site_fract_z
Si Si1 0.750000 0.500000 0.165459
Si Si2 0.479057 0.740442 0.106574
Si Si3 0.995311 0.652362 0.027880
Si Si4 0.978928 0.250000 0.750000
Si Si5 0.413994 0.936843 0.300792
Si Si6 0.688238 0.284729 0.133773
Si Si7 0.220375 0.116567 0.180599
Si Si8 0.250000 0.000000 0.473202
O O1 0.579837 0.504287 0.198489
O O2 0.747143 0.398841 0.127718
O O3 0.422945 0.643218 0.144891
O O4 0.649984 0.776200 0.131694
O O5 0.346749 0.822170 0.123346
O O6 0.513554 0.709050 0.036685
O O7 0.140992 0.587782 0.055516
O O8 0.928759 0.728897 0.077412
O O9 0.870064 0.566469 0.011555
O O10 0.867528 0.169663 0.784851
O O11 0.094367 0.282295 0.803933
O O12 0.406147 0.882674 0.235710
O O13 0.250000 0.000000 0.306215
O O14 0.250000 0.000000 0.166251
#
# Coordination Sequence:
#
# PCOD9410845 Si02
#       8
#     4   8   8   4   8   8   8   4
#     4  10  23  36  62  98 136 178 207 274 334 405
#     4  11  24  40  64  91 141 179 215 280 341 410
#     4  11  23  40  60  99 139 180 222 269 340 413
#     4  12  26  44  72  98 128 176 234 282 338 414
#     4  10  21  38  62  97 134 175 223 268 336 406
#     4  11  25  42  61 101 135 175 228 273 338 410
#     4  11  24  46  65  98 125 172 232 284 346 395
#     4  10  23  36  62  98 142 180 213 262 336 421
#
# _framework density 20.898942999999999
#
# number of rings (size 3 to 8) (size 9 to 14) (size 15 to 20)
#    0.000    1.231    3.077    2.308   14.000    0.000 
#    1.385    0.000    0.000    3.692    0.000    0.000 
#    0.000    0.000    0.000    0.000    0.000    0.000 
#
# Total GULP energy -289791.956383 kJ/mol
# GULP energy per Si atom -5572.922238 kJ/mol
# Density = 2.085138 g / cm^3
# Si number density = 20.898943 Si / 1000 Ang^3
#
#
#
# Elastic Constant Matrix: (Units=GPa)
#
#
# Indices 1 2 3 4 5 6 
#
# 1 131.0523 35.7034 33.4258 0.0000 0.0000 0.0000
# 2 35.7034 77.0165 29.8289 0.0000 0.0000 0.0000
# 3 33.4258 29.8289 96.6832 0.0000 0.0000 0.0000
# 4 0.0000 0.0000 0.0000 -67.5204 0.0000 0.0000
# 5 0.0000 0.0000 0.0000 0.0000 23.8001 0.0000
# 6 0.0000 0.0000 0.0000 0.0000 0.0000 25.4122
#
#
#
# Elastic Compliance Matrix: (Units=1/GPa)
#
#
# Indices 1 2 3 4 5 6 
#
# 1 0.009092 -0.003404 -0.002093 0.000000 0.000000 0.000000
# 2 -0.003404 0.016021 -0.003766 0.000000 0.000000 0.000000
# 3 -0.002093 -0.003766 0.012229 0.000000 0.000000 0.000000
# 4 0.000000 0.000000 0.000000 -0.014810 0.000000 0.000000
# 5 0.000000 0.000000 0.000000 0.000000 0.042017 0.000000
# 6 0.000000 0.000000 0.000000 0.000000 0.000000 0.039351
#
#
# Mechanical properties :
#
#
# Convention : Reuss Voigt Hill
#
# Bulk Modulus (GPa) = 53.14883 55.85204 54.50044
# Shear Modulus (GPa) = 38.85107 10.05796 24.45451
#
# Velocity S-wave (km/s) = 4.31629 2.19616 3.42443
# Velocity P-wave (km/s) = 7.09415 5.76313 6.46300
#
# Compressibility (1/GPa) = 0.01881509
#
# Stress axis : x y z
#
# Youngs Moduli (GPa) = 109.98938 62.41849 81.77603
#
# Poissons Ratio (x) = 0.21248 0.17116
# Poissons Ratio (y) = 0.37442 0.30796
# Poissons Ratio (z) = 0.23021 0.23506
#
# Static dielectric constant tensor:
#      x y z
#    x 1.880640 0.000000 0.000000 
#    y 0.000000 1.804840 0.000000 
#    z 0.000000 0.000000 1.759900 
# 
# From -- ./inp_files/36008.got.cif
#   From: 2010.05.17/outbox.cif.g08.bks.cpg/sg52_19_cif.got.tgz:36008.got - 2010.06.03 12:15:38.
