data_PCOD9410060
_publ_section_title
;
Structure prediction by ZEFSAII (Michael W. Deem and Ramdas Pophale) SiO2 
 PCOD9410060
Probable space group: P N N A
;
_chemical_formula_sum "Si O2"
_cell_formula_units_Z 40
_cell_length_a 14.210022
_cell_length_b 17.827448
_cell_length_c 7.596270
_cell_angle_alpha 90.000000
_cell_angle_beta 90.000000
_cell_angle_gamma 90.000000
_cell_volume 1924.351140
_symmetry_space_group_name_H-M "P N N A"
_symmetry_group_IT_number 52
_symmetry_cell_setting 'orthorhombic'
loop_
_space_group_symop_operation_xyz
x,y,z
1/2-x,-y,z
x,1/2-y,1/2-z
1/2-x,1/2+y,1/2-z
-x,-y,-z
1/2+x,y,-z
-x,1/2+y,1/2+z
1/2+x,1/2-y,1/2+z
loop_
_atom_site_type_symbol
_atom_site_label
_atom_site_fract_x
_atom_site_fract_y
_atom_site_fract_z
Si Si1 0.507707 0.637409 0.043503
Si Si2 0.128478 0.750000 0.750000
Si Si3 0.057049 0.250000 0.750000
Si Si4 0.809660 0.660273 0.787100
Si Si5 0.804645 0.425618 0.053429
Si Si6 0.724445 0.151410 0.097689
O O1 0.561979 0.684538 0.190276
O O2 0.402794 0.628266 0.116747
O O3 0.582168 0.569219 0.030245
O O4 0.499713 0.694205 0.877510
O O5 0.196468 0.783824 0.897852
O O6 0.127399 0.193224 0.851814
O O7 0.820578 0.750000 0.750000
O O8 0.789166 0.622240 0.598686
O O9 0.726871 0.639946 0.920765
O O10 0.750000 0.500000 0.000346
O O11 0.761879 0.403122 0.246697
#
# Coordination Sequence:
#
# PCOD9410060 Si02
#       6
#     8   4   4   8   8   8
#     4  11  21  36  67  96 126 163 218 270 331 386
#     4   9  18  34  55 100 126 154 207 264 325 384
#     4  11  18  36  61 100 118 158 213 282 329 366
#     4  12  21  41  68  98 128 166 222 286 329 373
#     4  11  27  45  60  93 141 180 216 260 328 411
#     4  10  20  38  62  86 133 165 204 273 327 369
#
# _framework density 20.786228000000001
#
# number of rings (size 3 to 8) (size 9 to 14) (size 15 to 20)
#    0.000    1.200    5.000    2.400    4.200    1.600 
#    0.000    1.000    0.000    0.000    0.000    0.000 
#    0.000    0.000    0.000    0.000    0.000    0.000 
#
# Total GULP energy -222864.617649 kJ/mol
# GULP energy per Si atom -5571.615441 kJ/mol
# Density = 2.073892 g / cm^3
# Si number density = 20.786228 Si / 1000 Ang^3
#
#
#
# Elastic Constant Matrix: (Units=GPa)
#
#
# Indices 1 2 3 4 5 6 
#
# 1 96.7725 9.9660 25.5474 0.0000 0.0000 0.0000
# 2 9.9660 39.8729 10.0230 0.0000 0.0000 0.0000
# 3 25.5474 10.0230 113.7891 0.0000 0.0000 0.0000
# 4 0.0000 0.0000 0.0000 11.5397 0.0000 0.0000
# 5 0.0000 0.0000 0.0000 0.0000 33.2587 0.0000
# 6 0.0000 0.0000 0.0000 0.0000 0.0000 28.5457
#
#
#
# Elastic Compliance Matrix: (Units=1/GPa)
#
#
# Indices 1 2 3 4 5 6 
#
# 1 0.011172 -0.002211 -0.002314 0.000000 0.000000 0.000000
# 2 -0.002211 0.026085 -0.001801 0.000000 0.000000 0.000000
# 3 -0.002314 -0.001801 0.009466 0.000000 0.000000 0.000000
# 4 0.000000 0.000000 0.000000 0.086658 0.000000 0.000000
# 5 0.000000 0.000000 0.000000 0.000000 0.030067 0.000000
# 6 0.000000 0.000000 0.000000 0.000000 0.000000 0.035032
#
#
# Mechanical properties :
#
#
# Convention : Reuss Voigt Hill
#
# Bulk Modulus (GPa) = 29.34963 37.94526 33.64745
# Shear Modulus (GPa) = 22.47308 28.32868 25.40088
#
# Velocity S-wave (km/s) = 3.29166 3.69570 3.49951
# Velocity P-wave (km/s) = 5.34762 6.04198 5.70537
#
# Compressibility (1/GPa) = 0.03407198
#
# Stress axis : x y z
#
# Youngs Moduli (GPa) = 89.50987 38.33612 105.63809
#
# Poissons Ratio (x) = 0.08475 0.24440
# Poissons Ratio (y) = 0.19789 0.19029
# Poissons Ratio (z) = 0.20708 0.06906
#
# Static dielectric constant tensor:
#      x y z
#    x 1.795460 0.000000 0.000000 
#    y 0.000000 1.801080 0.000000 
#    z 0.000000 0.000000 1.771930 
# 
# From -- ./inp_files/8724.got.cif
#   From: 2010.05.17/outbox.cif.g08.bks.cpg/sg52_5_cif.got.tgz:8724.got - 2010.06.03 12:15:38.
