data_PCOD9410975
_publ_section_title
;
Structure prediction by ZEFSAII (Michael W. Deem and Ramdas Pophale) SiO2 
 PCOD9410975
Probable space group: P N N A
;
_chemical_formula_sum "Si O2"
_cell_formula_units_Z 36
_cell_length_a 10.661473
_cell_length_b 23.593203
_cell_length_c 6.774370
_cell_angle_alpha 90.000000
_cell_angle_beta 90.000000
_cell_angle_gamma 90.000000
_cell_volume 1704.013491
_symmetry_space_group_name_H-M "P N N A"
_symmetry_group_IT_number 52
_symmetry_cell_setting 'orthorhombic'
loop_
_space_group_symop_operation_xyz
x,y,z
1/2-x,-y,z
x,1/2-y,1/2-z
1/2-x,1/2+y,1/2-z
-x,-y,-z
1/2+x,y,-z
-x,1/2+y,1/2+z
1/2+x,1/2-y,1/2+z
loop_
_atom_site_type_symbol
_atom_site_label
_atom_site_fract_x
_atom_site_fract_y
_atom_site_fract_z
Si Si1 0.668413 0.689434 0.852923
Si Si2 0.397585 0.932228 0.870880
Si Si3 0.750000 0.500000 0.042008
Si Si4 0.679047 0.571953 0.673099
Si Si5 0.389722 0.812886 0.659571
O O1 0.681614 0.750000 0.750000
O O2 0.679900 0.639630 0.694480
O O3 0.527712 0.684689 0.939383
O O4 0.776074 0.680387 0.010684
O O5 0.349630 0.968735 0.683500
O O6 0.543567 0.943320 0.916109
O O7 0.386477 0.865704 0.810132
O O8 0.301197 0.943738 0.047616
O O9 0.688637 0.545245 0.891842
O O10 0.379844 0.750000 0.750000
#
# Coordination Sequence:
#
# PCOD9410975 Si02
#       5
#     8   8   4   8   8
#     4  10  21  39  63  93 128 166 211 262 319 379
#     4  11  25  43  66  97 130 170 217 266 321 382
#     4  12  24  44  68  92 130 176 214 268 310 390
#     4  11  25  43  66  97 130 170 217 266 321 382
#     4  10  21  39  63  93 128 166 211 262 319 379
#
# _framework density 21.126594000000001
#
# number of rings (size 3 to 8) (size 9 to 14) (size 15 to 20)
#    0.000    1.333    2.222    2.667    0.000    8.000 
#    0.000    0.000    0.000    0.000    0.000    0.000 
#    0.000    0.000    0.000    0.000    0.000    0.000 
#
# Total GULP energy -201222.448664 kJ/mol
# GULP energy per Si atom -5589.512463 kJ/mol
# Density = 2.107851 g / cm^3
# Si number density = 21.126594 Si / 1000 Ang^3
#
#
#
# Elastic Constant Matrix: (Units=GPa)
#
#
# Indices 1 2 3 4 5 6 
#
# 1 199.6925 21.3324 63.7387 0.0000 0.0000 0.0000
# 2 21.3324 121.7343 9.7564 0.0000 0.0000 0.0000
# 3 63.7387 9.7564 65.9245 0.0000 0.0000 0.0000
# 4 0.0000 0.0000 0.0000 21.9370 0.0000 0.0000
# 5 0.0000 0.0000 0.0000 0.0000 28.7850 0.0000
# 6 0.0000 0.0000 0.0000 0.0000 0.0000 41.1258
#
#
#
# Elastic Compliance Matrix: (Units=1/GPa)
#
#
# Indices 1 2 3 4 5 6 
#
# 1 0.007305 -0.000723 -0.006956 0.000000 0.000000 0.000000
# 2 -0.000723 0.008385 -0.000542 0.000000 0.000000 0.000000
# 3 -0.006956 -0.000542 0.021974 0.000000 0.000000 0.000000
# 4 0.000000 0.000000 0.000000 0.045585 0.000000 0.000000
# 5 0.000000 0.000000 0.000000 0.000000 0.034740 0.000000
# 6 0.000000 0.000000 0.000000 0.000000 0.000000 0.024316
#
#
# Mechanical properties :
#
#
# Convention : Reuss Voigt Hill
#
# Bulk Modulus (GPa) = 47.11946 64.11181 55.61563
# Shear Modulus (GPa) = 30.15296 37.87115 34.01205
#
# Velocity S-wave (km/s) = 3.78200 4.23848 4.01673
# Velocity P-wave (km/s) = 6.43608 7.37329 6.92057
#
# Compressibility (1/GPa) = 0.02122266
#
# Stress axis : x y z
#
# Youngs Moduli (GPa) = 136.88992 119.26487 45.50736
#
# Poissons Ratio (x) = 0.08619 0.31655
# Poissons Ratio (y) = 0.09892 0.02467
# Poissons Ratio (z) = 0.95220 0.06466
#
# Static dielectric constant tensor:
#      x y z
#    x 1.745670 0.000000 0.000000 
#    y 0.000000 1.812630 0.000000 
#    z 0.000000 0.000000 1.715830 
# 
# From -- ./inp_files/1271.got.cif
#   From: 2010.05.17/outbox.cif.g08.bks.cpg/sg52_1_cif.got.tgz:1271.got - 2010.06.03 12:15:38.
