data_PCOD9410833
_publ_section_title
;
Structure prediction by ZEFSAII (Michael W. Deem and Ramdas Pophale) SiO2 
 PCOD9410833
Probable space group: P N N A
;
_chemical_formula_sum "Si O2"
_cell_formula_units_Z 32
_cell_length_a 4.932283
_cell_length_b 8.664089
_cell_length_c 34.137749
_cell_angle_alpha 90.000000
_cell_angle_beta 90.000000
_cell_angle_gamma 90.000000
_cell_volume 1458.833652
_symmetry_space_group_name_H-M "P N N A"
_symmetry_group_IT_number 52
_symmetry_cell_setting 'orthorhombic'
loop_
_space_group_symop_operation_xyz
x,y,z
1/2-x,-y,z
x,1/2-y,1/2-z
1/2-x,1/2+y,1/2-z
-x,-y,-z
1/2+x,y,-z
-x,1/2+y,1/2+z
1/2+x,1/2-y,1/2+z
loop_
_atom_site_type_symbol
_atom_site_label
_atom_site_fract_x
_atom_site_fract_y
_atom_site_fract_z
Si Si1 0.242855 0.314872 0.157914
Si Si2 0.993896 0.601967 0.407928
Si Si3 0.834453 0.662325 0.028295
Si Si4 0.741010 0.184082 0.292097
O O1 0.250000 0.500000 0.150391
O O2 0.362162 0.221272 0.121628
O O3 0.439907 0.275996 0.194227
O O4 0.945379 0.271732 0.172950
O O5 0.250000 0.500000 0.422660
O O6 0.750000 0.500000 0.389907
O O7 0.840735 0.698154 0.441669
O O8 0.750000 0.500000 0.048552
O O9 0.626530 0.667027 0.992154
O O10 0.813661 0.250000 0.250000
O O11 0.750000 0.000000 0.289071
#
# Coordination Sequence:
#
# PCOD9410833 Si02
#       4
#     8   8   8   8
#     4  10  23  42  62  87 125 172 215 252 307 385
#     4  12  26  41  64  99 132 165 208 265 324 366
#     4  10  23  43  67  93 124 168 214 253 307 382
#     4  10  21  38  62  90 120 162 211 261 314 370
#
# _framework density 21.935334000000001
#
# number of rings (size 3 to 8) (size 9 to 14) (size 15 to 20)
#    0.000    1.500    0.000    3.750    0.000   14.000 
#    0.000    0.000    0.000    0.000    0.000    0.000 
#    0.000    0.000    0.000    0.000    0.000    0.000 
#
# Total GULP energy -178731.613441 kJ/mol
# GULP energy per Si atom -5585.362920 kJ/mol
# Density = 2.188541 g / cm^3
# Si number density = 21.935334 Si / 1000 Ang^3
#
#
#
# Elastic Constant Matrix: (Units=GPa)
#
#
# Indices 1 2 3 4 5 6 
#
# 1 96.8202 45.4278 4.8917 0.0000 0.0000 0.0000
# 2 45.4278 88.1229 52.5366 0.0000 0.0000 0.0000
# 3 4.8917 52.5366 53.4796 0.0000 0.0000 0.0000
# 4 0.0000 0.0000 0.0000 34.9639 0.0000 0.0000
# 5 0.0000 0.0000 0.0000 0.0000 20.2036 0.0000
# 6 0.0000 0.0000 0.0000 0.0000 0.0000 34.0001
#
#
#
# Elastic Compliance Matrix: (Units=1/GPa)
#
#
# Indices 1 2 3 4 5 6 
#
# 1 0.019540 -0.021739 0.019568 0.000000 0.000000 0.000000
# 2 -0.021739 0.051573 -0.048675 0.000000 0.000000 0.000000
# 3 0.019568 -0.048675 0.064726 0.000000 0.000000 0.000000
# 4 0.000000 0.000000 0.000000 0.028601 0.000000 0.000000
# 5 0.000000 0.000000 0.000000 0.000000 0.049496 0.000000
# 6 0.000000 0.000000 0.000000 0.000000 0.000000 0.029412
#
#
# Mechanical properties :
#
#
# Convention : Reuss Voigt Hill
#
# Bulk Modulus (GPa) = 29.28537 49.34831 39.31684
# Shear Modulus (GPa) = 14.02835 26.87131 20.44983
#
# Velocity S-wave (km/s) = 2.53164 3.50383 3.05664
# Velocity P-wave (km/s) = 4.68245 6.23820 5.51546
#
# Compressibility (1/GPa) = 0.03414675
#
# Stress axis : x y z
#
# Youngs Moduli (GPa) = 51.17828 19.38994 15.44978
#
# Poissons Ratio (x) = 0.42151 -0.30232
# Poissons Ratio (y) = 1.11255 0.75202
# Poissons Ratio (z) = -1.00147 0.94381
#
# Static dielectric constant tensor:
#      x y z
#    x 1.782860 0.000000 0.000000 
#    y 0.000000 1.747370 0.000000 
#    z 0.000000 0.000000 1.745500 
# 
# From -- ./inp_files/43572.got.cif
#   From: 2010.05.17/outbox.cif.g08.bks.cpg/sg52_22_cif.got.tgz:43572.got - 2010.06.03 12:15:38.
