data_PCOD9410169
_publ_section_title
;
Structure prediction by ZEFSAII (Michael W. Deem and Ramdas Pophale) SiO2 
 PCOD9410169
Probable space group: P N N A
;
_chemical_formula_sum "Si O2"
_cell_formula_units_Z 60
_cell_length_a 20.858431
_cell_length_b 6.157685
_cell_length_c 22.639756
_cell_angle_alpha 90.000000
_cell_angle_beta 90.000000
_cell_angle_gamma 90.000000
_cell_volume 2907.842284
_symmetry_space_group_name_H-M "P N N A"
_symmetry_group_IT_number 52
_symmetry_cell_setting 'orthorhombic'
loop_
_space_group_symop_operation_xyz
x,y,z
1/2-x,-y,z
x,1/2-y,1/2-z
1/2-x,1/2+y,1/2-z
-x,-y,-z
1/2+x,y,-z
-x,1/2+y,1/2+z
1/2+x,1/2-y,1/2+z
loop_
_atom_site_type_symbol
_atom_site_label
_atom_site_fract_x
_atom_site_fract_y
_atom_site_fract_z
Si Si1 0.555174 0.834421 0.651712
Si Si2 0.016988 0.654928 0.923841
Si Si3 0.780715 0.251351 0.125431
Si Si4 0.462237 0.750000 0.750000
Si Si5 0.320599 0.938560 0.387733
Si Si6 0.101099 0.053640 0.082071
Si Si7 0.089660 0.856679 0.811856
Si Si8 0.356540 0.186059 0.504895
O O1 0.512404 0.876150 0.708522
O O2 0.570614 0.588729 0.634659
O O3 0.513651 0.931698 0.598170
O O4 0.623430 0.952635 0.650973
O O5 0.047256 0.778927 0.866986
O O6 0.074989 0.616599 0.968161
O O7 0.956306 0.798479 0.943121
O O8 0.750000 0.500000 0.137214
O O9 0.839334 0.220348 0.170993
O O10 0.808878 0.278050 0.059273
O O11 0.750000 0.000000 0.126946
O O12 0.419830 0.609971 0.704446
O O13 0.340248 0.689528 0.391631
O O14 0.250000 0.000000 0.367894
O O15 0.329878 0.026261 0.454901
O O16 0.128441 0.904807 0.030616
O O17 0.070868 0.750000 0.750000
#
# Coordination Sequence:
#
# PCOD9410169 Si02
#       8
#     8   8   8   4   8   8   8   8
#     4  10  22  37  65  91 126 166 213 288 336 412
#     4  10  20  39  56  97 131 163 218 277 345 399
#     4  11  28  47  67  99 143 185 241 286 335 408
#     4  12  22  42  72  96 124 164 234 280 366 404
#     4  10  23  41  61  88 131 174 222 267 336 418
#     4  10  21  37  60  94 127 170 213 278 339 398
#     4  11  24  41  71  96 129 178 220 291 347 411
#     4  10  23  36  64  92 129 183 219 274 330 408
#
# _framework density 20.633856999999999
#
# number of rings (size 3 to 8) (size 9 to 14) (size 15 to 20)
#    0.000    1.600    2.667    0.800    5.600    8.000 
#    0.000    0.000    2.933    0.000    0.000    0.000 
#    0.000    0.000    0.000    0.000    0.000    0.000 
#
# Total GULP energy -334315.517195 kJ/mol
# GULP energy per Si atom -5571.925287 kJ/mol
# Density = 2.058689 g / cm^3
# Si number density = 20.633857 Si / 1000 Ang^3
#
#
#
# Elastic Constant Matrix: (Units=GPa)
#
#
# Indices 1 2 3 4 5 6 
#
# 1 110.3956 53.7323 15.8018 0.0000 0.0000 0.0000
# 2 53.7323 79.1927 25.1473 0.0000 0.0000 0.0000
# 3 15.8018 25.1473 58.7676 0.0000 0.0000 0.0000
# 4 0.0000 0.0000 0.0000 30.0994 0.0000 0.0000
# 5 0.0000 0.0000 0.0000 0.0000 23.9055 0.0000
# 6 0.0000 0.0000 0.0000 0.0000 0.0000 3.7804
#
#
#
# Elastic Compliance Matrix: (Units=1/GPa)
#
#
# Indices 1 2 3 4 5 6 
#
# 1 0.013531 -0.009287 0.000336 0.000000 0.000000 0.000000
# 2 -0.009287 0.020988 -0.006484 0.000000 0.000000 0.000000
# 3 0.000336 -0.006484 0.019700 0.000000 0.000000 0.000000
# 4 0.000000 0.000000 0.000000 0.033223 0.000000 0.000000
# 5 0.000000 0.000000 0.000000 0.000000 0.041831 0.000000
# 6 0.000000 0.000000 0.000000 0.000000 0.000000 0.264520
#
#
# Mechanical properties :
#
#
# Convention : Reuss Voigt Hill
#
# Bulk Modulus (GPa) = 42.82904 48.63542 45.73223
# Shear Modulus (GPa) = 11.56215 21.80203 16.68209
#
# Velocity S-wave (km/s) = 2.36974 3.25409 2.84647
# Velocity P-wave (km/s) = 5.31877 6.14334 5.74586
#
# Compressibility (1/GPa) = 0.02334864
#
# Stress axis : x y z
#
# Youngs Moduli (GPa) = 73.90679 47.64708 50.76069
#
# Poissons Ratio (x) = 0.44251 -0.01705
# Poissons Ratio (y) = 0.68638 0.32911
# Poissons Ratio (z) = -0.02482 0.30893
#
# Static dielectric constant tensor:
#      x y z
#    x 1.732210 0.000000 0.000000 
#    y 0.000000 1.859510 0.000000 
#    z 0.000000 0.000000 1.736400 
# 
# From -- ./inp_files/41052.got.cif
#   From: 2010.05.17/outbox.cif.g08.bks.cpg/sg52_21_cif.got.tgz:41052.got - 2010.06.03 12:15:38.
