data_PCOD9410297
_publ_section_title
;
Structure prediction by ZEFSAII (Michael W. Deem and Ramdas Pophale) SiO2 
 PCOD9410297
Probable space group: P N N A
;
_chemical_formula_sum "Si O2"
_cell_formula_units_Z 64
_cell_length_a 28.112830
_cell_length_b 12.174879
_cell_length_c 10.450906
_cell_angle_alpha 90.000000
_cell_angle_beta 90.000000
_cell_angle_gamma 90.000000
_cell_volume 3577.034769
_symmetry_space_group_name_H-M "P N N A"
_symmetry_group_IT_number 52
_symmetry_cell_setting 'orthorhombic'
loop_
_space_group_symop_operation_xyz
x,y,z
1/2-x,-y,z
x,1/2-y,1/2-z
1/2-x,1/2+y,1/2-z
-x,-y,-z
1/2+x,y,-z
-x,1/2+y,1/2+z
1/2+x,1/2-y,1/2+z
loop_
_atom_site_type_symbol
_atom_site_label
_atom_site_fract_x
_atom_site_fract_y
_atom_site_fract_z
Si Si1 0.443360 0.006974 0.488418
Si Si2 0.761805 0.873824 0.179059
Si Si3 0.591910 0.739725 0.899451
Si Si4 0.988498 0.375891 0.456823
Si Si5 0.132131 0.171956 0.873280
Si Si6 0.917370 0.026562 0.220249
Si Si7 0.662591 0.681651 0.382684
Si Si8 0.418916 0.729368 0.103982
O O1 0.427767 0.117836 0.420377
O O2 0.500000 0.000000 0.500000
O O3 0.420198 0.009672 0.629411
O O4 0.427410 0.898874 0.415644
O O5 0.763183 0.750000 0.250000
O O6 0.815109 0.880044 0.124709
O O7 0.716264 0.855275 0.087652
O O8 0.750000 0.000000 0.236910
O O9 0.604227 0.750000 0.750000
O O10 0.549141 0.821058 0.944866
O O11 0.635329 0.761932 0.998711
O O12 0.960470 0.396526 0.323856
O O13 0.000000 0.500000 0.500000
O O14 0.033093 0.297306 0.431454
O O15 0.131420 0.250000 0.750000
O O16 0.087663 0.090537 0.847722
O O17 0.121121 0.232974 0.004405
O O18 0.870795 0.083894 0.164751
O O19 0.664527 0.750000 0.250000
O O20 0.406304 0.750000 0.250000
#
# Coordination Sequence:
#
# PCOD9410297 Si02
#       8
#     8   8   8   8   8   8   8   8
#     4  12  24  40  60  83 128 168 212 254 306 374
#     4  10  21  38  68 100 127 160 213 269 333 390
#     4  11  26  40  61  93 122 165 213 259 316 374
#     4  11  24  37  58  87 125 164 210 256 303 370
#     4  11  22  40  62  95 123 162 208 261 319 382
#     4  11  21  36  63  86 123 161 212 253 309 363
#     4  10  20  40  64  92 121 158 203 266 312 374
#     4  12  26  40  60  90 128 170 211 259 315 372
#
# _framework density 17.891914
#
# number of rings (size 3 to 8) (size 9 to 14) (size 15 to 20)
#    0.000    1.000    6.250    0.750    3.500    0.500 
#    0.000    0.625    0.000    0.000    0.000    0.000 
#    0.000    0.000    0.000    0.000    0.000    0.000 
#
# Total GULP energy -356280.854264 kJ/mol
# GULP energy per Si atom -5566.888348 kJ/mol
# Density = 1.785119 g / cm^3
# Si number density = 17.891914 Si / 1000 Ang^3
#
#
#
# Elastic Constant Matrix: (Units=GPa)
#
#
# Indices 1 2 3 4 5 6 
#
# 1 93.5605 38.3356 36.6788 0.0000 0.0000 0.0000
# 2 38.3356 127.2957 44.5294 0.0000 0.0000 0.0000
# 3 36.6788 44.5294 130.2940 0.0000 0.0000 0.0000
# 4 0.0000 0.0000 0.0000 23.9404 0.0000 0.0000
# 5 0.0000 0.0000 0.0000 0.0000 16.3579 0.0000
# 6 0.0000 0.0000 0.0000 0.0000 0.0000 77.6704
#
#
#
# Elastic Compliance Matrix: (Units=1/GPa)
#
#
# Indices 1 2 3 4 5 6 
#
# 1 0.012937 -0.002978 -0.002624 0.000000 0.000000 0.000000
# 2 -0.002978 0.009608 -0.002445 0.000000 0.000000 0.000000
# 3 -0.002624 -0.002445 0.009249 0.000000 0.000000 0.000000
# 4 0.000000 0.000000 0.000000 0.041770 0.000000 0.000000
# 5 0.000000 0.000000 0.000000 0.000000 0.061133 0.000000
# 6 0.000000 0.000000 0.000000 0.000000 0.000000 0.012875
#
#
# Mechanical properties :
#
#
# Convention : Reuss Voigt Hill
#
# Bulk Modulus (GPa) = 63.69618 65.58199 64.63909
# Shear Modulus (GPa) = 29.60319 39.03418 34.31868
#
# Velocity S-wave (km/s) = 4.07204 4.67590 4.38438
# Velocity P-wave (km/s) = 7.60174 8.11703 7.86361
#
# Compressibility (1/GPa) = 0.01569953
#
# Stress axis : x y z
#
# Youngs Moduli (GPa) = 77.29593 104.08008 108.11560
#
# Poissons Ratio (x) = 0.30997 0.28371
# Poissons Ratio (y) = 0.23020 0.26437
# Poissons Ratio (z) = 0.20283 0.25450
#
# Static dielectric constant tensor:
#      x y z
#    x 1.657480 0.000000 0.000000 
#    y 0.000000 1.586650 0.000000 
#    z 0.000000 0.000000 1.592240 
# 
# From -- ./inp_files/15740.got.cif
#   From: 2010.05.17/outbox.cif.g08.bks.cpg/sg52_8_cif.got.tgz:15740.got - 2010.06.03 12:15:38.
