data_PCOD9410487
_publ_section_title
;
Structure prediction by ZEFSAII (Michael W. Deem and Ramdas Pophale) SiO2 
 PCOD9410487
Probable space group: P N N A
;
_chemical_formula_sum "Si O2"
_cell_formula_units_Z 48
_cell_length_a 23.875267
_cell_length_b 11.450697
_cell_length_c 7.804560
_cell_angle_alpha 90.000000
_cell_angle_beta 90.000000
_cell_angle_gamma 90.000000
_cell_volume 2133.676547
_symmetry_space_group_name_H-M "P N N A"
_symmetry_group_IT_number 52
_symmetry_cell_setting 'orthorhombic'
loop_
_space_group_symop_operation_xyz
x,y,z
1/2-x,-y,z
x,1/2-y,1/2-z
1/2-x,1/2+y,1/2-z
-x,-y,-z
1/2+x,y,-z
-x,1/2+y,1/2+z
1/2+x,1/2-y,1/2+z
loop_
_atom_site_type_symbol
_atom_site_label
_atom_site_fract_x
_atom_site_fract_y
_atom_site_fract_z
Si Si1 0.763775 0.121620 0.016779
Si Si2 0.952321 0.109172 0.414978
Si Si3 0.358953 0.813619 0.934540
Si Si4 0.364805 0.466490 0.371031
Si Si5 0.928959 0.618735 0.892914
Si Si6 0.146971 0.750000 0.750000
Si Si7 0.936475 0.250000 0.750000
O O1 0.705495 0.188355 0.996189
O O2 0.810622 0.193855 0.115129
O O3 0.750000 0.000000 0.115640
O O4 0.800284 0.073485 0.857958
O O5 0.895978 0.160412 0.336593
O O6 0.964766 0.180049 0.593367
O O7 0.009343 0.123985 0.307614
O O8 0.940535 0.974453 0.455768
O O9 0.358301 0.750000 0.750000
O O10 0.373200 0.951846 0.959660
O O11 0.403030 0.738798 0.043481
O O12 0.383624 0.553856 0.223148
O O13 0.401413 0.351046 0.346700
#
# Coordination Sequence:
#
# PCOD9410487 Si02
#       7
#     8   8   8   8   8   4   4
#     4  10  23  43  64  96 133 178 234 287 348 419
#     4  10  24  40  69  97 140 178 232 287 349 434
#     4  11  24  42  70  99 139 182 231 298 349 427
#     4  10  22  45  66  92 142 174 236 286 352 427
#     4  10  24  46  63 101 138 182 233 289 358 424
#     4  12  22  40  69  99 130 182 236 284 352 420
#     4  10  20  44  65  97 134 178 218 294 346 426
#
# _framework density 22.496382000000001
#
# number of rings (size 3 to 8) (size 9 to 14) (size 15 to 20)
#    0.000    1.667    2.500    0.500    8.167    0.000 
#    9.000    1.667    0.000    0.000    0.000    0.000 
#    0.000    0.000    0.000    0.000    0.000    0.000 
#
# Total GULP energy -267510.174705 kJ/mol
# GULP energy per Si atom -5573.128640 kJ/mol
# Density = 2.244518 g / cm^3
# Si number density = 22.496382 Si / 1000 Ang^3
#
#
#
# Elastic Constant Matrix: (Units=GPa)
#
#
# Indices 1 2 3 4 5 6 
#
# 1 155.3034 52.0503 30.1716 0.0000 0.0000 0.0000
# 2 52.0503 136.1690 12.6316 0.0000 0.0000 0.0000
# 3 30.1716 12.6316 33.0617 0.0000 0.0000 0.0000
# 4 0.0000 0.0000 0.0000 33.6303 0.0000 0.0000
# 5 0.0000 0.0000 0.0000 0.0000 105.0869 0.0000
# 6 0.0000 0.0000 0.0000 0.0000 0.0000 50.7709
#
#
#
# Elastic Compliance Matrix: (Units=1/GPa)
#
#
# Indices 1 2 3 4 5 6 
#
# 1 0.008676 -0.002677 -0.006895 0.000000 0.000000 0.000000
# 2 -0.002677 0.008439 -0.000782 0.000000 0.000000 0.000000
# 3 -0.006895 -0.000782 0.036837 0.000000 0.000000 0.000000
# 4 0.000000 0.000000 0.000000 0.029735 0.000000 0.000000
# 5 0.000000 0.000000 0.000000 0.000000 0.009516 0.000000
# 6 0.000000 0.000000 0.000000 0.000000 0.000000 0.019696
#
#
# Mechanical properties :
#
#
# Convention : Reuss Voigt Hill
#
# Bulk Modulus (GPa) = 30.07859 57.13789 43.60824
# Shear Modulus (GPa) = 34.55731 53.20967 43.88349
#
# Velocity S-wave (km/s) = 3.92360 4.86866 4.42145
# Velocity P-wave (km/s) = 5.82457 7.55374 6.74480
#
# Compressibility (1/GPa) = 0.03324624
#
# Stress axis : x y z
#
# Youngs Moduli (GPa) = 115.26688 118.49082 27.14661
#
# Poissons Ratio (x) = 0.31716 0.18716
# Poissons Ratio (y) = 0.30853 0.02122
# Poissons Ratio (z) = 0.79471 0.09263
#
# Static dielectric constant tensor:
#      x y z
#    x 1.832690 0.000000 0.000000 
#    y 0.000000 1.907170 0.000000 
#    z 0.000000 0.000000 1.953910 
# 
# From -- ./inp_files/14296.got.cif
#   From: 2010.05.17/outbox.cif.g08.bks.cpg/sg52_8_cif.got.tgz:14296.got - 2010.06.03 12:15:38.
