data_PCOD9410685
_publ_section_title
;
Structure prediction by ZEFSAII (Michael W. Deem and Ramdas Pophale) SiO2 
 PCOD9410685
Probable space group: P N N A
;
_chemical_formula_sum "Si O2"
_cell_formula_units_Z 48
_cell_length_a 15.792392
_cell_length_b 26.433978
_cell_length_c 5.437811
_cell_angle_alpha 90.000000
_cell_angle_beta 90.000000
_cell_angle_gamma 90.000000
_cell_volume 2270.045430
_symmetry_space_group_name_H-M "P N N A"
_symmetry_group_IT_number 52
_symmetry_cell_setting 'orthorhombic'
loop_
_space_group_symop_operation_xyz
x,y,z
1/2-x,-y,z
x,1/2-y,1/2-z
1/2-x,1/2+y,1/2-z
-x,-y,-z
1/2+x,y,-z
-x,1/2+y,1/2+z
1/2+x,1/2-y,1/2+z
loop_
_atom_site_type_symbol
_atom_site_label
_atom_site_fract_x
_atom_site_fract_y
_atom_site_fract_z
Si Si1 0.360556 0.097915 0.082983
Si Si2 0.432614 0.807405 0.235763
Si Si3 0.326231 0.593914 0.197642
Si Si4 0.220428 0.950002 0.693335
Si Si5 0.040424 0.807453 0.264068
Si Si6 0.917731 0.003793 0.668221
O O1 0.262866 0.089801 0.163222
O O2 0.393285 0.148606 0.204384
O O3 0.421643 0.050846 0.146891
O O4 0.345587 0.091595 0.794146
O O5 0.398736 0.750000 0.250000
O O6 0.364668 0.851252 0.268609
O O7 0.497308 0.813326 0.467687
O O8 0.475475 0.812120 0.966832
O O9 0.392549 0.550601 0.276637
O O10 0.299268 0.580594 0.917475
O O11 0.163756 0.979141 0.491529
O O12 0.250000 0.000000 0.848126
O O13 0.074884 0.750000 0.250000
O O14 0.000000 0.000000 0.500000
#
# Coordination Sequence:
#
# PCOD9410685 Si02
#       6
#     8   8   8   8   8   8
#     4  11  22  37  63  88 128 169 211 262 322 384
#     4  10  23  45  67  93 126 165 214 269 320 376
#     4  10  22  37  62  89 131 164 212 261 320 380
#     4   9  20  37  55  89 130 167 208 260 317 385
#     4  10  24  43  67  92 125 165 213 268 320 376
#     4  10  21  37  57  90 127 164 211 259 315 380
#
# _framework density 21.144953000000001
#
# number of rings (size 3 to 8) (size 9 to 14) (size 15 to 20)
#    0.000    2.000    0.000    3.500    9.333    1.333 
#    0.000    0.000    0.000    0.000    0.000    0.000 
#    0.000    0.000    0.000    0.000    0.000    0.000 
#
# Total GULP energy -267397.986477 kJ/mol
# GULP energy per Si atom -5570.791385 kJ/mol
# Density = 2.109683 g / cm^3
# Si number density = 21.144953 Si / 1000 Ang^3
#
#
#
# Elastic Constant Matrix: (Units=GPa)
#
#
# Indices 1 2 3 4 5 6 
#
# 1 62.6581 53.2841 0.2603 0.0000 0.0000 0.0000
# 2 53.2841 156.1518 29.1593 0.0000 0.0000 0.0000
# 3 0.2603 29.1593 45.0940 0.0000 0.0000 0.0000
# 4 0.0000 0.0000 0.0000 30.2685 0.0000 0.0000
# 5 0.0000 0.0000 0.0000 0.0000 25.3685 0.0000
# 6 0.0000 0.0000 0.0000 0.0000 0.0000 35.0961
#
#
#
# Elastic Compliance Matrix: (Units=1/GPa)
#
#
# Indices 1 2 3 4 5 6 
#
# 1 0.023749 -0.009188 0.005804 0.000000 0.000000 0.000000
# 2 -0.009188 0.010838 -0.006955 0.000000 0.000000 0.000000
# 3 0.005804 -0.006955 0.026640 0.000000 0.000000 0.000000
# 4 0.000000 0.000000 0.000000 0.033038 0.000000 0.000000
# 5 0.000000 0.000000 0.000000 0.000000 0.039419 0.000000
# 6 0.000000 0.000000 0.000000 0.000000 0.000000 0.028493
#
#
# Mechanical properties :
#
#
# Convention : Reuss Voigt Hill
#
# Bulk Modulus (GPa) = 24.66168 47.70125 36.18146
# Shear Modulus (GPa) = 25.46214 30.22664 27.84439
#
# Velocity S-wave (km/s) = 3.47388 3.78497 3.63276
# Velocity P-wave (km/s) = 5.27057 6.45829 5.89442
#
# Compressibility (1/GPa) = 0.04054874
#
# Stress axis : x y z
#
# Youngs Moduli (GPa) = 42.10775 92.26869 37.53778
#
# Poissons Ratio (x) = 0.84773 -0.21787
# Poissons Ratio (y) = 0.38687 0.26108
# Poissons Ratio (z) = -0.24439 0.64174
#
# Static dielectric constant tensor:
#      x y z
#    x 1.746510 0.000000 0.000000 
#    y 0.000000 1.810710 0.000000 
#    z 0.000000 0.000000 2.054960 
# 
# From -- ./inp_files/2442.got.cif
#   From: 2010.05.17/outbox.cif.g08.bks.cpg/sg52_2_cif.got.tgz:2442.got - 2010.06.03 12:15:38.
