data_PCOD9410710
_publ_section_title
;
Structure prediction by ZEFSAII (Michael W. Deem and Ramdas Pophale) SiO2 
 PCOD9410710
Probable space group: P N N A
;
_chemical_formula_sum "Si O2"
_cell_formula_units_Z 48
_cell_length_a 9.636095
_cell_length_b 22.275733
_cell_length_c 10.510100
_cell_angle_alpha 90.000000
_cell_angle_beta 90.000000
_cell_angle_gamma 90.000000
_cell_volume 2256.004309
_symmetry_space_group_name_H-M "P N N A"
_symmetry_group_IT_number 52
_symmetry_cell_setting 'orthorhombic'
loop_
_space_group_symop_operation_xyz
x,y,z
1/2-x,-y,z
x,1/2-y,1/2-z
1/2-x,1/2+y,1/2-z
-x,-y,-z
1/2+x,y,-z
-x,1/2+y,1/2+z
1/2+x,1/2-y,1/2+z
loop_
_atom_site_type_symbol
_atom_site_label
_atom_site_fract_x
_atom_site_fract_y
_atom_site_fract_z
Si Si1 0.530738 0.240412 0.983850
Si Si2 0.084752 0.487731 0.130465
Si Si3 0.707185 0.192835 0.303321
Si Si4 0.964489 0.134514 0.419317
Si Si5 0.779028 0.197357 0.855341
Si Si6 0.972027 0.108931 0.723898
O O1 0.533256 0.300888 0.900021
O O2 0.626711 0.192913 0.913821
O O3 0.605861 0.266641 0.109600
O O4 0.381747 0.218137 0.029858
O O5 0.250000 0.500000 0.114593
O O6 0.028588 0.537054 0.230248
O O7 0.044234 0.418545 0.152275
O O8 0.000000 0.500000 0.000000
O O9 0.793407 0.250000 0.250000
O O10 0.807379 0.147009 0.376584
O O11 0.604916 0.147280 0.228814
O O12 0.963177 0.122069 0.571409
O O13 0.787989 0.250000 0.750000
O O14 0.841366 0.137965 0.793368
#
# Coordination Sequence:
#
# PCOD9410710 Si02
#       6
#     8   8   8   8   8   8
#     4  11  21  35  58  86 127 161 202 254 322 374
#     4  10  24  37  56  85 122 166 203 249 309 382
#     4  11  19  35  56  88 123 157 197 258 310 380
#     4  10  22  35  58  87 127 158 207 254 316 386
#     4  12  21  39  59  88 130 172 198 262 324 377
#     4  10  21  37  60  79 130 167 201 251 320 370
#
# _framework density 21.276554999999998
#
# number of rings (size 3 to 8) (size 9 to 14) (size 15 to 20)
#    0.000    1.333    6.667    0.000   16.333    0.667 
#    0.000    0.000    0.000    0.000    0.000    4.667 
#    0.000    0.000    0.000    0.000    0.000    0.000 
#
# Total GULP energy -267495.719666 kJ/mol
# GULP energy per Si atom -5572.827493 kJ/mol
# Density = 2.122813 g / cm^3
# Si number density = 21.276555 Si / 1000 Ang^3
#
#
#
# Elastic Constant Matrix: (Units=GPa)
#
#
# Indices 1 2 3 4 5 6 
#
# 1 73.2613 27.3329 15.6898 0.0000 0.0000 0.0000
# 2 27.3329 126.5983 29.6823 0.0000 0.0000 0.0000
# 3 15.6898 29.6823 35.7023 0.0000 0.0000 0.0000
# 4 0.0000 0.0000 0.0000 32.1390 0.0000 0.0000
# 5 0.0000 0.0000 0.0000 0.0000 28.5161 0.0000
# 6 0.0000 0.0000 0.0000 0.0000 0.0000 31.7280
#
#
#
# Elastic Compliance Matrix: (Units=1/GPa)
#
#
# Indices 1 2 3 4 5 6 
#
# 1 0.015537 -0.002178 -0.005017 0.000000 0.000000 0.000000
# 2 -0.002178 0.010117 -0.007454 0.000000 0.000000 0.000000
# 3 -0.005017 -0.007454 0.036411 0.000000 0.000000 0.000000
# 4 0.000000 0.000000 0.000000 0.031115 0.000000 0.000000
# 5 0.000000 0.000000 0.000000 0.000000 0.035068 0.000000
# 6 0.000000 0.000000 0.000000 0.000000 0.000000 0.031518
#
#
# Mechanical properties :
#
#
# Convention : Reuss Voigt Hill
#
# Bulk Modulus (GPa) = 30.51847 42.33021 36.42434
# Shear Modulus (GPa) = 25.00178 29.33375 27.16776
#
# Velocity S-wave (km/s) = 3.43167 3.71710 3.57723
# Velocity P-wave (km/s) = 5.48422 6.19361 5.84968
#
# Compressibility (1/GPa) = 0.03276704
#
# Stress axis : x y z
#
# Youngs Moduli (GPa) = 64.36305 98.84455 27.46413
#
# Poissons Ratio (x) = 0.21530 0.13779
# Poissons Ratio (y) = 0.14019 0.20471
# Poissons Ratio (z) = 0.32291 0.73677
#
# Static dielectric constant tensor:
#      x y z
#    x 1.877830 0.000000 0.000000 
#    y 0.000000 1.847870 0.000000 
#    z 0.000000 0.000000 1.885870 
# 
# From -- ./inp_files/16937.got.cif
#   From: 2010.05.17/outbox.cif.g08.bks.cpg/sg52_9_cif.got.tgz:16937.got - 2010.06.03 12:15:38.
