data_PCOD9410808
_publ_section_title
;
Structure prediction by ZEFSAII (Michael W. Deem and Ramdas Pophale) SiO2 
 PCOD9410808
Probable space group: P N N A
;
_chemical_formula_sum "Si O2"
_cell_formula_units_Z 60
_cell_length_a 13.867228
_cell_length_b 29.538182
_cell_length_c 6.363526
_cell_angle_alpha 90.000000
_cell_angle_beta 90.000000
_cell_angle_gamma 90.000000
_cell_volume 2606.581095
_symmetry_space_group_name_H-M "P N N A"
_symmetry_group_IT_number 52
_symmetry_cell_setting 'orthorhombic'
loop_
_space_group_symop_operation_xyz
x,y,z
1/2-x,-y,z
x,1/2-y,1/2-z
1/2-x,1/2+y,1/2-z
-x,-y,-z
1/2+x,y,-z
-x,1/2+y,1/2+z
1/2+x,1/2-y,1/2+z
loop_
_atom_site_type_symbol
_atom_site_label
_atom_site_fract_x
_atom_site_fract_y
_atom_site_fract_z
Si Si1 0.298772 0.954617 0.152307
Si Si2 0.161312 0.713170 0.097068
Si Si3 0.021935 0.750000 0.750000
Si Si4 0.069177 0.486113 0.691582
Si Si5 0.321103 0.696518 0.756788
Si Si6 0.260702 0.142182 0.144223
Si Si7 0.566157 0.339427 0.885781
Si Si8 0.005266 0.066069 0.416220
O O1 0.227879 0.911708 0.127907
O O2 0.393468 0.944968 0.295079
O O3 0.250000 0.000000 0.236538
O O4 0.337649 0.966095 0.919269
O O5 0.210139 0.750000 0.250000
O O6 0.151480 0.669783 0.249422
O O7 0.080528 0.740560 0.966544
O O8 0.230406 0.697442 0.912975
O O9 0.962519 0.703688 0.745619
O O10 0.000000 0.500000 0.500000
O O11 0.075310 0.532375 0.825297
O O12 0.022877 0.448704 0.844392
O O13 0.345958 0.750000 0.750000
O O14 0.280100 0.668826 0.559263
O O15 0.411335 0.673706 0.873702
O O16 0.168768 0.145214 0.298354
O O17 0.491338 0.380690 0.878982
#
# Coordination Sequence:
#
# PCOD9410808 Si02
#       8
#     8   8   4   8   8   8   8   8
#     4  10  21  38  60  97 125 158 215 267 309 387
#     4  11  22  41  58  85 129 169 203 260 330 392
#     4  12  24  40  56  96 134 160 218 276 326 384
#     4   9  18  37  62  83 121 162 204 263 321 374
#     4  11  19  37  65  86 117 171 215 261 318 390
#     4  10  21  40  64  91 125 171 219 255 325 393
#     4  10  23  37  62  92 122 165 222 263 315 390
#     4   9  19  40  60  87 123 166 206 262 328 383
#
# _framework density 23.018659
#
# number of rings (size 3 to 8) (size 9 to 14) (size 15 to 20)
#    0.000    1.867    2.000    1.600    1.867    2.133 
#   12.000    0.000    0.000    0.000    0.000    0.000 
#    0.000    0.000    0.000    0.000    0.000    0.000 
#
# Total GULP energy -334399.678758 kJ/mol
# GULP energy per Si atom -5573.327979 kJ/mol
# Density = 2.296627 g / cm^3
# Si number density = 23.018659 Si / 1000 Ang^3
#
#
#
# Elastic Constant Matrix: (Units=GPa)
#
#
# Indices 1 2 3 4 5 6 
#
# 1 27.3478 23.7932 13.9304 0.0000 0.0000 0.0000
# 2 23.7932 161.7559 30.0478 0.0000 0.0000 0.0000
# 3 13.9304 30.0478 84.7459 0.0000 0.0000 0.0000
# 4 0.0000 0.0000 0.0000 10.9022 0.0000 0.0000
# 5 0.0000 0.0000 0.0000 0.0000 5.7326 0.0000
# 6 0.0000 0.0000 0.0000 0.0000 0.0000 16.7733
#
#
#
# Elastic Compliance Matrix: (Units=1/GPa)
#
#
# Indices 1 2 3 4 5 6 
#
# 1 0.044042 -0.005495 -0.005291 0.000000 0.000000 0.000000
# 2 -0.005495 0.007304 -0.001686 0.000000 0.000000 0.000000
# 3 -0.005291 -0.001686 0.013268 0.000000 0.000000 0.000000
# 4 0.000000 0.000000 0.000000 0.091725 0.000000 0.000000
# 5 0.000000 0.000000 0.000000 0.000000 0.174441 0.000000
# 6 0.000000 0.000000 0.000000 0.000000 0.000000 0.059618
#
#
# Mechanical properties :
#
#
# Convention : Reuss Voigt Hill
#
# Bulk Modulus (GPa) = 25.20925 45.48803 35.34864
# Shear Modulus (GPa) = 11.66680 20.42017 16.04349
#
# Velocity S-wave (km/s) = 2.25376 2.98168 2.64290
# Velocity P-wave (km/s) = 4.21284 5.62656 4.97022
#
# Compressibility (1/GPa) = 0.03966798
#
# Stress axis : x y z
#
# Youngs Moduli (GPa) = 22.70541 136.91608 75.37140
#
# Poissons Ratio (x) = 0.75241 0.39880
# Poissons Ratio (y) = 0.12478 0.12710
# Poissons Ratio (z) = 0.12014 0.23088
#
# Static dielectric constant tensor:
#      x y z
#    x 1.892110 0.000000 0.000000 
#    y 0.000000 1.986460 0.000000 
#    z 0.000000 0.000000 1.882390 
# 
# From -- ./inp_files/3585.got.cif
#   From: 2010.05.17/outbox.cif.g08.bks.cpg/sg52_2_cif.got.tgz:3585.got - 2010.06.03 12:15:38.
