data_PCOD9410514
_publ_section_title
;
Structure prediction by ZEFSAII (Michael W. Deem and Ramdas Pophale) SiO2 
 PCOD9410514
Probable space group: P N N A
;
_chemical_formula_sum "Si O2"
_cell_formula_units_Z 36
_cell_length_a 10.473168
_cell_length_b 24.564015
_cell_length_c 6.138248
_cell_angle_alpha 90.000000
_cell_angle_beta 90.000000
_cell_angle_gamma 90.000000
_cell_volume 1579.144438
_symmetry_space_group_name_H-M "P N N A"
_symmetry_group_IT_number 52
_symmetry_cell_setting 'orthorhombic'
loop_
_space_group_symop_operation_xyz
x,y,z
1/2-x,-y,z
x,1/2-y,1/2-z
1/2-x,1/2+y,1/2-z
-x,-y,-z
1/2+x,y,-z
-x,1/2+y,1/2+z
1/2+x,1/2-y,1/2+z
loop_
_atom_site_type_symbol
_atom_site_label
_atom_site_fract_x
_atom_site_fract_y
_atom_site_fract_z
Si Si1 0.093136 0.805367 0.372797
Si Si2 0.272848 0.439168 0.815814
Si Si3 0.700092 0.348789 0.535970
Si Si4 0.750661 0.750000 0.250000
Si Si5 0.952382 0.603910 0.903022
O O1 0.060246 0.750000 0.250000
O O2 0.192377 0.836704 0.218008
O O3 0.163515 0.788031 0.595799
O O4 0.979000 0.844915 0.438468
O O5 0.250000 0.500000 0.732294
O O6 0.246323 0.394487 0.630874
O O7 0.417369 0.430249 0.896553
O O8 0.168987 0.428419 0.005771
O O9 0.680154 0.291270 0.415057
O O10 0.578919 0.371345 0.666663
#
# Coordination Sequence:
#
# PCOD9410514 Si02
#       5
#     8   8   8   4   8
#     4  10  23  47  72 107 152 200 239 297 372 453
#     4  12  29  51  78 107 147 202 259 317 375 441
#     4  11  24  46  74 108 155 192 249 302 377 447
#     4  10  20  48  68 108 150 200 238 294 370 456
#     4  12  25  51  75 112 152 195 254 312 377 449
#
# _framework density 22.797153999999999
#
# number of rings (size 3 to 8) (size 9 to 14) (size 15 to 20)
#    0.000    0.889    4.444    0.667    3.111    1.778 
#   26.000    0.000    0.000    0.000    0.000    0.000 
#    0.000    0.000    0.000    0.000    0.000    0.000 
#
# Total GULP energy -201679.980200 kJ/mol
# GULP energy per Si atom -5602.221672 kJ/mol
# Density = 2.274527 g / cm^3
# Si number density = 22.797154 Si / 1000 Ang^3
#
#
#
# Elastic Constant Matrix: (Units=GPa)
#
#
# Indices 1 2 3 4 5 6 
#
# 1 125.3594 25.0889 34.8367 0.0000 0.0000 0.0000
# 2 25.0889 110.3176 19.2348 0.0000 0.0000 0.0000
# 3 34.8367 19.2348 85.6863 0.0000 0.0000 0.0000
# 4 0.0000 0.0000 0.0000 29.9759 0.0000 0.0000
# 5 0.0000 0.0000 0.0000 0.0000 34.9994 0.0000
# 6 0.0000 0.0000 0.0000 0.0000 0.0000 16.2288
#
#
#
# Elastic Compliance Matrix: (Units=1/GPa)
#
#
# Indices 1 2 3 4 5 6 
#
# 1 0.009227 -0.001503 -0.003414 0.000000 0.000000 0.000000
# 2 -0.001503 0.009679 -0.001562 0.000000 0.000000 0.000000
# 3 -0.003414 -0.001562 0.013409 0.000000 0.000000 0.000000
# 4 0.000000 0.000000 0.000000 0.033360 0.000000 0.000000
# 5 0.000000 0.000000 0.000000 0.000000 0.028572 0.000000
# 6 0.000000 0.000000 0.000000 0.000000 0.000000 0.061619
#
#
# Mechanical properties :
#
#
# Convention : Reuss Voigt Hill
#
# Bulk Modulus (GPa) = 51.65977 53.29822 52.47899
# Shear Modulus (GPa) = 28.52668 32.38769 30.45719
#
# Velocity S-wave (km/s) = 3.54125 3.77329 3.65911
# Velocity P-wave (km/s) = 6.27936 6.51258 6.39704
#
# Compressibility (1/GPa) = 0.01935742
#
# Stress axis : x y z
#
# Youngs Moduli (GPa) = 108.38286 103.31794 74.57730
#
# Poissons Ratio (x) = 0.15530 0.25459
# Poissons Ratio (y) = 0.16291 0.11646
# Poissons Ratio (z) = 0.36999 0.16134
#
# Static dielectric constant tensor:
#      x y z
#    x 1.892900 0.000000 0.000000 
#    y 0.000000 1.807240 0.000000 
#    z 0.000000 0.000000 1.841240 
# 
# From -- ./inp_files/1235.got.cif
#   From: 2010.05.17/outbox.cif.g08.bks.cpg/sg52_1_cif.got.tgz:1235.got - 2010.06.03 12:15:38.
