data_PCOD9410180
_publ_section_title
;
Structure prediction by ZEFSAII (Michael W. Deem and Ramdas Pophale) SiO2 
 PCOD9410180
Probable space group: P N N A
;
_chemical_formula_sum "Si O2"
_cell_formula_units_Z 32
_cell_length_a 15.683622
_cell_length_b 13.945905
_cell_length_c 7.225753
_cell_angle_alpha 90.000000
_cell_angle_beta 90.000000
_cell_angle_gamma 90.000000
_cell_volume 1580.433333
_symmetry_space_group_name_H-M "P N N A"
_symmetry_group_IT_number 52
_symmetry_cell_setting 'orthorhombic'
loop_
_space_group_symop_operation_xyz
x,y,z
1/2-x,-y,z
x,1/2-y,1/2-z
1/2-x,1/2+y,1/2-z
-x,-y,-z
1/2+x,y,-z
-x,1/2+y,1/2+z
1/2+x,1/2-y,1/2+z
loop_
_atom_site_type_symbol
_atom_site_label
_atom_site_fract_x
_atom_site_fract_y
_atom_site_fract_z
Si Si1 0.308507 0.858272 0.827375
Si Si2 0.847509 0.988731 0.522004
Si Si3 0.380011 0.363660 0.729052
Si Si4 0.566022 0.360142 0.672281
O O1 0.307114 0.750000 0.750000
O O2 0.342187 0.922253 0.659658
O O3 0.210271 0.889051 0.864930
O O4 0.369923 0.865317 0.001278
O O5 0.903282 0.935215 0.672844
O O6 0.750000 0.000000 0.590123
O O7 0.880127 0.088094 0.433361
O O8 0.379056 0.250000 0.750000
O O9 0.467988 0.386323 0.626316
O O10 0.568699 0.250000 0.750000
#
# Coordination Sequence:
#
# PCOD9410180 Si02
#       4
#     8   8   8   8
#     4  10  20  39  60  86 126 159 203 260 314 364
#     4  10  21  38  63  89 123 165 201 255 311 368
#     4   9  21  39  61  90 125 164 204 260 312 364
#     4  11  21  38  65  91 120 165 212 250 313 380
#
# _framework density 20.247610999999999
#
# number of rings (size 3 to 8) (size 9 to 14) (size 15 to 20)
#    0.000    2.000    2.500    0.750    0.000    4.000 
#    0.000    6.250    0.000    0.000    0.000    0.000 
#    0.000    0.000    0.000    0.000    0.000    0.000 
#
# Total GULP energy -178616.412590 kJ/mol
# GULP energy per Si atom -5581.762893 kJ/mol
# Density = 2.020153 g / cm^3
# Si number density = 20.247611 Si / 1000 Ang^3
#
#
#
# Elastic Constant Matrix: (Units=GPa)
#
#
# Indices 1 2 3 4 5 6 
#
# 1 183.9053 21.3687 90.1280 0.0000 0.0000 0.0000
# 2 21.3687 106.9320 26.9537 0.0000 0.0000 0.0000
# 3 90.1280 26.9537 75.1159 0.0000 0.0000 0.0000
# 4 0.0000 0.0000 0.0000 31.7496 0.0000 0.0000
# 5 0.0000 0.0000 0.0000 0.0000 20.9753 0.0000
# 6 0.0000 0.0000 0.0000 0.0000 0.0000 81.5394
#
#
#
# Elastic Compliance Matrix: (Units=1/GPa)
#
#
# Indices 1 2 3 4 5 6 
#
# 1 0.013418 0.001514 -0.016643 0.000000 0.000000 0.000000
# 2 0.001514 0.010452 -0.005567 0.000000 0.000000 0.000000
# 3 -0.016643 -0.005567 0.035279 0.000000 0.000000 0.000000
# 4 0.000000 0.000000 0.000000 0.031496 0.000000 0.000000
# 5 0.000000 0.000000 0.000000 0.000000 0.047675 0.000000
# 6 0.000000 0.000000 0.000000 0.000000 0.000000 0.012264
#
#
# Mechanical properties :
#
#
# Convention : Reuss Voigt Hill
#
# Bulk Modulus (GPa) = 56.31332 71.42823 63.87078
# Shear Modulus (GPa) = 25.26579 42.01970 33.64274
#
# Velocity S-wave (km/s) = 3.53631 4.56048 4.08065
# Velocity P-wave (km/s) = 6.67433 7.94258 7.33591
#
# Compressibility (1/GPa) = 0.01775779
#
# Stress axis : x y z
#
# Youngs Moduli (GPa) = 74.52715 95.67145 28.34542
#
# Poissons Ratio (x) = -0.14481 0.47174
# Poissons Ratio (y) = -0.11281 0.15779
# Poissons Ratio (z) = 1.24033 0.53258
#
# Static dielectric constant tensor:
#      x y z
#    x 1.761130 0.000000 0.000000 
#    y 0.000000 1.826170 0.000000 
#    z 0.000000 0.000000 1.682630 
# 
# From -- ./inp_files/2975.got.cif
#   From: 2010.05.17/outbox.cif.g08.bks.cpg/sg52_2_cif.got.tgz:2975.got - 2010.06.03 12:15:38.
