data_PCOD9410945
_publ_section_title
;
Structure prediction by ZEFSAII (Michael W. Deem and Ramdas Pophale) SiO2 
 PCOD9410945
Probable space group: P N N A
;
_chemical_formula_sum "Si O2"
_cell_formula_units_Z 56
_cell_length_a 12.939712
_cell_length_b 14.747001
_cell_length_c 14.104456
_cell_angle_alpha 90.000000
_cell_angle_beta 90.000000
_cell_angle_gamma 90.000000
_cell_volume 2691.439738
_symmetry_space_group_name_H-M "P N N A"
_symmetry_group_IT_number 52
_symmetry_cell_setting 'orthorhombic'
loop_
_space_group_symop_operation_xyz
x,y,z
1/2-x,-y,z
x,1/2-y,1/2-z
1/2-x,1/2+y,1/2-z
-x,-y,-z
1/2+x,y,-z
-x,1/2+y,1/2+z
1/2+x,1/2-y,1/2+z
loop_
_atom_site_type_symbol
_atom_site_label
_atom_site_fract_x
_atom_site_fract_y
_atom_site_fract_z
Si Si1 0.024990 0.406680 0.446190
Si Si2 0.871690 0.508231 0.103036
Si Si3 0.629642 0.512682 0.707983
Si Si4 0.605581 0.302973 0.157453
Si Si5 0.682785 0.248144 0.961932
Si Si6 0.595135 0.804788 0.906621
Si Si7 0.428323 0.581590 0.105564
O O1 0.935610 0.342550 0.488609
O O2 0.000000 0.500000 0.500000
O O3 0.051296 0.440666 0.341282
O O4 0.128137 0.349730 0.471407
O O5 0.750000 0.500000 0.113412
O O6 0.905116 0.590104 0.172133
O O7 0.947935 0.424077 0.118255
O O8 0.897768 0.541617 0.996877
O O9 0.750000 0.500000 0.678312
O O10 0.599983 0.611997 0.668407
O O11 0.621848 0.485320 0.817422
O O12 0.639970 0.250000 0.250000
O O13 0.495372 0.262411 0.125150
O O14 0.681806 0.287264 0.068592
O O15 0.794315 0.240779 0.915902
O O16 0.614630 0.316398 0.897663
#
# Coordination Sequence:
#
# PCOD9410945 Si02
#       7
#     8   8   8   8   8   8   8
#     4   9  20  37  59  87 124 167 206 263 313 385
#     4  10  22  43  63  86 130 172 211 266 338 390
#     4  11  20  37  63  95 127 159 221 269 325 390
#     4  10  22  40  65  92 124 164 232 266 315 407
#     4  10  21  39  61  94 128 170 204 266 339 381
#     4  10  21  39  64  87 131 169 212 266 337 386
#     4  10  23  37  63  95 127 163 217 267 324 395
#
# _framework density 20.806706999999999
#
# number of rings (size 3 to 8) (size 9 to 14) (size 15 to 20)
#    0.000    2.000    1.429    1.286    0.000   12.000 
#    2.571    0.000    0.000    0.000    0.000    0.000 
#    0.000    0.000    0.000    0.000    0.000    0.000 
#
# Total GULP energy -312164.481646 kJ/mol
# GULP energy per Si atom -5574.365744 kJ/mol
# Density = 2.075935 g / cm^3
# Si number density = 20.806707 Si / 1000 Ang^3
#
#
#
# Elastic Constant Matrix: (Units=GPa)
#
#
# Indices 1 2 3 4 5 6 
#
# 1 115.1486 51.0939 16.4303 0.0000 0.0000 0.0000
# 2 51.0939 69.2095 16.7988 0.0000 0.0000 0.0000
# 3 16.4303 16.7988 68.6229 0.0000 0.0000 0.0000
# 4 0.0000 0.0000 0.0000 20.8328 0.0000 0.0000
# 5 0.0000 0.0000 0.0000 0.0000 18.5767 0.0000
# 6 0.0000 0.0000 0.0000 0.0000 0.0000 30.2699
#
#
#
# Elastic Compliance Matrix: (Units=1/GPa)
#
#
# Indices 1 2 3 4 5 6 
#
# 1 0.012957 -0.009369 -0.000809 0.000000 0.000000 0.000000
# 2 -0.009369 0.022137 -0.003176 0.000000 0.000000 0.000000
# 3 -0.000809 -0.003176 0.015543 0.000000 0.000000 0.000000
# 4 0.000000 0.000000 0.000000 0.048001 0.000000 0.000000
# 5 0.000000 0.000000 0.000000 0.000000 0.053831 0.000000
# 6 0.000000 0.000000 0.000000 0.000000 0.000000 0.033036
#
#
# Mechanical properties :
#
#
# Convention : Reuss Voigt Hill
#
# Bulk Modulus (GPa) = 41.78913 46.84744 44.31828
# Shear Modulus (GPa) = 22.70769 25.17975 23.94372
#
# Velocity S-wave (km/s) = 3.30716 3.48253 3.39598
# Velocity P-wave (km/s) = 5.89162 6.22375 6.05996
#
# Compressibility (1/GPa) = 0.02392967
#
# Stress axis : x y z
#
# Youngs Moduli (GPa) = 77.17707 45.17400 64.33582
#
# Poissons Ratio (x) = 0.42325 0.05203
# Poissons Ratio (y) = 0.72310 0.20431
# Poissons Ratio (z) = 0.06241 0.14346
#
# Static dielectric constant tensor:
#      x y z
#    x 1.737300 0.000000 0.000000 
#    y 0.000000 1.792550 0.000000 
#    z 0.000000 0.000000 1.777220 
# 
# From -- ./inp_files/26169.got.cif
#   From: 2010.05.17/outbox.cif.g08.bks.cpg/sg52_14_cif.got.tgz:26169.got - 2010.06.03 12:15:38.
