data_PCOD9410319
_publ_section_title
;
Structure prediction by ZEFSAII (Michael W. Deem and Ramdas Pophale) SiO2 
 PCOD9410319
Probable space group: P N N A
;
_chemical_formula_sum "Si O2"
_cell_formula_units_Z 56
_cell_length_a 19.170447
_cell_length_b 9.083527
_cell_length_c 13.809609
_cell_angle_alpha 90.000000
_cell_angle_beta 90.000000
_cell_angle_gamma 90.000000
_cell_volume 2404.740032
_symmetry_space_group_name_H-M "P N N A"
_symmetry_group_IT_number 52
_symmetry_cell_setting 'orthorhombic'
loop_
_space_group_symop_operation_xyz
x,y,z
1/2-x,-y,z
x,1/2-y,1/2-z
1/2-x,1/2+y,1/2-z
-x,-y,-z
1/2+x,y,-z
-x,1/2+y,1/2+z
1/2+x,1/2-y,1/2+z
loop_
_atom_site_type_symbol
_atom_site_label
_atom_site_fract_x
_atom_site_fract_y
_atom_site_fract_z
Si Si1 0.092631 0.907199 0.778289
Si Si2 0.503600 0.728676 0.991968
Si Si3 0.686554 0.596026 0.465466
Si Si4 0.224065 0.351528 0.065529
Si Si5 0.382660 0.628528 0.381249
Si Si6 0.609367 0.487213 0.077682
Si Si7 0.461447 0.394711 0.310679
O O1 0.059944 0.750000 0.750000
O O2 0.135087 0.880926 0.875899
O O3 0.133862 0.960746 0.683018
O O4 0.035806 0.032916 0.792063
O O5 0.450004 0.639494 0.922818
O O6 0.537679 0.849655 0.923481
O O7 0.453173 0.798763 0.073272
O O8 0.564065 0.619464 0.028989
O O9 0.750000 0.500000 0.423066
O O10 0.717665 0.743426 0.516975
O O11 0.653394 0.481936 0.541758
O O12 0.250000 0.500000 0.116100
O O13 0.172968 0.419349 0.982554
O O14 0.174713 0.252735 0.132176
O O15 0.406236 0.524555 0.294126
O O16 0.446823 0.250000 0.250000
#
# Coordination Sequence:
#
# PCOD9410319 Si02
#       7
#     8   8   8   8   8   8   8
#     4  12  24  37  58  98 143 172 214 270 327 394
#     4  10  20  40  67  92 133 176 217 266 338 390
#     4  10  23  41  63  94 131 183 223 260 316 398
#     4  10  22  41  64  94 127 178 227 262 318 389
#     4  10  22  40  64  94 128 169 221 268 325 401
#     4  10  22  38  63  99 135 170 217 274 323 394
#     4  12  24  40  65  98 133 172 215 278 342 388
#
# _framework density 23.287343
#
# number of rings (size 3 to 8) (size 9 to 14) (size 15 to 20)
#    0.000    1.429    2.857    2.143    4.000    1.714 
#    0.000    0.000    0.000    0.000   11.143    0.000 
#    0.000    0.000    0.000    0.000    0.000    0.000 
#
# Total GULP energy -312939.021381 kJ/mol
# GULP energy per Si atom -5588.196810 kJ/mol
# Density = 2.323434 g / cm^3
# Si number density = 23.287343 Si / 1000 Ang^3
#
#
#
# Elastic Constant Matrix: (Units=GPa)
#
#
# Indices 1 2 3 4 5 6 
#
# 1 89.4443 59.8160 21.4756 0.0000 0.0000 0.0000
# 2 59.8160 165.7955 27.7579 0.0000 0.0000 0.0000
# 3 21.4756 27.7579 33.8936 0.0000 0.0000 0.0000
# 4 0.0000 0.0000 0.0000 35.0395 0.0000 0.0000
# 5 0.0000 0.0000 0.0000 0.0000 12.2792 0.0000
# 6 0.0000 0.0000 0.0000 0.0000 0.0000 54.3283
#
#
#
# Elastic Compliance Matrix: (Units=1/GPa)
#
#
# Indices 1 2 3 4 5 6 
#
# 1 0.015780 -0.004658 -0.006184 0.000000 0.000000 0.000000
# 2 -0.004658 0.008365 -0.003899 0.000000 0.000000 0.000000
# 3 -0.006184 -0.003899 0.036616 0.000000 0.000000 0.000000
# 4 0.000000 0.000000 0.000000 0.028539 0.000000 0.000000
# 5 0.000000 0.000000 0.000000 0.000000 0.081438 0.000000
# 6 0.000000 0.000000 0.000000 0.000000 0.000000 0.018407
#
#
# Mechanical properties :
#
#
# Convention : Reuss Voigt Hill
#
# Bulk Modulus (GPa) = 31.97080 56.35917 44.16499
# Shear Modulus (GPa) = 21.82908 32.33501 27.08204
#
# Velocity S-wave (km/s) = 3.06499 3.73033 3.41391
# Velocity P-wave (km/s) = 5.12681 6.54278 5.87759
#
# Compressibility (1/GPa) = 0.03127854
#
# Stress axis : x y z
#
# Youngs Moduli (GPa) = 63.37237 119.54884 27.31074
#
# Poissons Ratio (x) = 0.55683 0.16888
# Poissons Ratio (y) = 0.29517 0.10649
# Poissons Ratio (z) = 0.39188 0.46615
#
# Static dielectric constant tensor:
#      x y z
#    x 1.933980 0.000000 0.000000 
#    y 0.000000 1.961530 0.000000 
#    z 0.000000 0.000000 1.877500 
# 
# From -- ./inp_files/28787.got.cif
#   From: 2010.05.17/outbox.cif.g08.bks.cpg/sg52_15_cif.got.tgz:28787.got - 2010.06.03 12:15:38.
