data_PCOD9410464
_publ_section_title
;
Structure prediction by ZEFSAII (Michael W. Deem and Ramdas Pophale) SiO2 
 PCOD9410464
Probable space group: P N N A
;
_chemical_formula_sum "Si O2"
_cell_formula_units_Z 40
_cell_length_a 9.390677
_cell_length_b 14.943314
_cell_length_c 11.630584
_cell_angle_alpha 90.000000
_cell_angle_beta 90.000000
_cell_angle_gamma 90.000000
_cell_volume 1632.094673
_symmetry_space_group_name_H-M "P N N A"
_symmetry_group_IT_number 52
_symmetry_cell_setting 'orthorhombic'
loop_
_space_group_symop_operation_xyz
x,y,z
1/2-x,-y,z
x,1/2-y,1/2-z
1/2-x,1/2+y,1/2-z
-x,-y,-z
1/2+x,y,-z
-x,1/2+y,1/2+z
1/2+x,1/2-y,1/2+z
loop_
_atom_site_type_symbol
_atom_site_label
_atom_site_fract_x
_atom_site_fract_y
_atom_site_fract_z
Si Si1 0.687818 0.315640 0.646420
Si Si2 0.079781 0.567304 0.914750
Si Si3 0.750000 0.000000 0.959148
Si Si4 0.383450 0.101635 0.834086
Si Si5 0.352514 0.823272 0.521147
Si Si6 0.157621 0.250000 0.750000
O O1 0.730373 0.250000 0.750000
O O2 0.742978 0.415831 0.627383
O O3 0.519591 0.335884 0.649245
O O4 0.726909 0.261344 0.532119
O O5 0.089314 0.542510 0.781252
O O6 0.234276 0.600815 0.955910
O O7 0.000000 0.500000 0.000000
O O8 0.969427 0.649178 0.928441
O O9 0.638738 0.961341 0.055502
O O10 0.255307 0.168712 0.798642
O O11 0.421348 0.792870 0.641406
#
# Coordination Sequence:
#
# PCOD9410464 Si02
#       6
#     8   8   4   8   8   4
#     4  12  24  47  71 102 151 195 247 321 385 450
#     4  11  25  42  74 106 152 196 257 314 386 456
#     4  12  28  42  76 110 142 202 272 304 386 488
#     4  11  23  46  70 101 145 200 248 314 381 450
#     4  11  23  44  70 107 143 202 250 311 391 451
#     4  10  20  42  74  96 142 190 248 298 380 450
#
# _framework density 24.508381
#
# number of rings (size 3 to 8) (size 9 to 14) (size 15 to 20)
#    0.000    0.800    5.000    2.400    5.600    1.600 
#    1.800    0.000    0.000    0.000    0.000    0.000 
#    0.000    0.000    0.000    0.000    0.000    0.000 
#
# Total GULP energy -223226.512552 kJ/mol
# GULP energy per Si atom -5580.662814 kJ/mol
# Density = 2.445260 g / cm^3
# Si number density = 24.508381 Si / 1000 Ang^3
#
#
#
# Elastic Constant Matrix: (Units=GPa)
#
#
# Indices 1 2 3 4 5 6 
#
# 1 54.7685 10.5926 23.6598 0.0000 0.0000 0.0000
# 2 10.5926 146.5718 81.2584 0.0000 0.0000 0.0000
# 3 23.6598 81.2584 128.9878 0.0000 0.0000 0.0000
# 4 0.0000 0.0000 0.0000 52.9289 0.0000 0.0000
# 5 0.0000 0.0000 0.0000 0.0000 29.6396 0.0000
# 6 0.0000 0.0000 0.0000 0.0000 0.0000 23.4204
#
#
#
# Elastic Compliance Matrix: (Units=1/GPa)
#
#
# Indices 1 2 3 4 5 6 
#
# 1 0.019907 0.000900 -0.004218 0.000000 0.000000 0.000000
# 2 0.000900 0.010525 -0.006795 0.000000 0.000000 0.000000
# 3 -0.004218 -0.006795 0.012807 0.000000 0.000000 0.000000
# 4 0.000000 0.000000 0.000000 0.018893 0.000000 0.000000
# 5 0.000000 0.000000 0.000000 0.000000 0.033739 0.000000
# 6 0.000000 0.000000 0.000000 0.000000 0.000000 0.042698
#
#
# Mechanical properties :
#
#
# Convention : Reuss Voigt Hill
#
# Bulk Modulus (GPa) = 43.45660 62.37221 52.91440
# Shear Modulus (GPa) = 30.03593 35.51892 32.77742
#
# Velocity S-wave (km/s) = 3.50456 3.81104 3.66101
# Velocity P-wave (km/s) = 5.84344 6.69850 6.28553
#
# Compressibility (1/GPa) = 0.02301146
#
# Stress axis : x y z
#
# Youngs Moduli (GPa) = 50.23366 95.01270 78.07995
#
# Poissons Ratio (x) = -0.08551 0.32938
# Poissons Ratio (y) = -0.04521 0.53059
# Poissons Ratio (z) = 0.21191 0.64566
#
# Static dielectric constant tensor:
#      x y z
#    x 2.025280 0.000000 0.000000 
#    y 0.000000 1.921780 0.000000 
#    z 0.000000 0.000000 1.957410 
# 
# From -- ./inp_files/18036.got.cif
#   From: 2010.05.17/outbox.cif.g08.bks.cpg/sg52_10_cif.got.tgz:18036.got - 2010.06.03 12:15:38.
