data_PCOD9410830
_publ_section_title
;
Structure prediction by ZEFSAII (Michael W. Deem and Ramdas Pophale) SiO2 
 PCOD9410830
Probable space group: P N N A
;
_chemical_formula_sum "Si O2"
_cell_formula_units_Z 24
_cell_length_a 6.982566
_cell_length_b 6.242149
_cell_length_c 20.042392
_cell_angle_alpha 90.000000
_cell_angle_beta 90.000000
_cell_angle_gamma 90.000000
_cell_volume 873.572054
_symmetry_space_group_name_H-M "P N N A"
_symmetry_group_IT_number 52
_symmetry_cell_setting 'orthorhombic'
loop_
_space_group_symop_operation_xyz
x,y,z
1/2-x,-y,z
x,1/2-y,1/2-z
1/2-x,1/2+y,1/2-z
-x,-y,-z
1/2+x,y,-z
-x,1/2+y,1/2+z
1/2+x,1/2-y,1/2+z
loop_
_atom_site_type_symbol
_atom_site_label
_atom_site_fract_x
_atom_site_fract_y
_atom_site_fract_z
Si Si1 0.082146 0.249084 0.082577
Si Si2 0.750000 0.000000 0.365248
Si Si3 0.750000 0.000000 0.029686
Si Si4 0.583272 0.250000 0.250000
Si Si5 0.750000 0.500000 0.695777
O O1 0.941918 0.448162 0.093243
O O2 0.206900 0.200454 0.147343
O O3 0.211094 0.206972 0.017435
O O4 0.933544 0.051339 0.073179
O O5 0.793331 0.804687 0.314833
O O6 0.439181 0.446613 0.263295
#
# Coordination Sequence:
#
# PCOD9410830 Si02
#       5
#     8   4   4   4   4
#     4  10  21  38  62  88 123 161 201 249 306 362
#     4  12  24  39  62  92 124 159 204 252 302 362
#     4   9  20  41  62  88 124 163 200 251 308 360
#     4  12  24  40  62  90 124 162 206 252 302 360
#     4  11  22  40  62  86 122 164 204 251 304 360
#
# _framework density 27.473405
#
# number of rings (size 3 to 8) (size 9 to 14) (size 15 to 20)
#    0.000    1.333    0.000    6.000    0.000    1.333 
#    0.000    0.000    0.000    0.000    0.000    0.000 
#    0.000    0.000    0.000    0.000    0.000    0.000 
#
# Total GULP energy -134426.102902 kJ/mol
# GULP energy per Si atom -5601.087621 kJ/mol
# Density = 2.741087 g / cm^3
# Si number density = 27.473405 Si / 1000 Ang^3
#
#
#
# Elastic Constant Matrix: (Units=GPa)
#
#
# Indices 1 2 3 4 5 6 
#
# 1 103.2758 26.4034 30.7177 0.0000 0.0000 0.0000
# 2 26.4034 71.9664 40.2113 0.0000 0.0000 0.0000
# 3 30.7177 40.2113 80.4540 0.0000 0.0000 0.0000
# 4 0.0000 0.0000 0.0000 41.8073 0.0000 0.0000
# 5 0.0000 0.0000 0.0000 0.0000 30.5358 0.0000
# 6 0.0000 0.0000 0.0000 0.0000 0.0000 72.4167
#
#
#
# Elastic Compliance Matrix: (Units=1/GPa)
#
#
# Indices 1 2 3 4 5 6 
#
# 1 0.011212 -0.002389 -0.003087 0.000000 0.000000 0.000000
# 2 -0.002389 0.019788 -0.008978 0.000000 0.000000 0.000000
# 3 -0.003087 -0.008978 0.018095 0.000000 0.000000 0.000000
# 4 0.000000 0.000000 0.000000 0.023919 0.000000 0.000000
# 5 0.000000 0.000000 0.000000 0.000000 0.032748 0.000000
# 6 0.000000 0.000000 0.000000 0.000000 0.000000 0.013809
#
#
# Mechanical properties :
#
#
# Convention : Reuss Voigt Hill
#
# Bulk Modulus (GPa) = 49.53463 50.04011 49.78737
# Shear Modulus (GPa) = 32.21465 39.50954 35.86209
#
# Velocity S-wave (km/s) = 3.42800 3.79634 3.61687
# Velocity P-wave (km/s) = 5.80840 6.12126 5.96688
#
# Compressibility (1/GPa) = 0.02018790
#
# Stress axis : x y z
#
# Youngs Moduli (GPa) = 89.19336 50.53477 55.26255
#
# Poissons Ratio (x) = 0.12071 0.17058
# Poissons Ratio (y) = 0.21305 0.49617
# Poissons Ratio (z) = 0.27532 0.45372
#
# Static dielectric constant tensor:
#      x y z
#    x 1.999010 0.000000 0.000000 
#    y 0.000000 2.168240 0.000000 
#    z 0.000000 0.000000 2.071270 
# 
# From -- ./inp_files/39062.got.cif
#   From: 2010.05.17/outbox.cif.g08.bks.cpg/sg52_20_cif.got.tgz:39062.got - 2010.06.03 12:15:38.
