data_PCOD9410607
_publ_section_title
;
Structure prediction by ZEFSAII (Michael W. Deem and Ramdas Pophale) SiO2 
 PCOD9410607
Probable space group: P N N A
;
_chemical_formula_sum "Si O2"
_cell_formula_units_Z 48
_cell_length_a 12.597485
_cell_length_b 8.572751
_cell_length_c 25.004755
_cell_angle_alpha 90.000000
_cell_angle_beta 90.000000
_cell_angle_gamma 90.000000
_cell_volume 2700.391070
_symmetry_space_group_name_H-M "P N N A"
_symmetry_group_IT_number 52
_symmetry_cell_setting 'orthorhombic'
loop_
_space_group_symop_operation_xyz
x,y,z
1/2-x,-y,z
x,1/2-y,1/2-z
1/2-x,1/2+y,1/2-z
-x,-y,-z
1/2+x,y,-z
-x,1/2+y,1/2+z
1/2+x,1/2-y,1/2+z
loop_
_atom_site_type_symbol
_atom_site_label
_atom_site_fract_x
_atom_site_fract_y
_atom_site_fract_z
Si Si1 0.147888 0.809310 0.308819
Si Si2 0.707171 0.820719 0.017248
Si Si3 0.604474 0.321916 0.807427
Si Si4 0.051459 0.831510 0.085270
Si Si5 0.012826 0.687921 0.591706
Si Si6 0.583583 0.355216 0.008087
O O1 0.118680 0.750000 0.250000
O O2 0.273061 0.770766 0.316969
O O3 0.091519 0.730744 0.358634
O O4 0.118528 0.991769 0.308354
O O5 0.630305 0.788465 0.067788
O O6 0.789962 0.676578 0.013037
O O7 0.750000 0.000000 0.022871
O O8 0.639299 0.824645 0.962094
O O9 0.573670 0.250000 0.750000
O O10 0.524031 0.265791 0.853190
O O11 0.958688 0.725428 0.061684
O O12 0.010187 0.005167 0.093053
O O13 0.939083 0.755798 0.545008
O O14 0.500000 0.500000 0.000000
#
# Coordination Sequence:
#
# PCOD9410607 Si02
#       6
#     8   8   8   8   8   8
#     4  10  21  36  56  83 118 154 192 244 306 365
#     4  11  20  38  58  85 120 161 199 238 304 367
#     4  10  21  37  56  85 117 152 197 245 302 364
#     4  11  21  33  57  84 116 155 196 239 295 365
#     4  11  21  35  59  85 115 156 197 242 295 362
#     4  11  22  36  55  86 120 152 197 245 296 355
#
# _framework density 17.775203999999999
#
# number of rings (size 3 to 8) (size 9 to 14) (size 15 to 20)
#    0.000    1.333    3.333    4.000    0.000    5.333 
#    0.000    0.000    0.000    1.000    4.333    0.000 
#    0.000    0.000    0.000    0.000    0.000    0.000 
#
# Total GULP energy -267333.048857 kJ/mol
# GULP energy per Si atom -5569.438518 kJ/mol
# Density = 1.773475 g / cm^3
# Si number density = 17.775204 Si / 1000 Ang^3
#
#
#
# Elastic Constant Matrix: (Units=GPa)
#
#
# Indices 1 2 3 4 5 6 
#
# 1 75.1005 17.2078 24.9270 0.0000 0.0000 0.0000
# 2 17.2078 59.1584 12.2145 0.0000 0.0000 0.0000
# 3 24.9270 12.2145 85.6843 0.0000 0.0000 0.0000
# 4 0.0000 0.0000 0.0000 34.6052 0.0000 0.0000
# 5 0.0000 0.0000 0.0000 0.0000 26.9032 0.0000
# 6 0.0000 0.0000 0.0000 0.0000 0.0000 53.5624
#
#
#
# Elastic Compliance Matrix: (Units=1/GPa)
#
#
# Indices 1 2 3 4 5 6 
#
# 1 0.015479 -0.003681 -0.003978 0.000000 0.000000 0.000000
# 2 -0.003681 0.018292 -0.001537 0.000000 0.000000 0.000000
# 3 -0.003978 -0.001537 0.013047 0.000000 0.000000 0.000000
# 4 0.000000 0.000000 0.000000 0.028897 0.000000 0.000000
# 5 0.000000 0.000000 0.000000 0.000000 0.037170 0.000000
# 6 0.000000 0.000000 0.000000 0.000000 0.000000 0.018670
#
#
# Mechanical properties :
#
#
# Convention : Reuss Voigt Hill
#
# Bulk Modulus (GPa) = 35.17914 36.51575 35.84745
# Shear Modulus (GPa) = 31.36292 34.05374 32.70833
#
# Velocity S-wave (km/s) = 4.20506 4.38173 4.29430
# Velocity P-wave (km/s) = 6.58868 6.79611 6.69320
#
# Compressibility (1/GPa) = 0.02842594
#
# Stress axis : x y z
#
# Youngs Moduli (GPa) = 64.60170 54.66930 76.64472
#
# Poissons Ratio (x) = 0.20125 0.30493
# Poissons Ratio (y) = 0.23781 0.11777
# Poissons Ratio (z) = 0.25702 0.08401
#
# Static dielectric constant tensor:
#      x y z
#    x 1.766150 0.000000 0.000000 
#    y 0.000000 1.678060 0.000000 
#    z 0.000000 0.000000 1.565680 
# 
# From -- ./inp_files/40173.got.cif
#   From: 2010.05.17/outbox.cif.g08.bks.cpg/sg52_21_cif.got.tgz:40173.got - 2010.06.03 12:15:38.
