data_PCOD9410571
_publ_section_title
;
Structure prediction by ZEFSAII (Michael W. Deem and Ramdas Pophale) SiO2 
 PCOD9410571
Probable space group: P N N A
;
_chemical_formula_sum "Si O2"
_cell_formula_units_Z 44
_cell_length_a 8.652910
_cell_length_b 27.866115
_cell_length_c 7.504712
_cell_angle_alpha 90.000000
_cell_angle_beta 90.000000
_cell_angle_gamma 90.000000
_cell_volume 1809.558560
_symmetry_space_group_name_H-M "P N N A"
_symmetry_group_IT_number 52
_symmetry_cell_setting 'orthorhombic'
loop_
_space_group_symop_operation_xyz
x,y,z
1/2-x,-y,z
x,1/2-y,1/2-z
1/2-x,1/2+y,1/2-z
-x,-y,-z
1/2+x,y,-z
-x,1/2+y,1/2+z
1/2+x,1/2-y,1/2+z
loop_
_atom_site_type_symbol
_atom_site_label
_atom_site_fract_x
_atom_site_fract_y
_atom_site_fract_z
Si Si1 0.250000 0.000000 0.736314
Si Si2 0.725658 0.289206 0.028481
Si Si3 0.494819 0.565874 0.581721
Si Si4 0.510252 0.430209 0.835959
Si Si5 0.486562 0.750000 0.250000
Si Si6 0.954157 0.147136 0.639939
Si Si7 0.250000 0.000000 0.254817
O O1 0.336445 0.957335 0.845025
O O2 0.115403 0.971757 0.636268
O O3 0.636845 0.247224 0.917108
O O4 0.791570 0.325947 0.880002
O O5 0.594531 0.315004 0.144582
O O6 0.880123 0.281535 0.147383
O O7 0.492231 0.579806 0.375361
O O8 0.536839 0.612530 0.693116
O O9 0.618318 0.524735 0.634087
O O10 0.673378 0.456349 0.861251
O O11 0.480314 0.386644 0.966662
#
# Coordination Sequence:
#
# PCOD9410571 Si02
#       7
#     4   8   8   8   4   8   4
#     4  10  21  35  56  83 129 186 259 291 338 407
#     4  10  24  50  72 113 138 186 224 311 348 480
#     4  11  21  37  57  88 132 189 239 302 349 410
#     4  11  21  37  56  88 130 190 236 302 342 413
#     4  10  24  50  84 102 154 174 240 276 382 438
#     4  11  24  40  65 101 145 171 241 296 373 420
#     4  10  21  35  56  83 129 186 259 291 338 407
#
# _framework density 24.315321999999998
#
# number of rings (size 3 to 8) (size 9 to 14) (size 15 to 20)
#    0.000    1.455    0.000    6.545    0.000    7.273 
#   13.091    0.000    0.000    0.000    0.000    0.000 
#    0.000    0.000    0.000    0.000    0.000    0.000 
#
# Total GULP energy -245626.530365 kJ/mol
# GULP energy per Si atom -5582.421145 kJ/mol
# Density = 2.425998 g / cm^3
# Si number density = 24.315322 Si / 1000 Ang^3
#
#
#
# Elastic Constant Matrix: (Units=GPa)
#
#
# Indices 1 2 3 4 5 6 
#
# 1 100.4755 3.3590 17.0287 0.0000 0.0000 0.0000
# 2 3.3590 46.4572 41.9487 0.0000 0.0000 0.0000
# 3 17.0287 41.9487 124.4412 0.0000 0.0000 0.0000
# 4 0.0000 0.0000 0.0000 27.1656 0.0000 0.0000
# 5 0.0000 0.0000 0.0000 0.0000 31.0341 0.0000
# 6 0.0000 0.0000 0.0000 0.0000 0.0000 31.6700
#
#
#
# Elastic Compliance Matrix: (Units=1/GPa)
#
#
# Indices 1 2 3 4 5 6 
#
# 1 0.010207 0.000752 -0.001650 0.000000 0.000000 0.000000
# 2 0.000752 0.030999 -0.010553 0.000000 0.000000 0.000000
# 3 -0.001650 -0.010553 0.011819 0.000000 0.000000 0.000000
# 4 0.000000 0.000000 0.000000 0.036811 0.000000 0.000000
# 5 0.000000 0.000000 0.000000 0.000000 0.032223 0.000000
# 6 0.000000 0.000000 0.000000 0.000000 0.000000 0.031576
#
#
# Mechanical properties :
#
#
# Convention : Reuss Voigt Hill
#
# Bulk Modulus (GPa) = 33.19624 44.00518 38.60071
# Shear Modulus (GPa) = 26.79841 31.90977 29.35409
#
# Velocity S-wave (km/s) = 3.32342 3.62654 3.47829
# Velocity P-wave (km/s) = 5.33000 5.97267 5.66046
#
# Compressibility (1/GPa) = 0.03012390
#
# Stress axis : x y z
#
# Youngs Moduli (GPa) = 97.96978 32.25871 84.60929
#
# Poissons Ratio (x) = -0.02426 0.13963
# Poissons Ratio (y) = -0.07369 0.89286
# Poissons Ratio (z) = 0.16168 0.34042
#
# Static dielectric constant tensor:
#      x y z
#    x 1.955130 0.000000 0.000000 
#    y 0.000000 1.951780 0.000000 
#    z 0.000000 0.000000 2.081210 
# 
# From -- ./inp_files/7653.got.cif
#   From: 2010.05.17/outbox.cif.g08.bks.cpg/sg52_4_cif.got.tgz:7653.got - 2010.06.03 12:15:38.
