data_PCOD9410277
_publ_section_title
;
Structure prediction by ZEFSAII (Michael W. Deem and Ramdas Pophale) SiO2 
 PCOD9410277
Probable space group: P N N A
;
_chemical_formula_sum "Si O2"
_cell_formula_units_Z 60
_cell_length_a 11.798057
_cell_length_b 8.724800
_cell_length_c 26.067226
_cell_angle_alpha 90.000000
_cell_angle_beta 90.000000
_cell_angle_gamma 90.000000
_cell_volume 2683.247835
_symmetry_space_group_name_H-M "P N N A"
_symmetry_group_IT_number 52
_symmetry_cell_setting 'orthorhombic'
loop_
_space_group_symop_operation_xyz
x,y,z
1/2-x,-y,z
x,1/2-y,1/2-z
1/2-x,1/2+y,1/2-z
-x,-y,-z
1/2+x,y,-z
-x,1/2+y,1/2+z
1/2+x,1/2-y,1/2+z
loop_
_atom_site_type_symbol
_atom_site_label
_atom_site_fract_x
_atom_site_fract_y
_atom_site_fract_z
Si Si1 0.071142 0.553534 0.334028
Si Si2 0.240843 0.678826 0.604603
Si Si3 0.510300 0.236862 0.419626
Si Si4 0.853075 0.117801 0.208555
Si Si5 0.250000 0.000000 0.484652
Si Si6 0.717006 0.236576 0.809582
Si Si7 0.928034 0.291092 0.031762
Si Si8 0.390171 0.587491 0.102031
O O1 0.149900 0.691364 0.311821
O O2 0.151024 0.406418 0.334146
O O3 0.035725 0.615577 0.389443
O O4 0.959769 0.493900 0.304036
O O5 0.250000 0.500000 0.613991
O O6 0.357968 0.768009 0.596332
O O7 0.179698 0.718913 0.657910
O O8 0.171605 0.686496 0.552035
O O9 0.492231 0.254760 0.480410
O O10 0.440149 0.085283 0.402533
O O11 0.877764 0.250000 0.250000
O O12 0.750000 0.000000 0.222827
O O13 0.142513 0.945179 0.516820
O O14 0.297736 0.879970 0.443046
O O15 0.686315 0.250000 0.750000
O O16 0.667572 0.373673 0.844232
O O17 0.005969 0.313131 0.081195
#
# Coordination Sequence:
#
# PCOD9410277 Si02
#       8
#     8   8   8   8   4   8   8   8
#     4  11  24  46  70  99 143 180 230 295 355 431
#     4  11  23  45  66 101 148 181 238 301 354 431
#     4  11  23  43  71 104 141 188 235 295 354 430
#     4  11  24  50  73 102 143 187 247 307 370 427
#     4  10  20  40  62 100 140 174 234 296 340 426
#     4  11  26  47  70 101 140 185 232 294 357 430
#     4  11  22  39  69 103 140 190 232 286 362 423
#     4  11  23  42  70 101 139 183 240 288 346 432
#
# _framework density 22.360963000000002
#
# number of rings (size 3 to 8) (size 9 to 14) (size 15 to 20)
#    0.000    1.067    2.667    6.000    0.000    4.267 
#   13.200    0.000    0.000    0.000    0.000    0.000 
#    0.000    0.000    0.000    0.000    0.000    0.000 
#
# Total GULP energy -334540.944089 kJ/mol
# GULP energy per Si atom -5575.682401 kJ/mol
# Density = 2.231007 g / cm^3
# Si number density = 22.360963 Si / 1000 Ang^3
#
#
#
# Elastic Constant Matrix: (Units=GPa)
#
#
# Indices 1 2 3 4 5 6 
#
# 1 143.3738 33.3080 56.1600 0.0000 0.0000 0.0000
# 2 33.3080 59.8691 50.3405 0.0000 0.0000 0.0000
# 3 56.1600 50.3405 162.5975 0.0000 0.0000 0.0000
# 4 0.0000 0.0000 0.0000 40.6184 0.0000 0.0000
# 5 0.0000 0.0000 0.0000 0.0000 36.6689 0.0000
# 6 0.0000 0.0000 0.0000 0.0000 0.0000 37.4427
#
#
#
# Elastic Compliance Matrix: (Units=1/GPa)
#
#
# Indices 1 2 3 4 5 6 
#
# 1 0.008456 -0.003040 -0.001980 0.000000 0.000000 0.000000
# 2 -0.003040 0.023675 -0.006280 0.000000 0.000000 0.000000
# 3 -0.001980 -0.006280 0.008778 0.000000 0.000000 0.000000
# 4 0.000000 0.000000 0.000000 0.024619 0.000000 0.000000
# 5 0.000000 0.000000 0.000000 0.000000 0.027271 0.000000
# 6 0.000000 0.000000 0.000000 0.000000 0.000000 0.026707
#
#
# Mechanical properties :
#
#
# Convention : Reuss Voigt Hill
#
# Bulk Modulus (GPa) = 54.61384 71.71747 63.16566
# Shear Modulus (GPa) = 33.73602 38.01481 35.87541
#
# Velocity S-wave (km/s) = 3.88841 4.12764 4.00981
# Velocity P-wave (km/s) = 6.68105 7.40667 7.05320
#
# Compressibility (1/GPa) = 0.01831038
#
# Stress axis : x y z
#
# Youngs Moduli (GPa) = 118.25269 42.23908 113.92030
#
# Poissons Ratio (x) = 0.12842 0.22551
# Poissons Ratio (y) = 0.35952 0.71538
# Poissons Ratio (z) = 0.23408 0.26525
#
# Static dielectric constant tensor:
#      x y z
#    x 1.935260 0.000000 0.000000 
#    y 0.000000 1.500100 0.000000 
#    z 0.000000 0.000000 1.889870 
# 
# From -- ./inp_files/42781.got.cif
#   From: 2010.05.17/outbox.cif.g08.bks.cpg/sg52_22_cif.got.tgz:42781.got - 2010.06.03 12:15:38.
