data_PCOD9410861
_publ_section_title
;
Structure prediction by ZEFSAII (Michael W. Deem and Ramdas Pophale) SiO2 
 PCOD9410861
Probable space group: P N N A
;
_chemical_formula_sum "Si O2"
_cell_formula_units_Z 28
_cell_length_a 22.520829
_cell_length_b 7.408986
_cell_length_c 8.073285
_cell_angle_alpha 90.000000
_cell_angle_beta 90.000000
_cell_angle_gamma 90.000000
_cell_volume 1347.080133
_symmetry_space_group_name_H-M "P N N A"
_symmetry_group_IT_number 52
_symmetry_cell_setting 'orthorhombic'
loop_
_space_group_symop_operation_xyz
x,y,z
1/2-x,-y,z
x,1/2-y,1/2-z
1/2-x,1/2+y,1/2-z
-x,-y,-z
1/2+x,y,-z
-x,1/2+y,1/2+z
1/2+x,1/2-y,1/2+z
loop_
_atom_site_type_symbol
_atom_site_label
_atom_site_fract_x
_atom_site_fract_y
_atom_site_fract_z
Si Si1 0.454408 0.225690 0.561806
Si Si2 0.306753 0.597624 0.119177
Si Si3 0.122932 0.750000 0.250000
Si Si4 0.423213 0.806599 0.559253
O O1 0.434091 0.250000 0.750000
O O2 0.416913 0.303856 0.409236
O O3 0.522970 0.287058 0.541072
O O4 0.442597 0.013452 0.540901
O O5 0.250000 0.500000 0.034961
O O6 0.286708 0.750000 0.250000
O O7 0.160341 0.572033 0.205153
O O8 0.356399 0.698094 0.008463
O O9 0.426118 0.750000 0.750000
#
# Coordination Sequence:
#
# PCOD9410861 Si02
#       4
#     8   8   4   8
#     4  10  21  38  64  94 132 167 199 266 336 383
#     4  11  23  42  65  90 124 179 223 263 321 384
#     4  10  22  42  64 100 132 158 220 268 318 396
#     4  10  22  39  59  97 129 159 218 265 318 399
#
# _framework density 20.785696000000002
#
# number of rings (size 3 to 8) (size 9 to 14) (size 15 to 20)
#    0.000    1.714    2.857    0.857    4.000    1.143 
#    0.000    7.143    0.000    0.000    0.000    0.000 
#    0.000    0.000    0.000    0.000    0.000    0.000 
#
# Total GULP energy -155986.054025 kJ/mol
# GULP energy per Si atom -5570.930501 kJ/mol
# Density = 2.073839 g / cm^3
# Si number density = 20.785696 Si / 1000 Ang^3
#
#
#
# Elastic Constant Matrix: (Units=GPa)
#
#
# Indices 1 2 3 4 5 6 
#
# 1 116.8355 10.8430 39.4047 0.0000 0.0000 0.0000
# 2 10.8430 47.5656 -12.2655 0.0000 0.0000 0.0000
# 3 39.4047 -12.2655 92.0330 0.0000 0.0000 0.0000
# 4 0.0000 0.0000 0.0000 30.8881 0.0000 0.0000
# 5 0.0000 0.0000 0.0000 0.0000 35.1001 0.0000
# 6 0.0000 0.0000 0.0000 0.0000 0.0000 43.3720
#
#
#
# Elastic Compliance Matrix: (Units=1/GPa)
#
#
# Indices 1 2 3 4 5 6 
#
# 1 0.010602 -0.003715 -0.005034 0.000000 0.000000 0.000000
# 2 -0.003715 0.023074 0.004666 0.000000 0.000000 0.000000
# 3 -0.005034 0.004666 0.013643 0.000000 0.000000 0.000000
# 4 0.000000 0.000000 0.000000 0.032375 0.000000 0.000000
# 5 0.000000 0.000000 0.000000 0.000000 0.028490 0.000000
# 6 0.000000 0.000000 0.000000 0.000000 0.000000 0.023056
#
#
# Mechanical properties :
#
#
# Convention : Reuss Voigt Hill
#
# Bulk Modulus (GPa) = 25.54208 36.93317 31.23763
# Shear Modulus (GPa) = 32.79614 36.43551 34.61583
#
# Velocity S-wave (km/s) = 3.97649 4.19132 4.08532
# Velocity P-wave (km/s) = 5.77912 6.42106 6.10853
#
# Compressibility (1/GPa) = 0.03915108
#
# Stress axis : x y z
#
# Youngs Moduli (GPa) = 94.32436 43.33961 73.29785
#
# Poissons Ratio (x) = 0.16100 0.36900
# Poissons Ratio (y) = 0.35041 -0.34198
# Poissons Ratio (z) = 0.47486 -0.20221
#
# Static dielectric constant tensor:
#      x y z
#    x 1.846390 0.000000 0.000000 
#    y 0.000000 1.809880 0.000000 
#    z 0.000000 0.000000 2.038330 
# 
# From -- ./inp_files/11327.got.cif
#   From: 2010.05.17/outbox.cif.g08.bks.cpg/sg52_6_cif.got.tgz:11327.got - 2010.06.03 12:15:38.
