data_PCOD9410393
_publ_section_title
;
Structure prediction by ZEFSAII (Michael W. Deem and Ramdas Pophale) SiO2 
 PCOD9410393
Probable space group: P N N A
;
_chemical_formula_sum "Si O2"
_cell_formula_units_Z 48
_cell_length_a 12.019957
_cell_length_b 28.726445
_cell_length_c 6.322333
_cell_angle_alpha 90.000000
_cell_angle_beta 90.000000
_cell_angle_gamma 90.000000
_cell_volume 2183.042368
_symmetry_space_group_name_H-M "P N N A"
_symmetry_group_IT_number 52
_symmetry_cell_setting 'orthorhombic'
loop_
_space_group_symop_operation_xyz
x,y,z
1/2-x,-y,z
x,1/2-y,1/2-z
1/2-x,1/2+y,1/2-z
-x,-y,-z
1/2+x,y,-z
-x,1/2+y,1/2+z
1/2+x,1/2-y,1/2+z
loop_
_atom_site_type_symbol
_atom_site_label
_atom_site_fract_x
_atom_site_fract_y
_atom_site_fract_z
Si Si1 0.886762 0.662060 0.519601
Si Si2 0.373929 0.750000 0.250000
Si Si3 0.519257 0.706676 0.867998
Si Si4 0.750000 0.000000 0.819004
Si Si5 0.250895 0.925916 0.866974
Si Si6 0.587293 0.041676 0.481622
Si Si7 0.557807 0.874800 0.366334
O O1 0.822714 0.704051 0.640764
O O2 0.937074 0.682024 0.300674
O O3 0.810171 0.617663 0.478634
O O4 0.990719 0.646279 0.666308
O O5 0.448384 0.770784 0.441084
O O6 0.576166 0.750000 0.750000
O O7 0.591927 0.666991 0.978140
O O8 0.670531 0.029971 0.671405
O O9 0.805555 0.038838 0.968353
O O10 0.343247 0.954262 0.734037
O O11 0.161270 0.904796 0.708803
O O12 0.526484 0.090578 0.516204
O O13 0.500000 0.000000 0.500000
#
# Coordination Sequence:
#
# PCOD9410393 Si02
#       7
#     8   4   8   4   8   8   8
#     4  10  20  41  69  95 134 177 219 282 344 402
#     4   8  18  36  70  98 126 178 218 274 340 408
#     4   9  18  39  72  93 133 176 217 277 346 395
#     4  12  26  44  64  98 140 174 236 286 342 416
#     4  12  26  42  69 102 132 188 234 275 351 416
#     4  12  26  45  67  99 136 181 228 288 340 404
#     4  11  23  41  68  98 137 175 227 280 339 407
#
# _framework density 21.987663999999999
#
# number of rings (size 3 to 8) (size 9 to 14) (size 15 to 20)
#    0.000    1.333    3.333    2.500    2.333    2.667 
#    0.000    0.000   44.000    0.000    0.000    0.000 
#    0.000    0.000    0.000    0.000    0.000    0.000 
#
# Total GULP energy -268168.482240 kJ/mol
# GULP energy per Si atom -5586.843380 kJ/mol
# Density = 2.193762 g / cm^3
# Si number density = 21.987664 Si / 1000 Ang^3
#
#
#
# Elastic Constant Matrix: (Units=GPa)
#
#
# Indices 1 2 3 4 5 6 
#
# 1 33.0133 12.7486 2.6717 0.0000 0.0000 0.0000
# 2 12.7486 121.7555 36.9410 0.0000 0.0000 0.0000
# 3 2.6717 36.9410 75.2763 0.0000 0.0000 0.0000
# 4 0.0000 0.0000 0.0000 83.7734 0.0000 0.0000
# 5 0.0000 0.0000 0.0000 0.0000 25.6849 0.0000
# 6 0.0000 0.0000 0.0000 0.0000 0.0000 22.2314
#
#
#
# Elastic Compliance Matrix: (Units=1/GPa)
#
#
# Indices 1 2 3 4 5 6 
#
# 1 0.031590 -0.003487 0.000590 0.000000 0.000000 0.000000
# 2 -0.003487 0.010035 -0.004801 0.000000 0.000000 0.000000
# 3 0.000590 -0.004801 0.015619 0.000000 0.000000 0.000000
# 4 0.000000 0.000000 0.000000 0.011937 0.000000 0.000000
# 5 0.000000 0.000000 0.000000 0.000000 0.038933 0.000000
# 6 0.000000 0.000000 0.000000 0.000000 0.000000 0.044981
#
#
# Mechanical properties :
#
#
# Convention : Reuss Voigt Hill
#
# Bulk Modulus (GPa) = 23.89559 37.19640 30.54600
# Shear Modulus (GPa) = 27.40627 38.18352 32.79490
#
# Velocity S-wave (km/s) = 3.53432 4.17176 3.86620
# Velocity P-wave (km/s) = 5.24848 6.33707 5.81829
#
# Compressibility (1/GPa) = 0.04184872
#
# Stress axis : x y z
#
# Youngs Moduli (GPa) = 31.65608 99.65319 64.02314
#
# Poissons Ratio (x) = 0.34745 -0.03776
# Poissons Ratio (y) = 0.11037 0.30736
# Poissons Ratio (z) = -0.01867 0.47841
#
# Static dielectric constant tensor:
#      x y z
#    x 1.778710 0.000000 0.000000 
#    y 0.000000 1.814480 0.000000 
#    z 0.000000 0.000000 1.829830 
# 
# From -- ./inp_files/2487.got.cif
#   From: 2010.05.17/outbox.cif.g08.bks.cpg/sg52_2_cif.got.tgz:2487.got - 2010.06.03 12:15:38.
