data_PCOD9410469
_publ_section_title
;
Structure prediction by ZEFSAII (Michael W. Deem and Ramdas Pophale) SiO2 
 PCOD9410469
Probable space group: P N N A
;
_chemical_formula_sum "Si O2"
_cell_formula_units_Z 48
_cell_length_a 25.717348
_cell_length_b 8.576792
_cell_length_c 10.955641
_cell_angle_alpha 90.000000
_cell_angle_beta 90.000000
_cell_angle_gamma 90.000000
_cell_volume 2416.511422
_symmetry_space_group_name_H-M "P N N A"
_symmetry_group_IT_number 52
_symmetry_cell_setting 'orthorhombic'
loop_
_space_group_symop_operation_xyz
x,y,z
1/2-x,-y,z
x,1/2-y,1/2-z
1/2-x,1/2+y,1/2-z
-x,-y,-z
1/2+x,y,-z
-x,1/2+y,1/2+z
1/2+x,1/2-y,1/2+z
loop_
_atom_site_type_symbol
_atom_site_label
_atom_site_fract_x
_atom_site_fract_y
_atom_site_fract_z
Si Si1 0.577919 0.250000 0.250000
Si Si2 0.844472 0.531694 0.378932
Si Si3 0.399836 0.250000 0.750000
Si Si4 0.238597 0.250000 0.750000
Si Si5 0.054452 0.507914 0.932128
Si Si6 0.346194 0.911537 0.402277
Si Si7 0.311675 0.952268 0.141424
Si Si8 0.250000 0.500000 0.933572
O O1 0.612255 0.335333 0.354401
O O2 0.549291 0.384387 0.178306
O O3 0.864366 0.387236 0.301986
O O4 0.795441 0.620272 0.320931
O O5 0.832844 0.476761 0.515541
O O6 0.431802 0.329870 0.862047
O O7 0.264712 0.349942 0.853756
O O8 0.100619 0.453696 0.025929
O O9 0.000000 0.500000 0.000000
O O10 0.339846 0.991061 0.269064
O O11 0.328843 0.729760 0.381348
O O12 0.300033 0.968128 0.487506
O O13 0.250000 0.000000 0.151886
#
# Coordination Sequence:
#
# PCOD9410469 Si02
#       8
#     4   8   4   4   8   8   8   4
#     4   9  18  44  73  90 136 177 224 289 350 406
#     4  10  20  43  61  98 131 177 222 280 341 408
#     4  10  24  43  73  98 132 171 236 297 346 420
#     4  11  24  33  64  88 132 176 222 272 336 406
#     4  11  24  48  74 103 135 183 237 300 361 419
#     4  11  24  43  66  94 141 184 225 292 347 426
#     4  11  23  40  64  97 137 190 227 278 359 430
#     4  12  22  42  60  98 128 182 222 278 350 414
#
# _framework density 19.863344999999999
#
# number of rings (size 3 to 8) (size 9 to 14) (size 15 to 20)
#    0.000    1.333    4.167    2.000    1.167    6.667 
#    3.000    1.667    0.000    0.000    0.000    0.000 
#    0.000    0.000    0.000    0.000    0.000    0.000 
#
# Total GULP energy -267533.616832 kJ/mol
# GULP energy per Si atom -5573.617017 kJ/mol
# Density = 1.981814 g / cm^3
# Si number density = 19.863345 Si / 1000 Ang^3
#
#
#
# Elastic Constant Matrix: (Units=GPa)
#
#
# Indices 1 2 3 4 5 6 
#
# 1 123.9940 36.1569 69.0996 0.0000 0.0000 0.0000
# 2 36.1569 87.3476 32.1506 0.0000 0.0000 0.0000
# 3 69.0996 32.1506 146.6457 0.0000 0.0000 0.0000
# 4 0.0000 0.0000 0.0000 20.8287 0.0000 0.0000
# 5 0.0000 0.0000 0.0000 0.0000 66.5507 0.0000
# 6 0.0000 0.0000 0.0000 0.0000 0.0000 11.9706
#
#
#
# Elastic Compliance Matrix: (Units=1/GPa)
#
#
# Indices 1 2 3 4 5 6 
#
# 1 0.011636 -0.003044 -0.004816 0.000000 0.000000 0.000000
# 2 -0.003044 0.013250 -0.001470 0.000000 0.000000 0.000000
# 3 -0.004816 -0.001470 0.009411 0.000000 0.000000 0.000000
# 4 0.000000 0.000000 0.000000 0.048011 0.000000 0.000000
# 5 0.000000 0.000000 0.000000 0.000000 0.015026 0.000000
# 6 0.000000 0.000000 0.000000 0.000000 0.000000 0.083538
#
#
# Mechanical properties :
#
#
# Convention : Reuss Voigt Hill
#
# Bulk Modulus (GPa) = 63.95410 70.31130 67.13270
# Shear Modulus (GPa) = 24.42071 34.57535 29.49803
#
# Velocity S-wave (km/s) = 3.51014 4.17665 3.85781
# Velocity P-wave (km/s) = 6.97818 7.66378 7.32900
#
# Compressibility (1/GPa) = 0.01563621
#
# Stress axis : x y z
#
# Youngs Moduli (GPa) = 85.93825 75.47229 106.26248
#
# Poissons Ratio (x) = 0.22976 0.51172
# Poissons Ratio (y) = 0.26162 0.15625
# Poissons Ratio (z) = 0.41384 0.11098
#
# Static dielectric constant tensor:
#      x y z
#    x 1.702210 0.000000 0.000000 
#    y 0.000000 1.783610 0.000000 
#    z 0.000000 0.000000 1.750720 
# 
# From -- ./inp_files/22370.got.cif
#   From: 2010.05.17/outbox.cif.g08.bks.cpg/sg52_12_cif.got.tgz:22370.got - 2010.06.03 12:15:38.
