data_PCOD9410441
_publ_section_title
;
Structure prediction by ZEFSAII (Michael W. Deem and Ramdas Pophale) SiO2 
 PCOD9410441
Probable space group: P N N A
;
_chemical_formula_sum "Si O2"
_cell_formula_units_Z 48
_cell_length_a 11.706938
_cell_length_b 13.350159
_cell_length_c 13.591376
_cell_angle_alpha 90.000000
_cell_angle_beta 90.000000
_cell_angle_gamma 90.000000
_cell_volume 2124.189138
_symmetry_space_group_name_H-M "P N N A"
_symmetry_group_IT_number 52
_symmetry_cell_setting 'orthorhombic'
loop_
_space_group_symop_operation_xyz
x,y,z
1/2-x,-y,z
x,1/2-y,1/2-z
1/2-x,1/2+y,1/2-z
-x,-y,-z
1/2+x,y,-z
-x,1/2+y,1/2+z
1/2+x,1/2-y,1/2+z
loop_
_atom_site_type_symbol
_atom_site_label
_atom_site_fract_x
_atom_site_fract_y
_atom_site_fract_z
Si Si1 0.750000 0.500000 0.811626
Si Si2 0.187771 0.750000 0.750000
Si Si3 0.638206 0.113132 0.332742
Si Si4 0.570402 0.731559 0.641185
Si Si5 0.981709 0.014241 0.806108
Si Si6 0.027131 0.288609 0.356140
Si Si7 0.721184 0.321456 0.962415
O O1 0.859544 0.483326 0.745698
O O2 0.726442 0.406400 0.880350
O O3 0.273247 0.842744 0.746295
O O4 0.101923 0.751547 0.657729
O O5 0.532656 0.188820 0.353219
O O6 0.577429 0.019381 0.280672
O O7 0.705176 0.119167 0.435285
O O8 0.625523 0.750000 0.750000
O O9 0.518222 0.619524 0.635280
O O10 0.665093 0.756227 0.559545
O O11 0.985415 0.908334 0.860295
O O12 0.077742 0.250000 0.250000
O O13 0.108922 0.245278 0.439230
#
# Coordination Sequence:
#
# PCOD9410441 Si02
#       7
#     4   4   8   8   8   8   8
#     4  12  20  36  66 100 130 162 220 274 332 390
#     4  10  22  44  62  86 132 182 208 270 340 406
#     4  11  24  42  66  94 133 172 224 273 340 398
#     4  10  20  42  67  89 126 178 220 265 327 411
#     4  11  21  41  71  94 123 183 228 260 336 415
#     4  10  23  40  65  96 133 169 221 275 340 396
#     4  12  24  39  66 103 133 164 222 291 331 386
#
# _framework density 22.596855999999999
#
# number of rings (size 3 to 8) (size 9 to 14) (size 15 to 20)
#    0.500    0.667    7.500    1.500    2.333    2.667 
#    0.000    0.833    3.667    0.000    0.000    0.000 
#    0.000    0.000    0.000    0.000    0.000    0.000 
#
# Total GULP energy -267740.116460 kJ/mol
# GULP energy per Si atom -5577.919093 kJ/mol
# Density = 2.254542 g / cm^3
# Si number density = 22.596856 Si / 1000 Ang^3
#
#
#
# Elastic Constant Matrix: (Units=GPa)
#
#
# Indices 1 2 3 4 5 6 
#
# 1 126.7593 20.4770 18.2705 0.0000 0.0000 0.0000
# 2 20.4770 100.1667 -1.4160 0.0000 0.0000 0.0000
# 3 18.2705 -1.4160 64.5502 0.0000 0.0000 0.0000
# 4 0.0000 0.0000 0.0000 15.1721 0.0000 0.0000
# 5 0.0000 0.0000 0.0000 0.0000 9.1966 0.0000
# 6 0.0000 0.0000 0.0000 0.0000 0.0000 40.9169
#
#
#
# Elastic Compliance Matrix: (Units=1/GPa)
#
#
# Indices 1 2 3 4 5 6 
#
# 1 0.008530 -0.001778 -0.002453 0.000000 0.000000 0.000000
# 2 -0.001778 0.010357 0.000731 0.000000 0.000000 0.000000
# 3 -0.002453 0.000731 0.016202 0.000000 0.000000 0.000000
# 4 0.000000 0.000000 0.000000 0.065911 0.000000 0.000000
# 5 0.000000 0.000000 0.000000 0.000000 0.108736 0.000000
# 6 0.000000 0.000000 0.000000 0.000000 0.000000 0.024440
#
#
# Mechanical properties :
#
#
# Convention : Reuss Voigt Hill
#
# Bulk Modulus (GPa) = 35.60370 40.68214 38.14292
# Shear Modulus (GPa) = 19.95687 30.00010 24.97849
#
# Velocity S-wave (km/s) = 2.97504 3.64761 3.32836
# Velocity P-wave (km/s) = 5.25275 5.98186 5.62912
#
# Compressibility (1/GPa) = 0.02808697
#
# Stress axis : x y z
#
# Youngs Moduli (GPa) = 117.23509 96.55069 61.71989
#
# Poissons Ratio (x) = 0.17171 0.15142
# Poissons Ratio (y) = 0.20850 -0.04509
# Poissons Ratio (z) = 0.28762 -0.07054
#
# Static dielectric constant tensor:
#      x y z
#    x 1.871440 0.000000 0.000000 
#    y 0.000000 1.830010 0.000000 
#    z 0.000000 0.000000 1.896140 
# 
# From -- ./inp_files/26114.got.cif
#   From: 2010.05.17/outbox.cif.g08.bks.cpg/sg52_14_cif.got.tgz:26114.got - 2010.06.03 12:15:38.
