data_PCOD9410879
_publ_section_title
;
Structure prediction by ZEFSAII (Michael W. Deem and Ramdas Pophale) SiO2 
 PCOD9410879
Probable space group: P N N A
;
_chemical_formula_sum "Si O2"
_cell_formula_units_Z 48
_cell_length_a 14.241336
_cell_length_b 26.907411
_cell_length_c 5.878370
_cell_angle_alpha 90.000000
_cell_angle_beta 90.000000
_cell_angle_gamma 90.000000
_cell_volume 2252.576576
_symmetry_space_group_name_H-M "P N N A"
_symmetry_group_IT_number 52
_symmetry_cell_setting 'orthorhombic'
loop_
_space_group_symop_operation_xyz
x,y,z
1/2-x,-y,z
x,1/2-y,1/2-z
1/2-x,1/2+y,1/2-z
-x,-y,-z
1/2+x,y,-z
-x,1/2+y,1/2+z
1/2+x,1/2-y,1/2+z
loop_
_atom_site_type_symbol
_atom_site_label
_atom_site_fract_x
_atom_site_fract_y
_atom_site_fract_z
Si Si1 0.404396 0.657670 0.923495
Si Si2 0.343572 0.564231 0.188126
Si Si3 0.868109 0.450703 0.848195
Si Si4 0.397144 0.361035 0.852739
Si Si5 0.006126 0.108667 0.964268
Si Si6 0.761917 0.275465 0.000085
O O1 0.431144 0.649877 0.662236
O O2 0.344789 0.705129 0.989719
O O3 0.351954 0.607028 0.999129
O O4 0.503162 0.656299 0.049380
O O5 0.234341 0.560885 0.262289
O O6 0.370455 0.509156 0.105633
O O7 0.420886 0.580252 0.373444
O O8 0.955040 0.430751 0.699796
O O9 0.875113 0.417259 0.073126
O O10 0.419084 0.363472 0.586649
O O11 0.323676 0.324951 0.968640
O O12 0.779237 0.250000 0.250000
O O13 0.779006 0.250000 0.750000
#
# Coordination Sequence:
#
# PCOD9410879 Si02
#       6
#     8   8   8   8   8   8
#     4  10  24  44  69  98 141 177 233 289 357 425
#     4  10  21  38  65  99 141 183 230 284 351 429
#     4  10  21  38  65  99 141 183 230 284 351 429
#     4  10  24  44  69  98 141 177 233 289 357 425
#     4  10  23  38  68  98 140 184 230 288 351 430
#     4  12  30  48  79 104 139 182 240 308 364 428
#
# _framework density 21.308931999999999
#
# number of rings (size 3 to 8) (size 9 to 14) (size 15 to 20)
#    0.000    1.667    1.667    0.500   11.667    8.667 
#    0.000    3.333    0.000    0.000    0.000    0.000 
#    0.000    0.000    0.000    0.000    0.000    0.000 
#
# Total GULP energy -267435.246245 kJ/mol
# GULP energy per Si atom -5571.567630 kJ/mol
# Density = 2.126043 g / cm^3
# Si number density = 21.308932 Si / 1000 Ang^3
#
#
#
# Elastic Constant Matrix: (Units=GPa)
#
#
# Indices 1 2 3 4 5 6 
#
# 1 61.7186 -7.0678 4.1917 0.0000 0.0000 0.0000
# 2 -7.0678 48.4905 41.8378 0.0000 0.0000 0.0000
# 3 4.1917 41.8378 85.4903 0.0000 0.0000 0.0000
# 4 0.0000 0.0000 0.0000 17.5312 0.0000 0.0000
# 5 0.0000 0.0000 0.0000 0.0000 24.3122 0.0000
# 6 0.0000 0.0000 0.0000 0.0000 0.0000 18.5655
#
#
#
# Elastic Compliance Matrix: (Units=1/GPa)
#
#
# Indices 1 2 3 4 5 6 
#
# 1 0.017081 0.005560 -0.003558 0.000000 0.000000 0.000000
# 2 0.005560 0.037504 -0.018627 0.000000 0.000000 0.000000
# 3 -0.003558 -0.018627 0.020987 0.000000 0.000000 0.000000
# 4 0.000000 0.000000 0.000000 0.057041 0.000000 0.000000
# 5 0.000000 0.000000 0.000000 0.000000 0.041132 0.000000
# 6 0.000000 0.000000 0.000000 0.000000 0.000000 0.053863
#
#
# Mechanical properties :
#
#
# Convention : Reuss Voigt Hill
#
# Bulk Modulus (GPa) = 23.62834 30.40253 27.01543
# Shear Modulus (GPa) = 18.18404 22.53095 20.35750
#
# Velocity S-wave (km/s) = 2.92439 3.25522 3.09423
# Velocity P-wave (km/s) = 4.74503 5.33170 5.04690
#
# Compressibility (1/GPa) = 0.04232206
#
# Stress axis : x y z
#
# Youngs Moduli (GPa) = 58.54475 26.66372 47.64771
#
# Poissons Ratio (x) = -0.14825 0.16955
# Poissons Ratio (y) = -0.32550 0.88752
# Poissons Ratio (z) = 0.20833 0.49666
#
# Static dielectric constant tensor:
#      x y z
#    x 1.799440 0.000000 0.000000 
#    y 0.000000 1.766760 0.000000 
#    z 0.000000 0.000000 1.915730 
# 
# From -- ./inp_files/2477.got.cif
#   From: 2010.05.17/outbox.cif.g08.bks.cpg/sg52_2_cif.got.tgz:2477.got - 2010.06.03 12:15:38.
