data_PCOD9410849
_publ_section_title
;
Structure prediction by ZEFSAII (Michael W. Deem and Ramdas Pophale) SiO2 
 PCOD9410849
Probable space group: P N N A
;
_chemical_formula_sum "Si O2"
_cell_formula_units_Z 56
_cell_length_a 23.981935
_cell_length_b 22.487625
_cell_length_c 4.873495
_cell_angle_alpha 90.000000
_cell_angle_beta 90.000000
_cell_angle_gamma 90.000000
_cell_volume 2628.260069
_symmetry_space_group_name_H-M "P N N A"
_symmetry_group_IT_number 52
_symmetry_cell_setting 'orthorhombic'
loop_
_space_group_symop_operation_xyz
x,y,z
1/2-x,-y,z
x,1/2-y,1/2-z
1/2-x,1/2+y,1/2-z
-x,-y,-z
1/2+x,y,-z
-x,1/2+y,1/2+z
1/2+x,1/2-y,1/2+z
loop_
_atom_site_type_symbol
_atom_site_label
_atom_site_fract_x
_atom_site_fract_y
_atom_site_fract_z
Si Si1 0.157223 0.585164 0.909752
Si Si2 0.969469 0.546266 0.214292
Si Si3 0.680690 0.250000 0.250000
Si Si4 0.250000 0.000000 0.454208
Si Si5 0.582694 0.944364 0.927114
Si Si6 0.630468 0.370501 0.099012
Si Si7 0.224710 0.807478 0.350307
Si Si8 0.801491 0.602490 0.588635
O O1 0.207306 0.538723 0.868376
O O2 0.119913 0.557003 0.154582
O O3 0.186067 0.646754 0.989839
O O4 0.117920 0.590762 0.649977
O O5 0.933241 0.507522 0.431468
O O6 0.927529 0.594973 0.099588
O O7 0.021330 0.578906 0.356966
O O8 0.000000 0.500000 0.000000
O O9 0.638252 0.306330 0.244050
O O10 0.724810 0.223093 0.474917
O O11 0.218866 0.044669 0.246606
O O12 0.675091 0.406893 0.286814
O O13 0.650851 0.370796 0.786899
O O14 0.191698 0.750000 0.250000
O O15 0.252609 0.848287 0.112264
#
# Coordination Sequence:
#
# PCOD9410849 Si02
#       8
#     8   8   4   4   8   8   8   8
#     4  11  24  38  63  92 133 168 210 262 317 395
#     4  11  24  42  69  94 128 169 219 272 337 390
#     4  10  22  42  64  94 126 162 222 260 322 378
#     4  10  22  36  56  92 130 164 202 248 316 382
#     4  11  24  42  62  94 127 166 215 262 325 397
#     4  11  23  38  65  90 123 160 209 269 316 369
#     4  10  21  38  63  91 131 169 217 251 322 385
#     4  10  22  36  59  93 125 161 201 260 308 380
#
# _framework density 21.306871000000001
#
# number of rings (size 3 to 8) (size 9 to 14) (size 15 to 20)
#    0.000    1.429    2.857    1.714    6.000    4.571 
#    0.000    0.000    1.571    1.714    0.000    0.000 
#    0.000    0.000    0.000    0.000    0.000    0.000 
#
# Total GULP energy -312594.463532 kJ/mol
# GULP energy per Si atom -5582.043992 kJ/mol
# Density = 2.125838 g / cm^3
# Si number density = 21.306871 Si / 1000 Ang^3
#
#
#
# Elastic Constant Matrix: (Units=GPa)
#
#
# Indices 1 2 3 4 5 6 
#
# 1 112.9131 52.6056 31.3660 0.0000 0.0000 0.0000
# 2 52.6056 115.5229 6.7304 0.0000 0.0000 0.0000
# 3 31.3660 6.7304 90.1052 0.0000 0.0000 0.0000
# 4 0.0000 0.0000 0.0000 22.2387 0.0000 0.0000
# 5 0.0000 0.0000 0.0000 0.0000 66.3452 0.0000
# 6 0.0000 0.0000 0.0000 0.0000 0.0000 26.3405
#
#
#
# Elastic Compliance Matrix: (Units=1/GPa)
#
#
# Indices 1 2 3 4 5 6 
#
# 1 0.012495 -0.005460 -0.003942 0.000000 0.000000 0.000000
# 2 -0.005460 0.011080 0.001073 0.000000 0.000000 0.000000
# 3 -0.003942 0.001073 0.012390 0.000000 0.000000 0.000000
# 4 0.000000 0.000000 0.000000 0.044967 0.000000 0.000000
# 5 0.000000 0.000000 0.000000 0.000000 0.015073 0.000000
# 6 0.000000 0.000000 0.000000 0.000000 0.000000 0.037964
#
#
# Mechanical properties :
#
#
# Convention : Reuss Voigt Hill
#
# Bulk Modulus (GPa) = 51.79290 55.54946 53.67118
# Shear Modulus (GPa) = 31.83428 38.17416 35.00422
#
# Velocity S-wave (km/s) = 3.86953 4.23736 4.05762
# Velocity P-wave (km/s) = 6.65772 7.07588 6.86998
#
# Compressibility (1/GPa) = 0.01930766
#
# Stress axis : x y z
#
# Youngs Moduli (GPa) = 80.03013 90.25076 80.70932
#
# Poissons Ratio (x) = 0.49280 0.31814
# Poissons Ratio (y) = 0.43699 -0.08661
# Poissons Ratio (z) = 0.31546 -0.09685
#
# Static dielectric constant tensor:
#      x y z
#    x 1.783880 0.000000 0.000000 
#    y 0.000000 1.834620 0.000000 
#    z 0.000000 0.000000 1.853580 
# 
# From -- ./inp_files/5242.got.cif
#   From: 2010.05.17/outbox.cif.g08.bks.cpg/sg52_3_cif.got.tgz:5242.got - 2010.06.03 12:15:38.
