data_PCOD9410130
_publ_section_title
;
Structure prediction by ZEFSAII (Michael W. Deem and Ramdas Pophale) SiO2 
 PCOD9410130
Probable space group: P N N A
;
_chemical_formula_sum "Si O2"
_cell_formula_units_Z 48
_cell_length_a 5.286925
_cell_length_b 26.615770
_cell_length_c 15.850640
_cell_angle_alpha 90.000000
_cell_angle_beta 90.000000
_cell_angle_gamma 90.000000
_cell_volume 2230.431998
_symmetry_space_group_name_H-M "P N N A"
_symmetry_group_IT_number 52
_symmetry_cell_setting 'orthorhombic'
loop_
_space_group_symop_operation_xyz
x,y,z
1/2-x,-y,z
x,1/2-y,1/2-z
1/2-x,1/2+y,1/2-z
-x,-y,-z
1/2+x,y,-z
-x,1/2+y,1/2+z
1/2+x,1/2-y,1/2+z
loop_
_atom_site_type_symbol
_atom_site_label
_atom_site_fract_x
_atom_site_fract_y
_atom_site_fract_z
Si Si1 0.250000 0.000000 0.301486
Si Si2 0.581288 0.750000 0.750000
Si Si3 0.397132 0.414110 0.305823
Si Si4 0.636284 0.340258 0.828629
Si Si5 0.615671 0.134713 0.942485
Si Si6 0.721329 0.668450 0.311191
Si Si7 0.583199 0.072799 0.553743
O O1 0.074967 0.967129 0.239286
O O2 0.399034 0.962570 0.363757
O O3 0.741554 0.713700 0.811299
O O4 0.408290 0.715008 0.689998
O O5 0.294453 0.377859 0.231623
O O6 0.192622 0.412610 0.381848
O O7 0.643673 0.383877 0.336091
O O8 0.363318 0.337516 0.785253
O O9 0.610457 0.369179 0.916102
O O10 0.526195 0.174240 0.869826
O O11 0.372900 0.139063 0.003731
O O12 0.324435 0.062725 0.505125
#
# Coordination Sequence:
#
# PCOD9410130 Si02
#       7
#     4   4   8   8   8   8   8
#     4  10  22  44  66 100 128 178 240 268 314 410
#     4  10  20  38  66  94 124 162 234 266 322 392
#     4   9  20  39  65  93 125 177 219 270 319 388
#     4   9  21  38  63  92 126 170 218 270 318 400
#     4  11  21  40  64  92 129 164 209 264 330 386
#     4  10  20  39  67  90 127 174 217 268 333 392
#     4  11  25  44  66  97 139 176 213 276 341 382
#
# _framework density 21.520496000000001
#
# number of rings (size 3 to 8) (size 9 to 14) (size 15 to 20)
#    0.000    2.000    1.667    1.000    7.000    0.000 
#    6.000    2.500    0.000    0.000    0.000    0.000 
#    0.000    0.000    0.000    0.000    0.000    0.000 
#
# Total GULP energy -267233.920867 kJ/mol
# GULP energy per Si atom -5567.373351 kJ/mol
# Density = 2.147151 g / cm^3
# Si number density = 21.520496 Si / 1000 Ang^3
#
#
#
# Elastic Constant Matrix: (Units=GPa)
#
#
# Indices 1 2 3 4 5 6 
#
# 1 116.2672 42.4217 52.4828 0.0000 0.0000 0.0000
# 2 42.4217 103.5411 32.2113 0.0000 0.0000 0.0000
# 3 52.4828 32.2113 59.0502 0.0000 0.0000 0.0000
# 4 0.0000 0.0000 0.0000 28.0954 0.0000 0.0000
# 5 0.0000 0.0000 0.0000 0.0000 31.5521 0.0000
# 6 0.0000 0.0000 0.0000 0.0000 0.0000 12.6937
#
#
#
# Elastic Compliance Matrix: (Units=1/GPa)
#
#
# Indices 1 2 3 4 5 6 
#
# 1 0.014835 -0.002380 -0.011887 0.000000 0.000000 0.000000
# 2 -0.002380 0.012014 -0.004438 0.000000 0.000000 0.000000
# 3 -0.011887 -0.004438 0.029920 0.000000 0.000000 0.000000
# 4 0.000000 0.000000 0.000000 0.035593 0.000000 0.000000
# 5 0.000000 0.000000 0.000000 0.000000 0.031694 0.000000
# 6 0.000000 0.000000 0.000000 0.000000 0.000000 0.078779
#
#
# Mechanical properties :
#
#
# Convention : Reuss Voigt Hill
#
# Bulk Modulus (GPa) = 51.65444 59.23223 55.44333
# Shear Modulus (GPa) = 20.26772 24.58442 22.42607
#
# Velocity S-wave (km/s) = 3.07218 3.38357 3.23163
# Velocity P-wave (km/s) = 6.05301 6.54585 6.30425
#
# Compressibility (1/GPa) = 0.01935942
#
# Stress axis : x y z
#
# Youngs Moduli (GPa) = 67.40851 83.23760 33.42208
#
# Poissons Ratio (x) = 0.19811 0.39728
# Poissons Ratio (y) = 0.16044 0.14833
# Poissons Ratio (z) = 0.80127 0.36941
#
# Static dielectric constant tensor:
#      x y z
#    x 1.885650 0.000000 0.000000 
#    y 0.000000 1.824280 0.000000 
#    z 0.000000 0.000000 1.815240 
# 
# From -- ./inp_files/23714.got.cif
#   From: 2010.05.17/outbox.cif.g08.bks.cpg/sg52_12_cif.got.tgz:23714.got - 2010.06.03 12:15:38.
