data_PCOD9410252
_publ_section_title
;
Structure prediction by ZEFSAII (Michael W. Deem and Ramdas Pophale) SiO2 
 PCOD9410252
Probable space group: P N N A
;
_chemical_formula_sum "Si O2"
_cell_formula_units_Z 48
_cell_length_a 13.769530
_cell_length_b 7.948648
_cell_length_c 18.302093
_cell_angle_alpha 90.000000
_cell_angle_beta 90.000000
_cell_angle_gamma 90.000000
_cell_volume 2003.148469
_symmetry_space_group_name_H-M "P N N A"
_symmetry_group_IT_number 52
_symmetry_cell_setting 'orthorhombic'
loop_
_space_group_symop_operation_xyz
x,y,z
1/2-x,-y,z
x,1/2-y,1/2-z
1/2-x,1/2+y,1/2-z
-x,-y,-z
1/2+x,y,-z
-x,1/2+y,1/2+z
1/2+x,1/2-y,1/2+z
loop_
_atom_site_type_symbol
_atom_site_label
_atom_site_fract_x
_atom_site_fract_y
_atom_site_fract_z
Si Si1 0.108192 0.560167 0.010450
Si Si2 0.250000 0.000000 0.993354
Si Si3 0.341164 0.750000 0.750000
Si Si4 0.570774 0.932557 0.939257
Si Si5 0.250000 0.500000 0.135322
Si Si6 0.681081 0.773600 0.375492
Si Si7 0.164483 0.250000 0.250000
Si Si8 0.977965 0.044931 0.201865
O O1 0.103728 0.746524 0.043597
O O2 0.164473 0.468835 0.075424
O O3 0.152245 0.571702 0.928417
O O4 0.000000 0.500000 0.000000
O O5 0.215029 0.860647 0.936335
O O6 0.164316 0.049102 0.048592
O O7 0.268529 0.778987 0.681913
O O8 0.407241 0.581271 0.745419
O O9 0.511717 0.934895 0.866197
O O10 0.500000 0.000000 0.000000
O O11 0.234078 0.339213 0.189572
O O12 0.586978 0.699171 0.331542
O O13 0.082375 0.106676 0.231856
#
# Coordination Sequence:
#
# PCOD9410252 Si02
#       8
#     8   4   4   8   4   8   4   8
#     4  11  27  50  80 118 156 200 266 332 400 467
#     4  10  20  39  71 110 136 196 252 316 388 465
#     4  12  25  45  80 112 160 212 266 326 408 472
#     4  11  23  43  80 105 150 193 256 320 392 466
#     4  12  32  57  79 118 158 216 262 338 406 485
#     4  11  22  48  74 114 156 205 264 322 403 470
#     4  12  33  53  78 106 162 206 270 318 408 492
#     4  12  26  48  74 113 154 209 266 327 397 483
#
# _framework density 23.962278999999999
#
# number of rings (size 3 to 8) (size 9 to 14) (size 15 to 20)
#    0.000    0.667    5.000    1.500    9.333    1.333 
#    9.000    0.000    0.000    0.000    0.000    0.000 
#    0.000    0.000    0.000    0.000    0.000    0.000 
#
# Total GULP energy -267778.326118 kJ/mol
# GULP energy per Si atom -5578.715127 kJ/mol
# Density = 2.390774 g / cm^3
# Si number density = 23.962279 Si / 1000 Ang^3
#
#
#
# Elastic Constant Matrix: (Units=GPa)
#
#
# Indices 1 2 3 4 5 6 
#
# 1 127.9791 8.9891 48.3072 0.0000 0.0000 0.0000
# 2 8.9891 39.4900 43.6741 0.0000 0.0000 0.0000
# 3 48.3072 43.6741 113.9924 0.0000 0.0000 0.0000
# 4 0.0000 0.0000 0.0000 32.2751 0.0000 0.0000
# 5 0.0000 0.0000 0.0000 0.0000 18.5738 0.0000
# 6 0.0000 0.0000 0.0000 0.0000 0.0000 1665.2557
#
#
#
# Elastic Compliance Matrix: (Units=1/GPa)
#
#
# Indices 1 2 3 4 5 6 
#
# 1 0.009659 0.004040 -0.005641 0.000000 0.000000 0.000000
# 2 0.004040 0.045632 -0.019195 0.000000 0.000000 0.000000
# 3 -0.005641 -0.019195 0.018518 0.000000 0.000000 0.000000
# 4 0.000000 0.000000 0.000000 0.030984 0.000000 0.000000
# 5 0.000000 0.000000 0.000000 0.000000 0.053839 0.000000
# 6 0.000000 0.000000 0.000000 0.000000 0.000000 0.000601
#
#
# Mechanical properties :
#
#
# Convention : Reuss Voigt Hill
#
# Bulk Modulus (GPa) = 31.04003 53.71138 42.37571
# Shear Modulus (GPa) = 23.63345 355.25368 189.44356
#
# Velocity S-wave (km/s) = 3.14391 12.18923 8.90116
# Velocity P-wave (km/s) = 5.11476 14.85148 11.10692
#
# Compressibility (1/GPa) = 0.03221646
#
# Stress axis : x y z
#
# Youngs Moduli (GPa) = 103.52606 21.91423 54.00272
#
# Poissons Ratio (x) = -0.08854 0.30465
# Poissons Ratio (y) = -0.41828 1.03661
# Poissons Ratio (z) = 0.58403 0.42065
#
# Static dielectric constant tensor:
#      x y z
#    x 1.835320 0.000000 0.000000 
#    y 0.000000 1.952740 0.000000 
#    z 0.000000 0.000000 1.957530 
# 
# From -- ./inp_files/33121.got.cif
#   From: 2010.05.17/outbox.cif.g08.bks.cpg/sg52_17_cif.got.tgz:33121.got - 2010.06.03 12:15:38.
