data_PCOD9410754
_publ_section_title
;
Structure prediction by ZEFSAII (Michael W. Deem and Ramdas Pophale) SiO2 
 PCOD9410754
Probable space group: P N N A
;
_chemical_formula_sum "Si O2"
_cell_formula_units_Z 44
_cell_length_a 9.152556
_cell_length_b 26.569572
_cell_length_c 7.570067
_cell_angle_alpha 90.000000
_cell_angle_beta 90.000000
_cell_angle_gamma 90.000000
_cell_volume 1840.885075
_symmetry_space_group_name_H-M "P N N A"
_symmetry_group_IT_number 52
_symmetry_cell_setting 'orthorhombic'
loop_
_space_group_symop_operation_xyz
x,y,z
1/2-x,-y,z
x,1/2-y,1/2-z
1/2-x,1/2+y,1/2-z
-x,-y,-z
1/2+x,y,-z
-x,1/2+y,1/2+z
1/2+x,1/2-y,1/2+z
loop_
_atom_site_type_symbol
_atom_site_label
_atom_site_fract_x
_atom_site_fract_y
_atom_site_fract_z
Si Si1 0.527352 0.088814 0.242612
Si Si2 0.309786 0.331403 0.347610
Si Si3 0.423379 0.512456 0.188804
Si Si4 0.751677 0.332753 0.271419
Si Si5 0.544528 0.374095 0.853725
Si Si6 0.547285 0.250000 0.250000
O O1 0.410305 0.119332 0.129077
O O2 0.503279 0.030897 0.200982
O O3 0.688873 0.110605 0.226262
O O4 0.502958 0.108493 0.446490
O O5 0.227078 0.317446 0.525875
O O6 0.196349 0.345812 0.192594
O O7 0.429558 0.288259 0.330277
O O8 0.250000 0.500000 0.177602
O O9 0.443049 0.570689 0.237718
O O10 0.500000 0.500000 0.000000
O O11 0.658193 0.291358 0.164757
O O12 0.916962 0.337711 0.212830
#
# Coordination Sequence:
#
# PCOD9410754 Si02
#       6
#     8   8   8   8   8   4
#     4  10  22  41  65  96 136 170 220 265 319 393
#     4  11  23  45  66  94 132 169 213 284 332 390
#     4  10  21  37  64  99 138 177 223 269 318 386
#     4  11  25  43  66  98 130 173 215 276 343 386
#     4  11  22  39  70  96 130 176 226 268 315 399
#     4  10  26  44  64  86 126 166 214 268 332 408
#
# _framework density 23.901547999999998
#
# number of rings (size 3 to 8) (size 9 to 14) (size 15 to 20)
#    0.000    1.455    1.818    3.273    7.636    6.545 
#    0.000    5.455    0.000    0.000    0.000    0.000 
#    0.000    0.000    0.000    0.000    0.000    0.000 
#
# Total GULP energy -245022.390771 kJ/mol
# GULP energy per Si atom -5568.690699 kJ/mol
# Density = 2.384715 g / cm^3
# Si number density = 23.901548 Si / 1000 Ang^3
#
#
#
# Elastic Constant Matrix: (Units=GPa)
#
#
# Indices 1 2 3 4 5 6 
#
# 1 127.5482 27.9441 11.3795 0.0000 0.0000 0.0000
# 2 27.9441 106.3028 34.9500 0.0000 0.0000 0.0000
# 3 11.3795 34.9500 42.1801 0.0000 0.0000 0.0000
# 4 0.0000 0.0000 0.0000 5.3241 0.0000 0.0000
# 5 0.0000 0.0000 0.0000 0.0000 25.3230 0.0000
# 6 0.0000 0.0000 0.0000 0.0000 0.0000 33.9886
#
#
#
# Elastic Compliance Matrix: (Units=1/GPa)
#
#
# Indices 1 2 3 4 5 6 
#
# 1 0.008330 -0.001994 -0.000595 0.000000 0.000000 0.000000
# 2 -0.001994 0.013407 -0.010571 0.000000 0.000000 0.000000
# 3 -0.000595 -0.010571 0.032627 0.000000 0.000000 0.000000
# 4 0.000000 0.000000 0.000000 0.187826 0.000000 0.000000
# 5 0.000000 0.000000 0.000000 0.000000 0.039490 0.000000
# 6 0.000000 0.000000 0.000000 0.000000 0.000000 0.029422
#
#
# Mechanical properties :
#
#
# Convention : Reuss Voigt Hill
#
# Bulk Modulus (GPa) = 35.65784 47.17538 41.41661
# Shear Modulus (GPa) = 14.41880 26.37764 20.39822
#
# Velocity S-wave (km/s) = 2.45880 3.32564 2.92452
# Velocity P-wave (km/s) = 4.79707 5.87595 5.36371
#
# Compressibility (1/GPa) = 0.02804432
#
# Stress axis : x y z
#
# Youngs Moduli (GPa) = 120.04591 74.58955 30.64934
#
# Poissons Ratio (x) = 0.14874 0.01824
# Poissons Ratio (y) = 0.23939 0.32398
# Poissons Ratio (z) = 0.07143 0.78846
#
# Static dielectric constant tensor:
#      x y z
#    x 1.890070 0.000000 0.000000 
#    y 0.000000 2.006190 0.000000 
#    z 0.000000 0.000000 2.338990 
# 
# From -- ./inp_files/7627.got.cif
#   From: 2010.05.17/outbox.cif.g08.bks.cpg/sg52_4_cif.got.tgz:7627.got - 2010.06.03 12:15:38.
