data_PCOD9410765
_publ_section_title
;
Structure prediction by ZEFSAII (Michael W. Deem and Ramdas Pophale) SiO2 
 PCOD9410765
Probable space group: P N N A
;
_chemical_formula_sum "Si O2"
_cell_formula_units_Z 48
_cell_length_a 14.285940
_cell_length_b 5.335248
_cell_length_c 32.135774
_cell_angle_alpha 90.000000
_cell_angle_beta 90.000000
_cell_angle_gamma 90.000000
_cell_volume 2449.357613
_symmetry_space_group_name_H-M "P N N A"
_symmetry_group_IT_number 52
_symmetry_cell_setting 'orthorhombic'
loop_
_space_group_symop_operation_xyz
x,y,z
1/2-x,-y,z
x,1/2-y,1/2-z
1/2-x,1/2+y,1/2-z
-x,-y,-z
1/2+x,y,-z
-x,1/2+y,1/2+z
1/2+x,1/2-y,1/2+z
loop_
_atom_site_type_symbol
_atom_site_label
_atom_site_fract_x
_atom_site_fract_y
_atom_site_fract_z
Si Si1 0.308178 0.759036 0.590898
Si Si2 0.345788 0.835720 0.158351
Si Si3 0.515452 0.506197 0.391604
Si Si4 0.932930 0.390915 0.047154
Si Si5 0.398442 0.242096 0.461638
Si Si6 0.812046 0.750000 0.750000
Si Si7 0.750000 0.000000 0.592369
O O1 0.250000 0.500000 0.584457
O O2 0.398746 0.677165 0.617609
O O3 0.250000 0.000000 0.606901
O O4 0.359074 0.880071 0.550156
O O5 0.361912 0.742586 0.205262
O O6 0.325174 0.623841 0.123625
O O7 0.250000 0.000000 0.157767
O O8 0.437736 0.978785 0.143482
O O9 0.561385 0.762810 0.407732
O O10 0.458297 0.424926 0.432997
O O11 0.037851 0.489494 0.039264
O O12 0.896586 0.208179 0.010700
O O13 0.301801 0.194031 0.438030
O O14 0.750000 0.500000 0.749432
#
# Coordination Sequence:
#
# PCOD9410765 Si02
#       7
#     8   8   8   8   8   4   4
#     4  11  23  41  60  85 115 157 211 269 318 361
#     4  11  22  39  60  91 128 168 201 251 308 381
#     4  11  21  38  60  83 124 161 212 257 313 372
#     4  10  21  38  53  81 117 160 213 268 309 352
#     4  10  22  33  52  83 118 167 207 260 303 360
#     4  10  22  40  64  94 130 166 198 246 300 376
#     4  12  20  34  54  84 124 162 220 234 312 360
#
# _framework density 19.596975
#
# number of rings (size 3 to 8) (size 9 to 14) (size 15 to 20)
#    0.000    1.333    5.833    0.500    1.167    0.000 
#    0.000    2.500    0.000    0.000    0.000    0.000 
#    5.000    0.000    0.000    0.000    0.000    0.000 
#
# Total GULP energy -267406.128424 kJ/mol
# GULP energy per Si atom -5570.961009 kJ/mol
# Density = 1.955237 g / cm^3
# Si number density = 19.596975 Si / 1000 Ang^3
#
#
#
# Elastic Constant Matrix: (Units=GPa)
#
#
# Indices 1 2 3 4 5 6 
#
# 1 113.3246 36.5211 40.2358 0.0000 0.0000 0.0000
# 2 36.5211 79.4640 17.9453 0.0000 0.0000 0.0000
# 3 40.2358 17.9453 104.4222 0.0000 0.0000 0.0000
# 4 0.0000 0.0000 0.0000 14.2942 0.0000 0.0000
# 5 0.0000 0.0000 0.0000 0.0000 14.7657 0.0000
# 6 0.0000 0.0000 0.0000 0.0000 0.0000 37.1507
#
#
#
# Elastic Compliance Matrix: (Units=1/GPa)
#
#
# Indices 1 2 3 4 5 6 
#
# 1 0.011581 -0.004489 -0.003691 0.000000 0.000000 0.000000
# 2 -0.004489 0.014833 -0.000819 0.000000 0.000000 0.000000
# 3 -0.003691 -0.000819 0.011140 0.000000 0.000000 0.000000
# 4 0.000000 0.000000 0.000000 0.069958 0.000000 0.000000
# 5 0.000000 0.000000 0.000000 0.000000 0.067724 0.000000
# 6 0.000000 0.000000 0.000000 0.000000 0.000000 0.026917
#
#
# Mechanical properties :
#
#
# Convention : Reuss Voigt Hill
#
# Bulk Modulus (GPa) = 51.13916 54.06836 52.60376
# Shear Modulus (GPa) = 22.05842 26.74271 24.40057
#
# Velocity S-wave (km/s) = 3.35864 3.69810 3.53245
# Velocity P-wave (km/s) = 6.41816 6.77382 6.59839
#
# Compressibility (1/GPa) = 0.01955449
#
# Stress axis : x y z
#
# Youngs Moduli (GPa) = 86.34490 67.41938 89.77037
#
# Poissons Ratio (x) = 0.30266 0.33135
# Poissons Ratio (y) = 0.38762 0.07354
# Poissons Ratio (z) = 0.31870 0.05523
#
# Static dielectric constant tensor:
#      x y z
#    x 1.742760 0.000000 0.000000 
#    y 0.000000 1.821770 0.000000 
#    z 0.000000 0.000000 1.682990 
# 
# From -- ./inp_files/44958.got.cif
#   From: 2010.05.17/outbox.cif.g08.bks.cpg/sg52_23_cif.got.tgz:44958.got - 2010.06.03 12:15:38.
