data_PCOD9410288
_publ_section_title
;
Structure prediction by ZEFSAII (Michael W. Deem and Ramdas Pophale) SiO2 
 PCOD9410288
Probable space group: P N N A
;
_chemical_formula_sum "Si O2"
_cell_formula_units_Z 48
_cell_length_a 16.956191
_cell_length_b 9.310073
_cell_length_c 15.471129
_cell_angle_alpha 90.000000
_cell_angle_beta 90.000000
_cell_angle_gamma 90.000000
_cell_volume 2442.324655
_symmetry_space_group_name_H-M "P N N A"
_symmetry_group_IT_number 52
_symmetry_cell_setting 'orthorhombic'
loop_
_space_group_symop_operation_xyz
x,y,z
1/2-x,-y,z
x,1/2-y,1/2-z
1/2-x,1/2+y,1/2-z
-x,-y,-z
1/2+x,y,-z
-x,1/2+y,1/2+z
1/2+x,1/2-y,1/2+z
loop_
_atom_site_type_symbol
_atom_site_label
_atom_site_fract_x
_atom_site_fract_y
_atom_site_fract_z
Si Si1 0.838213 0.280318 0.457695
Si Si2 0.921189 0.517308 0.557727
Si Si3 0.668165 0.013093 0.193708
Si Si4 0.004660 0.420502 0.257397
Si Si5 0.048174 0.978288 0.585707
Si Si6 0.162202 0.257766 0.941881
O O1 0.869763 0.374692 0.538144
O O2 0.823501 0.399864 0.384421
O O3 0.904441 0.172126 0.422312
O O4 0.752260 0.211333 0.469598
O O5 0.877083 0.656541 0.516620
O O6 0.000000 0.500000 0.500000
O O7 0.948030 0.531462 0.657414
O O8 0.660329 0.164801 0.146651
O O9 0.750000 0.000000 0.246068
O O10 0.587245 0.966371 0.235805
O O11 0.012187 0.250000 0.250000
O O12 0.017139 0.483401 0.162063
O O13 0.112689 0.103342 0.582200
O O14 0.000000 0.000000 0.500000
#
# Coordination Sequence:
#
# PCOD9410288 Si02
#       6
#     8   8   8   8   8   8
#     4  10  20  40  63  87 124 165 202 254 311 376
#     4  11  19  39  65  87 122 162 212 248 303 388
#     4   9  19  36  58  87 119 155 200 237 301 386
#     4  12  22  38  61  89 126 169 204 254 317 376
#     4  12  25  39  59  91 126 160 207 263 323 367
#     4  10  21  38  63  92 120 161 205 259 314 364
#
# _framework density 19.653407999999999
#
# number of rings (size 3 to 8) (size 9 to 14) (size 15 to 20)
#    0.000    1.333    5.000    4.000    0.000    2.000 
#    0.000    0.000    0.000   10.000    0.000    0.000 
#    0.000    0.000    0.000    0.000    0.000    0.000 
#
# Total GULP energy -267734.871664 kJ/mol
# GULP energy per Si atom -5577.809826 kJ/mol
# Density = 1.960868 g / cm^3
# Si number density = 19.653408 Si / 1000 Ang^3
#
#
#
# Elastic Constant Matrix: (Units=GPa)
#
#
# Indices 1 2 3 4 5 6 
#
# 1 37.8074 6.1774 9.2820 0.0000 0.0000 0.0000
# 2 6.1774 85.4269 14.9022 0.0000 0.0000 0.0000
# 3 9.2820 14.9022 112.8601 0.0000 0.0000 0.0000
# 4 0.0000 0.0000 0.0000 19.6497 0.0000 0.0000
# 5 0.0000 0.0000 0.0000 0.0000 21.6525 0.0000
# 6 0.0000 0.0000 0.0000 0.0000 0.0000 22.0633
#
#
#
# Elastic Compliance Matrix: (Units=1/GPa)
#
#
# Indices 1 2 3 4 5 6 
#
# 1 0.027211 -0.001614 -0.002025 0.000000 0.000000 0.000000
# 2 -0.001614 0.012078 -0.001462 0.000000 0.000000 0.000000
# 3 -0.002025 -0.001462 0.009220 0.000000 0.000000 0.000000
# 4 0.000000 0.000000 0.000000 0.050891 0.000000 0.000000
# 5 0.000000 0.000000 0.000000 0.000000 0.046184 0.000000
# 6 0.000000 0.000000 0.000000 0.000000 0.000000 0.045324
#
#
# Mechanical properties :
#
#
# Convention : Reuss Voigt Hill
#
# Bulk Modulus (GPa) = 26.10548 32.97976 29.54262
# Shear Modulus (GPa) = 23.37769 26.38861 24.88315
#
# Velocity S-wave (km/s) = 3.45265 3.66826 3.56209
# Velocity P-wave (km/s) = 5.40427 5.89565 5.65530
#
# Compressibility (1/GPa) = 0.03830614
#
# Stress axis : x y z
#
# Youngs Moduli (GPa) = 36.75025 82.79725 108.45885
#
# Poissons Ratio (x) = 0.13367 0.21960
# Poissons Ratio (y) = 0.05933 0.15856
# Poissons Ratio (z) = 0.07441 0.12105
#
# Static dielectric constant tensor:
#      x y z
#    x 1.788730 0.000000 0.000000 
#    y 0.000000 1.673640 0.000000 
#    z 0.000000 0.000000 1.762050 
# 
# From -- ./inp_files/28065.got.cif
#   From: 2010.05.17/outbox.cif.g08.bks.cpg/sg52_15_cif.got.tgz:28065.got - 2010.06.03 12:15:38.
