data_PCOD9410716
_publ_section_title
;
Structure prediction by ZEFSAII (Michael W. Deem and Ramdas Pophale) SiO2 
 PCOD9410716
Probable space group: P N N A
;
_chemical_formula_sum "Si O2"
_cell_formula_units_Z 40
_cell_length_a 12.205886
_cell_length_b 18.392419
_cell_length_c 8.341539
_cell_angle_alpha 90.000000
_cell_angle_beta 90.000000
_cell_angle_gamma 90.000000
_cell_volume 1872.640217
_symmetry_space_group_name_H-M "P N N A"
_symmetry_group_IT_number 52
_symmetry_cell_setting 'orthorhombic'
loop_
_space_group_symop_operation_xyz
x,y,z
1/2-x,-y,z
x,1/2-y,1/2-z
1/2-x,1/2+y,1/2-z
-x,-y,-z
1/2+x,y,-z
-x,1/2+y,1/2+z
1/2+x,1/2-y,1/2+z
loop_
_atom_site_type_symbol
_atom_site_label
_atom_site_fract_x
_atom_site_fract_y
_atom_site_fract_z
Si Si1 0.151923 0.541028 0.907643
Si Si2 0.110171 0.833544 0.808836
Si Si3 0.041473 0.099542 0.629596
Si Si4 0.627815 0.334468 0.806672
Si Si5 0.641580 0.831171 0.819138
O O1 0.250000 0.500000 0.996285
O O2 0.178925 0.610179 0.798528
O O3 0.105039 0.471666 0.810496
O O4 0.060501 0.568195 0.027638
O O5 0.117145 0.750000 0.750000
O O6 0.983749 0.859976 0.782458
O O7 0.147925 0.834182 0.990560
O O8 0.104995 0.148959 0.496052
O O9 0.977956 0.139931 0.769280
O O10 0.631721 0.250000 0.750000
O O11 0.746473 0.365122 0.755177
O O12 0.640982 0.750000 0.750000
#
# Coordination Sequence:
#
# PCOD9410716 Si02
#       5
#     8   8   8   8   8
#     4  10  21  39  59  84 121 161 201 249 311 368
#     4  10  22  41  61  86 124 159 203 257 298 363
#     4  10  21  37  60  87 121 162 203 253 306 362
#     4   9  19  37  58  87 123 157 203 254 299 360
#     4  11  21  36  63  92 120 162 206 248 306 359
#
# _framework density 21.360216000000001
#
# number of rings (size 3 to 8) (size 9 to 14) (size 15 to 20)
#    0.000    2.000    0.000    4.800    0.000    4.000 
#    0.000    7.000    0.000    1.200    0.000    0.000 
#    0.000    0.000    0.000    0.000    0.000    0.000 
#
# Total GULP energy -222689.295883 kJ/mol
# GULP energy per Si atom -5567.232397 kJ/mol
# Density = 2.131160 g / cm^3
# Si number density = 21.360216 Si / 1000 Ang^3
#
#
#
# Elastic Constant Matrix: (Units=GPa)
#
#
# Indices 1 2 3 4 5 6 
#
# 1 52.5470 15.7548 12.5348 0.0000 0.0000 0.0000
# 2 15.7548 92.4464 29.3162 0.0000 0.0000 0.0000
# 3 12.5348 29.3162 77.2269 0.0000 0.0000 0.0000
# 4 0.0000 0.0000 0.0000 22.0012 0.0000 0.0000
# 5 0.0000 0.0000 0.0000 0.0000 20.4456 0.0000
# 6 0.0000 0.0000 0.0000 0.0000 0.0000 32.9995
#
#
#
# Elastic Compliance Matrix: (Units=1/GPa)
#
#
# Indices 1 2 3 4 5 6 
#
# 1 0.020398 -0.002758 -0.002264 0.000000 0.000000 0.000000
# 2 -0.002758 0.012670 -0.004362 0.000000 0.000000 0.000000
# 3 -0.002264 -0.004362 0.014972 0.000000 0.000000 0.000000
# 4 0.000000 0.000000 0.000000 0.045452 0.000000 0.000000
# 5 0.000000 0.000000 0.000000 0.000000 0.048910 0.000000
# 6 0.000000 0.000000 0.000000 0.000000 0.000000 0.030303
#
#
# Mechanical properties :
#
#
# Convention : Reuss Voigt Hill
#
# Bulk Modulus (GPa) = 34.16241 37.49245 35.82743
# Shear Modulus (GPa) = 24.84698 26.06356 25.45527
#
# Velocity S-wave (km/s) = 3.41433 3.49691 3.45587
# Velocity P-wave (km/s) = 5.61887 5.82195 5.72131
#
# Compressibility (1/GPa) = 0.02927194
#
# Stress axis : x y z
#
# Youngs Moduli (GPa) = 49.02546 78.92373 66.79054
#
# Poissons Ratio (x) = 0.21770 0.15119
# Poissons Ratio (y) = 0.13523 0.29135
# Poissons Ratio (z) = 0.11098 0.34428
#
# Static dielectric constant tensor:
#      x y z
#    x 1.956100 0.000000 0.000000 
#    y 0.000000 1.819290 0.000000 
#    z 0.000000 0.000000 1.734530 
# 
# From -- ./inp_files/8513.got.cif
#   From: 2010.05.17/outbox.cif.g08.bks.cpg/sg52_5_cif.got.tgz:8513.got - 2010.06.03 12:15:38.
