data_PCOD9410800
_publ_section_title
;
Structure prediction by ZEFSAII (Michael W. Deem and Ramdas Pophale) SiO2 
 PCOD9410800
Probable space group: P N N A
;
_chemical_formula_sum "Si O2"
_cell_formula_units_Z 60
_cell_length_a 12.951121
_cell_length_b 29.387348
_cell_length_c 7.564545
_cell_angle_alpha 90.000000
_cell_angle_beta 90.000000
_cell_angle_gamma 90.000000
_cell_volume 2879.059018
_symmetry_space_group_name_H-M "P N N A"
_symmetry_group_IT_number 52
_symmetry_cell_setting 'orthorhombic'
loop_
_space_group_symop_operation_xyz
x,y,z
1/2-x,-y,z
x,1/2-y,1/2-z
1/2-x,1/2+y,1/2-z
-x,-y,-z
1/2+x,y,-z
-x,1/2+y,1/2+z
1/2+x,1/2-y,1/2+z
loop_
_atom_site_type_symbol
_atom_site_label
_atom_site_fract_x
_atom_site_fract_y
_atom_site_fract_z
Si Si1 0.202052 0.677911 0.696974
Si Si2 0.980653 0.978575 0.759859
Si Si3 0.129031 0.250000 0.750000
Si Si4 0.280263 0.549829 0.181474
Si Si5 0.340688 0.632700 0.424229
Si Si6 0.476445 0.713199 0.389527
Si Si7 0.598926 0.055523 0.133125
Si Si8 0.687173 0.574623 0.184051
O O1 0.289243 0.708967 0.792829
O O2 0.253661 0.662853 0.512937
O O3 0.183460 0.629261 0.792608
O O4 0.097510 0.704087 0.646260
O O5 0.083852 0.948810 0.754456
O O6 0.898395 0.959542 0.621531
O O7 0.014542 0.030807 0.746841
O O8 0.922426 0.969985 0.946924
O O9 0.059639 0.268814 0.584913
O O10 0.250000 0.500000 0.253914
O O11 0.287910 0.593073 0.310193
O O12 0.208173 0.561437 0.017775
O O13 0.420178 0.666318 0.335570
O O14 0.408098 0.608058 0.578701
O O15 0.439830 0.750000 0.250000
O O16 0.714253 0.053936 0.210072
#
# Coordination Sequence:
#
# PCOD9410800 Si02
#       8
#     8   8   4   8   8   8   8   8
#     4  10  21  44  67  95 133 170 228 277 342 413
#     4  10  21  38  60  88 125 174 224 266 333 385
#     4  10  24  46  66 108 130 170 226 286 348 418
#     4  11  24  39  59  98 142 180 227 275 335 406
#     4   9  22  40  63  97 131 175 226 275 331 415
#     4  11  23  45  74  98 137 176 225 291 352 430
#     4   9  19  36  61  84 119 170 220 272 317 388
#     4  11  23  39  62  91 133 174 221 278 332 402
#
# _framework density 20.840143999999999
#
# number of rings (size 3 to 8) (size 9 to 14) (size 15 to 20)
#    0.000    1.867    0.667    2.800    1.867   12.800 
#    7.200    1.333    0.000    0.000    0.000    0.000 
#    0.000    0.000    0.000    0.000    0.000    0.000 
#
# Total GULP energy -334146.274182 kJ/mol
# GULP energy per Si atom -5569.104570 kJ/mol
# Density = 2.079271 g / cm^3
# Si number density = 20.840144 Si / 1000 Ang^3
#
#
#
# Elastic Constant Matrix: (Units=GPa)
#
#
# Indices 1 2 3 4 5 6 
#
# 1 74.2197 31.4557 5.8389 0.0000 0.0000 0.0000
# 2 31.4557 94.9739 5.4983 0.0000 0.0000 0.0000
# 3 5.8389 5.4983 38.9614 0.0000 0.0000 0.0000
# 4 0.0000 0.0000 0.0000 6.4986 0.0000 0.0000
# 5 0.0000 0.0000 0.0000 0.0000 21.2078 0.0000
# 6 0.0000 0.0000 0.0000 0.0000 0.0000 44.5578
#
#
#
# Elastic Compliance Matrix: (Units=1/GPa)
#
#
# Indices 1 2 3 4 5 6 
#
# 1 0.015777 -0.005130 -0.001640 0.000000 0.000000 0.000000
# 2 -0.005130 0.012284 -0.000965 0.000000 0.000000 0.000000
# 3 -0.001640 -0.000965 0.026048 0.000000 0.000000 0.000000
# 4 0.000000 0.000000 0.000000 0.153879 0.000000 0.000000
# 5 0.000000 0.000000 0.000000 0.000000 0.047152 0.000000
# 6 0.000000 0.000000 0.000000 0.000000 0.000000 0.022443
#
#
# Mechanical properties :
#
#
# Convention : Reuss Voigt Hill
#
# Bulk Modulus (GPa) = 25.88084 32.63785 29.25934
# Shear Modulus (GPa) = 16.34340 25.47698 20.91019
#
# Velocity S-wave (km/s) = 2.80344 3.50021 3.17102
# Velocity P-wave (km/s) = 4.78798 5.65954 5.24190
#
# Compressibility (1/GPa) = 0.03863863
#
# Stress axis : x y z
#
# Youngs Moduli (GPa) = 63.38373 81.40492 38.39003
#
# Poissons Ratio (x) = 0.41764 0.06297
# Poissons Ratio (y) = 0.32518 0.03704
# Poissons Ratio (z) = 0.10397 0.07853
#
# Static dielectric constant tensor:
#      x y z
#    x 1.821570 0.000000 0.000000 
#    y 0.000000 1.783480 0.000000 
#    z 0.000000 0.000000 1.813480 
# 
# From -- ./inp_files/9102.got.cif
#   From: 2010.05.17/outbox.cif.g08.bks.cpg/sg52_5_cif.got.tgz:9102.got - 2010.06.03 12:15:38.
