data_PCOD9410677
_publ_section_title
;
Structure prediction by ZEFSAII (Michael W. Deem and Ramdas Pophale) SiO2 
 PCOD9410677
Probable space group: P N N A
;
_chemical_formula_sum "Si O2"
_cell_formula_units_Z 32
_cell_length_a 24.085579
_cell_length_b 13.211492
_cell_length_c 4.880427
_cell_angle_alpha 90.000000
_cell_angle_beta 90.000000
_cell_angle_gamma 90.000000
_cell_volume 1552.983273
_symmetry_space_group_name_H-M "P N N A"
_symmetry_group_IT_number 52
_symmetry_cell_setting 'orthorhombic'
loop_
_space_group_symop_operation_xyz
x,y,z
1/2-x,-y,z
x,1/2-y,1/2-z
1/2-x,1/2+y,1/2-z
-x,-y,-z
1/2+x,y,-z
-x,1/2+y,1/2+z
1/2+x,1/2-y,1/2+z
loop_
_atom_site_type_symbol
_atom_site_label
_atom_site_fract_x
_atom_site_fract_y
_atom_site_fract_z
Si Si1 0.357485 0.367580 0.815525
Si Si2 0.687938 0.522074 0.667188
Si Si3 0.907176 0.629980 0.723833
Si Si4 0.951319 0.980548 0.278738
O O1 0.357528 0.250000 0.750000
O O2 0.312674 0.422312 0.623370
O O3 0.416935 0.416570 0.735424
O O4 0.343543 0.402142 0.123355
O O5 0.750000 0.500000 0.759632
O O6 0.651103 0.420514 0.635247
O O7 0.910167 0.750000 0.750000
O O8 0.952871 0.579453 0.512304
O O9 0.913580 0.591614 0.033464
O O10 0.000000 0.000000 0.500000
#
# Coordination Sequence:
#
# PCOD9410677 Si02
#       4
#     8   8   8   8
#     4  10  21  37  58  85 116 150 193 240 286 342
#     4  10  21  38  58  85 118 152 192 238 287 343
#     4  10  21  37  57  84 116 150 192 239 287 343
#     4  10  21  38  58  82 114 150 192 241 290 344
#
# _framework density 20.605501
#
# number of rings (size 3 to 8) (size 9 to 14) (size 15 to 20)
#    0.000    2.000    0.000    3.000    0.000    3.000 
#    0.000    7.500    0.000    0.000    0.000    0.000 
#    0.000    0.000    0.000    0.000    0.000    0.000 
#
# Total GULP energy -178255.576501 kJ/mol
# GULP energy per Si atom -5570.486766 kJ/mol
# Density = 2.055860 g / cm^3
# Si number density = 20.605501 Si / 1000 Ang^3
#
#
#
# Elastic Constant Matrix: (Units=GPa)
#
#
# Indices 1 2 3 4 5 6 
#
# 1 67.4939 28.7237 7.3000 0.0000 0.0000 0.0000
# 2 28.7237 124.7163 21.8957 0.0000 0.0000 0.0000
# 3 7.3000 21.8957 114.6760 0.0000 0.0000 0.0000
# 4 0.0000 0.0000 0.0000 20.5505 0.0000 0.0000
# 5 0.0000 0.0000 0.0000 0.0000 28.9891 0.0000
# 6 0.0000 0.0000 0.0000 0.0000 0.0000 4.4154
#
#
#
# Elastic Compliance Matrix: (Units=1/GPa)
#
#
# Indices 1 2 3 4 5 6 
#
# 1 0.016439 -0.003727 -0.000335 0.000000 0.000000 0.000000
# 2 -0.003727 0.009141 -0.001508 0.000000 0.000000 0.000000
# 3 -0.000335 -0.001508 0.009029 0.000000 0.000000 0.000000
# 4 0.000000 0.000000 0.000000 0.048661 0.000000 0.000000
# 5 0.000000 0.000000 0.000000 0.000000 0.034496 0.000000
# 6 0.000000 0.000000 0.000000 0.000000 0.000000 0.226481
#
#
# Mechanical properties :
#
#
# Convention : Reuss Voigt Hill
#
# Bulk Modulus (GPa) = 42.60913 46.96946 44.78929
# Shear Modulus (GPa) = 13.76614 27.38879 20.57747
#
# Velocity S-wave (km/s) = 2.58753 3.64977 3.16355
# Velocity P-wave (km/s) = 5.44523 6.37222 5.92688
#
# Compressibility (1/GPa) = 0.02346915
#
# Stress axis : x y z
#
# Youngs Moduli (GPa) = 60.83251 109.39241 110.74819
#
# Poissons Ratio (x) = 0.40773 0.03708
# Poissons Ratio (y) = 0.22674 0.16703
# Poissons Ratio (z) = 0.02037 0.16498
#
# Static dielectric constant tensor:
#      x y z
#    x 1.802810 0.000000 0.000000 
#    y 0.000000 1.718670 0.000000 
#    z 0.000000 0.000000 1.762330 
# 
# From -- ./inp_files/3906.got.cif
#   From: 2010.05.17/outbox.cif.g08.bks.cpg/sg52_2_cif.got.tgz:3906.got - 2010.06.03 12:15:38.
