data_PCOD9410650
_publ_section_title
;
Structure prediction by ZEFSAII (Michael W. Deem and Ramdas Pophale) SiO2 
 PCOD9410650
Probable space group: P N N A
;
_chemical_formula_sum "Si O2"
_cell_formula_units_Z 48
_cell_length_a 9.415740
_cell_length_b 15.934638
_cell_length_c 13.627693
_cell_angle_alpha 90.000000
_cell_angle_beta 90.000000
_cell_angle_gamma 90.000000
_cell_volume 2044.650113
_symmetry_space_group_name_H-M "P N N A"
_symmetry_group_IT_number 52
_symmetry_cell_setting 'orthorhombic'
loop_
_space_group_symop_operation_xyz
x,y,z
1/2-x,-y,z
x,1/2-y,1/2-z
1/2-x,1/2+y,1/2-z
-x,-y,-z
1/2+x,y,-z
-x,1/2+y,1/2+z
1/2+x,1/2-y,1/2+z
loop_
_atom_site_type_symbol
_atom_site_label
_atom_site_fract_x
_atom_site_fract_y
_atom_site_fract_z
Si Si1 0.170400 0.085622 0.977068
Si Si2 0.425588 0.304855 0.436209
Si Si3 0.770610 0.689027 0.818724
Si Si4 0.960694 0.864716 0.513513
Si Si5 0.876380 0.551559 0.679509
Si Si6 0.086909 0.495602 0.845161
O O1 0.295227 0.148172 0.011355
O O2 0.066298 0.083495 0.075582
O O3 0.250000 0.000000 0.941234
O O4 0.055475 0.132920 0.907107
O O5 0.355058 0.252407 0.346832
O O6 0.482664 0.228927 0.502448
O O7 0.870542 0.750000 0.750000
O O8 0.778524 0.608782 0.749769
O O9 0.818902 0.650620 0.922761
O O10 0.942389 0.912140 0.409840
O O11 0.053729 0.926834 0.580897
O O12 0.750000 0.500000 0.631032
O O13 0.988063 0.509509 0.751045
O O14 0.250000 0.500000 0.816868
#
# Coordination Sequence:
#
# PCOD9410650 Si02
#       6
#     8   8   8   8   8   8
#     4  11  25  43  67  93 126 177 232 287 337 396
#     4  12  21  41  67  92 125 172 230 273 331 403
#     4  11  20  37  64  96 130 172 222 266 332 407
#     4  10  21  36  64  99 140 170 218 268 338 409
#     4  10  21  41  63  92 135 175 218 271 342 407
#     4  10  21  37  64 103 139 171 210 276 337 406
#
# _framework density 23.475897
#
# number of rings (size 3 to 8) (size 9 to 14) (size 15 to 20)
#    0.000    1.333    3.333    2.500    0.000    4.667 
#    0.000    4.167    0.000    1.000    0.000    0.000 
#    0.000    0.000    0.000    0.000    0.000    0.000 
#
# Total GULP energy -267204.193852 kJ/mol
# GULP energy per Si atom -5566.754039 kJ/mol
# Density = 2.342247 g / cm^3
# Si number density = 23.475897 Si / 1000 Ang^3
#
#
#
# Elastic Constant Matrix: (Units=GPa)
#
#
# Indices 1 2 3 4 5 6 
#
# 1 121.8315 44.0452 24.0359 0.0000 0.0000 0.0000
# 2 44.0452 110.0716 22.2230 0.0000 0.0000 0.0000
# 3 24.0359 22.2230 70.5338 0.0000 0.0000 0.0000
# 4 0.0000 0.0000 0.0000 3.9783 0.0000 0.0000
# 5 0.0000 0.0000 0.0000 0.0000 19.8447 0.0000
# 6 0.0000 0.0000 0.0000 0.0000 0.0000 23.3060
#
#
#
# Elastic Compliance Matrix: (Units=1/GPa)
#
#
# Indices 1 2 3 4 5 6 
#
# 1 0.009927 -0.003513 -0.002276 0.000000 0.000000 0.000000
# 2 -0.003513 0.010945 -0.002251 0.000000 0.000000 0.000000
# 3 -0.002276 -0.002251 0.015663 0.000000 0.000000 0.000000
# 4 0.000000 0.000000 0.000000 0.251364 0.000000 0.000000
# 5 0.000000 0.000000 0.000000 0.000000 0.050391 0.000000
# 6 0.000000 0.000000 0.000000 0.000000 0.000000 0.042907
#
#
# Mechanical properties :
#
#
# Convention : Reuss Voigt Hill
#
# Bulk Modulus (GPa) = 48.88965 53.67166 51.28066
# Shear Modulus (GPa) = 12.37329 23.56799 17.97064
#
# Velocity S-wave (km/s) = 2.29828 3.17191 2.76976
# Velocity P-wave (km/s) = 5.28332 6.02717 5.66746
#
# Compressibility (1/GPa) = 0.02045423
#
# Stress axis : x y z
#
# Youngs Moduli (GPa) = 100.73475 91.36429 63.84648
#
# Poissons Ratio (x) = 0.32094 0.14532
# Poissons Ratio (y) = 0.35386 0.14375
# Poissons Ratio (z) = 0.22928 0.20570
#
# Static dielectric constant tensor:
#      x y z
#    x 2.025410 0.000000 0.000000 
#    y 0.000000 2.632890 0.000000 
#    z 0.000000 0.000000 2.121220 
# 
# From -- ./inp_files/24726.got.cif
#   From: 2010.05.17/outbox.cif.g08.bks.cpg/sg52_13_cif.got.tgz:24726.got - 2010.06.03 12:15:38.
