data_PCOD9410726
_publ_section_title
;
Structure prediction by ZEFSAII (Michael W. Deem and Ramdas Pophale) SiO2 
 PCOD9410726
Probable space group: P N N A
;
_chemical_formula_sum "Si O2"
_cell_formula_units_Z 56
_cell_length_a 13.253187
_cell_length_b 19.762738
_cell_length_c 11.327407
_cell_angle_alpha 90.000000
_cell_angle_beta 90.000000
_cell_angle_gamma 90.000000
_cell_volume 2966.866086
_symmetry_space_group_name_H-M "P N N A"
_symmetry_group_IT_number 52
_symmetry_cell_setting 'orthorhombic'
loop_
_space_group_symop_operation_xyz
x,y,z
1/2-x,-y,z
x,1/2-y,1/2-z
1/2-x,1/2+y,1/2-z
-x,-y,-z
1/2+x,y,-z
-x,1/2+y,1/2+z
1/2+x,1/2-y,1/2+z
loop_
_atom_site_type_symbol
_atom_site_label
_atom_site_fract_x
_atom_site_fract_y
_atom_site_fract_z
Si Si1 0.281686 0.243885 0.389249
Si Si2 0.446480 0.744638 0.392054
Si Si3 0.059108 0.642019 0.041693
Si Si4 0.445525 0.593988 0.735908
Si Si5 0.424343 0.136913 0.021587
Si Si6 0.728567 0.580220 0.335085
Si Si7 0.140455 0.531437 0.884130
O O1 0.272614 0.250000 0.250000
O O2 0.332284 0.173970 0.428285
O O3 0.359279 0.302199 0.424152
O O4 0.168969 0.252435 0.435633
O O5 0.452245 0.750000 0.250000
O O6 0.504649 0.808012 0.449976
O O7 0.494695 0.674837 0.438643
O O8 0.994111 0.640084 0.162047
O O9 0.078432 0.568126 0.986199
O O10 0.522181 0.593862 0.625134
O O11 0.337209 0.615257 0.680934
O O12 0.420370 0.524839 0.808403
O O13 0.344055 0.098325 0.941210
O O14 0.750000 0.500000 0.344919
O O15 0.670191 0.588828 0.211479
O O16 0.250000 0.500000 0.922174
#
# Coordination Sequence:
#
# PCOD9410726 Si02
#       7
#     8   8   8   8   8   8   8
#     4  10  21  38  55  85 120 151 198 252 297 361
#     4  10  23  37  59  89 119 164 203 256 311 366
#     4  11  21  38  64  85 123 164 201 255 311 374
#     4  10  21  37  61  90 116 163 203 252 310 372
#     4  11  20  39  61  85 121 158 203 254 309 368
#     4   9  21  38  59  87 121 154 203 255 295 368
#     4   9  21  38  59  89 125 154 204 254 302 369
#
# _framework density 18.875136999999999
#
# number of rings (size 3 to 8) (size 9 to 14) (size 15 to 20)
#    0.000    2.286    1.429    2.143    4.000    2.286 
#    0.000    3.571    0.000    0.000    0.000    0.000 
#    0.000    0.000    0.000    0.000    0.000    0.000 
#
# Total GULP energy -311950.791233 kJ/mol
# GULP energy per Si atom -5570.549843 kJ/mol
# Density = 1.883218 g / cm^3
# Si number density = 18.875137 Si / 1000 Ang^3
#
#
#
# Elastic Constant Matrix: (Units=GPa)
#
#
# Indices 1 2 3 4 5 6 
#
# 1 120.1860 36.0809 59.7107 0.0000 0.0000 0.0000
# 2 36.0809 49.4579 23.0326 0.0000 0.0000 0.0000
# 3 59.7107 23.0326 94.7854 0.0000 0.0000 0.0000
# 4 0.0000 0.0000 0.0000 17.0538 0.0000 0.0000
# 5 0.0000 0.0000 0.0000 0.0000 18.6215 0.0000
# 6 0.0000 0.0000 0.0000 0.0000 0.0000 8.5652
#
#
#
# Elastic Compliance Matrix: (Units=1/GPa)
#
#
# Indices 1 2 3 4 5 6 
#
# 1 0.013896 -0.006834 -0.007093 0.000000 0.000000 0.000000
# 2 -0.006834 0.026160 -0.002052 0.000000 0.000000 0.000000
# 3 -0.007093 -0.002052 0.015517 0.000000 0.000000 0.000000
# 4 0.000000 0.000000 0.000000 0.058638 0.000000 0.000000
# 5 0.000000 0.000000 0.000000 0.000000 0.053701 0.000000
# 6 0.000000 0.000000 0.000000 0.000000 0.000000 0.116752
#
#
# Mechanical properties :
#
#
# Convention : Reuss Voigt Hill
#
# Bulk Modulus (GPa) = 42.34524 55.78640 49.06582
# Shear Modulus (GPa) = 15.40854 18.55510 16.98182
#
# Velocity S-wave (km/s) = 2.86027 3.13876 3.00274
# Velocity P-wave (km/s) = 5.77852 6.53876 6.17036
#
# Compressibility (1/GPa) = 0.02361541
#
# Stress axis : x y z
#
# Youngs Moduli (GPa) = 71.96187 38.22564 64.44477
#
# Poissons Ratio (x) = 0.26125 0.45713
# Poissons Ratio (y) = 0.49181 0.13221
# Poissons Ratio (z) = 0.51045 0.07842
#
# Static dielectric constant tensor:
#      x y z
#    x 1.688100 0.000000 0.000000 
#    y 0.000000 1.662330 0.000000 
#    z 0.000000 0.000000 1.708830 
# 
# From -- ./inp_files/18334.got.cif
#   From: 2010.05.17/outbox.cif.g08.bks.cpg/sg52_10_cif.got.tgz:18334.got - 2010.06.03 12:15:38.
