data_PCOD9410630
_publ_section_title
;
Structure prediction by ZEFSAII (Michael W. Deem and Ramdas Pophale) SiO2 
 PCOD9410630
Probable space group: P N N A
;
_chemical_formula_sum "Si O2"
_cell_formula_units_Z 56
_cell_length_a 13.445743
_cell_length_b 8.605025
_cell_length_c 22.816064
_cell_angle_alpha 90.000000
_cell_angle_beta 90.000000
_cell_angle_gamma 90.000000
_cell_volume 2639.840386
_symmetry_space_group_name_H-M "P N N A"
_symmetry_group_IT_number 52
_symmetry_cell_setting 'orthorhombic'
loop_
_space_group_symop_operation_xyz
x,y,z
1/2-x,-y,z
x,1/2-y,1/2-z
1/2-x,1/2+y,1/2-z
-x,-y,-z
1/2+x,y,-z
-x,1/2+y,1/2+z
1/2+x,1/2-y,1/2+z
loop_
_atom_site_type_symbol
_atom_site_label
_atom_site_fract_x
_atom_site_fract_y
_atom_site_fract_z
Si Si1 0.233567 0.758037 0.044049
Si Si2 0.941301 0.425642 0.726982
Si Si3 0.888351 0.824343 0.141557
Si Si4 0.750000 0.500000 0.649914
Si Si5 0.750000 0.500000 0.448354
Si Si6 0.092465 0.462812 0.041385
Si Si7 0.297151 0.160897 0.698683
Si Si8 0.025890 0.986350 0.648549
O O1 0.246381 0.853125 0.104754
O O2 0.155695 0.619278 0.050260
O O3 0.334665 0.674489 0.022263
O O4 0.203159 0.873920 0.992351
O O5 0.917874 0.250000 0.750000
O O6 0.846842 0.493155 0.692099
O O7 0.033640 0.415562 0.681841
O O8 0.980696 0.506360 0.786292
O O9 0.837405 0.924109 0.090658
O O10 0.793486 0.766526 0.178676
O O11 0.944584 0.661222 0.127433
O O12 0.051354 0.415373 0.104401
O O13 0.000000 0.500000 0.000000
O O14 0.352076 0.250000 0.750000
O O15 0.250000 0.000000 0.720185
O O16 0.373118 0.112560 0.648688
#
# Coordination Sequence:
#
# PCOD9410630 Si02
#       8
#     8   8   8   4   4   8   8   8
#     4  10  25  45  65  99 125 173 235 274 337 400
#     4  10  22  41  64  99 137 173 213 268 335 391
#     4  10  21  38  64  95 138 169 207 268 339 391
#     4  11  24  44  72  94 136 177 228 288 326 383
#     4  11  24  40  70  96 130 173 226 276 336 403
#     4  11  24  45  70  90 134 175 217 286 337 394
#     4  10  21  36  59  92 136 173 209 259 322 400
#     4  10  22  39  63  98 130 174 221 257 329 408
#
# _framework density 21.213403
#
# number of rings (size 3 to 8) (size 9 to 14) (size 15 to 20)
#    0.000    1.714    0.000    4.714    5.000    4.571 
#    0.000    3.571    0.000    0.000    0.000    0.000 
#    0.000    0.000    0.000    0.000    0.000    0.000 
#
# Total GULP energy -312784.144259 kJ/mol
# GULP energy per Si atom -5585.431147 kJ/mol
# Density = 2.116512 g / cm^3
# Si number density = 21.213403 Si / 1000 Ang^3
#
#
#
# Elastic Constant Matrix: (Units=GPa)
#
#
# Indices 1 2 3 4 5 6 
#
# 1 121.2812 39.0676 54.0355 0.0000 0.0000 0.0000
# 2 39.0676 58.5081 32.6160 0.0000 0.0000 0.0000
# 3 54.0355 32.6160 90.8651 0.0000 0.0000 0.0000
# 4 0.0000 0.0000 0.0000 22.9723 0.0000 0.0000
# 5 0.0000 0.0000 0.0000 0.0000 36.1822 0.0000
# 6 0.0000 0.0000 0.0000 0.0000 0.0000 17.0172
#
#
#
# Elastic Compliance Matrix: (Units=1/GPa)
#
#
# Indices 1 2 3 4 5 6 
#
# 1 0.012364 -0.005197 -0.005487 0.000000 0.000000 0.000000
# 2 -0.005197 0.023552 -0.005363 0.000000 0.000000 0.000000
# 3 -0.005487 -0.005363 0.016194 0.000000 0.000000 0.000000
# 4 0.000000 0.000000 0.000000 0.043531 0.000000 0.000000
# 5 0.000000 0.000000 0.000000 0.000000 0.027638 0.000000
# 6 0.000000 0.000000 0.000000 0.000000 0.000000 0.058764
#
#
# Mechanical properties :
#
#
# Convention : Reuss Voigt Hill
#
# Bulk Modulus (GPa) = 49.96412 58.01028 53.98720
# Shear Modulus (GPa) = 22.64402 24.89670 23.77036
#
# Velocity S-wave (km/s) = 3.27071 3.42955 3.35107
# Velocity P-wave (km/s) = 6.15367 6.56413 6.36221
#
# Compressibility (1/GPa) = 0.02001436
#
# Stress axis : x y z
#
# Youngs Moduli (GPa) = 80.87899 42.45978 61.75263
#
# Poissons Ratio (x) = 0.22066 0.33885
# Poissons Ratio (y) = 0.42033 0.33120
# Poissons Ratio (z) = 0.44380 0.22773
#
# Static dielectric constant tensor:
#      x y z
#    x 1.767430 0.000000 0.000000 
#    y 0.000000 1.789100 0.000000 
#    z 0.000000 0.000000 1.768330 
# 
# From -- ./inp_files/37387.got.cif
#   From: 2010.05.17/outbox.cif.g08.bks.cpg/sg52_19_cif.got.tgz:37387.got - 2010.06.03 12:15:38.
