data_PCOD9410517
_publ_section_title
;
Structure prediction by ZEFSAII (Michael W. Deem and Ramdas Pophale) SiO2 
 PCOD9410517
Probable space group: P N N A
;
_chemical_formula_sum "Si O2"
_cell_formula_units_Z 48
_cell_length_a 5.519964
_cell_length_b 19.625620
_cell_length_c 17.885197
_cell_angle_alpha 90.000000
_cell_angle_beta 90.000000
_cell_angle_gamma 90.000000
_cell_volume 1937.551965
_symmetry_space_group_name_H-M "P N N A"
_symmetry_group_IT_number 52
_symmetry_cell_setting 'orthorhombic'
loop_
_space_group_symop_operation_xyz
x,y,z
1/2-x,-y,z
x,1/2-y,1/2-z
1/2-x,1/2+y,1/2-z
-x,-y,-z
1/2+x,y,-z
-x,1/2+y,1/2+z
1/2+x,1/2-y,1/2+z
loop_
_atom_site_type_symbol
_atom_site_label
_atom_site_fract_x
_atom_site_fract_y
_atom_site_fract_z
Si Si1 0.724231 0.684207 0.206709
Si Si2 0.210879 0.580412 0.355849
Si Si3 0.223419 0.868015 0.316176
Si Si4 0.209896 0.641772 0.631790
Si Si5 0.352863 0.747267 0.972487
Si Si6 0.137214 0.089118 0.470493
O O1 0.815058 0.750000 0.250000
O O2 0.443967 0.687180 0.180865
O O3 0.699047 0.633784 0.278461
O O4 0.953870 0.657093 0.160347
O O5 0.250000 0.500000 0.358026
O O6 0.203496 0.604453 0.268091
O O7 0.447192 0.615564 0.393022
O O8 0.951286 0.601039 0.390735
O O9 0.311112 0.916692 0.382359
O O10 0.253706 0.720408 0.605410
O O11 0.627804 0.773053 0.977377
O O12 0.373376 0.669005 0.001337
O O13 0.373496 0.062277 0.511549
#
# Coordination Sequence:
#
# PCOD9410517 Si02
#       6
#     8   8   8   8   8   8
#     4  10  21  31  53  79 116 145 171 236 285 335
#     4  10  21  40  63  82 106 144 189 250 291 310
#     4  10  21  36  53  84 111 144 191 223 280 336
#     4  10  21  36  55  86 110 143 190 230 282 338
#     4  10  21  33  53  76 114 154 182 213 269 337
#     4  10  21  34  53  77 115 160 181 212 267 340
#
# _framework density 24.773530000000001
#
# number of rings (size 3 to 8) (size 9 to 14) (size 15 to 20)
#    0.000    2.000    0.000    3.000    9.333    0.000 
#    0.000    0.000    0.000   11.000    0.000    0.000 
#    0.000    0.000    0.000    0.000    0.000    0.000 
#
# Total GULP energy -267293.095455 kJ/mol
# GULP energy per Si atom -5568.606155 kJ/mol
# Density = 2.471714 g / cm^3
# Si number density = 24.773530 Si / 1000 Ang^3
#
#
#
# Elastic Constant Matrix: (Units=GPa)
#
#
# Indices 1 2 3 4 5 6 
#
# 1 199.8539 24.2064 6.1883 0.0000 0.0000 0.0000
# 2 24.2064 53.6165 5.7923 0.0000 0.0000 0.0000
# 3 6.1883 5.7923 49.7569 0.0000 0.0000 0.0000
# 4 0.0000 0.0000 0.0000 -35.4653 0.0000 0.0000
# 5 0.0000 0.0000 0.0000 0.0000 33.3387 0.0000
# 6 0.0000 0.0000 0.0000 0.0000 0.0000 32.8838
#
#
#
# Elastic Compliance Matrix: (Units=1/GPa)
#
#
# Indices 1 2 3 4 5 6 
#
# 1 0.005300 -0.002351 -0.000385 0.000000 0.000000 0.000000
# 2 -0.002351 0.019932 -0.002028 0.000000 0.000000 0.000000
# 3 -0.000385 -0.002028 0.020382 0.000000 0.000000 0.000000
# 4 0.000000 0.000000 0.000000 -0.028197 0.000000 0.000000
# 5 0.000000 0.000000 0.000000 0.000000 0.029995 0.000000
# 6 0.000000 0.000000 0.000000 0.000000 0.000000 0.030410
#
#
# Mechanical properties :
#
#
# Convention : Reuss Voigt Hill
#
# Bulk Modulus (GPa) = 27.71282 41.73347 34.72315
# Shear Modulus (GPa) = 50.31194 23.95411 37.13302
#
# Velocity S-wave (km/s) = 4.51141 3.11291 3.87576
# Velocity P-wave (km/s) = 6.19257 5.45920 5.83741
#
# Compressibility (1/GPa) = 0.03608438
#
# Stress axis : x y z
#
# Youngs Moduli (GPa) = 188.66545 50.17152 49.06356
#
# Poissons Ratio (x) = 0.11797 0.01891
# Poissons Ratio (y) = 0.44362 0.09949
# Poissons Ratio (z) = 0.07273 0.10174
#
# Static dielectric constant tensor:
#      x y z
#    x 1.980410 0.000000 0.000000 
#    y 0.000000 2.203930 0.000000 
#    z 0.000000 0.000000 2.113260 
# 
# From -- ./inp_files/30267.got.cif
#   From: 2010.05.17/outbox.cif.g08.bks.cpg/sg52_16_cif.got.tgz:30267.got - 2010.06.03 12:15:38.
