data_PCOD9410801
_publ_section_title
;
Structure prediction by ZEFSAII (Michael W. Deem and Ramdas Pophale) SiO2 
 PCOD9410801
Probable space group: P N N A
;
_chemical_formula_sum "Si O2"
_cell_formula_units_Z 32
_cell_length_a 11.610170
_cell_length_b 5.029147
_cell_length_c 28.345233
_cell_angle_alpha 90.000000
_cell_angle_beta 90.000000
_cell_angle_gamma 90.000000
_cell_volume 1655.056942
_symmetry_space_group_name_H-M "P N N A"
_symmetry_group_IT_number 52
_symmetry_cell_setting 'orthorhombic'
loop_
_space_group_symop_operation_xyz
x,y,z
1/2-x,-y,z
x,1/2-y,1/2-z
1/2-x,1/2+y,1/2-z
-x,-y,-z
1/2+x,y,-z
-x,1/2+y,1/2+z
1/2+x,1/2-y,1/2+z
loop_
_atom_site_type_symbol
_atom_site_label
_atom_site_fract_x
_atom_site_fract_y
_atom_site_fract_z
Si Si1 0.327287 0.243131 0.527011
Si Si2 0.002208 0.839264 0.609764
Si Si3 0.833392 0.253600 0.195246
Si Si4 0.372391 0.158373 0.075581
O O1 0.250000 0.500000 0.540559
O O2 0.398947 0.124471 0.570212
O O3 0.397969 0.317608 0.480216
O O4 0.250000 0.000000 0.508863
O O5 0.060996 0.814960 0.660583
O O6 0.957984 0.546450 0.599025
O O7 0.902282 0.058384 0.600058
O O8 0.750000 0.500000 0.189443
O O9 0.870866 0.250000 0.250000
O O10 0.750000 0.000000 0.185070
O O11 0.250000 0.000000 0.078920
#
# Coordination Sequence:
#
# PCOD9410801 Si02
#       4
#     8   8   8   8
#     4  11  21  35  54  82 115 145 183 228 277 331
#     4  12  21  36  59  81 110 150 188 222 276 334
#     4  10  21  38  60  89 117 138 171 226 288 345
#     4  11  23  37  52  78 113 151 192 230 264 312
#
# _framework density 19.334681
#
# number of rings (size 3 to 8) (size 9 to 14) (size 15 to 20)
#    0.000    1.000    0.000    9.750    0.000    0.000 
#    0.000    0.000    0.000    3.000    0.000    1.750 
#    0.000    0.000    0.000    0.000    0.000    0.000 
#
# Total GULP energy -178457.960091 kJ/mol
# GULP energy per Si atom -5576.811253 kJ/mol
# Density = 1.929067 g / cm^3
# Si number density = 19.334681 Si / 1000 Ang^3
#
#
#
# Elastic Constant Matrix: (Units=GPa)
#
#
# Indices 1 2 3 4 5 6 
#
# 1 43.0707 14.8828 40.4472 0.0000 0.0000 0.0000
# 2 14.8828 120.3502 24.6333 0.0000 0.0000 0.0000
# 3 40.4472 24.6333 74.3647 0.0000 0.0000 0.0000
# 4 0.0000 0.0000 0.0000 35.2785 0.0000 0.0000
# 5 0.0000 0.0000 0.0000 0.0000 38.7546 0.0000
# 6 0.0000 0.0000 0.0000 0.0000 0.0000 144.4265
#
#
#
# Elastic Compliance Matrix: (Units=1/GPa)
#
#
# Indices 1 2 3 4 5 6 
#
# 1 0.047502 -0.000629 -0.025628 0.000000 0.000000 0.000000
# 2 -0.000629 0.008922 -0.002613 0.000000 0.000000 0.000000
# 3 -0.025628 -0.002613 0.028252 0.000000 0.000000 0.000000
# 4 0.000000 0.000000 0.000000 0.028346 0.000000 0.000000
# 5 0.000000 0.000000 0.000000 0.000000 0.025803 0.000000
# 6 0.000000 0.000000 0.000000 0.000000 0.000000 0.006924
#
#
# Mechanical properties :
#
#
# Convention : Reuss Voigt Hill
#
# Bulk Modulus (GPa) = 37.12586 44.19025 40.65805
# Shear Modulus (GPa) = 23.53288 54.21340 38.87314
#
# Velocity S-wave (km/s) = 3.49253 5.30097 4.48877
# Velocity P-wave (km/s) = 5.95878 7.76995 6.92384
#
# Compressibility (1/GPa) = 0.02693540
#
# Stress axis : x y z
#
# Youngs Moduli (GPa) = 21.05167 112.08581 35.39535
#
# Poissons Ratio (x) = 0.07046 0.90712
# Poissons Ratio (y) = 0.01323 0.09250
# Poissons Ratio (z) = 0.53952 0.29293
#
# Static dielectric constant tensor:
#      x y z
#    x 1.722530 0.000000 0.000000 
#    y 0.000000 1.684580 0.000000 
#    z 0.000000 0.000000 2.304640 
# 
# From -- ./inp_files/44001.got.cif
#   From: 2010.05.17/outbox.cif.g08.bks.cpg/sg52_23_cif.got.tgz:44001.got - 2010.06.03 12:15:38.
