data_PCOD9410195
_publ_section_title
;
Structure prediction by ZEFSAII (Michael W. Deem and Ramdas Pophale) SiO2 
 PCOD9410195
Probable space group: P N N A
;
_chemical_formula_sum "Si O2"
_cell_formula_units_Z 64
_cell_length_a 18.082048
_cell_length_b 20.617992
_cell_length_c 8.685424
_cell_angle_alpha 90.000000
_cell_angle_beta 90.000000
_cell_angle_gamma 90.000000
_cell_volume 3238.060874
_symmetry_space_group_name_H-M "P N N A"
_symmetry_group_IT_number 52
_symmetry_cell_setting 'orthorhombic'
loop_
_space_group_symop_operation_xyz
x,y,z
1/2-x,-y,z
x,1/2-y,1/2-z
1/2-x,1/2+y,1/2-z
-x,-y,-z
1/2+x,y,-z
-x,1/2+y,1/2+z
1/2+x,1/2-y,1/2+z
loop_
_atom_site_type_symbol
_atom_site_label
_atom_site_fract_x
_atom_site_fract_y
_atom_site_fract_z
Si Si1 0.585639 0.744998 0.566595
Si Si2 0.337011 0.993976 0.140838
Si Si3 0.673936 0.138097 0.031079
Si Si4 0.843087 0.377390 0.448360
Si Si5 0.168424 0.108710 0.603866
Si Si6 0.661783 0.636041 0.082941
Si Si7 0.914696 0.488231 0.959914
Si Si8 0.083002 0.236796 0.565280
O O1 0.594891 0.750000 0.750000
O O2 0.598470 0.670664 0.522814
O O3 0.641636 0.792598 0.477567
O O4 0.502527 0.764505 0.521377
O O5 0.391850 0.003061 0.282660
O O6 0.250000 0.000000 0.189265
O O7 0.348700 0.050017 0.013384
O O8 0.348763 0.923477 0.068903
O O9 0.761357 0.148247 0.006691
O O10 0.666032 0.118086 0.211135
O O11 0.627718 0.202520 0.996855
O O12 0.849069 0.371632 0.265413
O O13 0.253133 0.117122 0.551786
O O14 0.121621 0.168296 0.534790
O O15 0.134384 0.040368 0.554391
O O16 0.608801 0.584349 0.002676
O O17 0.000000 0.500000 0.000000
O O18 0.085458 0.250000 0.750000
#
# Coordination Sequence:
#
# PCOD9410195 Si02
#       8
#     8   8   8   8   8   8   8   8
#     4  11  22  36  57  87 122 156 190 238 298 352
#     4  10  21  39  61  87 118 150 192 244 293 345
#     4   9  19  38  63  87 112 150 199 243 286 340
#     4  10  21  38  62  88 113 151 200 245 289 344
#     4  10  20  39  63  84 111 152 198 240 285 345
#     4  11  22  39  62  85 113 153 200 243 286 347
#     4  12  25  39  57  86 121 154 189 235 296 356
#     4   9  19  36  58  84 115 150 188 234 290 347
#
# _framework density 19.764914999999998
#
# number of rings (size 3 to 8) (size 9 to 14) (size 15 to 20)
#    0.000    1.750    0.000    4.500    0.000    8.000 
#    0.000    3.750    0.000    0.000    0.000    0.000 
#    0.000    0.000    0.000    0.000    0.000    0.000 
#
# Total GULP energy -357665.391808 kJ/mol
# GULP energy per Si atom -5588.521747 kJ/mol
# Density = 1.971993 g / cm^3
# Si number density = 19.764915 Si / 1000 Ang^3
#
#
#
# Elastic Constant Matrix: (Units=GPa)
#
#
# Indices 1 2 3 4 5 6 
#
# 1 61.1447 -1.8016 21.3260 0.0000 0.0000 0.0000
# 2 -1.8016 57.0254 0.9853 0.0000 0.0000 0.0000
# 3 21.3260 0.9853 43.7356 0.0000 0.0000 0.0000
# 4 0.0000 0.0000 0.0000 26.7740 0.0000 0.0000
# 5 0.0000 0.0000 0.0000 0.0000 16.2011 0.0000
# 6 0.0000 0.0000 0.0000 0.0000 0.0000 20.2429
#
#
#
# Elastic Compliance Matrix: (Units=1/GPa)
#
#
# Indices 1 2 3 4 5 6 
#
# 1 0.019742 0.000790 -0.009644 0.000000 0.000000 0.000000
# 2 0.000790 0.017575 -0.000781 0.000000 0.000000 0.000000
# 3 -0.009644 -0.000781 0.027585 0.000000 0.000000 0.000000
# 4 0.000000 0.000000 0.000000 0.037350 0.000000 0.000000
# 5 0.000000 0.000000 0.000000 0.000000 0.061724 0.000000
# 6 0.000000 0.000000 0.000000 0.000000 0.000000 0.049400
#
#
# Mechanical properties :
#
#
# Convention : Reuss Voigt Hill
#
# Bulk Modulus (GPa) = 21.91497 22.54723 22.23110
# Shear Modulus (GPa) = 20.17310 22.07002 21.12156
#
# Velocity S-wave (km/s) = 3.19823 3.34522 3.27255
# Velocity P-wave (km/s) = 4.97495 5.13353 5.05486
#
# Compressibility (1/GPa) = 0.04563091
#
# Stress axis : x y z
#
# Youngs Moduli (GPa) = 50.65457 56.90061 36.25181
#
# Poissons Ratio (x) = -0.04497 0.34961
# Poissons Ratio (y) = -0.04003 0.02832
# Poissons Ratio (z) = 0.48851 0.04446
#
# Static dielectric constant tensor:
#      x y z
#    x 1.685870 0.000000 0.000000 
#    y 0.000000 1.657120 0.000000 
#    z 0.000000 0.000000 1.707370 
# 
# From -- ./inp_files/12572.got.cif
#   From: 2010.05.17/outbox.cif.g08.bks.cpg/sg52_7_cif.got.tgz:12572.got - 2010.06.03 12:15:38.
