data_PCOD9410349
_publ_section_title
;
Structure prediction by ZEFSAII (Michael W. Deem and Ramdas Pophale) SiO2 
 PCOD9410349
Probable space group: P N N A
;
_chemical_formula_sum "Si O2"
_cell_formula_units_Z 48
_cell_length_a 8.735524
_cell_length_b 17.063667
_cell_length_c 15.968243
_cell_angle_alpha 90.000000
_cell_angle_beta 90.000000
_cell_angle_gamma 90.000000
_cell_volume 2380.227461
_symmetry_space_group_name_H-M "P N N A"
_symmetry_group_IT_number 52
_symmetry_cell_setting 'orthorhombic'
loop_
_space_group_symop_operation_xyz
x,y,z
1/2-x,-y,z
x,1/2-y,1/2-z
1/2-x,1/2+y,1/2-z
-x,-y,-z
1/2+x,y,-z
-x,1/2+y,1/2+z
1/2+x,1/2-y,1/2+z
loop_
_atom_site_type_symbol
_atom_site_label
_atom_site_fract_x
_atom_site_fract_y
_atom_site_fract_z
Si Si1 0.953177 0.230661 0.508808
Si Si2 0.118996 0.822229 0.308068
Si Si3 0.750000 0.000000 0.131910
Si Si4 0.197085 0.327727 0.581827
Si Si5 0.462933 0.643739 0.155808
Si Si6 0.291903 0.250000 0.750000
Si Si7 0.433604 0.491625 0.258852
O O1 0.932396 0.187414 0.596439
O O2 0.803387 0.265802 0.466640
O O3 0.040239 0.310346 0.535061
O O4 0.024574 0.171628 0.440370
O O5 0.076814 0.750000 0.250000
O O6 0.302546 0.824660 0.310190
O O7 0.057494 0.902821 0.271521
O O8 0.758429 0.918428 0.081324
O O9 0.584795 0.995734 0.182103
O O10 0.205238 0.297214 0.677327
O O11 0.600194 0.686271 0.204495
O O12 0.456787 0.552665 0.181975
O O13 0.250000 0.500000 0.288107
#
# Coordination Sequence:
#
# PCOD9410349 Si02
#       7
#     8   8   4   8   8   4   8
#     4  11  24  41  65 100 133 178 224 275 343 410
#     4  11  22  40  68  95 132 176 228 276 336 418
#     4  12  24  46  68 102 142 174 232 292 330 408
#     4  11  25  42  67  99 134 179 229 272 347 405
#     4  10  20  42  64  93 135 172 219 285 336 399
#     4  10  20  40  70  88 132 180 228 268 336 408
#     4  10  24  41  68 105 130 177 230 279 346 396
#
# _framework density 20.166139000000001
#
# number of rings (size 3 to 8) (size 9 to 14) (size 15 to 20)
#    0.000    1.333    4.167    1.000    3.500    1.333 
#    3.000    0.000    0.000    0.000    0.000    0.000 
#    0.000    0.000    0.000    0.000    0.000    0.000 
#
# Total GULP energy -267412.859364 kJ/mol
# GULP energy per Si atom -5571.101237 kJ/mol
# Density = 2.012024 g / cm^3
# Si number density = 20.166139 Si / 1000 Ang^3
#
#
#
# Elastic Constant Matrix: (Units=GPa)
#
#
# Indices 1 2 3 4 5 6 
#
# 1 65.2714 8.7457 17.9384 0.0000 0.0000 0.0000
# 2 8.7457 99.5185 5.7043 0.0000 0.0000 0.0000
# 3 17.9384 5.7043 57.3745 0.0000 0.0000 0.0000
# 4 0.0000 0.0000 0.0000 26.1412 0.0000 0.0000
# 5 0.0000 0.0000 0.0000 0.0000 6.1724 0.0000
# 6 0.0000 0.0000 0.0000 0.0000 0.0000 23.1801
#
#
#
# Elastic Compliance Matrix: (Units=1/GPa)
#
#
# Indices 1 2 3 4 5 6 
#
# 1 0.016900 -0.001189 -0.005166 0.000000 0.000000 0.000000
# 2 -0.001189 0.010190 -0.000641 0.000000 0.000000 0.000000
# 3 -0.005166 -0.000641 0.019108 0.000000 0.000000 0.000000
# 4 0.000000 0.000000 0.000000 0.038254 0.000000 0.000000
# 5 0.000000 0.000000 0.000000 0.000000 0.162010 0.000000
# 6 0.000000 0.000000 0.000000 0.000000 0.000000 0.043140
#
#
# Mechanical properties :
#
#
# Convention : Reuss Voigt Hill
#
# Bulk Modulus (GPa) = 31.05054 31.88238 31.46646
# Shear Modulus (GPa) = 15.90690 23.75049 19.82869
#
# Velocity S-wave (km/s) = 2.81159 3.43555 3.13911
# Velocity P-wave (km/s) = 5.09616 5.61974 5.36434
#
# Compressibility (1/GPa) = 0.03220556
#
# Stress axis : x y z
#
# Youngs Moduli (GPa) = 59.17302 98.13894 52.33377
#
# Poissons Ratio (x) = 0.11669 0.27033
# Poissons Ratio (y) = 0.07036 0.03356
# Poissons Ratio (z) = 0.30566 0.06294
#
# Static dielectric constant tensor:
#      x y z
#    x 1.780960 0.000000 0.000000 
#    y 0.000000 1.558480 0.000000 
#    z 0.000000 0.000000 1.784950 
# 
# From -- ./inp_files/24763.got.cif
#   From: 2010.05.17/outbox.cif.g08.bks.cpg/sg52_13_cif.got.tgz:24763.got - 2010.06.03 12:15:38.
