data_PCOD9410794
_publ_section_title
;
Structure prediction by ZEFSAII (Michael W. Deem and Ramdas Pophale) SiO2 
 PCOD9410794
Probable space group: P N N A
;
_chemical_formula_sum "Si O2"
_cell_formula_units_Z 48
_cell_length_a 8.879759
_cell_length_b 29.386772
_cell_length_c 8.223768
_cell_angle_alpha 90.000000
_cell_angle_beta 90.000000
_cell_angle_gamma 90.000000
_cell_volume 2145.971315
_symmetry_space_group_name_H-M "P N N A"
_symmetry_group_IT_number 52
_symmetry_cell_setting 'orthorhombic'
loop_
_space_group_symop_operation_xyz
x,y,z
1/2-x,-y,z
x,1/2-y,1/2-z
1/2-x,1/2+y,1/2-z
-x,-y,-z
1/2+x,y,-z
-x,1/2+y,1/2+z
1/2+x,1/2-y,1/2+z
loop_
_atom_site_type_symbol
_atom_site_label
_atom_site_fract_x
_atom_site_fract_y
_atom_site_fract_z
Si Si1 0.365088 0.734970 0.095390
Si Si2 0.443556 0.075571 0.477514
Si Si3 0.813786 0.867636 0.678829
Si Si4 0.306114 0.640492 0.571011
Si Si5 0.204813 0.453808 0.764019
Si Si6 0.922958 0.296764 0.555496
O O1 0.466060 0.750000 0.250000
O O2 0.325873 0.682769 0.102204
O O3 0.229347 0.771259 0.109923
O O4 0.468823 0.752700 0.953283
O O5 0.556779 0.102148 0.597139
O O6 0.343046 0.110860 0.376572
O O7 0.327012 0.049149 0.591242
O O8 0.542192 0.046668 0.350922
O O9 0.821071 0.866086 0.874731
O O10 0.287216 0.592463 0.659627
O O11 0.457883 0.666676 0.628196
O O12 0.156776 0.672219 0.587162
O O13 0.250000 0.500000 0.671369
#
# Coordination Sequence:
#
# PCOD9410794 Si02
#       6
#     8   8   8   8   8   8
#     4  11  21  37  61  83 131 164 220 244 297 370
#     4  10  24  42  68  91 132 163 206 252 322 384
#     4  11  21  43  63  95 129 174 206 259 308 366
#     4  11  22  41  67  91 133 158 214 265 323 358
#     4  11  24  44  68  96 120 160 208 261 321 389
#     4  10  21  38  59  91 126 173 203 266 305 356
#
# _framework density 22.367494000000001
#
# number of rings (size 3 to 8) (size 9 to 14) (size 15 to 20)
#    0.000    1.333    3.333    3.500    0.000    0.000 
#    0.000   12.500    0.000    0.000    0.000    0.000 
#    0.000    0.000    0.000    0.000    0.000    0.000 
#
# Total GULP energy -267320.096373 kJ/mol
# GULP energy per Si atom -5569.168674 kJ/mol
# Density = 2.231659 g / cm^3
# Si number density = 22.367494 Si / 1000 Ang^3
#
#
#
# Elastic Constant Matrix: (Units=GPa)
#
#
# Indices 1 2 3 4 5 6 
#
# 1 101.0295 4.9603 6.1069 0.0000 0.0000 0.0000
# 2 4.9603 66.3030 0.2144 0.0000 0.0000 0.0000
# 3 6.1069 0.2144 51.1118 0.0000 0.0000 0.0000
# 4 0.0000 0.0000 0.0000 29.2552 0.0000 0.0000
# 5 0.0000 0.0000 0.0000 0.0000 -6.7203 0.0000
# 6 0.0000 0.0000 0.0000 0.0000 0.0000 20.6807
#
#
#
# Elastic Compliance Matrix: (Units=1/GPa)
#
#
# Indices 1 2 3 4 5 6 
#
# 1 0.010007 -0.000745 -0.001192 0.000000 0.000000 0.000000
# 2 -0.000745 0.015138 0.000025 0.000000 0.000000 0.000000
# 3 -0.001192 0.000025 0.019707 0.000000 0.000000 0.000000
# 4 0.000000 0.000000 0.000000 0.034182 0.000000 0.000000
# 5 0.000000 0.000000 0.000000 0.000000 -0.148803 0.000000
# 6 0.000000 0.000000 0.000000 0.000000 0.000000 0.048354
#
#
# Mechanical properties :
#
#
# Convention : Reuss Voigt Hill
#
# Bulk Modulus (GPa) = 24.37334 26.77860 25.57597
# Shear Modulus (GPa) = -1276.97579 22.45397 -627.26091
#
# Velocity S-wave (km/s) = -23.91958 3.17182 -16.76434
# Velocity P-wave (km/s) = 27.42155 5.04104 19.05950
#
# Compressibility (1/GPa) = 0.04102844
#
# Stress axis : x y z
#
# Youngs Moduli (GPa) = 99.93257 66.05928 50.74251
#
# Poissons Ratio (x) = 0.04920 0.06051
# Poissons Ratio (y) = 0.07443 -0.00129
# Poissons Ratio (z) = 0.11917 -0.00168
#
# Static dielectric constant tensor:
#      x y z
#    x 1.858710 0.000000 0.000000 
#    y 0.000000 1.871740 0.000000 
#    z 0.000000 0.000000 1.974120 
# 
# From -- ./inp_files/7685.got.cif
#   From: 2010.05.17/outbox.cif.g08.bks.cpg/sg52_4_cif.got.tgz:7685.got - 2010.06.03 12:15:38.
