data_PCOD9410758
_publ_section_title
;
Structure prediction by ZEFSAII (Michael W. Deem and Ramdas Pophale) SiO2 
 PCOD9410758
Probable space group: P N N A
;
_chemical_formula_sum "Si O2"
_cell_formula_units_Z 56
_cell_length_a 8.809340
_cell_length_b 13.876624
_cell_length_c 20.305351
_cell_angle_alpha 90.000000
_cell_angle_beta 90.000000
_cell_angle_gamma 90.000000
_cell_volume 2482.205274
_symmetry_space_group_name_H-M "P N N A"
_symmetry_group_IT_number 52
_symmetry_cell_setting 'orthorhombic'
loop_
_space_group_symop_operation_xyz
x,y,z
1/2-x,-y,z
x,1/2-y,1/2-z
1/2-x,1/2+y,1/2-z
-x,-y,-z
1/2+x,y,-z
-x,1/2+y,1/2+z
1/2+x,1/2-y,1/2+z
loop_
_atom_site_type_symbol
_atom_site_label
_atom_site_fract_x
_atom_site_fract_y
_atom_site_fract_z
Si Si1 0.614842 0.566547 0.461487
Si Si2 0.971739 0.830797 0.194127
Si Si3 0.350644 0.642915 0.999467
Si Si4 0.074397 0.526740 0.758236
Si Si5 0.908516 0.098468 0.399295
Si Si6 0.610955 0.769464 0.939062
Si Si7 0.112210 0.687132 0.660593
O O1 0.750000 0.500000 0.436941
O O2 0.500000 0.500000 0.500000
O O3 0.667950 0.646045 0.513357
O O4 0.552185 0.621068 0.398688
O O5 0.988262 0.750000 0.250000
O O6 0.795838 0.821388 0.169214
O O7 0.079177 0.807120 0.133114
O O8 0.006705 0.936434 0.223783
O O9 0.465712 0.582766 0.044526
O O10 0.231123 0.685146 0.051654
O O11 0.454436 0.727328 0.968654
O O12 0.251812 0.600908 0.939012
O O13 0.250000 0.500000 0.745655
O O14 0.047958 0.631978 0.725249
O O15 0.063106 0.529763 0.837165
O O16 0.919445 0.204911 0.364867
#
# Coordination Sequence:
#
# PCOD9410758 Si02
#       7
#     8   8   8   8   8   8   8
#     4  12  22  32  56  92 133 159 202 264 317 392
#     4  11  22  40  66  89 123 166 215 271 322 380
#     4  10  21  37  67  93 127 172 216 262 331 384
#     4  10  22  37  61  99 126 164 219 270 320 391
#     4  11  21  40  65  96 129 171 219 269 317 393
#     4  11  20  39  61  92 124 168 211 261 331 390
#     4  11  19  35  60  95 126 162 205 259 320 386
#
# _framework density 22.560583999999999
#
# number of rings (size 3 to 8) (size 9 to 14) (size 15 to 20)
#    0.000    1.143    4.286    6.000    0.000    0.000 
#    0.000    2.143    0.000    0.000    0.000    0.000 
#    0.000    0.000    0.000    0.000    0.000    0.000 
#
# Total GULP energy -312841.245646 kJ/mol
# GULP energy per Si atom -5586.450815 kJ/mol
# Density = 2.250924 g / cm^3
# Si number density = 22.560584 Si / 1000 Ang^3
#
#
#
# Elastic Constant Matrix: (Units=GPa)
#
#
# Indices 1 2 3 4 5 6 
#
# 1 46.4903 22.4453 25.0492 0.0000 0.0000 0.0000
# 2 22.4453 88.6177 52.1596 0.0000 0.0000 0.0000
# 3 25.0492 52.1596 171.1529 0.0000 0.0000 0.0000
# 4 0.0000 0.0000 0.0000 54.0171 0.0000 0.0000
# 5 0.0000 0.0000 0.0000 0.0000 9.8642 0.0000
# 6 0.0000 0.0000 0.0000 0.0000 0.0000 -53.9937
#
#
#
# Elastic Compliance Matrix: (Units=1/GPa)
#
#
# Indices 1 2 3 4 5 6 
#
# 1 0.025121 -0.005116 -0.002117 0.000000 0.000000 0.000000
# 2 -0.005116 0.014793 -0.003759 0.000000 0.000000 0.000000
# 3 -0.002117 -0.003759 0.007298 0.000000 0.000000 0.000000
# 4 0.000000 0.000000 0.000000 0.018513 0.000000 0.000000
# 5 0.000000 0.000000 0.000000 0.000000 0.101376 0.000000
# 6 0.000000 0.000000 0.000000 0.000000 0.000000 -0.018521
#
#
# Mechanical properties :
#
#
# Convention : Reuss Voigt Hill
#
# Bulk Modulus (GPa) = 39.64184 56.17436 47.90810
# Shear Modulus (GPa) = 27.93678 15.75131 21.84404
#
# Velocity S-wave (km/s) = 3.52277 2.64517 3.11503
# Velocity P-wave (km/s) = 5.84431 5.85514 5.84973
#
# Compressibility (1/GPa) = 0.02522587
#
# Stress axis : x y z
#
# Youngs Moduli (GPa) = 39.80753 67.59909 137.01788
#
# Poissons Ratio (x) = 0.34587 0.29011
# Poissons Ratio (y) = 0.20367 0.51511
# Poissons Ratio (z) = 0.08429 0.25413
#
# Static dielectric constant tensor:
#      x y z
#    x 1.833240 0.000000 0.000000 
#    y 0.000000 1.921510 0.000000 
#    z 0.000000 0.000000 1.822270 
# 
# From -- ./inp_files/36034.got.cif
#   From: 2010.05.17/outbox.cif.g08.bks.cpg/sg52_19_cif.got.tgz:36034.got - 2010.06.03 12:15:38.
