data_PCOD9410839
_publ_section_title
;
Structure prediction by ZEFSAII (Michael W. Deem and Ramdas Pophale) SiO2 
 PCOD9410839
Probable space group: P N N A
;
_chemical_formula_sum "Si O2"
_cell_formula_units_Z 44
_cell_length_a 7.952518
_cell_length_b 23.140739
_cell_length_c 12.033500
_cell_angle_alpha 90.000000
_cell_angle_beta 90.000000
_cell_angle_gamma 90.000000
_cell_volume 2214.490630
_symmetry_space_group_name_H-M "P N N A"
_symmetry_group_IT_number 52
_symmetry_cell_setting 'orthorhombic'
loop_
_space_group_symop_operation_xyz
x,y,z
1/2-x,-y,z
x,1/2-y,1/2-z
1/2-x,1/2+y,1/2-z
-x,-y,-z
1/2+x,y,-z
-x,1/2+y,1/2+z
1/2+x,1/2-y,1/2+z
loop_
_atom_site_type_symbol
_atom_site_label
_atom_site_fract_x
_atom_site_fract_y
_atom_site_fract_z
Si Si1 0.993262 0.189137 0.554478
Si Si2 0.451622 0.151549 0.871581
Si Si3 0.752954 0.778113 0.939700
Si Si4 0.750000 0.500000 0.216496
Si Si5 0.946351 0.982864 0.876825
Si Si6 0.287702 0.373170 0.856628
O O1 0.128528 0.235967 0.512053
O O2 0.094990 0.143253 0.623896
O O3 0.865587 0.231027 0.617000
O O4 0.901992 0.155590 0.452974
O O5 0.621081 0.188176 0.861763
O O6 0.515270 0.085666 0.877359
O O7 0.342404 0.153678 0.760712
O O8 0.347765 0.177687 0.977404
O O9 0.584333 0.489276 0.293202
O O10 0.703581 0.557509 0.148598
O O11 0.750000 0.000000 0.855735
O O12 0.000000 0.000000 0.000000
#
# Coordination Sequence:
#
# PCOD9410839 Si02
#       6
#     8   8   8   4   8   8
#     4   9  20  40  62  85 121 165 211 265 310 365
#     4  10  21  38  62  92 129 160 204 255 318 392
#     4   9  19  37  62  93 122 158 205 251 325 389
#     4  10  24  42  64  96 124 168 224 262 320 394
#     4  11  21  38  64  92 136 170 203 262 324 389
#     4  10  22  43  63  90 126 164 215 267 315 375
#
# _framework density 19.869128
#
# number of rings (size 3 to 8) (size 9 to 14) (size 15 to 20)
#    0.000    2.182    0.909    1.091    2.545    7.273 
#   13.091    5.455    0.000    0.000    0.000    0.000 
#    0.000    0.000    0.000    0.000    0.000    0.000 
#
# Total GULP energy -245051.814700 kJ/mol
# GULP energy per Si atom -5569.359425 kJ/mol
# Density = 1.982391 g / cm^3
# Si number density = 19.869128 Si / 1000 Ang^3
#
#
#
# Elastic Constant Matrix: (Units=GPa)
#
#
# Indices 1 2 3 4 5 6 
#
# 1 113.4829 35.0331 27.6436 0.0000 0.0000 0.0000
# 2 35.0331 88.4704 39.8615 0.0000 0.0000 0.0000
# 3 27.6436 39.8615 52.7904 0.0000 0.0000 0.0000
# 4 0.0000 0.0000 0.0000 22.0997 0.0000 0.0000
# 5 0.0000 0.0000 0.0000 0.0000 174.1354 0.0000
# 6 0.0000 0.0000 0.0000 0.0000 0.0000 43.6884
#
#
#
# Elastic Compliance Matrix: (Units=1/GPa)
#
#
# Indices 1 2 3 4 5 6 
#
# 1 0.010463 -0.002538 -0.003563 0.000000 0.000000 0.000000
# 2 -0.002538 0.017747 -0.012072 0.000000 0.000000 0.000000
# 3 -0.003563 -0.012072 0.029924 0.000000 0.000000 0.000000
# 4 0.000000 0.000000 0.000000 0.045249 0.000000 0.000000
# 5 0.000000 0.000000 0.000000 0.000000 0.005743 0.000000
# 6 0.000000 0.000000 0.000000 0.000000 0.000000 0.022889
#
#
# Mechanical properties :
#
#
# Convention : Reuss Voigt Hill
#
# Bulk Modulus (GPa) = 45.89401 51.09114 48.49257
# Shear Modulus (GPa) = 28.46994 58.13174 43.30084
#
# Velocity S-wave (km/s) = 3.78944 5.41487 4.67336
# Velocity P-wave (km/s) = 6.50344 8.05383 7.31980
#
# Compressibility (1/GPa) = 0.02178934
#
# Stress axis : x y z
#
# Youngs Moduli (GPa) = 95.57258 56.34630 33.41842
#
# Poissons Ratio (x) = 0.14302 0.11905
# Poissons Ratio (y) = 0.24258 0.40342
# Poissons Ratio (z) = 0.34048 0.68020
#
# Static dielectric constant tensor:
#      x y z
#    x 1.776790 0.000000 0.000000 
#    y 0.000000 1.756120 0.000000 
#    z 0.000000 0.000000 1.679600 
# 
# From -- ./inp_files/16892.got.cif
#   From: 2010.05.17/outbox.cif.g08.bks.cpg/sg52_9_cif.got.tgz:16892.got - 2010.06.03 12:15:38.
