data_PCOD9410381
_publ_section_title
;
Structure prediction by ZEFSAII (Michael W. Deem and Ramdas Pophale) SiO2 
 PCOD9410381
Probable space group: P N N A
;
_chemical_formula_sum "Si O2"
_cell_formula_units_Z 60
_cell_length_a 25.734786
_cell_length_b 6.523234
_cell_length_c 18.052790
_cell_angle_alpha 90.000000
_cell_angle_beta 90.000000
_cell_angle_gamma 90.000000
_cell_volume 3030.594628
_symmetry_space_group_name_H-M "P N N A"
_symmetry_group_IT_number 52
_symmetry_cell_setting 'orthorhombic'
loop_
_space_group_symop_operation_xyz
x,y,z
1/2-x,-y,z
x,1/2-y,1/2-z
1/2-x,1/2+y,1/2-z
-x,-y,-z
1/2+x,y,-z
-x,1/2+y,1/2+z
1/2+x,1/2-y,1/2+z
loop_
_atom_site_type_symbol
_atom_site_label
_atom_site_fract_x
_atom_site_fract_y
_atom_site_fract_z
Si Si1 0.876682 0.241147 0.555610
Si Si2 0.427081 0.881130 0.825308
Si Si3 0.194248 0.041036 0.968142
Si Si4 0.867756 0.581972 0.068371
Si Si5 0.163303 0.791670 0.830474
Si Si6 0.048117 0.901430 0.178892
Si Si7 0.191791 0.581589 0.184616
Si Si8 0.114807 0.250000 0.250000
O O1 0.853531 0.432497 0.510277
O O2 0.924445 0.299942 0.608075
O O3 0.829820 0.176768 0.609571
O O4 0.888500 0.057462 0.498700
O O5 0.421340 0.750000 0.750000
O O6 0.407785 0.737978 0.892887
O O7 0.487277 0.937960 0.833518
O O8 0.389927 0.078355 0.820345
O O9 0.179901 0.277681 0.959249
O O10 0.250000 0.000000 0.004571
O O11 0.195444 0.928166 0.888316
O O12 0.848609 0.422642 0.130151
O O13 0.186885 0.750000 0.750000
O O14 0.053593 0.750000 0.250000
O O15 0.078739 0.108281 0.198905
O O16 0.250000 0.500000 0.178566
O O17 0.189181 0.750000 0.250000
O O18 0.152452 0.398955 0.204544
#
# Coordination Sequence:
#
# PCOD9410381 Si02
#       8
#     8   8   8   8   8   8   8   4
#     4  11  24  41  62  92 131 171 216 261 325 386
#     4  10  21  39  68  94 124 168 215 264 329 387
#     4  10  25  42  61  94 127 170 215 257 328 390
#     4  10  23  42  65  91 131 166 208 271 318 393
#     4  10  20  41  65  95 123 161 214 263 321 394
#     4  11  24  40  63  98 126 167 222 268 322 384
#     4  12  25  41  64  95 125 172 222 265 318 380
#     4  12  22  40  60  88 132 156 216 282 310 368
#
# _framework density 19.798096000000001
#
# number of rings (size 3 to 8) (size 9 to 14) (size 15 to 20)
#    0.000    1.333    4.667    0.000    4.667    2.667 
#    2.400    6.000    0.000    0.000    0.000    0.000 
#    0.000    0.000    0.000    0.000    0.000    0.000 
#
# Total GULP energy -335282.483179 kJ/mol
# GULP energy per Si atom -5588.041386 kJ/mol
# Density = 1.975303 g / cm^3
# Si number density = 19.798096 Si / 1000 Ang^3
#
#
#
# Elastic Constant Matrix: (Units=GPa)
#
#
# Indices 1 2 3 4 5 6 
#
# 1 83.3335 17.3699 -7.4362 0.0000 0.0000 0.0000
# 2 17.3699 94.6474 12.1206 0.0000 0.0000 0.0000
# 3 -7.4362 12.1206 81.4098 0.0000 0.0000 0.0000
# 4 0.0000 0.0000 0.0000 27.0947 0.0000 0.0000
# 5 0.0000 0.0000 0.0000 0.0000 49.3593 0.0000
# 6 0.0000 0.0000 0.0000 0.0000 0.0000 19.0838
#
#
#
# Elastic Compliance Matrix: (Units=1/GPa)
#
#
# Indices 1 2 3 4 5 6 
#
# 1 0.012662 -0.002520 0.001532 0.000000 0.000000 0.000000
# 2 -0.002520 0.011272 -0.001908 0.000000 0.000000 0.000000
# 3 0.001532 -0.001908 0.012708 0.000000 0.000000 0.000000
# 4 0.000000 0.000000 0.000000 0.036908 0.000000 0.000000
# 5 0.000000 0.000000 0.000000 0.000000 0.020260 0.000000
# 6 0.000000 0.000000 0.000000 0.000000 0.000000 0.052401
#
#
# Mechanical properties :
#
#
# Convention : Reuss Voigt Hill
#
# Bulk Modulus (GPa) = 32.41630 33.72214 33.06922
# Shear Modulus (GPa) = 30.80986 34.92998 32.86992
#
# Velocity S-wave (km/s) = 3.94915 4.20493 4.07905
# Velocity P-wave (km/s) = 6.09946 6.37536 6.23893
#
# Compressibility (1/GPa) = 0.03084867
#
# Stress axis : x y z
#
# Youngs Moduli (GPa) = 78.97709 88.71236 78.69313
#
# Poissons Ratio (x) = 0.22355 -0.12054
# Poissons Ratio (y) = 0.19901 0.15018
# Poissons Ratio (z) = -0.12097 0.16930
#
# Static dielectric constant tensor:
#      x y z
#    x 1.663900 0.000000 0.000000 
#    y 0.000000 1.701010 0.000000 
#    z 0.000000 0.000000 1.724370 
# 
# From -- ./inp_files/34496.got.cif
#   From: 2010.05.17/outbox.cif.g08.bks.cpg/sg52_18_cif.got.tgz:34496.got - 2010.06.03 12:15:38.
