data_PCOD9410526
_publ_section_title
;
Structure prediction by ZEFSAII (Michael W. Deem and Ramdas Pophale) SiO2 
 PCOD9410526
Probable space group: P N N A
;
_chemical_formula_sum "Si O2"
_cell_formula_units_Z 56
_cell_length_a 19.813893
_cell_length_b 7.841494
_cell_length_c 15.606759
_cell_angle_alpha 90.000000
_cell_angle_beta 90.000000
_cell_angle_gamma 90.000000
_cell_volume 2424.830309
_symmetry_space_group_name_H-M "P N N A"
_symmetry_group_IT_number 52
_symmetry_cell_setting 'orthorhombic'
loop_
_space_group_symop_operation_xyz
x,y,z
1/2-x,-y,z
x,1/2-y,1/2-z
1/2-x,1/2+y,1/2-z
-x,-y,-z
1/2+x,y,-z
-x,1/2+y,1/2+z
1/2+x,1/2-y,1/2+z
loop_
_atom_site_type_symbol
_atom_site_label
_atom_site_fract_x
_atom_site_fract_y
_atom_site_fract_z
Si Si1 0.883484 0.901692 0.661398
Si Si2 0.412829 0.233053 0.148899
Si Si3 0.047179 0.229410 0.571660
Si Si4 0.674535 0.066367 0.854616
Si Si5 0.330907 0.200200 0.650573
Si Si6 0.522892 0.674637 0.098359
Si Si7 0.684450 0.209883 0.351555
O O1 0.848894 0.923825 0.754102
O O2 0.840691 0.756589 0.613493
O O3 0.961777 0.842128 0.666915
O O4 0.888518 0.083357 0.613877
O O5 0.398657 0.250000 0.250000
O O6 0.491959 0.204553 0.138659
O O7 0.372931 0.078951 0.107429
O O8 0.121667 0.285309 0.596193
O O9 0.014992 0.266674 0.479700
O O10 0.041463 0.022591 0.577718
O O11 0.750000 0.000000 0.859376
O O12 0.331110 0.250000 0.750000
O O13 0.404545 0.255438 0.617487
O O14 0.258593 0.267074 0.616665
O O15 0.323478 0.995278 0.642336
O O16 0.678172 0.250000 0.250000
#
# Coordination Sequence:
#
# PCOD9410526 Si02
#       7
#     8   8   8   8   8   8   8
#     4   9  20  33  53  77 107 144 183 227 274 321
#     4   9  18  33  54  81 107 143 187 227 278 322
#     4   9  17  33  56  78 112 140 182 226 269 342
#     4  10  21  33  53  78 112 142 185 234 269 323
#     4   9  18  31  55  80 109 137 177 228 274 323
#     4   9  18  34  53  81 110 146 180 223 274 333
#     4   9  17  32  54  83 106 136 176 228 282 316
#
# _framework density 23.0944
#
# number of rings (size 3 to 8) (size 9 to 14) (size 15 to 20)
#    0.000    2.857    0.000    0.429    8.000    1.143 
#    0.000    2.143    6.286    0.000    0.000    0.000 
#    0.000    0.000    0.000    0.000    0.000    0.000 
#
# Total GULP energy -312140.658540 kJ/mol
# GULP energy per Si atom -5573.940331 kJ/mol
# Density = 2.304184 g / cm^3
# Si number density = 23.094400 Si / 1000 Ang^3
#
#
#
# Elastic Constant Matrix: (Units=GPa)
#
#
# Indices 1 2 3 4 5 6 
#
# 1 233.2831 47.8644 32.7836 0.0000 0.0000 0.0000
# 2 47.8644 74.7424 -1.2056 0.0000 0.0000 0.0000
# 3 32.7836 -1.2056 24.2739 0.0000 0.0000 0.0000
# 4 0.0000 0.0000 0.0000 6.0596 0.0000 0.0000
# 5 0.0000 0.0000 0.0000 0.0000 93.8449 0.0000
# 6 0.0000 0.0000 0.0000 0.0000 0.0000 -90.5191
#
#
#
# Elastic Compliance Matrix: (Units=1/GPa)
#
#
# Indices 1 2 3 4 5 6 
#
# 1 0.006402 -0.004242 -0.008857 0.000000 0.000000 0.000000
# 2 -0.004242 0.016202 0.006534 0.000000 0.000000 0.000000
# 3 -0.008857 0.006534 0.053483 0.000000 0.000000 0.000000
# 4 0.000000 0.000000 0.000000 0.165028 0.000000 0.000000
# 5 0.000000 0.000000 0.000000 0.000000 0.010656 0.000000
# 6 0.000000 0.000000 0.000000 0.000000 0.000000 -0.011047
#
#
# Mechanical properties :
#
#
# Convention : Reuss Voigt Hill
#
# Bulk Modulus (GPa) = 15.88397 54.57602 35.23000
# Shear Modulus (GPa) = 18.19254 18.73421 18.46338
#
# Velocity S-wave (km/s) = 2.80973 2.85125 2.83056
# Velocity P-wave (km/s) = 4.17359 5.87559 5.09614
#
# Compressibility (1/GPa) = 0.06295653
#
# Stress axis : x y z
#
# Youngs Moduli (GPa) = 156.20730 61.72253 18.69762
#
# Poissons Ratio (x) = 0.26186 0.16560
# Poissons Ratio (y) = 0.66271 -0.12218
# Poissons Ratio (z) = 1.38349 -0.40332
#
# Static dielectric constant tensor:
#      x y z
#    x 1.871940 0.000000 0.000000 
#    y 0.000000 2.053330 0.000000 
#    z 0.000000 0.000000 1.700530 
# 
# From -- ./inp_files/37648.got.cif
#   From: 2010.05.17/outbox.cif.g08.bks.cpg/sg52_19_cif.got.tgz:37648.got - 2010.06.03 12:15:38.
