data_PCOD9410722
_publ_section_title
;
Structure prediction by ZEFSAII (Michael W. Deem and Ramdas Pophale) SiO2 
 PCOD9410722
Probable space group: P N N A
;
_chemical_formula_sum "Si O2"
_cell_formula_units_Z 40
_cell_length_a 13.788814
_cell_length_b 10.201548
_cell_length_c 13.461307
_cell_angle_alpha 90.000000
_cell_angle_beta 90.000000
_cell_angle_gamma 90.000000
_cell_volume 1893.565009
_symmetry_space_group_name_H-M "P N N A"
_symmetry_group_IT_number 52
_symmetry_cell_setting 'orthorhombic'
loop_
_space_group_symop_operation_xyz
x,y,z
1/2-x,-y,z
x,1/2-y,1/2-z
1/2-x,1/2+y,1/2-z
-x,-y,-z
1/2+x,y,-z
-x,1/2+y,1/2+z
1/2+x,1/2-y,1/2+z
loop_
_atom_site_type_symbol
_atom_site_label
_atom_site_fract_x
_atom_site_fract_y
_atom_site_fract_z
Si Si1 0.158863 0.802278 0.052068
Si Si2 0.914065 0.013652 0.580585
Si Si3 0.576336 0.648510 0.340701
Si Si4 0.000935 0.391895 0.713240
Si Si5 0.355026 0.732703 0.365975
O O1 0.146131 0.644706 0.061587
O O2 0.077739 0.864102 0.126178
O O3 0.266264 0.842508 0.084877
O O4 0.138114 0.828660 0.938016
O O5 0.952966 0.036556 0.692136
O O6 0.861608 0.874812 0.583100
O O7 0.000000 0.000000 0.500000
O O8 0.595780 0.750000 0.250000
O O9 0.582700 0.494919 0.316227
O O10 0.462566 0.672366 0.369840
O O11 0.035750 0.250000 0.750000
O O12 0.330405 0.750000 0.250000
#
# Coordination Sequence:
#
# PCOD9410722 Si02
#       5
#     8   8   8   8   8
#     4  11  23  35  61  96 128 162 214 273 329 381
#     4  11  19  37  62  92 123 169 211 262 329 389
#     4  11  21  42  65  89 127 173 217 264 325 392
#     4  10  21  37  60  94 127 166 212 267 324 384
#     4  11  21  38  64  94 124 165 216 267 322 385
#
# _framework density 21.124177
#
# number of rings (size 3 to 8) (size 9 to 14) (size 15 to 20)
#    0.000    1.200    6.000    3.000    0.000    0.800 
#    0.000    0.000    4.400    0.000    5.200    0.000 
#    0.000    0.000    0.000    0.000    0.000    0.000 
#
# Total GULP energy -223447.245196 kJ/mol
# GULP energy per Si atom -5586.181130 kJ/mol
# Density = 2.107610 g / cm^3
# Si number density = 21.124177 Si / 1000 Ang^3
#
#
#
# Elastic Constant Matrix: (Units=GPa)
#
#
# Indices 1 2 3 4 5 6 
#
# 1 50.8049 -2.1082 55.2440 0.0000 0.0000 0.0000
# 2 -2.1082 84.6597 11.6805 0.0000 0.0000 0.0000
# 3 55.2440 11.6805 118.4758 0.0000 0.0000 0.0000
# 4 0.0000 0.0000 0.0000 36.6075 0.0000 0.0000
# 5 0.0000 0.0000 0.0000 0.0000 16.0779 0.0000
# 6 0.0000 0.0000 0.0000 0.0000 0.0000 2.6216
#
#
#
# Elastic Compliance Matrix: (Units=1/GPa)
#
#
# Indices 1 2 3 4 5 6 
#
# 1 0.041048 0.003713 -0.019506 0.000000 0.000000 0.000000
# 2 0.003713 0.012311 -0.002945 0.000000 0.000000 0.000000
# 3 -0.019506 -0.002945 0.017827 0.000000 0.000000 0.000000
# 4 0.000000 0.000000 0.000000 0.027317 0.000000 0.000000
# 5 0.000000 0.000000 0.000000 0.000000 0.062197 0.000000
# 6 0.000000 0.000000 0.000000 0.000000 0.000000 0.381452
#
#
# Mechanical properties :
#
#
# Convention : Reuss Voigt Hill
#
# Bulk Modulus (GPa) = 29.66567 42.61922 36.14244
# Shear Modulus (GPa) = 8.46218 23.66966 16.06592
#
# Velocity S-wave (km/s) = 2.00365 3.35102 2.76079
# Velocity P-wave (km/s) = 4.40758 5.93227 5.22583
#
# Compressibility (1/GPa) = 0.03370900
#
# Stress axis : x y z
#
# Youngs Moduli (GPa) = 24.36178 81.22930 56.09622
#
# Poissons Ratio (x) = -0.30164 1.09423
# Poissons Ratio (y) = -0.09047 0.16522
# Poissons Ratio (z) = 0.47521 0.23924
#
# Static dielectric constant tensor:
#      x y z
#    x 1.773260 0.000000 0.000000 
#    y 0.000000 1.842100 0.000000 
#    z 0.000000 0.000000 1.781040 
# 
# From -- ./inp_files/19233.got.cif
#   From: 2010.05.17/outbox.cif.g08.bks.cpg/sg52_10_cif.got.tgz:19233.got - 2010.06.03 12:15:38.
