data_PCOD9410672
_publ_section_title
;
Structure prediction by ZEFSAII (Michael W. Deem and Ramdas Pophale) SiO2 
 PCOD9410672
Probable space group: P N N A
;
_chemical_formula_sum "Si O2"
_cell_formula_units_Z 44
_cell_length_a 21.063496
_cell_length_b 13.548198
_cell_length_c 7.785411
_cell_angle_alpha 90.000000
_cell_angle_beta 90.000000
_cell_angle_gamma 90.000000
_cell_volume 2221.741534
_symmetry_space_group_name_H-M "P N N A"
_symmetry_group_IT_number 52
_symmetry_cell_setting 'orthorhombic'
loop_
_space_group_symop_operation_xyz
x,y,z
1/2-x,-y,z
x,1/2-y,1/2-z
1/2-x,1/2+y,1/2-z
-x,-y,-z
1/2+x,y,-z
-x,1/2+y,1/2+z
1/2+x,1/2-y,1/2+z
loop_
_atom_site_type_symbol
_atom_site_label
_atom_site_fract_x
_atom_site_fract_y
_atom_site_fract_z
Si Si1 0.022971 0.250000 0.750000
Si Si2 0.680244 0.518016 0.647809
Si Si3 0.460580 0.075101 0.778328
Si Si4 0.847431 0.297011 0.420456
Si Si5 0.579234 0.111062 0.989817
Si Si6 0.085641 0.881683 0.405945
O O1 0.065508 0.210874 0.906753
O O2 0.974554 0.164052 0.691776
O O3 0.750000 0.500000 0.719662
O O4 0.684800 0.610584 0.514928
O O5 0.650159 0.420815 0.559338
O O6 0.627455 0.549049 0.786136
O O7 0.414658 0.158059 0.858080
O O8 0.441271 0.070000 0.579853
O O9 0.443419 0.976279 0.881411
O O10 0.531883 0.105472 0.826760
O O11 0.815774 0.250000 0.250000
O O12 0.866998 0.207909 0.544020
#
# Coordination Sequence:
#
# PCOD9410672 Si02
#       6
#     4   8   8   8   8   8
#     4  12  20  34  64  92 120 150 202 260 318 352
#     4  11  23  40  58  83 128 173 206 248 302 376
#     4   9  18  35  62  92 117 145 198 258 318 361
#     4   9  17  35  63  87 110 156 208 253 308 369
#     4  10  21  37  56  91 124 153 196 261 308 360
#     4  11  19  35  66  89 117 158 199 251 318 373
#
# _framework density 19.804285
#
# number of rings (size 3 to 8) (size 9 to 14) (size 15 to 20)
#    0.000    1.818    3.636    2.182    0.000    2.909 
#    1.636    8.182   12.000    0.000    0.000    0.000 
#    0.000    0.000    0.000    0.000    0.000    0.000 
#
# Total GULP energy -245496.916944 kJ/mol
# GULP energy per Si atom -5579.475385 kJ/mol
# Density = 1.975921 g / cm^3
# Si number density = 19.804285 Si / 1000 Ang^3
#
#
#
# Elastic Constant Matrix: (Units=GPa)
#
#
# Indices 1 2 3 4 5 6 
#
# 1 77.0934 37.2056 38.6675 0.0000 0.0000 0.0000
# 2 37.2056 44.6604 21.6926 0.0000 0.0000 0.0000
# 3 38.6675 21.6926 92.4656 0.0000 0.0000 0.0000
# 4 0.0000 0.0000 0.0000 35.5701 0.0000 0.0000
# 5 0.0000 0.0000 0.0000 0.0000 5.9952 0.0000
# 6 0.0000 0.0000 0.0000 0.0000 0.0000 11.2158
#
#
#
# Elastic Compliance Matrix: (Units=1/GPa)
#
#
# Indices 1 2 3 4 5 6 
#
# 1 0.024437 -0.017374 -0.006143 0.000000 0.000000 0.000000
# 2 -0.017374 0.037624 -0.001561 0.000000 0.000000 0.000000
# 3 -0.006143 -0.001561 0.013750 0.000000 0.000000 0.000000
# 4 0.000000 0.000000 0.000000 0.028114 0.000000 0.000000
# 5 0.000000 0.000000 0.000000 0.000000 0.166801 0.000000
# 6 0.000000 0.000000 0.000000 0.000000 0.000000 0.089160
#
#
# Mechanical properties :
#
#
# Convention : Reuss Voigt Hill
#
# Bulk Modulus (GPa) = 38.98029 45.48342 42.23185
# Shear Modulus (GPa) = 11.94475 18.33313 15.13894
#
# Velocity S-wave (km/s) = 2.45855 3.04586 2.76783
# Velocity P-wave (km/s) = 5.27113 5.94861 5.62009
#
# Compressibility (1/GPa) = 0.02565399
#
# Stress axis : x y z
#
# Youngs Moduli (GPa) = 40.92074 26.57909 72.72706
#
# Poissons Ratio (x) = 0.46180 0.44678
# Poissons Ratio (y) = 0.71097 0.11352
# Poissons Ratio (z) = 0.25139 0.04149
#
# Static dielectric constant tensor:
#      x y z
#    x 1.643900 0.000000 0.000000 
#    y 0.000000 1.759170 0.000000 
#    z 0.000000 0.000000 1.758210 
# 
# From -- ./inp_files/11983.got.cif
#   From: 2010.05.17/outbox.cif.g08.bks.cpg/sg52_6_cif.got.tgz:11983.got - 2010.06.03 12:15:38.
