data_PCOD9410606
_publ_section_title
;
Structure prediction by ZEFSAII (Michael W. Deem and Ramdas Pophale) SiO2 
 PCOD9410606
Probable space group: P N N A
;
_chemical_formula_sum "Si O2"
_cell_formula_units_Z 64
_cell_length_a 9.690470
_cell_length_b 13.817623
_cell_length_c 24.579668
_cell_angle_alpha 90.000000
_cell_angle_beta 90.000000
_cell_angle_gamma 90.000000
_cell_volume 3291.199385
_symmetry_space_group_name_H-M "P N N A"
_symmetry_group_IT_number 52
_symmetry_cell_setting 'orthorhombic'
loop_
_space_group_symop_operation_xyz
x,y,z
1/2-x,-y,z
x,1/2-y,1/2-z
1/2-x,1/2+y,1/2-z
-x,-y,-z
1/2+x,y,-z
-x,1/2+y,1/2+z
1/2+x,1/2-y,1/2+z
loop_
_atom_site_type_symbol
_atom_site_label
_atom_site_fract_x
_atom_site_fract_y
_atom_site_fract_z
Si Si1 0.385913 0.674065 0.299996
Si Si2 0.241583 0.802894 0.618580
Si Si3 0.677450 0.599166 0.328605
Si Si4 0.622882 0.355533 0.231056
Si Si5 0.766257 0.305115 0.879986
Si Si6 0.514811 0.082430 0.575536
Si Si7 0.009159 0.358150 0.950198
Si Si8 0.160619 0.587358 0.224124
O O1 0.425430 0.750000 0.250000
O O2 0.514934 0.606604 0.315109
O O3 0.335263 0.723240 0.356109
O O4 0.252113 0.622226 0.274613
O O5 0.208357 0.691555 0.632748
O O6 0.321483 0.846103 0.670548
O O7 0.104587 0.865849 0.609929
O O8 0.344313 0.814823 0.567793
O O9 0.750000 0.500000 0.348898
O O10 0.754771 0.619964 0.271761
O O11 0.568531 0.250000 0.250000
O O12 0.497835 0.430262 0.237077
O O13 0.663388 0.386186 0.902867
O O14 0.885618 0.293980 0.924817
O O15 0.842089 0.336021 0.824496
O O16 0.499109 0.123851 0.514342
O O17 0.500723 0.966737 0.574893
O O18 0.250000 0.500000 0.201660
#
# Coordination Sequence:
#
# PCOD9410606 Si02
#       8
#     8   8   8   8   8   8   8   8
#     4  10  21  37  58  83 120 159 194 242 292 354
#     4  11  22  39  61  86 120 158 194 243 300 352
#     4  11  23  39  59  87 119 156 202 245 287 349
#     4  10  21  36  56  83 117 154 195 237 288 344
#     4  11  21  37  58  82 120 156 190 230 296 352
#     4  11  23  39  60  88 121 150 198 239 294 358
#     4  11  23  39  60  90 117 154 193 245 291 358
#     4  11  21  34  55  86 119 156 194 233 284 348
#
# _framework density 19.445798
#
# number of rings (size 3 to 8) (size 9 to 14) (size 15 to 20)
#    0.000    1.250    2.500    5.250    3.500    3.000 
#    0.000    0.000    0.000    0.750    0.000    0.000 
#    0.000    0.000    0.000    0.000    0.000    0.000 
#
# Total GULP energy -357209.640214 kJ/mol
# GULP energy per Si atom -5581.400628 kJ/mol
# Density = 1.940154 g / cm^3
# Si number density = 19.445798 Si / 1000 Ang^3
#
#
#
# Elastic Constant Matrix: (Units=GPa)
#
#
# Indices 1 2 3 4 5 6 
#
# 1 86.5738 18.2750 27.8718 0.0000 0.0000 0.0000
# 2 18.2750 52.5479 19.8529 0.0000 0.0000 0.0000
# 3 27.8718 19.8529 55.8875 0.0000 0.0000 0.0000
# 4 0.0000 0.0000 0.0000 21.7329 0.0000 0.0000
# 5 0.0000 0.0000 0.0000 0.0000 6.1433 0.0000
# 6 0.0000 0.0000 0.0000 0.0000 0.0000 24.5877
#
#
#
# Elastic Compliance Matrix: (Units=1/GPa)
#
#
# Indices 1 2 3 4 5 6 
#
# 1 0.014058 -0.002588 -0.006092 0.000000 0.000000 0.000000
# 2 -0.002588 0.022456 -0.006687 0.000000 0.000000 0.000000
# 3 -0.006092 -0.006687 0.023307 0.000000 0.000000 0.000000
# 4 0.000000 0.000000 0.000000 0.046013 0.000000 0.000000
# 5 0.000000 0.000000 0.000000 0.000000 0.162780 0.000000
# 6 0.000000 0.000000 0.000000 0.000000 0.000000 0.040671
#
#
# Mechanical properties :
#
#
# Convention : Reuss Voigt Hill
#
# Bulk Modulus (GPa) = 34.37742 36.33428 35.35585
# Shear Modulus (GPa) = 14.29739 19.09340 16.69540
#
# Velocity S-wave (km/s) = 2.71448 3.13689 2.93330
# Velocity P-wave (km/s) = 5.24800 5.64319 5.44918
#
# Compressibility (1/GPa) = 0.02908886
#
# Stress axis : x y z
#
# Youngs Moduli (GPa) = 71.13239 44.53066 42.90647
#
# Poissons Ratio (x) = 0.11523 0.26138
# Poissons Ratio (y) = 0.18406 0.28690
# Poissons Ratio (z) = 0.43333 0.29776
#
# Static dielectric constant tensor:
#      x y z
#    x 1.691260 0.000000 0.000000 
#    y 0.000000 1.774460 0.000000 
#    z 0.000000 0.000000 1.655420 
# 
# From -- ./inp_files/39656.got.cif
#   From: 2010.05.17/outbox.cif.g08.bks.cpg/sg52_20_cif.got.tgz:39656.got - 2010.06.03 12:15:38.
