data_PCOD9410617
_publ_section_title
;
Structure prediction by ZEFSAII (Michael W. Deem and Ramdas Pophale) SiO2 
 PCOD9410617
Probable space group: P N N A
;
_chemical_formula_sum "Si O2"
_cell_formula_units_Z 64
_cell_length_a 13.758059
_cell_length_b 9.063974
_cell_length_c 24.226769
_cell_angle_alpha 90.000000
_cell_angle_beta 90.000000
_cell_angle_gamma 90.000000
_cell_volume 3021.143242
_symmetry_space_group_name_H-M "P N N A"
_symmetry_group_IT_number 52
_symmetry_cell_setting 'orthorhombic'
loop_
_space_group_symop_operation_xyz
x,y,z
1/2-x,-y,z
x,1/2-y,1/2-z
1/2-x,1/2+y,1/2-z
-x,-y,-z
1/2+x,y,-z
-x,1/2+y,1/2+z
1/2+x,1/2-y,1/2+z
loop_
_atom_site_type_symbol
_atom_site_label
_atom_site_fract_x
_atom_site_fract_y
_atom_site_fract_z
Si Si1 0.222186 0.334195 0.443386
Si Si2 0.639268 0.022354 0.383725
Si Si3 0.492370 0.611235 0.407100
Si Si4 0.148244 0.526419 0.251203
Si Si5 0.119990 0.703428 0.980395
Si Si6 0.488231 0.321208 0.803532
Si Si7 0.489778 0.741735 0.583006
Si Si8 0.649636 0.742554 0.661240
O O1 0.250000 0.500000 0.460014
O O2 0.106292 0.331690 0.437274
O O3 0.279904 0.230726 0.486324
O O4 0.270787 0.307364 0.383177
O O5 0.611623 0.190945 0.397903
O O6 0.750000 0.000000 0.367378
O O7 0.623112 0.938135 0.441785
O O8 0.573119 0.941809 0.337636
O O9 0.588558 0.666503 0.438609
O O10 0.488743 0.690772 0.347358
O O11 0.495146 0.433801 0.410704
O O12 0.250000 0.500000 0.281848
O O13 0.082510 0.402073 0.223784
O O14 0.097634 0.621182 0.299320
O O15 0.185873 0.635252 0.203217
O O16 0.032594 0.706983 0.024678
O O17 0.436612 0.250000 0.750000
O O18 0.565458 0.814598 0.625374
#
# Coordination Sequence:
#
# PCOD9410617 Si02
#       8
#     8   8   8   8   8   8   8   8
#     4  11  21  36  61  96 140 174 215 261 323 401
#     4  11  26  48  69  95 127 171 225 288 337 396
#     4  11  23  41  68  96 137 180 214 273 328 397
#     4  11  22  35  61  93 137 175 216 266 328 398
#     4  10  24  40  66  97 131 171 223 265 329 398
#     4  11  25  45  66  96 132 174 225 277 334 399
#     4  11  21  43  65  94 132 171 215 269 330 398
#     4  10  21  36  57  96 130 174 218 262 328 401
#
# _framework density 21.184032999999999
#
# number of rings (size 3 to 8) (size 9 to 14) (size 15 to 20)
#    0.000    1.250    3.750    2.625    5.250    0.000 
#    0.000    5.625    0.000    0.000    0.000    0.000 
#    0.000    0.000    0.000    0.000    0.000    0.000 
#
# Total GULP energy -356809.775460 kJ/mol
# GULP energy per Si atom -5575.152742 kJ/mol
# Density = 2.113582 g / cm^3
# Si number density = 21.184033 Si / 1000 Ang^3
#
#
#
# Elastic Constant Matrix: (Units=GPa)
#
#
# Indices 1 2 3 4 5 6 
#
# 1 86.9595 38.5720 34.5577 0.0000 0.0000 0.0000
# 2 38.5720 70.7874 36.2173 0.0000 0.0000 0.0000
# 3 34.5577 36.2173 123.4800 0.0000 0.0000 0.0000
# 4 0.0000 0.0000 0.0000 8.2911 0.0000 0.0000
# 5 0.0000 0.0000 0.0000 0.0000 23.3718 0.0000
# 6 0.0000 0.0000 0.0000 0.0000 0.0000 15.5784
#
#
#
# Elastic Compliance Matrix: (Units=1/GPa)
#
#
# Indices 1 2 3 4 5 6 
#
# 1 0.015662 -0.007403 -0.002212 0.000000 0.000000 0.000000
# 2 -0.007403 0.020120 -0.003830 0.000000 0.000000 0.000000
# 3 -0.002212 -0.003830 0.009841 0.000000 0.000000 0.000000
# 4 0.000000 0.000000 0.000000 0.120611 0.000000 0.000000
# 5 0.000000 0.000000 0.000000 0.000000 0.042787 0.000000
# 6 0.000000 0.000000 0.000000 0.000000 0.000000 0.064191
#
#
# Mechanical properties :
#
#
# Convention : Reuss Voigt Hill
#
# Bulk Modulus (GPa) = 53.37762 55.54675 54.46219
# Shear Modulus (GPa) = 16.32146 20.90692 18.61419
#
# Velocity S-wave (km/s) = 2.77873 3.14493 2.96749
# Velocity P-wave (km/s) = 5.96212 6.28215 6.12423
#
# Compressibility (1/GPa) = 0.01873444
#
# Stress axis : x y z
#
# Youngs Moduli (GPa) = 63.84812 49.70239 101.61796
#
# Poissons Ratio (x) = 0.36792 0.22479
# Poissons Ratio (y) = 0.47264 0.38915
# Poissons Ratio (z) = 0.14124 0.19034
#
# Static dielectric constant tensor:
#      x y z
#    x 1.815290 0.000000 0.000000 
#    y 0.000000 1.894300 0.000000 
#    z 0.000000 0.000000 1.764800 
# 
# From -- ./inp_files/40695.got.cif
#   From: 2010.05.17/outbox.cif.g08.bks.cpg/sg52_21_cif.got.tgz:40695.got - 2010.06.03 12:15:38.
