data_PCOD9410553
_publ_section_title
;
Structure prediction by ZEFSAII (Michael W. Deem and Ramdas Pophale) SiO2 
 PCOD9410553
Probable space group: P N N A
;
_chemical_formula_sum "Si O2"
_cell_formula_units_Z 40
_cell_length_a 29.098899
_cell_length_b 7.770617
_cell_length_c 7.900585
_cell_angle_alpha 90.000000
_cell_angle_beta 90.000000
_cell_angle_gamma 90.000000
_cell_volume 1786.451832
_symmetry_space_group_name_H-M "P N N A"
_symmetry_group_IT_number 52
_symmetry_cell_setting 'orthorhombic'
loop_
_space_group_symop_operation_xyz
x,y,z
1/2-x,-y,z
x,1/2-y,1/2-z
1/2-x,1/2+y,1/2-z
-x,-y,-z
1/2+x,y,-z
-x,1/2+y,1/2+z
1/2+x,1/2-y,1/2+z
loop_
_atom_site_type_symbol
_atom_site_label
_atom_site_fract_x
_atom_site_fract_y
_atom_site_fract_z
Si Si1 0.466873 0.281946 0.943262
Si Si2 0.132116 0.734929 0.454907
Si Si3 0.197776 0.059093 0.057642
Si Si4 0.656512 0.110207 0.563973
Si Si5 0.062332 0.316795 0.932508
O O1 0.477378 0.250000 0.750000
O O2 0.452803 0.483443 0.953742
O O3 0.420054 0.189471 0.997394
O O4 0.513043 0.226797 0.038595
O O5 0.132862 0.750000 0.250000
O O6 0.166081 0.588907 0.519279
O O7 0.148387 0.923199 0.517693
O O8 0.178361 0.075444 0.251111
O O9 0.189652 0.248065 0.981347
O O10 0.250000 0.000000 0.060672
O O11 0.605776 0.198167 0.557609
O O12 0.078589 0.250000 0.750000
#
# Coordination Sequence:
#
# PCOD9410553 Si02
#       5
#     8   8   8   8   8
#     4  10  22  37  60  89 121 159 205 245 297 367
#     4   9  19  37  57  85 122 157 194 251 304 356
#     4  10  21  34  61  90 115 153 205 252 309 353
#     4   9  21  35  56  87 122 148 199 251 296 359
#     4  10  22  40  58  87 126 162 197 247 306 363
#
# _framework density 22.390754000000001
#
# number of rings (size 3 to 8) (size 9 to 14) (size 15 to 20)
#    0.000    2.400    0.000    0.600   14.000    2.400 
#    0.000    0.000    0.000    2.400    0.000    0.000 
#    0.000    0.000    0.000    0.000    0.000    0.000 
#
# Total GULP energy -222947.079621 kJ/mol
# GULP energy per Si atom -5573.676991 kJ/mol
# Density = 2.233979 g / cm^3
# Si number density = 22.390754 Si / 1000 Ang^3
#
#
#
# Elastic Constant Matrix: (Units=GPa)
#
#
# Indices 1 2 3 4 5 6 
#
# 1 171.8420 58.6441 15.5230 0.0000 0.0000 0.0000
# 2 58.6441 76.8040 -3.5695 0.0000 0.0000 0.0000
# 3 15.5230 -3.5695 39.3172 0.0000 0.0000 0.0000
# 4 0.0000 0.0000 0.0000 8.1648 0.0000 0.0000
# 5 0.0000 0.0000 0.0000 0.0000 30.5257 0.0000
# 6 0.0000 0.0000 0.0000 0.0000 0.0000 46.5260
#
#
#
# Elastic Compliance Matrix: (Units=1/GPa)
#
#
# Indices 1 2 3 4 5 6 
#
# 1 0.008435 -0.006623 -0.003931 0.000000 0.000000 0.000000
# 2 -0.006623 0.018276 0.004274 0.000000 0.000000 0.000000
# 3 -0.003931 0.004274 0.027374 0.000000 0.000000 0.000000
# 4 0.000000 0.000000 0.000000 0.122477 0.000000 0.000000
# 5 0.000000 0.000000 0.000000 0.000000 0.032759 0.000000
# 6 0.000000 0.000000 0.000000 0.000000 0.000000 0.021493
#
#
# Mechanical properties :
#
#
# Convention : Reuss Voigt Hill
#
# Bulk Modulus (GPa) = 24.08238 47.68426 35.88332
# Shear Modulus (GPa) = 19.43889 31.53434 25.48662
#
# Velocity S-wave (km/s) = 2.94966 3.75689 3.37748
# Velocity P-wave (km/s) = 4.73070 6.33732 5.59201
#
# Compressibility (1/GPa) = 0.04152414
#
# Stress axis : x y z
#
# Youngs Moduli (GPa) = 118.55839 54.71698 36.53052
#
# Poissons Ratio (x) = 0.36239 0.14362
# Poissons Ratio (y) = 0.78522 -0.15613
# Poissons Ratio (z) = 0.46610 -0.23386
#
# Static dielectric constant tensor:
#      x y z
#    x 1.822530 0.000000 0.000000 
#    y 0.000000 1.933610 0.000000 
#    z 0.000000 0.000000 1.806150 
# 
# From -- ./inp_files/13973.got.cif
#   From: 2010.05.17/outbox.cif.g08.bks.cpg/sg52_7_cif.got.tgz:13973.got - 2010.06.03 12:15:38.
