data_PCOD9410021
_publ_section_title
;
Structure prediction by ZEFSAII (Michael W. Deem and Ramdas Pophale) SiO2 
 PCOD9410021
Probable space group: P N N A
;
_chemical_formula_sum "Si O2"
_cell_formula_units_Z 56
_cell_length_a 21.239570
_cell_length_b 24.702753
_cell_length_c 5.361921
_cell_angle_alpha 90.000000
_cell_angle_beta 90.000000
_cell_angle_gamma 90.000000
_cell_volume 2813.270467
_symmetry_space_group_name_H-M "P N N A"
_symmetry_group_IT_number 52
_symmetry_cell_setting 'orthorhombic'
loop_
_space_group_symop_operation_xyz
x,y,z
1/2-x,-y,z
x,1/2-y,1/2-z
1/2-x,1/2+y,1/2-z
-x,-y,-z
1/2+x,y,-z
-x,1/2+y,1/2+z
1/2+x,1/2-y,1/2+z
loop_
_atom_site_type_symbol
_atom_site_label
_atom_site_fract_x
_atom_site_fract_y
_atom_site_fract_z
Si Si1 0.286188 0.750000 0.750000
Si Si2 0.798958 0.250000 0.750000
Si Si3 0.118296 0.951909 0.821377
Si Si4 0.495368 0.064411 0.509849
Si Si5 0.689482 0.131293 0.164554
Si Si6 0.238118 0.555149 0.979201
Si Si7 0.070057 0.069803 0.986552
Si Si8 0.821684 0.133784 0.861186
O O1 0.243937 0.756260 0.498862
O O2 0.323843 0.806541 0.765070
O O3 0.837379 0.195075 0.792358
O O4 0.189327 0.965278 0.732684
O O5 0.077181 0.929873 0.589610
O O6 0.088135 0.005812 0.945023
O O7 0.125638 0.901633 0.006237
O O8 0.526200 0.084725 0.252903
O O9 0.500000 0.000000 0.500000
O O10 0.534750 0.079961 0.755213
O O11 0.701138 0.087182 0.382496
O O12 0.633394 0.105057 0.010697
O O13 0.757962 0.134707 0.031748
O O14 0.250000 0.500000 0.131365
O O15 0.201028 0.600594 0.125101
#
# Coordination Sequence:
#
# PCOD9410021 Si02
#       8
#     4   4   8   8   8   8   8   8
#     4  10  20  38  60  79 122 153 198 234 280 362
#     4  10  20  40  54  85 114 155 202 226 282 352
#     4  10  22  35  53  85 116 155 192 234 296 350
#     4  10  23  39  57  83 114 159 199 238 284 352
#     4  10  22  37  54  91 115 158 190 240 300 345
#     4  11  21  33  55  88 127 148 180 239 301 358
#     4  11  23  37  60  84 119 150 198 245 288 352
#     4  10  23  33  59  82 121 156 191 241 290 359
#
# _framework density 19.905657999999999
#
# number of rings (size 3 to 8) (size 9 to 14) (size 15 to 20)
#    0.000    1.714    2.857    1.714   10.000    0.000 
#    0.000    0.000    0.000    0.857    3.714    0.000 
#    0.000    0.000    0.000    0.000    0.000    0.000 
#
# Total GULP energy -312155.982503 kJ/mol
# GULP energy per Si atom -5574.213973 kJ/mol
# Density = 1.986035 g / cm^3
# Si number density = 19.905658 Si / 1000 Ang^3
#
#
#
# Elastic Constant Matrix: (Units=GPa)
#
#
# Indices 1 2 3 4 5 6 
#
# 1 53.7504 20.7387 12.8136 0.0000 0.0000 0.0000
# 2 20.7387 142.2165 14.6680 0.0000 0.0000 0.0000
# 3 12.8136 14.6680 81.3994 0.0000 0.0000 0.0000
# 4 0.0000 0.0000 0.0000 21.7769 0.0000 0.0000
# 5 0.0000 0.0000 0.0000 0.0000 -131.7658 0.0000
# 6 0.0000 0.0000 0.0000 0.0000 0.0000 9.3980
#
#
#
# Elastic Compliance Matrix: (Units=1/GPa)
#
#
# Indices 1 2 3 4 5 6 
#
# 1 0.020284 -0.002678 -0.002710 0.000000 0.000000 0.000000
# 2 -0.002678 0.007518 -0.000933 0.000000 0.000000 0.000000
# 3 -0.002710 -0.000933 0.012880 0.000000 0.000000 0.000000
# 4 0.000000 0.000000 0.000000 0.045920 0.000000 0.000000
# 5 0.000000 0.000000 0.000000 0.000000 -0.007589 0.000000
# 6 0.000000 0.000000 0.000000 0.000000 0.000000 0.106406
#
#
# Mechanical properties :
#
#
# Convention : Reuss Voigt Hill
#
# Bulk Modulus (GPa) = 35.66534 41.53411 38.59972
# Shear Modulus (GPa) = 24.10693 -4.84178 9.63257
#
# Velocity S-wave (km/s) = 3.48380 -1.56130 2.20218
# Velocity P-wave (km/s) = 5.84282 4.20245 5.08916
#
# Compressibility (1/GPa) = 0.02803843
#
# Stress axis : x y z
#
# Youngs Moduli (GPa) = 49.29984 133.00787 77.64025
#
# Poissons Ratio (x) = 0.35624 0.21044
# Poissons Ratio (y) = 0.13204 0.07245
# Poissons Ratio (z) = 0.13362 0.12412
#
# Static dielectric constant tensor:
#      x y z
#    x 1.725920 0.000000 0.000000 
#    y 0.000000 1.706770 0.000000 
#    z 0.000000 0.000000 1.901820 
# 
# From -- ./inp_files/4554.got.cif
#   From: 2010.05.17/outbox.cif.g08.bks.cpg/sg52_3_cif.got.tgz:4554.got - 2010.06.03 12:15:38.
