data_PCOD9410019
_publ_section_title
;
Structure prediction by ZEFSAII (Michael W. Deem and Ramdas Pophale) SiO2 
 PCOD9410019
Probable space group: P N N A
;
_chemical_formula_sum "Si O2"
_cell_formula_units_Z 56
_cell_length_a 13.436565
_cell_length_b 8.886518
_cell_length_c 19.935347
_cell_angle_alpha 90.000000
_cell_angle_beta 90.000000
_cell_angle_gamma 90.000000
_cell_volume 2380.365690
_symmetry_space_group_name_H-M "P N N A"
_symmetry_group_IT_number 52
_symmetry_cell_setting 'orthorhombic'
loop_
_space_group_symop_operation_xyz
x,y,z
1/2-x,-y,z
x,1/2-y,1/2-z
1/2-x,1/2+y,1/2-z
-x,-y,-z
1/2+x,y,-z
-x,1/2+y,1/2+z
1/2+x,1/2-y,1/2+z
loop_
_atom_site_type_symbol
_atom_site_label
_atom_site_fract_x
_atom_site_fract_y
_atom_site_fract_z
Si Si1 0.068911 0.827359 0.557363
Si Si2 0.387330 0.592111 0.783313
Si Si3 0.958782 0.084498 0.165689
Si Si4 0.750000 0.500000 0.093503
Si Si5 0.830407 0.756941 0.821036
Si Si6 0.750000 0.000000 0.922782
Si Si7 0.059570 0.652368 0.432914
Si Si8 0.575510 0.541661 0.866013
O O1 0.085430 0.716201 0.620120
O O2 0.177992 0.899236 0.546952
O O3 0.017172 0.728685 0.499636
O O4 0.993317 0.957405 0.578986
O O5 0.363690 0.750000 0.750000
O O6 0.384928 0.465618 0.725044
O O7 0.325027 0.575106 0.851843
O O8 0.502662 0.580235 0.804560
O O9 0.990808 0.943634 0.117492
O O10 0.062683 0.158918 0.190533
O O11 0.775523 0.750000 0.750000
O O12 0.780807 0.863122 0.875093
O O13 0.848491 0.587791 0.845679
O O14 0.650213 0.950433 0.959497
O O15 0.103950 0.797144 0.394284
#
# Coordination Sequence:
#
# PCOD9410019 Si02
#       8
#     8   8   8   4   8   4   8   8
#     4  10  23  42  63  91 126 170 213 253 307 378
#     4  11  21  39  62  97 129 155 208 258 319 383
#     4  10  21  39  68  89 120 163 209 261 309 368
#     4  10  26  38  59  99 134 166 200 258 330 384
#     4  10  20  38  59  88 118 154 196 253 318 372
#     4  10  26  38  55  89 122 158 202 252 316 372
#     4  11  22  44  61  89 125 163 219 257 303 374
#     4  10  21  37  68  90 115 166 209 260 304 363
#
# _framework density 23.525798000000002
#
# number of rings (size 3 to 8) (size 9 to 14) (size 15 to 20)
#    0.000    1.714    2.857    0.857    2.000    2.857 
#    2.571    2.857    0.000    0.000    0.000    0.000 
#    0.000    0.000    0.000    0.000    0.000    0.000 
#
# Total GULP energy -312625.345924 kJ/mol
# GULP energy per Si atom -5582.595463 kJ/mol
# Density = 2.347225 g / cm^3
# Si number density = 23.525798 Si / 1000 Ang^3
#
#
#
# Elastic Constant Matrix: (Units=GPa)
#
#
# Indices 1 2 3 4 5 6 
#
# 1 48.3306 27.1258 -6.9581 0.0000 0.0000 0.0000
# 2 27.1258 100.7304 2.2071 0.0000 0.0000 0.0000
# 3 -6.9581 2.2071 40.9587 0.0000 0.0000 0.0000
# 4 0.0000 0.0000 0.0000 -52.8042 0.0000 0.0000
# 5 0.0000 0.0000 0.0000 0.0000 -5.7151 0.0000
# 6 0.0000 0.0000 0.0000 0.0000 0.0000 21.0140
#
#
#
# Elastic Compliance Matrix: (Units=1/GPa)
#
#
# Indices 1 2 3 4 5 6 
#
# 1 0.025232 -0.006897 0.004658 0.000000 0.000000 0.000000
# 2 -0.006897 0.011824 -0.001809 0.000000 0.000000 0.000000
# 3 0.004658 -0.001809 0.025304 0.000000 0.000000 0.000000
# 4 0.000000 0.000000 0.000000 -0.018938 0.000000 0.000000
# 5 0.000000 0.000000 0.000000 0.000000 -0.174976 0.000000
# 6 0.000000 0.000000 0.000000 0.000000 0.000000 0.047587
#
#
# Mechanical properties :
#
#
# Convention : Reuss Voigt Hill
#
# Bulk Modulus (GPa) = 18.42804 26.08551 22.25678
# Shear Modulus (GPa) = -86.53164 3.67525 -41.42819
#
# Velocity S-wave (km/s) = -6.07136 1.25124 -4.20094
# Velocity P-wave (km/s) = 6.42639 3.63313 3.74826
#
# Compressibility (1/GPa) = 0.05426512
#
# Stress axis : x y z
#
# Youngs Moduli (GPa) = 39.63162 84.57081 39.52004
#
# Poissons Ratio (x) = 0.58328 -0.18409
# Poissons Ratio (y) = 0.27334 0.07149
# Poissons Ratio (z) = -0.18461 0.15297
#
# Static dielectric constant tensor:
#      x y z
#    x 1.962810 0.000000 0.000000 
#    y 0.000000 1.913070 0.000000 
#    z 0.000000 0.000000 1.926900 
# 
# From -- ./inp_files/37375.got.cif
#   From: 2010.05.17/outbox.cif.g08.bks.cpg/sg52_19_cif.got.tgz:37375.got - 2010.06.03 12:15:38.
