data_PCOD9410620
_publ_section_title
;
Structure prediction by ZEFSAII (Michael W. Deem and Ramdas Pophale) SiO2 
 PCOD9410620
Probable space group: P N N A
;
_chemical_formula_sum "Si O2"
_cell_formula_units_Z 40
_cell_length_a 15.166011
_cell_length_b 8.402945
_cell_length_c 15.122002
_cell_angle_alpha 90.000000
_cell_angle_beta 90.000000
_cell_angle_gamma 90.000000
_cell_volume 1927.135176
_symmetry_space_group_name_H-M "P N N A"
_symmetry_group_IT_number 52
_symmetry_cell_setting 'orthorhombic'
loop_
_space_group_symop_operation_xyz
x,y,z
1/2-x,-y,z
x,1/2-y,1/2-z
1/2-x,1/2+y,1/2-z
-x,-y,-z
1/2+x,y,-z
-x,1/2+y,1/2+z
1/2+x,1/2-y,1/2+z
loop_
_atom_site_type_symbol
_atom_site_label
_atom_site_fract_x
_atom_site_fract_y
_atom_site_fract_z
Si Si1 0.281626 0.822028 0.118025
Si Si2 0.869000 0.407107 0.860584
Si Si3 0.179637 0.120232 0.531093
Si Si4 0.964999 0.705815 0.352349
Si Si5 0.463233 0.897917 0.202254
O O1 0.222644 0.682349 0.162251
O O2 0.383767 0.824683 0.145115
O O3 0.250000 0.000000 0.134573
O O4 0.273403 0.770075 0.015958
O O5 0.912787 0.498900 0.778189
O O6 0.938614 0.268044 0.880781
O O7 0.857165 0.516896 0.947201
O O8 0.104958 0.195841 0.591251
O O9 0.250000 0.000000 0.574820
O O10 0.949541 0.750000 0.250000
O O11 0.973664 0.514682 0.352433
O O12 0.509933 0.750000 0.250000
#
# Coordination Sequence:
#
# PCOD9410620 Si02
#       5
#     8   8   8   8   8
#     4  11  22  34  55  90 126 160 199 244 312 385
#     4  10  21  36  58  87 121 166 198 250 315 382
#     4  10  22  40  60  85 118 161 212 258 316 364
#     4  10  22  40  60  86 119 160 210 257 311 370
#     4  11  22  34  56  92 128 163 202 250 321 382
#
# _framework density 20.756198000000001
#
# number of rings (size 3 to 8) (size 9 to 14) (size 15 to 20)
#    0.000    1.600    4.000    0.600    2.800    0.800 
#    0.000    3.000    0.000    1.200    0.000    0.000 
#    0.000    0.000    0.000    0.000    0.000    0.000 
#
# Total GULP energy -223066.822112 kJ/mol
# GULP energy per Si atom -5576.670553 kJ/mol
# Density = 2.070896 g / cm^3
# Si number density = 20.756198 Si / 1000 Ang^3
#
#
#
# Elastic Constant Matrix: (Units=GPa)
#
#
# Indices 1 2 3 4 5 6 
#
# 1 63.8013 39.6536 34.3310 0.0000 0.0000 0.0000
# 2 39.6536 149.8687 37.2735 0.0000 0.0000 0.0000
# 3 34.3310 37.2735 62.1441 0.0000 0.0000 0.0000
# 4 0.0000 0.0000 0.0000 22.3547 0.0000 0.0000
# 5 0.0000 0.0000 0.0000 0.0000 92.6580 0.0000
# 6 0.0000 0.0000 0.0000 0.0000 0.0000 21.5244
#
#
#
# Elastic Compliance Matrix: (Units=1/GPa)
#
#
# Indices 1 2 3 4 5 6 
#
# 1 0.023818 -0.003561 -0.011022 0.000000 0.000000 0.000000
# 2 -0.003561 0.008375 -0.003056 0.000000 0.000000 0.000000
# 3 -0.011022 -0.003056 0.024014 0.000000 0.000000 0.000000
# 4 0.000000 0.000000 0.000000 0.044733 0.000000 0.000000
# 5 0.000000 0.000000 0.000000 0.000000 0.010792 0.000000
# 6 0.000000 0.000000 0.000000 0.000000 0.000000 0.046459
#
#
# Mechanical properties :
#
#
# Convention : Reuss Voigt Hill
#
# Bulk Modulus (GPa) = 47.78210 55.37002 51.57606
# Shear Modulus (GPa) = 24.94458 38.27783 31.61121
#
# Velocity S-wave (km/s) = 3.47044 4.29903 3.90677
# Velocity P-wave (km/s) = 6.25534 7.16774 6.72703
#
# Compressibility (1/GPa) = 0.02092834
#
# Stress axis : x y z
#
# Youngs Moduli (GPa) = 41.98577 119.40793 41.64277
#
# Poissons Ratio (x) = 0.42516 0.45900
# Poissons Ratio (y) = 0.14949 0.12726
# Poissons Ratio (z) = 0.46278 0.36492
#
# Static dielectric constant tensor:
#      x y z
#    x 1.772610 0.000000 0.000000 
#    y 0.000000 1.836890 0.000000 
#    z 0.000000 0.000000 1.766040 
# 
# From -- ./inp_files/20322.got.cif
#   From: 2010.05.17/outbox.cif.g08.bks.cpg/sg52_11_cif.got.tgz:20322.got - 2010.06.03 12:15:38.
