data_PCOD9410429
_publ_section_title
;
Structure prediction by ZEFSAII (Michael W. Deem and Ramdas Pophale) SiO2 
 PCOD9410429
Probable space group: P N N A
;
_chemical_formula_sum "Si O2"
_cell_formula_units_Z 60
_cell_length_a 15.402077
_cell_length_b 22.523278
_cell_length_c 9.025135
_cell_angle_alpha 90.000000
_cell_angle_beta 90.000000
_cell_angle_gamma 90.000000
_cell_volume 3130.866822
_symmetry_space_group_name_H-M "P N N A"
_symmetry_group_IT_number 52
_symmetry_cell_setting 'orthorhombic'
loop_
_space_group_symop_operation_xyz
x,y,z
1/2-x,-y,z
x,1/2-y,1/2-z
1/2-x,1/2+y,1/2-z
-x,-y,-z
1/2+x,y,-z
-x,1/2+y,1/2+z
1/2+x,1/2-y,1/2+z
loop_
_atom_site_type_symbol
_atom_site_label
_atom_site_fract_x
_atom_site_fract_y
_atom_site_fract_z
Si Si1 0.544540 0.016606 0.346115
Si Si2 0.214074 0.062848 0.763938
Si Si3 0.155424 0.331223 0.522856
Si Si4 0.338919 0.200995 0.121427
Si Si5 0.936341 0.750000 0.250000
Si Si6 0.606261 0.892720 0.337919
Si Si7 0.551567 0.867435 0.676505
Si Si8 0.981658 0.300618 0.367558
O O1 0.641020 0.043442 0.353717
O O2 0.492482 0.070780 0.276017
O O3 0.500000 0.000000 0.500000
O O4 0.557507 0.951855 0.277516
O O5 0.292388 0.094261 0.678591
O O6 0.250000 0.000000 0.828940
O O7 0.174284 0.108888 0.882831
O O8 0.246316 0.312167 0.450224
O O9 0.125284 0.276469 0.625009
O O10 0.069045 0.334500 0.420092
O O11 0.330802 0.250000 0.250000
O O12 0.370259 0.143530 0.211530
O O13 0.417741 0.216791 0.005859
O O14 0.990939 0.808477 0.303310
O O15 0.579216 0.876114 0.505469
O O16 0.580448 0.841335 0.228966
O O17 0.008625 0.250000 0.250000
#
# Coordination Sequence:
#
# PCOD9410429 Si02
#       8
#     8   8   8   8   4   8   8   8
#     4   9  19  39  67  94 125 167 217 262 324 387
#     4  10  20  42  65  94 128 170 218 267 325 393
#     4  12  25  41  62  97 130 171 215 264 329 395
#     4  12  24  41  62  92 131 170 212 268 331 386
#     4  12  22  40  66  90 128 174 208 262 332 384
#     4  10  22  40  69  93 123 172 215 271 321 388
#     4  11  21  43  64  92 129 167 210 272 328 381
#     4  12  24  43  65  96 132 168 222 267 328 398
#
# _framework density 19.164023
#
# number of rings (size 3 to 8) (size 9 to 14) (size 15 to 20)
#    0.000    1.067    4.667    2.000    0.933    1.067 
#    7.200    2.000    0.000    0.000    0.000    0.000 
#    0.000    0.000    0.000    0.000    0.000    0.000 
#
# Total GULP energy -334103.146859 kJ/mol
# GULP energy per Si atom -5568.385781 kJ/mol
# Density = 1.912040 g / cm^3
# Si number density = 19.164023 Si / 1000 Ang^3
#
#
#
# Elastic Constant Matrix: (Units=GPa)
#
#
# Indices 1 2 3 4 5 6 
#
# 1 128.6225 39.2990 51.9536 0.0000 0.0000 0.0000
# 2 39.2990 79.1104 32.8034 0.0000 0.0000 0.0000
# 3 51.9536 32.8034 84.5886 0.0000 0.0000 0.0000
# 4 0.0000 0.0000 0.0000 21.5422 0.0000 0.0000
# 5 0.0000 0.0000 0.0000 0.0000 27.8372 0.0000
# 6 0.0000 0.0000 0.0000 0.0000 0.0000 20.6941
#
#
#
# Elastic Compliance Matrix: (Units=1/GPa)
#
#
# Indices 1 2 3 4 5 6 
#
# 1 0.010966 -0.003163 -0.005509 0.000000 0.000000 0.000000
# 2 -0.003163 0.015975 -0.004252 0.000000 0.000000 0.000000
# 3 -0.005509 -0.004252 0.016854 0.000000 0.000000 0.000000
# 4 0.000000 0.000000 0.000000 0.046420 0.000000 0.000000
# 5 0.000000 0.000000 0.000000 0.000000 0.035923 0.000000
# 6 0.000000 0.000000 0.000000 0.000000 0.000000 0.048323
#
#
# Mechanical properties :
#
#
# Convention : Reuss Voigt Hill
#
# Bulk Modulus (GPa) = 55.71893 60.04818 57.88355
# Shear Modulus (GPa) = 24.23731 25.23240 24.73486
#
# Velocity S-wave (km/s) = 3.56016 3.63251 3.59652
# Velocity P-wave (km/s) = 6.78510 6.99967 6.89322
#
# Compressibility (1/GPa) = 0.01794722
#
# Stress axis : x y z
#
# Youngs Moduli (GPa) = 91.18836 62.59689 59.33215
#
# Poissons Ratio (x) = 0.19802 0.32684
# Poissons Ratio (y) = 0.28847 0.25229
# Poissons Ratio (z) = 0.50232 0.26617
#
# Static dielectric constant tensor:
#      x y z
#    x 1.692140 0.000000 0.000000 
#    y 0.000000 1.703020 0.000000 
#    z 0.000000 0.000000 1.686980 
# 
# From -- ./inp_files/10962.got.cif
#   From: 2010.05.17/outbox.cif.g08.bks.cpg/sg52_6_cif.got.tgz:10962.got - 2010.06.03 12:15:38.
