data_PCOD9410495
_publ_section_title
;
Structure prediction by ZEFSAII (Michael W. Deem and Ramdas Pophale) SiO2 
 PCOD9410495
Probable space group: P N N A
;
_chemical_formula_sum "Si O2"
_cell_formula_units_Z 36
_cell_length_a 21.489049
_cell_length_b 10.305996
_cell_length_c 6.874106
_cell_angle_alpha 90.000000
_cell_angle_beta 90.000000
_cell_angle_gamma 90.000000
_cell_volume 1522.381124
_symmetry_space_group_name_H-M "P N N A"
_symmetry_group_IT_number 52
_symmetry_cell_setting 'orthorhombic'
loop_
_space_group_symop_operation_xyz
x,y,z
1/2-x,-y,z
x,1/2-y,1/2-z
1/2-x,1/2+y,1/2-z
-x,-y,-z
1/2+x,y,-z
-x,1/2+y,1/2+z
1/2+x,1/2-y,1/2+z
loop_
_atom_site_type_symbol
_atom_site_label
_atom_site_fract_x
_atom_site_fract_y
_atom_site_fract_z
Si Si1 0.750000 0.500000 0.285171
Si Si2 0.180451 0.250000 0.750000
Si Si3 0.424789 0.866816 0.019808
Si Si4 0.027762 0.750000 0.250000
Si Si5 0.621162 0.596514 0.295949
Si Si6 0.069718 0.498641 0.087409
O O1 0.776798 0.629502 0.184656
O O2 0.688939 0.563912 0.386292
O O3 0.135827 0.200448 0.923844
O O4 0.481939 0.786925 0.928025
O O5 0.427046 0.012104 0.923348
O O6 0.422697 0.888863 0.250504
O O7 0.071882 0.633160 0.199282
O O8 0.611149 0.750000 0.250000
O O9 0.615802 0.518036 0.091623
O O10 0.000000 0.500000 0.000000
#
# Coordination Sequence:
#
# PCOD9410495 Si02
#       6
#     4   4   8   4   8   8
#     4  10  20  44  68 102 124 180 230 288 344 410
#     4   9  20  42  74  92 140 178 229 292 354 412
#     4  10  23  43  62  99 137 184 221 274 349 417
#     4  11  22  42  64  94 140 174 223 276 328 420
#     4  11  23  42  69  97 133 180 230 287 347 410
#     4  12  25  39  66  99 138 180 222 279 343 419
#
# _framework density 23.647168000000001
#
# number of rings (size 3 to 8) (size 9 to 14) (size 15 to 20)
#    0.000    1.333    3.333    2.000    3.111    0.000 
#    0.000    4.444    4.889    0.000    0.000    0.000 
#    0.000    0.000    0.000    0.000    0.000    0.000 
#
# Total GULP energy -200812.187028 kJ/mol
# GULP energy per Si atom -5578.116306 kJ/mol
# Density = 2.359335 g / cm^3
# Si number density = 23.647168 Si / 1000 Ang^3
#
#
#
# Elastic Constant Matrix: (Units=GPa)
#
#
# Indices 1 2 3 4 5 6 
#
# 1 60.8718 29.2938 18.7358 0.0000 0.0000 0.0000
# 2 29.2938 173.2176 36.6721 0.0000 0.0000 0.0000
# 3 18.7358 36.6721 137.7776 0.0000 0.0000 0.0000
# 4 0.0000 0.0000 0.0000 32.3912 0.0000 0.0000
# 5 0.0000 0.0000 0.0000 0.0000 10.2186 0.0000
# 6 0.0000 0.0000 0.0000 0.0000 0.0000 44.9846
#
#
#
# Elastic Compliance Matrix: (Units=1/GPa)
#
#
# Indices 1 2 3 4 5 6 
#
# 1 0.018278 -0.002718 -0.001762 0.000000 0.000000 0.000000
# 2 -0.002718 0.006522 -0.001366 0.000000 0.000000 0.000000
# 3 -0.001762 -0.001366 0.007861 0.000000 0.000000 0.000000
# 4 0.000000 0.000000 0.000000 0.030873 0.000000 0.000000
# 5 0.000000 0.000000 0.000000 0.000000 0.097861 0.000000
# 6 0.000000 0.000000 0.000000 0.000000 0.000000 0.022230
#
#
# Mechanical properties :
#
#
# Convention : Reuss Voigt Hill
#
# Bulk Modulus (GPa) = 47.69023 60.14116 53.91569
# Shear Modulus (GPa) = 24.71482 36.66323 30.68902
#
# Velocity S-wave (km/s) = 3.23638 3.94182 3.60639
# Velocity P-wave (km/s) = 5.84609 6.79744 6.33964
#
# Compressibility (1/GPa) = 0.02096866
#
# Stress axis : x y z
#
# Youngs Moduli (GPa) = 54.70947 153.32661 127.20423
#
# Poissons Ratio (x) = 0.41676 0.22415
# Poissons Ratio (y) = 0.14871 0.17380
# Poissons Ratio (z) = 0.09640 0.20950
#
# Static dielectric constant tensor:
#      x y z
#    x 1.926650 0.000000 0.000000 
#    y 0.000000 2.033790 0.000000 
#    z 0.000000 0.000000 2.006100 
# 
# From -- ./inp_files/4963.got.cif
#   From: 2010.05.17/outbox.cif.g08.bks.cpg/sg52_3_cif.got.tgz:4963.got - 2010.06.03 12:15:38.
