data_PCOD9410362
_publ_section_title
;
Structure prediction by ZEFSAII (Michael W. Deem and Ramdas Pophale) SiO2 
 PCOD9410362
Probable space group: P N N A
;
_chemical_formula_sum "Si O2"
_cell_formula_units_Z 32
_cell_length_a 8.861720
_cell_length_b 12.726020
_cell_length_c 9.644021
_cell_angle_alpha 90.000000
_cell_angle_beta 90.000000
_cell_angle_gamma 90.000000
_cell_volume 1087.598932
_symmetry_space_group_name_H-M "P N N A"
_symmetry_group_IT_number 52
_symmetry_cell_setting 'orthorhombic'
loop_
_space_group_symop_operation_xyz
x,y,z
1/2-x,-y,z
x,1/2-y,1/2-z
1/2-x,1/2+y,1/2-z
-x,-y,-z
1/2+x,y,-z
-x,1/2+y,1/2+z
1/2+x,1/2-y,1/2+z
loop_
_atom_site_type_symbol
_atom_site_label
_atom_site_fract_x
_atom_site_fract_y
_atom_site_fract_z
Si Si1 0.171835 0.135390 0.722623
Si Si2 0.906658 0.110432 0.020214
Si Si3 0.574773 0.025615 0.648281
Si Si4 0.674374 0.234523 0.567241
O O1 0.108036 0.250000 0.750000
O O2 0.298928 0.112761 0.840237
O O3 0.461880 0.948841 0.730407
O O4 0.228792 0.157040 0.562606
O O5 0.036338 0.194098 0.027786
O O6 0.798779 0.173707 0.909871
O O7 0.000000 0.000000 0.000000
O O8 0.592724 0.150503 0.668481
O O9 0.750000 0.000000 0.665017
O O10 0.500000 0.000000 0.500000
#
# Coordination Sequence:
#
# PCOD9410362 Si02
#       4
#     8   8   8   8
#     4   9  21  41  71 115 161 211 273 339 420 522
#     4  11  23  42  71 109 162 218 271 343 433 515
#     4  10  20  40  75 114 156 206 267 344 419 501
#     4  10  21  41  72 112 154 211 270 336 422 518
#
# _framework density 29.422609000000001
#
# number of rings (size 3 to 8) (size 9 to 14) (size 15 to 20)
#    0.000    2.000    0.000    3.750    0.000    2.000 
#    0.000   22.500    0.000   84.000    0.000   21.000 
#    0.000    0.000    0.000    4.500    0.000    0.000 
#
# Total GULP energy -178285.047120 kJ/mol
# GULP energy per Si atom -5571.407723 kJ/mol
# Density = 2.935564 g / cm^3
# Si number density = 29.422609 Si / 1000 Ang^3
#
#
#
# Elastic Constant Matrix: (Units=GPa)
#
#
# Indices 1 2 3 4 5 6 
#
# 1 253.7418 144.4752 50.4478 0.0000 0.0000 0.0000
# 2 144.4752 312.7021 63.8326 0.0000 0.0000 0.0000
# 3 50.4478 63.8326 149.2310 0.0000 0.0000 0.0000
# 4 0.0000 0.0000 0.0000 40.0551 0.0000 0.0000
# 5 0.0000 0.0000 0.0000 0.0000 56.0592 0.0000
# 6 0.0000 0.0000 0.0000 0.0000 0.0000 104.2691
#
#
#
# Elastic Compliance Matrix: (Units=1/GPa)
#
#
# Indices 1 2 3 4 5 6 
#
# 1 0.005442 -0.002343 -0.000837 0.000000 0.000000 0.000000
# 2 -0.002343 0.004513 -0.001138 0.000000 0.000000 0.000000
# 3 -0.000837 -0.001138 0.007471 0.000000 0.000000 0.000000
# 4 0.000000 0.000000 0.000000 0.024966 0.000000 0.000000
# 5 0.000000 0.000000 0.000000 0.000000 0.017838 0.000000
# 6 0.000000 0.000000 0.000000 0.000000 0.000000 0.009591
#
#
# Mechanical properties :
#
#
# Convention : Reuss Voigt Hill
#
# Bulk Modulus (GPa) = 113.79112 137.02069 125.40590
# Shear Modulus (GPa) = 61.43499 70.53795 65.98647
#
# Velocity S-wave (km/s) = 4.57444 4.90164 4.74087
# Velocity P-wave (km/s) = 8.16452 8.87163 8.52541
#
# Compressibility (1/GPa) = 0.00878803
#
# Stress axis : x y z
#
# Youngs Moduli (GPa) = 183.76679 221.58598 133.85223
#
# Poissons Ratio (x) = 0.51923 0.11207
# Poissons Ratio (y) = 0.43061 0.15235
# Poissons Ratio (z) = 0.15386 0.25222
#
# Static dielectric constant tensor:
#      x y z
#    x 2.250110 0.000000 0.000000 
#    y 0.000000 2.361790 0.000000 
#    z 0.000000 0.000000 2.723360 
# 
# From -- ./inp_files/16416.got.cif
#   From: 2010.05.17/outbox.cif.g08.bks.cpg/sg52_9_cif.got.tgz:16416.got - 2010.06.03 12:15:38.
