data_PCOD9410455
_publ_section_title
;
Structure prediction by ZEFSAII (Michael W. Deem and Ramdas Pophale) SiO2 
 PCOD9410455
Probable space group: P N N A
;
_chemical_formula_sum "Si O2"
_cell_formula_units_Z 56
_cell_length_a 17.302997
_cell_length_b 25.767964
_cell_length_c 6.221462
_cell_angle_alpha 90.000000
_cell_angle_beta 90.000000
_cell_angle_gamma 90.000000
_cell_volume 2773.919735
_symmetry_space_group_name_H-M "P N N A"
_symmetry_group_IT_number 52
_symmetry_cell_setting 'orthorhombic'
loop_
_space_group_symop_operation_xyz
x,y,z
1/2-x,-y,z
x,1/2-y,1/2-z
1/2-x,1/2+y,1/2-z
-x,-y,-z
1/2+x,y,-z
-x,1/2+y,1/2+z
1/2+x,1/2-y,1/2+z
loop_
_atom_site_type_symbol
_atom_site_label
_atom_site_fract_x
_atom_site_fract_y
_atom_site_fract_z
Si Si1 0.910918 0.662456 0.536961
Si Si2 0.014890 0.590180 0.256233
Si Si3 0.975056 0.324276 0.102545
Si Si4 0.786527 0.920074 0.987754
Si Si5 0.877246 0.103666 0.117716
Si Si6 0.390639 0.506301 0.792112
Si Si7 0.477293 0.750000 0.750000
Si Si8 0.750000 0.000000 0.625368
O O1 0.964734 0.616142 0.446946
O O2 0.830657 0.633291 0.564786
O O3 0.922857 0.706922 0.359798
O O4 0.948406 0.682895 0.755121
O O5 0.971049 0.537784 0.192037
O O6 0.098068 0.595599 0.368294
O O7 0.012536 0.627241 0.053317
O O8 0.908604 0.344026 0.267852
O O9 0.970394 0.275803 0.938703
O O10 0.757051 0.950047 0.778484
O O11 0.714185 0.904019 0.134072
O O12 0.840610 0.961644 0.113669
O O13 0.911331 0.051870 0.225605
O O14 0.329266 0.501598 0.986801
#
# Coordination Sequence:
#
# PCOD9410455 Si02
#       8
#     8   8   8   8   8   8   4   4
#     4   9  20  39  65  86 112 147 207 248 296 365
#     4   9  21  35  56  86 118 163 200 240 286 350
#     4  10  21  38  62  92 113 150 199 251 307 361
#     4  11  22  38  57  88 126 167 207 246 295 359
#     4  11  21  36  55  87 130 160 195 249 299 356
#     4  11  21  37  54  84 123 174 212 240 278 350
#     4  10  20  42  70  88 106 146 204 262 312 364
#     4  12  20  34  58  80 126 176 210 242 290 344
#
# _framework density 20.188040000000001
#
# number of rings (size 3 to 8) (size 9 to 14) (size 15 to 20)
#    0.000    1.714    2.857    1.714    2.000    0.571 
#    0.000    0.000    9.429    0.000    0.000    0.000 
#    0.000    0.000    0.000    0.000    0.000    0.000 
#
# Total GULP energy -311997.532399 kJ/mol
# GULP energy per Si atom -5571.384507 kJ/mol
# Density = 2.014209 g / cm^3
# Si number density = 20.188040 Si / 1000 Ang^3
#
#
#
# Elastic Constant Matrix: (Units=GPa)
#
#
# Indices 1 2 3 4 5 6 
#
# 1 32.3271 30.7702 18.3215 0.0000 0.0000 0.0000
# 2 30.7702 104.7024 35.9032 0.0000 0.0000 0.0000
# 3 18.3215 35.9032 90.9469 0.0000 0.0000 0.0000
# 4 0.0000 0.0000 0.0000 40.5672 0.0000 0.0000
# 5 0.0000 0.0000 0.0000 0.0000 6.6472 0.0000
# 6 0.0000 0.0000 0.0000 0.0000 0.0000 22.7514
#
#
#
# Elastic Compliance Matrix: (Units=1/GPa)
#
#
# Indices 1 2 3 4 5 6 
#
# 1 0.044412 -0.011547 -0.004388 0.000000 0.000000 0.000000
# 2 -0.011547 0.014048 -0.003220 0.000000 0.000000 0.000000
# 3 -0.004388 -0.003220 0.013151 0.000000 0.000000 0.000000
# 4 0.000000 0.000000 0.000000 0.024650 0.000000 0.000000
# 5 0.000000 0.000000 0.000000 0.000000 0.150439 0.000000
# 6 0.000000 0.000000 0.000000 0.000000 0.000000 0.043953
#
#
# Mechanical properties :
#
#
# Convention : Reuss Voigt Hill
#
# Bulk Modulus (GPa) = 30.02962 44.21846 37.12404
# Shear Modulus (GPa) = 14.70309 23.52526 19.11418
#
# Velocity S-wave (km/s) = 2.70164 3.41736 3.08036
# Velocity P-wave (km/s) = 4.96378 6.12552 5.57499
#
# Compressibility (1/GPa) = 0.03330045
#
# Stress axis : x y z
#
# Youngs Moduli (GPa) = 22.51644 71.18231 76.04251
#
# Poissons Ratio (x) = 0.82195 0.33371
# Poissons Ratio (y) = 0.26000 0.24484
# Poissons Ratio (z) = 0.09881 0.22919
#
# Static dielectric constant tensor:
#      x y z
#    x 1.784350 0.000000 0.000000 
#    y 0.000000 1.715920 0.000000 
#    z 0.000000 0.000000 1.781050 
# 
# From -- ./inp_files/2683.got.cif
#   From: 2010.05.17/outbox.cif.g08.bks.cpg/sg52_2_cif.got.tgz:2683.got - 2010.06.03 12:15:38.
