data_PCOD9410358
_publ_section_title
;
Structure prediction by ZEFSAII (Michael W. Deem and Ramdas Pophale) SiO2 
 PCOD9410358
Probable space group: P N N A
;
_chemical_formula_sum "Si O2"
_cell_formula_units_Z 40
_cell_length_a 8.604941
_cell_length_b 8.663628
_cell_length_c 25.910867
_cell_angle_alpha 90.000000
_cell_angle_beta 90.000000
_cell_angle_gamma 90.000000
_cell_volume 1931.655337
_symmetry_space_group_name_H-M "P N N A"
_symmetry_group_IT_number 52
_symmetry_cell_setting 'orthorhombic'
loop_
_space_group_symop_operation_xyz
x,y,z
1/2-x,-y,z
x,1/2-y,1/2-z
1/2-x,1/2+y,1/2-z
-x,-y,-z
1/2+x,y,-z
-x,1/2+y,1/2+z
1/2+x,1/2-y,1/2+z
loop_
_atom_site_type_symbol
_atom_site_label
_atom_site_fract_x
_atom_site_fract_y
_atom_site_fract_z
Si Si1 0.476055 0.374512 0.136069
Si Si2 0.250000 0.500000 0.796132
Si Si3 0.613553 0.388359 0.030992
Si Si4 0.105239 0.396535 0.460853
Si Si5 0.969097 0.250000 0.250000
Si Si6 0.132401 0.269430 0.142921
O O1 0.631193 0.389991 0.171194
O O2 0.529821 0.318981 0.080200
O O3 0.320717 0.276811 0.148102
O O4 0.420312 0.553339 0.132793
O O5 0.138746 0.605328 0.762363
O O6 0.750000 0.500000 0.049362
O O7 0.500000 0.500000 0.000000
O O8 0.662444 0.252230 0.993237
O O9 0.250000 0.500000 0.447704
O O10 0.058456 0.327816 0.404693
O O11 0.000000 0.500000 0.500000
O O12 0.068018 0.220835 0.198492
#
# Coordination Sequence:
#
# PCOD9410358 Si02
#       6
#     8   4   8   8   4   8
#     4  10  20  40  72  96 122 173 236 282 310 403
#     4  10  22  44  68 100 130 164 228 286 344 394
#     4  12  22  39  69  95 126 182 229 272 328 402
#     4  12  26  42  60 100 145 176 214 278 354 418
#     4  10  24  46  70  96 130 176 224 286 340 408
#     4  10  22  44  65  95 135 174 226 275 339 408
#
# _framework density 20.707629000000001
#
# number of rings (size 3 to 8) (size 9 to 14) (size 15 to 20)
#    0.000    1.200    3.000    3.600    0.000    0.800 
#   16.200    0.000    0.000    0.000    0.000    0.000 
#    0.000    0.000    0.000    0.000    0.000    0.000 
#
# Total GULP energy -223112.033143 kJ/mol
# GULP energy per Si atom -5577.800829 kJ/mol
# Density = 2.066050 g / cm^3
# Si number density = 20.707629 Si / 1000 Ang^3
#
#
#
# Elastic Constant Matrix: (Units=GPa)
#
#
# Indices 1 2 3 4 5 6 
#
# 1 103.3590 14.5498 56.8080 0.0000 0.0000 0.0000
# 2 14.5498 58.3822 37.5296 0.0000 0.0000 0.0000
# 3 56.8080 37.5296 169.9145 0.0000 0.0000 0.0000
# 4 0.0000 0.0000 0.0000 32.2351 0.0000 0.0000
# 5 0.0000 0.0000 0.0000 0.0000 28.5658 0.0000
# 6 0.0000 0.0000 0.0000 0.0000 0.0000 30.5463
#
#
#
# Elastic Compliance Matrix: (Units=1/GPa)
#
#
# Indices 1 2 3 4 5 6 
#
# 1 0.011864 -0.000474 -0.003862 0.000000 0.000000 0.000000
# 2 -0.000474 0.019982 -0.004255 0.000000 0.000000 0.000000
# 3 -0.003862 -0.004255 0.008116 0.000000 0.000000 0.000000
# 4 0.000000 0.000000 0.000000 0.031022 0.000000 0.000000
# 5 0.000000 0.000000 0.000000 0.000000 0.035007 0.000000
# 6 0.000000 0.000000 0.000000 0.000000 0.000000 0.032737
#
#
# Mechanical properties :
#
#
# Convention : Reuss Voigt Hill
#
# Bulk Modulus (GPa) = 43.89742 61.04782 52.47262
# Shear Modulus (GPa) = 30.58023 33.12064 31.85044
#
# Velocity S-wave (km/s) = 3.84703 4.00364 3.92612
# Velocity P-wave (km/s) = 6.40137 7.13562 6.77844
#
# Compressibility (1/GPa) = 0.02278038
#
# Stress axis : x y z
#
# Youngs Moduli (GPa) = 84.28615 50.04536 123.20944
#
# Poissons Ratio (x) = 0.02373 0.47582
# Poissons Ratio (y) = 0.03997 0.52424
# Poissons Ratio (z) = 0.32550 0.21294
#
# Static dielectric constant tensor:
#      x y z
#    x 1.776450 0.000000 0.000000 
#    y 0.000000 1.795990 0.000000 
#    z 0.000000 0.000000 1.725000 
# 
# From -- ./inp_files/39258.got.cif
#   From: 2010.05.17/outbox.cif.g08.bks.cpg/sg52_20_cif.got.tgz:39258.got - 2010.06.03 12:15:38.
