data_PCOD9410471
_publ_section_title
;
Structure prediction by ZEFSAII (Michael W. Deem and Ramdas Pophale) SiO2 
 PCOD9410471
Probable space group: P N N A
;
_chemical_formula_sum "Si O2"
_cell_formula_units_Z 56
_cell_length_a 16.682693
_cell_length_b 19.470949
_cell_length_c 8.833468
_cell_angle_alpha 90.000000
_cell_angle_beta 90.000000
_cell_angle_gamma 90.000000
_cell_volume 2869.356547
_symmetry_space_group_name_H-M "P N N A"
_symmetry_group_IT_number 52
_symmetry_cell_setting 'orthorhombic'
loop_
_space_group_symop_operation_xyz
x,y,z
1/2-x,-y,z
x,1/2-y,1/2-z
1/2-x,1/2+y,1/2-z
-x,-y,-z
1/2+x,y,-z
-x,1/2+y,1/2+z
1/2+x,1/2-y,1/2+z
loop_
_atom_site_type_symbol
_atom_site_label
_atom_site_fract_x
_atom_site_fract_y
_atom_site_fract_z
Si Si1 0.204512 0.250000 0.750000
Si Si2 0.681255 0.813558 0.019231
Si Si3 0.067952 0.156786 0.627963
Si Si4 0.075800 0.750000 0.250000
Si Si5 0.387622 0.826439 0.280144
Si Si6 0.442972 0.542674 0.656226
Si Si7 0.799025 0.932334 0.913272
Si Si8 0.530724 0.888058 0.105274
O O1 0.262185 0.260604 0.607085
O O2 0.142649 0.188317 0.722088
O O3 0.633434 0.782313 0.877472
O O4 0.738453 0.876712 0.979751
O O5 0.612624 0.847464 0.122066
O O6 0.085593 0.167908 0.452566
O O7 0.066812 0.078862 0.683728
O O8 0.985975 0.195876 0.673144
O O9 0.352907 0.750000 0.250000
O O10 0.334589 0.891363 0.229937
O O11 0.463081 0.837819 0.168805
O O12 0.367325 0.548605 0.539090
O O13 0.509647 0.588256 0.566492
O O14 0.466431 0.463593 0.679176
O O15 0.750000 0.000000 0.873021
#
# Coordination Sequence:
#
# PCOD9410471 Si02
#       8
#     4   8   8   4   8   8   8   8
#     4  11  26  38  64  93 134 172 214 271 330 392
#     4  12  23  40  63  98 129 163 221 283 322 388
#     4  11  23  45  62  92 133 182 212 263 340 404
#     4  11  26  38  64  95 132 166 216 273 332 390
#     4  11  25  41  67  96 137 177 215 269 341 409
#     4  10  20  43  65  89 123 173 219 263 325 401
#     4  11  23  43  66  93 129 179 224 267 333 406
#     4  10  22  39  67  95 122 164 220 270 323 397
#
# _framework density 19.516572
#
# number of rings (size 3 to 8) (size 9 to 14) (size 15 to 20)
#    0.000    1.143    4.286    1.714   10.000    0.571 
#    0.000    2.143    0.000    0.000    0.000    0.000 
#    0.000    0.000    0.000    0.000    0.000    0.000 
#
# Total GULP energy -312427.036358 kJ/mol
# GULP energy per Si atom -5579.054221 kJ/mol
# Density = 1.947215 g / cm^3
# Si number density = 19.516572 Si / 1000 Ang^3
#
#
#
# Elastic Constant Matrix: (Units=GPa)
#
#
# Indices 1 2 3 4 5 6 
#
# 1 70.9161 8.0153 -13.6161 0.0000 0.0000 0.0000
# 2 8.0153 77.5912 16.4153 0.0000 0.0000 0.0000
# 3 -13.6161 16.4153 40.0474 0.0000 0.0000 0.0000
# 4 0.0000 0.0000 0.0000 28.4411 0.0000 0.0000
# 5 0.0000 0.0000 0.0000 0.0000 11.4366 0.0000
# 6 0.0000 0.0000 0.0000 0.0000 0.0000 -900.2090
#
#
#
# Elastic Compliance Matrix: (Units=1/GPa)
#
#
# Indices 1 2 3 4 5 6 
#
# 1 0.015704 -0.003013 0.006574 0.000000 0.000000 0.000000
# 2 -0.003013 0.014690 -0.007046 0.000000 0.000000 0.000000
# 3 0.006574 -0.007046 0.030094 0.000000 0.000000 0.000000
# 4 0.000000 0.000000 0.000000 0.035160 0.000000 0.000000
# 5 0.000000 0.000000 0.000000 0.000000 0.087439 0.000000
# 6 0.000000 0.000000 0.000000 0.000000 0.000000 -0.001111
#
#
# Mechanical properties :
#
#
# Convention : Reuss Voigt Hill
#
# Bulk Modulus (GPa) = 18.68505 23.35375 21.01940
# Shear Modulus (GPa) = 24.17974 -160.21692 -68.01859
#
# Velocity S-wave (km/s) = 3.52367 -9.07033 -5.90994
# Velocity P-wave (km/s) = 5.11368 9.88446 5.98134
#
# Compressibility (1/GPa) = 0.05351872
#
# Stress axis : x y z
#
# Youngs Moduli (GPa) = 63.67783 68.07375 33.22941
#
# Poissons Ratio (x) = 0.20512 -0.21847
# Poissons Ratio (y) = 0.19187 0.23413
# Poissons Ratio (z) = -0.41865 0.47964
#
# Static dielectric constant tensor:
#      x y z
#    x 1.723470 0.000000 0.000000 
#    y 0.000000 1.699660 0.000000 
#    z 0.000000 0.000000 1.683330 
# 
# From -- ./inp_files/10854.got.cif
#   From: 2010.05.17/outbox.cif.g08.bks.cpg/sg52_6_cif.got.tgz:10854.got - 2010.06.03 12:15:38.
