data_PCOD9410876
_publ_section_title
;
Structure prediction by ZEFSAII (Michael W. Deem and Ramdas Pophale) SiO2 
 PCOD9410876
Probable space group: P N N A
;
_chemical_formula_sum "Si O2"
_cell_formula_units_Z 32
_cell_length_a 21.198782
_cell_length_b 8.966178
_cell_length_c 8.861008
_cell_angle_alpha 90.000000
_cell_angle_beta 90.000000
_cell_angle_gamma 90.000000
_cell_volume 1684.229980
_symmetry_space_group_name_H-M "P N N A"
_symmetry_group_IT_number 52
_symmetry_cell_setting 'orthorhombic'
loop_
_space_group_symop_operation_xyz
x,y,z
1/2-x,-y,z
x,1/2-y,1/2-z
1/2-x,1/2+y,1/2-z
-x,-y,-z
1/2+x,y,-z
-x,1/2+y,1/2+z
1/2+x,1/2-y,1/2+z
loop_
_atom_site_type_symbol
_atom_site_label
_atom_site_fract_x
_atom_site_fract_y
_atom_site_fract_z
Si Si1 0.176761 0.505772 0.459193
Si Si2 0.820839 0.070482 0.285187
Si Si3 0.622930 0.250000 0.750000
Si Si4 0.121471 0.750000 0.250000
Si Si5 0.572918 0.499129 0.958729
O O1 0.250000 0.500000 0.487385
O O2 0.150372 0.503031 0.629028
O O3 0.160438 0.371347 0.347696
O O4 0.160965 0.658213 0.372758
O O5 0.814450 0.250000 0.250000
O O6 0.872201 0.031990 0.415742
O O7 0.750000 0.000000 0.317802
O O8 0.585564 0.344063 0.873887
O O9 0.081236 0.629251 0.163022
O O10 0.500000 0.500000 0.000000
#
# Coordination Sequence:
#
# PCOD9410876 Si02
#       5
#     8   8   4   4   8
#     4  10  21  38  65  95 132 170 217 272 338 394
#     4  11  25  43  69  99 134 176 226 278 340 392
#     4  10  25  40  62  98 127 176 226 266 340 394
#     4  10  21  42  60  94 131 174 218 278 328 398
#     4  11  26  44  68  94 136 178 228 277 334 404
#
# _framework density 18.999780000000001
#
# number of rings (size 3 to 8) (size 9 to 14) (size 15 to 20)
#    0.000    1.500    2.500    0.750    8.750    6.000 
#    0.000    5.000    0.000    0.000    0.000    0.000 
#    0.000    0.000    0.000    0.000    0.000    0.000 
#
# Total GULP energy -178247.825694 kJ/mol
# GULP energy per Si atom -5570.244553 kJ/mol
# Density = 1.895654 g / cm^3
# Si number density = 18.999780 Si / 1000 Ang^3
#
#
#
# Elastic Constant Matrix: (Units=GPa)
#
#
# Indices 1 2 3 4 5 6 
#
# 1 94.0354 25.1799 47.7582 0.0000 0.0000 0.0000
# 2 25.1799 88.7447 17.7431 0.0000 0.0000 0.0000
# 3 47.7582 17.7431 109.2384 0.0000 0.0000 0.0000
# 4 0.0000 0.0000 0.0000 28.6456 0.0000 0.0000
# 5 0.0000 0.0000 0.0000 0.0000 30.5473 0.0000
# 6 0.0000 0.0000 0.0000 0.0000 0.0000 -8.4366
#
#
#
# Elastic Compliance Matrix: (Units=1/GPa)
#
#
# Indices 1 2 3 4 5 6 
#
# 1 0.014364 -0.002915 -0.005806 0.000000 0.000000 0.000000
# 2 -0.002915 0.012238 -0.000714 0.000000 0.000000 0.000000
# 3 -0.005806 -0.000714 0.011809 0.000000 0.000000 0.000000
# 4 0.000000 0.000000 0.000000 0.034909 0.000000 0.000000
# 5 0.000000 0.000000 0.000000 0.000000 0.032736 0.000000
# 6 0.000000 0.000000 0.000000 0.000000 0.000000 -0.118532
#
#
# Mechanical properties :
#
#
# Convention : Reuss Voigt Hill
#
# Bulk Modulus (GPa) = 51.17333 52.59790 51.88562
# Shear Modulus (GPa) = 387.40641 23.57375 205.49008
#
# Velocity S-wave (km/s) = 14.29486 3.52623 10.41099
# Velocity P-wave (km/s) = 17.30461 6.65752 13.11053
#
# Compressibility (1/GPa) = 0.01954143
#
# Stress axis : x y z
#
# Youngs Moduli (GPa) = 69.62058 81.71334 84.68385
#
# Poissons Ratio (x) = 0.23816 0.49169
# Poissons Ratio (y) = 0.20291 0.06042
# Poissons Ratio (z) = 0.40423 0.05830
#
# Static dielectric constant tensor:
#      x y z
#    x 1.648360 0.000000 0.000000 
#    y 0.000000 1.694320 0.000000 
#    z 0.000000 0.000000 1.691090 
# 
# From -- ./inp_files/12830.got.cif
#   From: 2010.05.17/outbox.cif.g08.bks.cpg/sg52_7_cif.got.tgz:12830.got - 2010.06.03 12:15:38.
