data_PCOD9410745
_publ_section_title
;
Structure prediction by ZEFSAII (Michael W. Deem and Ramdas Pophale) SiO2 
 PCOD9410745
Probable space group: P N N A
;
_chemical_formula_sum "Si O2"
_cell_formula_units_Z 60
_cell_length_a 29.072745
_cell_length_b 9.354246
_cell_length_c 11.325561
_cell_angle_alpha 90.000000
_cell_angle_beta 90.000000
_cell_angle_gamma 90.000000
_cell_volume 3080.027184
_symmetry_space_group_name_H-M "P N N A"
_symmetry_group_IT_number 52
_symmetry_cell_setting 'orthorhombic'
loop_
_space_group_symop_operation_xyz
x,y,z
1/2-x,-y,z
x,1/2-y,1/2-z
1/2-x,1/2+y,1/2-z
-x,-y,-z
1/2+x,y,-z
-x,1/2+y,1/2+z
1/2+x,1/2-y,1/2+z
loop_
_atom_site_type_symbol
_atom_site_label
_atom_site_fract_x
_atom_site_fract_y
_atom_site_fract_z
Si Si1 0.101177 0.022473 0.520703
Si Si2 0.461293 0.778244 0.889003
Si Si3 0.068115 0.748088 0.390511
Si Si4 0.664018 0.581741 0.229013
Si Si5 0.156824 0.248864 0.381677
Si Si6 0.750000 0.500000 0.085962
Si Si7 0.258901 0.159551 0.352552
Si Si8 0.613819 0.497822 0.467199
O O1 0.079090 0.904182 0.438600
O O2 0.123013 0.945636 0.634859
O O3 0.063654 0.142533 0.551971
O O4 0.140936 0.107930 0.451163
O O5 0.457335 0.750000 0.750000
O O6 0.514978 0.788979 0.917780
O O7 0.432579 0.917821 0.924624
O O8 0.074736 0.750000 0.250000
O O9 0.100523 0.636923 0.458564
O O10 0.675208 0.750000 0.250000
O O11 0.706687 0.491250 0.174965
O O12 0.645342 0.527628 0.354213
O O13 0.136770 0.250000 0.250000
O O14 0.211432 0.243891 0.370566
O O15 0.139858 0.386063 0.450177
O O16 0.730472 0.619179 0.990530
O O17 0.285341 0.250000 0.250000
O O18 0.250000 0.000000 0.302077
#
# Coordination Sequence:
#
# PCOD9410745 Si02
#       8
#     8   8   8   8   8   4   8   8
#     4  11  20  40  64  88 131 169 213 266 335 389
#     4  10  21  37  63  94 126 168 216 268 330 402
#     4  11  23  39  61  95 128 166 223 275 322 391
#     4  12  24  44  65  96 132 177 221 272 332 396
#     4  10  21  39  63  91 122 167 213 258 325 394
#     4  10  24  44  64 100 134 170 228 278 318 398
#     4   9  19  41  64  93 131 165 210 267 325 381
#     4  11  23  40  66  91 129 174 212 269 334 394
#
# _framework density 19.480346999999998
#
# number of rings (size 3 to 8) (size 9 to 14) (size 15 to 20)
#    0.400    1.067    4.000    1.600    0.000    1.067 
#    4.800    1.333    2.933    0.000    0.000    0.000 
#    0.000    0.000    0.000    0.000    0.000    0.000 
#
# Total GULP energy -334386.242855 kJ/mol
# GULP energy per Si atom -5573.104048 kJ/mol
# Density = 1.943601 g / cm^3
# Si number density = 19.480347 Si / 1000 Ang^3
#
#
#
# Elastic Constant Matrix: (Units=GPa)
#
#
# Indices 1 2 3 4 5 6 
#
# 1 54.6151 10.7146 49.6386 0.0000 0.0000 0.0000
# 2 10.7146 73.5977 34.6034 0.0000 0.0000 0.0000
# 3 49.6386 34.6034 123.7189 0.0000 0.0000 0.0000
# 4 0.0000 0.0000 0.0000 27.2590 0.0000 0.0000
# 5 0.0000 0.0000 0.0000 0.0000 20.9619 0.0000
# 6 0.0000 0.0000 0.0000 0.0000 0.0000 5.6902
#
#
#
# Elastic Compliance Matrix: (Units=1/GPa)
#
#
# Indices 1 2 3 4 5 6 
#
# 1 0.028950 0.001435 -0.012017 0.000000 0.000000 0.000000
# 2 0.001435 0.015716 -0.004972 0.000000 0.000000 0.000000
# 3 -0.012017 -0.004972 0.014295 0.000000 0.000000 0.000000
# 4 0.000000 0.000000 0.000000 0.036685 0.000000 0.000000
# 5 0.000000 0.000000 0.000000 0.000000 0.047706 0.000000
# 6 0.000000 0.000000 0.000000 0.000000 0.000000 0.175742
#
#
# Mechanical properties :
#
#
# Convention : Reuss Voigt Hill
#
# Bulk Modulus (GPa) = 35.90054 49.09388 42.49721
# Shear Modulus (GPa) = 13.90880 21.24721 17.57800
#
# Velocity S-wave (km/s) = 2.67496 3.30616 3.00717
# Velocity P-wave (km/s) = 5.29242 6.31116 5.82410
#
# Compressibility (1/GPa) = 0.02785473
#
# Stress axis : x y z
#
# Youngs Moduli (GPa) = 34.54197 63.62989 69.95564
#
# Poissons Ratio (x) = -0.09133 0.84065
# Poissons Ratio (y) = -0.04958 0.34779
# Poissons Ratio (z) = 0.41509 0.31634
#
# Static dielectric constant tensor:
#      x y z
#    x 1.694170 0.000000 0.000000 
#    y 0.000000 1.618260 0.000000 
#    z 0.000000 0.000000 1.686710 
# 
# From -- ./inp_files/22877.got.cif
#   From: 2010.05.17/outbox.cif.g08.bks.cpg/sg52_12_cif.got.tgz:22877.got - 2010.06.03 12:15:38.
