data_PCOD9410875
_publ_section_title
;
Structure prediction by ZEFSAII (Michael W. Deem and Ramdas Pophale) SiO2 
 PCOD9410875
Probable space group: P N N A
;
_chemical_formula_sum "Si O2"
_cell_formula_units_Z 56
_cell_length_a 8.187646
_cell_length_b 20.892273
_cell_length_c 15.994275
_cell_angle_alpha 90.000000
_cell_angle_beta 90.000000
_cell_angle_gamma 90.000000
_cell_volume 2735.957257
_symmetry_space_group_name_H-M "P N N A"
_symmetry_group_IT_number 52
_symmetry_cell_setting 'orthorhombic'
loop_
_space_group_symop_operation_xyz
x,y,z
1/2-x,-y,z
x,1/2-y,1/2-z
1/2-x,1/2+y,1/2-z
-x,-y,-z
1/2+x,y,-z
-x,1/2+y,1/2+z
1/2+x,1/2-y,1/2+z
loop_
_atom_site_type_symbol
_atom_site_label
_atom_site_fract_x
_atom_site_fract_y
_atom_site_fract_z
Si Si1 0.605069 0.551402 0.742102
Si Si2 0.563036 0.985749 0.091485
Si Si3 0.874830 0.769807 0.049843
Si Si4 0.297436 0.818940 0.257923
Si Si5 0.676613 0.817117 0.567595
Si Si6 0.450031 0.335067 0.611615
Si Si7 0.917445 0.461274 0.925613
O O1 0.750000 0.500000 0.742989
O O2 0.508222 0.532855 0.660506
O O3 0.683064 0.621648 0.734061
O O4 0.511385 0.543231 0.830809
O O5 0.536791 0.911549 0.111907
O O6 0.750000 0.000000 0.089789
O O7 0.500000 0.000000 0.000000
O O8 0.739250 0.811181 0.101280
O O9 0.030628 0.733162 0.090074
O O10 0.766346 0.713139 0.010813
O O11 0.949865 0.809164 0.970180
O O12 0.215363 0.750000 0.250000
O O13 0.310194 0.825994 0.358226
O O14 0.454847 0.815550 0.197101
O O15 0.608299 0.887471 0.549631
O O16 0.750000 0.500000 0.914568
O O17 0.000000 0.500000 0.000000
#
# Coordination Sequence:
#
# PCOD9410875 Si02
#       7
#     8   8   8   8   8   8   8
#     4  10  22  42  65  94 134 175 225 278 331 411
#     4  12  26  42  66  99 133 179 226 279 342 406
#     4  10  22  40  67  98 130 170 228 275 330 412
#     4  11  22  40  68  95 133 182 220 275 349 400
#     4  10  21  40  66  95 133 174 220 278 340 407
#     4  11  23  42  67  96 135 176 223 279 338 412
#     4  10  21  38  65  95 128 175 219 272 340 397
#
# _framework density 20.468154999999999
#
# number of rings (size 3 to 8) (size 9 to 14) (size 15 to 20)
#    0.000    1.429    2.857    2.143    2.000    1.714 
#    0.000    3.571    0.000    0.000    0.000    0.000 
#    0.000    0.000    0.000    0.000    0.000    0.000 
#
# Total GULP energy -312106.530918 kJ/mol
# GULP energy per Si atom -5573.330909 kJ/mol
# Density = 2.042157 g / cm^3
# Si number density = 20.468155 Si / 1000 Ang^3
#
#
#
# Elastic Constant Matrix: (Units=GPa)
#
#
# Indices 1 2 3 4 5 6 
#
# 1 64.0139 1.7762 41.1544 0.0000 0.0000 0.0000
# 2 1.7762 119.1541 17.7708 0.0000 0.0000 0.0000
# 3 41.1544 17.7708 90.2816 0.0000 0.0000 0.0000
# 4 0.0000 0.0000 0.0000 29.7343 0.0000 0.0000
# 5 0.0000 0.0000 0.0000 0.0000 38.3267 0.0000
# 6 0.0000 0.0000 0.0000 0.0000 0.0000 25.3890
#
#
#
# Elastic Compliance Matrix: (Units=1/GPa)
#
#
# Indices 1 2 3 4 5 6 
#
# 1 0.022268 0.001218 -0.010390 0.000000 0.000000 0.000000
# 2 0.001218 0.008713 -0.002270 0.000000 0.000000 0.000000
# 3 -0.010390 -0.002270 0.016260 0.000000 0.000000 0.000000
# 4 0.000000 0.000000 0.000000 0.033631 0.000000 0.000000
# 5 0.000000 0.000000 0.000000 0.000000 0.026091 0.000000
# 6 0.000000 0.000000 0.000000 0.000000 0.000000 0.039387
#
#
# Mechanical properties :
#
#
# Convention : Reuss Voigt Hill
#
# Bulk Modulus (GPa) = 41.05960 43.87248 42.46604
# Shear Modulus (GPa) = 28.19222 32.87320 30.53271
#
# Velocity S-wave (km/s) = 3.71532 4.01192 3.86647
# Velocity P-wave (km/s) = 6.20553 6.55299 6.38163
#
# Compressibility (1/GPa) = 0.02435484
#
# Stress axis : x y z
#
# Youngs Moduli (GPa) = 44.90799 114.77228 61.50183
#
# Poissons Ratio (x) = -0.13976 0.63902
# Poissons Ratio (y) = -0.05468 0.13962
# Poissons Ratio (z) = 0.46661 0.26054
#
# Static dielectric constant tensor:
#      x y z
#    x 1.734780 0.000000 0.000000 
#    y 0.000000 1.721490 0.000000 
#    z 0.000000 0.000000 1.781000 
# 
# From -- ./inp_files/24962.got.cif
#   From: 2010.05.17/outbox.cif.g08.bks.cpg/sg52_13_cif.got.tgz:24962.got - 2010.06.03 12:15:38.
