data_PCOD9410748
_publ_section_title
;
Structure prediction by ZEFSAII (Michael W. Deem and Ramdas Pophale) SiO2 
 PCOD9410748
Probable space group: P N N A
;
_chemical_formula_sum "Si O2"
_cell_formula_units_Z 56
_cell_length_a 7.615180
_cell_length_b 12.953213
_cell_length_c 21.372005
_cell_angle_alpha 90.000000
_cell_angle_beta 90.000000
_cell_angle_gamma 90.000000
_cell_volume 2108.156983
_symmetry_space_group_name_H-M "P N N A"
_symmetry_group_IT_number 52
_symmetry_cell_setting 'orthorhombic'
loop_
_space_group_symop_operation_xyz
x,y,z
1/2-x,-y,z
x,1/2-y,1/2-z
1/2-x,1/2+y,1/2-z
-x,-y,-z
1/2+x,y,-z
-x,1/2+y,1/2+z
1/2+x,1/2-y,1/2+z
loop_
_atom_site_type_symbol
_atom_site_label
_atom_site_fract_x
_atom_site_fract_y
_atom_site_fract_z
Si Si1 0.457612 0.502832 0.571999
Si Si2 0.971790 0.818721 0.190323
Si Si3 0.293600 0.656884 0.986020
Si Si4 0.039558 0.519257 0.765719
Si Si5 0.013826 0.100499 0.395433
Si Si6 0.605165 0.771328 0.922296
Si Si7 0.059005 0.676750 0.661528
O O1 0.250000 0.500000 0.580455
O O2 0.500000 0.500000 0.500000
O O3 0.538670 0.612347 0.590209
O O4 0.519905 0.404819 0.611351
O O5 0.931447 0.750000 0.250000
O O6 0.117662 0.752203 0.151653
O O7 0.773385 0.822726 0.159989
O O8 0.027826 0.928690 0.220201
O O9 0.337978 0.599932 0.051111
O O10 0.230142 0.765918 0.017463
O O11 0.158675 0.601348 0.940214
O O12 0.462016 0.688550 0.946480
O O13 0.250000 0.500000 0.768981
O O14 0.976460 0.523101 0.837428
O O15 0.012477 0.627023 0.728575
O O16 0.000808 0.212316 0.362287
#
# Coordination Sequence:
#
# PCOD9410748 Si02
#       7
#     8   8   8   8   8   8   8
#     4  12  20  31  52  86 128 161 203 258 318 394
#     4  11  21  37  65  91 123 163 218 278 330 390
#     4  10  23  37  64  91 128 178 216 270 340 397
#     4  10  21  37  63  97 125 165 222 277 329 398
#     4  11  21  41  63  94 130 172 223 274 329 401
#     4  11  20  39  57  91 127 164 214 264 331 395
#     4  11  19  34  58  93 126 165 212 267 327 395
#
# _framework density 26.563486000000001
#
# number of rings (size 3 to 8) (size 9 to 14) (size 15 to 20)
#    0.000    1.143    4.286    5.143    0.000    0.000 
#    0.000    2.143    0.000    1.714    0.000    0.000 
#    0.000    0.000    0.000    0.000    0.000    0.000 
#
# Total GULP energy -312795.043887 kJ/mol
# GULP energy per Si atom -5585.625784 kJ/mol
# Density = 2.650303 g / cm^3
# Si number density = 26.563486 Si / 1000 Ang^3
#
#
#
# Elastic Constant Matrix: (Units=GPa)
#
#
# Indices 1 2 3 4 5 6 
#
# 1 60.4412 13.3294 32.0213 0.0000 0.0000 0.0000
# 2 13.3294 90.7969 29.8648 0.0000 0.0000 0.0000
# 3 32.0213 29.8648 186.8997 0.0000 0.0000 0.0000
# 4 0.0000 0.0000 0.0000 45.3319 0.0000 0.0000
# 5 0.0000 0.0000 0.0000 0.0000 10.2606 0.0000
# 6 0.0000 0.0000 0.0000 0.0000 0.0000 8.9062
#
#
#
# Elastic Compliance Matrix: (Units=1/GPa)
#
#
# Indices 1 2 3 4 5 6 
#
# 1 0.018460 -0.001762 -0.002881 0.000000 0.000000 0.000000
# 2 -0.001762 0.011793 -0.001582 0.000000 0.000000 0.000000
# 3 -0.002881 -0.001582 0.006097 0.000000 0.000000 0.000000
# 4 0.000000 0.000000 0.000000 0.022059 0.000000 0.000000
# 5 0.000000 0.000000 0.000000 0.000000 0.097460 0.000000
# 6 0.000000 0.000000 0.000000 0.000000 0.000000 0.112281
#
#
# Mechanical properties :
#
#
# Convention : Reuss Voigt Hill
#
# Bulk Modulus (GPa) = 41.84460 54.28544 48.06502
# Shear Modulus (GPa) = 17.32694 30.42791 23.87742
#
# Velocity S-wave (km/s) = 2.55676 3.38816 3.00139
# Velocity P-wave (km/s) = 4.95004 5.98220 5.49043
#
# Compressibility (1/GPa) = 0.02389795
#
# Stress axis : x y z
#
# Youngs Moduli (GPa) = 54.17093 84.79747 164.01658
#
# Poissons Ratio (x) = 0.14944 0.47255
# Poissons Ratio (y) = 0.09547 0.25955
# Poissons Ratio (z) = 0.15607 0.13419
#
# Static dielectric constant tensor:
#      x y z
#    x 1.949720 0.000000 0.000000 
#    y 0.000000 2.174830 0.000000 
#    z 0.000000 0.000000 1.017560 
# 
# From -- ./inp_files/36035.got.cif
#   From: 2010.05.17/outbox.cif.g08.bks.cpg/sg52_19_cif.got.tgz:36035.got - 2010.06.03 12:15:38.
