data_PCOD9410763
_publ_section_title
;
Structure prediction by ZEFSAII (Michael W. Deem and Ramdas Pophale) SiO2 
 PCOD9410763
Probable space group: P N N A
;
_chemical_formula_sum "Si O2"
_cell_formula_units_Z 40
_cell_length_a 8.711823
_cell_length_b 13.619831
_cell_length_c 15.760105
_cell_angle_alpha 90.000000
_cell_angle_beta 90.000000
_cell_angle_gamma 90.000000
_cell_volume 1869.992516
_symmetry_space_group_name_H-M "P N N A"
_symmetry_group_IT_number 52
_symmetry_cell_setting 'orthorhombic'
loop_
_space_group_symop_operation_xyz
x,y,z
1/2-x,-y,z
x,1/2-y,1/2-z
1/2-x,1/2+y,1/2-z
-x,-y,-z
1/2+x,y,-z
-x,1/2+y,1/2+z
1/2+x,1/2-y,1/2+z
loop_
_atom_site_type_symbol
_atom_site_label
_atom_site_fract_x
_atom_site_fract_y
_atom_site_fract_z
Si Si1 0.730434 0.307693 0.438636
Si Si2 0.923045 0.027074 0.637004
Si Si3 0.147737 0.596767 0.955762
Si Si4 0.914774 0.556777 0.302849
Si Si5 0.456512 0.581229 0.429752
O O1 0.751085 0.192036 0.440856
O O2 0.619196 0.352842 0.366422
O O3 0.679633 0.356437 0.528480
O O4 0.900418 0.346744 0.420327
O O5 0.912612 0.093095 0.552198
O O6 0.020310 0.078223 0.710536
O O7 0.750000 0.000000 0.662114
O O8 0.008631 0.925910 0.608370
O O9 0.250000 0.500000 0.947033
O O10 0.750000 0.500000 0.297313
O O11 0.040862 0.483205 0.344805
O O12 0.500000 0.500000 0.500000
#
# Coordination Sequence:
#
# PCOD9410763 Si02
#       5
#     8   8   8   8   8
#     4  10  21  37  69  94 125 172 222 261 332 401
#     4  10  22  39  67  90 133 172 223 279 333 378
#     4  10  23  42  66  91 130 182 226 265 320 409
#     4   9  19  40  63  94 131 169 212 280 342 387
#     4   9  19  36  63  94 124 162 211 266 330 396
#
# _framework density 21.390460000000001
#
# number of rings (size 3 to 8) (size 9 to 14) (size 15 to 20)
#    0.000    2.400    0.000    2.400    8.400    4.000 
#    0.000    9.000    8.800    0.000    0.000    0.000 
#    0.000    0.000    0.000    0.000    0.000    0.000 
#
# Total GULP energy -223188.384962 kJ/mol
# GULP energy per Si atom -5579.709624 kJ/mol
# Density = 2.134177 g / cm^3
# Si number density = 21.390460 Si / 1000 Ang^3
#
#
#
# Elastic Constant Matrix: (Units=GPa)
#
#
# Indices 1 2 3 4 5 6 
#
# 1 65.5704 44.2896 36.2273 0.0000 0.0000 0.0000
# 2 44.2896 148.9962 39.4779 0.0000 0.0000 0.0000
# 3 36.2273 39.4779 99.8502 0.0000 0.0000 0.0000
# 4 0.0000 0.0000 0.0000 7.5661 0.0000 0.0000
# 5 0.0000 0.0000 0.0000 0.0000 43.0841 0.0000
# 6 0.0000 0.0000 0.0000 0.0000 0.0000 34.2658
#
#
#
# Elastic Compliance Matrix: (Units=1/GPa)
#
#
# Indices 1 2 3 4 5 6 
#
# 1 0.021884 -0.004916 -0.005996 0.000000 0.000000 0.000000
# 2 -0.004916 0.008601 -0.001617 0.000000 0.000000 0.000000
# 3 -0.005996 -0.001617 0.012830 0.000000 0.000000 0.000000
# 4 0.000000 0.000000 0.000000 0.132169 0.000000 0.000000
# 5 0.000000 0.000000 0.000000 0.000000 0.023210 0.000000
# 6 0.000000 0.000000 0.000000 0.000000 0.000000 0.029184
#
#
# Mechanical properties :
#
#
# Convention : Reuss Voigt Hill
#
# Bulk Modulus (GPa) = 54.77527 61.60071 58.18799
# Shear Modulus (GPa) = 19.30325 29.94467 24.62396
#
# Velocity S-wave (km/s) = 3.00730 3.74559 3.39656
# Velocity P-wave (km/s) = 6.14177 6.89686 6.53024
#
# Compressibility (1/GPa) = 0.01825641
#
# Stress axis : x y z
#
# Youngs Moduli (GPa) = 45.69449 116.25939 77.94326
#
# Poissons Ratio (x) = 0.57159 0.46736
# Poissons Ratio (y) = 0.22466 0.12603
# Poissons Ratio (z) = 0.27399 0.18799
#
# Static dielectric constant tensor:
#      x y z
#    x 1.812650 0.000000 0.000000 
#    y 0.000000 1.066110 0.000000 
#    z 0.000000 0.000000 1.835890 
# 
# From -- ./inp_files/31056.got.cif
#   From: 2010.05.17/outbox.cif.g08.bks.cpg/sg52_16_cif.got.tgz:31056.got - 2010.06.03 12:15:38.
