data_PCOD9410774
_publ_section_title
;
Structure prediction by ZEFSAII (Michael W. Deem and Ramdas Pophale) SiO2 
 PCOD9410774
Probable space group: P N N A
;
_chemical_formula_sum "Si O2"
_cell_formula_units_Z 48
_cell_length_a 5.210051
_cell_length_b 19.891919
_cell_length_c 23.011280
_cell_angle_alpha 90.000000
_cell_angle_beta 90.000000
_cell_angle_gamma 90.000000
_cell_volume 2384.841023
_symmetry_space_group_name_H-M "P N N A"
_symmetry_group_IT_number 52
_symmetry_cell_setting 'orthorhombic'
loop_
_space_group_symop_operation_xyz
x,y,z
1/2-x,-y,z
x,1/2-y,1/2-z
1/2-x,1/2+y,1/2-z
-x,-y,-z
1/2+x,y,-z
-x,1/2+y,1/2+z
1/2+x,1/2-y,1/2+z
loop_
_atom_site_type_symbol
_atom_site_label
_atom_site_fract_x
_atom_site_fract_y
_atom_site_fract_z
Si Si1 0.792340 0.179489 0.719429
Si Si2 0.250000 0.000000 0.880033
Si Si3 0.703743 0.649186 0.145622
Si Si4 0.557370 0.946002 0.785320
Si Si5 0.506062 0.102493 0.962276
Si Si6 0.933376 0.254088 0.039680
Si Si7 0.250000 0.000000 0.677154
O O1 0.823934 0.250000 0.750000
O O2 0.513443 0.169530 0.691952
O O3 0.825010 0.124111 0.769305
O O4 0.016054 0.167812 0.671352
O O5 0.443358 0.040087 0.921286
O O6 0.156176 0.056852 0.834484
O O7 0.631103 0.691125 0.088576
O O8 0.690046 0.567494 0.141262
O O9 0.750000 0.000000 0.810585
O O10 0.465308 0.977276 0.723749
O O11 0.445305 0.177011 0.936573
O O12 0.796821 0.099191 0.985308
O O13 0.707373 0.261557 0.992024
#
# Coordination Sequence:
#
# PCOD9410774 Si02
#       7
#     8   4   8   8   8   8   4
#     4  11  24  39  61  93 125 159 208 251 298 372
#     4  11  24  34  62  86 116 166 202 249 296 362
#     4  11  22  40  67  86 123 166 198 248 317 366
#     4  10  21  38  57  86 127 155 198 248 294 362
#     4  10  23  41  59  83 119 158 204 254 303 356
#     4  10  22  42  62  89 120 155 204 258 306 357
#     4   9  20  40  58  88 120 166 190 237 314 368
#
# _framework density 20.127129
#
# number of rings (size 3 to 8) (size 9 to 14) (size 15 to 20)
#    0.000    1.667    1.667    2.000    4.667    1.333 
#    0.000    0.833    0.000    0.000    0.000    0.000 
#    0.000    0.000    0.000    0.000    0.000    0.000 
#
# Total GULP energy -267828.143155 kJ/mol
# GULP energy per Si atom -5579.752982 kJ/mol
# Density = 2.008132 g / cm^3
# Si number density = 20.127129 Si / 1000 Ang^3
#
#
#
# Elastic Constant Matrix: (Units=GPa)
#
#
# Indices 1 2 3 4 5 6 
#
# 1 47.2823 -10.6792 -12.5383 0.0000 0.0000 0.0000
# 2 -10.6792 134.4746 43.7243 0.0000 0.0000 0.0000
# 3 -12.5383 43.7243 46.6395 0.0000 0.0000 0.0000
# 4 0.0000 0.0000 0.0000 7.7713 0.0000 0.0000
# 5 0.0000 0.0000 0.0000 0.0000 337.6414 0.0000
# 6 0.0000 0.0000 0.0000 0.0000 0.0000 23.7348
#
#
#
# Elastic Compliance Matrix: (Units=1/GPa)
#
#
# Indices 1 2 3 4 5 6 
#
# 1 0.022779 -0.000262 0.006370 0.000000 0.000000 0.000000
# 2 -0.000262 0.010700 -0.010102 0.000000 0.000000 0.000000
# 3 0.006370 -0.010102 0.032624 0.000000 0.000000 0.000000
# 4 0.000000 0.000000 0.000000 0.128678 0.000000 0.000000
# 5 0.000000 0.000000 0.000000 0.000000 0.002962 0.000000
# 6 0.000000 0.000000 0.000000 0.000000 0.000000 0.042132
#
#
# Mechanical properties :
#
#
# Convention : Reuss Voigt Hill
#
# Bulk Modulus (GPa) = 17.20729 29.93443 23.57086
# Shear Modulus (GPa) = 18.71008 87.68882 53.19945
#
# Velocity S-wave (km/s) = 3.05223 6.60773 5.14676
# Velocity P-wave (km/s) = 4.58142 8.55108 6.85968
#
# Compressibility (1/GPa) = 0.05811492
#
# Stress axis : x y z
#
# Youngs Moduli (GPa) = 43.89917 93.45699 30.65253
#
# Poissons Ratio (x) = 0.02449 -0.19524
# Poissons Ratio (y) = 0.01150 0.30964
# Poissons Ratio (z) = -0.27962 0.94408
#
# Static dielectric constant tensor:
#      x y z
#    x 1.307310 0.000000 0.000000 
#    y 0.000000 1.743210 0.000000 
#    z 0.000000 0.000000 1.691090 
# 
# From -- ./inp_files/35159.got.cif
#   From: 2010.05.17/outbox.cif.g08.bks.cpg/sg52_18_cif.got.tgz:35159.got - 2010.06.03 12:15:38.
