data_PCOD9410238
_publ_section_title
;
Structure prediction by ZEFSAII (Michael W. Deem and Ramdas Pophale) SiO2 
 PCOD9410238
Probable space group: P N N A
;
_chemical_formula_sum "Si O2"
_cell_formula_units_Z 32
_cell_length_a 7.670378
_cell_length_b 11.760942
_cell_length_c 16.161204
_cell_angle_alpha 90.000000
_cell_angle_beta 90.000000
_cell_angle_gamma 90.000000
_cell_volume 1457.916286
_symmetry_space_group_name_H-M "P N N A"
_symmetry_group_IT_number 52
_symmetry_cell_setting 'orthorhombic'
loop_
_space_group_symop_operation_xyz
x,y,z
1/2-x,-y,z
x,1/2-y,1/2-z
1/2-x,1/2+y,1/2-z
-x,-y,-z
1/2+x,y,-z
-x,1/2+y,1/2+z
1/2+x,1/2-y,1/2+z
loop_
_atom_site_type_symbol
_atom_site_label
_atom_site_fract_x
_atom_site_fract_y
_atom_site_fract_z
Si Si1 0.935803 0.122203 0.607042
Si Si2 0.750000 0.500000 0.028192
Si Si3 0.361894 0.846565 0.932745
Si Si4 0.483326 0.594541 0.392417
Si Si5 0.750000 0.500000 0.746679
O O1 0.086472 0.031999 0.583298
O O2 0.022224 0.244318 0.600610
O O3 0.794867 0.103268 0.533913
O O4 0.857340 0.083665 0.693465
O O5 0.166457 0.838299 0.896546
O O6 0.451943 0.965473 0.908612
O O7 0.365557 0.857413 0.032721
O O8 0.371809 0.579983 0.310027
#
# Coordination Sequence:
#
# PCOD9410238 Si02
#       5
#     8   4   8   8   4
#     4  10  21  40  64  92 129 173 221 268 323 389
#     4   9  20  38  62  89 124 176 224 261 314 400
#     4  10  20  39  67  90 123 176 220 256 326 411
#     4  10  21  38  64  97 128 163 216 277 325 385
#     4  11  24  40  60  97 144 168 210 287 330 362
#
# _framework density 21.949133
#
# number of rings (size 3 to 8) (size 9 to 14) (size 15 to 20)
#    0.000    2.000    0.000    4.500    0.000    3.000 
#    0.000   10.000    0.000   15.000    0.000    0.000 
#    0.000    0.000    0.000    0.000    0.000    0.000 
#
# Total GULP energy -178927.630861 kJ/mol
# GULP energy per Si atom -5591.488464 kJ/mol
# Density = 2.189918 g / cm^3
# Si number density = 21.949133 Si / 1000 Ang^3
#
#
#
# Elastic Constant Matrix: (Units=GPa)
#
#
# Indices 1 2 3 4 5 6 
#
# 1 148.5554 45.4288 98.2853 0.0000 0.0000 0.0000
# 2 45.4288 92.0086 45.9538 0.0000 0.0000 0.0000
# 3 98.2853 45.9538 164.7595 0.0000 0.0000 0.0000
# 4 0.0000 0.0000 0.0000 -186.4719 0.0000 0.0000
# 5 0.0000 0.0000 0.0000 0.0000 52.8879 0.0000
# 6 0.0000 0.0000 0.0000 0.0000 0.0000 46.6982
#
#
#
# Elastic Compliance Matrix: (Units=1/GPa)
#
#
# Indices 1 2 3 4 5 6 
#
# 1 0.011651 -0.002651 -0.006211 0.000000 0.000000 0.000000
# 2 -0.002651 0.013231 -0.002109 0.000000 0.000000 0.000000
# 3 -0.006211 -0.002109 0.010363 0.000000 0.000000 0.000000
# 4 0.000000 0.000000 0.000000 -0.005363 0.000000 0.000000
# 5 0.000000 0.000000 0.000000 0.000000 0.018908 0.000000
# 6 0.000000 0.000000 0.000000 0.000000 0.000000 0.021414
#
#
# Mechanical properties :
#
#
# Convention : Reuss Voigt Hill
#
# Bulk Modulus (GPa) = 75.16959 87.18436 81.17698
# Shear Modulus (GPa) = 51.77025 -3.00013 24.38506
#
# Velocity S-wave (km/s) = 4.86186 -1.17039 3.33675
# Velocity P-wave (km/s) = 8.11409 6.16286 7.20484
#
# Compressibility (1/GPa) = 0.01330325
#
# Stress axis : x y z
#
# Youngs Moduli (GPa) = 85.82596 75.58215 96.49779
#
# Poissons Ratio (x) = 0.20034 0.59937
# Poissons Ratio (y) = 0.22749 0.20351
# Poissons Ratio (z) = 0.53309 0.15940
#
# Static dielectric constant tensor:
#      x y z
#    x 1.849000 0.000000 0.000000 
#    y 0.000000 1.821270 0.000000 
#    z 0.000000 0.000000 1.787870 
# 
# From -- ./inp_files/30809.got.cif
#   From: 2010.05.17/outbox.cif.g08.bks.cpg/sg52_16_cif.got.tgz:30809.got - 2010.06.03 12:15:38.
