data_PCOD9410757
_publ_section_title
;
Structure prediction by ZEFSAII (Michael W. Deem and Ramdas Pophale) SiO2 
 PCOD9410757
Probable space group: P N N A
;
_chemical_formula_sum "Si O2"
_cell_formula_units_Z 60
_cell_length_a 19.578523
_cell_length_b 24.430437
_cell_length_c 6.115891
_cell_angle_alpha 90.000000
_cell_angle_beta 90.000000
_cell_angle_gamma 90.000000
_cell_volume 2925.303277
_symmetry_space_group_name_H-M "P N N A"
_symmetry_group_IT_number 52
_symmetry_cell_setting 'orthorhombic'
loop_
_space_group_symop_operation_xyz
x,y,z
1/2-x,-y,z
x,1/2-y,1/2-z
1/2-x,1/2+y,1/2-z
-x,-y,-z
1/2+x,y,-z
-x,1/2+y,1/2+z
1/2+x,1/2-y,1/2+z
loop_
_atom_site_type_symbol
_atom_site_label
_atom_site_fract_x
_atom_site_fract_y
_atom_site_fract_z
Si Si1 0.067244 0.944246 0.047224
Si Si2 0.098198 0.166456 0.069289
Si Si3 0.481475 0.365282 0.836463
Si Si4 0.159413 0.250000 0.750000
Si Si5 0.170171 0.511515 0.775575
Si Si6 0.436243 0.574033 0.784322
Si Si7 0.145184 0.618371 0.076021
Si Si8 0.223830 0.191268 0.366427
O O1 0.089212 0.846526 0.557916
O O2 0.999787 0.961899 0.184869
O O3 0.127672 0.981859 0.951644
O O4 0.038728 0.912332 0.836624
O O5 0.028777 0.175030 0.201801
O O6 0.161167 0.162977 0.238003
O O7 0.113962 0.218394 0.922256
O O8 0.089925 0.114304 0.908370
O O9 0.528854 0.390725 0.025534
O O10 0.393674 0.403166 0.289906
O O11 0.203414 0.206215 0.614522
O O12 0.250000 0.500000 0.743488
O O13 0.125874 0.461902 0.877182
O O14 0.163287 0.565504 0.926043
O O15 0.211112 0.652702 0.135189
O O16 0.236611 0.250000 0.250000
#
# Coordination Sequence:
#
# PCOD9410757 Si02
#       8
#     8   8   8   4   8   8   8   8
#     4   9  21  41  62  85 127 170 210 248 307 377
#     4  10  21  37  67  91 120 162 209 259 317 384
#     4   9  20  39  66  88 124 165 206 257 315 367
#     4  10  22  40  66  90 120 158 212 266 318 376
#     4  11  25  35  57  98 128 169 208 259 313 367
#     4  10  21  39  63  89 127 165 208 254 311 380
#     4  10  23  41  63  89 134 163 210 261 311 383
#     4  10  23  41  69  91 121 169 210 258 328 376
#
# _framework density 20.510694000000001
#
# number of rings (size 3 to 8) (size 9 to 14) (size 15 to 20)
#    0.000    2.133    0.000    1.200    5.600   10.667 
#    0.000    0.000   57.200    0.000    0.000    0.000 
#    0.000    0.000    0.000    0.000    0.000    0.000 
#
# Total GULP energy -334786.614471 kJ/mol
# GULP energy per Si atom -5579.776908 kJ/mol
# Density = 2.046401 g / cm^3
# Si number density = 20.510694 Si / 1000 Ang^3
#
#
#
# Elastic Constant Matrix: (Units=GPa)
#
#
# Indices 1 2 3 4 5 6 
#
# 1 163.9761 38.1682 44.4581 0.0000 0.0000 0.0000
# 2 38.1682 39.6897 10.2964 0.0000 0.0000 0.0000
# 3 44.4581 10.2964 77.1645 0.0000 0.0000 0.0000
# 4 0.0000 0.0000 0.0000 15.5768 0.0000 0.0000
# 5 0.0000 0.0000 0.0000 0.0000 23.1158 0.0000
# 6 0.0000 0.0000 0.0000 0.0000 0.0000 -6.6542
#
#
#
# Elastic Compliance Matrix: (Units=1/GPa)
#
#
# Indices 1 2 3 4 5 6 
#
# 1 0.008990 -0.007563 -0.004170 0.000000 0.000000 0.000000
# 2 -0.007563 0.032462 0.000026 0.000000 0.000000 0.000000
# 3 -0.004170 0.000026 0.015358 0.000000 0.000000 0.000000
# 4 0.000000 0.000000 0.000000 0.064198 0.000000 0.000000
# 5 0.000000 0.000000 0.000000 0.000000 0.043261 0.000000
# 6 0.000000 0.000000 0.000000 0.000000 0.000000 -0.150282
#
#
# Mechanical properties :
#
#
# Convention : Reuss Voigt Hill
#
# Bulk Modulus (GPa) = 29.94433 51.85287 40.89860
# Shear Modulus (GPa) = 103.02289 18.93485 60.97887
#
# Velocity S-wave (km/s) = 7.09492 3.04167 5.45846
# Velocity P-wave (km/s) = 9.04148 6.13771 7.72722
#
# Compressibility (1/GPa) = 0.03339530
#
# Stress axis : x y z
#
# Youngs Moduli (GPa) = 111.24083 30.80536 65.11071
#
# Poissons Ratio (x) = 0.23298 0.27152
# Poissons Ratio (y) = 0.84132 -0.00169
# Poissons Ratio (z) = 0.46389 -0.00080
#
# Static dielectric constant tensor:
#      x y z
#    x 1.725630 0.000000 0.000000 
#    y 0.000000 1.761490 0.000000 
#    z 0.000000 0.000000 1.767400 
# 
# From -- ./inp_files/3592.got.cif
#   From: 2010.05.17/outbox.cif.g08.bks.cpg/sg52_2_cif.got.tgz:3592.got - 2010.06.03 12:15:38.
