data_PCOD9410203
_publ_section_title
;
Structure prediction by ZEFSAII (Michael W. Deem and Ramdas Pophale) SiO2 
 PCOD9410203
Probable space group: P N N A
;
_chemical_formula_sum "Si O2"
_cell_formula_units_Z 48
_cell_length_a 11.724176
_cell_length_b 7.301219
_cell_length_c 22.094494
_cell_angle_alpha 90.000000
_cell_angle_beta 90.000000
_cell_angle_gamma 90.000000
_cell_volume 1891.305844
_symmetry_space_group_name_H-M "P N N A"
_symmetry_group_IT_number 52
_symmetry_cell_setting 'orthorhombic'
loop_
_space_group_symop_operation_xyz
x,y,z
1/2-x,-y,z
x,1/2-y,1/2-z
1/2-x,1/2+y,1/2-z
-x,-y,-z
1/2+x,y,-z
-x,1/2+y,1/2+z
1/2+x,1/2-y,1/2+z
loop_
_atom_site_type_symbol
_atom_site_label
_atom_site_fract_x
_atom_site_fract_y
_atom_site_fract_z
Si Si1 0.159097 0.853310 0.889721
Si Si2 0.005430 0.384758 0.880750
Si Si3 0.913982 0.800727 0.896568
Si Si4 0.803568 0.695770 0.015592
Si Si5 0.863463 0.422165 0.213120
Si Si6 0.711566 0.712480 0.819815
O O1 0.195011 0.797139 0.956387
O O2 0.177361 0.677581 0.848022
O O3 0.028978 0.913705 0.886388
O O4 0.250000 0.000000 0.870438
O O5 0.098698 0.328593 0.931629
O O6 0.058453 0.418200 0.813261
O O7 0.960818 0.589167 0.897641
O O8 0.892704 0.266452 0.867079
O O9 0.822329 0.820917 0.843613
O O10 0.855289 0.811593 0.961227
O O11 0.750000 0.500000 0.996159
O O12 0.750000 0.500000 0.243460
O O13 0.915970 0.250000 0.250000
O O14 0.750000 0.500000 0.823105
O O15 0.683752 0.750000 0.750000
#
# Coordination Sequence:
#
# PCOD9410203 Si02
#       6
#     8   8   8   8   8   8
#     4  11  24  42  60  96 135 173 219 278 344 407
#     4  10  20  39  63  99 123 165 224 279 338 405
#     4  10  23  38  70  95 125 177 224 287 340 405
#     4  12  20  40  69  96 132 165 233 286 343 413
#     4  11  21  40  63  97 131 175 224 277 344 409
#     4  10  23  44  64  95 131 175 230 273 347 421
#
# _framework density 25.379290000000001
#
# number of rings (size 3 to 8) (size 9 to 14) (size 15 to 20)
#    0.000    1.333    5.000    2.500    2.333    7.333 
#    6.000    0.833    0.000    0.000    0.000    0.000 
#    0.000    0.000    0.000    0.000    0.000    0.000 
#
# Total GULP energy -268370.737967 kJ/mol
# GULP energy per Si atom -5591.057041 kJ/mol
# Density = 2.532153 g / cm^3
# Si number density = 25.379290 Si / 1000 Ang^3
#
#
#
# Elastic Constant Matrix: (Units=GPa)
#
#
# Indices 1 2 3 4 5 6 
#
# 1 143.4072 27.0218 28.4416 0.0000 0.0000 0.0000
# 2 27.0218 41.9480 -0.9704 0.0000 0.0000 0.0000
# 3 28.4416 -0.9704 96.2362 0.0000 0.0000 0.0000
# 4 0.0000 0.0000 0.0000 4.7357 0.0000 0.0000
# 5 0.0000 0.0000 0.0000 0.0000 31.6820 0.0000
# 6 0.0000 0.0000 0.0000 0.0000 0.0000 48.1624
#
#
#
# Elastic Compliance Matrix: (Units=1/GPa)
#
#
# Indices 1 2 3 4 5 6 
#
# 1 0.008531 -0.005555 -0.002577 0.000000 0.000000 0.000000
# 2 -0.005555 0.027462 0.001919 0.000000 0.000000 0.000000
# 3 -0.002577 0.001919 0.011172 0.000000 0.000000 0.000000
# 4 0.000000 0.000000 0.000000 0.211160 0.000000 0.000000
# 5 0.000000 0.000000 0.000000 0.000000 0.031564 0.000000
# 6 0.000000 0.000000 0.000000 0.000000 0.000000 0.020763
#
#
# Mechanical properties :
#
#
# Convention : Reuss Voigt Hill
#
# Bulk Modulus (GPa) = 28.78723 43.39748 36.09236
# Shear Modulus (GPa) = 14.94061 32.05593 23.49827
#
# Velocity S-wave (km/s) = 2.42893 3.55783 3.04613
# Velocity P-wave (km/s) = 4.38563 5.83217 5.15984
#
# Compressibility (1/GPa) = 0.03473762
#
# Stress axis : x y z
#
# Youngs Moduli (GPa) = 117.21926 36.41417 89.50845
#
# Poissons Ratio (x) = 0.20228 0.23069
# Poissons Ratio (y) = 0.65116 -0.17174
# Poissons Ratio (z) = 0.30211 -0.06987
#
# Static dielectric constant tensor:
#      x y z
#    x 2.066700 0.000000 0.000000 
#    y 0.000000 2.137740 0.000000 
#    z 0.000000 0.000000 1.999410 
# 
# From -- ./inp_files/40149.got.cif
#   From: 2010.05.17/outbox.cif.g08.bks.cpg/sg52_21_cif.got.tgz:40149.got - 2010.06.03 12:15:38.
