data_PCOD9410218
_publ_section_title
;
Structure prediction by ZEFSAII (Michael W. Deem and Ramdas Pophale) SiO2 
 PCOD9410218
Probable space group: P N N A
;
_chemical_formula_sum "Si O2"
_cell_formula_units_Z 48
_cell_length_a 14.717575
_cell_length_b 21.077694
_cell_length_c 7.475046
_cell_angle_alpha 90.000000
_cell_angle_beta 90.000000
_cell_angle_gamma 90.000000
_cell_volume 2318.853023
_symmetry_space_group_name_H-M "P N N A"
_symmetry_group_IT_number 52
_symmetry_cell_setting 'orthorhombic'
loop_
_space_group_symop_operation_xyz
x,y,z
1/2-x,-y,z
x,1/2-y,1/2-z
1/2-x,1/2+y,1/2-z
-x,-y,-z
1/2+x,y,-z
-x,1/2+y,1/2+z
1/2+x,1/2-y,1/2+z
loop_
_atom_site_type_symbol
_atom_site_label
_atom_site_fract_x
_atom_site_fract_y
_atom_site_fract_z
Si Si1 0.792520 0.810018 0.536453
Si Si2 0.104431 0.620855 0.080343
Si Si3 0.357729 0.012733 0.700678
Si Si4 0.078522 0.128220 0.729017
Si Si5 0.663321 0.162928 0.926173
Si Si6 0.812009 0.057684 0.917171
O O1 0.688013 0.831047 0.554494
O O2 0.834051 0.838423 0.357281
O O3 0.845241 0.839351 0.710120
O O4 0.806226 0.734914 0.538835
O O5 0.124437 0.582370 0.262284
O O6 0.008559 0.653086 0.121114
O O7 0.106046 0.569033 0.923186
O O8 0.250000 0.000000 0.660429
O O9 0.410165 0.946360 0.687622
O O10 0.361607 0.033745 0.906756
O O11 0.081874 0.143733 0.940554
O O12 0.743300 0.113659 0.971216
O O13 0.750000 0.000000 0.846999
#
# Coordination Sequence:
#
# PCOD9410218 Si02
#       6
#     8   8   8   8   8   8
#     4  10  23  43  64  85 130 166 205 266 316 370
#     4  11  24  38  64  98 121 168 215 260 312 379
#     4  11  20  38  62  91 133 166 209 258 322 377
#     4  12  23  39  65  95 125 169 213 261 316 382
#     4  10  21  42  63  87 120 165 208 254 318 376
#     4  10  20  39  65  86 123 172 205 256 320 374
#
# _framework density 20.699891000000001
#
# number of rings (size 3 to 8) (size 9 to 14) (size 15 to 20)
#    0.000    1.333    5.000    1.500    2.333    2.000 
#   12.000    0.000    3.667    0.000    0.000    0.000 
#    0.000    0.000    0.000    0.000    0.000    0.000 
#
# Total GULP energy -268122.291277 kJ/mol
# GULP energy per Si atom -5585.881068 kJ/mol
# Density = 2.065278 g / cm^3
# Si number density = 20.699891 Si / 1000 Ang^3
#
#
#
# Elastic Constant Matrix: (Units=GPa)
#
#
# Indices 1 2 3 4 5 6 
#
# 1 70.3836 -5.1196 8.4684 0.0000 0.0000 0.0000
# 2 -5.1196 55.3329 -2.2227 0.0000 0.0000 0.0000
# 3 8.4684 -2.2227 37.6565 0.0000 0.0000 0.0000
# 4 0.0000 0.0000 0.0000 23.0769 0.0000 0.0000
# 5 0.0000 0.0000 0.0000 0.0000 18.0991 0.0000
# 6 0.0000 0.0000 0.0000 0.0000 0.0000 4.6335
#
#
#
# Elastic Compliance Matrix: (Units=1/GPa)
#
#
# Indices 1 2 3 4 5 6 
#
# 1 0.014686 0.001229 -0.003230 0.000000 0.000000 0.000000
# 2 0.001229 0.018218 0.000799 0.000000 0.000000 0.000000
# 3 -0.003230 0.000799 0.027329 0.000000 0.000000 0.000000
# 4 0.000000 0.000000 0.000000 0.043333 0.000000 0.000000
# 5 0.000000 0.000000 0.000000 0.000000 0.055251 0.000000
# 6 0.000000 0.000000 0.000000 0.000000 0.000000 0.215819
#
#
# Mechanical properties :
#
#
# Convention : Reuss Voigt Hill
#
# Bulk Modulus (GPa) = 17.29224 18.40278 17.84751
# Shear Modulus (GPa) = 12.61613 19.97836 16.29725
#
# Velocity S-wave (km/s) = 2.47144 3.11005 2.80895
# Velocity P-wave (km/s) = 4.06398 4.66970 4.37733
#
# Compressibility (1/GPa) = 0.05782940
#
# Stress axis : x y z
#
# Youngs Moduli (GPa) = 68.09254 54.88999 36.59058
#
# Poissons Ratio (x) = -0.06746 0.11819
# Poissons Ratio (y) = -0.08369 -0.02923
# Poissons Ratio (z) = 0.21995 -0.04385
#
# Static dielectric constant tensor:
#      x y z
#    x 1.632200 0.000000 0.000000 
#    y 0.000000 1.702660 0.000000 
#    z 0.000000 0.000000 1.748000 
# 
# From -- ./inp_files/10659.got.cif
#   From: 2010.05.17/outbox.cif.g08.bks.cpg/sg52_6_cif.got.tgz:10659.got - 2010.06.03 12:15:38.
