data_PCOD9410134
_publ_section_title
;
Structure prediction by ZEFSAII (Michael W. Deem and Ramdas Pophale) SiO2 
 PCOD9410134
Probable space group: P N N A
;
_chemical_formula_sum "Si O2"
_cell_formula_units_Z 28
_cell_length_a 31.210402
_cell_length_b 5.007759
_cell_length_c 8.685079
_cell_angle_alpha 90.000000
_cell_angle_beta 90.000000
_cell_angle_gamma 90.000000
_cell_volume 1357.427227
_symmetry_space_group_name_H-M "P N N A"
_symmetry_group_IT_number 52
_symmetry_cell_setting 'orthorhombic'
loop_
_space_group_symop_operation_xyz
x,y,z
1/2-x,-y,z
x,1/2-y,1/2-z
1/2-x,1/2+y,1/2-z
-x,-y,-z
1/2+x,y,-z
-x,1/2+y,1/2+z
1/2+x,1/2-y,1/2+z
loop_
_atom_site_type_symbol
_atom_site_label
_atom_site_fract_x
_atom_site_fract_y
_atom_site_fract_z
Si Si1 0.379374 0.723614 0.932915
Si Si2 0.335215 0.227501 0.066849
Si Si3 0.025632 0.247793 0.065601
Si Si4 0.250000 0.500000 0.143621
O O1 0.380384 0.750000 0.750000
O O2 0.366235 0.425545 0.977542
O O3 0.425944 0.771538 0.004653
O O4 0.345324 0.932477 0.006135
O O5 0.343465 0.250000 0.250000
O O6 0.287575 0.352932 0.050233
O O7 0.025890 0.250000 0.250000
O O8 0.000000 0.500000 0.000000
O O9 0.000000 0.000000 0.000000
O O10 0.233234 0.250000 0.250000
#
# Coordination Sequence:
#
# PCOD9410134 Si02
#       4
#     8   8   8   4
#     4  12  25  42  63  95 132 170 211 263 322 382
#     4  11  22  41  67  94 124 167 217 265 316 383
#     4  12  25  44  67  95 129 170 214 264 318 380
#     4  10  20  38  66  98 126 162 214 270 322 382
#
# _framework density 20.627255000000002
#
# number of rings (size 3 to 8) (size 9 to 14) (size 15 to 20)
#    0.000    0.571    0.000   11.143    0.000    0.000 
#    0.000    2.857    0.000    1.714    0.000    0.000 
#    0.000    0.000    0.000    0.000    0.000    0.000 
#
# Total GULP energy -156612.319087 kJ/mol
# GULP energy per Si atom -5593.297110 kJ/mol
# Density = 2.058031 g / cm^3
# Si number density = 20.627255 Si / 1000 Ang^3
#
#
#
# Elastic Constant Matrix: (Units=GPa)
#
#
# Indices 1 2 3 4 5 6 
#
# 1 106.4689 3.1083 24.2037 0.0000 0.0000 0.0000
# 2 3.1083 102.2227 9.8310 0.0000 0.0000 0.0000
# 3 24.2037 9.8310 164.8908 0.0000 0.0000 0.0000
# 4 0.0000 0.0000 0.0000 45.3140 0.0000 0.0000
# 5 0.0000 0.0000 0.0000 0.0000 23.6995 0.0000
# 6 0.0000 0.0000 0.0000 0.0000 0.0000 28.4670
#
#
#
# Elastic Compliance Matrix: (Units=1/GPa)
#
#
# Indices 1 2 3 4 5 6 
#
# 1 0.009719 -0.000159 -0.001417 0.000000 0.000000 0.000000
# 2 -0.000159 0.009842 -0.000563 0.000000 0.000000 0.000000
# 3 -0.001417 -0.000563 0.006306 0.000000 0.000000 0.000000
# 4 0.000000 0.000000 0.000000 0.022068 0.000000 0.000000
# 5 0.000000 0.000000 0.000000 0.000000 0.042195 0.000000
# 6 0.000000 0.000000 0.000000 0.000000 0.000000 0.035128
#
#
# Mechanical properties :
#
#
# Convention : Reuss Voigt Hill
#
# Bulk Modulus (GPa) = 46.32319 49.76316 48.04318
# Shear Modulus (GPa) = 36.56737 41.92541 39.24639
#
# Velocity S-wave (km/s) = 4.21499 4.51324 4.36667
# Velocity P-wave (km/s) = 6.79664 7.16495 6.98322
#
# Compressibility (1/GPa) = 0.02158746
#
# Stress axis : x y z
#
# Youngs Moduli (GPa) = 102.88886 101.60964 158.57341
#
# Poissons Ratio (x) = 0.01618 0.22472
# Poissons Ratio (y) = 0.01638 0.08934
# Poissons Ratio (z) = 0.14581 0.05725
#
# Static dielectric constant tensor:
#      x y z
#    x 1.731090 0.000000 0.000000 
#    y 0.000000 1.699860 0.000000 
#    z 0.000000 0.000000 1.706500 
# 
# From -- ./inp_files/15131.got.cif
#   From: 2010.05.17/outbox.cif.g08.bks.cpg/sg52_8_cif.got.tgz:15131.got - 2010.06.03 12:15:38.
