data_PCOD9410599
_publ_section_title
;
Structure prediction by ZEFSAII (Michael W. Deem and Ramdas Pophale) SiO2 
 PCOD9410599
Probable space group: P N N A
;
_chemical_formula_sum "Si O2"
_cell_formula_units_Z 64
_cell_length_a 12.516437
_cell_length_b 12.072080
_cell_length_c 21.787289
_cell_angle_alpha 90.000000
_cell_angle_beta 90.000000
_cell_angle_gamma 90.000000
_cell_volume 3292.046923
_symmetry_space_group_name_H-M "P N N A"
_symmetry_group_IT_number 52
_symmetry_cell_setting 'orthorhombic'
loop_
_space_group_symop_operation_xyz
x,y,z
1/2-x,-y,z
x,1/2-y,1/2-z
1/2-x,1/2+y,1/2-z
-x,-y,-z
1/2+x,y,-z
-x,1/2+y,1/2+z
1/2+x,1/2-y,1/2+z
loop_
_atom_site_type_symbol
_atom_site_label
_atom_site_fract_x
_atom_site_fract_y
_atom_site_fract_z
Si Si1 0.281495 0.791993 0.973283
Si Si2 0.655581 0.928474 0.478947
Si Si3 0.641516 0.570760 0.794720
Si Si4 0.132242 0.312810 0.396370
Si Si5 0.989094 0.852062 0.062068
Si Si6 0.915402 0.405319 0.429139
Si Si7 0.938380 0.560787 0.905548
Si Si8 0.157404 0.828625 0.169221
O O1 0.210366 0.688004 0.992497
O O2 0.396406 0.759826 0.943760
O O3 0.204138 0.858826 0.927406
O O4 0.319689 0.849407 0.036940
O O5 0.554962 0.916697 0.434193
O O6 0.750000 0.000000 0.449381
O O7 0.620158 0.987869 0.542006
O O8 0.750000 0.500000 0.799266
O O9 0.563448 0.507405 0.841925
O O10 0.656863 0.698111 0.814901
O O11 0.616074 0.591023 0.723106
O O12 0.119887 0.179305 0.397625
O O13 0.219630 0.353053 0.347982
O O14 0.012200 0.357920 0.388065
O O15 0.078952 0.838008 0.112011
O O16 0.922788 0.963460 0.075344
O O17 0.046914 0.870043 0.997483
#
# Coordination Sequence:
#
# PCOD9410599 Si02
#       8
#     8   8   8   8   8   8   8   8
#     4  11  20  35  57  89 126 159 197 240 312 377
#     4  11  22  33  60  97 125 161 189 247 329 377
#     4  11  24  40  61  85 118 159 201 254 299 356
#     4  11  20  35  60  86 128 159 198 254 303 374
#     4  10  23  36  57  83 124 162 200 255 293 362
#     4  10  21  36  54  89 120 161 200 244 306 357
#     4  11  22  37  60  90 131 157 199 258 313 372
#     4  11  24  40  59  89 116 162 209 246 307 357
#
# _framework density 19.440791999999998
#
# number of rings (size 3 to 8) (size 9 to 14) (size 15 to 20)
#    0.000    1.250    5.000    1.500    3.500    0.000 
#    0.000    0.000    0.000    1.500    0.000    0.000 
#    0.000    0.000    0.000    0.000    0.000    0.000 
#
# Total GULP energy -357104.769238 kJ/mol
# GULP energy per Si atom -5579.762019 kJ/mol
# Density = 1.939654 g / cm^3
# Si number density = 19.440792 Si / 1000 Ang^3
#
#
#
# Elastic Constant Matrix: (Units=GPa)
#
#
# Indices 1 2 3 4 5 6 
#
# 1 107.0078 17.7641 32.9379 0.0000 0.0000 0.0000
# 2 17.7641 54.5092 10.3460 0.0000 0.0000 0.0000
# 3 32.9379 10.3460 69.4938 0.0000 0.0000 0.0000
# 4 0.0000 0.0000 0.0000 22.1863 0.0000 0.0000
# 5 0.0000 0.0000 0.0000 0.0000 20.2156 0.0000
# 6 0.0000 0.0000 0.0000 0.0000 0.0000 32.6268
#
#
#
# Elastic Compliance Matrix: (Units=1/GPa)
#
#
# Indices 1 2 3 4 5 6 
#
# 1 0.011328 -0.002750 -0.004960 0.000000 0.000000 0.000000
# 2 -0.002750 0.019547 -0.001606 0.000000 0.000000 0.000000
# 3 -0.004960 -0.001606 0.016980 0.000000 0.000000 0.000000
# 4 0.000000 0.000000 0.000000 0.045073 0.000000 0.000000
# 5 0.000000 0.000000 0.000000 0.000000 0.049467 0.000000
# 6 0.000000 0.000000 0.000000 0.000000 0.000000 0.030650
#
#
# Mechanical properties :
#
#
# Convention : Reuss Voigt Hill
#
# Bulk Modulus (GPa) = 34.22137 39.23408 36.72773
# Shear Modulus (GPa) = 24.82401 26.33661 25.58031
#
# Velocity S-wave (km/s) = 3.57725 3.68463 3.63134
# Velocity P-wave (km/s) = 5.89096 6.19089 6.04279
#
# Compressibility (1/GPa) = 0.02922151
#
# Stress axis : x y z
#
# Youngs Moduli (GPa) = 88.27386 51.15937 58.89369
#
# Poissons Ratio (x) = 0.14071 0.29210
# Poissons Ratio (y) = 0.24279 0.09461
# Poissons Ratio (z) = 0.43782 0.08218
#
# Static dielectric constant tensor:
#      x y z
#    x 1.704750 0.000000 0.000000 
#    y 0.000000 1.767250 0.000000 
#    z 0.000000 0.000000 1.699490 
# 
# From -- ./inp_files/40331.got.cif
#   From: 2010.05.17/outbox.cif.g08.bks.cpg/sg52_21_cif.got.tgz:40331.got - 2010.06.03 12:15:38.
