data_PCOD9410041
_publ_section_title
;
Structure prediction by ZEFSAII (Michael W. Deem and Ramdas Pophale) SiO2 
 PCOD9410041
Probable space group: P N N A
;
_chemical_formula_sum "Si O2"
_cell_formula_units_Z 20
_cell_length_a 10.571193
_cell_length_b 4.827278
_cell_length_c 18.043363
_cell_angle_alpha 90.000000
_cell_angle_beta 90.000000
_cell_angle_gamma 90.000000
_cell_volume 920.754391
_symmetry_space_group_name_H-M "P N N A"
_symmetry_group_IT_number 52
_symmetry_cell_setting 'orthorhombic'
loop_
_space_group_symop_operation_xyz
x,y,z
1/2-x,-y,z
x,1/2-y,1/2-z
1/2-x,1/2+y,1/2-z
-x,-y,-z
1/2+x,y,-z
-x,1/2+y,1/2+z
1/2+x,1/2-y,1/2+z
loop_
_atom_site_type_symbol
_atom_site_label
_atom_site_fract_x
_atom_site_fract_y
_atom_site_fract_z
Si Si1 0.137532 0.226763 0.550352
Si Si2 0.491043 0.783278 0.101950
Si Si3 0.840667 0.750000 0.750000
O O1 0.105066 0.325254 0.466726
O O2 0.386341 0.483324 0.593313
O O3 0.250000 0.000000 0.547231
O O4 0.030313 0.034416 0.588328
O O5 0.426105 0.829335 0.180081
O O6 0.750000 0.500000 0.772787
#
# Coordination Sequence:
#
# PCOD9410041 Si02
#       3
#     8   8   4
#     4  10  20  38  61  86 119 160 199 246 297 356
#     4  10  22  37  59  90 119 152 205 247 295 367
#     4  12  24  40  62  88 122 158 198 260 318 358
#
# _framework density 21.721318
#
# number of rings (size 3 to 8) (size 9 to 14) (size 15 to 20)
#    0.000    1.600    0.000    4.800    0.000    6.400 
#    0.000    4.000    0.000    0.000    0.000    0.000 
#    0.000    0.000    0.000    0.000    0.000    0.000 
#
# Total GULP energy -111364.499152 kJ/mol
# GULP energy per Si atom -5568.224958 kJ/mol
# Density = 2.167188 g / cm^3
# Si number density = 21.721318 Si / 1000 Ang^3
#
#
#
# Elastic Constant Matrix: (Units=GPa)
#
#
# Indices 1 2 3 4 5 6 
#
# 1 88.9850 36.7997 52.3793 0.0000 0.0000 0.0000
# 2 36.7997 130.0315 23.9597 0.0000 0.0000 0.0000
# 3 52.3793 23.9597 118.2557 0.0000 0.0000 0.0000
# 4 0.0000 0.0000 0.0000 15.0735 0.0000 0.0000
# 5 0.0000 0.0000 0.0000 0.0000 -0.6668 0.0000
# 6 0.0000 0.0000 0.0000 0.0000 0.0000 54.7185
#
#
#
# Elastic Compliance Matrix: (Units=1/GPa)
#
#
# Indices 1 2 3 4 5 6 
#
# 1 0.016582 -0.003469 -0.006642 0.000000 0.000000 0.000000
# 2 -0.003469 0.008714 -0.000229 0.000000 0.000000 0.000000
# 3 -0.006642 -0.000229 0.011445 0.000000 0.000000 0.000000
# 4 0.000000 0.000000 0.000000 0.066342 0.000000 0.000000
# 5 0.000000 0.000000 0.000000 0.000000 -1.499722 0.000000
# 6 0.000000 0.000000 0.000000 0.000000 0.000000 0.018275
#
#
# Mechanical properties :
#
#
# Convention : Reuss Voigt Hill
#
# Bulk Modulus (GPa) = 62.26219 62.61662 62.43941
# Shear Modulus (GPa) = -3.69732 28.76728 12.53498
#
# Velocity S-wave (km/s) = -1.30609 3.64315 2.40486
# Velocity P-wave (km/s) = 5.14314 6.82544 6.04311
#
# Compressibility (1/GPa) = 0.01606111
#
# Stress axis : x y z
#
# Youngs Moduli (GPa) = 60.30611 114.75259 87.37761
#
# Poissons Ratio (x) = 0.39808 0.58035
# Poissons Ratio (y) = 0.20920 0.02002
# Poissons Ratio (z) = 0.40055 0.02629
#
# Static dielectric constant tensor:
#      x y z
#    x 1.974540 0.000000 0.000000 
#    y 0.000000 1.780090 0.000000 
#    z 0.000000 0.000000 1.730470 
# 
# From -- ./inp_files/30487.got.cif
#   From: 2010.05.17/outbox.cif.g08.bks.cpg/sg52_16_cif.got.tgz:30487.got - 2010.06.03 12:15:38.
