data_PCOD9410266
_publ_section_title
;
Structure prediction by ZEFSAII (Michael W. Deem and Ramdas Pophale) SiO2 
 PCOD9410266
Probable space group: P N N A
;
_chemical_formula_sum "Si O2"
_cell_formula_units_Z 48
_cell_length_a 21.147102
_cell_length_b 13.252947
_cell_length_c 8.704491
_cell_angle_alpha 90.000000
_cell_angle_beta 90.000000
_cell_angle_gamma 90.000000
_cell_volume 2439.533026
_symmetry_space_group_name_H-M "P N N A"
_symmetry_group_IT_number 52
_symmetry_cell_setting 'orthorhombic'
loop_
_space_group_symop_operation_xyz
x,y,z
1/2-x,-y,z
x,1/2-y,1/2-z
1/2-x,1/2+y,1/2-z
-x,-y,-z
1/2+x,y,-z
-x,1/2+y,1/2+z
1/2+x,1/2-y,1/2+z
loop_
_atom_site_type_symbol
_atom_site_label
_atom_site_fract_x
_atom_site_fract_y
_atom_site_fract_z
Si Si1 0.796378 0.750000 0.250000
Si Si2 0.870564 0.645517 0.986672
Si Si3 0.278917 0.112653 0.991840
Si Si4 0.003445 0.759845 0.431489
Si Si5 0.223191 0.250000 0.250000
Si Si6 0.913812 0.353375 0.351335
Si Si7 0.566660 0.948819 0.464753
O O1 0.839411 0.677727 0.146806
O O2 0.755224 0.821239 0.140455
O O3 0.880691 0.525809 0.977669
O O4 0.939658 0.698738 0.987711
O O5 0.823746 0.686437 0.858361
O O6 0.352304 0.114873 0.946081
O O7 0.250000 0.000000 0.997553
O O8 0.264424 0.173895 0.147602
O O9 0.992143 0.750000 0.250000
O O10 0.028945 0.665671 0.529837
O O11 0.060129 0.841321 0.453340
O O12 0.903993 0.250000 0.250000
O O13 0.927485 0.433507 0.217569
O O14 0.500000 0.000000 0.500000
#
# Coordination Sequence:
#
# PCOD9410266 Si02
#       7
#     4   8   8   8   4   8   8
#     4  10  20  40  66  90 118 166 214 266 310 398
#     4  10  20  40  60  86 123 155 213 251 331 362
#     4  11  23  43  64  91 128 167 220 263 324 375
#     4  10  21  36  61  90 122 160 199 264 318 383
#     4  10  26  40  62  90 122 170 208 276 304 396
#     4  10  21  39  62  89 126 163 206 259 321 388
#     4   9  20  36  60  90 120 158 204 249 317 391
#
# _framework density 19.675896000000002
#
# number of rings (size 3 to 8) (size 9 to 14) (size 15 to 20)
#    0.000    2.000    1.667    1.000    7.000    1.333 
#    3.000    5.000    0.000    0.000    0.000    0.000 
#    0.000    0.000    0.000    0.000    0.000    0.000 
#
# Total GULP energy -267746.964324 kJ/mol
# GULP energy per Si atom -5578.061757 kJ/mol
# Density = 1.963111 g / cm^3
# Si number density = 19.675896 Si / 1000 Ang^3
#
#
#
# Elastic Constant Matrix: (Units=GPa)
#
#
# Indices 1 2 3 4 5 6 
#
# 1 80.3055 14.4316 42.6603 0.0000 0.0000 0.0000
# 2 14.4316 60.8051 30.6594 0.0000 0.0000 0.0000
# 3 42.6603 30.6594 110.1689 0.0000 0.0000 0.0000
# 4 0.0000 0.0000 0.0000 23.9449 0.0000 0.0000
# 5 0.0000 0.0000 0.0000 0.0000 26.6627 0.0000
# 6 0.0000 0.0000 0.0000 0.0000 0.0000 -14.9248
#
#
#
# Elastic Compliance Matrix: (Units=1/GPa)
#
#
# Indices 1 2 3 4 5 6 
#
# 1 0.015708 -0.000769 -0.005869 0.000000 0.000000 0.000000
# 2 -0.000769 0.019168 -0.005037 0.000000 0.000000 0.000000
# 3 -0.005869 -0.005037 0.012751 0.000000 0.000000 0.000000
# 4 0.000000 0.000000 0.000000 0.041762 0.000000 0.000000
# 5 0.000000 0.000000 0.000000 0.000000 0.037506 0.000000
# 6 0.000000 0.000000 0.000000 0.000000 0.000000 -0.067003
#
#
# Mechanical properties :
#
#
# Convention : Reuss Voigt Hill
#
# Bulk Modulus (GPa) = 41.18810 47.42023 44.30416
# Shear Modulus (GPa) = 54.74397 18.03846 36.39122
#
# Velocity S-wave (km/s) = 5.28046 3.03112 4.30529
# Velocity P-wave (km/s) = 7.62603 6.03351 6.87603
#
# Compressibility (1/GPa) = 0.02427886
#
# Stress axis : x y z
#
# Youngs Moduli (GPa) = 63.66093 52.17008 78.42471
#
# Poissons Ratio (x) = 0.04013 0.46024
# Poissons Ratio (y) = 0.04896 0.39499
# Poissons Ratio (z) = 0.37360 0.26276
#
# Static dielectric constant tensor:
#      x y z
#    x 1.682730 0.000000 0.000000 
#    y 0.000000 1.763750 0.000000 
#    z 0.000000 0.000000 1.675090 
# 
# From -- ./inp_files/12166.got.cif
#   From: 2010.05.17/outbox.cif.g08.bks.cpg/sg52_7_cif.got.tgz:12166.got - 2010.06.03 12:15:38.
