data_PCOD9410404
_publ_section_title
;
Structure prediction by ZEFSAII (Michael W. Deem and Ramdas Pophale) SiO2 
 PCOD9410404
Probable space group: P N N A
;
_chemical_formula_sum "Si O2"
_cell_formula_units_Z 56
_cell_length_a 9.098229
_cell_length_b 20.542070
_cell_length_c 13.645102
_cell_angle_alpha 90.000000
_cell_angle_beta 90.000000
_cell_angle_gamma 90.000000
_cell_volume 2550.221219
_symmetry_space_group_name_H-M "P N N A"
_symmetry_group_IT_number 52
_symmetry_cell_setting 'orthorhombic'
loop_
_space_group_symop_operation_xyz
x,y,z
1/2-x,-y,z
x,1/2-y,1/2-z
1/2-x,1/2+y,1/2-z
-x,-y,-z
1/2+x,y,-z
-x,1/2+y,1/2+z
1/2+x,1/2-y,1/2+z
loop_
_atom_site_type_symbol
_atom_site_label
_atom_site_fract_x
_atom_site_fract_y
_atom_site_fract_z
Si Si1 0.701020 0.842058 0.665771
Si Si2 0.867227 0.854640 0.106995
Si Si3 0.898667 0.457665 0.925924
Si Si4 0.164139 0.436666 0.326294
Si Si5 0.037051 0.840005 0.926496
Si Si6 0.085454 0.025780 0.756895
Si Si7 0.943703 0.750000 0.750000
Si Si8 0.455536 0.750000 0.750000
O O1 0.673706 0.884982 0.567853
O O2 0.733729 0.893785 0.754946
O O3 0.565151 0.794876 0.686091
O O4 0.842704 0.796148 0.680531
O O5 0.702976 0.863927 0.067276
O O6 0.919970 0.923002 0.153716
O O7 0.858532 0.801950 0.193308
O O8 0.982531 0.819877 0.033638
O O9 0.750000 0.500000 0.905039
O O10 0.017822 0.443412 0.840546
O O11 0.000000 0.500000 0.000000
O O12 0.250000 0.500000 0.361913
O O13 0.087441 0.394576 0.408461
O O14 0.022916 0.464669 0.269397
O O15 0.024074 0.793736 0.831566
O O16 0.250000 0.000000 0.745102
#
# Coordination Sequence:
#
# PCOD9410404 Si02
#       8
#     8   8   8   8   8   8   4   4
#     4  10  20  41  73  99 128 188 233 287 360 414
#     4  12  27  44  71 103 143 182 244 290 359 423
#     4  12  24  45  68 104 142 184 238 297 360 436
#     4  11  20  41  73  96 136 179 228 280 363 417
#     4  11  27  45  68 106 140 182 237 299 346 439
#     4  12  23  44  69 101 141 188 228 295 364 422
#     4   9  23  46  72  94 140 186 242 286 364 408
#     4  11  23  46  74  96 140 192 236 296 354 424
#
# _framework density 21.958879
#
# number of rings (size 3 to 8) (size 9 to 14) (size 15 to 20)
#    0.000    0.857    5.714    0.857    8.000    1.143 
#    2.571    0.000    0.000    0.000    0.000    0.000 
#    0.000    0.000    0.000    0.000    0.000    0.000 
#
# Total GULP energy -311890.207354 kJ/mol
# GULP energy per Si atom -5569.467988 kJ/mol
# Density = 2.190890 g / cm^3
# Si number density = 21.958879 Si / 1000 Ang^3
#
#
#
# Elastic Constant Matrix: (Units=GPa)
#
#
# Indices 1 2 3 4 5 6 
#
# 1 139.5036 30.7776 34.2501 0.0000 0.0000 0.0000
# 2 30.7776 86.2243 4.0402 0.0000 0.0000 0.0000
# 3 34.2501 4.0402 48.0249 0.0000 0.0000 0.0000
# 4 0.0000 0.0000 0.0000 34.4856 0.0000 0.0000
# 5 0.0000 0.0000 0.0000 0.0000 21.2354 0.0000
# 6 0.0000 0.0000 0.0000 0.0000 0.0000 13.0601
#
#
#
# Elastic Compliance Matrix: (Units=1/GPa)
#
#
# Indices 1 2 3 4 5 6 
#
# 1 0.009433 -0.003064 -0.006469 0.000000 0.000000 0.000000
# 2 -0.003064 0.012639 0.001122 0.000000 0.000000 0.000000
# 3 -0.006469 0.001122 0.025342 0.000000 0.000000 0.000000
# 4 0.000000 0.000000 0.000000 0.028998 0.000000 0.000000
# 5 0.000000 0.000000 0.000000 0.000000 0.047091 0.000000
# 6 0.000000 0.000000 0.000000 0.000000 0.000000 0.076569
#
#
# Mechanical properties :
#
#
# Convention : Reuss Voigt Hill
#
# Bulk Modulus (GPa) = 32.68991 45.76540 39.22765
# Shear Modulus (GPa) = 22.01768 27.40188 24.70978
#
# Velocity S-wave (km/s) = 3.16994 3.53636 3.35815
# Velocity P-wave (km/s) = 5.32140 6.12871 5.73927
#
# Compressibility (1/GPa) = 0.03059048
#
# Stress axis : x y z
#
# Youngs Moduli (GPa) = 106.01623 79.12196 39.46036
#
# Poissons Ratio (x) = 0.24241 0.25528
# Poissons Ratio (y) = 0.32481 -0.04426
# Poissons Ratio (z) = 0.68585 -0.08876
#
# Static dielectric constant tensor:
#      x y z
#    x 1.796710 0.000000 0.000000 
#    y 0.000000 1.948490 0.000000 
#    z 0.000000 0.000000 1.996910 
# 
# From -- ./inp_files/24998.got.cif
#   From: 2010.05.17/outbox.cif.g08.bks.cpg/sg52_13_cif.got.tgz:24998.got - 2010.06.03 12:15:38.
