data_PCOD9410310
_publ_section_title
;
Structure prediction by ZEFSAII (Michael W. Deem and Ramdas Pophale) SiO2 
 PCOD9410310
Probable space group: P N N A
;
_chemical_formula_sum "Si O2"
_cell_formula_units_Z 24
_cell_length_a 13.291617
_cell_length_b 5.799819
_cell_length_c 13.236831
_cell_angle_alpha 90.000000
_cell_angle_beta 90.000000
_cell_angle_gamma 90.000000
_cell_volume 1020.413705
_symmetry_space_group_name_H-M "P N N A"
_symmetry_group_IT_number 52
_symmetry_cell_setting 'orthorhombic'
loop_
_space_group_symop_operation_xyz
x,y,z
1/2-x,-y,z
x,1/2-y,1/2-z
1/2-x,1/2+y,1/2-z
-x,-y,-z
1/2+x,y,-z
-x,1/2+y,1/2+z
1/2+x,1/2-y,1/2+z
loop_
_atom_site_type_symbol
_atom_site_label
_atom_site_fract_x
_atom_site_fract_y
_atom_site_fract_z
Si Si1 0.064039 0.250000 0.250000
Si Si2 0.750000 0.000000 0.009620
Si Si3 0.453262 0.904047 0.897878
Si Si4 0.635953 0.856064 0.640015
O O1 0.136841 0.372518 0.166567
O O2 0.992629 0.426167 0.310269
O O3 0.664250 0.109681 0.081213
O O4 0.804368 0.202671 0.942514
O O5 0.516522 0.673078 0.882174
O O6 0.500000 0.000000 0.000000
O O7 0.656770 0.750000 0.750000
#
# Coordination Sequence:
#
# PCOD9410310 Si02
#       4
#     4   4   8   8
#     4  10  20  42  68  88 140 190 216 278 368 404
#     4  10  20  40  66 102 132 172 242 280 340 416
#     4   9  20  40  62  94 133 174 225 279 342 409
#     4   9  20  42  64  95 134 176 219 284 339 411
#
# _framework density 23.519871999999999
#
# number of rings (size 3 to 8) (size 9 to 14) (size 15 to 20)
#    0.000    2.667    0.000    0.000    0.000    5.333 
#   36.000   10.000    0.000    0.000    0.000    0.000 
#    0.000    0.000    0.000    0.000    0.000    0.000 
#
# Total GULP energy -133687.532472 kJ/mol
# GULP energy per Si atom -5570.313853 kJ/mol
# Density = 2.346634 g / cm^3
# Si number density = 23.519872 Si / 1000 Ang^3
#
#
#
# Elastic Constant Matrix: (Units=GPa)
#
#
# Indices 1 2 3 4 5 6 
#
# 1 182.0757 51.7329 39.7594 0.0000 0.0000 0.0000
# 2 51.7329 76.6282 27.8778 0.0000 0.0000 0.0000
# 3 39.7594 27.8778 92.5052 0.0000 0.0000 0.0000
# 4 0.0000 0.0000 0.0000 41.0510 0.0000 0.0000
# 5 0.0000 0.0000 0.0000 0.0000 46.9843 0.0000
# 6 0.0000 0.0000 0.0000 0.0000 0.0000 42.0195
#
#
#
# Elastic Compliance Matrix: (Units=1/GPa)
#
#
# Indices 1 2 3 4 5 6 
#
# 1 0.007051 -0.004108 -0.001792 0.000000 0.000000 0.000000
# 2 -0.004108 0.017050 -0.003373 0.000000 0.000000 0.000000
# 3 -0.001792 -0.003373 0.012597 0.000000 0.000000 0.000000
# 4 0.000000 0.000000 0.000000 0.024360 0.000000 0.000000
# 5 0.000000 0.000000 0.000000 0.000000 0.021284 0.000000
# 6 0.000000 0.000000 0.000000 0.000000 0.000000 0.023798
#
#
# Mechanical properties :
#
#
# Convention : Reuss Voigt Hill
#
# Bulk Modulus (GPa) = 55.09086 65.54990 60.32038
# Shear Modulus (GPa) = 38.24454 41.46689 39.85572
#
# Velocity S-wave (km/s) = 4.03681 4.20343 4.12096
# Velocity P-wave (km/s) = 6.72322 7.17558 6.95308
#
# Compressibility (1/GPa) = 0.01815183
#
# Stress axis : x y z
#
# Youngs Moduli (GPa) = 141.82699 58.64951 79.38359
#
# Poissons Ratio (x) = 0.24093 0.14229
# Poissons Ratio (y) = 0.58263 0.26774
# Poissons Ratio (z) = 0.25422 0.19781
#
# Static dielectric constant tensor:
#      x y z
#    x 2.037240 0.000000 0.000000 
#    y 0.000000 2.289010 0.000000 
#    z 0.000000 0.000000 1.884820 
# 
# From -- ./inp_files/26480.got.cif
#   From: 2010.05.17/outbox.cif.g08.bks.cpg/sg52_14_cif.got.tgz:26480.got - 2010.06.03 12:15:38.
