data_PCOD9410202
_publ_section_title
;
Structure prediction by ZEFSAII (Michael W. Deem and Ramdas Pophale) SiO2 
 PCOD9410202
Probable space group: P N N A
;
_chemical_formula_sum "Si O2"
_cell_formula_units_Z 48
_cell_length_a 8.739771
_cell_length_b 17.384117
_cell_length_c 14.910159
_cell_angle_alpha 90.000000
_cell_angle_beta 90.000000
_cell_angle_gamma 90.000000
_cell_volume 2265.348193
_symmetry_space_group_name_H-M "P N N A"
_symmetry_group_IT_number 52
_symmetry_cell_setting 'orthorhombic'
loop_
_space_group_symop_operation_xyz
x,y,z
1/2-x,-y,z
x,1/2-y,1/2-z
1/2-x,1/2+y,1/2-z
-x,-y,-z
1/2+x,y,-z
-x,1/2+y,1/2+z
1/2+x,1/2-y,1/2+z
loop_
_atom_site_type_symbol
_atom_site_label
_atom_site_fract_x
_atom_site_fract_y
_atom_site_fract_z
Si Si1 0.750000 0.500000 0.121143
Si Si2 0.161738 0.258254 0.082757
Si Si3 0.395917 0.353677 0.975402
Si Si4 0.250000 0.500000 0.260163
Si Si5 0.491509 0.103485 0.326641
Si Si6 0.892251 0.250000 0.750000
Si Si7 0.953327 0.585775 0.593051
Si Si8 0.750000 0.500000 0.445872
O O1 0.671720 0.566592 0.061302
O O2 0.628514 0.455456 0.180997
O O3 0.280600 0.251540 0.164555
O O4 0.077346 0.176185 0.079585
O O5 0.025467 0.320365 0.090400
O O6 0.266524 0.289680 0.999952
O O7 0.477340 0.370668 0.070506
O O8 0.338651 0.440824 0.198605
O O9 0.136505 0.450850 0.322865
O O10 0.497280 0.175394 0.260265
O O11 0.865324 0.549024 0.507872
O O12 0.129949 0.558740 0.600049
#
# Coordination Sequence:
#
# PCOD9410202 Si02
#       8
#     4   8   8   4   8   4   8   4
#     4  12  25  43  65 109 130 176 242 286 343 417
#     4  11  22  42  68 100 136 181 232 283 356 415
#     4  11  24  41  71 102 134 184 231 298 338 422
#     4  11  23  40  68  95 135 188 224 290 366 416
#     4  11  24  44  67  97 140 182 231 287 356 426
#     4  10  24  44  68  98 142 184 222 286 364 426
#     4  10  20  39  63  96 131 177 231 283 357 416
#     4   9  20  37  63  94 127 172 232 290 329 427
#
# _framework density 21.188794999999999
#
# number of rings (size 3 to 8) (size 9 to 14) (size 15 to 20)
#    0.000    1.333    3.333    2.000    4.667    0.667 
#    0.000    2.500    0.000    0.000    0.000    0.000 
#    0.000    0.000    0.000    0.000    0.000    0.000 
#
# Total GULP energy -267944.223151 kJ/mol
# GULP energy per Si atom -5582.171316 kJ/mol
# Density = 2.114057 g / cm^3
# Si number density = 21.188795 Si / 1000 Ang^3
#
#
#
# Elastic Constant Matrix: (Units=GPa)
#
#
# Indices 1 2 3 4 5 6 
#
# 1 129.3594 59.4862 35.5744 0.0000 0.0000 0.0000
# 2 59.4862 150.6198 35.1773 0.0000 0.0000 0.0000
# 3 35.5744 35.1773 48.7883 0.0000 0.0000 0.0000
# 4 0.0000 0.0000 0.0000 35.2964 0.0000 0.0000
# 5 0.0000 0.0000 0.0000 0.0000 11.5514 0.0000
# 6 0.0000 0.0000 0.0000 0.0000 0.0000 48.8916
#
#
#
# Elastic Compliance Matrix: (Units=1/GPa)
#
#
# Indices 1 2 3 4 5 6 
#
# 1 0.010607 -0.002865 -0.005668 0.000000 0.000000 0.000000
# 2 -0.002865 0.008758 -0.004225 0.000000 0.000000 0.000000
# 3 -0.005668 -0.004225 0.027676 0.000000 0.000000 0.000000
# 4 0.000000 0.000000 0.000000 0.028332 0.000000 0.000000
# 5 0.000000 0.000000 0.000000 0.000000 0.086570 0.000000
# 6 0.000000 0.000000 0.000000 0.000000 0.000000 0.020453
#
#
# Mechanical properties :
#
#
# Convention : Reuss Voigt Hill
#
# Bulk Modulus (GPa) = 46.46107 65.47149 55.96628
# Shear Modulus (GPa) = 23.24644 32.38318 27.81481
#
# Velocity S-wave (km/s) = 3.31586 3.91361 3.62707
# Velocity P-wave (km/s) = 6.05266 7.16854 6.63410
#
# Compressibility (1/GPa) = 0.02152340
#
# Stress axis : x y z
#
# Youngs Moduli (GPa) = 94.27949 114.18588 36.13221
#
# Poissons Ratio (x) = 0.32717 0.20480
# Poissons Ratio (y) = 0.27014 0.15267
# Poissons Ratio (z) = 0.53439 0.48246
#
# Static dielectric constant tensor:
#      x y z
#    x 1.800490 0.000000 0.000000 
#    y 0.000000 1.849160 0.000000 
#    z 0.000000 0.000000 1.758670 
# 
# From -- ./inp_files/24798.got.cif
#   From: 2010.05.17/outbox.cif.g08.bks.cpg/sg52_13_cif.got.tgz:24798.got - 2010.06.03 12:15:38.
