data_PCOD9410632
_publ_section_title
;
Structure prediction by ZEFSAII (Michael W. Deem and Ramdas Pophale) SiO2 
 PCOD9410632
Probable space group: P N N A
;
_chemical_formula_sum "Si O2"
_cell_formula_units_Z 56
_cell_length_a 14.675634
_cell_length_b 9.049588
_cell_length_c 20.247138
_cell_angle_alpha 90.000000
_cell_angle_beta 90.000000
_cell_angle_gamma 90.000000
_cell_volume 2688.990839
_symmetry_space_group_name_H-M "P N N A"
_symmetry_group_IT_number 52
_symmetry_cell_setting 'orthorhombic'
loop_
_space_group_symop_operation_xyz
x,y,z
1/2-x,-y,z
x,1/2-y,1/2-z
1/2-x,1/2+y,1/2-z
-x,-y,-z
1/2+x,y,-z
-x,1/2+y,1/2+z
1/2+x,1/2-y,1/2+z
loop_
_atom_site_type_symbol
_atom_site_label
_atom_site_fract_x
_atom_site_fract_y
_atom_site_fract_z
Si Si1 0.657118 0.055197 0.662023
Si Si2 0.162639 0.400492 0.367930
Si Si3 0.726505 0.154423 0.010009
Si Si4 0.389017 0.368340 0.032071
Si Si5 0.491214 0.577198 0.268629
Si Si6 0.656534 0.087676 0.277635
Si Si7 0.589813 0.378778 0.075021
O O1 0.669493 0.230217 0.654351
O O2 0.572946 0.020735 0.709008
O O3 0.750000 0.000000 0.693567
O O4 0.644977 0.975186 0.591495
O O5 0.250000 0.500000 0.348968
O O6 0.165823 0.393462 0.446895
O O7 0.068899 0.449268 0.334019
O O8 0.815710 0.240500 0.982189
O O9 0.750000 0.000000 0.045006
O O10 0.668370 0.267573 0.052236
O O11 0.489666 0.319048 0.055165
O O12 0.399052 0.469488 0.966800
O O13 0.504919 0.750000 0.250000
O O14 0.586874 0.496607 0.270425
O O15 0.673955 0.250000 0.250000
O O16 0.605767 0.093851 0.348183
O O17 0.750000 0.000000 0.285296
#
# Coordination Sequence:
#
# PCOD9410632 Si02
#       7
#     8   8   8   8   8   8   8
#     4  11  18  35  62  93 131 169 216 254 309 395
#     4  10  21  36  59  97 139 172 200 263 336 394
#     4  11  23  40  65  99 140 170 209 278 343 397
#     4  11  21  40  71 100 129 171 225 273 322 407
#     4  10  23  40  63  96 130 174 215 265 322 394
#     4  12  27  47  69  92 127 175 229 283 326 390
#     4  11  24  44  71  98 125 175 228 276 332 388
#
# _framework density 20.825655999999999
#
# number of rings (size 3 to 8) (size 9 to 14) (size 15 to 20)
#    0.000    1.143    4.286    2.143    0.000    4.571 
#    0.000    2.857    0.000    0.000    0.000    0.000 
#    0.000    0.000    0.000    0.000    0.000    0.000 
#
# Total GULP energy -312956.816670 kJ/mol
# GULP energy per Si atom -5588.514583 kJ/mol
# Density = 2.077826 g / cm^3
# Si number density = 20.825656 Si / 1000 Ang^3
#
#
#
# Elastic Constant Matrix: (Units=GPa)
#
#
# Indices 1 2 3 4 5 6 
#
# 1 139.5784 54.9851 15.4189 0.0000 0.0000 0.0000
# 2 54.9851 76.3827 5.5934 0.0000 0.0000 0.0000
# 3 15.4189 5.5934 44.3134 0.0000 0.0000 0.0000
# 4 0.0000 0.0000 0.0000 -1.9593 0.0000 0.0000
# 5 0.0000 0.0000 0.0000 0.0000 10.7386 0.0000
# 6 0.0000 0.0000 0.0000 0.0000 0.0000 13.0138
#
#
#
# Elastic Compliance Matrix: (Units=1/GPa)
#
#
# Indices 1 2 3 4 5 6 
#
# 1 0.010305 -0.007222 -0.002674 0.000000 0.000000 0.000000
# 2 -0.007222 0.018276 0.000206 0.000000 0.000000 0.000000
# 3 -0.002674 0.000206 0.023471 0.000000 0.000000 0.000000
# 4 0.000000 0.000000 0.000000 -0.510389 0.000000 0.000000
# 5 0.000000 0.000000 0.000000 0.000000 0.093122 0.000000
# 6 0.000000 0.000000 0.000000 0.000000 0.000000 0.076841
#
#
# Mechanical properties :
#
#
# Convention : Reuss Voigt Hill
#
# Bulk Modulus (GPa) = 30.60770 45.80770 38.20770
# Shear Modulus (GPa) = -19.37206 16.64378 -1.36414
#
# Velocity S-wave (km/s) = -3.05323 2.83007 -0.81022
# Velocity P-wave (km/s) = 1.51638 5.72037 4.18462
#
# Compressibility (1/GPa) = 0.03267151
#
# Stress axis : x y z
#
# Youngs Moduli (GPa) = 97.04044 54.71659 42.60592
#
# Poissons Ratio (x) = 0.39518 0.11393
# Poissons Ratio (y) = 0.70086 -0.00878
# Poissons Ratio (z) = 0.25948 -0.01128
#
# Static dielectric constant tensor:
#      x y z
#    x 1.750510 0.000000 0.000000 
#    y 0.000000 1.766240 0.000000 
#    z 0.000000 0.000000 1.747880 
# 
# From -- ./inp_files/37345.got.cif
#   From: 2010.05.17/outbox.cif.g08.bks.cpg/sg52_19_cif.got.tgz:37345.got - 2010.06.03 12:15:38.
