data_PCOD9410294
_publ_section_title
;
Structure prediction by ZEFSAII (Michael W. Deem and Ramdas Pophale) SiO2 
 PCOD9410294
Probable space group: P N N A
;
_chemical_formula_sum "Si O2"
_cell_formula_units_Z 64
_cell_length_a 16.201717
_cell_length_b 21.158485
_cell_length_c 8.907267
_cell_angle_alpha 90.000000
_cell_angle_beta 90.000000
_cell_angle_gamma 90.000000
_cell_volume 3053.444852
_symmetry_space_group_name_H-M "P N N A"
_symmetry_group_IT_number 52
_symmetry_cell_setting 'orthorhombic'
loop_
_space_group_symop_operation_xyz
x,y,z
1/2-x,-y,z
x,1/2-y,1/2-z
1/2-x,1/2+y,1/2-z
-x,-y,-z
1/2+x,y,-z
-x,1/2+y,1/2+z
1/2+x,1/2-y,1/2+z
loop_
_atom_site_type_symbol
_atom_site_label
_atom_site_fract_x
_atom_site_fract_y
_atom_site_fract_z
Si Si1 0.840646 0.497062 0.590795
Si Si2 0.009715 0.300878 0.116348
Si Si3 0.194949 0.603969 0.660171
Si Si4 0.377825 0.878560 0.918464
Si Si5 0.511883 0.558470 0.782627
Si Si6 0.436411 0.074324 0.620870
Si Si7 0.170998 0.252657 0.070831
Si Si8 0.844802 0.260517 0.427757
O O1 0.750000 0.500000 0.666395
O O2 0.824502 0.456851 0.440200
O O3 0.872773 0.565616 0.541677
O O4 0.909664 0.462441 0.686129
O O5 0.017036 0.250000 0.250000
O O6 0.991834 0.368985 0.186569
O O7 0.929425 0.274727 0.026550
O O8 0.098015 0.302205 0.036186
O O9 0.292092 0.614796 0.672791
O O10 0.153394 0.593385 0.820600
O O11 0.156529 0.663178 0.566959
O O12 0.455219 0.892845 0.810841
O O13 0.367684 0.811940 0.002540
O O14 0.459877 0.494538 0.818756
O O15 0.545309 0.579800 0.944602
O O16 0.183469 0.250000 0.250000
O O17 0.261116 0.263657 0.002858
O O18 0.836601 0.250000 0.250000
#
# Coordination Sequence:
#
# PCOD9410294 Si02
#       8
#     8   8   8   8   8   8   8   8
#     4  10  22  40  61  91 123 169 215 264 321 386
#     4  10  21  39  65  86 122 173 210 249 326 387
#     4  10  20  40  66  87 127 168 218 259 325 392
#     4  10  22  40  68  94 126 175 221 265 327 397
#     4  11  25  40  64  97 131 163 219 275 331 386
#     4  11  23  43  61  97 127 165 217 270 327 391
#     4  10  24  40  64  99 128 162 217 268 321 385
#     4  10  20  40  64  90 121 172 214 258 321 393
#
# _framework density 20.959931999999998
#
# number of rings (size 3 to 8) (size 9 to 14) (size 15 to 20)
#    0.000    1.750    3.750    0.375    5.250    2.000 
#   11.250    0.625    0.000    0.000    0.000    0.000 
#    0.000    0.000    0.000    0.000    0.000    0.000 
#
# Total GULP energy -357011.633972 kJ/mol
# GULP energy per Si atom -5578.306781 kJ/mol
# Density = 2.091223 g / cm^3
# Si number density = 20.959932 Si / 1000 Ang^3
#
#
#
# Elastic Constant Matrix: (Units=GPa)
#
#
# Indices 1 2 3 4 5 6 
#
# 1 140.0856 -9.9258 52.2279 0.0000 0.0000 0.0000
# 2 -9.9258 34.5713 -5.6145 0.0000 0.0000 0.0000
# 3 52.2279 -5.6145 65.0669 0.0000 0.0000 0.0000
# 4 0.0000 0.0000 0.0000 22.8350 0.0000 0.0000
# 5 0.0000 0.0000 0.0000 0.0000 50.0810 0.0000
# 6 0.0000 0.0000 0.0000 0.0000 0.0000 18.6373
#
#
#
# Elastic Compliance Matrix: (Units=1/GPa)
#
#
# Indices 1 2 3 4 5 6 
#
# 1 0.010277 0.001634 -0.008108 0.000000 0.000000 0.000000
# 2 0.001634 0.029597 0.001242 0.000000 0.000000 0.000000
# 3 -0.008108 0.001242 0.021984 0.000000 0.000000 0.000000
# 4 0.000000 0.000000 0.000000 0.043792 0.000000 0.000000
# 5 0.000000 0.000000 0.000000 0.000000 0.019968 0.000000
# 6 0.000000 0.000000 0.000000 0.000000 0.000000 0.053656
#
#
# Mechanical properties :
#
#
# Convention : Reuss Voigt Hill
#
# Bulk Modulus (GPa) = 19.45752 34.78877 27.12314
# Shear Modulus (GPa) = 24.16980 31.84642 28.00811
#
# Velocity S-wave (km/s) = 3.39948 3.90217 3.65947
# Velocity P-wave (km/s) = 4.97111 6.07753 5.55195
#
# Compressibility (1/GPa) = 0.05139402
#
# Stress axis : x y z
#
# Youngs Moduli (GPa) = 97.30187 33.78767 45.48677
#
# Poissons Ratio (x) = -0.05521 0.36882
# Poissons Ratio (y) = -0.15898 -0.05651
# Poissons Ratio (z) = 0.78896 -0.04198
#
# Static dielectric constant tensor:
#      x y z
#    x 1.801390 0.000000 0.000000 
#    y 0.000000 1.833030 0.000000 
#    z 0.000000 0.000000 1.752090 
# 
# From -- ./inp_files/12591.got.cif
#   From: 2010.05.17/outbox.cif.g08.bks.cpg/sg52_7_cif.got.tgz:12591.got - 2010.06.03 12:15:38.
