data_PCOD9410497
_publ_section_title
;
Structure prediction by ZEFSAII (Michael W. Deem and Ramdas Pophale) SiO2 
 PCOD9410497
Probable space group: P N N A
;
_chemical_formula_sum "Si O2"
_cell_formula_units_Z 32
_cell_length_a 8.912680
_cell_length_b 22.111911
_cell_length_c 7.613971
_cell_angle_alpha 90.000000
_cell_angle_beta 90.000000
_cell_angle_gamma 90.000000
_cell_volume 1500.533895
_symmetry_space_group_name_H-M "P N N A"
_symmetry_group_IT_number 52
_symmetry_cell_setting 'orthorhombic'
loop_
_space_group_symop_operation_xyz
x,y,z
1/2-x,-y,z
x,1/2-y,1/2-z
1/2-x,1/2+y,1/2-z
-x,-y,-z
1/2+x,y,-z
-x,1/2+y,1/2+z
1/2+x,1/2-y,1/2+z
loop_
_atom_site_type_symbol
_atom_site_label
_atom_site_fract_x
_atom_site_fract_y
_atom_site_fract_z
Si Si1 0.360948 0.361624 0.633583
Si Si2 0.044381 0.459077 0.165160
Si Si3 0.849904 0.076670 0.785006
Si Si4 0.955139 0.814105 0.174776
O O1 0.432769 0.406995 0.773521
O O2 0.292152 0.402523 0.475390
O O3 0.487536 0.323469 0.526987
O O4 0.222416 0.321916 0.696097
O O5 0.067971 0.512800 0.306325
O O6 0.210521 0.430536 0.154384
O O7 0.000000 0.500000 0.000000
O O8 0.963547 0.129495 0.729613
O O9 0.004739 0.750000 0.250000
#
# Coordination Sequence:
#
# PCOD9410497 Si02
#       4
#     8   8   8   8
#     4  10  20  44  69  96 132 183 235 286 354 417
#     4  11  22  40  67 107 141 176 223 305 363 426
#     4   9  21  42  65  95 140 175 235 274 358 426
#     4  10  22  43  69  98 130 188 245 280 340 423
#
# _framework density 21.325742999999999
#
# number of rings (size 3 to 8) (size 9 to 14) (size 15 to 20)
#    1.500    0.500    2.500    0.750    0.000    5.000 
#    9.000    2.500    0.000    0.000    0.000    0.000 
#    0.000    0.000    0.000    0.000    0.000    0.000 
#
# Total GULP energy -178206.363647 kJ/mol
# GULP energy per Si atom -5568.948864 kJ/mol
# Density = 2.127720 g / cm^3
# Si number density = 21.325743 Si / 1000 Ang^3
#
#
#
# Elastic Constant Matrix: (Units=GPa)
#
#
# Indices 1 2 3 4 5 6 
#
# 1 119.5745 52.3837 29.6318 0.0000 0.0000 0.0000
# 2 52.3837 115.3045 17.3257 0.0000 0.0000 0.0000
# 3 29.6318 17.3257 60.8291 0.0000 0.0000 0.0000
# 4 0.0000 0.0000 0.0000 28.3955 0.0000 0.0000
# 5 0.0000 0.0000 0.0000 0.0000 -35.8056 0.0000
# 6 0.0000 0.0000 0.0000 0.0000 0.0000 32.0194
#
#
#
# Elastic Compliance Matrix: (Units=1/GPa)
#
#
# Indices 1 2 3 4 5 6 
#
# 1 0.011410 -0.004543 -0.004264 0.000000 0.000000 0.000000
# 2 -0.004543 0.010869 -0.000883 0.000000 0.000000 0.000000
# 3 -0.004264 -0.000883 0.018768 0.000000 0.000000 0.000000
# 4 0.000000 0.000000 0.000000 0.035217 0.000000 0.000000
# 5 0.000000 0.000000 0.000000 0.000000 -0.027929 0.000000
# 6 0.000000 0.000000 0.000000 0.000000 0.000000 0.031231
#
#
# Mechanical properties :
#
#
# Convention : Reuss Voigt Hill
#
# Bulk Modulus (GPa) = 46.15220 54.93229 50.54224
# Shear Modulus (GPa) = 47.09485 18.01300 32.55392
#
# Velocity S-wave (km/s) = 4.70441 2.90946 3.91129
# Velocity P-wave (km/s) = 7.15522 6.09107 6.64449
#
# Compressibility (1/GPa) = 0.02166744
#
# Stress axis : x y z
#
# Youngs Moduli (GPa) = 87.64360 92.00309 53.28167
#
# Poissons Ratio (x) = 0.41796 0.22720
# Poissons Ratio (y) = 0.39815 0.04704
# Poissons Ratio (z) = 0.37373 0.08123
#
# Static dielectric constant tensor:
#      x y z
#    x 1.826380 0.000000 0.000000 
#    y 0.000000 1.764520 0.000000 
#    z 0.000000 0.000000 1.870900 
# 
# From -- ./inp_files/7223.got.cif
#   From: 2010.05.17/outbox.cif.g08.bks.cpg/sg52_4_cif.got.tgz:7223.got - 2010.06.03 12:15:38.
