data_PCOD9410425
_publ_section_title
;
Structure prediction by ZEFSAII (Michael W. Deem and Ramdas Pophale) SiO2 
 PCOD9410425
Probable space group: P N N A
;
_chemical_formula_sum "Si O2"
_cell_formula_units_Z 44
_cell_length_a 12.903717
_cell_length_b 7.777775
_cell_length_c 18.808910
_cell_angle_alpha 90.000000
_cell_angle_beta 90.000000
_cell_angle_gamma 90.000000
_cell_volume 1887.703728
_symmetry_space_group_name_H-M "P N N A"
_symmetry_group_IT_number 52
_symmetry_cell_setting 'orthorhombic'
loop_
_space_group_symop_operation_xyz
x,y,z
1/2-x,-y,z
x,1/2-y,1/2-z
1/2-x,1/2+y,1/2-z
-x,-y,-z
1/2+x,y,-z
-x,1/2+y,1/2+z
1/2+x,1/2-y,1/2+z
loop_
_atom_site_type_symbol
_atom_site_label
_atom_site_fract_x
_atom_site_fract_y
_atom_site_fract_z
Si Si1 0.250000 0.500000 0.866048
Si Si2 0.840436 0.610308 0.694830
Si Si3 0.750000 0.000000 0.047182
Si Si4 0.733767 0.707843 0.938688
Si Si5 0.066884 0.642578 0.964323
Si Si6 0.695036 0.750000 0.250000
Si Si7 0.050328 0.574155 0.642594
O O1 0.155951 0.551684 0.916805
O O2 0.239150 0.339137 0.812160
O O3 0.750000 0.500000 0.731365
O O4 0.882700 0.750000 0.750000
O O5 0.777529 0.707957 0.632315
O O6 0.939166 0.501715 0.666617
O O7 0.645550 0.986855 0.093487
O O8 0.778657 0.831544 0.000602
O O9 0.750000 0.500000 0.938636
O O10 0.615542 0.734283 0.966027
O O11 0.013087 0.764151 0.906703
O O12 0.000000 0.500000 0.000000
O O13 0.616094 0.617814 0.286935
#
# Coordination Sequence:
#
# PCOD9410425 Si02
#       7
#     4   8   4   8   8   4   8
#     4  10  21  38  68  99 136 182 234 298 360 429
#     4  12  26  48  73 100 144 197 251 290 364 443
#     4  10  23  44  74 113 140 186 242 300 380 429
#     4  11  22  44  69 106 147 186 238 305 352 431
#     4  10  21  40  68 104 139 185 237 294 373 428
#     4  10  20  42  64  98 134 182 236 294 360 428
#     4  10  22  42  74  97 143 190 229 310 366 421
#
# _framework density 23.308743
#
# number of rings (size 3 to 8) (size 9 to 14) (size 15 to 20)
#    0.000    1.455    2.727    2.182    0.000    0.727 
#    3.273    0.000    2.000    0.000    0.000    0.000 
#    0.000    0.000    0.000    0.000    0.000    0.000 
#
# Total GULP energy -244958.084397 kJ/mol
# GULP energy per Si atom -5567.229191 kJ/mol
# Density = 2.325569 g / cm^3
# Si number density = 23.308743 Si / 1000 Ang^3
#
#
#
# Elastic Constant Matrix: (Units=GPa)
#
#
# Indices 1 2 3 4 5 6 
#
# 1 68.0181 4.9436 19.3047 0.0000 0.0000 0.0000
# 2 4.9436 44.3076 6.3381 0.0000 0.0000 0.0000
# 3 19.3047 6.3381 92.7868 0.0000 0.0000 0.0000
# 4 0.0000 0.0000 0.0000 39.0685 0.0000 0.0000
# 5 0.0000 0.0000 0.0000 0.0000 736.4770 0.0000
# 6 0.0000 0.0000 0.0000 0.0000 0.0000 22.9915
#
#
#
# Elastic Compliance Matrix: (Units=1/GPa)
#
#
# Indices 1 2 3 4 5 6 
#
# 1 0.015698 -0.001297 -0.003177 0.000000 0.000000 0.000000
# 2 -0.001297 0.022899 -0.001294 0.000000 0.000000 0.000000
# 3 -0.003177 -0.001294 0.011527 0.000000 0.000000 0.000000
# 4 0.000000 0.000000 0.000000 0.025596 0.000000 0.000000
# 5 0.000000 0.000000 0.000000 0.000000 0.001358 0.000000
# 6 0.000000 0.000000 0.000000 0.000000 0.000000 0.043494
#
#
# Mechanical properties :
#
#
# Convention : Reuss Voigt Hill
#
# Bulk Modulus (GPa) = 25.91567 29.58726 27.75147
# Shear Modulus (GPa) = 34.48932 171.34247 102.91589
#
# Velocity S-wave (km/s) = 3.85083 8.58310 6.65201
# Velocity P-wave (km/s) = 5.56007 10.53315 8.42204
#
# Compressibility (1/GPa) = 0.03858669
#
# Stress axis : x y z
#
# Youngs Moduli (GPa) = 63.70215 43.66933 86.75361
#
# Poissons Ratio (x) = 0.05664 0.27566
# Poissons Ratio (y) = 0.08262 0.11229
# Poissons Ratio (z) = 0.20241 0.05652
#
# Static dielectric constant tensor:
#      x y z
#    x -0.554830 0.000000 0.000000 
#    y 0.000000 2.033650 0.000000 
#    z 0.000000 0.000000 1.867150 
# 
# From -- ./inp_files/33001.got.cif
#   From: 2010.05.17/outbox.cif.g08.bks.cpg/sg52_17_cif.got.tgz:33001.got - 2010.06.03 12:15:38.
