data_PCOD9410191
_publ_section_title
;
Structure prediction by ZEFSAII (Michael W. Deem and Ramdas Pophale) SiO2 
 PCOD9410191
Probable space group: P N N A
;
_chemical_formula_sum "Si O2"
_cell_formula_units_Z 32
_cell_length_a 14.782465
_cell_length_b 10.257920
_cell_length_c 10.349665
_cell_angle_alpha 90.000000
_cell_angle_beta 90.000000
_cell_angle_gamma 90.000000
_cell_volume 1569.395705
_symmetry_space_group_name_H-M "P N N A"
_symmetry_group_IT_number 52
_symmetry_cell_setting 'orthorhombic'
loop_
_space_group_symop_operation_xyz
x,y,z
1/2-x,-y,z
x,1/2-y,1/2-z
1/2-x,1/2+y,1/2-z
-x,-y,-z
1/2+x,y,-z
-x,1/2+y,1/2+z
1/2+x,1/2-y,1/2+z
loop_
_atom_site_type_symbol
_atom_site_label
_atom_site_fract_x
_atom_site_fract_y
_atom_site_fract_z
Si Si1 0.999297 0.385656 0.105348
Si Si2 0.149344 0.544058 0.208600
Si Si3 0.605622 0.703978 0.548089
Si Si4 0.820998 0.389149 0.286669
O O1 0.913977 0.399037 0.202979
O O2 0.092812 0.414741 0.175196
O O3 0.984436 0.253070 0.025781
O O4 0.000000 0.500000 0.000000
O O5 0.250000 0.500000 0.240400
O O6 0.098704 0.615034 0.326805
O O7 0.150233 0.658151 0.097299
O O8 0.658220 0.624283 0.438434
O O9 0.750000 0.500000 0.256010
O O10 0.779609 0.250000 0.250000
#
# Coordination Sequence:
#
# PCOD9410191 Si02
#       4
#     8   8   8   8
#     4   9  20  38  59  84 125 163 208 266 323 380
#     4  10  20  39  62  91 128 169 213 263 330 386
#     4   9  20  39  58  89 127 159 218 268 311 392
#     4  10  21  40  62  92 126 165 217 266 320 385
#
# _framework density 20.390014999999998
#
# number of rings (size 3 to 8) (size 9 to 14) (size 15 to 20)
#    0.000    2.500    0.000    0.750    0.000   10.000 
#   27.000    0.000    0.000    0.000    0.000    0.000 
#    0.000    0.000    0.000    0.000    0.000    0.000 
#
# Total GULP energy -178214.488926 kJ/mol
# GULP energy per Si atom -5569.202779 kJ/mol
# Density = 2.034361 g / cm^3
# Si number density = 20.390015 Si / 1000 Ang^3
#
#
#
# Elastic Constant Matrix: (Units=GPa)
#
#
# Indices 1 2 3 4 5 6 
#
# 1 101.7726 54.0709 32.5456 0.0000 0.0000 0.0000
# 2 54.0709 77.2220 19.8460 0.0000 0.0000 0.0000
# 3 32.5456 19.8460 103.0999 0.0000 0.0000 0.0000
# 4 0.0000 0.0000 0.0000 -4.2663 0.0000 0.0000
# 5 0.0000 0.0000 0.0000 0.0000 -4.2006 0.0000
# 6 0.0000 0.0000 0.0000 0.0000 0.0000 29.8586
#
#
#
# Elastic Compliance Matrix: (Units=1/GPa)
#
#
# Indices 1 2 3 4 5 6 
#
# 1 0.016566 -0.010790 -0.003153 0.000000 0.000000 0.000000
# 2 -0.010790 0.020651 -0.000569 0.000000 0.000000 0.000000
# 3 -0.003153 -0.000569 0.010804 0.000000 0.000000 0.000000
# 4 0.000000 0.000000 0.000000 -0.234393 0.000000 0.000000
# 5 0.000000 0.000000 0.000000 0.000000 -0.238060 0.000000
# 6 0.000000 0.000000 0.000000 0.000000 0.000000 0.033491
#
#
# Mechanical properties :
#
#
# Convention : Reuss Voigt Hill
#
# Bulk Modulus (GPa) = 52.63556 55.00216 53.81886
# Shear Modulus (GPa) = -14.06134 15.98713 0.96290
#
# Velocity S-wave (km/s) = -2.62891 2.80316 0.68794
# Velocity P-wave (km/s) = 4.08112 6.12458 5.20414
#
# Compressibility (1/GPa) = 0.01899856
#
# Stress axis : x y z
#
# Youngs Moduli (GPa) = 60.36306 48.42412 92.55766
#
# Poissons Ratio (x) = 0.52248 0.29180
# Poissons Ratio (y) = 0.65129 0.05268
# Poissons Ratio (z) = 0.19030 0.02756
#
# Static dielectric constant tensor:
#      x y z
#    x 1.717610 0.000000 0.000000 
#    y 0.000000 1.726350 0.000000 
#    z 0.000000 0.000000 1.801210 
# 
# From -- ./inp_files/17609.got.cif
#   From: 2010.05.17/outbox.cif.g08.bks.cpg/sg52_9_cif.got.tgz:17609.got - 2010.06.03 12:15:38.
