data_PCOD9410533
_publ_section_title
;
Structure prediction by ZEFSAII (Michael W. Deem and Ramdas Pophale) SiO2 
 PCOD9410533
Probable space group: P N N A
;
_chemical_formula_sum "Si O2"
_cell_formula_units_Z 32
_cell_length_a 14.260594
_cell_length_b 5.198917
_cell_length_c 20.336122
_cell_angle_alpha 90.000000
_cell_angle_beta 90.000000
_cell_angle_gamma 90.000000
_cell_volume 1507.712857
_symmetry_space_group_name_H-M "P N N A"
_symmetry_group_IT_number 52
_symmetry_cell_setting 'orthorhombic'
loop_
_space_group_symop_operation_xyz
x,y,z
1/2-x,-y,z
x,1/2-y,1/2-z
1/2-x,1/2+y,1/2-z
-x,-y,-z
1/2+x,y,-z
-x,1/2+y,1/2+z
1/2+x,1/2-y,1/2+z
loop_
_atom_site_type_symbol
_atom_site_label
_atom_site_fract_x
_atom_site_fract_y
_atom_site_fract_z
Si Si1 0.165121 0.208580 0.408181
Si Si2 0.857004 0.998006 0.779513
Si Si3 0.351958 0.590615 0.559089
Si Si4 0.967640 0.067380 0.426429
O O1 0.157804 0.443576 0.356330
O O2 0.160896 0.328438 0.481682
O O3 0.067949 0.062991 0.391713
O O4 0.250000 0.000000 0.403862
O O5 0.905972 0.750000 0.750000
O O6 0.750000 0.000000 0.750559
O O7 0.902098 0.250000 0.750000
O O8 0.250000 0.500000 0.582217
O O9 0.421424 0.349607 0.569691
O O10 0.394729 0.845244 0.592636
O O11 0.000000 0.000000 0.500000
#
# Coordination Sequence:
#
# PCOD9410533 Si02
#       4
#     8   8   8   8
#     4  11  21  35  56  79 110 155 190 220 273 332
#     4  10  21  34  48  70 101 140 186 226 258 306
#     4  11  21  35  53  77 109 148 187 227 272 322
#     4  10  21  34  50  78 109 141 188 229 262 322
#
# _framework density 21.224201000000001
#
# number of rings (size 3 to 8) (size 9 to 14) (size 15 to 20)
#    0.000    1.500    0.000    9.750    0.000    8.000 
#    0.000    0.000    0.000    0.000    0.000    0.000 
#    0.000    6.000    0.000   27.000    0.000    1.750 
#
# Total GULP energy -178302.732116 kJ/mol
# GULP energy per Si atom -5571.960379 kJ/mol
# Density = 2.117589 g / cm^3
# Si number density = 21.224201 Si / 1000 Ang^3
#
#
#
# Elastic Constant Matrix: (Units=GPa)
#
#
# Indices 1 2 3 4 5 6 
#
# 1 133.1120 60.9460 19.0351 0.0000 0.0000 0.0000
# 2 60.9460 191.8684 31.3538 0.0000 0.0000 0.0000
# 3 19.0351 31.3538 38.4086 0.0000 0.0000 0.0000
# 4 0.0000 0.0000 0.0000 14.4625 0.0000 0.0000
# 5 0.0000 0.0000 0.0000 0.0000 -5.1480 0.0000
# 6 0.0000 0.0000 0.0000 0.0000 0.0000 51.6497
#
#
#
# Elastic Compliance Matrix: (Units=1/GPa)
#
#
# Indices 1 2 3 4 5 6 
#
# 1 0.008986 -0.002454 -0.002450 0.000000 0.000000 0.000000
# 2 -0.002454 0.006684 -0.004240 0.000000 0.000000 0.000000
# 3 -0.002450 -0.004240 0.030712 0.000000 0.000000 0.000000
# 4 0.000000 0.000000 0.000000 0.069144 0.000000 0.000000
# 5 0.000000 0.000000 0.000000 0.000000 -0.194250 0.000000
# 6 0.000000 0.000000 0.000000 0.000000 0.000000 0.019361
#
#
# Mechanical properties :
#
#
# Convention : Reuss Voigt Hill
#
# Bulk Modulus (GPa) = 35.59605 65.11764 50.35685
# Shear Modulus (GPa) = -157.68849 28.99646 -64.34601
#
# Velocity S-wave (km/s) = -8.62890 3.70022 -5.51209
# Velocity P-wave (km/s) = 9.08126 7.00021 4.09062
#
# Compressibility (1/GPa) = 0.02809301
#
# Stress axis : x y z
#
# Youngs Moduli (GPa) = 111.27820 149.60290 32.56087
#
# Poissons Ratio (x) = 0.36714 0.07978
# Poissons Ratio (y) = 0.27309 0.13807
# Poissons Ratio (z) = 0.27267 0.63437
#
# Static dielectric constant tensor:
#      x y z
#    x 1.824750 0.000000 0.000000 
#    y 0.000000 1.934280 0.000000 
#    z 0.000000 0.000000 2.113680 
# 
# From -- ./inp_files/40400.got.cif
#   From: 2010.05.17/outbox.cif.g08.bks.cpg/sg52_21_cif.got.tgz:40400.got - 2010.06.03 12:15:38.
