data_PCOD9410305
_publ_section_title
;
Structure prediction by ZEFSAII (Michael W. Deem and Ramdas Pophale) SiO2 
 PCOD9410305
Probable space group: P N N A
;
_chemical_formula_sum "Si O2"
_cell_formula_units_Z 28
_cell_length_a 27.946817
_cell_length_b 5.732174
_cell_length_c 7.457946
_cell_angle_alpha 90.000000
_cell_angle_beta 90.000000
_cell_angle_gamma 90.000000
_cell_volume 1194.733250
_symmetry_space_group_name_H-M "P N N A"
_symmetry_group_IT_number 52
_symmetry_cell_setting 'orthorhombic'
loop_
_space_group_symop_operation_xyz
x,y,z
1/2-x,-y,z
x,1/2-y,1/2-z
1/2-x,1/2+y,1/2-z
-x,-y,-z
1/2+x,y,-z
-x,1/2+y,1/2+z
1/2+x,1/2-y,1/2+z
loop_
_atom_site_type_symbol
_atom_site_label
_atom_site_fract_x
_atom_site_fract_y
_atom_site_fract_z
Si Si1 0.904766 0.250000 0.750000
Si Si2 0.654736 0.375413 0.559818
Si Si3 0.061273 0.383887 0.971350
Si Si4 0.009939 0.750000 0.750000
Si Si5 0.750000 0.000000 0.153360
O O1 0.871471 0.387509 0.612514
O O2 0.934724 0.422779 0.870826
O O3 0.664823 0.250000 0.750000
O O4 0.614142 0.223531 0.459326
O O5 0.703089 0.428027 0.457806
O O6 0.023391 0.218629 0.073432
O O7 0.042397 0.523882 0.799165
O O8 0.761877 0.250000 0.250000
#
# Coordination Sequence:
#
# PCOD9410305 Si02
#       5
#     4   8   8   4   4
#     4  10  20  40  69  96 142 194 253 300 376 456
#     4  10  24  47  75 104 147 200 250 311 387 471
#     4  10  21  41  65 105 142 201 246 312 373 456
#     4  10  20  40  65 102 154 190 257 304 376 454
#     4  12  32  50  78 120 152 188 260 332 404 452
#
# _framework density 23.43619
#
# number of rings (size 3 to 8) (size 9 to 14) (size 15 to 20)
#    0.000    1.714    4.286    0.000   10.000    3.429 
#    0.000    0.000    0.000    0.000    0.000    0.000 
#    0.000    0.000    0.000    0.000    0.000    0.000 
#
# Total GULP energy -156523.876728 kJ/mol
# GULP energy per Si atom -5590.138455 kJ/mol
# Density = 2.338285 g / cm^3
# Si number density = 23.436190 Si / 1000 Ang^3
#
#
#
# Elastic Constant Matrix: (Units=GPa)
#
#
# Indices 1 2 3 4 5 6 
#
# 1 203.0577 83.6289 97.7160 0.0000 0.0000 0.0000
# 2 83.6289 132.9918 70.5406 0.0000 0.0000 0.0000
# 3 97.7160 70.5406 130.2763 0.0000 0.0000 0.0000
# 4 0.0000 0.0000 0.0000 38.1279 0.0000 0.0000
# 5 0.0000 0.0000 0.0000 0.0000 38.1326 0.0000
# 6 0.0000 0.0000 0.0000 0.0000 0.0000 24.1518
#
#
#
# Elastic Compliance Matrix: (Units=1/GPa)
#
#
# Indices 1 2 3 4 5 6 
#
# 1 0.008347 -0.002705 -0.004796 0.000000 0.000000 0.000000
# 2 -0.002705 0.011425 -0.004158 0.000000 0.000000 0.000000
# 3 -0.004796 -0.004158 0.013525 0.000000 0.000000 0.000000
# 4 0.000000 0.000000 0.000000 0.026228 0.000000 0.000000
# 5 0.000000 0.000000 0.000000 0.000000 0.026224 0.000000
# 6 0.000000 0.000000 0.000000 0.000000 0.000000 0.041405
#
#
# Mechanical properties :
#
#
# Convention : Reuss Voigt Hill
#
# Bulk Modulus (GPa) = 100.20401 107.78854 103.99628
# Shear Modulus (GPa) = 32.51048 34.37849 33.44448
#
# Velocity S-wave (km/s) = 3.72854 3.83416 3.78172
# Velocity P-wave (km/s) = 7.83486 8.10514 7.97114
#
# Compressibility (1/GPa) = 0.00997964
#
# Stress axis : x y z
#
# Youngs Moduli (GPa) = 119.80975 87.52421 73.93924
#
# Poissons Ratio (x) = 0.23673 0.35461
# Poissons Ratio (y) = 0.32405 0.30742
# Poissons Ratio (z) = 0.57460 0.36391
#
# Static dielectric constant tensor:
#      x y z
#    x 1.835780 0.000000 0.000000 
#    y 0.000000 2.195820 0.000000 
#    z 0.000000 0.000000 1.923360 
# 
# From -- ./inp_files/14685.got.cif
#   From: 2010.05.17/outbox.cif.g08.bks.cpg/sg52_8_cif.got.tgz:14685.got - 2010.06.03 12:15:38.
