data_PCOD9410854
_publ_section_title
;
Structure prediction by ZEFSAII (Michael W. Deem and Ramdas Pophale) SiO2 
 PCOD9410854
Probable space group: P N N A
;
_chemical_formula_sum "Si O2"
_cell_formula_units_Z 36
_cell_length_a 19.505548
_cell_length_b 13.089334
_cell_length_c 5.587660
_cell_angle_alpha 90.000000
_cell_angle_beta 90.000000
_cell_angle_gamma 90.000000
_cell_volume 1426.611360
_symmetry_space_group_name_H-M "P N N A"
_symmetry_group_IT_number 52
_symmetry_cell_setting 'orthorhombic'
loop_
_space_group_symop_operation_xyz
x,y,z
1/2-x,-y,z
x,1/2-y,1/2-z
1/2-x,1/2+y,1/2-z
-x,-y,-z
1/2+x,y,-z
-x,1/2+y,1/2+z
1/2+x,1/2-y,1/2+z
loop_
_atom_site_type_symbol
_atom_site_label
_atom_site_fract_x
_atom_site_fract_y
_atom_site_fract_z
Si Si1 0.347052 0.750000 0.750000
Si Si2 0.559971 0.625147 0.252497
Si Si3 0.875556 0.130486 0.743951
Si Si4 0.773634 0.897679 0.903225
Si Si5 0.408162 0.634917 0.139349
O O1 0.296634 0.694801 0.566854
O O2 0.395182 0.838021 0.637799
O O3 0.562397 0.750000 0.250000
O O4 0.593179 0.590842 0.503122
O O5 0.481067 0.592889 0.217877
O O6 0.598016 0.589338 0.010905
O O7 0.897011 0.250000 0.750000
O O8 0.793282 0.128901 0.752366
O O9 0.840481 0.918479 0.742012
O O10 0.750000 0.000000 0.040133
O O11 0.407232 0.750000 0.250000
#
# Coordination Sequence:
#
# PCOD9410854 Si02
#       5
#     4   8   8   8   8
#     4  10  22  40  68  92 128 172 228 264 336 392
#     4   9  20  35  64  95 128 167 218 270 331 396
#     4  10  21  38  63  97 127 169 218 275 331 390
#     4  11  25  42  63  95 132 175 226 275 328 394
#     4   9  20  38  64  91 124 170 218 267 326 399
#
# _framework density 25.234622000000002
#
# number of rings (size 3 to 8) (size 9 to 14) (size 15 to 20)
#    0.000    2.222    0.000    2.000   18.667    0.889 
#    0.000    2.222    0.000    0.000    0.000    0.000 
#    0.000    0.000    0.000    0.000    0.000    0.000 
#
# Total GULP energy -201281.488056 kJ/mol
# GULP energy per Si atom -5591.152446 kJ/mol
# Density = 2.517719 g / cm^3
# Si number density = 25.234622 Si / 1000 Ang^3
#
#
#
# Elastic Constant Matrix: (Units=GPa)
#
#
# Indices 1 2 3 4 5 6 
#
# 1 226.6132 21.0386 133.0283 0.0000 0.0000 0.0000
# 2 21.0386 51.8620 30.3286 0.0000 0.0000 0.0000
# 3 133.0283 30.3286 175.6587 0.0000 0.0000 0.0000
# 4 0.0000 0.0000 0.0000 37.0661 0.0000 0.0000
# 5 0.0000 0.0000 0.0000 0.0000 38.6799 0.0000
# 6 0.0000 0.0000 0.0000 0.0000 0.0000 28.6669
#
#
#
# Elastic Compliance Matrix: (Units=1/GPa)
#
#
# Indices 1 2 3 4 5 6 
#
# 1 0.007950 0.000329 -0.006077 0.000000 0.000000 0.000000
# 2 0.000329 0.021461 -0.003955 0.000000 0.000000 0.000000
# 3 -0.006077 -0.003955 0.010978 0.000000 0.000000 0.000000
# 4 0.000000 0.000000 0.000000 0.026979 0.000000 0.000000
# 5 0.000000 0.000000 0.000000 0.000000 0.025853 0.000000
# 6 0.000000 0.000000 0.000000 0.000000 0.000000 0.034883
#
#
# Mechanical properties :
#
#
# Convention : Reuss Voigt Hill
#
# Bulk Modulus (GPa) = 47.65704 91.43610 69.54657
# Shear Modulus (GPa) = 32.36153 38.86514 35.61333
#
# Velocity S-wave (km/s) = 3.58498 3.92873 3.76079
# Velocity P-wave (km/s) = 6.00522 7.54274 6.81747
#
# Compressibility (1/GPa) = 0.02098326
#
# Stress axis : x y z
#
# Youngs Moduli (GPa) = 125.78952 46.59596 91.09115
#
# Poissons Ratio (x) = -0.01533 0.55359
# Poissons Ratio (y) = -0.04138 0.36022
# Poissons Ratio (z) = 0.76446 0.18427
#
# Static dielectric constant tensor:
#      x y z
#    x 1.909110 0.000000 0.000000 
#    y 0.000000 2.154980 0.000000 
#    z 0.000000 0.000000 2.060800 
# 
# From -- ./inp_files/4094.got.cif
#   From: 2010.05.17/outbox.cif.g08.bks.cpg/sg52_3_cif.got.tgz:4094.got - 2010.06.03 12:15:38.
