data_PCOD9410590
_publ_section_title
;
Structure prediction by ZEFSAII (Michael W. Deem and Ramdas Pophale) SiO2 
 PCOD9410590
Probable space group: P N N A
;
_chemical_formula_sum "Si O2"
_cell_formula_units_Z 48
_cell_length_a 28.234109
_cell_length_b 6.159932
_cell_length_c 14.984681
_cell_angle_alpha 90.000000
_cell_angle_beta 90.000000
_cell_angle_gamma 90.000000
_cell_volume 2606.138589
_symmetry_space_group_name_H-M "P N N A"
_symmetry_group_IT_number 52
_symmetry_cell_setting 'orthorhombic'
loop_
_space_group_symop_operation_xyz
x,y,z
1/2-x,-y,z
x,1/2-y,1/2-z
1/2-x,1/2+y,1/2-z
-x,-y,-z
1/2+x,y,-z
-x,1/2+y,1/2+z
1/2+x,1/2-y,1/2+z
loop_
_atom_site_type_symbol
_atom_site_label
_atom_site_fract_x
_atom_site_fract_y
_atom_site_fract_z
Si Si1 0.502418 0.250000 0.750000
Si Si2 0.198749 0.003948 0.068501
Si Si3 0.183827 0.250000 0.250000
Si Si4 0.893716 0.767548 0.995530
Si Si5 0.639522 0.610609 0.864186
Si Si6 0.474294 0.564252 0.906008
Si Si7 0.052075 0.582827 0.367039
O O1 0.475603 0.369459 0.832786
O O2 0.537558 0.426850 0.711248
O O3 0.181571 0.764837 0.099548
O O4 0.250000 0.000000 0.023491
O O5 0.206032 0.158046 0.157365
O O6 0.156025 0.100713 0.007784
O O7 0.155698 0.461124 0.217106
O O8 0.880997 0.561572 0.934475
O O9 0.931886 0.929847 0.949469
O O10 0.921732 0.660111 0.077727
O O11 0.596944 0.772022 0.847114
O O12 0.507235 0.763252 0.877674
O O13 0.500000 0.500000 0.000000
#
# Coordination Sequence:
#
# PCOD9410590 Si02
#       7
#     4   8   4   8   8   8   8
#     4  12  26  33  58  86 114 164 202 246 300 355
#     4  10  23  36  53  74 106 152 197 247 299 347
#     4  10  22  31  50  74 108 146 200 248 294 323
#     4  10  22  38  58  78 109 160 196 248 296 349
#     4  10  21  36  52  78 111 157 202 241 288 349
#     4  12  23  40  58  82 120 160 201 248 297 358
#     4  11  22  38  56  84 119 159 203 241 290 358
#
# _framework density 18.418054999999999
#
# number of rings (size 3 to 8) (size 9 to 14) (size 15 to 20)
#    0.000    1.333    3.333    1.500    2.333   18.000 
#    0.000    0.000    0.000    0.000    0.000    0.000 
#    0.000    0.000   79.333    0.000    0.000    0.000 
#
# Total GULP energy -267562.632758 kJ/mol
# GULP energy per Si atom -5574.221516 kJ/mol
# Density = 1.837614 g / cm^3
# Si number density = 18.418055 Si / 1000 Ang^3
#
#
#
# Elastic Constant Matrix: (Units=GPa)
#
#
# Indices 1 2 3 4 5 6 
#
# 1 114.4238 40.2013 30.7493 0.0000 0.0000 0.0000
# 2 40.2013 120.0636 33.0670 0.0000 0.0000 0.0000
# 3 30.7493 33.0670 49.2403 0.0000 0.0000 0.0000
# 4 0.0000 0.0000 0.0000 34.8693 0.0000 0.0000
# 5 0.0000 0.0000 0.0000 0.0000 12.6228 0.0000
# 6 0.0000 0.0000 0.0000 0.0000 0.0000 15.2531
#
#
#
# Elastic Compliance Matrix: (Units=1/GPa)
#
#
# Indices 1 2 3 4 5 6 
#
# 1 0.010951 -0.002188 -0.005369 0.000000 0.000000 0.000000
# 2 -0.002188 0.010656 -0.005790 0.000000 0.000000 0.000000
# 3 -0.005369 -0.005790 0.027550 0.000000 0.000000 0.000000
# 4 0.000000 0.000000 0.000000 0.028679 0.000000 0.000000
# 5 0.000000 0.000000 0.000000 0.000000 0.079221 0.000000
# 6 0.000000 0.000000 0.000000 0.000000 0.000000 0.065560
#
#
# Mechanical properties :
#
#
# Convention : Reuss Voigt Hill
#
# Bulk Modulus (GPa) = 44.51814 54.64033 49.57924
# Shear Modulus (GPa) = 19.47050 24.52972 22.00011
#
# Velocity S-wave (km/s) = 3.25490 3.65338 3.45988
# Velocity P-wave (km/s) = 6.19267 6.89401 6.55273
#
# Compressibility (1/GPa) = 0.02246275
#
# Stress axis : x y z
#
# Youngs Moduli (GPa) = 91.31521 93.84311 36.29817
#
# Poissons Ratio (x) = 0.20533 0.19490
# Poissons Ratio (y) = 0.19980 0.21015
# Poissons Ratio (z) = 0.49030 0.54332
#
# Static dielectric constant tensor:
#      x y z
#    x 1.665120 0.000000 0.000000 
#    y 0.000000 1.673940 0.000000 
#    z 0.000000 0.000000 1.677700 
# 
# From -- ./inp_files/29452.got.cif
#   From: 2010.05.17/outbox.cif.g08.bks.cpg/sg52_15_cif.got.tgz:29452.got - 2010.06.03 12:15:38.
