data_PCOD9410320
_publ_section_title
;
Structure prediction by ZEFSAII (Michael W. Deem and Ramdas Pophale) SiO2 
 PCOD9410320
Probable space group: P N N A
;
_chemical_formula_sum "Si O2"
_cell_formula_units_Z 64
_cell_length_a 8.698007
_cell_length_b 18.363955
_cell_length_c 19.273645
_cell_angle_alpha 90.000000
_cell_angle_beta 90.000000
_cell_angle_gamma 90.000000
_cell_volume 3078.575637
_symmetry_space_group_name_H-M "P N N A"
_symmetry_group_IT_number 52
_symmetry_cell_setting 'orthorhombic'
loop_
_space_group_symop_operation_xyz
x,y,z
1/2-x,-y,z
x,1/2-y,1/2-z
1/2-x,1/2+y,1/2-z
-x,-y,-z
1/2+x,y,-z
-x,1/2+y,1/2+z
1/2+x,1/2-y,1/2+z
loop_
_atom_site_type_symbol
_atom_site_label
_atom_site_fract_x
_atom_site_fract_y
_atom_site_fract_z
Si Si1 0.226317 0.915619 0.013829
Si Si2 0.489815 0.656374 0.037076
Si Si3 0.962747 0.938125 0.296121
Si Si4 0.128516 0.896440 0.677023
Si Si5 0.178947 0.581302 0.079179
Si Si6 0.488435 0.319629 0.562580
Si Si7 0.642667 0.570914 0.660438
Si Si8 0.900546 0.821931 0.786436
O O1 0.377968 0.876619 0.042572
O O2 0.107951 0.913420 0.079864
O O3 0.250000 0.000000 0.994816
O O4 0.163843 0.864526 0.953709
O O5 0.598842 0.637429 0.101931
O O6 0.319122 0.635642 0.062663
O O7 0.501573 0.742656 0.022609
O O8 0.544371 0.604925 0.974003
O O9 0.808264 0.891734 0.305084
O O10 0.105804 0.913352 0.344024
O O11 0.008411 0.941458 0.215402
O O12 0.921044 0.018766 0.323603
O O13 0.017314 0.861131 0.734108
O O14 0.250000 0.500000 0.069837
O O15 0.509377 0.302856 0.643292
O O16 0.750000 0.500000 0.657959
O O17 0.753870 0.631581 0.691945
O O18 0.843246 0.750000 0.750000
#
# Coordination Sequence:
#
# PCOD9410320 Si02
#       8
#     8   8   8   8   8   8   8   8
#     4  10  23  43  68  96 123 159 214 267 328 386
#     4  12  24  40  63  89 133 173 217 264 316 386
#     4  11  23  39  64  96 127 165 214 267 313 375
#     4  11  23  40  62  95 130 166 212 263 322 378
#     4  12  24  39  63  95 130 176 219 260 312 373
#     4  11  24  43  67  92 126 167 207 267 326 384
#     4  10  20  40  67  94 123 163 210 265 313 386
#     4  11  22  41  66  90 125 171 209 254 326 383
#
# _framework density 20.788834999999999
#
# number of rings (size 3 to 8) (size 9 to 14) (size 15 to 20)
#    0.000    1.000    3.750    3.375    1.750    1.000 
#    2.250    0.625    0.000    0.000    0.000    0.000 
#    0.000    0.000    0.000    0.000    0.000    0.000 
#
# Total GULP energy -357626.597579 kJ/mol
# GULP energy per Si atom -5587.915587 kJ/mol
# Density = 2.074152 g / cm^3
# Si number density = 20.788835 Si / 1000 Ang^3
#
#
#
# Elastic Constant Matrix: (Units=GPa)
#
#
# Indices 1 2 3 4 5 6 
#
# 1 39.7011 0.6512 -11.3006 0.0000 0.0000 0.0000
# 2 0.6512 98.2272 -0.7547 0.0000 0.0000 0.0000
# 3 -11.3006 -0.7547 50.5882 0.0000 0.0000 0.0000
# 4 0.0000 0.0000 0.0000 30.4223 0.0000 0.0000
# 5 0.0000 0.0000 0.0000 0.0000 18.9347 0.0000
# 6 0.0000 0.0000 0.0000 0.0000 0.0000 26.0550
#
#
#
# Elastic Compliance Matrix: (Units=1/GPa)
#
#
# Indices 1 2 3 4 5 6 
#
# 1 0.026900 -0.000132 0.006007 0.000000 0.000000 0.000000
# 2 -0.000132 0.010182 0.000122 0.000000 0.000000 0.000000
# 3 0.006007 0.000122 0.021111 0.000000 0.000000 0.000000
# 4 0.000000 0.000000 0.000000 0.032871 0.000000 0.000000
# 5 0.000000 0.000000 0.000000 0.000000 0.052813 0.000000
# 6 0.000000 0.000000 0.000000 0.000000 0.000000 0.038380
#
#
# Mechanical properties :
#
#
# Convention : Reuss Voigt Hill
#
# Bulk Modulus (GPa) = 14.24739 18.41203 16.32971
# Shear Modulus (GPa) = 25.81853 28.41043 27.11448
#
# Velocity S-wave (km/s) = 3.52794 3.70079 3.61540
# Velocity P-wave (km/s) = 4.84391 5.20933 5.02994
#
# Compressibility (1/GPa) = 0.07018829
#
# Stress axis : x y z
#
# Youngs Moduli (GPa) = 37.17440 98.20966 47.36831
#
# Poissons Ratio (x) = 0.01298 -0.28455
# Poissons Ratio (y) = 0.00491 -0.00580
# Poissons Ratio (z) = -0.22331 -0.01202
#
# Static dielectric constant tensor:
#      x y z
#    x 1.741660 0.000000 0.000000 
#    y 0.000000 1.743340 0.000000 
#    z 0.000000 0.000000 1.772430 
# 
# From -- ./inp_files/36167.got.cif
#   From: 2010.05.17/outbox.cif.g08.bks.cpg/sg52_19_cif.got.tgz:36167.got - 2010.06.03 12:15:38.
