data_PCOD9410820
_publ_section_title
;
Structure prediction by ZEFSAII (Michael W. Deem and Ramdas Pophale) SiO2 
 PCOD9410820
Probable space group: P N N A
;
_chemical_formula_sum "Si O2"
_cell_formula_units_Z 28
_cell_length_a 11.849493
_cell_length_b 5.074593
_cell_length_c 19.518181
_cell_angle_alpha 90.000000
_cell_angle_beta 90.000000
_cell_angle_gamma 90.000000
_cell_volume 1173.654656
_symmetry_space_group_name_H-M "P N N A"
_symmetry_group_IT_number 52
_symmetry_cell_setting 'orthorhombic'
loop_
_space_group_symop_operation_xyz
x,y,z
1/2-x,-y,z
x,1/2-y,1/2-z
1/2-x,1/2+y,1/2-z
-x,-y,-z
1/2+x,y,-z
-x,1/2+y,1/2+z
1/2+x,1/2-y,1/2+z
loop_
_atom_site_type_symbol
_atom_site_label
_atom_site_fract_x
_atom_site_fract_y
_atom_site_fract_z
Si Si1 0.814894 0.250000 0.750000
Si Si2 0.918095 0.965705 0.882898
Si Si3 0.874812 0.463087 0.967061
Si Si4 0.883042 0.001833 0.202854
O O1 0.750000 0.500000 0.782169
O O2 0.875025 0.090491 0.811434
O O3 0.878628 0.166050 0.940317
O O4 0.051585 0.976943 0.868442
O O5 0.879598 0.677899 0.905408
O O6 0.750000 0.500000 0.001624
O O7 0.000000 0.500000 0.000000
O O8 0.909116 0.750000 0.250000
O O9 0.750000 0.000000 0.190676
O O10 0.914374 0.250000 0.250000
#
# Coordination Sequence:
#
# PCOD9410820 Si02
#       4
#     4   8   8   8
#     4  12  24  38  66 104 142 174 212 274 366 440
#     4  12  24  43  71 102 139 178 229 284 358 417
#     4  12  28  49  71  99 137 185 246 297 343 412
#     4  10  21  38  61  96 140 180 221 265 331 421
#
# _framework density 23.857102000000001
#
# number of rings (size 3 to 8) (size 9 to 14) (size 15 to 20)
#    0.000    0.571    1.429    7.714    2.000    2.286 
#    0.000    0.000    0.000    0.000    0.000    0.000 
#    0.000    0.000    0.000    0.000    0.000    0.000 
#
# Total GULP energy -156312.083567 kJ/mol
# GULP energy per Si atom -5582.574413 kJ/mol
# Density = 2.380280 g / cm^3
# Si number density = 23.857102 Si / 1000 Ang^3
#
#
#
# Elastic Constant Matrix: (Units=GPa)
#
#
# Indices 1 2 3 4 5 6 
#
# 1 150.4840 20.5455 36.7133 0.0000 0.0000 0.0000
# 2 20.5455 143.5156 5.9918 0.0000 0.0000 0.0000
# 3 36.7133 5.9918 38.4991 0.0000 0.0000 0.0000
# 4 0.0000 0.0000 0.0000 21.9723 0.0000 0.0000
# 5 0.0000 0.0000 0.0000 0.0000 37.6281 0.0000
# 6 0.0000 0.0000 0.0000 0.0000 0.0000 55.1680
#
#
#
# Elastic Compliance Matrix: (Units=1/GPa)
#
#
# Indices 1 2 3 4 5 6 
#
# 1 0.008777 -0.000913 -0.008228 0.000000 0.000000 0.000000
# 2 -0.000913 0.007108 -0.000236 0.000000 0.000000 0.000000
# 3 -0.008228 -0.000236 0.033858 0.000000 0.000000 0.000000
# 4 0.000000 0.000000 0.000000 0.045512 0.000000 0.000000
# 5 0.000000 0.000000 0.000000 0.000000 0.026576 0.000000
# 6 0.000000 0.000000 0.000000 0.000000 0.000000 0.018126
#
#
# Mechanical properties :
#
#
# Convention : Reuss Voigt Hill
#
# Bulk Modulus (GPa) = 32.26848 50.99997 41.63422
# Shear Modulus (GPa) = 29.57864 40.90357 35.24110
#
# Velocity S-wave (km/s) = 3.52494 4.14517 3.84757
# Velocity P-wave (km/s) = 5.48835 6.65835 6.10146
#
# Compressibility (1/GPa) = 0.03099000
#
# Stress axis : x y z
#
# Youngs Moduli (GPa) = 113.93089 140.67806 29.53537
#
# Poissons Ratio (x) = 0.12844 0.24302
# Poissons Ratio (y) = 0.10402 0.00696
# Poissons Ratio (z) = 0.93743 0.03315
#
# Static dielectric constant tensor:
#      x y z
#    x 2.334830 0.000000 0.000000 
#    y 0.000000 1.821530 0.000000 
#    z 0.000000 0.000000 1.886920 
# 
# From -- ./inp_files/36367.got.cif
#   From: 2010.05.17/outbox.cif.g08.bks.cpg/sg52_19_cif.got.tgz:36367.got - 2010.06.03 12:15:38.
