data_PCOD9410416
_publ_section_title
;
Structure prediction by ZEFSAII (Michael W. Deem and Ramdas Pophale) SiO2 
 PCOD9410416
Probable space group: P N N A
;
_chemical_formula_sum "Si O2"
_cell_formula_units_Z 28
_cell_length_a 5.240851
_cell_length_b 13.178662
_cell_length_c 17.436379
_cell_angle_alpha 90.000000
_cell_angle_beta 90.000000
_cell_angle_gamma 90.000000
_cell_volume 1204.285431
_symmetry_space_group_name_H-M "P N N A"
_symmetry_group_IT_number 52
_symmetry_cell_setting 'orthorhombic'
loop_
_space_group_symop_operation_xyz
x,y,z
1/2-x,-y,z
x,1/2-y,1/2-z
1/2-x,1/2+y,1/2-z
-x,-y,-z
1/2+x,y,-z
-x,1/2+y,1/2+z
1/2+x,1/2-y,1/2+z
loop_
_atom_site_type_symbol
_atom_site_label
_atom_site_fract_x
_atom_site_fract_y
_atom_site_fract_z
Si Si1 0.067473 0.869889 0.770734
Si Si2 0.750000 0.500000 0.850034
Si Si3 0.961466 0.838980 0.451122
Si Si4 0.574745 0.676152 0.675881
O O1 0.106938 0.750000 0.750000
O O2 0.850451 0.873065 0.835692
O O3 0.349876 0.898695 0.798144
O O4 0.931748 0.927596 0.700850
O O5 0.943936 0.433698 0.900443
O O6 0.172310 0.839936 0.518962
O O7 0.996163 0.741945 0.396624
O O8 0.611519 0.750000 0.750000
#
# Coordination Sequence:
#
# PCOD9410416 Si02
#       4
#     8   4   8   8
#     4  10  21  38  65  88 129 173 232 273 309 388
#     4  12  24  42  68 104 144 176 216 288 342 410
#     4  12  26  41  63 103 148 178 206 272 361 428
#     4  10  20  42  62  84 132 178 232 260 306 408
#
# _framework density 23.250304
#
# number of rings (size 3 to 8) (size 9 to 14) (size 15 to 20)
#    0.000    1.143    5.714    2.571    4.000    3.429 
#    0.000    0.000    0.000    0.000    0.000   20.000 
#    0.000    0.000    0.000    0.000    0.000    0.000 
#
# Total GULP energy -156546.770441 kJ/mol
# GULP energy per Si atom -5590.956087 kJ/mol
# Density = 2.319738 g / cm^3
# Si number density = 23.250304 Si / 1000 Ang^3
#
#
#
# Elastic Constant Matrix: (Units=GPa)
#
#
# Indices 1 2 3 4 5 6 
#
# 1 137.6947 -6.5456 -10.6120 0.0000 0.0000 0.0000
# 2 -6.5456 38.1241 27.5517 0.0000 0.0000 0.0000
# 3 -10.6120 27.5517 54.1031 0.0000 0.0000 0.0000
# 4 0.0000 0.0000 0.0000 45.8898 0.0000 0.0000
# 5 0.0000 0.0000 0.0000 0.0000 -101.9456 0.0000
# 6 0.0000 0.0000 0.0000 0.0000 0.0000 31.7110
#
#
#
# Elastic Compliance Matrix: (Units=1/GPa)
#
#
# Indices 1 2 3 4 5 6 
#
# 1 0.007377 0.000350 0.001269 0.000000 0.000000 0.000000
# 2 0.000350 0.041521 -0.021076 0.000000 0.000000 0.000000
# 3 0.001269 -0.021076 0.029465 0.000000 0.000000 0.000000
# 4 0.000000 0.000000 0.000000 0.021791 0.000000 0.000000
# 5 0.000000 0.000000 0.000000 0.000000 -0.009809 0.000000
# 6 0.000000 0.000000 0.000000 0.000000 0.000000 0.031535
#
#
# Mechanical properties :
#
#
# Convention : Reuss Voigt Hill
#
# Bulk Modulus (GPa) = 25.34973 27.85667 26.60320
# Shear Modulus (GPa) = 28.74478 9.76624 19.25551
#
# Velocity S-wave (km/s) = 3.51995 2.05173 2.88094
# Velocity P-wave (km/s) = 5.23896 4.19762 4.74693
#
# Compressibility (1/GPa) = 0.03944815
#
# Stress axis : x y z
#
# Youngs Moduli (GPa) = 135.55911 24.08393 33.93866
#
# Poissons Ratio (x) = -0.00842 -0.04307
# Poissons Ratio (y) = -0.04738 0.71529
# Poissons Ratio (z) = -0.17202 0.50759
#
# Static dielectric constant tensor:
#      x y z
#    x 1.980300 0.000000 0.000000 
#    y 0.000000 2.340430 0.000000 
#    z 0.000000 0.000000 1.856670 
# 
# From -- ./inp_files/23437.got.cif
#   From: 2010.05.17/outbox.cif.g08.bks.cpg/sg52_12_cif.got.tgz:23437.got - 2010.06.03 12:15:38.
