data_PCOD9410382
_publ_section_title
;
Structure prediction by ZEFSAII (Michael W. Deem and Ramdas Pophale) SiO2 
 PCOD9410382
Probable space group: P N N A
;
_chemical_formula_sum "Si O2"
_cell_formula_units_Z 56
_cell_length_a 9.827552
_cell_length_b 19.028077
_cell_length_c 15.336892
_cell_angle_alpha 90.000000
_cell_angle_beta 90.000000
_cell_angle_gamma 90.000000
_cell_volume 2867.989850
_symmetry_space_group_name_H-M "P N N A"
_symmetry_group_IT_number 52
_symmetry_cell_setting 'orthorhombic'
loop_
_space_group_symop_operation_xyz
x,y,z
1/2-x,-y,z
x,1/2-y,1/2-z
1/2-x,1/2+y,1/2-z
-x,-y,-z
1/2+x,y,-z
-x,1/2+y,1/2+z
1/2+x,1/2-y,1/2+z
loop_
_atom_site_type_symbol
_atom_site_label
_atom_site_fract_x
_atom_site_fract_y
_atom_site_fract_z
Si Si1 0.248176 0.416548 0.594891
Si Si2 0.659049 0.737712 0.848765
Si Si3 0.312367 0.567048 0.905814
Si Si4 0.529522 0.847416 0.981185
Si Si5 0.073685 0.889089 0.469154
Si Si6 0.472394 0.781788 0.388453
Si Si7 0.275594 0.324596 0.769189
O O1 0.250000 0.500000 0.612733
O O2 0.106506 0.384866 0.555561
O O3 0.365280 0.401541 0.523829
O O4 0.280775 0.371878 0.682717
O O5 0.617897 0.750000 0.750000
O O6 0.603898 0.802630 0.905845
O O7 0.607697 0.666467 0.893995
O O8 0.821886 0.729279 0.853702
O O9 0.250000 0.500000 0.857988
O O10 0.467062 0.555261 0.932290
O O11 0.303225 0.633768 0.843780
O O12 0.209335 0.581302 0.986164
O O13 0.503822 0.789193 0.057131
O O14 0.990226 0.844593 0.541644
O O15 0.580295 0.803248 0.313935
O O16 0.207417 0.250000 0.750000
#
# Coordination Sequence:
#
# PCOD9410382 Si02
#       7
#     8   8   8   8   8   8   8
#     4  12  26  45  68 100 136 181 225 275 334 404
#     4  11  23  37  64  98 127 162 219 282 325 376
#     4  11  23  41  63  91 130 170 210 262 326 391
#     4  11  24  42  66  95 134 177 224 272 336 395
#     4  10  22  38  62  91 126 166 212 261 324 385
#     4  10  20  41  65  97 124 165 216 272 330 382
#     4  11  24  39  69  97 126 165 219 270 325 386
#
# _framework density 19.525870000000001
#
# number of rings (size 3 to 8) (size 9 to 14) (size 15 to 20)
#    0.000    1.143    4.286    1.714    6.000    0.000 
#    0.000    0.000    0.000    0.857    0.000    0.000 
#    0.000    0.000    0.000    0.000    0.000    0.000 
#
# Total GULP energy -312644.851563 kJ/mol
# GULP energy per Si atom -5582.943778 kJ/mol
# Density = 1.948143 g / cm^3
# Si number density = 19.525870 Si / 1000 Ang^3
#
#
#
# Elastic Constant Matrix: (Units=GPa)
#
#
# Indices 1 2 3 4 5 6 
#
# 1 112.4416 23.5485 61.0378 0.0000 0.0000 0.0000
# 2 23.5485 101.3896 41.9398 0.0000 0.0000 0.0000
# 3 61.0378 41.9398 121.7632 0.0000 0.0000 0.0000
# 4 0.0000 0.0000 0.0000 25.9588 0.0000 0.0000
# 5 0.0000 0.0000 0.0000 0.0000 -69.7592 0.0000
# 6 0.0000 0.0000 0.0000 0.0000 0.0000 15.8219
#
#
#
# Elastic Compliance Matrix: (Units=1/GPa)
#
#
# Indices 1 2 3 4 5 6 
#
# 1 0.012229 -0.000355 -0.006008 0.000000 0.000000 0.000000
# 2 -0.000355 0.011512 -0.003787 0.000000 0.000000 0.000000
# 3 -0.006008 -0.003787 0.012529 0.000000 0.000000 0.000000
# 4 0.000000 0.000000 0.000000 0.038523 0.000000 0.000000
# 5 0.000000 0.000000 0.000000 0.000000 -0.014335 0.000000
# 6 0.000000 0.000000 0.000000 0.000000 0.000000 0.063204
#
#
# Mechanical properties :
#
#
# Convention : Reuss Voigt Hill
#
# Bulk Modulus (GPa) = 62.61932 65.40517 64.01225
# Shear Modulus (GPa) = 33.49301 8.34217 20.91759
#
# Velocity S-wave (km/s) = 4.14613 2.06921 3.27659
# Velocity P-wave (km/s) = 7.42025 6.26724 6.86798
#
# Compressibility (1/GPa) = 0.01596951
#
# Stress axis : x y z
#
# Youngs Moduli (GPa) = 81.77109 86.86606 79.81620
#
# Poissons Ratio (x) = 0.03085 0.47953
# Poissons Ratio (y) = 0.02904 0.30227
# Poissons Ratio (z) = 0.49128 0.32897
#
# Static dielectric constant tensor:
#      x y z
#    x 1.680660 0.000000 0.000000 
#    y 0.000000 1.711350 0.000000 
#    z 0.000000 0.000000 1.691270 
# 
# From -- ./inp_files/24950.got.cif
#   From: 2010.05.17/outbox.cif.g08.bks.cpg/sg52_13_cif.got.tgz:24950.got - 2010.06.03 12:15:38.
