data_PCOD9410619
_publ_section_title
;
Structure prediction by ZEFSAII (Michael W. Deem and Ramdas Pophale) SiO2 
 PCOD9410619
Probable space group: P N N A
;
_chemical_formula_sum "Si O2"
_cell_formula_units_Z 32
_cell_length_a 7.709936
_cell_length_b 5.083730
_cell_length_c 36.068348
_cell_angle_alpha 90.000000
_cell_angle_beta 90.000000
_cell_angle_gamma 90.000000
_cell_volume 1413.707302
_symmetry_space_group_name_H-M "P N N A"
_symmetry_group_IT_number 52
_symmetry_cell_setting 'orthorhombic'
loop_
_space_group_symop_operation_xyz
x,y,z
1/2-x,-y,z
x,1/2-y,1/2-z
1/2-x,1/2+y,1/2-z
-x,-y,-z
1/2+x,y,-z
-x,1/2+y,1/2+z
1/2+x,1/2-y,1/2+z
loop_
_atom_site_type_symbol
_atom_site_label
_atom_site_fract_x
_atom_site_fract_y
_atom_site_fract_z
Si Si1 0.062437 0.616426 0.713250
Si Si2 0.038861 0.503918 0.911805
Si Si3 0.556817 0.905403 0.671660
Si Si4 0.042321 0.488150 0.543208
O O1 0.250000 0.500000 0.723917
O O2 0.981044 0.750000 0.750000
O O3 0.973451 0.371876 0.692225
O O4 0.070119 0.863210 0.685775
O O5 0.250000 0.500000 0.908713
O O6 0.981365 0.783402 0.928621
O O7 0.966954 0.408609 0.872432
O O8 0.982442 0.290300 0.941716
O O9 0.750000 0.000000 0.680588
O O10 0.250000 0.500000 0.545807
O O11 0.000000 0.500000 0.500000
#
# Coordination Sequence:
#
# PCOD9410619 Si02
#       4
#     8   8   8   8
#     4  12  25  46  71  96 128 173 220 261 318 400
#     4  10  21  39  61  88 123 168 215 257 311 385
#     4  12  26  43  68 101 134 168 213 275 334 379
#     4  10  21  36  58  87 121 163 211 263 316 372
#
# _framework density 22.63552
#
# number of rings (size 3 to 8) (size 9 to 14) (size 15 to 20)
#    0.000    1.000    0.000    7.500    0.000    6.000 
#    0.000    1.250    0.000    0.000    0.000    0.000 
#    0.000    0.000    0.000    0.000    0.000    0.000 
#
# Total GULP energy -178869.557050 kJ/mol
# GULP energy per Si atom -5589.673658 kJ/mol
# Density = 2.258400 g / cm^3
# Si number density = 22.635520 Si / 1000 Ang^3
#
#
#
# Elastic Constant Matrix: (Units=GPa)
#
#
# Indices 1 2 3 4 5 6 
#
# 1 51.1409 35.2480 17.4233 0.0000 0.0000 0.0000
# 2 35.2480 152.1294 58.0276 0.0000 0.0000 0.0000
# 3 17.4233 58.0276 161.0385 0.0000 0.0000 0.0000
# 4 0.0000 0.0000 0.0000 36.3074 0.0000 0.0000
# 5 0.0000 0.0000 0.0000 0.0000 7.1261 0.0000
# 6 0.0000 0.0000 0.0000 0.0000 0.0000 18.6436
#
#
#
# Elastic Compliance Matrix: (Units=1/GPa)
#
#
# Indices 1 2 3 4 5 6 
#
# 1 0.023332 -0.005151 -0.000668 0.000000 0.000000 0.000000
# 2 -0.005151 0.008758 -0.002598 0.000000 0.000000 0.000000
# 3 -0.000668 -0.002598 0.007218 0.000000 0.000000 0.000000
# 4 0.000000 0.000000 0.000000 0.027543 0.000000 0.000000
# 5 0.000000 0.000000 0.000000 0.000000 0.140329 0.000000
# 6 0.000000 0.000000 0.000000 0.000000 0.000000 0.053638
#
#
# Mechanical properties :
#
#
# Convention : Reuss Voigt Hill
#
# Bulk Modulus (GPa) = 44.49877 65.07851 54.78864
# Shear Modulus (GPa) = 17.53503 29.32276 23.42890
#
# Velocity S-wave (km/s) = 2.78631 3.60311 3.22071
# Velocity P-wave (km/s) = 5.48205 6.79139 6.17154
#
# Compressibility (1/GPa) = 0.02247253
#
# Stress axis : x y z
#
# Youngs Moduli (GPa) = 42.86006 114.18152 138.53640
#
# Poissons Ratio (x) = 0.58815 0.09258
# Poissons Ratio (y) = 0.22077 0.35999
# Poissons Ratio (z) = 0.02864 0.29670
#
# Static dielectric constant tensor:
#      x y z
#    x 1.945010 0.000000 0.000000 
#    y 0.000000 1.821020 0.000000 
#    z 0.000000 0.000000 1.851610 
# 
# From -- ./inp_files/44004.got.cif
#   From: 2010.05.17/outbox.cif.g08.bks.cpg/sg52_23_cif.got.tgz:44004.got - 2010.06.03 12:15:38.
