data_PCOD9410991
_publ_section_title
;
Structure prediction by ZEFSAII (Michael W. Deem and Ramdas Pophale) SiO2 
 PCOD9410991
Probable space group: P N N A
;
_chemical_formula_sum "Si O2"
_cell_formula_units_Z 32
_cell_length_a 22.921604
_cell_length_b 7.900543
_cell_length_c 7.528758
_cell_angle_alpha 90.000000
_cell_angle_beta 90.000000
_cell_angle_gamma 90.000000
_cell_volume 1363.406261
_symmetry_space_group_name_H-M "P N N A"
_symmetry_group_IT_number 52
_symmetry_cell_setting 'orthorhombic'
loop_
_space_group_symop_operation_xyz
x,y,z
1/2-x,-y,z
x,1/2-y,1/2-z
1/2-x,1/2+y,1/2-z
-x,-y,-z
1/2+x,y,-z
-x,1/2+y,1/2+z
1/2+x,1/2-y,1/2+z
loop_
_atom_site_type_symbol
_atom_site_label
_atom_site_fract_x
_atom_site_fract_y
_atom_site_fract_z
Si Si1 0.725862 0.688095 0.062610
Si Si2 0.564082 0.565951 0.535834
Si Si3 0.647852 0.270035 0.535647
Si Si4 0.392628 0.408693 0.060690
O O1 0.750000 0.500000 0.084419
O O2 0.702019 0.750000 0.250000
O O3 0.784136 0.790016 0.013010
O O4 0.672526 0.671369 0.927835
O O5 0.500000 0.500000 0.500000
O O6 0.611518 0.430075 0.469371
O O7 0.577587 0.568058 0.747895
O O8 0.571664 0.758128 0.468554
O O9 0.646644 0.250000 0.750000
O O10 0.618360 0.092514 0.474060
#
# Coordination Sequence:
#
# PCOD9410991 Si02
#       4
#     8   8   8   8
#     4  10  22  39  61  98 131 162 214 276 342 397
#     4  10  21  39  64  94 123 171 222 258 323 394
#     4   9  20  39  65  92 125 166 207 272 335 386
#     4   9  21  41  60  92 126 165 216 268 321 388
#
# _framework density 23.470625999999999
#
# number of rings (size 3 to 8) (size 9 to 14) (size 15 to 20)
#    0.000    2.500    0.000    0.000    7.000    1.000 
#    4.500    3.750    0.000    0.000    0.000    0.000 
#    0.000    0.000    0.000    0.000    0.000    0.000 
#
# Total GULP energy -178639.420450 kJ/mol
# GULP energy per Si atom -5582.481889 kJ/mol
# Density = 2.341721 g / cm^3
# Si number density = 23.470626 Si / 1000 Ang^3
#
#
#
# Elastic Constant Matrix: (Units=GPa)
#
#
# Indices 1 2 3 4 5 6 
#
# 1 133.0632 54.4153 33.9510 0.0000 0.0000 0.0000
# 2 54.4153 117.7217 17.3194 0.0000 0.0000 0.0000
# 3 33.9510 17.3194 87.8634 0.0000 0.0000 0.0000
# 4 0.0000 0.0000 0.0000 3.3927 0.0000 0.0000
# 5 0.0000 0.0000 0.0000 0.0000 46.8185 0.0000
# 6 0.0000 0.0000 0.0000 0.0000 0.0000 22.4205
#
#
#
# Elastic Compliance Matrix: (Units=1/GPa)
#
#
# Indices 1 2 3 4 5 6 
#
# 1 0.009998 -0.004174 -0.003041 0.000000 0.000000 0.000000
# 2 -0.004174 0.010491 -0.000455 0.000000 0.000000 0.000000
# 3 -0.003041 -0.000455 0.012646 0.000000 0.000000 0.000000
# 4 0.000000 0.000000 0.000000 0.294750 0.000000 0.000000
# 5 0.000000 0.000000 0.000000 0.000000 0.021359 0.000000
# 6 0.000000 0.000000 0.000000 0.000000 0.000000 0.044602
#
#
# Mechanical properties :
#
#
# Convention : Reuss Voigt Hill
#
# Bulk Modulus (GPa) = 56.19390 61.11328 58.65359
# Shear Modulus (GPa) = 12.04480 30.05716 21.05098
#
# Velocity S-wave (km/s) = 2.26782 3.58247 2.99809
# Velocity P-wave (km/s) = 5.55442 6.57319 6.08516
#
# Compressibility (1/GPa) = 0.01779553
#
# Stress axis : x y z
#
# Youngs Moduli (GPa) = 100.02018 95.31990 79.07716
#
# Poissons Ratio (x) = 0.39788 0.24043
# Poissons Ratio (y) = 0.41750 0.03598
# Poissons Ratio (z) = 0.30411 0.04338
#
# Static dielectric constant tensor:
#      x y z
#    x 1.860650 0.000000 0.000000 
#    y 0.000000 1.946890 0.000000 
#    z 0.000000 0.000000 1.997470 
# 
# From -- ./inp_files/12776.got.cif
#   From: 2010.05.17/outbox.cif.g08.bks.cpg/sg52_7_cif.got.tgz:12776.got - 2010.06.03 12:15:38.
