data_PCOD9410789
_publ_section_title
;
Structure prediction by ZEFSAII (Michael W. Deem and Ramdas Pophale) SiO2 
 PCOD9410789
Probable space group: P N N A
;
_chemical_formula_sum "Si O2"
_cell_formula_units_Z 24
_cell_length_a 14.168007
_cell_length_b 5.197605
_cell_length_c 12.118169
_cell_angle_alpha 90.000000
_cell_angle_beta 90.000000
_cell_angle_gamma 90.000000
_cell_volume 892.378378
_symmetry_space_group_name_H-M "P N N A"
_symmetry_group_IT_number 52
_symmetry_cell_setting 'orthorhombic'
loop_
_space_group_symop_operation_xyz
x,y,z
1/2-x,-y,z
x,1/2-y,1/2-z
1/2-x,1/2+y,1/2-z
-x,-y,-z
1/2+x,y,-z
-x,1/2+y,1/2+z
1/2+x,1/2-y,1/2+z
loop_
_atom_site_type_symbol
_atom_site_label
_atom_site_fract_x
_atom_site_fract_y
_atom_site_fract_z
Si Si1 0.355732 0.071058 0.406809
Si Si2 0.030029 0.057872 0.124739
Si Si3 0.328788 0.176126 0.865527
O O1 0.393159 0.338284 0.357236
O O2 0.355123 0.111258 0.541742
O O3 0.250000 0.000000 0.374874
O O4 0.424458 0.839990 0.370552
O O5 0.925900 0.042672 0.175854
O O6 0.000000 0.000000 0.000000
O O7 0.281868 0.250000 0.750000
O O8 0.250000 0.000000 0.924647
#
# Coordination Sequence:
#
# PCOD9410789 Si02
#       3
#     8   8   8
#     4  11  21  39  63  88 116 156 205 248 289 348
#     4  10  21  38  59  86 120 158 201 240 289 355
#     4  11  23  37  59  94 129 158 191 246 312 367
#
# _framework density 26.89442
#
# number of rings (size 3 to 8) (size 9 to 14) (size 15 to 20)
#    0.000    1.333    0.000   10.000    0.000    2.667 
#    0.000    0.000    0.000    4.000    0.000    9.333 
#    0.000    0.000    0.000    0.000    0.000    0.000 
#
# Total GULP energy -134256.131721 kJ/mol
# GULP energy per Si atom -5594.005488 kJ/mol
# Density = 2.683321 g / cm^3
# Si number density = 26.894420 Si / 1000 Ang^3
#
#
#
# Elastic Constant Matrix: (Units=GPa)
#
#
# Indices 1 2 3 4 5 6 
#
# 1 224.3810 94.6440 -17.5867 0.0000 0.0000 0.0000
# 2 94.6440 184.6344 2.0055 0.0000 0.0000 0.0000
# 3 -17.5867 2.0055 87.6203 0.0000 0.0000 0.0000
# 4 0.0000 0.0000 0.0000 39.5389 0.0000 0.0000
# 5 0.0000 0.0000 0.0000 0.0000 -3.0800 0.0000
# 6 0.0000 0.0000 0.0000 0.0000 0.0000 53.5840
#
#
#
# Elastic Compliance Matrix: (Units=1/GPa)
#
#
# Indices 1 2 3 4 5 6 
#
# 1 0.005817 -0.002995 0.001236 0.000000 0.000000 0.000000
# 2 -0.002995 0.006960 -0.000760 0.000000 0.000000 0.000000
# 3 0.001236 -0.000760 0.011678 0.000000 0.000000 0.000000
# 4 0.000000 0.000000 0.000000 0.025292 0.000000 0.000000
# 5 0.000000 0.000000 0.000000 0.000000 -0.324678 0.000000
# 6 0.000000 0.000000 0.000000 0.000000 0.000000 0.018662
#
#
# Mechanical properties :
#
#
# Convention : Reuss Voigt Hill
#
# Bulk Modulus (GPa) = 51.50417 72.75128 62.12773
# Shear Modulus (GPa) = -20.42832 45.84677 12.70923
#
# Velocity S-wave (km/s) = -2.75903 4.13327 2.17620
# Velocity P-wave (km/s) = 3.00706 7.06315 5.42819
#
# Compressibility (1/GPa) = 0.01941590
#
# Stress axis : x y z
#
# Youngs Moduli (GPa) = 171.91061 143.68383 85.62819
#
# Poissons Ratio (x) = 0.43036 -0.10585
# Poissons Ratio (y) = 0.51491 0.06512
# Poissons Ratio (z) = -0.21250 0.10927
#
# Static dielectric constant tensor:
#      x y z
#    x 2.107310 0.000000 0.000000 
#    y 0.000000 2.190690 0.000000 
#    z 0.000000 0.000000 2.289820 
# 
# From -- ./inp_files/26544.got.cif
#   From: 2010.05.17/outbox.cif.g08.bks.cpg/sg52_14_cif.got.tgz:26544.got - 2010.06.03 12:15:38.
