data_PCOD9410311
_publ_section_title
;
Structure prediction by ZEFSAII (Michael W. Deem and Ramdas Pophale) SiO2 
 PCOD9410311
Probable space group: P N N A
;
_chemical_formula_sum "Si O2"
_cell_formula_units_Z 32
_cell_length_a 8.873029
_cell_length_b 5.637680
_cell_length_c 27.410803
_cell_angle_alpha 90.000000
_cell_angle_beta 90.000000
_cell_angle_gamma 90.000000
_cell_volume 1371.178771
_symmetry_space_group_name_H-M "P N N A"
_symmetry_group_IT_number 52
_symmetry_cell_setting 'orthorhombic'
loop_
_space_group_symop_operation_xyz
x,y,z
1/2-x,-y,z
x,1/2-y,1/2-z
1/2-x,1/2+y,1/2-z
-x,-y,-z
1/2+x,y,-z
-x,1/2+y,1/2+z
1/2+x,1/2-y,1/2+z
loop_
_atom_site_type_symbol
_atom_site_label
_atom_site_fract_x
_atom_site_fract_y
_atom_site_fract_z
Si Si1 0.409233 0.055406 0.571145
Si Si2 0.403615 0.243919 0.307167
Si Si3 0.935846 0.740025 0.657016
Si Si4 0.112127 0.830376 0.027547
O O1 0.522201 0.831430 0.565977
O O2 0.250000 0.000000 0.596221
O O3 0.501725 0.245139 0.602445
O O4 0.360156 0.153728 0.518188
O O5 0.363692 0.250000 0.250000
O O6 0.245668 0.251997 0.336905
O O7 0.485546 0.491021 0.319604
O O8 0.482187 0.993086 0.318959
O O9 0.250000 0.000000 0.042925
O O10 0.000000 0.000000 0.000000
#
# Coordination Sequence:
#
# PCOD9410311 Si02
#       4
#     8   8   8   8
#     4  11  25  43  62 101 137 182 246 297 362 430
#     4  10  20  40  66 104 141 172 225 297 358 419
#     4  10  21  36  65  99 134 176 220 287 350 420
#     4  11  24  44  69  90 135 191 236 301 362 427
#
# _framework density 23.337582999999999
#
# number of rings (size 3 to 8) (size 9 to 14) (size 15 to 20)
#    0.000    1.500    2.500    3.750    3.500    4.000 
#    0.000    0.000    0.000    4.500    0.000    0.000 
#    0.000    0.000    0.000    0.000    0.000    0.000 
#
# Total GULP energy -178526.800539 kJ/mol
# GULP energy per Si atom -5578.962517 kJ/mol
# Density = 2.328447 g / cm^3
# Si number density = 23.337583 Si / 1000 Ang^3
#
#
#
# Elastic Constant Matrix: (Units=GPa)
#
#
# Indices 1 2 3 4 5 6 
#
# 1 101.0971 52.9944 53.1796 0.0000 0.0000 0.0000
# 2 52.9944 214.5555 38.8296 0.0000 0.0000 0.0000
# 3 53.1796 38.8296 92.7164 0.0000 0.0000 0.0000
# 4 0.0000 0.0000 0.0000 43.7455 0.0000 0.0000
# 5 0.0000 0.0000 0.0000 0.0000 -78.8665 0.0000
# 6 0.0000 0.0000 0.0000 0.0000 0.0000 36.0935
#
#
#
# Elastic Compliance Matrix: (Units=1/GPa)
#
#
# Indices 1 2 3 4 5 6 
#
# 1 0.015190 -0.002353 -0.007727 0.000000 0.000000 0.000000
# 2 -0.002353 0.005408 -0.000915 0.000000 0.000000 0.000000
# 3 -0.007727 -0.000915 0.015601 0.000000 0.000000 0.000000
# 4 0.000000 0.000000 0.000000 0.022859 0.000000 0.000000
# 5 0.000000 0.000000 0.000000 0.000000 -0.012680 0.000000
# 6 0.000000 0.000000 0.000000 0.000000 0.000000 0.027706
#
#
# Mechanical properties :
#
#
# Convention : Reuss Voigt Hill
#
# Bulk Modulus (GPa) = 70.38395 77.59737 73.99066
# Shear Modulus (GPa) = 49.59853 17.75218 33.67535
#
# Velocity S-wave (km/s) = 4.61506 2.76102 3.80276
# Velocity P-wave (km/s) = 7.65656 6.59442 7.14525
#
# Compressibility (1/GPa) = 0.01420778
#
# Stress axis : x y z
#
# Youngs Moduli (GPa) = 65.83458 184.92304 64.10022
#
# Poissons Ratio (x) = 0.43520 0.49529
# Poissons Ratio (y) = 0.15494 0.05864
# Poissons Ratio (z) = 0.50869 0.16918
#
# Static dielectric constant tensor:
#      x y z
#    x 1.794390 0.000000 0.000000 
#    y 0.000000 2.014560 0.000000 
#    z 0.000000 0.000000 1.911200 
# 
# From -- ./inp_files/43996.got.cif
#   From: 2010.05.17/outbox.cif.g08.bks.cpg/sg52_22_cif.got.tgz:43996.got - 2010.06.03 12:15:38.
