data_PCOD9410622
_publ_section_title
;
Structure prediction by ZEFSAII (Michael W. Deem and Ramdas Pophale) SiO2 
 PCOD9410622
Probable space group: P N N A
;
_chemical_formula_sum "Si O2"
_cell_formula_units_Z 24
_cell_length_a 13.293486
_cell_length_b 9.035998
_cell_length_c 9.341148
_cell_angle_alpha 90.000000
_cell_angle_beta 90.000000
_cell_angle_gamma 90.000000
_cell_volume 1122.057884
_symmetry_space_group_name_H-M "P N N A"
_symmetry_group_IT_number 52
_symmetry_cell_setting 'orthorhombic'
loop_
_space_group_symop_operation_xyz
x,y,z
1/2-x,-y,z
x,1/2-y,1/2-z
1/2-x,1/2+y,1/2-z
-x,-y,-z
1/2+x,y,-z
-x,1/2+y,1/2+z
1/2+x,1/2-y,1/2+z
loop_
_atom_site_type_symbol
_atom_site_label
_atom_site_fract_x
_atom_site_fract_y
_atom_site_fract_z
Si Si1 0.531048 0.267692 0.917615
Si Si2 0.343737 0.603036 0.653874
Si Si3 0.632126 0.537733 0.065118
O O1 0.544659 0.250000 0.750000
O O2 0.413430 0.299220 0.957095
O O3 0.586749 0.152729 0.022527
O O4 0.583800 0.423027 0.956671
O O5 0.250000 0.500000 0.609862
O O6 0.313758 0.750000 0.750000
O O7 0.400775 0.506794 0.773557
O O8 0.750000 0.500000 0.059701
#
# Coordination Sequence:
#
# PCOD9410622 Si02
#       3
#     8   8   8
#     4  10  21  36  58  90 119 151 202 259 302 346
#     4   9  19  38  63  87 120 166 206 242 299 372
#     4   9  20  40  60  82 120 166 203 239 298 373
#
# _framework density 21.389268999999999
#
# number of rings (size 3 to 8) (size 9 to 14) (size 15 to 20)
#    0.000    2.667    0.000    0.000    0.000   13.333 
#    0.000    8.333    0.000    0.000    0.000    0.000 
#    0.000    0.000    0.000    0.000    0.000    0.000 
#
# Total GULP energy -133650.077213 kJ/mol
# GULP energy per Si atom -5568.753217 kJ/mol
# Density = 2.134059 g / cm^3
# Si number density = 21.389269 Si / 1000 Ang^3
#
#
#
# Elastic Constant Matrix: (Units=GPa)
#
#
# Indices 1 2 3 4 5 6 
#
# 1 133.1343 65.7733 94.5226 0.0000 0.0000 0.0000
# 2 65.7733 82.9897 48.1774 0.0000 0.0000 0.0000
# 3 94.5226 48.1774 131.5285 0.0000 0.0000 0.0000
# 4 0.0000 0.0000 0.0000 33.2168 0.0000 0.0000
# 5 0.0000 0.0000 0.0000 0.0000 24.3818 0.0000
# 6 0.0000 0.0000 0.0000 0.0000 0.0000 63.8759
#
#
#
# Elastic Compliance Matrix: (Units=1/GPa)
#
#
# Indices 1 2 3 4 5 6 
#
# 1 0.019859 -0.009467 -0.010804 0.000000 0.000000 0.000000
# 2 -0.009467 0.019817 -0.000455 0.000000 0.000000 0.000000
# 3 -0.010804 -0.000455 0.015534 0.000000 0.000000 0.000000
# 4 0.000000 0.000000 0.000000 0.030105 0.000000 0.000000
# 5 0.000000 0.000000 0.000000 0.000000 0.041014 0.000000
# 6 0.000000 0.000000 0.000000 0.000000 0.000000 0.015655
#
#
# Mechanical properties :
#
#
# Convention : Reuss Voigt Hill
#
# Bulk Modulus (GPa) = 72.68838 84.95546 78.82192
# Shear Modulus (GPa) = 26.59252 33.57349 30.08301
#
# Velocity S-wave (km/s) = 3.52982 3.96617 3.75434
# Velocity P-wave (km/s) = 7.11830 7.79609 7.46489
#
# Compressibility (1/GPa) = 0.01375736
#
# Stress axis : x y z
#
# Youngs Moduli (GPa) = 50.35545 50.46126 64.37603
#
# Poissons Ratio (x) = 0.47773 0.69550
# Poissons Ratio (y) = 0.47673 0.02930
# Poissons Ratio (z) = 0.54403 0.02297
#
# Static dielectric constant tensor:
#      x y z
#    x 1.930840 0.000000 0.000000 
#    y 0.000000 1.925870 0.000000 
#    z 0.000000 0.000000 1.751280 
# 
# From -- ./inp_files/9300.got.cif
#   From: 2010.05.17/outbox.cif.g08.bks.cpg/sg52_5_cif.got.tgz:9300.got - 2010.06.03 12:15:38.
