data_PCOD9410772
_publ_section_title
;
Structure prediction by ZEFSAII (Michael W. Deem and Ramdas Pophale) SiO2 
 PCOD9410772
Probable space group: P N N A
;
_chemical_formula_sum "Si O2"
_cell_formula_units_Z 48
_cell_length_a 11.662285
_cell_length_b 7.808147
_cell_length_c 26.135209
_cell_angle_alpha 90.000000
_cell_angle_beta 90.000000
_cell_angle_gamma 90.000000
_cell_volume 2379.893971
_symmetry_space_group_name_H-M "P N N A"
_symmetry_group_IT_number 52
_symmetry_cell_setting 'orthorhombic'
loop_
_space_group_symop_operation_xyz
x,y,z
1/2-x,-y,z
x,1/2-y,1/2-z
1/2-x,1/2+y,1/2-z
-x,-y,-z
1/2+x,y,-z
-x,1/2+y,1/2+z
1/2+x,1/2-y,1/2+z
loop_
_atom_site_type_symbol
_atom_site_label
_atom_site_fract_x
_atom_site_fract_y
_atom_site_fract_z
Si Si1 0.039469 0.083862 0.374460
Si Si2 0.330807 0.255292 0.567044
Si Si3 0.587558 0.132721 0.092288
Si Si4 0.024975 0.746720 0.309927
Si Si5 0.717644 0.297488 0.806043
Si Si6 0.082342 0.622922 0.032945
O O1 0.119047 0.224865 0.347779
O O2 0.923434 0.148975 0.400441
O O3 0.010183 0.937488 0.333175
O O4 0.114906 0.990652 0.418290
O O5 0.378733 0.448524 0.570509
O O6 0.203186 0.254361 0.589086
O O7 0.328265 0.192776 0.508237
O O8 0.545105 0.128439 0.150962
O O9 0.490954 0.222708 0.057711
O O10 0.994987 0.750000 0.250000
O O11 0.160972 0.703906 0.313973
O O12 0.750000 0.500000 0.806276
O O13 0.673764 0.250000 0.750000
O O14 0.000000 0.500000 0.000000
#
# Coordination Sequence:
#
# PCOD9410772 Si02
#       6
#     8   8   8   8   8   8
#     4   9  19  35  57  87 109 150 194 227 282 348
#     4  10  21  38  57  81 116 148 187 241 285 334
#     4  10  21  39  57  82 114 149 190 234 289 340
#     4   9  19  37  57  80 116 153 186 233 284 338
#     4   9  18  34  55  82 115 146 184 229 282 333
#     4   9  19  37  57  80 107 148 185 235 278 336
#
# _framework density 20.168963999999999
#
# number of rings (size 3 to 8) (size 9 to 14) (size 15 to 20)
#    0.000    2.667    0.000    0.500    0.000   10.000 
#   27.000    4.167    0.000    0.000    0.000    0.000 
#    0.000    0.000    0.000    0.000    0.000    0.000 
#
# Total GULP energy -267755.880868 kJ/mol
# GULP energy per Si atom -5578.247518 kJ/mol
# Density = 2.012306 g / cm^3
# Si number density = 20.168964 Si / 1000 Ang^3
#
#
#
# Elastic Constant Matrix: (Units=GPa)
#
#
# Indices 1 2 3 4 5 6 
#
# 1 66.6215 9.6471 49.0678 0.0000 0.0000 0.0000
# 2 9.6471 32.7161 25.3914 0.0000 0.0000 0.0000
# 3 49.0678 25.3914 162.1681 0.0000 0.0000 0.0000
# 4 0.0000 0.0000 0.0000 28.7934 0.0000 0.0000
# 5 0.0000 0.0000 0.0000 0.0000 20.1795 0.0000
# 6 0.0000 0.0000 0.0000 0.0000 0.0000 19.5311
#
#
#
# Elastic Compliance Matrix: (Units=1/GPa)
#
#
# Indices 1 2 3 4 5 6 
#
# 1 0.019365 -0.001324 -0.005652 0.000000 0.000000 0.000000
# 2 -0.001324 0.034885 -0.005062 0.000000 0.000000 0.000000
# 3 -0.005652 -0.005062 0.008669 0.000000 0.000000 0.000000
# 4 0.000000 0.000000 0.000000 0.034730 0.000000 0.000000
# 5 0.000000 0.000000 0.000000 0.000000 0.049555 0.000000
# 6 0.000000 0.000000 0.000000 0.000000 0.000000 0.051200
#
#
# Mechanical properties :
#
#
# Convention : Reuss Voigt Hill
#
# Bulk Modulus (GPa) = 25.74393 47.74649 36.74521
# Shear Modulus (GPa) = 21.23806 25.52742 23.38274
#
# Velocity S-wave (km/s) = 3.24853 3.56150 3.40861
# Velocity P-wave (km/s) = 5.18290 6.37471 5.80945
#
# Compressibility (1/GPa) = 0.03884411
#
# Stress axis : x y z
#
# Youngs Moduli (GPa) = 51.64060 28.66595 115.35221
#
# Poissons Ratio (x) = 0.03794 0.65197
# Poissons Ratio (y) = 0.06835 0.58386
# Poissons Ratio (z) = 0.29187 0.14509
#
# Static dielectric constant tensor:
#      x y z
#    x 1.732690 0.000000 0.000000 
#    y 0.000000 1.766870 0.000000 
#    z 0.000000 0.000000 1.717530 
# 
# From -- ./inp_files/42676.got.cif
#   From: 2010.05.17/outbox.cif.g08.bks.cpg/sg52_22_cif.got.tgz:42676.got - 2010.06.03 12:15:38.
