data_PCOD9410623
_publ_section_title
;
Structure prediction by ZEFSAII (Michael W. Deem and Ramdas Pophale) SiO2 
 PCOD9410623
Probable space group: P N N A
;
_chemical_formula_sum "Si O2"
_cell_formula_units_Z 64
_cell_length_a 12.114300
_cell_length_b 28.233110
_cell_length_c 9.397422
_cell_angle_alpha 90.000000
_cell_angle_beta 90.000000
_cell_angle_gamma 90.000000
_cell_volume 3214.147287
_symmetry_space_group_name_H-M "P N N A"
_symmetry_group_IT_number 52
_symmetry_cell_setting 'orthorhombic'
loop_
_space_group_symop_operation_xyz
x,y,z
1/2-x,-y,z
x,1/2-y,1/2-z
1/2-x,1/2+y,1/2-z
-x,-y,-z
1/2+x,y,-z
-x,1/2+y,1/2+z
1/2+x,1/2-y,1/2+z
loop_
_atom_site_type_symbol
_atom_site_label
_atom_site_fract_x
_atom_site_fract_y
_atom_site_fract_z
Si Si1 0.752669 0.449349 0.109729
Si Si2 0.264333 0.306364 0.234798
Si Si3 0.414808 0.050768 0.870576
Si Si4 0.520722 0.412327 0.212138
Si Si5 0.117886 0.640862 0.986641
Si Si6 0.877939 0.497613 0.662862
Si Si7 0.494340 0.806171 0.232294
Si Si8 0.928543 0.355079 0.542872
O O1 0.750000 0.500000 0.030172
O O2 0.838308 0.456959 0.237268
O O3 0.635366 0.436118 0.175253
O O4 0.798685 0.403043 0.032766
O O5 0.275789 0.250000 0.250000
O O6 0.320055 0.321839 0.086978
O O7 0.134320 0.317991 0.239410
O O8 0.331565 0.333470 0.359752
O O9 0.541881 0.043013 0.821199
O O10 0.386479 0.013575 0.994264
O O11 0.392505 0.100918 0.944340
O O12 0.481077 0.381920 0.077920
O O13 0.435397 0.454207 0.253600
O O14 0.517820 0.377363 0.347913
O O15 0.070981 0.664418 0.842808
O O16 0.750000 0.500000 0.699352
O O17 0.509981 0.750000 0.250000
O O18 0.522823 0.818469 0.069441
#
# Coordination Sequence:
#
# PCOD9410623 Si02
#       8
#     8   8   8   8   8   8   8   8
#     4  12  23  41  63  89 135 176 220 263 317 386
#     4  10  23  44  68  96 131 166 210 276 338 396
#     4  10  21  36  58  93 123 170 212 272 310 371
#     4  10  24  41  60  91 124 172 214 258 321 373
#     4  11  24  44  62  94 134 171 211 269 328 400
#     4  10  21  37  60  88 126 164 221 264 311 364
#     4  11  23  41  68  97 123 163 215 267 334 401
#     4  10  22  39  63  94 123 162 213 266 320 382
#
# _framework density 19.911968999999999
#
# number of rings (size 3 to 8) (size 9 to 14) (size 15 to 20)
#    0.000    1.500    2.500    1.875    5.250    3.000 
#    2.250    0.000    0.000    5.250    0.000    0.000 
#    0.000    0.000    0.000    0.000    0.000    0.000 
#
# Total GULP energy -357410.498111 kJ/mol
# GULP energy per Si atom -5584.539033 kJ/mol
# Density = 1.986665 g / cm^3
# Si number density = 19.911969 Si / 1000 Ang^3
#
#
#
# Elastic Constant Matrix: (Units=GPa)
#
#
# Indices 1 2 3 4 5 6 
#
# 1 128.5619 48.8465 42.2322 0.0000 0.0000 0.0000
# 2 48.8465 105.9699 40.7323 0.0000 0.0000 0.0000
# 3 42.2322 40.7323 87.2302 0.0000 0.0000 0.0000
# 4 0.0000 0.0000 0.0000 10.8272 0.0000 0.0000
# 5 0.0000 0.0000 0.0000 0.0000 14.0930 0.0000
# 6 0.0000 0.0000 0.0000 0.0000 0.0000 30.2962
#
#
#
# Elastic Compliance Matrix: (Units=1/GPa)
#
#
# Indices 1 2 3 4 5 6 
#
# 1 0.010167 -0.003406 -0.003332 0.000000 0.000000 0.000000
# 2 -0.003406 0.012642 -0.004254 0.000000 0.000000 0.000000
# 3 -0.003332 -0.004254 0.015064 0.000000 0.000000 0.000000
# 4 0.000000 0.000000 0.000000 0.092360 0.000000 0.000000
# 5 0.000000 0.000000 0.000000 0.000000 0.070957 0.000000
# 6 0.000000 0.000000 0.000000 0.000000 0.000000 0.033007
#
#
# Mechanical properties :
#
#
# Convention : Reuss Voigt Hill
#
# Bulk Modulus (GPa) = 62.93879 65.04264 63.99072
# Shear Modulus (GPa) = 19.12216 23.70667 21.41441
#
# Velocity S-wave (km/s) = 3.10229 3.45421 3.28297
# Velocity P-wave (km/s) = 6.67154 6.97458 6.82474
#
# Compressibility (1/GPa) = 0.01588845
#
# Stress axis : x y z
#
# Youngs Moduli (GPa) = 98.35880 79.10332 66.38515
#
# Poissons Ratio (x) = 0.26940 0.22119
# Poissons Ratio (y) = 0.33498 0.28242
# Poissons Ratio (z) = 0.32773 0.33652
#
# Static dielectric constant tensor:
#      x y z
#    x 1.685230 0.000000 0.000000 
#    y 0.000000 1.609140 0.000000 
#    z 0.000000 0.000000 1.696740 
# 
# From -- ./inp_files/9120.got.cif
#   From: 2010.05.17/outbox.cif.g08.bks.cpg/sg52_5_cif.got.tgz:9120.got - 2010.06.03 12:15:38.
