data_PCOD9410080
_publ_section_title
;
Structure prediction by ZEFSAII (Michael W. Deem and Ramdas Pophale) SiO2 
 PCOD9410080
Probable space group: P N N A
;
_chemical_formula_sum "Si O2"
_cell_formula_units_Z 48
_cell_length_a 24.656844
_cell_length_b 10.270021
_cell_length_c 9.589776
_cell_angle_alpha 90.000000
_cell_angle_beta 90.000000
_cell_angle_gamma 90.000000
_cell_volume 2428.383549
_symmetry_space_group_name_H-M "P N N A"
_symmetry_group_IT_number 52
_symmetry_cell_setting 'orthorhombic'
loop_
_space_group_symop_operation_xyz
x,y,z
1/2-x,-y,z
x,1/2-y,1/2-z
1/2-x,1/2+y,1/2-z
-x,-y,-z
1/2+x,y,-z
-x,1/2+y,1/2+z
1/2+x,1/2-y,1/2+z
loop_
_atom_site_type_symbol
_atom_site_label
_atom_site_fract_x
_atom_site_fract_y
_atom_site_fract_z
Si Si1 0.121851 0.824810 0.979120
Si Si2 0.286145 0.113932 0.759886
Si Si3 0.646521 0.535844 0.987469
Si Si4 0.503374 0.616869 0.393363
Si Si5 0.797271 0.403619 0.711712
Si Si6 0.038553 0.101416 0.421167
O O1 0.168726 0.841514 0.867294
O O2 0.067952 0.860978 0.894913
O O3 0.115904 0.674886 0.022908
O O4 0.148764 0.896384 0.113227
O O5 0.253099 0.250000 0.750000
O O6 0.316099 0.051832 0.624599
O O7 0.250000 0.000000 0.818652
O O8 0.685592 0.529653 0.855777
O O9 0.599761 0.429024 0.970162
O O10 0.500000 0.500000 0.500000
O O11 0.476666 0.749080 0.450709
O O12 0.475612 0.587352 0.244387
O O13 0.750000 0.500000 0.654420
O O14 0.782733 0.250000 0.750000
O O15 0.000000 0.000000 0.500000
#
# Coordination Sequence:
#
# PCOD9410080 Si02
#       6
#     8   8   8   8   8   8
#     4  10  20  38  63  83 120 161 201 247 307 367
#     4  10  21  38  62  88 120 158 202 251 303 367
#     4  10  20  38  63  85 117 163 202 243 308 372
#     4  11  24  40  60  95 125 158 211 261 308 369
#     4  10  21  38  59  88 118 157 200 251 306 365
#     4  11  22  40  66  87 122 167 205 254 310 374
#
# _framework density 19.766235000000002
#
# number of rings (size 3 to 8) (size 9 to 14) (size 15 to 20)
#    0.000    1.667    1.667    3.000    4.667    0.667 
#    9.000    0.000    0.000    0.000    0.000    0.000 
#    0.000    0.000    0.000    0.000    0.000    0.000 
#
# Total GULP energy -267219.612079 kJ/mol
# GULP energy per Si atom -5567.075252 kJ/mol
# Density = 1.972125 g / cm^3
# Si number density = 19.766235 Si / 1000 Ang^3
#
#
#
# Elastic Constant Matrix: (Units=GPa)
#
#
# Indices 1 2 3 4 5 6 
#
# 1 57.7400 36.9521 2.8225 0.0000 0.0000 0.0000
# 2 36.9521 130.4051 28.9314 0.0000 0.0000 0.0000
# 3 2.8225 28.9314 83.9396 0.0000 0.0000 0.0000
# 4 0.0000 0.0000 0.0000 24.4256 0.0000 0.0000
# 5 0.0000 0.0000 0.0000 0.0000 3.9848 0.0000
# 6 0.0000 0.0000 0.0000 0.0000 0.0000 34.6156
#
#
#
# Elastic Compliance Matrix: (Units=1/GPa)
#
#
# Indices 1 2 3 4 5 6 
#
# 1 0.021324 -0.006370 0.001479 0.000000 0.000000 0.000000
# 2 -0.006370 0.010206 -0.003304 0.000000 0.000000 0.000000
# 3 0.001479 -0.003304 0.013002 0.000000 0.000000 0.000000
# 4 0.000000 0.000000 0.000000 0.040941 0.000000 0.000000
# 5 0.000000 0.000000 0.000000 0.000000 0.250957 0.000000
# 6 0.000000 0.000000 0.000000 0.000000 0.000000 0.028889
#
#
# Mechanical properties :
#
#
# Convention : Reuss Voigt Hill
#
# Bulk Modulus (GPa) = 35.53457 45.49963 40.51710
# Shear Modulus (GPa) = 12.78479 26.16377 19.47428
#
# Velocity S-wave (km/s) = 2.54598 3.64216 3.14224
# Velocity P-wave (km/s) = 5.16325 6.38404 5.80582
#
# Compressibility (1/GPa) = 0.02814161
#
# Stress axis : x y z
#
# Youngs Moduli (GPa) = 46.89639 97.97682 76.90963
#
# Poissons Ratio (x) = 0.62415 -0.11372
# Poissons Ratio (y) = 0.29875 0.25408
# Poissons Ratio (z) = -0.06934 0.32368
#
# Static dielectric constant tensor:
#      x y z
#    x 1.745750 0.000000 0.000000 
#    y 0.000000 1.867370 0.000000 
#    z 0.000000 0.000000 1.759090 
# 
# From -- ./inp_files/14224.got.cif
#   From: 2010.05.17/outbox.cif.g08.bks.cpg/sg52_8_cif.got.tgz:14224.got - 2010.06.03 12:15:38.
