data_PCOD9410334
_publ_section_title
;
Structure prediction by ZEFSAII (Michael W. Deem and Ramdas Pophale) SiO2 
 PCOD9410334
Probable space group: P N N A
;
_chemical_formula_sum "Si O2"
_cell_formula_units_Z 28
_cell_length_a 13.454779
_cell_length_b 11.340547
_cell_length_c 7.014613
_cell_angle_alpha 90.000000
_cell_angle_beta 90.000000
_cell_angle_gamma 90.000000
_cell_volume 1070.321593
_symmetry_space_group_name_H-M "P N N A"
_symmetry_group_IT_number 52
_symmetry_cell_setting 'orthorhombic'
loop_
_space_group_symop_operation_xyz
x,y,z
1/2-x,-y,z
x,1/2-y,1/2-z
1/2-x,1/2+y,1/2-z
-x,-y,-z
1/2+x,y,-z
-x,1/2+y,1/2+z
1/2+x,1/2-y,1/2+z
loop_
_atom_site_type_symbol
_atom_site_label
_atom_site_fract_x
_atom_site_fract_y
_atom_site_fract_z
Si Si1 0.335365 0.571482 0.270518
Si Si2 0.032784 0.859421 0.373246
Si Si3 0.486666 0.750000 0.250000
Si Si4 0.296381 0.871884 0.645045
O O1 0.250000 0.500000 0.379042
O O2 0.408173 0.473885 0.183807
O O3 0.411276 0.662884 0.364185
O O4 0.283949 0.633517 0.086579
O O5 0.068606 0.750000 0.250000
O O6 0.044869 0.823451 0.594157
O O7 0.916000 0.877949 0.331274
O O8 0.263761 0.750000 0.750000
O O9 0.250000 0.000000 0.697969
#
# Coordination Sequence:
#
# PCOD9410334 Si02
#       4
#     8   8   4   8
#     4  10  22  41  61  94 134 172 214 273 325 387
#     4  10  22  42  67  94 133 168 220 269 323 393
#     4  10  20  40  68  92 126 178 214 262 334 378
#     4   9  18  37  61  93 130 168 213 270 319 380
#
# _framework density 26.160360000000001
#
# number of rings (size 3 to 8) (size 9 to 14) (size 15 to 20)
#    0.000    2.286    0.000    3.429    2.000    1.143 
#   23.143   15.714    0.000    1.714    0.000    0.000 
#    0.000    0.000    0.000    0.000    0.000    0.000 
#
# Total GULP energy -156590.808921 kJ/mol
# GULP energy per Si atom -5592.528890 kJ/mol
# Density = 2.610082 g / cm^3
# Si number density = 26.160360 Si / 1000 Ang^3
#
#
#
# Elastic Constant Matrix: (Units=GPa)
#
#
# Indices 1 2 3 4 5 6 
#
# 1 79.2379 26.9908 2.3700 0.0000 0.0000 0.0000
# 2 26.9908 162.5208 22.9635 0.0000 0.0000 0.0000
# 3 2.3700 22.9635 77.9376 0.0000 0.0000 0.0000
# 4 0.0000 0.0000 0.0000 37.2876 0.0000 0.0000
# 5 0.0000 0.0000 0.0000 0.0000 16.4782 0.0000
# 6 0.0000 0.0000 0.0000 0.0000 0.0000 44.1824
#
#
#
# Elastic Compliance Matrix: (Units=1/GPa)
#
#
# Indices 1 2 3 4 5 6 
#
# 1 0.013382 -0.002259 0.000259 0.000000 0.000000 0.000000
# 2 -0.002259 0.006802 -0.001935 0.000000 0.000000 0.000000
# 3 0.000259 -0.001935 0.013393 0.000000 0.000000 0.000000
# 4 0.000000 0.000000 0.000000 0.026819 0.000000 0.000000
# 5 0.000000 0.000000 0.000000 0.000000 0.060686 0.000000
# 6 0.000000 0.000000 0.000000 0.000000 0.000000 0.022633
#
#
# Mechanical properties :
#
#
# Convention : Reuss Voigt Hill
#
# Bulk Modulus (GPa) = 38.90227 47.14943 43.02585
# Shear Modulus (GPa) = 31.21980 37.41444 34.31712
#
# Velocity S-wave (km/s) = 3.45831 3.78590 3.62581
# Velocity P-wave (km/s) = 5.55424 6.09697 5.83192
#
# Compressibility (1/GPa) = 0.02570544
#
# Stress axis : x y z
#
# Youngs Moduli (GPa) = 74.72751 147.02257 74.66505
#
# Poissons Ratio (x) = 0.33212 -0.01931
# Poissons Ratio (y) = 0.16881 0.14450
# Poissons Ratio (z) = -0.01933 0.28454
#
# Static dielectric constant tensor:
#      x y z
#    x 2.091130 0.000000 0.000000 
#    y 0.000000 2.115610 0.000000 
#    z 0.000000 0.000000 2.067900 
# 
# From -- ./inp_files/9450.got.cif
#   From: 2010.05.17/outbox.cif.g08.bks.cpg/sg52_5_cif.got.tgz:9450.got - 2010.06.03 12:15:38.
