data_PCOD9410775
_publ_section_title
;
Structure prediction by ZEFSAII (Michael W. Deem and Ramdas Pophale) SiO2 
 PCOD9410775
Probable space group: P N N A
;
_chemical_formula_sum "Si O2"
_cell_formula_units_Z 44
_cell_length_a 8.810037
_cell_length_b 11.077024
_cell_length_c 24.866878
_cell_angle_alpha 90.000000
_cell_angle_beta 90.000000
_cell_angle_gamma 90.000000
_cell_volume 2426.733541
_symmetry_space_group_name_H-M "P N N A"
_symmetry_group_IT_number 52
_symmetry_cell_setting 'orthorhombic'
loop_
_space_group_symop_operation_xyz
x,y,z
1/2-x,-y,z
x,1/2-y,1/2-z
1/2-x,1/2+y,1/2-z
-x,-y,-z
1/2+x,y,-z
-x,1/2+y,1/2+z
1/2+x,1/2-y,1/2+z
loop_
_atom_site_type_symbol
_atom_site_label
_atom_site_fract_x
_atom_site_fract_y
_atom_site_fract_z
Si Si1 0.484509 0.843061 0.044888
Si Si2 0.664806 0.156743 0.607318
Si Si3 0.544755 0.620048 0.965847
Si Si4 0.339211 0.122270 0.281934
Si Si5 0.920158 0.544149 0.137764
Si Si6 0.750000 0.500000 0.476078
O O1 0.405588 0.785888 0.096182
O O2 0.636258 0.916368 0.056901
O O3 0.526933 0.731904 0.005877
O O4 0.361100 0.922759 0.013859
O O5 0.785280 0.126692 0.559758
O O6 0.752543 0.150480 0.662703
O O7 0.529029 0.062078 0.614809
O O8 0.435637 0.634373 0.913407
O O9 0.500000 0.500000 0.000000
O O10 0.341185 0.250000 0.250000
O O11 0.250000 0.000000 0.259938
O O12 0.504951 0.086712 0.306108
O O13 0.750000 0.500000 0.144320
#
# Coordination Sequence:
#
# PCOD9410775 Si02
#       6
#     8   8   8   8   8   4
#     4  11  21  37  52  78 118 165 202 239 280 353
#     4  10  21  38  57  88 119 153 204 245 295 365
#     4  11  21  31  58  87 120 158 195 239 293 347
#     4   9  20  43  67  90 115 150 203 258 314 367
#     4  10  22  34  58  96 124 147 190 257 305 363
#     4  10  24  36  48  72 120 172 202 230 278 338
#
# _framework density 18.131367999999998
#
# number of rings (size 3 to 8) (size 9 to 14) (size 15 to 20)
#    0.000    1.818    3.636    1.636    5.091    0.000 
#    1.636    3.636    0.000    0.000    9.455    0.000 
#    0.000    0.000    0.000    0.000    0.000    0.000 
#
# Total GULP energy -245054.629327 kJ/mol
# GULP energy per Si atom -5569.423394 kJ/mol
# Density = 1.809010 g / cm^3
# Si number density = 18.131368 Si / 1000 Ang^3
#
#
#
# Elastic Constant Matrix: (Units=GPa)
#
#
# Indices 1 2 3 4 5 6 
#
# 1 142.4872 51.2946 29.3176 0.0000 0.0000 0.0000
# 2 51.2946 103.1728 26.4447 0.0000 0.0000 0.0000
# 3 29.3176 26.4447 42.9124 0.0000 0.0000 0.0000
# 4 0.0000 0.0000 0.0000 21.1559 0.0000 0.0000
# 5 0.0000 0.0000 0.0000 0.0000 6.7896 0.0000
# 6 0.0000 0.0000 0.0000 0.0000 0.0000 37.0455
#
#
#
# Elastic Compliance Matrix: (Units=1/GPa)
#
#
# Indices 1 2 3 4 5 6 
#
# 1 0.009112 -0.003485 -0.004077 0.000000 0.000000 0.000000
# 2 -0.003485 0.012844 -0.005534 0.000000 0.000000 0.000000
# 3 -0.004077 -0.005534 0.029499 0.000000 0.000000 0.000000
# 4 0.000000 0.000000 0.000000 0.047268 0.000000 0.000000
# 5 0.000000 0.000000 0.000000 0.000000 0.147284 0.000000
# 6 0.000000 0.000000 0.000000 0.000000 0.000000 0.026994
#
#
# Mechanical properties :
#
#
# Convention : Reuss Voigt Hill
#
# Bulk Modulus (GPa) = 39.58545 55.85404 47.71974
# Shear Modulus (GPa) = 16.25415 25.09922 20.67669
#
# Velocity S-wave (km/s) = 2.99735 3.72465 3.38062
# Velocity P-wave (km/s) = 5.81883 7.02634 6.45090
#
# Compressibility (1/GPa) = 0.02526181
#
# Stress axis : x y z
#
# Youngs Moduli (GPa) = 109.74892 77.86027 33.89918
#
# Poissons Ratio (x) = 0.27134 0.13822
# Poissons Ratio (y) = 0.38247 0.18759
# Poissons Ratio (z) = 0.44750 0.43087
#
# Static dielectric constant tensor:
#      x y z
#    x 1.658790 0.000000 0.000000 
#    y 0.000000 1.722150 0.000000 
#    z 0.000000 0.000000 1.620080 
# 
# From -- ./inp_files/39374.got.cif
#   From: 2010.05.17/outbox.cif.g08.bks.cpg/sg52_20_cif.got.tgz:39374.got - 2010.06.03 12:15:38.
