data_PCOD9410840
_publ_section_title
;
Structure prediction by ZEFSAII (Michael W. Deem and Ramdas Pophale) SiO2 
 PCOD9410840
Probable space group: P N N A
;
_chemical_formula_sum "Si O2"
_cell_formula_units_Z 64
_cell_length_a 22.778035
_cell_length_b 11.658341
_cell_length_c 11.750997
_cell_angle_alpha 90.000000
_cell_angle_beta 90.000000
_cell_angle_gamma 90.000000
_cell_volume 3120.525425
_symmetry_space_group_name_H-M "P N N A"
_symmetry_group_IT_number 52
_symmetry_cell_setting 'orthorhombic'
loop_
_space_group_symop_operation_xyz
x,y,z
1/2-x,-y,z
x,1/2-y,1/2-z
1/2-x,1/2+y,1/2-z
-x,-y,-z
1/2+x,y,-z
-x,1/2+y,1/2+z
1/2+x,1/2-y,1/2+z
loop_
_atom_site_type_symbol
_atom_site_label
_atom_site_fract_x
_atom_site_fract_y
_atom_site_fract_z
Si Si1 0.203582 0.604123 0.009592
Si Si2 0.153539 0.480791 0.629128
Si Si3 0.998971 0.119917 0.265558
Si Si4 0.884663 0.828418 0.590687
Si Si5 0.409329 0.562049 0.410714
Si Si6 0.259418 0.186678 0.871251
Si Si7 0.183941 0.503657 0.237162
Si Si8 0.893465 0.518537 0.127928
O O1 0.250000 0.500000 0.992957
O O2 0.232667 0.719219 0.967692
O O3 0.147882 0.577004 0.930392
O O4 0.183876 0.601277 0.140436
O O5 0.100692 0.478285 0.539291
O O6 0.204979 0.393372 0.596385
O O7 0.183536 0.605377 0.636913
O O8 0.134681 0.443181 0.754201
O O9 0.974634 0.250000 0.250000
O O10 0.056811 0.134986 0.342266
O O11 0.026599 0.070292 0.147674
O O12 0.954395 0.038301 0.332381
O O13 0.884027 0.692101 0.593480
O O14 0.832603 0.890674 0.660644
O O15 0.891954 0.880150 0.464695
O O16 0.365548 0.487619 0.332091
O O17 0.251004 0.250000 0.750000
O O18 0.250000 0.500000 0.284100
#
# Coordination Sequence:
#
# PCOD9410840 Si02
#       8
#     8   8   8   8   8   8   8   8
#     4  10  21  38  62  94 122 156 208 264 304 374
#     4  11  26  36  60  90 126 176 195 255 324 376
#     4   9  20  39  64  88 116 162 210 269 316 369
#     4   9  20  39  61  90 123 157 209 267 303 378
#     4  10  22  41  57  89 132 159 210 254 314 384
#     4  11  23  41  56  88 134 162 210 253 314 386
#     4   9  19  34  59  89 116 160 202 245 311 358
#     4  11  21  36  62  93 114 163 213 254 322 368
#
# _framework density 20.509367000000001
#
# number of rings (size 3 to 8) (size 9 to 14) (size 15 to 20)
#    0.000    2.000    1.250    2.250   10.500    0.500 
#    0.000    0.625    0.000    0.000    0.000    0.000 
#    0.000    0.000    0.000    0.000    0.000    0.000 
#
# Total GULP energy -357330.560321 kJ/mol
# GULP energy per Si atom -5583.290005 kJ/mol
# Density = 2.046269 g / cm^3
# Si number density = 20.509367 Si / 1000 Ang^3
#
#
#
# Elastic Constant Matrix: (Units=GPa)
#
#
# Indices 1 2 3 4 5 6 
#
# 1 64.4469 20.3699 6.2054 0.0000 0.0000 0.0000
# 2 20.3699 67.0716 18.8313 0.0000 0.0000 0.0000
# 3 6.2054 18.8313 93.5452 0.0000 0.0000 0.0000
# 4 0.0000 0.0000 0.0000 23.0297 0.0000 0.0000
# 5 0.0000 0.0000 0.0000 0.0000 28.8250 0.0000
# 6 0.0000 0.0000 0.0000 0.0000 0.0000 10.1950
#
#
#
# Elastic Compliance Matrix: (Units=1/GPa)
#
#
# Indices 1 2 3 4 5 6 
#
# 1 0.017165 -0.005187 -0.000095 0.000000 0.000000 0.000000
# 2 -0.005187 0.017370 -0.003153 0.000000 0.000000 0.000000
# 3 -0.000095 -0.003153 0.011331 0.000000 0.000000 0.000000
# 4 0.000000 0.000000 0.000000 0.043422 0.000000 0.000000
# 5 0.000000 0.000000 0.000000 0.000000 0.034692 0.000000
# 6 0.000000 0.000000 0.000000 0.000000 0.000000 0.098087
#
#
# Mechanical properties :
#
#
# Convention : Reuss Voigt Hill
#
# Bulk Modulus (GPa) = 34.48478 35.09746 34.79112
# Shear Modulus (GPa) = 20.11254 24.38707 22.24981
#
# Velocity S-wave (km/s) = 3.13493 3.45203 3.29730
# Velocity P-wave (km/s) = 5.47306 5.74793 5.61218
#
# Compressibility (1/GPa) = 0.02899830
#
# Stress axis : x y z
#
# Youngs Moduli (GPa) = 58.25783 57.57138 88.25402
#
# Poissons Ratio (x) = 0.29860 0.00835
# Poissons Ratio (y) = 0.30216 0.27823
# Poissons Ratio (z) = 0.00551 0.18150
#
# Static dielectric constant tensor:
#      x y z
#    x 1.752240 0.000000 0.000000 
#    y 0.000000 1.733820 0.000000 
#    z 0.000000 0.000000 1.758510 
# 
# From -- ./inp_files/22517.got.cif
#   From: 2010.05.17/outbox.cif.g08.bks.cpg/sg52_12_cif.got.tgz:22517.got - 2010.06.03 12:15:38.
