data_PCOD9410678
_publ_section_title
;
Structure prediction by ZEFSAII (Michael W. Deem and Ramdas Pophale) SiO2 
 PCOD9410678
Probable space group: P N N A
;
_chemical_formula_sum "Si O2"
_cell_formula_units_Z 64
_cell_length_a 9.880809
_cell_length_b 13.667302
_cell_length_c 25.092259
_cell_angle_alpha 90.000000
_cell_angle_beta 90.000000
_cell_angle_gamma 90.000000
_cell_volume 3388.559040
_symmetry_space_group_name_H-M "P N N A"
_symmetry_group_IT_number 52
_symmetry_cell_setting 'orthorhombic'
loop_
_space_group_symop_operation_xyz
x,y,z
1/2-x,-y,z
x,1/2-y,1/2-z
1/2-x,1/2+y,1/2-z
-x,-y,-z
1/2+x,y,-z
-x,1/2+y,1/2+z
1/2+x,1/2-y,1/2+z
loop_
_atom_site_type_symbol
_atom_site_label
_atom_site_fract_x
_atom_site_fract_y
_atom_site_fract_z
Si Si1 0.699249 0.184704 0.879104
Si Si2 0.902550 0.526831 0.287366
Si Si3 0.230497 0.890354 0.344970
Si Si4 0.342767 0.672380 0.625607
Si Si5 0.930393 0.401092 0.429984
Si Si6 0.550895 0.178547 0.299274
Si Si7 0.548923 0.619415 0.552730
Si Si8 0.613818 0.357475 0.735108
O O1 0.709025 0.302328 0.879943
O O2 0.555561 0.150234 0.901121
O O3 0.815701 0.133018 0.913123
O O4 0.708530 0.155882 0.816617
O O5 0.750000 0.500000 0.298897
O O6 0.931808 0.599148 0.336669
O O7 0.899021 0.584277 0.231984
O O8 0.001690 0.436039 0.281320
O O9 0.304701 0.890703 0.287148
O O10 0.077569 0.855170 0.333439
O O11 0.250000 0.000000 0.366549
O O12 0.204169 0.624946 0.603886
O O13 0.337983 0.766369 0.664411
O O14 0.437159 0.694341 0.575028
O O15 0.915655 0.366785 0.491026
O O16 0.974398 0.514664 0.437814
O O17 0.509028 0.250000 0.250000
O O18 0.556362 0.250000 0.750000
#
# Coordination Sequence:
#
# PCOD9410678 Si02
#       8
#     8   8   8   8   8   8   8   8
#     4  11  22  37  61  89 117 157 199 246 299 352
#     4  11  22  35  54  84 122 164 193 232 293 357
#     4  11  21  38  60  86 116 151 202 254 292 347
#     4  11  22  39  59  83 126 159 196 238 299 366
#     4  11  24  39  58  91 120 159 194 247 295 363
#     4  10  21  37  57  84 118 160 198 239 295 361
#     4  11  22  39  62  87 122 154 200 240 301 360
#     4  10  22  35  58  86 119 148 199 247 292 346
#
# _framework density 18.887084000000002
#
# number of rings (size 3 to 8) (size 9 to 14) (size 15 to 20)
#    0.000    1.250    2.500    4.875    1.750    6.500 
#    0.000    0.000    0.000    0.750    0.000    0.000 
#    0.000    0.000    0.000    0.000    0.000    0.000 
#
# Total GULP energy -357095.497233 kJ/mol
# GULP energy per Si atom -5579.617144 kJ/mol
# Density = 1.884410 g / cm^3
# Si number density = 18.887084 Si / 1000 Ang^3
#
#
#
# Elastic Constant Matrix: (Units=GPa)
#
#
# Indices 1 2 3 4 5 6 
#
# 1 91.3833 14.3440 38.9093 0.0000 0.0000 0.0000
# 2 14.3440 61.6375 27.7831 0.0000 0.0000 0.0000
# 3 38.9093 27.7831 94.2762 0.0000 0.0000 0.0000
# 4 0.0000 0.0000 0.0000 25.0073 0.0000 0.0000
# 5 0.0000 0.0000 0.0000 0.0000 22.4967 0.0000
# 6 0.0000 0.0000 0.0000 0.0000 0.0000 17.3871
#
#
#
# Elastic Compliance Matrix: (Units=1/GPa)
#
#
# Indices 1 2 3 4 5 6 
#
# 1 0.013303 -0.000716 -0.005279 0.000000 0.000000 0.000000
# 2 -0.000716 0.018748 -0.005229 0.000000 0.000000 0.000000
# 3 -0.005279 -0.005229 0.014327 0.000000 0.000000 0.000000
# 4 0.000000 0.000000 0.000000 0.039988 0.000000 0.000000
# 5 0.000000 0.000000 0.000000 0.000000 0.044451 0.000000
# 6 0.000000 0.000000 0.000000 0.000000 0.000000 0.057514
#
#
# Mechanical properties :
#
#
# Convention : Reuss Voigt Hill
#
# Bulk Modulus (GPa) = 41.79177 45.48555 43.63866
# Shear Modulus (GPa) = 22.85640 24.06226 23.45933
#
# Velocity S-wave (km/s) = 3.48251 3.57319 3.52814
# Velocity P-wave (km/s) = 6.19239 6.41551 6.30494
#
# Compressibility (1/GPa) = 0.02392815
#
# Stress axis : x y z
#
# Youngs Moduli (GPa) = 75.16994 53.33991 69.79774
#
# Poissons Ratio (x) = 0.03820 0.36849
# Poissons Ratio (y) = 0.05383 0.36500
# Poissons Ratio (z) = 0.39685 0.27893
#
# Static dielectric constant tensor:
#      x y z
#    x 1.695370 0.000000 0.000000 
#    y 0.000000 1.587020 0.000000 
#    z 0.000000 0.000000 1.673220 
# 
# From -- ./inp_files/39689.got.cif
#   From: 2010.05.17/outbox.cif.g08.bks.cpg/sg52_20_cif.got.tgz:39689.got - 2010.06.03 12:15:38.
