data_PCOD9410995
_publ_section_title
;
Structure prediction by ZEFSAII (Michael W. Deem and Ramdas Pophale) SiO2 
 PCOD9410995
Probable space group: P N N A
;
_chemical_formula_sum "Si O2"
_cell_formula_units_Z 40
_cell_length_a 25.264314
_cell_length_b 8.675379
_cell_length_c 8.262926
_cell_angle_alpha 90.000000
_cell_angle_beta 90.000000
_cell_angle_gamma 90.000000
_cell_volume 1811.047456
_symmetry_space_group_name_H-M "P N N A"
_symmetry_group_IT_number 52
_symmetry_cell_setting 'orthorhombic'
loop_
_space_group_symop_operation_xyz
x,y,z
1/2-x,-y,z
x,1/2-y,1/2-z
1/2-x,1/2+y,1/2-z
-x,-y,-z
1/2+x,y,-z
-x,1/2+y,1/2+z
1/2+x,1/2-y,1/2+z
loop_
_atom_site_type_symbol
_atom_site_label
_atom_site_fract_x
_atom_site_fract_y
_atom_site_fract_z
Si Si1 0.305900 0.929553 0.968954
Si Si2 0.194982 0.078425 0.574924
Si Si3 0.485449 0.934155 0.253995
Si Si4 0.597141 0.637016 0.591897
Si Si5 0.580592 0.556422 0.059734
O O1 0.305380 0.927462 0.771914
O O2 0.308911 0.747748 0.002585
O O3 0.250000 0.000000 0.022644
O O4 0.352792 0.032800 0.042713
O O5 0.250000 0.000000 0.523157
O O6 0.140618 0.993699 0.537900
O O7 0.482099 0.750000 0.250000
O O8 0.545942 0.988388 0.283970
O O9 0.452916 0.026321 0.120011
O O10 0.452293 0.984652 0.412772
O O11 0.606114 0.750000 0.750000
O O12 0.582367 0.759800 0.455204
#
# Coordination Sequence:
#
# PCOD9410995 Si02
#       5
#     8   8   8   8   8
#     4  10  21  39  64  95 124 158 200 250 308 363
#     4  10  21  39  65  95 125 156 198 253 309 365
#     4  10  22  40  59  87 122 164 204 248 300 360
#     4  10  22  41  61  87 122 161 206 249 297 366
#     4  10  22  40  60  91 123 159 202 252 304 356
#
# _framework density 22.086666000000001
#
# number of rings (size 3 to 8) (size 9 to 14) (size 15 to 20)
#    0.000    2.000    0.000    2.400    2.800    2.400 
#   18.000    9.000    0.000    0.000    0.000    0.000 
#    0.000    0.000    0.000    0.000    0.000    0.000 
#
# Total GULP energy -223287.172608 kJ/mol
# GULP energy per Si atom -5582.179315 kJ/mol
# Density = 2.203640 g / cm^3
# Si number density = 22.086666 Si / 1000 Ang^3
#
#
#
# Elastic Constant Matrix: (Units=GPa)
#
#
# Indices 1 2 3 4 5 6 
#
# 1 207.9091 93.7046 41.9816 0.0000 0.0000 0.0000
# 2 93.7046 165.1245 27.7095 0.0000 0.0000 0.0000
# 3 41.9816 27.7095 37.0977 0.0000 0.0000 0.0000
# 4 0.0000 0.0000 0.0000 32.4597 0.0000 0.0000
# 5 0.0000 0.0000 0.0000 0.0000 31.3003 0.0000
# 6 0.0000 0.0000 0.0000 0.0000 0.0000 33.8557
#
#
#
# Elastic Compliance Matrix: (Units=1/GPa)
#
#
# Indices 1 2 3 4 5 6 
#
# 1 0.007491 -0.003234 -0.006062 0.000000 0.000000 0.000000
# 2 -0.003234 0.008320 -0.002555 0.000000 0.000000 0.000000
# 3 -0.006062 -0.002555 0.035724 0.000000 0.000000 0.000000
# 4 0.000000 0.000000 0.000000 0.030807 0.000000 0.000000
# 5 0.000000 0.000000 0.000000 0.000000 0.031949 0.000000
# 6 0.000000 0.000000 0.000000 0.000000 0.000000 0.029537
#
#
# Mechanical properties :
#
#
# Convention : Reuss Voigt Hill
#
# Bulk Modulus (GPa) = 35.92725 81.88030 58.90377
# Shear Modulus (GPa) = 28.27918 35.97217 32.12567
#
# Velocity S-wave (km/s) = 3.58211 4.04007 3.81797
# Velocity P-wave (km/s) = 5.78018 7.67565 6.79434
#
# Compressibility (1/GPa) = 0.02783403
#
# Stress axis : x y z
#
# Youngs Moduli (GPa) = 133.48627 120.19327 27.99213
#
# Poissons Ratio (x) = 0.38870 0.16969
# Poissons Ratio (y) = 0.43168 0.07151
# Poissons Ratio (z) = 0.80921 0.30707
#
# Static dielectric constant tensor:
#      x y z
#    x 1.811610 0.000000 0.000000 
#    y 0.000000 1.748100 0.000000 
#    z 0.000000 0.000000 1.919750 
# 
# From -- ./inp_files/13984.got.cif
#   From: 2010.05.17/outbox.cif.g08.bks.cpg/sg52_7_cif.got.tgz:13984.got - 2010.06.03 12:15:38.
