data_PCOD9410527
_publ_section_title
;
Structure prediction by ZEFSAII (Michael W. Deem and Ramdas Pophale) SiO2 
 PCOD9410527
Probable space group: P N N A
;
_chemical_formula_sum "Si O2"
_cell_formula_units_Z 64
_cell_length_a 11.694221
_cell_length_b 10.691720
_cell_length_c 25.708078
_cell_angle_alpha 90.000000
_cell_angle_beta 90.000000
_cell_angle_gamma 90.000000
_cell_volume 3214.315352
_symmetry_space_group_name_H-M "P N N A"
_symmetry_group_IT_number 52
_symmetry_cell_setting 'orthorhombic'
loop_
_space_group_symop_operation_xyz
x,y,z
1/2-x,-y,z
x,1/2-y,1/2-z
1/2-x,1/2+y,1/2-z
-x,-y,-z
1/2+x,y,-z
-x,1/2+y,1/2+z
1/2+x,1/2-y,1/2+z
loop_
_atom_site_type_symbol
_atom_site_label
_atom_site_fract_x
_atom_site_fract_y
_atom_site_fract_z
Si Si1 0.660681 0.315051 0.304828
Si Si2 0.020721 0.801926 0.357341
Si Si3 0.387880 0.144340 0.468799
Si Si4 0.374500 0.842587 0.469705
Si Si5 0.184799 0.640828 0.289511
Si Si6 0.119934 0.278414 0.357127
Si Si7 0.411782 0.104068 0.799273
Si Si8 0.932291 0.543536 0.790829
O O1 0.625138 0.250000 0.250000
O O2 0.610541 0.239744 0.353982
O O3 0.620185 0.458518 0.306523
O O4 0.796701 0.318823 0.305035
O O5 0.087632 0.802870 0.411131
O O6 0.077967 0.701533 0.319067
O O7 0.029656 0.936453 0.330342
O O8 0.258861 0.178907 0.489223
O O9 0.504754 0.182360 0.499813
O O10 0.383405 0.993188 0.462508
O O11 0.377692 0.762921 0.416621
O O12 0.223905 0.750000 0.250000
O O13 0.279688 0.634676 0.334517
O O14 0.140465 0.526599 0.254076
O O15 0.004075 0.346717 0.340208
O O16 0.128733 0.148196 0.324973
O O17 0.466917 0.107952 0.741704
#
# Coordination Sequence:
#
# PCOD9410527 Si02
#       8
#     8   8   8   8   8   8   8   8
#     4  11  21  41  58  83 128 176 216 257 308 396
#     4  11  19  37  64  87 116 174 212 251 320 386
#     4  10  21  40  66  91 123 173 217 277 341 397
#     4  10  22  40  63  93 132 163 223 282 338 393
#     4  10  21  33  54  88 125 164 206 243 304 390
#     4  12  23  38  57  94 131 168 206 271 325 375
#     4  11  24  37  58  87 129 173 216 257 314 383
#     4  11  21  39  56  92 129 172 210 250 311 396
#
# _framework density 19.910927000000001
#
# number of rings (size 3 to 8) (size 9 to 14) (size 15 to 20)
#    0.000    1.250    5.000    2.250    0.000    5.500 
#    0.000    0.000    0.000    0.750    0.000    0.000 
#    0.000    0.000    0.000    0.000    0.000    0.000 
#
# Total GULP energy -356806.424062 kJ/mol
# GULP energy per Si atom -5575.100376 kJ/mol
# Density = 1.986561 g / cm^3
# Si number density = 19.910927 Si / 1000 Ang^3
#
#
#
# Elastic Constant Matrix: (Units=GPa)
#
#
# Indices 1 2 3 4 5 6 
#
# 1 142.9466 35.6662 51.8292 0.0000 0.0000 0.0000
# 2 35.6662 72.9764 19.0840 0.0000 0.0000 0.0000
# 3 51.8292 19.0840 69.8290 0.0000 0.0000 0.0000
# 4 0.0000 0.0000 0.0000 29.1823 0.0000 0.0000
# 5 0.0000 0.0000 0.0000 0.0000 19.5649 0.0000
# 6 0.0000 0.0000 0.0000 0.0000 0.0000 22.7213
#
#
#
# Elastic Compliance Matrix: (Units=1/GPa)
#
#
# Indices 1 2 3 4 5 6 
#
# 1 0.010240 -0.003249 -0.006713 0.000000 0.000000 0.000000
# 2 -0.003249 0.015789 -0.001903 0.000000 0.000000 0.000000
# 3 -0.006713 -0.001903 0.019823 0.000000 0.000000 0.000000
# 4 0.000000 0.000000 0.000000 0.034267 0.000000 0.000000
# 5 0.000000 0.000000 0.000000 0.000000 0.051112 0.000000
# 6 0.000000 0.000000 0.000000 0.000000 0.000000 0.044012
#
#
# Mechanical properties :
#
#
# Convention : Reuss Voigt Hill
#
# Bulk Modulus (GPa) = 45.20423 55.43454 50.31938
# Shear Modulus (GPa) = 24.23100 26.23854 25.23477
#
# Velocity S-wave (km/s) = 3.49229 3.63408 3.56389
# Velocity P-wave (km/s) = 6.24612 6.74614 6.50094
#
# Compressibility (1/GPa) = 0.02212183
#
# Stress axis : x y z
#
# Youngs Moduli (GPa) = 97.65460 63.33580 50.44620
#
# Poissons Ratio (x) = 0.20580 0.33862
# Poissons Ratio (y) = 0.31731 0.09601
# Poissons Ratio (z) = 0.65551 0.12054
#
# Static dielectric constant tensor:
#      x y z
#    x 1.828140 0.000000 0.000000 
#    y 0.000000 1.752350 0.000000 
#    z 0.000000 0.000000 1.690770 
# 
# From -- ./inp_files/40319.got.cif
#   From: 2010.05.17/outbox.cif.g08.bks.cpg/sg52_21_cif.got.tgz:40319.got - 2010.06.03 12:15:38.
