data_PCOD9410458
_publ_section_title
;
Structure prediction by ZEFSAII (Michael W. Deem and Ramdas Pophale) SiO2 
 PCOD9410458
Probable space group: P N N A
;
_chemical_formula_sum "Si O2"
_cell_formula_units_Z 36
_cell_length_a 5.150300
_cell_length_b 11.816547
_cell_length_c 22.733287
_cell_angle_alpha 90.000000
_cell_angle_beta 90.000000
_cell_angle_gamma 90.000000
_cell_volume 1383.519703
_symmetry_space_group_name_H-M "P N N A"
_symmetry_group_IT_number 52
_symmetry_cell_setting 'orthorhombic'
loop_
_space_group_symop_operation_xyz
x,y,z
1/2-x,-y,z
x,1/2-y,1/2-z
1/2-x,1/2+y,1/2-z
-x,-y,-z
1/2+x,y,-z
-x,1/2+y,1/2+z
1/2+x,1/2-y,1/2+z
loop_
_atom_site_type_symbol
_atom_site_label
_atom_site_fract_x
_atom_site_fract_y
_atom_site_fract_z
Si Si1 0.068055 0.840138 0.967234
Si Si2 0.570477 0.844660 0.288904
Si Si3 0.250000 0.500000 0.294453
Si Si4 0.294304 0.298433 0.366719
Si Si5 0.207625 0.128905 0.582256
O O1 0.939239 0.857577 0.903952
O O2 0.110102 0.704207 0.959913
O O3 0.851297 0.880643 0.013466
O O4 0.714989 0.750000 0.250000
O O5 0.322558 0.779382 0.316079
O O6 0.710991 0.877153 0.348898
O O7 0.461349 0.941727 0.247723
O O8 0.404195 0.407194 0.333538
O O9 0.456735 0.212879 0.408403
O O10 0.250000 0.000000 0.561442
#
# Coordination Sequence:
#
# PCOD9410458 Si02
#       5
#     8   8   4   8   8
#     4  11  23  46  72  99 138 180 231 298 357 421
#     4   9  20  36  58  94 135 178 222 277 342 411
#     4  10  20  42  70  96 142 188 236 284 356 414
#     4  10  22  42  66 100 139 178 240 285 347 431
#     4  11  23  38  64  99 135 176 226 287 352 434
#
# _framework density 26.020589999999999
#
# number of rings (size 3 to 8) (size 9 to 14) (size 15 to 20)
#    0.000    1.778    2.222    1.333    0.000    8.000 
#    0.000   12.222    0.000    0.000    0.000    0.000 
#    0.000    0.000    0.000    0.000    0.000    0.000 
#
# Total GULP energy -200646.293992 kJ/mol
# GULP energy per Si atom -5573.508166 kJ/mol
# Density = 2.596137 g / cm^3
# Si number density = 26.020590 Si / 1000 Ang^3
#
#
#
# Elastic Constant Matrix: (Units=GPa)
#
#
# Indices 1 2 3 4 5 6 
#
# 1 105.6310 17.7759 25.4829 0.0000 0.0000 0.0000
# 2 17.7759 79.8406 15.7557 0.0000 0.0000 0.0000
# 3 25.4829 15.7557 98.8211 0.0000 0.0000 0.0000
# 4 0.0000 0.0000 0.0000 -7.7579 0.0000 0.0000
# 5 0.0000 0.0000 0.0000 0.0000 62.8953 0.0000
# 6 0.0000 0.0000 0.0000 0.0000 0.0000 23.3349
#
#
#
# Elastic Compliance Matrix: (Units=1/GPa)
#
#
# Indices 1 2 3 4 5 6 
#
# 1 0.010349 -0.001835 -0.002376 0.000000 0.000000 0.000000
# 2 -0.001835 0.013257 -0.001640 0.000000 0.000000 0.000000
# 3 -0.002376 -0.001640 0.010994 0.000000 0.000000 0.000000
# 4 0.000000 0.000000 0.000000 -0.128900 0.000000 0.000000
# 5 0.000000 0.000000 0.000000 0.000000 0.015899 0.000000
# 6 0.000000 0.000000 0.000000 0.000000 0.000000 0.042854
#
#
# Mechanical properties :
#
#
# Convention : Reuss Voigt Hill
#
# Bulk Modulus (GPa) = 43.67517 44.70241 44.18879
# Shear Modulus (GPa) = -308.42635 30.71301 -138.85667
#
# Velocity S-wave (km/s) = -10.89904 3.43933 -7.31300
# Velocity P-wave (km/s) = 11.89807 5.74360 7.36801
#
# Compressibility (1/GPa) = 0.02289631
#
# Stress axis : x y z
#
# Youngs Moduli (GPa) = 96.62798 75.43023 90.96236
#
# Poissons Ratio (x) = 0.13843 0.21613
# Poissons Ratio (y) = 0.17733 0.14922
# Poissons Ratio (z) = 0.22959 0.12374
#
# Static dielectric constant tensor:
#      x y z
#    x 2.127920 0.000000 0.000000 
#    y 0.000000 2.092010 0.000000 
#    z 0.000000 0.000000 2.075650 
# 
# From -- ./inp_files/38568.got.cif
#   From: 2010.05.17/outbox.cif.g08.bks.cpg/sg52_20_cif.got.tgz:38568.got - 2010.06.03 12:15:38.
