data_PCOD9410171
_publ_section_title
;
Structure prediction by ZEFSAII (Michael W. Deem and Ramdas Pophale) SiO2 
 PCOD9410171
Probable space group: P N N A
;
_chemical_formula_sum "Si O2"
_cell_formula_units_Z 64
_cell_length_a 18.514501
_cell_length_b 9.181797
_cell_length_c 19.236910
_cell_angle_alpha 90.000000
_cell_angle_beta 90.000000
_cell_angle_gamma 90.000000
_cell_volume 3270.205250
_symmetry_space_group_name_H-M "P N N A"
_symmetry_group_IT_number 52
_symmetry_cell_setting 'orthorhombic'
loop_
_space_group_symop_operation_xyz
x,y,z
1/2-x,-y,z
x,1/2-y,1/2-z
1/2-x,1/2+y,1/2-z
-x,-y,-z
1/2+x,y,-z
-x,1/2+y,1/2+z
1/2+x,1/2-y,1/2+z
loop_
_atom_site_type_symbol
_atom_site_label
_atom_site_fract_x
_atom_site_fract_y
_atom_site_fract_z
Si Si1 0.475293 0.592778 0.566362
Si Si2 0.263297 0.171262 0.467985
Si Si3 0.968850 0.604442 0.889853
Si Si4 0.429526 0.403039 0.228989
Si Si5 0.589857 0.424511 0.637695
Si Si6 0.572236 0.850295 0.512133
Si Si7 0.674757 0.415902 0.493920
Si Si8 0.724388 0.835873 0.683486
O O1 0.500000 0.500000 0.500000
O O2 0.513774 0.510363 0.628535
O O3 0.514347 0.748041 0.553241
O O4 0.389630 0.577616 0.561752
O O5 0.345787 0.206009 0.488565
O O6 0.201277 0.249876 0.509619
O O7 0.252536 0.229083 0.389390
O O8 0.250000 0.000000 0.468688
O O9 0.975422 0.507659 0.820610
O O10 0.927745 0.752622 0.867881
O O11 0.926873 0.504082 0.946682
O O12 0.040726 0.639558 0.934070
O O13 0.466676 0.250000 0.250000
O O14 0.389973 0.502109 0.288712
O O15 0.362201 0.341198 0.184071
O O16 0.640102 0.455383 0.570101
O O17 0.750000 0.500000 0.483928
O O18 0.750895 0.750000 0.750000
O O19 0.750000 0.000000 0.686225
#
# Coordination Sequence:
#
# PCOD9410171 Si02
#       8
#     8   8   8   8   8   8   8   8
#     4  10  20  39  57  86 115 159 201 245 296 351
#     4  11  23  38  54  86 123 156 203 249 289 357
#     4  11  22  37  62  84 112 159 201 250 297 339
#     4  11  24  40  56  84 116 155 207 250 293 353
#     4  11  23  39  61  85 122 156 209 244 295 358
#     4  11  21  38  63  81 124 158 202 250 300 350
#     4  11  24  35  59  86 122 161 197 241 299 349
#     4  10  24  35  50  73 119 165 202 229 284 336
#
# _framework density 19.570637999999999
#
# number of rings (size 3 to 8) (size 9 to 14) (size 15 to 20)
#    0.000    1.250    3.750    3.375   10.500    0.000 
#    0.000    0.000    0.000    0.000    0.000    0.875 
#    0.000    0.000    0.000    0.000    0.000    0.000 
#
# Total GULP energy -356830.203485 kJ/mol
# GULP energy per Si atom -5575.471929 kJ/mol
# Density = 1.952609 g / cm^3
# Si number density = 19.570638 Si / 1000 Ang^3
#
#
#
# Elastic Constant Matrix: (Units=GPa)
#
#
# Indices 1 2 3 4 5 6 
#
# 1 105.9445 24.2861 12.7502 0.0000 0.0000 0.0000
# 2 24.2861 100.8616 15.4524 0.0000 0.0000 0.0000
# 3 12.7502 15.4524 21.1310 0.0000 0.0000 0.0000
# 4 0.0000 0.0000 0.0000 21.8482 0.0000 0.0000
# 5 0.0000 0.0000 0.0000 0.0000 4.2644 0.0000
# 6 0.0000 0.0000 0.0000 0.0000 0.0000 24.1184
#
#
#
# Elastic Compliance Matrix: (Units=1/GPa)
#
#
# Indices 1 2 3 4 5 6 
#
# 1 0.010444 -0.001745 -0.005026 0.000000 0.000000 0.000000
# 2 -0.001745 0.011457 -0.007325 0.000000 0.000000 0.000000
# 3 -0.005026 -0.007325 0.055713 0.000000 0.000000 0.000000
# 4 0.000000 0.000000 0.000000 0.045770 0.000000 0.000000
# 5 0.000000 0.000000 0.000000 0.000000 0.234500 0.000000
# 6 0.000000 0.000000 0.000000 0.000000 0.000000 0.041462
#
#
# Mechanical properties :
#
#
# Convention : Reuss Voigt Hill
#
# Bulk Modulus (GPa) = 20.23387 36.99052 28.61219
# Shear Modulus (GPa) = 11.26095 21.74276 16.50186
#
# Velocity S-wave (km/s) = 2.40135 3.33677 2.90693
# Velocity P-wave (km/s) = 4.24853 5.81269 5.09104
#
# Compressibility (1/GPa) = 0.04942208
#
# Stress axis : x y z
#
# Youngs Moduli (GPa) = 95.75153 87.28323 17.94911
#
# Poissons Ratio (x) = 0.15229 0.09021
# Poissons Ratio (y) = 0.16706 0.13148
# Poissons Ratio (z) = 0.48122 0.63938
#
# Static dielectric constant tensor:
#      x y z
#    x 1.729350 0.000000 0.000000 
#    y 0.000000 1.805730 0.000000 
#    z 0.000000 0.000000 1.775650 
# 
# From -- ./inp_files/37701.got.cif
#   From: 2010.05.17/outbox.cif.g08.bks.cpg/sg52_19_cif.got.tgz:37701.got - 2010.06.03 12:15:38.
