data_PCOD9410015
_publ_section_title
;
Structure prediction by ZEFSAII (Michael W. Deem and Ramdas Pophale) SiO2 
 PCOD9410015
Probable space group: P N N A
;
_chemical_formula_sum "Si O2"
_cell_formula_units_Z 40
_cell_length_a 11.461070
_cell_length_b 11.586434
_cell_length_c 15.411815
_cell_angle_alpha 90.000000
_cell_angle_beta 90.000000
_cell_angle_gamma 90.000000
_cell_volume 2046.580088
_symmetry_space_group_name_H-M "P N N A"
_symmetry_group_IT_number 52
_symmetry_cell_setting 'orthorhombic'
loop_
_space_group_symop_operation_xyz
x,y,z
1/2-x,-y,z
x,1/2-y,1/2-z
1/2-x,1/2+y,1/2-z
-x,-y,-z
1/2+x,y,-z
-x,1/2+y,1/2+z
1/2+x,1/2-y,1/2+z
loop_
_atom_site_type_symbol
_atom_site_label
_atom_site_fract_x
_atom_site_fract_y
_atom_site_fract_z
Si Si1 0.582053 0.323717 0.333949
Si Si2 0.617051 0.458694 0.882216
Si Si3 0.550021 0.579932 0.266723
Si Si4 0.662348 0.726018 0.130241
Si Si5 0.015371 0.673655 0.024263
O O1 0.543382 0.250000 0.250000
O O2 0.573292 0.457072 0.309462
O O3 0.713349 0.283049 0.355539
O O4 0.510619 0.284818 0.418268
O O5 0.750000 0.500000 0.881682
O O6 0.569951 0.420634 0.787919
O O7 0.536630 0.567195 0.910955
O O8 0.585129 0.363626 0.955628
O O9 0.645224 0.616441 0.193404
O O10 0.566389 0.680570 0.337292
O O11 0.630160 0.689810 0.034009
#
# Coordination Sequence:
#
# PCOD9410015 Si02
#       5
#     8   8   8   8   8
#     4  12  21  36  64  91 115 155 197 245 291 346
#     4  10  20  38  59  83 116 155 197 246 292 339
#     4  10  21  38  58  87 117 151 203 239 286 357
#     4  10  22  39  60  88 120 156 192 244 298 345
#     4  10  22  37  56  89 118 149 199 246 288 353
#
# _framework density 19.544799000000001
#
# number of rings (size 3 to 8) (size 9 to 14) (size 15 to 20)
#    0.000    1.600    4.000    1.800    0.000    0.800 
#    0.000   10.000    0.000    0.000    0.000    0.000 
#    0.000    0.000    0.000    0.000    0.000    0.000 
#
# Total GULP energy -223211.530064 kJ/mol
# GULP energy per Si atom -5580.288252 kJ/mol
# Density = 1.950031 g / cm^3
# Si number density = 19.544799 Si / 1000 Ang^3
#
#
#
# Elastic Constant Matrix: (Units=GPa)
#
#
# Indices 1 2 3 4 5 6 
#
# 1 36.6556 -19.4981 -5.4027 0.0000 0.0000 0.0000
# 2 -19.4981 94.4145 19.7506 0.0000 0.0000 0.0000
# 3 -5.4027 19.7506 56.1178 0.0000 0.0000 0.0000
# 4 0.0000 0.0000 0.0000 31.3918 0.0000 0.0000
# 5 0.0000 0.0000 0.0000 0.0000 22.8019 0.0000
# 6 0.0000 0.0000 0.0000 0.0000 0.0000 17.7163
#
#
#
# Elastic Compliance Matrix: (Units=1/GPa)
#
#
# Indices 1 2 3 4 5 6 
#
# 1 0.030679 0.006172 0.000781 0.000000 0.000000 0.000000
# 2 0.006172 0.012675 -0.003867 0.000000 0.000000 0.000000
# 3 0.000781 -0.003867 0.019256 0.000000 0.000000 0.000000
# 4 0.000000 0.000000 0.000000 0.031855 0.000000 0.000000
# 5 0.000000 0.000000 0.000000 0.000000 0.043856 0.000000
# 6 0.000000 0.000000 0.000000 0.000000 0.000000 0.056445
#
#
# Mechanical properties :
#
#
# Convention : Reuss Voigt Hill
#
# Bulk Modulus (GPa) = 14.53827 19.65417 17.09622
# Shear Modulus (GPa) = 23.63827 27.20453 25.42140
#
# Velocity S-wave (km/s) = 3.48147 3.73487 3.61040
# Velocity P-wave (km/s) = 4.85957 5.35508 5.11333
#
# Compressibility (1/GPa) = 0.06878396
#
# Stress axis : x y z
#
# Youngs Moduli (GPa) = 32.59522 78.89440 51.93245
#
# Poissons Ratio (x) = -0.48696 -0.04057
# Poissons Ratio (y) = -0.20119 0.20081
# Poissons Ratio (z) = -0.02547 0.30507
#
# Static dielectric constant tensor:
#      x y z
#    x 1.694660 0.000000 0.000000 
#    y 0.000000 1.677820 0.000000 
#    z 0.000000 0.000000 1.689030 
# 
# From -- ./inp_files/25808.got.cif
#   From: 2010.05.17/outbox.cif.g08.bks.cpg/sg52_13_cif.got.tgz:25808.got - 2010.06.03 12:15:38.
