data_PCOD9410959
_publ_section_title
;
Structure prediction by ZEFSAII (Michael W. Deem and Ramdas Pophale) SiO2 
 PCOD9410959
Probable space group: P N N A
;
_chemical_formula_sum "Si O2"
_cell_formula_units_Z 64
_cell_length_a 9.108506
_cell_length_b 16.057533
_cell_length_c 22.551264
_cell_angle_alpha 90.000000
_cell_angle_beta 90.000000
_cell_angle_gamma 90.000000
_cell_volume 3298.350932
_symmetry_space_group_name_H-M "P N N A"
_symmetry_group_IT_number 52
_symmetry_cell_setting 'orthorhombic'
loop_
_space_group_symop_operation_xyz
x,y,z
1/2-x,-y,z
x,1/2-y,1/2-z
1/2-x,1/2+y,1/2-z
-x,-y,-z
1/2+x,y,-z
-x,1/2+y,1/2+z
1/2+x,1/2-y,1/2+z
loop_
_atom_site_type_symbol
_atom_site_label
_atom_site_fract_x
_atom_site_fract_y
_atom_site_fract_z
Si Si1 0.508749 0.565221 0.945085
Si Si2 0.231095 0.756894 0.682916
Si Si3 0.772827 0.828631 0.508453
Si Si4 0.621480 0.395875 0.537869
Si Si5 0.115577 0.434864 0.820445
Si Si6 0.439690 0.084659 0.070127
Si Si7 0.957777 0.246586 0.075011
Si Si8 0.371551 0.572738 0.682702
O O1 0.660722 0.613225 0.955748
O O2 0.490874 0.542382 0.875753
O O3 0.500000 0.500000 0.000000
O O4 0.366754 0.621616 0.959602
O O5 0.177444 0.750000 0.750000
O O6 0.337591 0.836942 0.675451
O O7 0.099600 0.773641 0.638076
O O8 0.303468 0.665712 0.673576
O O9 0.669626 0.766562 0.471806
O O10 0.895388 0.790285 0.551153
O O11 0.570925 0.377530 0.470172
O O12 0.597972 0.493049 0.546508
O O13 0.783901 0.370660 0.559037
O O14 0.498904 0.349746 0.576293
O O15 0.250000 0.500000 0.827633
O O16 0.074297 0.441376 0.750567
O O17 0.495530 0.072808 0.136308
O O18 0.250000 0.500000 0.670445
#
# Coordination Sequence:
#
# PCOD9410959 Si02
#       8
#     8   8   8   8   8   8   8   8
#     4  11  21  39  61  88 122 159 200 260 316 368
#     4  10  22  39  61  88 119 160 208 259 306 370
#     4  10  23  34  58  88 118 150 198 249 311 372
#     4  10  22  35  57  83 121 156 194 245 312 360
#     4  10  21  39  62  91 119 163 210 255 305 382
#     4  10  22  37  55  88 118 156 201 248 303 370
#     4  11  21  38  56  86 120 155 198 252 308 373
#     4  10  22  38  64  89 121 163 211 251 305 376
#
# _framework density 19.403635999999999
#
# number of rings (size 3 to 8) (size 9 to 14) (size 15 to 20)
#    0.000    1.750    1.250    2.625    8.750    1.000 
#    0.000    1.250    5.500    0.000    0.000    0.000 
#    0.000    0.000    0.000    0.000    0.000    0.000 
#
# Total GULP energy -356527.078959 kJ/mol
# GULP energy per Si atom -5570.735609 kJ/mol
# Density = 1.935947 g / cm^3
# Si number density = 19.403636 Si / 1000 Ang^3
#
#
#
# Elastic Constant Matrix: (Units=GPa)
#
#
# Indices 1 2 3 4 5 6 
#
# 1 107.4909 19.0921 65.1009 0.0000 0.0000 0.0000
# 2 19.0921 57.2127 6.9707 0.0000 0.0000 0.0000
# 3 65.1009 6.9707 139.5316 0.0000 0.0000 0.0000
# 4 0.0000 0.0000 0.0000 -7.1635 0.0000 0.0000
# 5 0.0000 0.0000 0.0000 0.0000 24.7816 0.0000
# 6 0.0000 0.0000 0.0000 0.0000 0.0000 16.8760
#
#
#
# Elastic Compliance Matrix: (Units=1/GPa)
#
#
# Indices 1 2 3 4 5 6 
#
# 1 0.013754 -0.003831 -0.006226 0.000000 0.000000 0.000000
# 2 -0.003831 0.018653 0.000856 0.000000 0.000000 0.000000
# 3 -0.006226 0.000856 0.010029 0.000000 0.000000 0.000000
# 4 0.000000 0.000000 0.000000 -0.139597 0.000000 0.000000
# 5 0.000000 0.000000 0.000000 0.000000 0.040353 0.000000
# 6 0.000000 0.000000 0.000000 0.000000 0.000000 0.059256
#
#
# Mechanical properties :
#
#
# Convention : Reuss Voigt Hill
#
# Bulk Modulus (GPa) = 41.60931 54.06250 47.83591
# Shear Modulus (GPa) = 173.23988 21.10358 97.17173
#
# Velocity S-wave (km/s) = 9.45918 3.30147 7.08434
# Velocity P-wave (km/s) = 11.86558 6.51579 9.57203
#
# Compressibility (1/GPa) = 0.02403308
#
# Stress axis : x y z
#
# Youngs Moduli (GPa) = 72.70468 53.61093 99.71198
#
# Poissons Ratio (x) = 0.20540 0.62080
# Poissons Ratio (y) = 0.27855 -0.08532
# Poissons Ratio (z) = 0.45265 -0.04588
#
# Static dielectric constant tensor:
#      x y z
#    x 1.695850 0.000000 0.000000 
#    y 0.000000 1.783710 0.000000 
#    z 0.000000 0.000000 1.698960 
# 
# From -- ./inp_files/36202.got.cif
#   From: 2010.05.17/outbox.cif.g08.bks.cpg/sg52_19_cif.got.tgz:36202.got - 2010.06.03 12:15:38.
