data_PCOD9410587
_publ_section_title
;
Structure prediction by ZEFSAII (Michael W. Deem and Ramdas Pophale) SiO2 
 PCOD9410587
Probable space group: P N N A
;
_chemical_formula_sum "Si O2"
_cell_formula_units_Z 32
_cell_length_a 10.920460
_cell_length_b 7.147056
_cell_length_c 16.038911
_cell_angle_alpha 90.000000
_cell_angle_beta 90.000000
_cell_angle_gamma 90.000000
_cell_volume 1251.823197
_symmetry_space_group_name_H-M "P N N A"
_symmetry_group_IT_number 52
_symmetry_cell_setting 'orthorhombic'
loop_
_space_group_symop_operation_xyz
x,y,z
1/2-x,-y,z
x,1/2-y,1/2-z
1/2-x,1/2+y,1/2-z
-x,-y,-z
1/2+x,y,-z
-x,1/2+y,1/2+z
1/2+x,1/2-y,1/2+z
loop_
_atom_site_type_symbol
_atom_site_label
_atom_site_fract_x
_atom_site_fract_y
_atom_site_fract_z
Si Si1 0.864113 0.851845 0.163452
Si Si2 0.264658 0.221132 0.158480
Si Si3 0.488354 0.291884 0.657669
Si Si4 0.286948 0.223513 0.976285
O O1 0.877930 0.750000 0.250000
O O2 0.826235 0.722203 0.085155
O O3 0.750000 0.000000 0.173395
O O4 0.981187 0.982148 0.146930
O O5 0.320877 0.250000 0.250000
O O6 0.123095 0.292646 0.159230
O O7 0.250000 0.000000 0.154495
O O8 0.310861 0.292522 0.069361
O O9 0.436053 0.250000 0.750000
O O10 0.404313 0.233776 0.580679
O O11 0.250000 0.000000 0.986405
#
# Coordination Sequence:
#
# PCOD9410587 Si02
#       4
#     8   8   8   8
#     4   9  16  28  50  79 104 129 165 211 253 291
#     4  10  21  36  52  72 102 135 167 207 252 299
#     4   9  18  34  53  74 102 133 164 205 255 297
#     4   8  16  30  52  74  96 130 170 205 242 292
#
# _framework density 25.562714
#
# number of rings (size 3 to 8) (size 9 to 14) (size 15 to 20)
#    0.000    3.500    0.000    3.000    0.000   10.000 
#    0.000    3.750    0.000    7.500    0.000    0.000 
#    0.000    0.000    0.000    0.000    0.000    0.000 
#
# Total GULP energy -178230.299303 kJ/mol
# GULP energy per Si atom -5569.696853 kJ/mol
# Density = 2.550453 g / cm^3
# Si number density = 25.562714 Si / 1000 Ang^3
#
#
#
# Elastic Constant Matrix: (Units=GPa)
#
#
# Indices 1 2 3 4 5 6 
#
# 1 70.5226 -11.8876 41.3189 0.0000 0.0000 0.0000
# 2 -11.8876 41.5686 15.2533 0.0000 0.0000 0.0000
# 3 41.3189 15.2533 310.8854 0.0000 0.0000 0.0000
# 4 0.0000 0.0000 0.0000 18.7878 0.0000 0.0000
# 5 0.0000 0.0000 0.0000 0.0000 20.7709 0.0000
# 6 0.0000 0.0000 0.0000 0.0000 0.0000 10.9833
#
#
#
# Elastic Compliance Matrix: (Units=1/GPa)
#
#
# Indices 1 2 3 4 5 6 
#
# 1 0.016587 0.005654 -0.002482 0.000000 0.000000 0.000000
# 2 0.005654 0.026425 -0.002048 0.000000 0.000000 0.000000
# 3 -0.002482 -0.002048 0.003647 0.000000 0.000000 0.000000
# 4 0.000000 0.000000 0.000000 0.053226 0.000000 0.000000
# 5 0.000000 0.000000 0.000000 0.000000 0.048144 0.000000
# 6 0.000000 0.000000 0.000000 0.000000 0.000000 0.091048
#
#
# Mechanical properties :
#
#
# Convention : Reuss Voigt Hill
#
# Bulk Modulus (GPa) = 20.44668 56.92731 38.68699
# Shear Modulus (GPa) = 19.75259 35.32785 27.54022
#
# Velocity S-wave (km/s) = 2.78278 3.72157 3.28588
# Velocity P-wave (km/s) = 4.28266 6.38630 5.43718
#
# Compressibility (1/GPa) = 0.04890770
#
# Stress axis : x y z
#
# Youngs Moduli (GPa) = 60.28775 37.84282 274.19996
#
# Poissons Ratio (x) = -0.21397 0.68055
# Poissons Ratio (y) = -0.34088 0.56156
# Poissons Ratio (z) = 0.14963 0.07750
#
# Static dielectric constant tensor:
#      x y z
#    x 2.162560 0.000000 0.000000 
#    y 0.000000 2.109500 0.000000 
#    z 0.000000 0.000000 2.085320 
# 
# From -- ./inp_files/25501.got.cif
#   From: 2010.05.17/outbox.cif.g08.bks.cpg/sg52_13_cif.got.tgz:25501.got - 2010.06.03 12:15:38.
