data_PCOD9410031
_publ_section_title
;
Structure prediction by ZEFSAII (Michael W. Deem and Ramdas Pophale) SiO2 
 PCOD9410031
Probable space group: P N N A
;
_chemical_formula_sum "Si O2"
_cell_formula_units_Z 56
_cell_length_a 13.407908
_cell_length_b 7.074997
_cell_length_c 28.954888
_cell_angle_alpha 90.000000
_cell_angle_beta 90.000000
_cell_angle_gamma 90.000000
_cell_volume 2746.686992
_symmetry_space_group_name_H-M "P N N A"
_symmetry_group_IT_number 52
_symmetry_cell_setting 'orthorhombic'
loop_
_space_group_symop_operation_xyz
x,y,z
1/2-x,-y,z
x,1/2-y,1/2-z
1/2-x,1/2+y,1/2-z
-x,-y,-z
1/2+x,y,-z
-x,1/2+y,1/2+z
1/2+x,1/2-y,1/2+z
loop_
_atom_site_type_symbol
_atom_site_label
_atom_site_fract_x
_atom_site_fract_y
_atom_site_fract_z
Si Si1 0.132889 0.948567 0.937105
Si Si2 0.134168 0.554278 0.369342
Si Si3 0.998741 0.090818 0.449706
Si Si4 0.866323 0.957392 0.167557
Si Si5 0.975245 0.723671 0.699366
Si Si6 0.363620 0.578000 0.465179
Si Si7 0.504000 0.113958 0.352584
O O1 0.101159 0.985343 0.884655
O O2 0.094184 0.737514 0.947261
O O3 0.250000 0.000000 0.934911
O O4 0.096776 0.061302 0.982523
O O5 0.250000 0.500000 0.371674
O O6 0.096617 0.546625 0.422595
O O7 0.091123 0.393435 0.336273
O O8 0.094428 0.753109 0.349921
O O9 0.101877 0.214582 0.447700
O O10 0.000000 0.000000 0.500000
O O11 0.986514 0.952487 0.406049
O O12 0.926440 0.091727 0.202256
O O13 0.750000 0.000000 0.172709
O O14 0.905316 0.742119 0.167285
O O15 0.930872 0.750000 0.750000
O O16 0.996742 0.925202 0.677007
O O17 0.250000 0.500000 0.469177
#
# Coordination Sequence:
#
# PCOD9410031 Si02
#       7
#     8   8   8   8   8   8   8
#     4  10  20  38  60  90 133 168 207 266 314 371
#     4  10  22  43  65  94 132 168 210 267 323 378
#     4  12  21  36  63  96 123 174 224 246 320 398
#     4  10  22  43  65  94 132 168 210 267 323 378
#     4  11  24  46  65  96 130 165 216 270 322 385
#     4  10  20  38  60  90 133 168 207 266 314 371
#     4  11  22  41  67  92 128 167 211 265 314 380
#
# _framework density 20.388197000000002
#
# number of rings (size 3 to 8) (size 9 to 14) (size 15 to 20)
#    0.000    1.429    2.857    3.000    0.000    3.429 
#    5.143   11.429    0.000    0.000    0.000    0.000 
#    0.000    0.000    0.000    0.000    0.000    0.000 
#
# Total GULP energy -311810.469946 kJ/mol
# GULP energy per Si atom -5568.044106 kJ/mol
# Density = 2.034179 g / cm^3
# Si number density = 20.388197 Si / 1000 Ang^3
#
#
#
# Elastic Constant Matrix: (Units=GPa)
#
#
# Indices 1 2 3 4 5 6 
#
# 1 85.3423 21.6805 -2.8341 0.0000 0.0000 0.0000
# 2 21.6805 134.6759 25.9803 0.0000 0.0000 0.0000
# 3 -2.8341 25.9803 85.9120 0.0000 0.0000 0.0000
# 4 0.0000 0.0000 0.0000 15.4540 0.0000 0.0000
# 5 0.0000 0.0000 0.0000 0.0000 8.9901 0.0000
# 6 0.0000 0.0000 0.0000 0.0000 0.0000 12.0975
#
#
#
# Elastic Compliance Matrix: (Units=1/GPa)
#
#
# Indices 1 2 3 4 5 6 
#
# 1 0.012309 -0.002187 0.001068 0.000000 0.000000 0.000000
# 2 -0.002187 0.008274 -0.002574 0.000000 0.000000 0.000000
# 3 0.001068 -0.002574 0.012453 0.000000 0.000000 0.000000
# 4 0.000000 0.000000 0.000000 0.064708 0.000000 0.000000
# 5 0.000000 0.000000 0.000000 0.000000 0.111233 0.000000
# 6 0.000000 0.000000 0.000000 0.000000 0.000000 0.082662
#
#
# Mechanical properties :
#
#
# Convention : Reuss Voigt Hill
#
# Bulk Modulus (GPa) = 38.98963 43.95373 41.47168
# Shear Modulus (GPa) = 16.25612 24.71524 20.48568
#
# Velocity S-wave (km/s) = 2.82677 3.48549 3.17327
# Velocity P-wave (km/s) = 5.46070 6.14845 5.81475
#
# Compressibility (1/GPa) = 0.02564784
#
# Stress axis : x y z
#
# Youngs Moduli (GPa) = 81.24361 120.86098 80.29872
#
# Poissons Ratio (x) = 0.26437 -0.08572
# Poissons Ratio (y) = 0.17771 0.20671
# Poissons Ratio (z) = -0.08673 0.31113
#
# Static dielectric constant tensor:
#      x y z
#    x 1.780850 0.000000 0.000000 
#    y 0.000000 1.748300 0.000000 
#    z 0.000000 0.000000 1.728530 
# 
# From -- ./inp_files/2638.got.cif
#   From: 2010.05.17/outbox.cif.g08.bks.cpg/sg52_2_cif.got.tgz:2638.got - 2010.06.03 12:15:38.
