data_PCOD9410176
_publ_section_title
;
Structure prediction by ZEFSAII (Michael W. Deem and Ramdas Pophale) SiO2 
 PCOD9410176
Probable space group: P N N A
;
_chemical_formula_sum "Si O2"
_cell_formula_units_Z 28
_cell_length_a 8.684941
_cell_length_b 12.761526
_cell_length_c 13.331563
_cell_angle_alpha 90.000000
_cell_angle_beta 90.000000
_cell_angle_gamma 90.000000
_cell_volume 1477.578460
_symmetry_space_group_name_H-M "P N N A"
_symmetry_group_IT_number 52
_symmetry_cell_setting 'orthorhombic'
loop_
_space_group_symop_operation_xyz
x,y,z
1/2-x,-y,z
x,1/2-y,1/2-z
1/2-x,1/2+y,1/2-z
-x,-y,-z
1/2+x,y,-z
-x,1/2+y,1/2+z
1/2+x,1/2-y,1/2+z
loop_
_atom_site_type_symbol
_atom_site_label
_atom_site_fract_x
_atom_site_fract_y
_atom_site_fract_z
Si Si1 0.246591 0.620410 0.398470
Si Si2 0.753083 0.119219 0.319547
Si Si3 0.601868 0.822712 0.107102
Si Si4 0.031001 0.750000 0.250000
O O1 0.250000 0.500000 0.364420
O O2 0.419411 0.664196 0.396871
O O3 0.178894 0.625348 0.510571
O O4 0.136290 0.688379 0.328136
O O5 0.832227 0.126141 0.209273
O O6 0.847441 0.201080 0.387332
O O7 0.583700 0.168685 0.305234
O O8 0.750000 0.000000 0.354171
#
# Coordination Sequence:
#
# PCOD9410176 Si02
#       4
#     8   8   8   4
#     4  12  22  38  59  84 114 148 185 234 279 326
#     4  10  20  39  59  83 116 149 181 232 281 326
#     4  10  21  36  58  86 112 146 192 226 272 340
#     4  10  22  36  56  86 112 144 192 228 274 340
#
# _framework density 18.949925
#
# number of rings (size 3 to 8) (size 9 to 14) (size 15 to 20)
#    0.000    1.714    0.000    8.571    0.000    0.000 
#    0.000    7.143    0.000    0.000    0.000    0.000 
#    0.000    0.000    0.000    0.000    0.000    0.000 
#
# Total GULP energy -156501.560569 kJ/mol
# GULP energy per Si atom -5589.341449 kJ/mol
# Density = 1.890679 g / cm^3
# Si number density = 18.949925 Si / 1000 Ang^3
#
#
#
# Elastic Constant Matrix: (Units=GPa)
#
#
# Indices 1 2 3 4 5 6 
#
# 1 182.6126 57.5197 33.8262 0.0000 0.0000 0.0000
# 2 57.5197 128.2459 3.2263 0.0000 0.0000 0.0000
# 3 33.8262 3.2263 39.9511 0.0000 0.0000 0.0000
# 4 0.0000 0.0000 0.0000 12.1315 0.0000 0.0000
# 5 0.0000 0.0000 0.0000 0.0000 30.3455 0.0000
# 6 0.0000 0.0000 0.0000 0.0000 0.0000 7.6401
#
#
#
# Elastic Compliance Matrix: (Units=1/GPa)
#
#
# Indices 1 2 3 4 5 6 
#
# 1 0.007662 -0.003280 -0.006222 0.000000 0.000000 0.000000
# 2 -0.003280 0.009217 0.002033 0.000000 0.000000 0.000000
# 3 -0.006222 0.002033 0.030135 0.000000 0.000000 0.000000
# 4 0.000000 0.000000 0.000000 0.082430 0.000000 0.000000
# 5 0.000000 0.000000 0.000000 0.000000 0.032954 0.000000
# 6 0.000000 0.000000 0.000000 0.000000 0.000000 0.130888
#
#
# Mechanical properties :
#
#
# Convention : Reuss Voigt Hill
#
# Bulk Modulus (GPa) = 31.17691 59.99489 45.58590
# Shear Modulus (GPa) = 15.67808 27.10591 21.39200
#
# Velocity S-wave (km/s) = 2.87948 3.78616 3.36351
# Velocity P-wave (km/s) = 5.24816 7.13034 6.26039
#
# Compressibility (1/GPa) = 0.03207502
#
# Stress axis : x y z
#
# Youngs Moduli (GPa) = 130.51860 108.49012 33.18425
#
# Poissons Ratio (x) = 0.35583 0.20648
# Poissons Ratio (y) = 0.42808 -0.06745
# Poissons Ratio (z) = 0.81212 -0.22052
#
# Static dielectric constant tensor:
#      x y z
#    x 1.631520 0.000000 0.000000 
#    y 0.000000 1.654040 0.000000 
#    z 0.000000 0.000000 1.638650 
# 
# From -- ./inp_files/24009.got.cif
#   From: 2010.05.17/outbox.cif.g08.bks.cpg/sg52_13_cif.got.tgz:24009.got - 2010.06.03 12:15:38.
