data_PCOD9410126
_publ_section_title
;
Structure prediction by ZEFSAII (Michael W. Deem and Ramdas Pophale) SiO2 
 PCOD9410126
Probable space group: P N N A
;
_chemical_formula_sum "Si O2"
_cell_formula_units_Z 48
_cell_length_a 8.404265
_cell_length_b 16.171844
_cell_length_c 12.582129
_cell_angle_alpha 90.000000
_cell_angle_beta 90.000000
_cell_angle_gamma 90.000000
_cell_volume 1710.068136
_symmetry_space_group_name_H-M "P N N A"
_symmetry_group_IT_number 52
_symmetry_cell_setting 'orthorhombic'
loop_
_space_group_symop_operation_xyz
x,y,z
1/2-x,-y,z
x,1/2-y,1/2-z
1/2-x,1/2+y,1/2-z
-x,-y,-z
1/2+x,y,-z
-x,1/2+y,1/2+z
1/2+x,1/2-y,1/2+z
loop_
_atom_site_type_symbol
_atom_site_label
_atom_site_fract_x
_atom_site_fract_y
_atom_site_fract_z
Si Si1 0.551242 0.750000 0.750000
Si Si2 0.961869 0.907076 0.353260
Si Si3 0.479484 0.220846 0.883192
Si Si4 0.836629 0.611112 0.915000
Si Si5 0.537520 0.945949 0.233599
Si Si6 0.250000 0.500000 0.417945
Si Si7 0.715559 0.672194 0.545328
O O1 0.444222 0.813291 0.686982
O O2 0.652052 0.695684 0.663109
O O3 0.155629 0.904095 0.378054
O O4 0.863978 0.910256 0.462550
O O5 0.890241 0.962018 0.255112
O O6 0.596701 0.299470 0.872126
O O7 0.421898 0.150258 0.799419
O O8 0.595239 0.170927 0.961782
O O9 0.338068 0.241151 0.961854
O O10 0.965653 0.556300 0.852963
O O11 0.387331 0.966422 0.158725
O O12 0.321289 0.423319 0.482270
#
# Coordination Sequence:
#
# PCOD9410126 Si02
#       7
#     4   8   8   8   8   4   8
#     4  12  20  42  66  94 126 176 226 266 328 410
#     4  12  24  42  69  96 133 170 229 276 339 398
#     4  11  23  41  68  99 130 174 225 276 335 397
#     4  12  22  41  68 100 128 176 223 278 331 405
#     4  11  22  38  66  95 128 174 222 268 322 413
#     4  10  20  38  66  92 122 174 220 260 320 402
#     4  11  23  40  67  96 130 173 222 279 328 402
#
# _framework density 28.069056
#
# number of rings (size 3 to 8) (size 9 to 14) (size 15 to 20)
#    0.000    0.667    6.667    2.000    0.000    2.667 
#    0.000    1.667    3.667    0.000    0.000    0.000 
#    0.000    0.000    0.000    0.000    0.000    0.000 
#
# Total GULP energy -267215.505733 kJ/mol
# GULP energy per Si atom -5566.989703 kJ/mol
# Density = 2.800517 g / cm^3
# Si number density = 28.069056 Si / 1000 Ang^3
#
#
#
# Elastic Constant Matrix: (Units=GPa)
#
#
# Indices 1 2 3 4 5 6 
#
# 1 21.6520 -17.2710 17.0655 0.0000 0.0000 0.0000
# 2 -17.2710 51.9643 -28.3376 0.0000 0.0000 0.0000
# 3 17.0655 -28.3376 62.9591 0.0000 0.0000 0.0000
# 4 0.0000 0.0000 0.0000 44.1746 0.0000 0.0000
# 5 0.0000 0.0000 0.0000 0.0000 26.9455 0.0000
# 6 0.0000 0.0000 0.0000 0.0000 0.0000 37.7334
#
#
#
# Elastic Compliance Matrix: (Units=1/GPa)
#
#
# Indices 1 2 3 4 5 6 
#
# 1 0.068117 0.016660 -0.010965 0.000000 0.000000 0.000000
# 2 0.016660 0.029579 0.008797 0.000000 0.000000 0.000000
# 3 -0.010965 0.008797 0.022815 0.000000 0.000000 0.000000
# 4 0.000000 0.000000 0.000000 0.022637 0.000000 0.000000
# 5 0.000000 0.000000 0.000000 0.000000 0.037112 0.000000
# 6 0.000000 0.000000 0.000000 0.000000 0.000000 0.026502
#
#
# Mechanical properties :
#
#
# Convention : Reuss Voigt Hill
#
# Bulk Modulus (GPa) = 6.68917 8.83212 7.76064
# Shear Modulus (GPa) = 21.96760 32.77862 27.37311
#
# Velocity S-wave (km/s) = 2.80058 3.42099 3.12622
# Velocity P-wave (km/s) = 3.58413 4.33101 3.97515
#
# Compressibility (1/GPa) = 0.14949537
#
# Stress axis : x y z
#
# Youngs Moduli (GPa) = 14.68072 33.80820 43.83065
#
# Poissons Ratio (x) = -0.56324 0.48060
# Poissons Ratio (y) = -0.24458 -0.38560
# Poissons Ratio (z) = 0.16097 -0.29742
#
# Static dielectric constant tensor:
#      x y z
#    x 2.282810 0.000000 0.000000 
#    y 0.000000 2.631950 0.000000 
#    z 0.000000 0.000000 2.702660 
# 
# From -- ./inp_files/18241.got.cif
#   From: 2010.05.17/outbox.cif.g08.bks.cpg/sg52_10_cif.got.tgz:18241.got - 2010.06.03 12:15:38.
