data_PCOD9410475
_publ_section_title
;
Structure prediction by ZEFSAII (Michael W. Deem and Ramdas Pophale) SiO2 
 PCOD9410475
Probable space group: P N N A
;
_chemical_formula_sum "Si O2"
_cell_formula_units_Z 56
_cell_length_a 21.338605
_cell_length_b 14.213785
_cell_length_c 7.898448
_cell_angle_alpha 90.000000
_cell_angle_beta 90.000000
_cell_angle_gamma 90.000000
_cell_volume 2395.617790
_symmetry_space_group_name_H-M "P N N A"
_symmetry_group_IT_number 52
_symmetry_cell_setting 'orthorhombic'
loop_
_space_group_symop_operation_xyz
x,y,z
1/2-x,-y,z
x,1/2-y,1/2-z
1/2-x,1/2+y,1/2-z
-x,-y,-z
1/2+x,y,-z
-x,1/2+y,1/2+z
1/2+x,1/2-y,1/2+z
loop_
_atom_site_type_symbol
_atom_site_label
_atom_site_fract_x
_atom_site_fract_y
_atom_site_fract_z
Si Si1 0.049080 0.207433 0.457634
Si Si2 0.399925 0.388941 0.392166
Si Si3 0.030661 0.119742 0.803864
Si Si4 0.189042 0.953907 0.562976
Si Si5 0.137340 0.076634 0.256463
Si Si6 0.562778 0.899867 0.257415
Si Si7 0.264218 0.147225 0.240777
O O1 0.063949 0.157506 0.636576
O O2 0.048417 0.316788 0.528802
O O3 0.099025 0.165782 0.322707
O O4 0.985586 0.160233 0.373035
O O5 0.456791 0.358377 0.272648
O O6 0.397556 0.501738 0.361956
O O7 0.422850 0.357002 0.574568
O O8 0.330198 0.355437 0.354083
O O9 0.038769 0.006430 0.790224
O O10 0.132008 0.910941 0.664850
O O11 0.220173 0.881798 0.432043
O O12 0.250000 0.000000 0.653667
O O13 0.155061 0.024232 0.431700
O O14 0.205563 0.089545 0.171766
O O15 0.238054 0.250000 0.250000
#
# Coordination Sequence:
#
# PCOD9410475 Si02
#       7
#     8   8   8   8   8   8   8
#     4  11  23  40  68  98 131 178 231 281 349 419
#     4  11  24  40  65  96 134 173 231 273 349 417
#     4  11  24  40  66 102 133 177 227 286 346 427
#     4   9  20  39  66  90 122 176 226 267 340 415
#     4  10  20  43  66  90 130 180 227 277 342 424
#     4  12  23  42  65  97 141 176 219 296 350 412
#     4  10  23  42  66  93 127 177 231 279 334 418
#
# _framework density 23.376016
#
# number of rings (size 3 to 8) (size 9 to 14) (size 15 to 20)
#    0.000    1.429    2.857    3.857    4.000    2.857 
#    0.000    0.000    0.000    0.000    0.000    0.000 
#    0.000    0.000    0.000    0.000    0.000    0.000 
#
# Total GULP energy -311833.756533 kJ/mol
# GULP energy per Si atom -5568.459938 kJ/mol
# Density = 2.332281 g / cm^3
# Si number density = 23.376016 Si / 1000 Ang^3
#
#
#
# Elastic Constant Matrix: (Units=GPa)
#
#
# Indices 1 2 3 4 5 6 
#
# 1 102.5714 21.2744 23.0789 0.0000 0.0000 0.0000
# 2 21.2744 106.7144 17.2652 0.0000 0.0000 0.0000
# 3 23.0789 17.2652 86.2019 0.0000 0.0000 0.0000
# 4 0.0000 0.0000 0.0000 22.0068 0.0000 0.0000
# 5 0.0000 0.0000 0.0000 0.0000 21.3328 0.0000
# 6 0.0000 0.0000 0.0000 0.0000 0.0000 17.2142
#
#
#
# Elastic Compliance Matrix: (Units=1/GPa)
#
#
# Indices 1 2 3 4 5 6 
#
# 1 0.010672 -0.001721 -0.002512 0.000000 0.000000 0.000000
# 2 -0.001721 0.009962 -0.001535 0.000000 0.000000 0.000000
# 3 -0.002512 -0.001535 0.012581 0.000000 0.000000 0.000000
# 4 0.000000 0.000000 0.000000 0.045441 0.000000 0.000000
# 5 0.000000 0.000000 0.000000 0.000000 0.046876 0.000000
# 6 0.000000 0.000000 0.000000 0.000000 0.000000 0.058092
#
#
# Mechanical properties :
#
#
# Convention : Reuss Voigt Hill
#
# Bulk Modulus (GPa) = 46.12858 46.52495 46.32676
# Shear Modulus (GPa) = 24.70541 27.70204 26.20372
#
# Velocity S-wave (km/s) = 3.25448 3.44621 3.35172
# Velocity P-wave (km/s) = 5.82223 5.98174 5.90252
#
# Compressibility (1/GPa) = 0.02167853
#
# Stress axis : x y z
#
# Youngs Moduli (GPa) = 93.70704 100.37974 79.48699
#
# Poissons Ratio (x) = 0.17275 0.19970
# Poissons Ratio (y) = 0.16127 0.12198
# Poissons Ratio (z) = 0.23543 0.15404
#
# Static dielectric constant tensor:
#      x y z
#    x 9.745950 0.000000 0.000000 
#    y 0.000000 2.010500 0.000000 
#    z 0.000000 0.000000 1.932650 
# 
# From -- ./inp_files/13457.got.cif
#   From: 2010.05.17/outbox.cif.g08.bks.cpg/sg52_7_cif.got.tgz:13457.got - 2010.06.03 12:15:38.
