data_PCOD9410520
_publ_section_title
;
Structure prediction by ZEFSAII (Michael W. Deem and Ramdas Pophale) SiO2 
 PCOD9410520
Probable space group: P N N A
;
_chemical_formula_sum "Si O2"
_cell_formula_units_Z 56
_cell_length_a 15.468657
_cell_length_b 8.733153
_cell_length_c 20.705853
_cell_angle_alpha 90.000000
_cell_angle_beta 90.000000
_cell_angle_gamma 90.000000
_cell_volume 2797.156752
_symmetry_space_group_name_H-M "P N N A"
_symmetry_group_IT_number 52
_symmetry_cell_setting 'orthorhombic'
loop_
_space_group_symop_operation_xyz
x,y,z
1/2-x,-y,z
x,1/2-y,1/2-z
1/2-x,1/2+y,1/2-z
-x,-y,-z
1/2+x,y,-z
-x,1/2+y,1/2+z
1/2+x,1/2-y,1/2+z
loop_
_atom_site_type_symbol
_atom_site_label
_atom_site_fract_x
_atom_site_fract_y
_atom_site_fract_z
Si Si1 0.908400 0.088306 0.996510
Si Si2 0.827179 0.610261 0.904626
Si Si3 0.837284 0.557160 0.374945
Si Si4 0.156228 0.447549 0.361540
Si Si5 0.322724 0.622828 0.947364
Si Si6 0.007280 0.856665 0.188091
Si Si7 0.476234 0.374823 0.068243
O O1 0.860185 0.048182 0.062763
O O2 0.931629 0.266402 0.986042
O O3 0.860276 0.019658 0.933547
O O4 0.000000 0.000000 0.000000
O O5 0.750000 0.500000 0.880364
O O6 0.843925 0.764796 0.866147
O O7 0.913789 0.511399 0.911878
O O8 0.801403 0.659608 0.977797
O O9 0.750000 0.500000 0.343438
O O10 0.821254 0.725740 0.404212
O O11 0.916451 0.562172 0.325892
O O12 0.250000 0.500000 0.339525
O O13 0.083004 0.519299 0.316322
O O14 0.250000 0.500000 0.926920
O O15 0.425044 0.577057 0.946632
O O16 0.007944 0.750000 0.250000
O O17 0.019279 0.743144 0.127584
#
# Coordination Sequence:
#
# PCOD9410520 Si02
#       7
#     8   8   8   8   8   8   8
#     4  11  17  34  59  92 132 164 203 255 325 403
#     4  11  21  32  53  92 131 162 194 244 325 401
#     4  11  22  36  63  94 121 165 217 262 323 395
#     4  11  21  37  63  93 126 167 210 262 329 391
#     4  10  21  32  49  86 131 163 189 241 318 391
#     4  10  23  45  64  83 118 168 229 280 316 364
#     4  10  21  36  57  84 123 167 205 262 318 385
#
# _framework density 20.020327999999999
#
# number of rings (size 3 to 8) (size 9 to 14) (size 15 to 20)
#    0.000    1.429    5.714    2.571    4.000    1.143 
#    0.000    5.714    0.000    0.000    0.000    0.000 
#    0.000    0.000    0.000    0.000    0.000    0.000 
#
# Total GULP energy -312861.681387 kJ/mol
# GULP energy per Si atom -5586.815739 kJ/mol
# Density = 1.997476 g / cm^3
# Si number density = 20.020328 Si / 1000 Ang^3
#
#
#
# Elastic Constant Matrix: (Units=GPa)
#
#
# Indices 1 2 3 4 5 6 
#
# 1 183.2207 89.3953 30.3720 0.0000 0.0000 0.0000
# 2 89.3953 138.1368 25.9688 0.0000 0.0000 0.0000
# 3 30.3720 25.9688 37.1950 0.0000 0.0000 0.0000
# 4 0.0000 0.0000 0.0000 29.4778 0.0000 0.0000
# 5 0.0000 0.0000 0.0000 0.0000 145.1243 0.0000
# 6 0.0000 0.0000 0.0000 0.0000 0.0000 40.0258
#
#
#
# Elastic Compliance Matrix: (Units=1/GPa)
#
#
# Indices 1 2 3 4 5 6 
#
# 1 0.008356 -0.004748 -0.003508 0.000000 0.000000 0.000000
# 2 -0.004748 0.011031 -0.003824 0.000000 0.000000 0.000000
# 3 -0.003508 -0.003824 0.032420 0.000000 0.000000 0.000000
# 4 0.000000 0.000000 0.000000 0.033924 0.000000 0.000000
# 5 0.000000 0.000000 0.000000 0.000000 0.006891 0.000000
# 6 0.000000 0.000000 0.000000 0.000000 0.000000 0.024984
#
#
# Mechanical properties :
#
#
# Convention : Reuss Voigt Hill
#
# Bulk Modulus (GPa) = 36.17214 72.22498 54.19856
# Shear Modulus (GPa) = 33.11647 57.11334 45.11490
#
# Velocity S-wave (km/s) = 4.07153 5.34693 4.75221
# Velocity P-wave (km/s) = 6.34114 8.61821 7.56583
#
# Compressibility (1/GPa) = 0.02764558
#
# Stress axis : x y z
#
# Youngs Moduli (GPa) = 119.67287 90.65421 30.84505
#
# Poissons Ratio (x) = 0.43044 0.10821
# Poissons Ratio (y) = 0.56822 0.11796
# Poissons Ratio (z) = 0.41984 0.34670
#
# Static dielectric constant tensor:
#      x y z
#    x 1.737130 0.000000 0.000000 
#    y 0.000000 1.730740 0.000000 
#    z 0.000000 0.000000 1.718110 
# 
# From -- ./inp_files/37342.got.cif
#   From: 2010.05.17/outbox.cif.g08.bks.cpg/sg52_19_cif.got.tgz:37342.got - 2010.06.03 12:15:38.
