data_PCOD9410543
_publ_section_title
;
Structure prediction by ZEFSAII (Michael W. Deem and Ramdas Pophale) SiO2 
 PCOD9410543
Probable space group: P N N A
;
_chemical_formula_sum "Si O2"
_cell_formula_units_Z 56
_cell_length_a 24.338192
_cell_length_b 5.403403
_cell_length_c 20.506204
_cell_angle_alpha 90.000000
_cell_angle_beta 90.000000
_cell_angle_gamma 90.000000
_cell_volume 2696.751605
_symmetry_space_group_name_H-M "P N N A"
_symmetry_group_IT_number 52
_symmetry_cell_setting 'orthorhombic'
loop_
_space_group_symop_operation_xyz
x,y,z
1/2-x,-y,z
x,1/2-y,1/2-z
1/2-x,1/2+y,1/2-z
-x,-y,-z
1/2+x,y,-z
-x,1/2+y,1/2+z
1/2+x,1/2-y,1/2+z
loop_
_atom_site_type_symbol
_atom_site_label
_atom_site_fract_x
_atom_site_fract_y
_atom_site_fract_z
Si Si1 0.455496 0.249061 0.321489
Si Si2 0.020567 0.597906 0.898548
Si Si3 0.812350 0.101755 0.181851
Si Si4 0.929556 0.055740 0.190374
Si Si5 0.214742 0.749452 0.960923
Si Si6 0.113901 0.776830 0.048321
Si Si7 0.561356 0.238067 0.499135
O O1 0.429214 0.250000 0.250000
O O2 0.476650 0.977919 0.343867
O O3 0.513213 0.402710 0.311920
O O4 0.412814 0.322330 0.379404
O O5 0.067823 0.760407 0.870373
O O6 0.991874 0.752926 0.955209
O O7 0.041579 0.340292 0.928165
O O8 0.815732 0.250000 0.250000
O O9 0.868676 0.934635 0.186179
O O10 0.813760 0.238500 0.111161
O O11 0.750000 0.000000 0.183048
O O12 0.931941 0.250000 0.250000
O O13 0.250000 0.500000 0.961317
O O14 0.250000 0.000000 0.964039
O O15 0.176576 0.750273 0.025438
O O16 0.089556 0.513474 0.025271
O O17 0.095591 0.018429 0.007965
#
# Coordination Sequence:
#
# PCOD9410543 Si02
#       7
#     8   8   8   8   8   8   8
#     4  11  23  38  60  93 130 166 211 261 327 393
#     4  10  21  34  55  85 126 166 201 260 308 390
#     4  10  23  41  62  89 122 170 219 272 315 378
#     4  11  21  38  58  88 127 167 217 262 323 381
#     4  11  24  44  68  94 125 166 220 274 327 383
#     4  11  23  42  65  93 129 172 212 269 327 396
#     4  10  22  35  59  90 126 167 209 251 319 385
#
# _framework density 20.765722
#
# number of rings (size 3 to 8) (size 9 to 14) (size 15 to 20)
#    0.000    1.429    2.857    2.143    4.000    2.286 
#    2.571    0.000    0.000    0.857    0.000    0.000 
#    0.000    0.000    0.000    0.000    0.000    0.000 
#
# Total GULP energy -311898.172869 kJ/mol
# GULP energy per Si atom -5569.610230 kJ/mol
# Density = 2.071846 g / cm^3
# Si number density = 20.765722 Si / 1000 Ang^3
#
#
#
# Elastic Constant Matrix: (Units=GPa)
#
#
# Indices 1 2 3 4 5 6 
#
# 1 107.7978 31.4990 48.1436 0.0000 0.0000 0.0000
# 2 31.4990 83.3666 28.1031 0.0000 0.0000 0.0000
# 3 48.1436 28.1031 123.9798 0.0000 0.0000 0.0000
# 4 0.0000 0.0000 0.0000 20.4506 0.0000 0.0000
# 5 0.0000 0.0000 0.0000 0.0000 5.3147 0.0000
# 6 0.0000 0.0000 0.0000 0.0000 0.0000 -4.4372
#
#
#
# Elastic Compliance Matrix: (Units=1/GPa)
#
#
# Indices 1 2 3 4 5 6 
#
# 1 0.011962 -0.003198 -0.003920 0.000000 0.000000 0.000000
# 2 -0.003198 0.013843 -0.001896 0.000000 0.000000 0.000000
# 3 -0.003920 -0.001896 0.010018 0.000000 0.000000 0.000000
# 4 0.000000 0.000000 0.000000 0.048898 0.000000 0.000000
# 5 0.000000 0.000000 0.000000 0.000000 0.188157 0.000000
# 6 0.000000 0.000000 0.000000 0.000000 0.000000 -0.225369
#
#
# Mechanical properties :
#
#
# Convention : Reuss Voigt Hill
#
# Bulk Modulus (GPa) = 56.19827 58.95952 57.57889
# Shear Modulus (GPa) = 69.96130 18.09221 44.02675
#
# Velocity S-wave (km/s) = 5.81067 2.95490 4.60952
# Velocity P-wave (km/s) = 8.49354 6.33216 7.49121
#
# Compressibility (1/GPa) = 0.01779414
#
# Stress axis : x y z
#
# Youngs Moduli (GPa) = 83.59874 72.24022 99.82225
#
# Poissons Ratio (x) = 0.23104 0.39131
# Poissons Ratio (y) = 0.26736 0.18925
# Poissons Ratio (z) = 0.32771 0.13696
#
# Static dielectric constant tensor:
#      x y z
#    x 1.818590 0.000000 0.000000 
#    y 0.000000 1.786730 0.000000 
#    z 0.000000 0.000000 1.918330 
# 
# From -- ./inp_files/38142.got.cif
#   From: 2010.05.17/outbox.cif.g08.bks.cpg/sg52_20_cif.got.tgz:38142.got - 2010.06.03 12:15:38.
