data_PCOD9410234
_publ_section_title
;
Structure prediction by ZEFSAII (Michael W. Deem and Ramdas Pophale) SiO2 
 PCOD9410234
Probable space group: P N N A
;
_chemical_formula_sum "Si O2"
_cell_formula_units_Z 40
_cell_length_a 17.248208
_cell_length_b 7.914048
_cell_length_c 13.350814
_cell_angle_alpha 90.000000
_cell_angle_beta 90.000000
_cell_angle_gamma 90.000000
_cell_volume 1822.428113
_symmetry_space_group_name_H-M "P N N A"
_symmetry_group_IT_number 52
_symmetry_cell_setting 'orthorhombic'
loop_
_space_group_symop_operation_xyz
x,y,z
1/2-x,-y,z
x,1/2-y,1/2-z
1/2-x,1/2+y,1/2-z
-x,-y,-z
1/2+x,y,-z
-x,1/2+y,1/2+z
1/2+x,1/2-y,1/2+z
loop_
_atom_site_type_symbol
_atom_site_label
_atom_site_fract_x
_atom_site_fract_y
_atom_site_fract_z
Si Si1 0.954240 0.436538 0.629204
Si Si2 0.431019 0.248016 0.870074
Si Si3 0.196731 0.641490 0.485046
Si Si4 0.542046 0.549887 0.870300
Si Si5 0.692604 0.138387 0.657801
O O1 0.868423 0.452291 0.583189
O O2 0.950740 0.441795 0.749304
O O3 0.974337 0.242755 0.599621
O O4 0.014851 0.584717 0.603165
O O5 0.420366 0.250000 0.750000
O O6 0.474914 0.420336 0.896905
O O7 0.351642 0.236116 0.930297
O O8 0.250000 0.500000 0.533776
O O9 0.251960 0.756627 0.416371
O O10 0.623438 0.460291 0.897849
O O11 0.661130 0.250000 0.750000
O O12 0.750000 0.000000 0.705298
#
# Coordination Sequence:
#
# PCOD9410234 Si02
#       5
#     8   8   8   8   8
#     4  10  20  39  66  97 123 164 206 265 327 384
#     4  10  23  44  66  89 124 172 224 267 307 370
#     4  12  24  40  63  94 129 170 213 263 324 383
#     4  10  20  39  66  95 129 160 209 262 328 386
#     4  12  22  37  62  98 136 163 196 259 335 401
#
# _framework density 21.948737999999999
#
# number of rings (size 3 to 8) (size 9 to 14) (size 15 to 20)
#    0.000    1.200    2.000    6.600    0.000    0.800 
#    3.600    1.000    4.400    0.000    0.000    0.000 
#    0.000    0.000    0.000    0.000    0.000    0.000 
#
# Total GULP energy -223712.858751 kJ/mol
# GULP energy per Si atom -5592.821469 kJ/mol
# Density = 2.189878 g / cm^3
# Si number density = 21.948738 Si / 1000 Ang^3
#
#
#
# Elastic Constant Matrix: (Units=GPa)
#
#
# Indices 1 2 3 4 5 6 
#
# 1 110.1318 91.8704 48.0871 0.0000 0.0000 0.0000
# 2 91.8704 162.6026 51.6085 0.0000 0.0000 0.0000
# 3 48.0871 51.6085 92.3689 0.0000 0.0000 0.0000
# 4 0.0000 0.0000 0.0000 37.5331 0.0000 0.0000
# 5 0.0000 0.0000 0.0000 0.0000 37.5309 0.0000
# 6 0.0000 0.0000 0.0000 0.0000 0.0000 38.6419
#
#
#
# Elastic Compliance Matrix: (Units=1/GPa)
#
#
# Indices 1 2 3 4 5 6 
#
# 1 0.018688 -0.009081 -0.004655 0.000000 0.000000 0.000000
# 2 -0.009081 0.011889 -0.001915 0.000000 0.000000 0.000000
# 3 -0.004655 -0.001915 0.014319 0.000000 0.000000 0.000000
# 4 0.000000 0.000000 0.000000 0.026643 0.000000 0.000000
# 5 0.000000 0.000000 0.000000 0.000000 0.026645 0.000000
# 6 0.000000 0.000000 0.000000 0.000000 0.000000 0.025879
#
#
# Mechanical properties :
#
#
# Convention : Reuss Voigt Hill
#
# Bulk Modulus (GPa) = 73.56237 83.13723 78.34980
# Shear Modulus (GPa) = 31.27033 34.31031 32.79032
#
# Velocity S-wave (km/s) = 3.77861 3.95802 3.86936
# Velocity P-wave (km/s) = 7.25434 7.67125 7.46571
#
# Compressibility (1/GPa) = 0.01359391
#
# Stress axis : x y z
#
# Youngs Moduli (GPa) = 53.51013 84.11425 69.83547
#
# Poissons Ratio (x) = 0.76386 0.32509
# Poissons Ratio (y) = 0.48594 0.13372
# Poissons Ratio (z) = 0.24909 0.16106
#
# Static dielectric constant tensor:
#      x y z
#    x 1.779160 0.000000 0.000000 
#    y 0.000000 1.848920 0.000000 
#    z 0.000000 0.000000 1.839940 
# 
# From -- ./inp_files/26864.got.cif
#   From: 2010.05.17/outbox.cif.g08.bks.cpg/sg52_14_cif.got.tgz:26864.got - 2010.06.03 12:15:38.
