data_PCOD9410585
_publ_section_title
;
Structure prediction by ZEFSAII (Michael W. Deem and Ramdas Pophale) SiO2 
 PCOD9410585
Probable space group: P N N A
;
_chemical_formula_sum "Si O2"
_cell_formula_units_Z 64
_cell_length_a 27.825462
_cell_length_b 20.144937
_cell_length_c 5.735581
_cell_angle_alpha 90.000000
_cell_angle_beta 90.000000
_cell_angle_gamma 90.000000
_cell_volume 3215.035071
_symmetry_space_group_name_H-M "P N N A"
_symmetry_group_IT_number 52
_symmetry_cell_setting 'orthorhombic'
loop_
_space_group_symop_operation_xyz
x,y,z
1/2-x,-y,z
x,1/2-y,1/2-z
1/2-x,1/2+y,1/2-z
-x,-y,-z
1/2+x,y,-z
-x,1/2+y,1/2+z
1/2+x,1/2-y,1/2+z
loop_
_atom_site_type_symbol
_atom_site_label
_atom_site_fract_x
_atom_site_fract_y
_atom_site_fract_z
Si Si1 0.797207 0.037425 0.819985
Si Si2 0.400208 0.287155 0.998891
Si Si3 0.807094 0.785947 0.491521
Si Si4 0.148591 0.071076 0.486307
Si Si5 0.956497 0.087730 0.440968
Si Si6 0.048470 0.035657 0.243172
Si Si7 0.794816 0.181961 0.597966
Si Si8 0.115416 0.988764 0.866326
O O1 0.786054 0.111370 0.726874
O O2 0.750000 0.000000 0.923497
O O3 0.816336 0.983522 0.630575
O O4 0.844995 0.046587 0.976192
O O5 0.400187 0.250000 0.250000
O O6 0.347162 0.320316 0.983089
O O7 0.406549 0.250000 0.750000
O O8 0.443028 0.339775 0.019960
O O9 0.823964 0.750000 0.250000
O O10 0.834678 0.854445 0.533405
O O11 0.751743 0.806458 0.440541
O O12 0.808923 0.750000 0.750000
O O13 0.095209 0.062274 0.380513
O O14 0.144173 0.048896 0.751963
O O15 0.002802 0.082174 0.275839
O O16 0.965160 0.036042 0.649478
O O17 0.908521 0.060905 0.314764
O O18 0.069548 0.020753 0.992073
O O19 0.796110 0.250000 0.750000
#
# Coordination Sequence:
#
# PCOD9410585 Si02
#       8
#     8   8   8   8   8   8   8   8
#     4  11  22  40  61  95 136 170 225 277 337 394
#     4  11  25  42  63  94 133 176 217 270 330 404
#     4  11  25  43  67  94 130 178 227 272 331 402
#     4  10  22  41  60  95 129 170 223 277 334 391
#     4  10  21  40  63  96 124 167 219 271 334 398
#     4   9  20  39  67  91 126 163 217 278 333 393
#     4  10  22  41  64  93 132 179 222 267 334 409
#     4  10  21  35  66  96 124 169 217 279 335 392
#
# _framework density 19.906471
#
# number of rings (size 3 to 8) (size 9 to 14) (size 15 to 20)
#    0.000    1.750    1.250    3.000    8.750    0.500 
#    6.750    1.250    0.000    0.000    0.000    0.000 
#    0.000    0.000    0.000    0.000    0.000    0.000 
#
# Total GULP energy -356443.848259 kJ/mol
# GULP energy per Si atom -5569.435129 kJ/mol
# Density = 1.986116 g / cm^3
# Si number density = 19.906471 Si / 1000 Ang^3
#
#
#
# Elastic Constant Matrix: (Units=GPa)
#
#
# Indices 1 2 3 4 5 6 
#
# 1 76.9237 33.0961 6.7082 0.0000 0.0000 0.0000
# 2 33.0961 106.2827 29.0255 0.0000 0.0000 0.0000
# 3 6.7082 29.0255 68.1742 0.0000 0.0000 0.0000
# 4 0.0000 0.0000 0.0000 13.1795 0.0000 0.0000
# 5 0.0000 0.0000 0.0000 0.0000 -2.1926 0.0000
# 6 0.0000 0.0000 0.0000 0.0000 0.0000 30.7036
#
#
#
# Elastic Compliance Matrix: (Units=1/GPa)
#
#
# Indices 1 2 3 4 5 6 
#
# 1 0.015031 -0.004840 0.000581 0.000000 0.000000 0.000000
# 2 -0.004840 0.012205 -0.004720 0.000000 0.000000 0.000000
# 3 0.000581 -0.004720 0.016621 0.000000 0.000000 0.000000
# 4 0.000000 0.000000 0.000000 0.075875 0.000000 0.000000
# 5 0.000000 0.000000 0.000000 0.000000 -0.456077 0.000000
# 6 0.000000 0.000000 0.000000 0.000000 0.000000 0.032569
#
#
# Mechanical properties :
#
#
# Convention : Reuss Voigt Hill
#
# Bulk Modulus (GPa) = 38.60922 43.22670 40.91796
# Shear Modulus (GPa) = -18.03848 20.50816 1.23484
#
# Velocity S-wave (km/s) = -3.01352 3.21320 0.78846
# Velocity P-wave (km/s) = 2.70722 5.96055 4.62911
#
# Compressibility (1/GPa) = 0.02590055
#
# Stress axis : x y z
#
# Youngs Moduli (GPa) = 66.52752 81.93418 60.16592
#
# Poissons Ratio (x) = 0.39652 -0.03498
# Poissons Ratio (y) = 0.32196 0.28399
# Poissons Ratio (z) = -0.03868 0.38674
#
# Static dielectric constant tensor:
#      x y z
#    x 1.717000 0.000000 0.000000 
#    y 0.000000 1.735460 0.000000 
#    z 0.000000 0.000000 1.862200 
# 
# From -- ./inp_files/6011.got.cif
#   From: 2010.05.17/outbox.cif.g08.bks.cpg/sg52_4_cif.got.tgz:6011.got - 2010.06.03 12:15:38.
