data_PCOD9410717
_publ_section_title
;
Structure prediction by ZEFSAII (Michael W. Deem and Ramdas Pophale) SiO2 
 PCOD9410717
Probable space group: P N N A
;
_chemical_formula_sum "Si O2"
_cell_formula_units_Z 40
_cell_length_a 10.406034
_cell_length_b 7.099903
_cell_length_c 21.736127
_cell_angle_alpha 90.000000
_cell_angle_beta 90.000000
_cell_angle_gamma 90.000000
_cell_volume 1605.904884
_symmetry_space_group_name_H-M "P N N A"
_symmetry_group_IT_number 52
_symmetry_cell_setting 'orthorhombic'
loop_
_space_group_symop_operation_xyz
x,y,z
1/2-x,-y,z
x,1/2-y,1/2-z
1/2-x,1/2+y,1/2-z
-x,-y,-z
1/2+x,y,-z
-x,1/2+y,1/2+z
1/2+x,1/2-y,1/2+z
loop_
_atom_site_type_symbol
_atom_site_label
_atom_site_fract_x
_atom_site_fract_y
_atom_site_fract_z
Si Si1 0.780163 0.778427 0.819144
Si Si2 0.967644 0.280929 0.626046
Si Si3 0.280163 0.778427 0.819144
Si Si4 0.032356 0.719071 0.626046
Si Si5 0.375868 0.368333 0.000000
O O1 0.827973 0.750000 0.750000
O O2 0.636733 0.697506 0.826810
O O3 0.888424 0.701096 0.865752
O O4 0.750000 0.000000 0.829589
O O5 0.896649 0.256040 0.560985
O O6 0.111576 0.201097 0.634248
O O7 0.000000 0.500001 0.637060
O O8 0.327974 0.750000 0.750000
O O9 0.136734 0.697506 0.826810
O O10 0.250000 0.000000 0.829589
O O11 0.103351 0.743961 0.560985
O O12 0.250000 0.500000 0.000000
O O13 0.500000 0.500000 0.000000
#
# Coordination Sequence:
#
# PCOD9410717 Si02
#       5
#     8   8   8   8   8
#     4  10  21  37  60  88 118 157 201 246 300 362
#     4  10  22  41  61  84 120 164 202 240 303 378
#     4  10  21  37  60  88 118 157 201 246 300 362
#     4  10  22  41  61  84 120 164 202 240 303 378
#     4  12  25  40  61  92 120 152 202 260 307 348
#
# _framework density 24.908073999999999
#
# number of rings (size 3 to 8) (size 9 to 14) (size 15 to 20)
#    0.000    1.600    0.000    4.200    0.000    4.800 
#    0.000    8.000    0.000    0.000    0.000    0.000 
#    0.000    0.000    0.000    0.000    0.000    0.000 
#
# Total GULP energy -223238.258058 kJ/mol
# GULP energy per Si atom -5580.956451 kJ/mol
# Density = 2.485138 g / cm^3
# Si number density = 24.908074 Si / 1000 Ang^3
#
#
#
# Elastic Constant Matrix: (Units=GPa)
#
#
# Indices 1 2 3 4 5 6 
#
# 1 240.9189 22.1571 50.8948 0.0000 0.0000 0.0000
# 2 22.1571 59.6097 -37.4702 0.0000 0.0000 0.0000
# 3 50.8948 -37.4702 100.1165 0.0000 0.0000 0.0000
# 4 0.0000 0.0000 0.0000 27.5050 0.0000 0.0000
# 5 0.0000 0.0000 0.0000 0.0000 40.3047 0.0000
# 6 0.0000 0.0000 0.0000 0.0000 0.0000 6.1283
#
#
#
# Elastic Compliance Matrix: (Units=1/GPa)
#
#
# Indices 1 2 3 4 5 6 
#
# 1 0.005624 -0.005084 -0.004762 0.000000 0.000000 0.000000
# 2 -0.005084 0.026532 0.012514 0.000000 0.000000 0.000000
# 3 -0.004762 0.012514 0.017093 0.000000 0.000000 0.000000
# 4 0.000000 0.000000 0.000000 0.036357 0.000000 0.000000
# 5 0.000000 0.000000 0.000000 0.000000 0.024811 0.000000
# 6 0.000000 0.000000 0.000000 0.000000 0.000000 0.163178
#
#
# Mechanical properties :
#
#
# Convention : Reuss Voigt Hill
#
# Bulk Modulus (GPa) = 18.31961 52.42319 35.37140
# Shear Modulus (GPa) = 17.45485 39.12515 28.29000
#
# Velocity S-wave (km/s) = 2.65008 3.96761 3.37378
# Velocity P-wave (km/s) = 4.09081 6.48703 5.42293
#
# Compressibility (1/GPa) = 0.05458630
#
# Stress axis : x y z
#
# Youngs Moduli (GPa) = 177.80065 37.69055 58.50432
#
# Poissons Ratio (x) = 0.19161 0.27859
# Poissons Ratio (y) = 0.90390 -0.73214
# Poissons Ratio (z) = 0.84666 -0.47167
#
# Static dielectric constant tensor:
#      x y z
#    x 2.030640 0.000000 0.000000 
#    y 0.000000 2.062980 0.000000 
#    z 0.000000 0.000000 2.237770 
# 
# From -- ./inp_files/39223.got.cif
#   From: 2010.05.17/outbox.cif.g08.bks.cpg/sg52_20_cif.got.tgz:39223.got - 2010.06.03 12:15:38.
