data_PCOD9410580
_publ_section_title
;
Structure prediction by ZEFSAII (Michael W. Deem and Ramdas Pophale) SiO2 
 PCOD9410580
Probable space group: P N N A
;
_chemical_formula_sum "Si O2"
_cell_formula_units_Z 56
_cell_length_a 20.877339
_cell_length_b 14.363105
_cell_length_c 9.789454
_cell_angle_alpha 90.000000
_cell_angle_beta 90.000000
_cell_angle_gamma 90.000000
_cell_volume 2935.499080
_symmetry_space_group_name_H-M "P N N A"
_symmetry_group_IT_number 52
_symmetry_cell_setting 'orthorhombic'
loop_
_space_group_symop_operation_xyz
x,y,z
1/2-x,-y,z
x,1/2-y,1/2-z
1/2-x,1/2+y,1/2-z
-x,-y,-z
1/2+x,y,-z
-x,1/2+y,1/2+z
1/2+x,1/2-y,1/2+z
loop_
_atom_site_type_symbol
_atom_site_label
_atom_site_fract_x
_atom_site_fract_y
_atom_site_fract_z
Si Si1 0.824863 0.500546 0.747647
Si Si2 0.670320 0.699218 0.881956
Si Si3 0.808140 0.831856 0.550078
Si Si4 0.375865 0.693206 0.620898
Si Si5 0.877654 0.311135 0.358394
Si Si6 0.746694 0.391314 0.242450
Si Si7 0.576239 0.499271 0.492071
O O1 0.750000 0.500000 0.695892
O O2 0.833101 0.410508 0.846928
O O3 0.829827 0.591991 0.841163
O O4 0.877631 0.499339 0.627258
O O5 0.642634 0.750000 0.750000
O O6 0.745977 0.722000 0.894768
O O7 0.638571 0.743501 0.015005
O O8 0.864540 0.763602 0.503695
O O9 0.779265 0.880109 0.412282
O O10 0.403689 0.750000 0.750000
O O11 0.304635 0.661804 0.665517
O O12 0.408886 0.597429 0.584199
O O13 0.917127 0.250000 0.250000
O O14 0.814407 0.345282 0.275827
O O15 0.906545 0.406582 0.412101
O O16 0.750000 0.500000 0.276267
O O17 0.500000 0.500000 0.500000
#
# Coordination Sequence:
#
# PCOD9410580 Si02
#       7
#     8   8   8   8   8   8   8
#     4  10  24  40  68  99 135 174 219 280 347 405
#     4  11  20  35  61 103 136 168 212 272 342 399
#     4  10  21  35  60 105 134 164 212 275 338 400
#     4  10  22  39  64  92 129 169 218 275 333 389
#     4  12  23  40  68  97 134 179 222 276 342 406
#     4  11  18  33  65  97 135 167 211 275 331 392
#     4  12  28  48  64  93 134 180 234 279 332 399
#
# _framework density 19.076824999999999
#
# number of rings (size 3 to 8) (size 9 to 14) (size 15 to 20)
#    0.000    1.143    5.714    1.714    6.000    0.000 
#    5.143    0.000    0.000    4.286    0.000    0.000 
#    0.000    0.000    0.000    0.000    0.000    0.000 
#
# Total GULP energy -312384.674431 kJ/mol
# GULP energy per Si atom -5578.297758 kJ/mol
# Density = 1.903340 g / cm^3
# Si number density = 19.076825 Si / 1000 Ang^3
#
#
#
# Elastic Constant Matrix: (Units=GPa)
#
#
# Indices 1 2 3 4 5 6 
#
# 1 85.3068 52.6604 42.8361 0.0000 0.0000 0.0000
# 2 52.6604 146.6564 72.9285 0.0000 0.0000 0.0000
# 3 42.8361 72.9285 114.2601 0.0000 0.0000 0.0000
# 4 0.0000 0.0000 0.0000 45.9279 0.0000 0.0000
# 5 0.0000 0.0000 0.0000 0.0000 -4.9848 0.0000
# 6 0.0000 0.0000 0.0000 0.0000 0.0000 -17.7685
#
#
#
# Elastic Compliance Matrix: (Units=1/GPa)
#
#
# Indices 1 2 3 4 5 6 
#
# 1 0.015912 -0.004025 -0.003397 0.000000 0.000000 0.000000
# 2 -0.004025 0.011007 -0.005517 0.000000 0.000000 0.000000
# 3 -0.003397 -0.005517 0.013547 0.000000 0.000000 0.000000
# 4 0.000000 0.000000 0.000000 0.021773 0.000000 0.000000
# 5 0.000000 0.000000 0.000000 0.000000 -0.200608 0.000000
# 6 0.000000 0.000000 0.000000 0.000000 0.000000 -0.056279
#
#
# Mechanical properties :
#
#
# Convention : Reuss Voigt Hill
#
# Bulk Modulus (GPa) = 68.54024 75.89703 72.21864
# Shear Modulus (GPa) = -30.50473 16.48814 -7.00830
#
# Velocity S-wave (km/s) = -4.00315 2.94309 -1.91877
# Velocity P-wave (km/s) = 3.82618 7.17080 5.74717
#
# Compressibility (1/GPa) = 0.01458997
#
# Stress axis : x y z
#
# Youngs Moduli (GPa) = 62.84372 90.85074 73.81970
#
# Poissons Ratio (x) = 0.36564 0.25075
# Poissons Ratio (y) = 0.25292 0.40724
# Poissons Ratio (z) = 0.21347 0.50119
#
# Static dielectric constant tensor:
#      x y z
#    x 1.636410 0.000000 0.000000 
#    y 0.000000 1.747060 0.000000 
#    z 0.000000 0.000000 1.734240 
# 
# From -- ./inp_files/13462.got.cif
#   From: 2010.05.17/outbox.cif.g08.bks.cpg/sg52_7_cif.got.tgz:13462.got - 2010.06.03 12:15:38.
