data_PCOD9410105
_publ_section_title
;
Structure prediction by ZEFSAII (Michael W. Deem and Ramdas Pophale) SiO2 
 PCOD9410105
Probable space group: P N N A
;
_chemical_formula_sum "Si O2"
_cell_formula_units_Z 40
_cell_length_a 12.354641
_cell_length_b 17.236348
_cell_length_c 7.362101
_cell_angle_alpha 90.000000
_cell_angle_beta 90.000000
_cell_angle_gamma 90.000000
_cell_volume 1567.751248
_symmetry_space_group_name_H-M "P N N A"
_symmetry_group_IT_number 52
_symmetry_cell_setting 'orthorhombic'
loop_
_space_group_symop_operation_xyz
x,y,z
1/2-x,-y,z
x,1/2-y,1/2-z
1/2-x,1/2+y,1/2-z
-x,-y,-z
1/2+x,y,-z
-x,1/2+y,1/2+z
1/2+x,1/2-y,1/2+z
loop_
_atom_site_type_symbol
_atom_site_label
_atom_site_fract_x
_atom_site_fract_y
_atom_site_fract_z
Si Si1 0.440900 0.428555 0.731598
Si Si2 0.611659 0.644219 0.893488
Si Si3 0.018069 0.287137 0.442757
Si Si4 0.818036 0.579079 0.887847
Si Si5 0.905816 0.903593 0.206243
O O1 0.387929 0.409197 0.924797
O O2 0.430824 0.352589 0.612008
O O3 0.393988 0.506966 0.646372
O O4 0.569505 0.429615 0.780347
O O5 0.547129 0.721559 0.948446
O O6 0.734257 0.646018 0.828251
O O7 0.532566 0.602667 0.754788
O O8 0.054189 0.250000 0.250000
O O9 0.106848 0.332635 0.565865
O O10 0.750000 0.500000 0.866625
O O11 0.849176 0.599786 0.097151
#
# Coordination Sequence:
#
# PCOD9410105 Si02
#       5
#     8   8   8   8   8
#     4  10  20  38  64  93 132 169 217 279 331 404
#     4  10  20  40  63  94 130 168 218 275 342 409
#     4  10  23  41  57  88 138 177 219 268 327 387
#     4  11  19  38  71  99 123 160 224 283 350 400
#     4  11  20  38  69  92 126 177 220 270 336 404
#
# _framework density 25.514254000000001
#
# number of rings (size 3 to 8) (size 9 to 14) (size 15 to 20)
#    0.000    1.600    4.000    2.400    0.000    0.000 
#    0.000   33.000    0.000    0.000    0.000    0.000 
#    0.000    0.000    0.000    0.000    0.000    0.000 
#
# Total GULP energy -223392.198181 kJ/mol
# GULP energy per Si atom -5584.804955 kJ/mol
# Density = 2.545618 g / cm^3
# Si number density = 25.514254 Si / 1000 Ang^3
#
#
#
# Elastic Constant Matrix: (Units=GPa)
#
#
# Indices 1 2 3 4 5 6 
#
# 1 102.9288 7.0218 -5.3901 0.0000 0.0000 0.0000
# 2 7.0218 157.5173 14.1305 0.0000 0.0000 0.0000
# 3 -5.3901 14.1305 69.1167 0.0000 0.0000 0.0000
# 4 0.0000 0.0000 0.0000 40.6714 0.0000 0.0000
# 5 0.0000 0.0000 0.0000 0.0000 -5.6936 0.0000
# 6 0.0000 0.0000 0.0000 0.0000 0.0000 20.7168
#
#
#
# Elastic Compliance Matrix: (Units=1/GPa)
#
#
# Indices 1 2 3 4 5 6 
#
# 1 0.009796 -0.000515 0.000869 0.000000 0.000000 0.000000
# 2 -0.000515 0.006494 -0.001368 0.000000 0.000000 0.000000
# 3 0.000869 -0.001368 0.014816 0.000000 0.000000 0.000000
# 4 0.000000 0.000000 0.000000 0.024587 0.000000 0.000000
# 5 0.000000 0.000000 0.000000 0.000000 -0.175635 0.000000
# 6 0.000000 0.000000 0.000000 0.000000 0.000000 0.048270
#
#
# Mechanical properties :
#
#
# Convention : Reuss Voigt Hill
#
# Bulk Modulus (GPa) = 34.38871 40.12081 37.25476
# Shear Modulus (GPa) = -83.40070 32.05895 -25.67087
#
# Velocity S-wave (km/s) = -5.72353 3.54858 -3.17541
# Velocity P-wave (km/s) = 5.49281 5.70516 1.09039
#
# Compressibility (1/GPa) = 0.02907931
#
# Stress axis : x y z
#
# Youngs Moduli (GPa) = 102.08163 153.98457 67.49588
#
# Poissons Ratio (x) = 0.07925 -0.05867
# Poissons Ratio (y) = 0.05254 0.09232
# Poissons Ratio (z) = -0.08873 0.21062
#
# Static dielectric constant tensor:
#      x y z
#    x 1.966290 0.000000 0.000000 
#    y 0.000000 2.115320 0.000000 
#    z 0.000000 0.000000 2.116590 
# 
# From -- ./inp_files/8508.got.cif
#   From: 2010.05.17/outbox.cif.g08.bks.cpg/sg52_5_cif.got.tgz:8508.got - 2010.06.03 12:15:38.
