data_PCOD9410963
_publ_section_title
;
Structure prediction by ZEFSAII (Michael W. Deem and Ramdas Pophale) SiO2 
 PCOD9410963
Probable space group: P N N A
;
_chemical_formula_sum "Si O2"
_cell_formula_units_Z 32
_cell_length_a 9.370133
_cell_length_b 15.212435
_cell_length_c 9.399888
_cell_angle_alpha 90.000000
_cell_angle_beta 90.000000
_cell_angle_gamma 90.000000
_cell_volume 1339.883904
_symmetry_space_group_name_H-M "P N N A"
_symmetry_group_IT_number 52
_symmetry_cell_setting 'orthorhombic'
loop_
_space_group_symop_operation_xyz
x,y,z
1/2-x,-y,z
x,1/2-y,1/2-z
1/2-x,1/2+y,1/2-z
-x,-y,-z
1/2+x,y,-z
-x,1/2+y,1/2+z
1/2+x,1/2-y,1/2+z
loop_
_atom_site_type_symbol
_atom_site_label
_atom_site_fract_x
_atom_site_fract_y
_atom_site_fract_z
Si Si1 0.971677 0.589428 0.592544
Si Si2 0.278075 0.602748 0.648214
Si Si3 0.675893 0.160137 0.657835
Si Si4 0.992489 0.830378 0.366034
O O1 0.869170 0.638974 0.482719
O O2 0.885945 0.583361 0.739128
O O3 0.000000 0.500000 0.500000
O O4 0.118163 0.638995 0.632320
O O5 0.250000 0.500000 0.630212
O O6 0.374581 0.610118 0.786145
O O7 0.671851 0.250000 0.750000
O O8 0.574157 0.173694 0.522832
O O9 0.841952 0.142194 0.622477
O O10 0.994698 0.750000 0.250000
#
# Coordination Sequence:
#
# PCOD9410963 Si02
#       4
#     8   8   8   8
#     4  10  21  39  63  93 130 173 219 271 335 408
#     4  10  21  39  62  93 130 173 219 271 337 410
#     4  11  24  42  67  99 134 176 228 286 349 418
#     4  11  24  42  67  99 136 178 229 292 354 416
#
# _framework density 23.882667000000001
#
# number of rings (size 3 to 8) (size 9 to 14) (size 15 to 20)
#    0.000    1.500    0.000    4.500    0.000   10.000 
#    0.000   15.000    0.000    0.000    0.000    0.000 
#    0.000    0.000    0.000    0.000    0.000    0.000 
#
# Total GULP energy -178377.847597 kJ/mol
# GULP energy per Si atom -5574.307737 kJ/mol
# Density = 2.382831 g / cm^3
# Si number density = 23.882667 Si / 1000 Ang^3
#
#
#
# Elastic Constant Matrix: (Units=GPa)
#
#
# Indices 1 2 3 4 5 6 
#
# 1 271.3694 26.8869 118.5150 0.0000 0.0000 0.0000
# 2 26.8869 40.9920 33.7984 0.0000 0.0000 0.0000
# 3 118.5150 33.7984 206.8012 0.0000 0.0000 0.0000
# 4 0.0000 0.0000 0.0000 29.3297 0.0000 0.0000
# 5 0.0000 0.0000 0.0000 0.0000 57.8294 0.0000
# 6 0.0000 0.0000 0.0000 0.0000 0.0000 0.4182
#
#
#
# Elastic Compliance Matrix: (Units=1/GPa)
#
#
# Indices 1 2 3 4 5 6 
#
# 1 0.004954 -0.001050 -0.002667 0.000000 0.000000 0.000000
# 2 -0.001050 0.028417 -0.004043 0.000000 0.000000 0.000000
# 3 -0.002667 -0.004043 0.007025 0.000000 0.000000 0.000000
# 4 0.000000 0.000000 0.000000 0.034095 0.000000 0.000000
# 5 0.000000 0.000000 0.000000 0.000000 0.017292 0.000000
# 6 0.000000 0.000000 0.000000 0.000000 0.000000 2.391345
#
#
# Mechanical properties :
#
#
# Convention : Reuss Voigt Hill
#
# Bulk Modulus (GPa) = 40.19974 97.50701 68.85338
# Shear Modulus (GPa) = 1.99446 40.17962 21.08704
#
# Velocity S-wave (km/s) = 0.91483 4.10613 2.97466
# Velocity P-wave (km/s) = 4.24083 7.96219 6.37892
#
# Compressibility (1/GPa) = 0.02487578
#
# Stress axis : x y z
#
# Youngs Moduli (GPa) = 201.85671 35.19038 142.34985
#
# Poissons Ratio (x) = 0.03695 0.37971
# Poissons Ratio (y) = 0.21195 0.57546
# Poissons Ratio (z) = 0.53845 0.14226
#
# Static dielectric constant tensor:
#      x y z
#    x 2.270910 0.000000 0.000000 
#    y 0.000000 2.100940 0.000000 
#    z 0.000000 0.000000 2.008610 
# 
# From -- ./inp_files/7215.got.cif
#   From: 2010.05.17/outbox.cif.g08.bks.cpg/sg52_4_cif.got.tgz:7215.got - 2010.06.03 12:15:38.
