data_PCOD9410998
_publ_section_title
;
Structure prediction by ZEFSAII (Michael W. Deem and Ramdas Pophale) SiO2 
 PCOD9410998
Probable space group: P N N A
;
_chemical_formula_sum "Si O2"
_cell_formula_units_Z 64
_cell_length_a 29.975315
_cell_length_b 12.235646
_cell_length_c 7.857120
_cell_angle_alpha 90.000000
_cell_angle_beta 90.000000
_cell_angle_gamma 90.000000
_cell_volume 2881.735027
_symmetry_space_group_name_H-M "P N N A"
_symmetry_group_IT_number 52
_symmetry_cell_setting 'orthorhombic'
loop_
_space_group_symop_operation_xyz
x,y,z
1/2-x,-y,z
x,1/2-y,1/2-z
1/2-x,1/2+y,1/2-z
-x,-y,-z
1/2+x,y,-z
-x,1/2+y,1/2+z
1/2+x,1/2-y,1/2+z
loop_
_atom_site_type_symbol
_atom_site_label
_atom_site_fract_x
_atom_site_fract_y
_atom_site_fract_z
Si Si1 0.064492 0.866560 0.216284
Si Si2 0.784202 0.238908 0.951680
Si Si3 0.092424 0.257839 0.044687
Si Si4 0.566308 0.997696 0.460894
Si Si5 0.146775 0.633172 0.837614
Si Si6 0.351738 0.461108 0.484813
Si Si7 0.025301 0.415061 0.618428
Si Si8 0.313865 0.696828 0.436562
O O1 0.087670 0.750000 0.250000
O O2 0.017333 0.834107 0.133172
O O3 0.045566 0.939270 0.373632
O O4 0.100743 0.934710 0.104993
O O5 0.779799 0.250000 0.750000
O O6 0.734591 0.212526 0.019253
O O7 0.808568 0.335869 0.057359
O O8 0.817712 0.137914 0.960052
O O9 0.091915 0.250000 0.250000
O O10 0.143267 0.252275 0.978232
O O11 0.074344 0.376764 0.004573
O O12 0.064579 0.159539 0.959576
O O13 0.544093 0.011729 0.275684
O O14 0.609677 0.918872 0.456491
O O15 0.133176 0.750000 0.750000
O O16 0.147102 0.542247 0.689474
O O17 0.329343 0.571448 0.419122
O O18 0.000000 0.500000 0.500000
O O19 0.311230 0.750000 0.250000
#
# Coordination Sequence:
#
# PCOD9410998 Si02
#       8
#     8   8   8   8   8   8   8   8
#     4  12  24  40  66  96 131 176 229 289 352 423
#     4  10  21  39  64  96 130 169 227 283 337 416
#     4  11  24  45  68  96 134 177 226 284 346 413
#     4  12  24  43  67  97 135 179 228 283 346 410
#     4  10  22  41  65  95 131 172 220 277 342 409
#     4  11  21  41  65  94 133 174 219 279 350 413
#     4  12  26  44  66  97 135 181 234 287 347 422
#     4  10  21  39  65  93 126 172 221 274 339 412
#
# _framework density 22.208843000000002
#
# number of rings (size 3 to 8) (size 9 to 14) (size 15 to 20)
#    0.000    1.000    0.000    9.000    0.000    1.000 
#    0.000   13.750    0.000    1.500    0.000    0.000 
#    0.000    0.000    0.000    0.000    0.000    0.000 
#
# Total GULP energy -356574.738779 kJ/mol
# GULP energy per Si atom -5571.480293 kJ/mol
# Density = 2.215830 g / cm^3
# Si number density = 22.208843 Si / 1000 Ang^3
#
#
#
# Elastic Constant Matrix: (Units=GPa)
#
#
# Indices 1 2 3 4 5 6 
#
# 1 127.9723 30.1993 28.9542 0.0000 0.0000 0.0000
# 2 30.1993 100.5856 29.0570 0.0000 0.0000 0.0000
# 3 28.9542 29.0570 75.4343 0.0000 0.0000 0.0000
# 4 0.0000 0.0000 0.0000 42.3758 0.0000 0.0000
# 5 0.0000 0.0000 0.0000 0.0000 18.4921 0.0000
# 6 0.0000 0.0000 0.0000 0.0000 0.0000 24.8910
#
#
#
# Elastic Compliance Matrix: (Units=1/GPa)
#
#
# Indices 1 2 3 4 5 6 
#
# 1 0.008865 -0.001889 -0.002675 0.000000 0.000000 0.000000
# 2 -0.001889 0.011589 -0.003739 0.000000 0.000000 0.000000
# 3 -0.002675 -0.003739 0.015724 0.000000 0.000000 0.000000
# 4 0.000000 0.000000 0.000000 0.023598 0.000000 0.000000
# 5 0.000000 0.000000 0.000000 0.000000 0.054077 0.000000
# 6 0.000000 0.000000 0.000000 0.000000 0.000000 0.040175
#
#
# Mechanical properties :
#
#
# Convention : Reuss Voigt Hill
#
# Bulk Modulus (GPa) = 51.09411 53.37926 52.23668
# Shear Modulus (GPa) = 28.22329 31.53721 29.88025
#
# Velocity S-wave (km/s) = 3.56871 3.77242 3.67198
# Velocity P-wave (km/s) = 6.32749 6.56218 6.44590
#
# Compressibility (1/GPa) = 0.01957173
#
# Stress axis : x y z
#
# Youngs Moduli (GPa) = 112.80069 86.28871 63.59838
#
# Poissons Ratio (x) = 0.16299 0.17014
# Poissons Ratio (y) = 0.21306 0.23780
# Poissons Ratio (z) = 0.30176 0.32264
#
# Static dielectric constant tensor:
#      x y z
#    x 1.917700 0.000000 0.000000 
#    y 0.000000 1.590230 0.000000 
#    z 0.000000 0.000000 1.744540 
# 
# From -- ./inp_files/15719.got.cif
#   From: 2010.05.17/outbox.cif.g08.bks.cpg/sg52_8_cif.got.tgz:15719.got - 2010.06.03 12:15:38.
