data_PCOD9410841
_publ_section_title
;
Structure prediction by ZEFSAII (Michael W. Deem and Ramdas Pophale) SiO2 
 PCOD9410841
Probable space group: P N N A
;
_chemical_formula_sum "Si O2"
_cell_formula_units_Z 40
_cell_length_a 9.916764
_cell_length_b 27.208009
_cell_length_c 7.690185
_cell_angle_alpha 90.000000
_cell_angle_beta 90.000000
_cell_angle_gamma 90.000000
_cell_volume 2074.930374
_symmetry_space_group_name_H-M "P N N A"
_symmetry_group_IT_number 52
_symmetry_cell_setting 'orthorhombic'
loop_
_space_group_symop_operation_xyz
x,y,z
1/2-x,-y,z
x,1/2-y,1/2-z
1/2-x,1/2+y,1/2-z
-x,-y,-z
1/2+x,y,-z
-x,1/2+y,1/2+z
1/2+x,1/2-y,1/2+z
loop_
_atom_site_type_symbol
_atom_site_label
_atom_site_fract_x
_atom_site_fract_y
_atom_site_fract_z
Si Si1 0.296300 0.092731 0.179761
Si Si2 0.293164 0.302106 0.160205
Si Si3 0.126726 0.534839 0.968141
Si Si4 0.480254 0.403971 0.645349
Si Si5 0.521777 0.802728 0.327959
O O1 0.310847 0.151038 0.215476
O O2 0.333425 0.063947 0.356333
O O3 0.139174 0.083315 0.134770
O O4 0.397576 0.080273 0.024094
O O5 0.327233 0.250000 0.250000
O O6 0.134505 0.300875 0.113461
O O7 0.382961 0.311546 0.991570
O O8 0.250000 0.500000 0.916592
O O9 0.085194 0.571015 0.814087
O O10 0.000000 0.500000 0.000000
O O11 0.468230 0.345704 0.685192
O O12 0.557308 0.750000 0.250000
#
# Coordination Sequence:
#
# PCOD9410841 Si02
#       5
#     8   8   8   8   8
#     4  11  25  43  67  99 132 172 220 268 328 389
#     4  10  21  38  62  94 132 170 213 261 320 388
#     4  12  26  46  68  95 129 174 224 273 327 382
#     4  11  25  43  67  98 133 172 217 272 325 391
#     4  10  21  38  62  94 131 170 213 261 321 385
#
# _framework density 19.277754000000002
#
# number of rings (size 3 to 8) (size 9 to 14) (size 15 to 20)
#    0.000    1.200    4.000    1.200    2.800    4.000 
#    0.000    0.000    0.000    0.000    0.000    0.000 
#    0.000    0.000    0.000    0.000    0.000    0.000 
#
# Total GULP energy -223545.319312 kJ/mol
# GULP energy per Si atom -5588.632983 kJ/mol
# Density = 1.923388 g / cm^3
# Si number density = 19.277754 Si / 1000 Ang^3
#
#
#
# Elastic Constant Matrix: (Units=GPa)
#
#
# Indices 1 2 3 4 5 6 
#
# 1 116.6696 31.8723 66.6445 0.0000 0.0000 0.0000
# 2 31.8723 81.7312 17.9042 0.0000 0.0000 0.0000
# 3 66.6445 17.9042 112.2047 0.0000 0.0000 0.0000
# 4 0.0000 0.0000 0.0000 20.7473 0.0000 0.0000
# 5 0.0000 0.0000 0.0000 0.0000 41.9219 0.0000
# 6 0.0000 0.0000 0.0000 0.0000 0.0000 29.9230
#
#
#
# Elastic Compliance Matrix: (Units=1/GPa)
#
#
# Indices 1 2 3 4 5 6 
#
# 1 0.014012 -0.003773 -0.007720 0.000000 0.000000 0.000000
# 2 -0.003773 0.013694 0.000056 0.000000 0.000000 0.000000
# 3 -0.007720 0.000056 0.013489 0.000000 0.000000 0.000000
# 4 0.000000 0.000000 0.000000 0.048199 0.000000 0.000000
# 5 0.000000 0.000000 0.000000 0.000000 0.023854 0.000000
# 6 0.000000 0.000000 0.000000 0.000000 0.000000 0.033419
#
#
# Mechanical properties :
#
#
# Convention : Reuss Voigt Hill
#
# Bulk Modulus (GPa) = 54.58486 60.38307 57.48397
# Shear Modulus (GPa) = 28.46579 31.46406 29.96493
#
# Velocity S-wave (km/s) = 3.84684 4.04436 3.94684
# Velocity P-wave (km/s) = 6.93595 7.29382 7.11713
#
# Compressibility (1/GPa) = 0.01832010
#
# Stress axis : x y z
#
# Youngs Moduli (GPa) = 71.36716 73.02294 74.13451
#
# Poissons Ratio (x) = 0.27551 0.57235
# Poissons Ratio (y) = 0.26926 -0.00414
# Poissons Ratio (z) = 0.55099 -0.00407
#
# Static dielectric constant tensor:
#      x y z
#    x 1.640750 0.000000 0.000000 
#    y 0.000000 1.694010 0.000000 
#    z 0.000000 0.000000 1.639590 
# 
# From -- ./inp_files/1342.got.cif
#   From: 2010.05.17/outbox.cif.g08.bks.cpg/sg52_1_cif.got.tgz:1342.got - 2010.06.03 12:15:38.
