data_PCOD9410456
_publ_section_title
;
Structure prediction by ZEFSAII (Michael W. Deem and Ramdas Pophale) SiO2 
 PCOD9410456
Probable space group: P N N A
;
_chemical_formula_sum "Si O2"
_cell_formula_units_Z 60
_cell_length_a 8.961418
_cell_length_b 15.312345
_cell_length_c 22.065995
_cell_angle_alpha 90.000000
_cell_angle_beta 90.000000
_cell_angle_gamma 90.000000
_cell_volume 3027.902986
_symmetry_space_group_name_H-M "P N N A"
_symmetry_group_IT_number 52
_symmetry_cell_setting 'orthorhombic'
loop_
_space_group_symop_operation_xyz
x,y,z
1/2-x,-y,z
x,1/2-y,1/2-z
1/2-x,1/2+y,1/2-z
-x,-y,-z
1/2+x,y,-z
-x,1/2+y,1/2+z
1/2+x,1/2-y,1/2+z
loop_
_atom_site_type_symbol
_atom_site_label
_atom_site_fract_x
_atom_site_fract_y
_atom_site_fract_z
Si Si1 0.061955 0.107304 0.583369
Si Si2 0.699937 0.904226 0.316258
Si Si3 0.111672 0.559554 0.461069
Si Si4 0.126463 0.250000 0.750000
Si Si5 0.823753 0.219529 0.045979
Si Si6 0.888162 0.952272 0.649967
Si Si7 0.886049 0.832973 0.540412
Si Si8 0.544962 0.200393 0.123511
O O1 0.226657 0.104133 0.615793
O O2 0.059785 0.099392 0.511302
O O3 0.997548 0.204161 0.597864
O O4 0.974244 0.030630 0.615851
O O5 0.774577 0.826840 0.278878
O O6 0.521237 0.903815 0.315082
O O7 0.750000 0.000000 0.293800
O O8 0.250000 0.500000 0.439537
O O9 0.163287 0.629805 0.510362
O O10 0.000000 0.500000 0.500000
O O11 0.035400 0.619168 0.408790
O O12 0.032475 0.207447 0.804527
O O13 0.719658 0.200055 0.103710
O O14 0.981414 0.265953 0.057826
O O15 0.734520 0.280578 0.998711
O O16 0.832890 0.885047 0.598752
O O17 0.750000 0.000000 0.682371
#
# Coordination Sequence:
#
# PCOD9410456 Si02
#       8
#     8   8   8   4   8   8   8   8
#     4   9  18  34  53  80 121 159 202 246 297 368
#     4   9  20  39  60  84 114 155 209 268 305 377
#     4  12  22  39  63  96 135 167 206 271 339 401
#     4  10  20  42  70  90 112 168 230 276 320 394
#     4  11  20  36  56  89 127 161 204 259 319 380
#     4  11  21  30  52  88 121 160 193 243 313 375
#     4  11  19  30  52  84 124 161 197 238 294 377
#     4  10  21  38  65  92 122 167 218 264 328 388
#
# _framework density 19.815695000000002
#
# number of rings (size 3 to 8) (size 9 to 14) (size 15 to 20)
#    0.000    1.600    4.000    3.600    0.000    1.600 
#    2.400    0.000    0.000   14.400    0.000    0.000 
#    0.000    0.000    0.000    0.000    0.000    0.000 
#
# Total GULP energy -334582.729971 kJ/mol
# GULP energy per Si atom -5576.378833 kJ/mol
# Density = 1.977059 g / cm^3
# Si number density = 19.815695 Si / 1000 Ang^3
#
#
#
# Elastic Constant Matrix: (Units=GPa)
#
#
# Indices 1 2 3 4 5 6 
#
# 1 71.1583 20.5429 12.1130 0.0000 0.0000 0.0000
# 2 20.5429 110.4345 23.7857 0.0000 0.0000 0.0000
# 3 12.1130 23.7857 71.7794 0.0000 0.0000 0.0000
# 4 0.0000 0.0000 0.0000 21.1631 0.0000 0.0000
# 5 0.0000 0.0000 0.0000 0.0000 12.3856 0.0000
# 6 0.0000 0.0000 0.0000 0.0000 0.0000 43.4569
#
#
#
# Elastic Compliance Matrix: (Units=1/GPa)
#
#
# Indices 1 2 3 4 5 6 
#
# 1 0.015049 -0.002426 -0.001736 0.000000 0.000000 0.000000
# 2 -0.002426 0.010142 -0.002951 0.000000 0.000000 0.000000
# 3 -0.001736 -0.002951 0.015203 0.000000 0.000000 0.000000
# 4 0.000000 0.000000 0.000000 0.047252 0.000000 0.000000
# 5 0.000000 0.000000 0.000000 0.000000 0.080739 0.000000
# 6 0.000000 0.000000 0.000000 0.000000 0.000000 0.023011
#
#
# Mechanical properties :
#
#
# Convention : Reuss Voigt Hill
#
# Bulk Modulus (GPa) = 38.21478 40.69503 39.45491
# Shear Modulus (GPa) = 23.32704 28.52985 25.92844
#
# Velocity S-wave (km/s) = 3.43476 3.79853 3.62122
# Velocity P-wave (km/s) = 5.92090 6.31030 6.11870
#
# Compressibility (1/GPa) = 0.02616788
#
# Stress axis : x y z
#
# Youngs Moduli (GPa) = 66.45014 98.59959 65.77848
#
# Poissons Ratio (x) = 0.23915 0.11418
# Poissons Ratio (y) = 0.16118 0.19414
# Poissons Ratio (z) = 0.11534 0.29101
#
# Static dielectric constant tensor:
#      x y z
#    x 1.860400 0.000000 0.000000 
#    y 0.000000 2.366900 0.000000 
#    z 0.000000 0.000000 1.705480 
# 
# From -- ./inp_files/39622.got.cif
#   From: 2010.05.17/outbox.cif.g08.bks.cpg/sg52_20_cif.got.tgz:39622.got - 2010.06.03 12:15:38.
