data_PCOD9410660
_publ_section_title
;
Structure prediction by ZEFSAII (Michael W. Deem and Ramdas Pophale) SiO2 
 PCOD9410660
Probable space group: P N N A
;
_chemical_formula_sum "Si O2"
_cell_formula_units_Z 60
_cell_length_a 13.470177
_cell_length_b 9.048806
_cell_length_c 26.258346
_cell_angle_alpha 90.000000
_cell_angle_beta 90.000000
_cell_angle_gamma 90.000000
_cell_volume 3200.604020
_symmetry_space_group_name_H-M "P N N A"
_symmetry_group_IT_number 52
_symmetry_cell_setting 'orthorhombic'
loop_
_space_group_symop_operation_xyz
x,y,z
1/2-x,-y,z
x,1/2-y,1/2-z
1/2-x,1/2+y,1/2-z
-x,-y,-z
1/2+x,y,-z
-x,1/2+y,1/2+z
1/2+x,1/2-y,1/2+z
loop_
_atom_site_type_symbol
_atom_site_label
_atom_site_fract_x
_atom_site_fract_y
_atom_site_fract_z
Si Si1 0.837533 0.588135 0.374705
Si Si2 0.545412 0.692032 0.408929
Si Si3 0.429189 0.201300 0.474439
Si Si4 0.635222 0.324146 0.197095
Si Si5 0.859969 0.976912 0.940201
Si Si6 0.124243 0.833550 0.695828
Si Si7 0.652674 0.244064 0.031544
Si Si8 0.250000 0.000000 0.470108
O O1 0.750000 0.500000 0.345587
O O2 0.899166 0.465479 0.404190
O O3 0.901890 0.701632 0.342655
O O4 0.792646 0.693473 0.417752
O O5 0.568848 0.776169 0.462841
O O6 0.430805 0.636986 0.410455
O O7 0.574467 0.770781 0.355805
O O8 0.401166 0.360231 0.450895
O O9 0.544724 0.184369 0.459646
O O10 0.355517 0.074738 0.451468
O O11 0.612229 0.250000 0.250000
O O12 0.755615 0.323943 0.190587
O O13 0.600205 0.491993 0.196759
O O14 0.750000 0.000000 0.918680
O O15 0.854062 0.896749 0.994936
O O16 0.100080 0.750000 0.750000
O O17 0.715092 0.363261 0.002708
#
# Coordination Sequence:
#
# PCOD9410660 Si02
#       8
#     8   8   8   8   8   8   8   4
#     4  12  20  32  54  79 109 148 186 219 271 328
#     4  11  21  35  57  82 106 146 192 234 272 333
#     4  11  22  38  53  80 113 151 194 229 276 329
#     4  10  22  33  52  79 115 152 180 219 269 333
#     4  11  20  40  59  77 108 150 196 236 276 329
#     4  10  21  37  54  79 114 145 185 226 274 329
#     4  11  22  36  53  78 111 151 190 229 271 329
#     4  12  24  32  52  74 114 154 184 234 278 312
#
# _framework density 18.746461
#
# number of rings (size 3 to 8) (size 9 to 14) (size 15 to 20)
#    0.000    1.067    5.333    3.200    3.733    0.000 
#    0.000    0.000    0.000    0.000    0.000    2.800 
#    0.000    0.000    0.000    0.000    0.000    0.000 
#
# Total GULP energy -334033.320626 kJ/mol
# GULP energy per Si atom -5567.222010 kJ/mol
# Density = 1.870379 g / cm^3
# Si number density = 18.746461 Si / 1000 Ang^3
#
#
#
# Elastic Constant Matrix: (Units=GPa)
#
#
# Indices 1 2 3 4 5 6 
#
# 1 71.7133 -1.7858 3.0171 0.0000 0.0000 0.0000
# 2 -1.7858 79.3745 33.2683 0.0000 0.0000 0.0000
# 3 3.0171 33.2683 80.7038 0.0000 0.0000 0.0000
# 4 0.0000 0.0000 0.0000 18.6526 0.0000 0.0000
# 5 0.0000 0.0000 0.0000 0.0000 13.1409 0.0000
# 6 0.0000 0.0000 0.0000 0.0000 0.0000 24.9584
#
#
#
# Elastic Compliance Matrix: (Units=1/GPa)
#
#
# Indices 1 2 3 4 5 6 
#
# 1 0.013994 0.000646 -0.000789 0.000000 0.000000 0.000000
# 2 0.000646 0.015260 -0.006315 0.000000 0.000000 0.000000
# 3 -0.000789 -0.006315 0.015024 0.000000 0.000000 0.000000
# 4 0.000000 0.000000 0.000000 0.053612 0.000000 0.000000
# 5 0.000000 0.000000 0.000000 0.000000 0.076098 0.000000
# 6 0.000000 0.000000 0.000000 0.000000 0.000000 0.040067
#
#
# Mechanical properties :
#
#
# Convention : Reuss Voigt Hill
#
# Bulk Modulus (GPa) = 31.88731 33.42120 32.65426
# Shear Modulus (GPa) = 21.05942 24.50318 22.78130
#
# Velocity S-wave (km/s) = 3.35532 3.61928 3.48980
# Velocity P-wave (km/s) = 5.66195 5.94410 5.80474
#
# Compressibility (1/GPa) = 0.03136044
#
# Stress axis : x y z
#
# Youngs Moduli (GPa) = 71.46070 65.53223 66.56225
#
# Poissons Ratio (x) = -0.04231 0.05254
# Poissons Ratio (y) = -0.04614 0.42031
# Poissons Ratio (z) = 0.05640 0.41381
#
# Static dielectric constant tensor:
#      x y z
#    x 1.731030 0.000000 0.000000 
#    y 0.000000 1.677220 0.000000 
#    z 0.000000 0.000000 1.699690 
# 
# From -- ./inp_files/40639.got.cif
#   From: 2010.05.17/outbox.cif.g08.bks.cpg/sg52_21_cif.got.tgz:40639.got - 2010.06.03 12:15:38.
