data_PCOD9410593
_publ_section_title
;
Structure prediction by ZEFSAII (Michael W. Deem and Ramdas Pophale) SiO2 
 PCOD9410593
Probable space group: P N N A
;
_chemical_formula_sum "Si O2"
_cell_formula_units_Z 48
_cell_length_a 10.671971
_cell_length_b 27.674919
_cell_length_c 8.440280
_cell_angle_alpha 90.000000
_cell_angle_beta 90.000000
_cell_angle_gamma 90.000000
_cell_volume 2492.802371
_symmetry_space_group_name_H-M "P N N A"
_symmetry_group_IT_number 52
_symmetry_cell_setting 'orthorhombic'
loop_
_space_group_symop_operation_xyz
x,y,z
1/2-x,-y,z
x,1/2-y,1/2-z
1/2-x,1/2+y,1/2-z
-x,-y,-z
1/2+x,y,-z
-x,1/2+y,1/2+z
1/2+x,1/2-y,1/2+z
loop_
_atom_site_type_symbol
_atom_site_label
_atom_site_fract_x
_atom_site_fract_y
_atom_site_fract_z
Si Si1 0.759155 0.702846 0.142779
Si Si2 0.753296 0.057184 0.381141
Si Si3 0.220555 0.116513 0.900783
Si Si4 0.011744 0.555441 0.057957
Si Si5 0.941261 0.387596 0.648208
Si Si6 0.452694 0.294899 0.127588
O O1 0.741529 0.750000 0.250000
O O2 0.756822 0.658007 0.267276
O O3 0.901146 0.706332 0.072691
O O4 0.650779 0.703461 0.010599
O O5 0.744612 0.067529 0.196716
O O6 0.626302 0.077804 0.457958
O O7 0.879302 0.077937 0.453269
O O8 0.750000 0.000000 0.410110
O O9 0.073524 0.117165 0.945039
O O10 0.320058 0.117548 0.040149
O O11 0.050748 0.564432 0.240796
O O12 0.000000 0.500000 0.000000
O O13 0.939938 0.343586 0.771142
O O14 0.434367 0.250000 0.250000
#
# Coordination Sequence:
#
# PCOD9410593 Si02
#       6
#     8   8   8   8   8   8
#     4  10  21  36  55  80 109 141 177 222 267 316
#     4   9  18  34  53  75 103 134 172 218 262 312
#     4  10  21  36  53  77 109 139 175 219 266 318
#     4   9  18  34  54  76 101 134 176 218 263 316
#     4  10  21  36  54  79 109 142 179 222 269 324
#     4  10  21  36  55  81 110 142 183 223 266 322
#
# _framework density 19.255436
#
# number of rings (size 3 to 8) (size 9 to 14) (size 15 to 20)
#    0.000    2.333    0.000    2.000    0.000    3.333 
#    0.000   10.000    0.000    0.000    0.000    0.000 
#    0.000    0.000    0.000    0.000    0.000    0.000 
#
# Total GULP energy -267319.493191 kJ/mol
# GULP energy per Si atom -5569.156108 kJ/mol
# Density = 1.921161 g / cm^3
# Si number density = 19.255436 Si / 1000 Ang^3
#
#
#
# Elastic Constant Matrix: (Units=GPa)
#
#
# Indices 1 2 3 4 5 6 
#
# 1 123.4247 30.6645 61.7944 0.0000 0.0000 0.0000
# 2 30.6645 55.1198 25.0611 0.0000 0.0000 0.0000
# 3 61.7944 25.0611 56.8576 0.0000 0.0000 0.0000
# 4 0.0000 0.0000 0.0000 25.6626 0.0000 0.0000
# 5 0.0000 0.0000 0.0000 0.0000 52.7240 0.0000
# 6 0.0000 0.0000 0.0000 0.0000 0.0000 11.2645
#
#
#
# Elastic Compliance Matrix: (Units=1/GPa)
#
#
# Indices 1 2 3 4 5 6 
#
# 1 0.017858 -0.001389 -0.018796 0.000000 0.000000 0.000000
# 2 -0.001389 0.022797 -0.008539 0.000000 0.000000 0.000000
# 3 -0.018796 -0.008539 0.041780 0.000000 0.000000 0.000000
# 4 0.000000 0.000000 0.000000 0.038967 0.000000 0.000000
# 5 0.000000 0.000000 0.000000 0.000000 0.018967 0.000000
# 6 0.000000 0.000000 0.000000 0.000000 0.000000 0.088775
#
#
# Mechanical properties :
#
#
# Convention : Reuss Voigt Hill
#
# Bulk Modulus (GPa) = 40.02098 52.27134 46.14616
# Shear Modulus (GPa) = 16.95378 25.78903 21.37140
#
# Velocity S-wave (km/s) = 2.97049 3.66363 3.33511
# Velocity P-wave (km/s) = 5.70915 6.71576 6.23281
#
# Compressibility (1/GPa) = 0.02498689
#
# Stress axis : x y z
#
# Youngs Moduli (GPa) = 55.99841 43.86491 23.93515
#
# Poissons Ratio (x) = 0.06092 0.44989
# Poissons Ratio (y) = 0.07777 0.20438
# Poissons Ratio (z) = 1.05255 0.37456
#
# Static dielectric constant tensor:
#      x y z
#    x 1.725690 0.000000 0.000000 
#    y 0.000000 1.685980 0.000000 
#    z 0.000000 0.000000 1.648040 
# 
# From -- ./inp_files/7681.got.cif
#   From: 2010.05.17/outbox.cif.g08.bks.cpg/sg52_4_cif.got.tgz:7681.got - 2010.06.03 12:15:38.
