data_PCOD9410703
_publ_section_title
;
Structure prediction by ZEFSAII (Michael W. Deem and Ramdas Pophale) SiO2 
 PCOD9410703
Probable space group: P N N A
;
_chemical_formula_sum "Si O2"
_cell_formula_units_Z 64
_cell_length_a 14.220940
_cell_length_b 25.423960
_cell_length_c 10.106799
_cell_angle_alpha 90.000000
_cell_angle_beta 90.000000
_cell_angle_gamma 90.000000
_cell_volume 3654.139554
_symmetry_space_group_name_H-M "P N N A"
_symmetry_group_IT_number 52
_symmetry_cell_setting 'orthorhombic'
loop_
_space_group_symop_operation_xyz
x,y,z
1/2-x,-y,z
x,1/2-y,1/2-z
1/2-x,1/2+y,1/2-z
-x,-y,-z
1/2+x,y,-z
-x,1/2+y,1/2+z
1/2+x,1/2-y,1/2+z
loop_
_atom_site_type_symbol
_atom_site_label
_atom_site_fract_x
_atom_site_fract_y
_atom_site_fract_z
Si Si1 0.499998 0.172149 1.000000
Si Si2 0.507579 0.910891 0.236089
Si Si3 0.499998 0.151159 0.500000
Si Si4 0.861357 0.241484 0.592306
Si Si5 0.139309 0.000001 0.191710
Si Si6 0.861360 0.741484 0.907694
Si Si7 0.492422 0.589109 0.736088
Si Si8 0.859719 0.500001 0.373624
O O1 0.501238 0.134860 0.872422
O O2 0.589704 0.210560 0.986303
O O3 0.410293 0.210560 0.013697
O O4 0.498759 0.134860 0.127578
O O5 0.526977 0.884898 0.376490
O O6 0.414817 0.947950 0.241516
O O7 0.589389 0.949474 0.186775
O O8 0.415175 0.189115 0.453898
O O9 0.584822 0.189115 0.546103
O O10 0.526975 0.115103 0.376490
O O11 0.877279 0.250000 0.750000
O O12 0.749998 0.238999 0.569664
O O13 0.250000 0.000000 0.222345
O O14 0.085182 0.947951 0.241515
O O15 0.127242 0.000001 0.032226
O O16 0.877282 0.750000 0.750000
O O17 0.410610 0.550528 0.686775
O O18 0.750000 0.500000 0.345354
#
# Coordination Sequence:
#
# PCOD9410703 Si02
#       8
#     8   8   8   8   8   8   8   8
#     4  11  20  37  62  86 112 155 194 241 290 344
#     4  11  21  39  59  85 118 153 191 238 295 344
#     4  11  24  39  60  88 122 153 188 249 300 344
#     4  10  22  39  60  87 117 153 199 242 287 354
#     4  10  21  37  61  90 113 151 204 240 276 347
#     4  10  22  39  60  87 117 153 199 242 287 354
#     4  11  21  39  59  85 118 153 191 238 295 344
#     4  10  21  37  59  88 119 149 196 246 282 342
#
# _framework density 17.514382999999999
#
# number of rings (size 3 to 8) (size 9 to 14) (size 15 to 20)
#    0.000    1.500    5.000    0.750    0.000    6.000 
#    0.000    2.500    0.000    0.000    0.000    0.000 
#    0.000    0.000    0.000    0.000    0.000    0.000 
#
# Total GULP energy -357345.377117 kJ/mol
# GULP energy per Si atom -5583.521517 kJ/mol
# Density = 1.747452 g / cm^3
# Si number density = 17.514383 Si / 1000 Ang^3
#
#
#
# Elastic Constant Matrix: (Units=GPa)
#
#
# Indices 1 2 3 4 5 6 
#
# 1 129.1903 50.0756 29.2182 0.0000 0.0000 0.0000
# 2 50.0756 101.5128 33.6614 0.0000 0.0000 0.0000
# 3 29.2182 33.6614 81.9166 0.0000 0.0000 0.0000
# 4 0.0000 0.0000 0.0000 39.9819 0.0000 0.0000
# 5 0.0000 0.0000 0.0000 0.0000 11.3284 0.0000
# 6 0.0000 0.0000 0.0000 0.0000 0.0000 1.7095
#
#
#
# Elastic Compliance Matrix: (Units=1/GPa)
#
#
# Indices 1 2 3 4 5 6 
#
# 1 0.009781 -0.004247 -0.001744 0.000000 0.000000 0.000000
# 2 -0.004247 0.013249 -0.003930 0.000000 0.000000 0.000000
# 3 -0.001744 -0.003930 0.014444 0.000000 0.000000 0.000000
# 4 0.000000 0.000000 0.000000 0.025011 0.000000 0.000000
# 5 0.000000 0.000000 0.000000 0.000000 0.088274 0.000000
# 6 0.000000 0.000000 0.000000 0.000000 0.000000 0.584977
#
#
# Mechanical properties :
#
#
# Convention : Reuss Voigt Hill
#
# Bulk Modulus (GPa) = 56.70772 59.83667 58.27220
# Shear Modulus (GPa) = 6.56639 23.91494 15.24066
#
# Velocity S-wave (km/s) = 1.93837 3.69920 2.95308
# Velocity P-wave (km/s) = 6.12028 7.24458 6.70603
#
# Compressibility (1/GPa) = 0.01763428
#
# Stress axis : x y z
#
# Youngs Moduli (GPa) = 102.23983 75.47820 69.23195
#
# Poissons Ratio (x) = 0.32053 0.12071
# Poissons Ratio (y) = 0.43418 0.27205
# Poissons Ratio (z) = 0.17827 0.29660
#
# Static dielectric constant tensor:
#      x y z
#    x 1.576580 0.000000 0.000000 
#    y 0.000000 1.592410 0.000000 
#    z 0.000000 0.000000 1.581990 
# 
# From -- ./inp_files/11032.got.cif
#   From: 2010.05.17/outbox.cif.g08.bks.cpg/sg52_6_cif.got.tgz:11032.got - 2010.06.03 12:15:38.
