data_PCOD9410444
_publ_section_title
;
Structure prediction by ZEFSAII (Michael W. Deem and Ramdas Pophale) SiO2 
 PCOD9410444
Probable space group: P N N A
;
_chemical_formula_sum "Si O2"
_cell_formula_units_Z 52
_cell_length_a 14.504458
_cell_length_b 8.344044
_cell_length_c 18.890140
_cell_angle_alpha 90.000000
_cell_angle_beta 90.000000
_cell_angle_gamma 90.000000
_cell_volume 2286.194981
_symmetry_space_group_name_H-M "P N N A"
_symmetry_group_IT_number 52
_symmetry_cell_setting 'orthorhombic'
loop_
_space_group_symop_operation_xyz
x,y,z
1/2-x,-y,z
x,1/2-y,1/2-z
1/2-x,1/2+y,1/2-z
-x,-y,-z
1/2+x,y,-z
-x,1/2+y,1/2+z
1/2+x,1/2-y,1/2+z
loop_
_atom_site_type_symbol
_atom_site_label
_atom_site_fract_x
_atom_site_fract_y
_atom_site_fract_z
Si Si1 0.805256 0.250000 0.750000
Si Si2 0.262468 0.816450 0.818811
Si Si3 0.421278 0.390568 0.836815
Si Si4 0.811538 0.654571 0.612780
Si Si5 0.931178 0.741194 0.386115
Si Si6 0.545987 0.986694 0.786087
Si Si7 0.535442 0.326548 0.968388
O O1 0.748007 0.269386 0.677558
O O2 0.873009 0.098372 0.741457
O O3 0.315344 0.750000 0.750000
O O4 0.174207 0.702574 0.825941
O O5 0.326451 0.818321 0.887019
O O6 0.250000 0.000000 0.801121
O O7 0.417013 0.573196 0.865012
O O8 0.480390 0.413161 0.765344
O O9 0.472278 0.299814 0.900465
O O10 0.750000 0.500000 0.585558
O O11 0.898255 0.580733 0.654494
O O12 0.859561 0.784602 0.559494
O O13 0.977322 0.719337 0.462089
O O14 0.987374 0.646290 0.327358
O O15 0.500000 0.500000 0.000000
#
# Coordination Sequence:
#
# PCOD9410444 Si02
#       7
#     4   8   8   8   8   8   8
#     4  10  20  42  68 114 146 186 250 316 386 434
#     4  12  26  43  68 104 138 182 242 312 365 434
#     4  11  23  44  70 102 138 187 246 305 373 441
#     4  10  23  41  68 108 146 190 249 314 378 455
#     4  11  23  45  66 100 145 193 240 300 370 456
#     4  11  21  41  77 105 143 193 255 312 377 450
#     4  10  25  46  68 102 146 200 245 300 387 465
#
# _framework density 22.745215000000002
#
# number of rings (size 3 to 8) (size 9 to 14) (size 15 to 20)
#    0.000    1.231    1.538    4.154    4.308    1.231 
#    5.538    3.077    0.000    0.000    0.000    0.000 
#    0.000    0.000    0.000    0.000    0.000    0.000 
#
# Total GULP energy -289925.735312 kJ/mol
# GULP energy per Si atom -5575.494910 kJ/mol
# Density = 2.269345 g / cm^3
# Si number density = 22.745215 Si / 1000 Ang^3
#
#
#
# Elastic Constant Matrix: (Units=GPa)
#
#
# Indices 1 2 3 4 5 6 
#
# 1 119.7249 48.5087 54.7268 0.0000 0.0000 0.0000
# 2 48.5087 96.8386 38.0260 0.0000 0.0000 0.0000
# 3 54.7268 38.0260 113.8261 0.0000 0.0000 0.0000
# 4 0.0000 0.0000 0.0000 8.3424 0.0000 0.0000
# 5 0.0000 0.0000 0.0000 0.0000 23.4759 0.0000
# 6 0.0000 0.0000 0.0000 0.0000 0.0000 26.0980
#
#
#
# Elastic Compliance Matrix: (Units=1/GPa)
#
#
# Indices 1 2 3 4 5 6 
#
# 1 0.012113 -0.004352 -0.004370 0.000000 0.000000 0.000000
# 2 -0.004352 0.013449 -0.002401 0.000000 0.000000 0.000000
# 3 -0.004370 -0.002401 0.011688 0.000000 0.000000 0.000000
# 4 0.000000 0.000000 0.000000 0.119870 0.000000 0.000000
# 5 0.000000 0.000000 0.000000 0.000000 0.042597 0.000000
# 6 0.000000 0.000000 0.000000 0.000000 0.000000 0.038317
#
#
# Mechanical properties :
#
#
# Convention : Reuss Voigt Hill
#
# Bulk Modulus (GPa) = 66.64171 68.10139 67.37155
# Shear Modulus (GPa) = 18.84790 24.19180 21.51985
#
# Velocity S-wave (km/s) = 2.88176 3.26483 3.07925
# Velocity P-wave (km/s) = 6.35889 6.64967 6.50591
#
# Compressibility (1/GPa) = 0.01500562
#
# Stress axis : x y z
#
# Youngs Moduli (GPa) = 82.55369 74.35474 85.55434
#
# Poissons Ratio (x) = 0.32358 0.37389
# Poissons Ratio (y) = 0.35926 0.20538
# Poissons Ratio (z) = 0.36078 0.17850
#
# Static dielectric constant tensor:
#      x y z
#    x 1.884700 0.000000 0.000000 
#    y 0.000000 1.848990 0.000000 
#    z 0.000000 0.000000 1.891990 
# 
# From -- ./inp_files/37255.got.cif
#   From: 2010.05.17/outbox.cif.g08.bks.cpg/sg52_19_cif.got.tgz:37255.got - 2010.06.03 12:15:38.
