data_PCOD9410968
_publ_section_title
;
Structure prediction by ZEFSAII (Michael W. Deem and Ramdas Pophale) SiO2 
 PCOD9410968
Probable space group: P N N A
;
_chemical_formula_sum "Si O2"
_cell_formula_units_Z 56
_cell_length_a 22.153680
_cell_length_b 8.923289
_cell_length_c 15.519852
_cell_angle_alpha 90.000000
_cell_angle_beta 90.000000
_cell_angle_gamma 90.000000
_cell_volume 3068.021597
_symmetry_space_group_name_H-M "P N N A"
_symmetry_group_IT_number 52
_symmetry_cell_setting 'orthorhombic'
loop_
_space_group_symop_operation_xyz
x,y,z
1/2-x,-y,z
x,1/2-y,1/2-z
1/2-x,1/2+y,1/2-z
-x,-y,-z
1/2+x,y,-z
-x,1/2+y,1/2+z
1/2+x,1/2-y,1/2+z
loop_
_atom_site_type_symbol
_atom_site_label
_atom_site_fract_x
_atom_site_fract_y
_atom_site_fract_z
Si Si1 0.095685 0.238039 0.076430
Si Si2 0.886930 0.005606 0.065047
Si Si3 0.814022 0.739415 0.345834
Si Si4 0.209032 0.746958 0.512286
Si Si5 0.725728 0.171542 0.841714
Si Si6 0.382711 0.506043 0.937267
Si Si7 0.534335 0.737944 0.149116
O O1 0.155982 0.193161 0.128722
O O2 0.037173 0.256148 0.135042
O O3 0.102862 0.388897 0.019220
O O4 0.086709 0.107073 0.005724
O O5 0.935176 0.120107 0.102414
O O6 0.855795 0.905306 0.138912
O O7 0.833643 0.102584 0.021960
O O8 0.788747 0.750000 0.250000
O O9 0.762516 0.734727 0.418262
O O10 0.854996 0.883398 0.365997
O O11 0.236649 0.751369 0.417591
O O12 0.168770 0.889837 0.534425
O O13 0.734449 0.250000 0.750000
O O14 0.750000 0.000000 0.838569
O O15 0.436911 0.408828 0.896683
O O16 0.549436 0.750000 0.250000
#
# Coordination Sequence:
#
# PCOD9410968 Si02
#       7
#     8   8   8   8   8   8   8
#     4  11  22  42  64  87 118 168 208 250 310 370
#     4  10  21  39  63  81 122 164 202 245 313 364
#     4  11  21  34  59  93 126 162 205 247 303 368
#     4  11  21  40  59  88 125 163 200 250 304 374
#     4  12  25  41  66  93 126 162 205 258 314 366
#     4  10  23  37  63  86 123 164 207 247 315 360
#     4  11  23  40  60  90 121 157 212 261 304 366
#
# _framework density 18.252804000000001
#
# number of rings (size 3 to 8) (size 9 to 14) (size 15 to 20)
#    0.000    1.143    4.286    3.000    2.000    4.571 
#    0.000    0.000    0.000    0.857    0.000    0.000 
#    0.000    0.000    0.000    0.000    0.000    0.000 
#
# Total GULP energy -312820.178031 kJ/mol
# GULP energy per Si atom -5586.074608 kJ/mol
# Density = 1.821126 g / cm^3
# Si number density = 18.252804 Si / 1000 Ang^3
#
#
#
# Elastic Constant Matrix: (Units=GPa)
#
#
# Indices 1 2 3 4 5 6 
#
# 1 99.6423 41.0951 28.4169 0.0000 0.0000 0.0000
# 2 41.0951 103.5079 23.3084 0.0000 0.0000 0.0000
# 3 28.4169 23.3084 111.8465 0.0000 0.0000 0.0000
# 4 0.0000 0.0000 0.0000 9.9537 0.0000 0.0000
# 5 0.0000 0.0000 0.0000 0.0000 -2.9650 0.0000
# 6 0.0000 0.0000 0.0000 0.0000 0.0000 34.7403
#
#
#
# Elastic Compliance Matrix: (Units=1/GPa)
#
#
# Indices 1 2 3 4 5 6 
#
# 1 0.012519 -0.004463 -0.002250 0.000000 0.000000 0.000000
# 2 -0.004463 0.011728 -0.001310 0.000000 0.000000 0.000000
# 3 -0.002250 -0.001310 0.009786 0.000000 0.000000 0.000000
# 4 0.000000 0.000000 0.000000 0.100466 0.000000 0.000000
# 5 0.000000 0.000000 0.000000 0.000000 -0.337263 0.000000
# 6 0.000000 0.000000 0.000000 0.000000 0.000000 0.028785
#
#
# Mechanical properties :
#
#
# Convention : Reuss Voigt Hill
#
# Bulk Modulus (GPa) = 55.60350 55.62640 55.61495
# Shear Modulus (GPa) = -32.90823 23.15754 -4.87534
#
# Velocity S-wave (km/s) = -4.25068 3.56576 -1.63610
# Velocity P-wave (km/s) = 2.53734 6.89163 5.19291
#
# Compressibility (1/GPa) = 0.01798448
#
# Stress axis : x y z
#
# Youngs Moduli (GPa) = 79.88163 85.26467 102.19088
#
# Poissons Ratio (x) = 0.38057 0.22997
# Poissons Ratio (y) = 0.35654 0.13388
# Poissons Ratio (z) = 0.17977 0.11170
#
# Static dielectric constant tensor:
#      x y z
#    x 1.617860 0.000000 0.000000 
#    y 0.000000 1.631650 0.000000 
#    z 0.000000 0.000000 1.608140 
# 
# From -- ./inp_files/28784.got.cif
#   From: 2010.05.17/outbox.cif.g08.bks.cpg/sg52_15_cif.got.tgz:28784.got - 2010.06.03 12:15:38.
