data_PCOD9410440
_publ_section_title
;
Structure prediction by ZEFSAII (Michael W. Deem and Ramdas Pophale) SiO2 
 PCOD9410440
Probable space group: P N N A
;
_chemical_formula_sum "Si O2"
_cell_formula_units_Z 32
_cell_length_a 11.977222
_cell_length_b 23.843250
_cell_length_c 4.885336
_cell_angle_alpha 90.000000
_cell_angle_beta 90.000000
_cell_angle_gamma 90.000000
_cell_volume 1395.134217
_symmetry_space_group_name_H-M "P N N A"
_symmetry_group_IT_number 52
_symmetry_cell_setting 'orthorhombic'
loop_
_space_group_symop_operation_xyz
x,y,z
1/2-x,-y,z
x,1/2-y,1/2-z
1/2-x,1/2+y,1/2-z
-x,-y,-z
1/2+x,y,-z
-x,1/2+y,1/2+z
1/2+x,1/2-y,1/2+z
loop_
_atom_site_type_symbol
_atom_site_label
_atom_site_fract_x
_atom_site_fract_y
_atom_site_fract_z
Si Si1 0.029708 0.080865 0.460029
Si Si2 0.660246 0.450432 0.491164
Si Si3 0.828452 0.127333 0.706775
Si Si4 0.078337 0.684570 0.740645
O O1 0.054787 0.043303 0.196267
O O2 0.020259 0.145952 0.364176
O O3 0.905208 0.076815 0.586093
O O4 0.117260 0.067475 0.695185
O O5 0.750000 0.500000 0.473226
O O6 0.724849 0.399914 0.644147
O O7 0.819190 0.168249 0.445837
O O8 0.895576 0.161160 0.940284
O O9 0.056563 0.750000 0.750000
#
# Coordination Sequence:
#
# PCOD9410440 Si02
#       4
#     8   8   8   8
#     4  10  22  41  61  92 126 159 214 257 304 380
#     4  12  24  40  63  93 129 168 209 258 312 370
#     4  10  22  40  64  89 128 159 209 261 303 380
#     4  10  20  42  67  85 123 168 200 261 322 356
#
# _framework density 22.936859999999999
#
# number of rings (size 3 to 8) (size 9 to 14) (size 15 to 20)
#    1.500    0.000    2.500    3.000    0.000    2.000 
#    0.000    5.000    0.000    0.000    0.000    0.000 
#    0.000    0.000    0.000    0.000    0.000    0.000 
#
# Total GULP energy -178536.577835 kJ/mol
# GULP energy per Si atom -5579.268057 kJ/mol
# Density = 2.288465 g / cm^3
# Si number density = 22.936860 Si / 1000 Ang^3
#
#
#
# Elastic Constant Matrix: (Units=GPa)
#
#
# Indices 1 2 3 4 5 6 
#
# 1 39.4754 14.1412 11.6973 0.0000 0.0000 0.0000
# 2 14.1412 113.2873 25.0519 0.0000 0.0000 0.0000
# 3 11.6973 25.0519 152.5760 0.0000 0.0000 0.0000
# 4 0.0000 0.0000 0.0000 31.4235 0.0000 0.0000
# 5 0.0000 0.0000 0.0000 0.0000 35.5388 0.0000
# 6 0.0000 0.0000 0.0000 0.0000 0.0000 25.2055
#
#
#
# Elastic Compliance Matrix: (Units=1/GPa)
#
#
# Indices 1 2 3 4 5 6 
#
# 1 0.026874 -0.003008 -0.001566 0.000000 0.000000 0.000000
# 2 -0.003008 0.009496 -0.001329 0.000000 0.000000 0.000000
# 3 -0.001566 -0.001329 0.006892 0.000000 0.000000 0.000000
# 4 0.000000 0.000000 0.000000 0.031823 0.000000 0.000000
# 5 0.000000 0.000000 0.000000 0.000000 0.028138 0.000000
# 6 0.000000 0.000000 0.000000 0.000000 0.000000 0.039674
#
#
# Mechanical properties :
#
#
# Convention : Reuss Voigt Hill
#
# Bulk Modulus (GPa) = 31.79004 45.23548 38.51276
# Shear Modulus (GPa) = 30.26816 35.39677 32.83247
#
# Velocity S-wave (km/s) = 3.63661 3.93265 3.78753
# Velocity P-wave (km/s) = 5.61455 6.35496 5.99620
#
# Compressibility (1/GPa) = 0.03145639
#
# Stress axis : x y z
#
# Youngs Moduli (GPa) = 37.21072 105.30286 145.08840
#
# Poissons Ratio (x) = 0.31677 0.22726
# Poissons Ratio (y) = 0.11194 0.19277
# Poissons Ratio (z) = 0.05829 0.13991
#
# Static dielectric constant tensor:
#      x y z
#    x 2.016210 0.000000 0.000000 
#    y 0.000000 1.848890 0.000000 
#    z 0.000000 0.000000 1.884220 
# 
# From -- ./inp_files/1165.got.cif
#   From: 2010.05.17/outbox.cif.g08.bks.cpg/sg52_1_cif.got.tgz:1165.got - 2010.06.03 12:15:38.
