data_PCOD9410666
_publ_section_title
;
Structure prediction by ZEFSAII (Michael W. Deem and Ramdas Pophale) SiO2 
 PCOD9410666
Probable space group: P N N A
;
_chemical_formula_sum "Si O2"
_cell_formula_units_Z 52
_cell_length_a 5.132753
_cell_length_b 18.564149
_cell_length_c 25.145494
_cell_angle_alpha 90.000000
_cell_angle_beta 90.000000
_cell_angle_gamma 90.000000
_cell_volume 2395.993210
_symmetry_space_group_name_H-M "P N N A"
_symmetry_group_IT_number 52
_symmetry_cell_setting 'orthorhombic'
loop_
_space_group_symop_operation_xyz
x,y,z
1/2-x,-y,z
x,1/2-y,1/2-z
1/2-x,1/2+y,1/2-z
-x,-y,-z
1/2+x,y,-z
-x,1/2+y,1/2+z
1/2+x,1/2-y,1/2+z
loop_
_atom_site_type_symbol
_atom_site_label
_atom_site_fract_x
_atom_site_fract_y
_atom_site_fract_z
Si Si1 0.624078 0.879416 0.369531
Si Si2 0.607044 0.305816 0.471674
Si Si3 0.558178 0.131259 0.468558
Si Si4 0.866759 0.219253 0.134885
Si Si5 0.250000 0.000000 0.352906
Si Si6 0.862485 0.303824 0.702149
Si Si7 0.624814 0.427334 0.232295
O O1 0.872297 0.888064 0.408125
O O2 0.526516 0.798695 0.381235
O O3 0.670969 0.885436 0.305923
O O4 0.432585 0.944271 0.383075
O O5 0.313759 0.330602 0.483452
O O6 0.571991 0.218777 0.471250
O O7 0.752197 0.321464 0.416266
O O8 0.290659 0.105971 0.493354
O O9 0.105759 0.184274 0.166593
O O10 0.606745 0.230580 0.170328
O O11 0.426719 0.045526 0.312397
O O12 0.790378 0.250000 0.750000
O O13 0.981785 0.376457 0.726589
O O14 0.750000 0.500000 0.255877
#
# Coordination Sequence:
#
# PCOD9410666 Si02
#       7
#     8   8   8   8   4   8   8
#     4  10  21  37  56  79 108 152 198 236 287 344
#     4   9  17  33  53  79 113 150 182 225 291 347
#     4   9  19  32  52  76 104 141 188 244 291 327
#     4  11  23  35  60  88 120 147 192 243 290 344
#     4  10  22  38  58  72 104 156 204 230 276 346
#     4  12  23  37  57  89 120 151 192 243 294 335
#     4  10  23  39  58  79 111 160 197 233 281 352
#
# _framework density 21.702898000000001
#
# number of rings (size 3 to 8) (size 9 to 14) (size 15 to 20)
#    0.000    1.846    1.538    2.308    6.462    2.462 
#    0.000    0.769    0.000    0.000    0.000    0.000 
#    0.000   12.308    0.000    0.000    0.000    0.000 
#
# Total GULP energy -290435.348987 kJ/mol
# GULP energy per Si atom -5585.295173 kJ/mol
# Density = 2.165350 g / cm^3
# Si number density = 21.702898 Si / 1000 Ang^3
#
#
#
# Elastic Constant Matrix: (Units=GPa)
#
#
# Indices 1 2 3 4 5 6 
#
# 1 77.6314 -8.2186 11.3228 0.0000 0.0000 0.0000
# 2 -8.2186 26.5710 10.3101 0.0000 0.0000 0.0000
# 3 11.3228 10.3101 68.7377 0.0000 0.0000 0.0000
# 4 0.0000 0.0000 0.0000 15.4153 0.0000 0.0000
# 5 0.0000 0.0000 0.0000 0.0000 0.4948 0.0000
# 6 0.0000 0.0000 0.0000 0.0000 0.0000 20.3725
#
#
#
# Elastic Compliance Matrix: (Units=1/GPa)
#
#
# Indices 1 2 3 4 5 6 
#
# 1 0.013921 0.005517 -0.003120 0.000000 0.000000 0.000000
# 2 0.005517 0.042147 -0.007230 0.000000 0.000000 0.000000
# 3 -0.003120 -0.007230 0.016147 0.000000 0.000000 0.000000
# 4 0.000000 0.000000 0.000000 0.064871 0.000000 0.000000
# 5 0.000000 0.000000 0.000000 0.000000 2.020996 0.000000
# 6 0.000000 0.000000 0.000000 0.000000 0.000000 0.049086
#
#
# Mechanical properties :
#
#
# Convention : Reuss Voigt Hill
#
# Bulk Modulus (GPa) = 15.98845 22.19654 19.09249
# Shear Modulus (GPa) = 2.23445 17.89156 10.06301
#
# Velocity S-wave (km/s) = 1.01578 2.87433 2.15564
# Velocity P-wave (km/s) = 2.95951 4.61143 3.87453
#
# Compressibility (1/GPa) = 0.06254516
#
# Stress axis : x y z
#
# Youngs Moduli (GPa) = 71.83636 23.72661 61.93265
#
# Poissons Ratio (x) = -0.13089 0.19326
# Poissons Ratio (y) = -0.39629 0.44780
# Poissons Ratio (z) = 0.22416 0.17155
#
# Static dielectric constant tensor:
#      x y z
#    x 1.895310 0.000000 0.000000 
#    y 0.000000 1.792470 0.000000 
#    z 0.000000 0.000000 1.846580 
# 
# From -- ./inp_files/35180.got.cif
#   From: 2010.05.17/outbox.cif.g08.bks.cpg/sg52_18_cif.got.tgz:35180.got - 2010.06.03 12:15:38.
