data_PCOD9410918
_publ_section_title
;
Structure prediction by ZEFSAII (Michael W. Deem and Ramdas Pophale) SiO2 
 PCOD9410918
Probable space group: P N N A
;
_chemical_formula_sum "Si O2"
_cell_formula_units_Z 36
_cell_length_a 16.454611
_cell_length_b 7.850372
_cell_length_c 14.153620
_cell_angle_alpha 90.000000
_cell_angle_beta 90.000000
_cell_angle_gamma 90.000000
_cell_volume 1828.291280
_symmetry_space_group_name_H-M "P N N A"
_symmetry_group_IT_number 52
_symmetry_cell_setting 'orthorhombic'
loop_
_space_group_symop_operation_xyz
x,y,z
1/2-x,-y,z
x,1/2-y,1/2-z
1/2-x,1/2+y,1/2-z
-x,-y,-z
1/2+x,y,-z
-x,1/2+y,1/2+z
1/2+x,1/2-y,1/2+z
loop_
_atom_site_type_symbol
_atom_site_label
_atom_site_fract_x
_atom_site_fract_y
_atom_site_fract_z
Si Si1 0.586438 0.067269 0.368233
Si Si2 0.300759 0.847480 0.463301
Si Si3 0.916798 0.952383 0.145236
Si Si4 0.968170 0.740035 0.863405
Si Si5 0.250000 0.500000 0.532637
O O1 0.663839 0.076023 0.437443
O O2 0.602841 0.033431 0.257259
O O3 0.552986 0.260251 0.373125
O O4 0.523563 0.919931 0.394322
O O5 0.380479 0.786403 0.407983
O O6 0.247297 0.678452 0.477406
O O7 0.250000 0.000000 0.417309
O O8 0.832020 0.983597 0.093058
O O9 0.983316 0.088161 0.112641
O O10 0.960548 0.750000 0.750000
#
# Coordination Sequence:
#
# PCOD9410918 Si02
#       5
#     8   8   8   8   4
#     4   9  19  35  59  85 111 146 185 234 291 349
#     4  11  23  37  55  86 116 151 196 239 287 332
#     4   9  19  36  57  87 116 147 183 229 296 353
#     4  10  21  39  58  79 111 156 199 234 280 341
#     4  10  22  36  56  90 120 146 180 238 300 350
#
# _framework density 19.690517
#
# number of rings (size 3 to 8) (size 9 to 14) (size 15 to 20)
#    0.000    2.222    0.000    2.000    1.556    5.333 
#   10.000    0.000    0.000    0.000    0.000    0.000 
#    0.000    0.000    0.000    0.000    0.000    0.000 
#
# Total GULP energy -200864.234620 kJ/mol
# GULP energy per Si atom -5579.562073 kJ/mol
# Density = 1.964570 g / cm^3
# Si number density = 19.690517 Si / 1000 Ang^3
#
#
#
# Elastic Constant Matrix: (Units=GPa)
#
#
# Indices 1 2 3 4 5 6 
#
# 1 80.0200 80.9117 14.3885 0.0000 0.0000 0.0000
# 2 80.9117 160.1321 33.1533 0.0000 0.0000 0.0000
# 3 14.3885 33.1533 32.0647 0.0000 0.0000 0.0000
# 4 0.0000 0.0000 0.0000 19.2008 0.0000 0.0000
# 5 0.0000 0.0000 0.0000 0.0000 23.4023 0.0000
# 6 0.0000 0.0000 0.0000 0.0000 0.0000 38.6968
#
#
#
# Elastic Compliance Matrix: (Units=1/GPa)
#
#
# Indices 1 2 3 4 5 6 
#
# 1 0.025697 -0.013483 0.002410 0.000000 0.000000 0.000000
# 2 -0.013483 0.015020 -0.009480 0.000000 0.000000 0.000000
# 3 0.002410 -0.009480 0.039907 0.000000 0.000000 0.000000
# 4 0.000000 0.000000 0.000000 0.052081 0.000000 0.000000
# 5 0.000000 0.000000 0.000000 0.000000 0.042731 0.000000
# 6 0.000000 0.000000 0.000000 0.000000 0.000000 0.025842
#
#
# Mechanical properties :
#
#
# Convention : Reuss Voigt Hill
#
# Bulk Modulus (GPa) = 25.30490 58.79156 42.04823
# Shear Modulus (GPa) = 19.56507 25.84420 22.70463
#
# Velocity S-wave (km/s) = 3.15561 3.62680 3.39938
# Velocity P-wave (km/s) = 5.11433 6.88919 6.06701
#
# Compressibility (1/GPa) = 0.03951804
#
# Stress axis : x y z
#
# Youngs Moduli (GPa) = 38.91527 66.57674 25.05804
#
# Poissons Ratio (x) = 0.89766 -0.06038
# Poissons Ratio (y) = 0.52470 0.23755
# Poissons Ratio (z) = -0.09378 0.63114
#
# Static dielectric constant tensor:
#      x y z
#    x 1.643300 0.000000 0.000000 
#    y 0.000000 1.719710 0.000000 
#    z 0.000000 0.000000 1.732910 
# 
# From -- ./inp_files/26738.got.cif
#   From: 2010.05.17/outbox.cif.g08.bks.cpg/sg52_14_cif.got.tgz:26738.got - 2010.06.03 12:15:38.
