data_PCOD9410823
_publ_section_title
;
Structure prediction by ZEFSAII (Michael W. Deem and Ramdas Pophale) SiO2 
 PCOD9410823
Probable space group: P N N A
;
_chemical_formula_sum "Si O2"
_cell_formula_units_Z 60
_cell_length_a 9.342268
_cell_length_b 24.509486
_cell_length_c 9.890585
_cell_angle_alpha 90.000000
_cell_angle_beta 90.000000
_cell_angle_gamma 90.000000
_cell_volume 2264.688657
_symmetry_space_group_name_H-M "P N N A"
_symmetry_group_IT_number 52
_symmetry_cell_setting 'orthorhombic'
loop_
_space_group_symop_operation_xyz
x,y,z
1/2-x,-y,z
x,1/2-y,1/2-z
1/2-x,1/2+y,1/2-z
-x,-y,-z
1/2+x,y,-z
-x,1/2+y,1/2+z
1/2+x,1/2-y,1/2+z
loop_
_atom_site_type_symbol
_atom_site_label
_atom_site_fract_x
_atom_site_fract_y
_atom_site_fract_z
Si Si1 0.199853 0.734240 0.490857
Si Si2 0.206656 0.116312 0.901112
Si Si3 0.748033 0.584729 0.826576
Si Si4 0.852151 0.409115 0.113440
Si Si5 0.029228 0.189098 0.471177
Si Si6 0.507002 0.499410 0.777817
Si Si7 0.439041 0.333799 0.279269
Si Si8 0.750000 0.000000 0.067507
O O1 0.240779 0.675707 0.551432
O O2 0.330817 0.773855 0.452714
O O3 0.099714 0.772172 0.581101
O O4 0.095845 0.718648 0.367508
O O5 0.276396 0.101895 0.755489
O O6 0.246726 0.062283 0.989811
O O7 0.040130 0.128026 0.871668
O O8 0.594532 0.552936 0.812894
O O9 0.869068 0.546067 0.767837
O O10 0.716213 0.639771 0.748011
O O11 0.751101 0.598095 0.986270
O O12 0.985392 0.367680 0.100327
O O13 0.904301 0.471863 0.111271
O O14 0.010961 0.175513 0.632517
O O15 0.399856 0.503145 0.651493
#
# Coordination Sequence:
#
# PCOD9410823 Si02
#       8
#     8   8   8   8   8   8   8   4
#     4  12  26  47  72 102 137 198 244 293 363 435
#     4  11  24  47  70 102 144 192 239 300 366 438
#     4  10  22  38  67 102 145 183 236 299 370 436
#     4  10  24  38  69 102 145 184 240 297 370 442
#     4  11  26  45  72 105 143 188 241 302 373 428
#     4  10  21  38  62 107 141 186 233 301 369 443
#     4  11  24  47  74 101 147 188 239 308 368 427
#     4  10  22  44  72 102 144 198 242 298 378 430
#
# _framework density 26.493708999999999
#
# number of rings (size 3 to 8) (size 9 to 14) (size 15 to 20)
#    0.000    1.333    2.667    1.600    7.467    8.000 
#    2.400    2.000    0.000    0.000    0.000    0.000 
#    0.000    0.000    0.000    0.000    0.000    0.000 
#
# Total GULP energy -335396.130201 kJ/mol
# GULP energy per Si atom -5589.935503 kJ/mol
# Density = 2.643341 g / cm^3
# Si number density = 26.493709 Si / 1000 Ang^3
#
#
#
# Elastic Constant Matrix: (Units=GPa)
#
#
# Indices 1 2 3 4 5 6 
#
# 1 118.6086 31.1089 5.7132 0.0000 0.0000 0.0000
# 2 31.1089 155.3355 11.4984 0.0000 0.0000 0.0000
# 3 5.7132 11.4984 64.5176 0.0000 0.0000 0.0000
# 4 0.0000 0.0000 0.0000 36.3109 0.0000 0.0000
# 5 0.0000 0.0000 0.0000 0.0000 21.3342 0.0000
# 6 0.0000 0.0000 0.0000 0.0000 0.0000 64.6525
#
#
#
# Elastic Compliance Matrix: (Units=1/GPa)
#
#
# Indices 1 2 3 4 5 6 
#
# 1 0.008913 -0.001750 -0.000477 0.000000 0.000000 0.000000
# 2 -0.001750 0.006867 -0.001069 0.000000 0.000000 0.000000
# 3 -0.000477 -0.001069 0.015732 0.000000 0.000000 0.000000
# 4 0.000000 0.000000 0.000000 0.027540 0.000000 0.000000
# 5 0.000000 0.000000 0.000000 0.000000 0.046873 0.000000
# 6 0.000000 0.000000 0.000000 0.000000 0.000000 0.015467
#
#
# Mechanical properties :
#
#
# Convention : Reuss Voigt Hill
#
# Bulk Modulus (GPa) = 40.12751 48.34473 44.23612
# Shear Modulus (GPa) = 36.68597 43.80225 40.24411
#
# Velocity S-wave (km/s) = 3.72520 4.07050 3.90167
# Velocity P-wave (km/s) = 5.80360 6.35446 6.08527
#
# Compressibility (1/GPa) = 0.02492056
#
# Stress axis : x y z
#
# Youngs Moduli (GPa) = 112.19573 145.61957 63.56294
#
# Poissons Ratio (x) = 0.25478 0.03035
# Poissons Ratio (y) = 0.19630 0.06795
# Poissons Ratio (z) = 0.05357 0.15566
#
# Static dielectric constant tensor:
#      x y z
#    x 2.085070 0.000000 0.000000 
#    y 0.000000 2.200210 0.000000 
#    z 0.000000 0.000000 2.088120 
# 
# From -- ./inp_files/17130.got.cif
#   From: 2010.05.17/outbox.cif.g08.bks.cpg/sg52_9_cif.got.tgz:17130.got - 2010.06.03 12:15:38.
