data_PCOD9410972
_publ_section_title
;
Structure prediction by ZEFSAII (Michael W. Deem and Ramdas Pophale) SiO2 
 PCOD9410972
Probable space group: P N N A
;
_chemical_formula_sum "Si O2"
_cell_formula_units_Z 64
_cell_length_a 14.619782
_cell_length_b 11.901497
_cell_length_c 18.831138
_cell_angle_alpha 90.000000
_cell_angle_beta 90.000000
_cell_angle_gamma 90.000000
_cell_volume 3276.567010
_symmetry_space_group_name_H-M "P N N A"
_symmetry_group_IT_number 52
_symmetry_cell_setting 'orthorhombic'
loop_
_space_group_symop_operation_xyz
x,y,z
1/2-x,-y,z
x,1/2-y,1/2-z
1/2-x,1/2+y,1/2-z
-x,-y,-z
1/2+x,y,-z
-x,1/2+y,1/2+z
1/2+x,1/2-y,1/2+z
loop_
_atom_site_type_symbol
_atom_site_label
_atom_site_fract_x
_atom_site_fract_y
_atom_site_fract_z
Si Si1 0.526037 0.535631 0.304378
Si Si2 0.708890 0.620412 0.365306
Si Si3 0.130860 0.697254 0.958643
Si Si4 0.953675 0.863782 0.458178
Si Si5 0.596057 0.202849 0.172345
Si Si6 0.783078 0.881431 0.564385
Si Si7 0.530093 0.934129 0.357895
Si Si8 0.111855 0.266883 0.331300
O O1 0.619881 0.604583 0.316551
O O2 0.542152 0.414638 0.339737
O O3 0.525106 0.513710 0.219904
O O4 0.441194 0.612456 0.331936
O O5 0.750000 0.500000 0.385376
O O6 0.670679 0.685688 0.432913
O O7 0.794801 0.680817 0.329086
O O8 0.123706 0.618926 0.888188
O O9 0.197975 0.648726 0.016097
O O10 0.031060 0.695732 0.994386
O O11 0.923720 0.784751 0.393174
O O12 0.867770 0.891906 0.508865
O O13 0.992620 0.974052 0.417946
O O14 0.571161 0.250000 0.250000
O O15 0.808843 0.777399 0.616276
O O16 0.750000 0.000000 0.599796
O O17 0.464741 0.826985 0.348436
O O18 0.141960 0.250000 0.250000
#
# Coordination Sequence:
#
# PCOD9410972 Si02
#       8
#     8   8   8   8   8   8   8   8
#     4  10  21  39  63  90 124 170 214 261 321 393
#     4  10  22  38  56  87 125 165 214 259 318 393
#     4  12  23  38  62  91 128 162 211 265 323 380
#     4  12  23  40  61  97 132 166 210 263 330 383
#     4  11  23  39  59  90 134 169 211 263 325 391
#     4  12  23  39  65  97 129 164 209 272 328 379
#     4  11  20  36  64  93 125 159 207 264 321 387
#     4  10  22  41  67  90 121 169 220 263 317 386
#
# _framework density 19.532640000000001
#
# number of rings (size 3 to 8) (size 9 to 14) (size 15 to 20)
#    0.000    1.000    6.250    1.125    1.750    0.000 
#    4.500    2.500    0.000    0.000    0.000    0.000 
#    0.000    0.000    0.000    0.000    0.000    0.000 
#
# Total GULP energy -356633.247432 kJ/mol
# GULP energy per Si atom -5572.394491 kJ/mol
# Density = 1.948818 g / cm^3
# Si number density = 19.532640 Si / 1000 Ang^3
#
#
#
# Elastic Constant Matrix: (Units=GPa)
#
#
# Indices 1 2 3 4 5 6 
#
# 1 60.0472 22.1102 12.2213 0.0000 0.0000 0.0000
# 2 22.1102 63.6356 37.4403 0.0000 0.0000 0.0000
# 3 12.2213 37.4403 81.3556 0.0000 0.0000 0.0000
# 4 0.0000 0.0000 0.0000 30.5006 0.0000 0.0000
# 5 0.0000 0.0000 0.0000 0.0000 16.5236 0.0000
# 6 0.0000 0.0000 0.0000 0.0000 0.0000 23.0302
#
#
#
# Elastic Compliance Matrix: (Units=1/GPa)
#
#
# Indices 1 2 3 4 5 6 
#
# 1 0.019101 -0.006786 0.000253 0.000000 0.000000 0.000000
# 2 -0.006786 0.023960 -0.010007 0.000000 0.000000 0.000000
# 3 0.000253 -0.010007 0.016859 0.000000 0.000000 0.000000
# 4 0.000000 0.000000 0.000000 0.032786 0.000000 0.000000
# 5 0.000000 0.000000 0.000000 0.000000 0.060519 0.000000
# 6 0.000000 0.000000 0.000000 0.000000 0.000000 0.043421
#
#
# Mechanical properties :
#
#
# Convention : Reuss Voigt Hill
#
# Bulk Modulus (GPa) = 37.25664 38.73133 37.99399
# Shear Modulus (GPa) = 20.94927 22.89532 21.92229
#
# Velocity S-wave (km/s) = 3.27850 3.42739 3.35377
# Velocity P-wave (km/s) = 5.78332 5.96110 5.87289
#
# Compressibility (1/GPa) = 0.02684086
#
# Stress axis : x y z
#
# Youngs Moduli (GPa) = 52.35451 41.73640 59.31561
#
# Poissons Ratio (x) = 0.28321 -0.01503
# Poissons Ratio (y) = 0.35526 0.59358
# Poissons Ratio (z) = -0.01327 0.41766
#
# Static dielectric constant tensor:
#      x y z
#    x 1.702370 0.000000 0.000000 
#    y 0.000000 1.747080 0.000000 
#    z 0.000000 0.000000 1.719010 
# 
# From -- ./inp_files/33299.got.cif
#   From: 2010.05.17/outbox.cif.g08.bks.cpg/sg52_17_cif.got.tgz:33299.got - 2010.06.03 12:15:38.
