data_PCOD9410933
_publ_section_title
;
Structure prediction by ZEFSAII (Michael W. Deem and Ramdas Pophale) SiO2 
 PCOD9410933
Probable space group: P N N A
;
_chemical_formula_sum "Si O2"
_cell_formula_units_Z 40
_cell_length_a 9.525275
_cell_length_b 23.535028
_cell_length_c 7.892286
_cell_angle_alpha 90.000000
_cell_angle_beta 90.000000
_cell_angle_gamma 90.000000
_cell_volume 1769.273843
_symmetry_space_group_name_H-M "P N N A"
_symmetry_group_IT_number 52
_symmetry_cell_setting 'orthorhombic'
loop_
_space_group_symop_operation_xyz
x,y,z
1/2-x,-y,z
x,1/2-y,1/2-z
1/2-x,1/2+y,1/2-z
-x,-y,-z
1/2+x,y,-z
-x,1/2+y,1/2+z
1/2+x,1/2-y,1/2+z
loop_
_atom_site_type_symbol
_atom_site_label
_atom_site_fract_x
_atom_site_fract_y
_atom_site_fract_z
Si Si1 0.337260 0.632451 0.775477
Si Si2 0.181251 0.794301 0.994277
Si Si3 0.920429 0.844770 0.814654
Si Si4 0.626971 0.457994 0.525748
Si Si5 0.098104 0.834189 0.489730
O O1 0.274881 0.686302 0.668884
O O2 0.335568 0.580108 0.641456
O O3 0.223599 0.627307 0.929801
O O4 0.495138 0.642321 0.843555
O O5 0.161615 0.728488 0.030292
O O6 0.030683 0.821760 0.954349
O O7 0.266757 0.821994 0.147037
O O8 0.984696 0.825438 0.640352
O O9 0.912729 0.912058 0.832912
O O10 0.750000 0.500000 0.575176
O O11 0.500000 0.500000 0.500000
#
# Coordination Sequence:
#
# PCOD9410933 Si02
#       5
#     8   8   8   8   8
#     4  10  23  40  62  94 129 167 212 260 316 381
#     4  10  21  39  60  92 134 171 202 247 309 387
#     4  10  21  39  63  92 123 166 217 254 307 384
#     4  11  23  44  67  89 122 168 219 274 321 375
#     4  11  22  40  62  97 138 166 205 267 315 377
#
# _framework density 22.608146999999999
#
# number of rings (size 3 to 8) (size 9 to 14) (size 15 to 20)
#    0.000    1.600    0.000    7.200    0.000    6.400 
#    0.000   13.000    0.000    0.000    0.000    0.000 
#    0.000    0.000    0.000    0.000    0.000    0.000 
#
# Total GULP energy -223592.605603 kJ/mol
# GULP energy per Si atom -5589.815140 kJ/mol
# Density = 2.255669 g / cm^3
# Si number density = 22.608147 Si / 1000 Ang^3
#
#
#
# Elastic Constant Matrix: (Units=GPa)
#
#
# Indices 1 2 3 4 5 6 
#
# 1 103.4115 -1.7444 8.8431 0.0000 0.0000 0.0000
# 2 -1.7444 87.2804 3.8526 0.0000 0.0000 0.0000
# 3 8.8431 3.8526 49.1967 0.0000 0.0000 0.0000
# 4 0.0000 0.0000 0.0000 8.6476 0.0000 0.0000
# 5 0.0000 0.0000 0.0000 0.0000 52.0490 0.0000
# 6 0.0000 0.0000 0.0000 0.0000 0.0000 49.3795
#
#
#
# Elastic Compliance Matrix: (Units=1/GPa)
#
#
# Indices 1 2 3 4 5 6 
#
# 1 0.009828 0.000275 -0.001788 0.000000 0.000000 0.000000
# 2 0.000275 0.011505 -0.000950 0.000000 0.000000 0.000000
# 3 -0.001788 -0.000950 0.020722 0.000000 0.000000 0.000000
# 4 0.000000 0.000000 0.000000 0.115640 0.000000 0.000000
# 5 0.000000 0.000000 0.000000 0.000000 0.019213 0.000000
# 6 0.000000 0.000000 0.000000 0.000000 0.000000 0.020251
#
#
# Mechanical properties :
#
#
# Convention : Reuss Voigt Hill
#
# Bulk Modulus (GPa) = 26.93349 29.08790 28.01069
# Shear Modulus (GPa) = 23.31427 37.27771 30.29599
#
# Velocity S-wave (km/s) = 3.21477 4.06502 3.66464
# Velocity P-wave (km/s) = 5.07136 5.90987 5.50660
#
# Compressibility (1/GPa) = 0.03712850
#
# Stress axis : x y z
#
# Youngs Moduli (GPa) = 101.75369 86.92040 48.25700
#
# Poissons Ratio (x) = -0.02393 0.08629
# Poissons Ratio (y) = -0.02802 0.04586
# Poissons Ratio (z) = 0.18194 0.08261
#
# Static dielectric constant tensor:
#      x y z
#    x 1.818610 0.000000 0.000000 
#    y 0.000000 1.781740 0.000000 
#    z 0.000000 0.000000 2.017900 
# 
# From -- ./inp_files/7390.got.cif
#   From: 2010.05.17/outbox.cif.g08.bks.cpg/sg52_4_cif.got.tgz:7390.got - 2010.06.03 12:15:38.
