data_PCOD9410282
_publ_section_title
;
Structure prediction by ZEFSAII (Michael W. Deem and Ramdas Pophale) SiO2 
 PCOD9410282
Probable space group: P N N A
;
_chemical_formula_sum "Si O2"
_cell_formula_units_Z 52
_cell_length_a 8.862428
_cell_length_b 15.755459
_cell_length_c 18.831429
_cell_angle_alpha 90.000000
_cell_angle_beta 90.000000
_cell_angle_gamma 90.000000
_cell_volume 2629.462957
_symmetry_space_group_name_H-M "P N N A"
_symmetry_group_IT_number 52
_symmetry_cell_setting 'orthorhombic'
loop_
_space_group_symop_operation_xyz
x,y,z
1/2-x,-y,z
x,1/2-y,1/2-z
1/2-x,1/2+y,1/2-z
-x,-y,-z
1/2+x,y,-z
-x,1/2+y,1/2+z
1/2+x,1/2-y,1/2+z
loop_
_atom_site_type_symbol
_atom_site_label
_atom_site_fract_x
_atom_site_fract_y
_atom_site_fract_z
Si Si1 0.709087 0.308004 0.680766
Si Si2 0.109134 0.283780 0.924674
Si Si3 0.250000 0.000000 0.337068
Si Si4 0.240283 0.834526 0.721143
Si Si5 0.246693 0.671085 0.073458
Si Si6 0.501617 0.539331 0.272936
Si Si7 0.960074 0.875306 0.153099
O O1 0.734717 0.250000 0.750000
O O2 0.666979 0.242381 0.619375
O O3 0.593660 0.382764 0.695910
O O4 0.865419 0.351163 0.657938
O O5 0.196332 0.322189 0.857030
O O6 0.109118 0.181088 0.910820
O O7 0.933274 0.310844 0.924809
O O8 0.189761 0.318237 0.994668
O O9 0.270254 0.918157 0.386804
O O10 0.393497 0.007694 0.284108
O O11 0.154841 0.750000 0.750000
O O12 0.378104 0.841773 0.776056
O O13 0.138941 0.916993 0.731807
O O14 0.551115 0.476229 0.336036
#
# Coordination Sequence:
#
# PCOD9410282 Si02
#       7
#     8   8   4   8   8   8   8
#     4  11  19  37  63  88 124 165 213 260 320 378
#     4  10  24  44  62  86 131 172 212 252 325 384
#     4  12  24  38  62  96 130 158 216 262 320 380
#     4  10  22  38  63  93 124 165 209 264 320 377
#     4  11  25  41  62  88 126 176 207 263 317 389
#     4  12  21  36  66  99 123 158 217 271 312 377
#     4  10  20  40  62  90 124 166 210 265 319 369
#
# _framework density 19.775901999999999
#
# number of rings (size 3 to 8) (size 9 to 14) (size 15 to 20)
#    0.000    1.231    3.077    4.154    2.154    1.846 
#    2.769    0.769    0.000    5.538    0.000    0.000 
#    0.000    0.000    0.000    0.000    0.000    0.000 
#
# Total GULP energy -290297.497448 kJ/mol
# GULP energy per Si atom -5582.644182 kJ/mol
# Density = 1.973089 g / cm^3
# Si number density = 19.775902 Si / 1000 Ang^3
#
#
#
# Elastic Constant Matrix: (Units=GPa)
#
#
# Indices 1 2 3 4 5 6 
#
# 1 47.5488 23.6285 10.0190 0.0000 0.0000 0.0000
# 2 23.6285 116.3044 23.6721 0.0000 0.0000 0.0000
# 3 10.0190 23.6721 79.6206 0.0000 0.0000 0.0000
# 4 0.0000 0.0000 0.0000 24.9353 0.0000 0.0000
# 5 0.0000 0.0000 0.0000 0.0000 16.5305 0.0000
# 6 0.0000 0.0000 0.0000 0.0000 0.0000 30.1793
#
#
#
# Elastic Compliance Matrix: (Units=1/GPa)
#
#
# Indices 1 2 3 4 5 6 
#
# 1 0.023593 -0.004459 -0.001643 0.000000 0.000000 0.000000
# 2 -0.004459 0.009995 -0.002410 0.000000 0.000000 0.000000
# 3 -0.001643 -0.002410 0.013483 0.000000 0.000000 0.000000
# 4 0.000000 0.000000 0.000000 0.040104 0.000000 0.000000
# 5 0.000000 0.000000 0.000000 0.000000 0.060494 0.000000
# 6 0.000000 0.000000 0.000000 0.000000 0.000000 0.033135
#
#
# Mechanical properties :
#
#
# Convention : Reuss Voigt Hill
#
# Bulk Modulus (GPa) = 33.28248 39.79032 36.53640
# Shear Modulus (GPa) = 24.05654 26.73930 25.39792
#
# Velocity S-wave (km/s) = 3.49156 3.68110 3.58758
# Velocity P-wave (km/s) = 5.75508 6.18317 5.97297
#
# Compressibility (1/GPa) = 0.03004584
#
# Stress axis : x y z
#
# Youngs Moduli (GPa) = 42.38553 100.05430 74.16760
#
# Poissons Ratio (x) = 0.44611 0.12187
# Poissons Ratio (y) = 0.18898 0.17878
# Poissons Ratio (z) = 0.06965 0.24117
#
# Static dielectric constant tensor:
#      x y z
#    x 1.718740 0.000000 0.000000 
#    y 0.000000 1.772360 0.000000 
#    z 0.000000 0.000000 1.660310 
# 
# From -- ./inp_files/35950.got.cif
#   From: 2010.05.17/outbox.cif.g08.bks.cpg/sg52_18_cif.got.tgz:35950.got - 2010.06.03 12:15:38.
