data_PCOD9410899
_publ_section_title
;
Structure prediction by ZEFSAII (Michael W. Deem and Ramdas Pophale) SiO2 
 PCOD9410899
Probable space group: P N N A
;
_chemical_formula_sum "Si O2"
_cell_formula_units_Z 56
_cell_length_a 21.769396
_cell_length_b 11.228209
_cell_length_c 11.077973
_cell_angle_alpha 90.000000
_cell_angle_beta 90.000000
_cell_angle_gamma 90.000000
_cell_volume 2707.803653
_symmetry_space_group_name_H-M "P N N A"
_symmetry_group_IT_number 52
_symmetry_cell_setting 'orthorhombic'
loop_
_space_group_symop_operation_xyz
x,y,z
1/2-x,-y,z
x,1/2-y,1/2-z
1/2-x,1/2+y,1/2-z
-x,-y,-z
1/2+x,y,-z
-x,1/2+y,1/2+z
1/2+x,1/2-y,1/2+z
loop_
_atom_site_type_symbol
_atom_site_label
_atom_site_fract_x
_atom_site_fract_y
_atom_site_fract_z
Si Si1 0.596072 0.512122 0.451097
Si Si2 0.583072 0.882121 0.292616
Si Si3 0.216181 0.344647 0.092407
Si Si4 0.152639 0.936652 0.471134
Si Si5 0.002105 0.676840 0.422522
Si Si6 0.024765 0.928208 0.338096
Si Si7 0.691163 0.080196 0.866365
O O1 0.617987 0.552293 0.318900
O O2 0.563269 0.384743 0.436866
O O3 0.545730 0.613731 0.480775
O O4 0.638569 0.493851 0.566830
O O5 0.565434 0.750000 0.250000
O O6 0.627138 0.876474 0.408330
O O7 0.523504 0.963229 0.328005
O O8 0.182657 0.434843 0.002181
O O9 0.290010 0.364276 0.086951
O O10 0.199053 0.208926 0.072750
O O11 0.191037 0.388110 0.223691
O O12 0.092955 0.953596 0.386282
O O13 0.000358 0.818875 0.420997
O O14 0.027334 0.628430 0.294885
O O15 0.750000 0.000000 0.884272
#
# Coordination Sequence:
#
# PCOD9410899 Si02
#       7
#     8   8   8   8   8   8   8
#     4  10  22  41  62  94 132 165 213 271 319 392
#     4  11  25  42  61  98 134 175 220 262 324 405
#     4  10  25  44  64 100 125 165 223 272 327 392
#     4  11  22  44  65  89 135 177 214 273 322 381
#     4   9  20  37  65  94 125 165 215 271 329 386
#     4  10  21  38  67  94 122 173 216 264 337 380
#     4  11  23  42  69  96 127 159 216 274 329 384
#
# _framework density 20.680968
#
# number of rings (size 3 to 8) (size 9 to 14) (size 15 to 20)
#    0.000    1.714    1.429    2.143    6.000    1.143 
#   10.286    0.000    0.000    0.000    0.000    0.000 
#    0.000    0.000    0.000    0.000    0.000    0.000 
#
# Total GULP energy -312330.061265 kJ/mol
# GULP energy per Si atom -5577.322523 kJ/mol
# Density = 2.063390 g / cm^3
# Si number density = 20.680968 Si / 1000 Ang^3
#
#
#
# Elastic Constant Matrix: (Units=GPa)
#
#
# Indices 1 2 3 4 5 6 
#
# 1 68.0542 38.1712 28.5790 0.0000 0.0000 0.0000
# 2 38.1712 134.0884 11.3838 0.0000 0.0000 0.0000
# 3 28.5790 11.3838 77.0410 0.0000 0.0000 0.0000
# 4 0.0000 0.0000 0.0000 32.4410 0.0000 0.0000
# 5 0.0000 0.0000 0.0000 0.0000 0.0827 0.0000
# 6 0.0000 0.0000 0.0000 0.0000 0.0000 10.8430
#
#
#
# Elastic Compliance Matrix: (Units=1/GPa)
#
#
# Indices 1 2 3 4 5 6 
#
# 1 0.020513 -0.005260 -0.006832 0.000000 0.000000 0.000000
# 2 -0.005260 0.008901 0.000636 0.000000 0.000000 0.000000
# 3 -0.006832 0.000636 0.015421 0.000000 0.000000 0.000000
# 4 0.000000 0.000000 0.000000 0.030825 0.000000 0.000000
# 5 0.000000 0.000000 0.000000 0.000000 12.089306 0.000000
# 6 0.000000 0.000000 0.000000 0.000000 0.000000 0.092226
#
#
# Mechanical properties :
#
#
# Convention : Reuss Voigt Hill
#
# Bulk Modulus (GPa) = 45.61455 48.38351 46.99903
# Shear Modulus (GPa) = 0.40692 22.07663 11.24178
#
# Velocity S-wave (km/s) = 0.44406 3.27078 2.33401
# Velocity P-wave (km/s) = 4.72939 6.14085 5.48074
#
# Compressibility (1/GPa) = 0.02192283
#
# Stress axis : x y z
#
# Youngs Moduli (GPa) = 48.74840 112.34654 64.84779
#
# Poissons Ratio (x) = 0.59089 0.44307
# Poissons Ratio (y) = 0.25639 -0.04123
# Poissons Ratio (z) = 0.33307 -0.07143
#
# Static dielectric constant tensor:
#      x y z
#    x 1.756140 0.000000 0.000000 
#    y 0.000000 1.756560 0.000000 
#    z 0.000000 0.000000 1.621430 
# 
# From -- ./inp_files/21675.got.cif
#   From: 2010.05.17/outbox.cif.g08.bks.cpg/sg52_11_cif.got.tgz:21675.got - 2010.06.03 12:15:38.
