data_PCOD9410329
_publ_section_title
;
Structure prediction by ZEFSAII (Michael W. Deem and Ramdas Pophale) SiO2 
 PCOD9410329
Probable space group: P N N A
;
_chemical_formula_sum "Si O2"
_cell_formula_units_Z 48
_cell_length_a 18.386026
_cell_length_b 9.046517
_cell_length_c 15.346097
_cell_angle_alpha 90.000000
_cell_angle_beta 90.000000
_cell_angle_gamma 90.000000
_cell_volume 2552.508591
_symmetry_space_group_name_H-M "P N N A"
_symmetry_group_IT_number 52
_symmetry_cell_setting 'orthorhombic'
loop_
_space_group_symop_operation_xyz
x,y,z
1/2-x,-y,z
x,1/2-y,1/2-z
1/2-x,1/2+y,1/2-z
-x,-y,-z
1/2+x,y,-z
-x,1/2+y,1/2+z
1/2+x,1/2-y,1/2+z
loop_
_atom_site_type_symbol
_atom_site_label
_atom_site_fract_x
_atom_site_fract_y
_atom_site_fract_z
Si Si1 0.740577 0.674963 0.341797
Si Si2 0.346521 0.827179 0.000491
Si Si3 0.314579 0.603132 0.308731
Si Si4 0.415700 0.103715 0.900790
Si Si5 0.023519 0.373226 0.063362
Si Si6 0.473491 0.571965 0.257655
O O1 0.750000 0.500000 0.330686
O O2 0.757133 0.750000 0.250000
O O3 0.793540 0.718686 0.421386
O O4 0.656069 0.689109 0.367552
O O5 0.389924 0.973795 0.966236
O O6 0.303547 0.865043 0.088968
O O7 0.401095 0.699635 0.032260
O O8 0.250000 0.500000 0.276970
O O9 0.315349 0.750000 0.250000
O O10 0.395487 0.534424 0.298964
O O11 0.469252 0.231617 0.935409
O O12 0.460025 0.028771 0.820159
O O13 0.025760 0.459625 0.155850
O O14 0.000000 0.500000 0.000000
O O15 0.478007 0.750000 0.250000
#
# Coordination Sequence:
#
# PCOD9410329 Si02
#       6
#     8   8   8   8   8   8
#     4  10  22  38  61  93 122 157 198 246 307 366
#     4  11  22  41  61  89 123 159 205 249 295 371
#     4  11  21  41  62  85 122 163 203 251 301 357
#     4  10  20  40  68  84 114 167 205 239 307 376
#     4  11  22  38  60  90 121 155 202 258 308 351
#     4   9  18  38  61  80 120 161 192 242 310 349
#
# _framework density 18.805029999999999
#
# number of rings (size 3 to 8) (size 9 to 14) (size 15 to 20)
#    0.000    1.667    5.000    3.500    0.000    4.000 
#    6.000    0.833    0.000    0.000    0.000    0.000 
#    0.000    0.000    0.000    0.000    0.000    0.000 
#
# Total GULP energy -267449.206406 kJ/mol
# GULP energy per Si atom -5571.858467 kJ/mol
# Density = 1.876223 g / cm^3
# Si number density = 18.805030 Si / 1000 Ang^3
#
#
#
# Elastic Constant Matrix: (Units=GPa)
#
#
# Indices 1 2 3 4 5 6 
#
# 1 107.7495 19.6656 41.4991 0.0000 0.0000 0.0000
# 2 19.6656 28.1541 27.9625 0.0000 0.0000 0.0000
# 3 41.4991 27.9625 144.9068 0.0000 0.0000 0.0000
# 4 0.0000 0.0000 0.0000 29.7069 0.0000 0.0000
# 5 0.0000 0.0000 0.0000 0.0000 11.8331 0.0000
# 6 0.0000 0.0000 0.0000 0.0000 0.0000 15.2273
#
#
#
# Elastic Compliance Matrix: (Units=1/GPa)
#
#
# Indices 1 2 3 4 5 6 
#
# 1 0.011124 -0.005698 -0.002086 0.000000 0.000000 0.000000
# 2 -0.005698 0.046859 -0.007410 0.000000 0.000000 0.000000
# 3 -0.002086 -0.007410 0.008928 0.000000 0.000000 0.000000
# 4 0.000000 0.000000 0.000000 0.033662 0.000000 0.000000
# 5 0.000000 0.000000 0.000000 0.000000 0.084509 0.000000
# 6 0.000000 0.000000 0.000000 0.000000 0.000000 0.065671
#
#
# Mechanical properties :
#
#
# Convention : Reuss Voigt Hill
#
# Bulk Modulus (GPa) = 27.38087 51.00720 39.19404
# Shear Modulus (GPa) = 17.04634 24.13236 20.58935
#
# Velocity S-wave (km/s) = 3.01404 3.58619 3.31249
# Velocity P-wave (km/s) = 5.16765 6.65814 5.95967
#
# Compressibility (1/GPa) = 0.03652185
#
# Stress axis : x y z
#
# Youngs Moduli (GPa) = 89.89340 21.34064 112.00182
#
# Poissons Ratio (x) = 0.12160 0.23366
# Poissons Ratio (y) = 0.51224 0.82998
# Poissons Ratio (z) = 0.18754 0.15814
#
# Static dielectric constant tensor:
#      x y z
#    x 1.726630 0.000000 0.000000 
#    y 0.000000 1.616020 0.000000 
#    z 0.000000 0.000000 2.009190 
# 
# From -- ./inp_files/28064.got.cif
#   From: 2010.05.17/outbox.cif.g08.bks.cpg/sg52_15_cif.got.tgz:28064.got - 2010.06.03 12:15:38.
