data_PCOD9410183
_publ_section_title
;
Structure prediction by ZEFSAII (Michael W. Deem and Ramdas Pophale) SiO2 
 PCOD9410183
Probable space group: P N N A
;
_chemical_formula_sum "Si O2"
_cell_formula_units_Z 48
_cell_length_a 15.682594
_cell_length_b 7.732798
_cell_length_c 20.954190
_cell_angle_alpha 90.000000
_cell_angle_beta 90.000000
_cell_angle_gamma 90.000000
_cell_volume 2541.121568
_symmetry_space_group_name_H-M "P N N A"
_symmetry_group_IT_number 52
_symmetry_cell_setting 'orthorhombic'
loop_
_space_group_symop_operation_xyz
x,y,z
1/2-x,-y,z
x,1/2-y,1/2-z
1/2-x,1/2+y,1/2-z
-x,-y,-z
1/2+x,y,-z
-x,1/2+y,1/2+z
1/2+x,1/2-y,1/2+z
loop_
_atom_site_type_symbol
_atom_site_label
_atom_site_fract_x
_atom_site_fract_y
_atom_site_fract_z
Si Si1 0.887874 0.357185 0.961504
Si Si2 0.991531 0.883870 0.867329
Si Si3 0.606684 0.779829 0.825639
Si Si4 0.157661 0.561358 0.560068
Si Si5 0.893689 0.750000 0.750000
Si Si6 0.750000 0.500000 0.720928
Si Si7 0.579464 0.273322 0.995207
O O1 0.883733 0.352702 0.884381
O O2 0.867950 0.549445 0.987299
O O3 0.987580 0.322763 0.976299
O O4 0.840926 0.204571 0.002293
O O5 0.956062 0.773923 0.808891
O O6 0.939886 0.812436 0.927327
O O7 0.960395 0.077544 0.850946
O O8 0.090628 0.872806 0.886579
O O9 0.585269 0.750000 0.750000
O O10 0.701401 0.861057 0.821477
O O11 0.250000 0.500000 0.583046
O O12 0.118153 0.382423 0.534833
O O13 0.827595 0.590847 0.757584
#
# Coordination Sequence:
#
# PCOD9410183 Si02
#       7
#     8   8   8   8   4   4   8
#     4  10  21  37  63  88 119 160 201 251 308 363
#     4  10  21  40  62  84 123 168 200 250 312 370
#     4  11  21  36  57  84 125 158 198 238 304 375
#     4  11  22  41  63  89 123 161 214 262 298 355
#     4  10  22  36  58  86 124 160 196 246 314 370
#     4  10  22  36  50  88 124 154 194 242 290 382
#     4  10  20  39  61  89 118 154 208 249 306 365
#
# _framework density 18.889296000000002
#
# number of rings (size 3 to 8) (size 9 to 14) (size 15 to 20)
#    0.000    1.667    4.167    1.000    5.833    0.667 
#    0.000    0.000    1.833    0.000    0.000    0.000 
#    0.000    0.000    0.000    0.000    0.000    0.000 
#
# Total GULP energy -267270.031926 kJ/mol
# GULP energy per Si atom -5568.125665 kJ/mol
# Density = 1.884630 g / cm^3
# Si number density = 18.889296 Si / 1000 Ang^3
#
#
#
# Elastic Constant Matrix: (Units=GPa)
#
#
# Indices 1 2 3 4 5 6 
#
# 1 82.3793 15.3301 43.2499 0.0000 0.0000 0.0000
# 2 15.3301 82.3117 25.0638 0.0000 0.0000 0.0000
# 3 43.2499 25.0638 113.1196 0.0000 0.0000 0.0000
# 4 0.0000 0.0000 0.0000 19.9532 0.0000 0.0000
# 5 0.0000 0.0000 0.0000 0.0000 12.9554 0.0000
# 6 0.0000 0.0000 0.0000 0.0000 0.0000 23.8757
#
#
#
# Elastic Compliance Matrix: (Units=1/GPa)
#
#
# Indices 1 2 3 4 5 6 
#
# 1 0.015288 -0.001145 -0.005591 0.000000 0.000000 0.000000
# 2 -0.001145 0.013114 -0.002468 0.000000 0.000000 0.000000
# 3 -0.005591 -0.002468 0.011525 0.000000 0.000000 0.000000
# 4 0.000000 0.000000 0.000000 0.050117 0.000000 0.000000
# 5 0.000000 0.000000 0.000000 0.000000 0.077188 0.000000
# 6 0.000000 0.000000 0.000000 0.000000 0.000000 0.041884
#
#
# Mechanical properties :
#
#
# Convention : Reuss Voigt Hill
#
# Bulk Modulus (GPa) = 46.47269 49.45537 47.96403
# Shear Modulus (GPa) = 21.30423 24.30132 22.80277
#
# Velocity S-wave (km/s) = 3.36199 3.59069 3.47822
# Velocity P-wave (km/s) = 6.30291 6.59009 6.44810
#
# Compressibility (1/GPa) = 0.02151801
#
# Stress axis : x y z
#
# Youngs Moduli (GPa) = 65.41290 76.25670 86.76934
#
# Poissons Ratio (x) = 0.08729 0.48516
# Poissons Ratio (y) = 0.07488 0.21414
# Poissons Ratio (z) = 0.36575 0.18820
#
# Static dielectric constant tensor:
#      x y z
#    x 1.657010 0.000000 0.000000 
#    y 0.000000 1.631650 0.000000 
#    z 0.000000 0.000000 1.672280 
# 
# From -- ./inp_files/37221.got.cif
#   From: 2010.05.17/outbox.cif.g08.bks.cpg/sg52_19_cif.got.tgz:37221.got - 2010.06.03 12:15:38.
