data_PCOD9410887
_publ_section_title
;
Structure prediction by ZEFSAII (Michael W. Deem and Ramdas Pophale) SiO2 
 PCOD9410887
Probable space group: P N N A
;
_chemical_formula_sum "Si O2"
_cell_formula_units_Z 48
_cell_length_a 18.650360
_cell_length_b 10.056237
_cell_length_c 11.345130
_cell_angle_alpha 90.000000
_cell_angle_beta 90.000000
_cell_angle_gamma 90.000000
_cell_volume 2127.806817
_symmetry_space_group_name_H-M "P N N A"
_symmetry_group_IT_number 52
_symmetry_cell_setting 'orthorhombic'
loop_
_space_group_symop_operation_xyz
x,y,z
1/2-x,-y,z
x,1/2-y,1/2-z
1/2-x,1/2+y,1/2-z
-x,-y,-z
1/2+x,y,-z
-x,1/2+y,1/2+z
1/2+x,1/2-y,1/2+z
loop_
_atom_site_type_symbol
_atom_site_label
_atom_site_fract_x
_atom_site_fract_y
_atom_site_fract_z
Si Si1 0.458086 0.568724 0.336292
Si Si2 0.707995 0.706756 0.115094
Si Si3 0.926220 0.318099 0.496576
Si Si4 0.804982 0.608023 0.754184
Si Si5 0.843386 0.921123 0.475009
Si Si6 0.988385 0.635826 0.152555
O O1 0.516246 0.668492 0.390674
O O2 0.441797 0.447830 0.425967
O O3 0.379584 0.626150 0.314004
O O4 0.491051 0.497445 0.221484
O O5 0.708226 0.750000 0.250000
O O6 0.654338 0.805117 0.047713
O O7 0.788639 0.693608 0.068109
O O8 0.676286 0.558648 0.091640
O O9 0.945492 0.192579 0.577824
O O10 0.750000 0.500000 0.705834
O O11 0.766731 0.750000 0.750000
O O12 0.827365 0.565134 0.886490
O O13 0.922838 0.883832 0.436075
O O14 0.970406 0.750000 0.250000
#
# Coordination Sequence:
#
# PCOD9410887 Si02
#       6
#     8   8   8   8   8   8
#     4  10  23  42  66  99 128 178 235 280 345 418
#     4  11  23  40  64  89 133 179 217 291 342 407
#     4  10  22  41  65  96 131 169 234 280 342 418
#     4  12  27  44  69  99 143 182 231 295 349 420
#     4  11  24  42  61 100 133 174 237 277 342 429
#     4  10  21  38  66  91 131 175 217 289 340 398
#
# _framework density 22.558437999999999
#
# number of rings (size 3 to 8) (size 9 to 14) (size 15 to 20)
#    0.000    1.333    1.667    3.500    2.333    6.667 
#    0.000    3.333    0.000    0.000    0.000    0.000 
#    0.000    0.000    0.000    0.000    0.000    0.000 
#
# Total GULP energy -268590.228223 kJ/mol
# GULP energy per Si atom -5595.629755 kJ/mol
# Density = 2.250709 g / cm^3
# Si number density = 22.558438 Si / 1000 Ang^3
#
#
#
# Elastic Constant Matrix: (Units=GPa)
#
#
# Indices 1 2 3 4 5 6 
#
# 1 74.8544 9.3489 4.2700 0.0000 0.0000 0.0000
# 2 9.3489 73.4721 0.3603 0.0000 0.0000 0.0000
# 3 4.2700 0.3603 57.0235 0.0000 0.0000 0.0000
# 4 0.0000 0.0000 0.0000 25.7244 0.0000 0.0000
# 5 0.0000 0.0000 0.0000 0.0000 17.4227 0.0000
# 6 0.0000 0.0000 0.0000 0.0000 0.0000 30.9382
#
#
#
# Elastic Compliance Matrix: (Units=1/GPa)
#
#
# Indices 1 2 3 4 5 6 
#
# 1 0.013633 -0.001730 -0.001010 0.000000 0.000000 0.000000
# 2 -0.001730 0.013830 0.000042 0.000000 0.000000 0.000000
# 3 -0.001010 0.000042 0.017612 0.000000 0.000000 0.000000
# 4 0.000000 0.000000 0.000000 0.038874 0.000000 0.000000
# 5 0.000000 0.000000 0.000000 0.000000 0.057396 0.000000
# 6 0.000000 0.000000 0.000000 0.000000 0.000000 0.032323
#
#
# Mechanical properties :
#
#
# Convention : Reuss Voigt Hill
#
# Bulk Modulus (GPa) = 25.20140 25.92315 25.56228
# Shear Modulus (GPa) = 26.00242 27.57512 26.78877
#
# Velocity S-wave (km/s) = 3.39878 3.50006 3.44979
# Velocity P-wave (km/s) = 5.15734 5.27734 5.21769
#
# Compressibility (1/GPa) = 0.03968034
#
# Stress axis : x y z
#
# Youngs Moduli (GPa) = 73.35193 72.30400 56.77951
#
# Poissons Ratio (x) = 0.12507 0.05734
# Poissons Ratio (y) = 0.12688 -0.00239
# Poissons Ratio (z) = 0.07408 -0.00305
#
# Static dielectric constant tensor:
#      x y z
#    x 1.807000 0.000000 0.000000 
#    y 0.000000 2.003580 0.000000 
#    z 0.000000 0.000000 1.841310 
# 
# From -- ./inp_files/20637.got.cif
#   From: 2010.05.17/outbox.cif.g08.bks.cpg/sg52_11_cif.got.tgz:20637.got - 2010.06.03 12:15:38.
