data_PCOD9410643
_publ_section_title
;
Structure prediction by ZEFSAII (Michael W. Deem and Ramdas Pophale) SiO2 
 PCOD9410643
Probable space group: P N N A
;
_chemical_formula_sum "Si O2"
_cell_formula_units_Z 40
_cell_length_a 10.281352
_cell_length_b 29.976252
_cell_length_c 5.356655
_cell_angle_alpha 90.000000
_cell_angle_beta 90.000000
_cell_angle_gamma 90.000000
_cell_volume 1650.901779
_symmetry_space_group_name_H-M "P N N A"
_symmetry_group_IT_number 52
_symmetry_cell_setting 'orthorhombic'
loop_
_space_group_symop_operation_xyz
x,y,z
1/2-x,-y,z
x,1/2-y,1/2-z
1/2-x,1/2+y,1/2-z
-x,-y,-z
1/2+x,y,-z
-x,1/2+y,1/2+z
1/2+x,1/2-y,1/2+z
loop_
_atom_site_type_symbol
_atom_site_label
_atom_site_fract_x
_atom_site_fract_y
_atom_site_fract_z
Si Si1 0.476585 0.198962 0.195849
Si Si2 0.948205 0.948948 0.299196
Si Si3 0.368692 0.969301 0.204117
Si Si4 0.351918 0.124852 0.483206
Si Si5 0.738062 0.345241 0.490467
O O1 0.505164 0.250000 0.250000
O O2 0.440513 0.169372 0.439773
O O3 0.598772 0.174829 0.069687
O O4 0.346921 0.193567 0.028653
O O5 0.841285 0.951928 0.516569
O O6 0.056206 0.916256 0.410868
O O7 0.903745 0.936175 0.020679
O O8 0.009361 0.997785 0.251459
O O9 0.250000 0.000000 0.116492
O O10 0.290838 0.126246 0.755969
O O11 0.249007 0.130325 0.257002
#
# Coordination Sequence:
#
# PCOD9410643 Si02
#       5
#     8   8   8   8   8
#     4  10  26  44  70  95 135 171 223 273 339 398
#     4  10  21  39  59  91 127 164 215 262 321 390
#     4  10  21  36  62  90 126 168 212 263 322 388
#     4  10  24  41  65  96 131 175 222 276 335 396
#     4  10  25  43  66  97 129 176 216 277 328 404
#
# _framework density 24.229184
#
# number of rings (size 3 to 8) (size 9 to 14) (size 15 to 20)
#    1.200    0.800    0.000    1.800    5.600    3.200 
#    0.000    0.000    0.000    0.000    0.000    0.000 
#    0.000    0.000    0.000    0.000    0.000    0.000 
#
# Total GULP energy -223519.965684 kJ/mol
# GULP energy per Si atom -5587.999142 kJ/mol
# Density = 2.417404 g / cm^3
# Si number density = 24.229184 Si / 1000 Ang^3
#
#
#
# Elastic Constant Matrix: (Units=GPa)
#
#
# Indices 1 2 3 4 5 6 
#
# 1 76.8725 3.3731 1.4916 0.0000 0.0000 0.0000
# 2 3.3731 91.7086 26.9388 0.0000 0.0000 0.0000
# 3 1.4916 26.9388 119.5403 0.0000 0.0000 0.0000
# 4 0.0000 0.0000 0.0000 23.6868 0.0000 0.0000
# 5 0.0000 0.0000 0.0000 0.0000 44.5158 0.0000
# 6 0.0000 0.0000 0.0000 0.0000 0.0000 37.5975
#
#
#
# Elastic Compliance Matrix: (Units=1/GPa)
#
#
# Indices 1 2 3 4 5 6 
#
# 1 0.013030 -0.000462 -0.000058 0.000000 0.000000 0.000000
# 2 -0.000462 0.011693 -0.002629 0.000000 0.000000 0.000000
# 3 -0.000058 -0.002629 0.008959 0.000000 0.000000 0.000000
# 4 0.000000 0.000000 0.000000 0.042218 0.000000 0.000000
# 5 0.000000 0.000000 0.000000 0.000000 0.022464 0.000000
# 6 0.000000 0.000000 0.000000 0.000000 0.000000 0.026598
#
#
# Mechanical properties :
#
#
# Convention : Reuss Voigt Hill
#
# Bulk Modulus (GPa) = 36.52003 39.08092 37.80047
# Shear Modulus (GPa) = 35.61549 38.24788 36.93169
#
# Velocity S-wave (km/s) = 3.83814 3.97745 3.90842
# Velocity P-wave (km/s) = 5.89468 6.10395 6.00023
#
# Compressibility (1/GPa) = 0.02738224
#
# Stress axis : x y z
#
# Youngs Moduli (GPa) = 76.74617 85.51788 111.62392
#
# Poissons Ratio (x) = 0.03952 0.00652
# Poissons Ratio (y) = 0.03546 0.29350
# Poissons Ratio (z) = 0.00449 0.22486
#
# Static dielectric constant tensor:
#      x y z
#    x 1.932190 0.000000 0.000000 
#    y 0.000000 1.966190 0.000000 
#    z 0.000000 0.000000 1.961090 
# 
# From -- ./inp_files/1503.got.cif
#   From: 2010.05.17/outbox.cif.g08.bks.cpg/sg52_1_cif.got.tgz:1503.got - 2010.06.03 12:15:38.
