data_PCOD9410243
_publ_section_title
;
Structure prediction by ZEFSAII (Michael W. Deem and Ramdas Pophale) SiO2 
 PCOD9410243
Probable space group: P N N A
;
_chemical_formula_sum "Si O2"
_cell_formula_units_Z 44
_cell_length_a 4.900451
_cell_length_b 15.156348
_cell_length_c 19.621119
_cell_angle_alpha 90.000000
_cell_angle_beta 90.000000
_cell_angle_gamma 90.000000
_cell_volume 1457.318208
_symmetry_space_group_name_H-M "P N N A"
_symmetry_group_IT_number 52
_symmetry_cell_setting 'orthorhombic'
loop_
_space_group_symop_operation_xyz
x,y,z
1/2-x,-y,z
x,1/2-y,1/2-z
1/2-x,1/2+y,1/2-z
-x,-y,-z
1/2+x,y,-z
-x,1/2+y,1/2+z
1/2+x,1/2-y,1/2+z
loop_
_atom_site_type_symbol
_atom_site_label
_atom_site_fract_x
_atom_site_fract_y
_atom_site_fract_z
Si Si1 0.707527 0.605610 0.800623
Si Si2 0.993422 0.067508 0.418954
Si Si3 0.242236 0.673329 0.704201
Si Si4 0.593607 0.890858 0.956925
Si Si5 0.250000 0.000000 0.849565
Si Si6 0.367367 0.711836 0.918128
O O1 0.750000 0.500000 0.789347
O O2 0.541301 0.650878 0.738302
O O3 0.536548 0.648883 0.865699
O O4 0.987356 0.611601 0.843749
O O5 0.852182 0.150162 0.458377
O O6 0.750000 0.000000 0.417453
O O7 0.250000 0.000000 0.435264
O O8 0.111926 0.750000 0.750000
O O9 0.114503 0.576814 0.696171
O O10 0.218101 0.717082 0.630622
O O11 0.467810 0.944396 0.893697
O O12 0.572167 0.784992 0.949433
O O13 0.898209 0.911979 0.978909
#
# Coordination Sequence:
#
# PCOD9410243 Si02
#       6
#     8   8   8   8   4   8
#     4  10  20  39  68 101 145 199 246 291 378 452
#     4  11  21  38  71 100 139 201 247 299 377 450
#     4   9  21  41  66 109 152 197 248 304 372 450
#     4  11  26  48  81 108 144 197 260 322 394 448
#     4  10  22  48  76 110 156 200 254 322 376 460
#     4  10  22  44  69 107 148 190 253 320 378 452
#
# _framework density 30.192443999999998
#
# number of rings (size 3 to 8) (size 9 to 14) (size 15 to 20)
#    0.000    1.818    3.636    0.545    2.545    5.818 
#    6.545   13.636    0.000    5.455    0.000    0.000 
#    0.000    0.000    0.000    0.000    0.000    0.000 
#
# Total GULP energy -244984.307317 kJ/mol
# GULP energy per Si atom -5567.825166 kJ/mol
# Density = 3.012372 g / cm^3
# Si number density = 30.192444 Si / 1000 Ang^3
#
#
#
# Elastic Constant Matrix: (Units=GPa)
#
#
# Indices 1 2 3 4 5 6 
#
# 1 129.2963 74.7247 31.3540 0.0000 0.0000 0.0000
# 2 74.7247 294.8754 53.6506 0.0000 0.0000 0.0000
# 3 31.3540 53.6506 62.8372 0.0000 0.0000 0.0000
# 4 0.0000 0.0000 0.0000 45.7580 0.0000 0.0000
# 5 0.0000 0.0000 0.0000 0.0000 27.6724 0.0000
# 6 0.0000 0.0000 0.0000 0.0000 0.0000 68.6216
#
#
#
# Elastic Compliance Matrix: (Units=1/GPa)
#
#
# Indices 1 2 3 4 5 6 
#
# 1 0.009577 -0.001844 -0.003204 0.000000 0.000000 0.000000
# 2 -0.001844 0.004370 -0.002811 0.000000 0.000000 0.000000
# 3 -0.003204 -0.002811 0.019913 0.000000 0.000000 0.000000
# 4 0.000000 0.000000 0.000000 0.021854 0.000000 0.000000
# 5 0.000000 0.000000 0.000000 0.000000 0.036137 0.000000
# 6 0.000000 0.000000 0.000000 0.000000 0.000000 0.014573
#
#
# Mechanical properties :
#
#
# Convention : Reuss Voigt Hill
#
# Bulk Modulus (GPa) = 55.12225 89.60748 72.36486
# Shear Modulus (GPa) = 39.00483 50.22906 44.61694
#
# Velocity S-wave (km/s) = 3.59816 4.08319 3.84832
# Velocity P-wave (km/s) = 5.96314 7.20924 6.61559
#
# Compressibility (1/GPa) = 0.01814149
#
# Stress axis : x y z
#
# Youngs Moduli (GPa) = 104.41854 228.83426 50.21825
#
# Poissons Ratio (x) = 0.42194 0.16091
# Poissons Ratio (y) = 0.19254 0.14117
# Poissons Ratio (z) = 0.33458 0.64327
#
# Static dielectric constant tensor:
#      x y z
#    x 2.512550 0.000000 0.000000 
#    y 0.000000 2.362200 0.000000 
#    z 0.000000 0.000000 2.646690 
# 
# From -- ./inp_files/41646.got.cif
#   From: 2010.05.17/outbox.cif.g08.bks.cpg/sg52_21_cif.got.tgz:41646.got - 2010.06.03 12:15:38.
