data_PCOD9410026
_publ_section_title
;
Structure prediction by ZEFSAII (Michael W. Deem and Ramdas Pophale) SiO2 
 PCOD9410026
Probable space group: P N N A
;
_chemical_formula_sum "Si O2"
_cell_formula_units_Z 40
_cell_length_a 12.153723
_cell_length_b 14.338878
_cell_length_c 12.343807
_cell_angle_alpha 90.000000
_cell_angle_beta 90.000000
_cell_angle_gamma 90.000000
_cell_volume 2151.164520
_symmetry_space_group_name_H-M "P N N A"
_symmetry_group_IT_number 52
_symmetry_cell_setting 'orthorhombic'
loop_
_space_group_symop_operation_xyz
x,y,z
1/2-x,-y,z
x,1/2-y,1/2-z
1/2-x,1/2+y,1/2-z
-x,-y,-z
1/2+x,y,-z
-x,1/2+y,1/2+z
1/2+x,1/2-y,1/2+z
loop_
_atom_site_type_symbol
_atom_site_label
_atom_site_fract_x
_atom_site_fract_y
_atom_site_fract_z
Si Si1 0.780241 0.107685 0.742360
Si Si2 0.504294 0.926725 0.847848
Si Si3 0.828761 0.739676 0.591530
Si Si4 0.215271 0.182855 0.851422
Si Si5 0.461154 0.131757 0.904565
O O1 0.912159 0.113531 0.758328
O O2 0.725656 0.171312 0.649312
O O3 0.731245 0.151067 0.853008
O O4 0.750000 0.000000 0.729510
O O5 0.378287 0.895414 0.837225
O O6 0.510517 0.038555 0.850427
O O7 0.540348 0.889917 0.966706
O O8 0.810456 0.736138 0.463788
O O9 0.957648 0.719370 0.613727
O O10 0.207014 0.250000 0.750000
O O11 0.338832 0.146107 0.862563
#
# Coordination Sequence:
#
# PCOD9410026 Si02
#       5
#     8   8   8   8   8
#     4  11  21  38  65  91 116 152 207 255 299 354
#     4  10  21  36  62  89 118 156 204 256 299 354
#     4  10  23  38  61  90 117 159 203 245 299 361
#     4  11  24  37  58  88 126 162 195 246 307 365
#     4  10  20  38  60  89 121 153 206 253 300 350
#
# _framework density 18.594579
#
# number of rings (size 3 to 8) (size 9 to 14) (size 15 to 20)
#    0.000    1.600    4.000    0.600    5.600    0.000 
#    0.000    2.000    0.000    3.600    0.000    0.000 
#    0.000    0.000    0.000    0.000    0.000    0.000 
#
# Total GULP energy -223176.398055 kJ/mol
# GULP energy per Si atom -5579.409951 kJ/mol
# Density = 1.855226 g / cm^3
# Si number density = 18.594579 Si / 1000 Ang^3
#
#
#
# Elastic Constant Matrix: (Units=GPa)
#
#
# Indices 1 2 3 4 5 6 
#
# 1 142.7036 49.2832 36.4671 0.0000 0.0000 0.0000
# 2 49.2832 114.4661 48.5899 0.0000 0.0000 0.0000
# 3 36.4671 48.5899 93.4173 0.0000 0.0000 0.0000
# 4 0.0000 0.0000 0.0000 12.7121 0.0000 0.0000
# 5 0.0000 0.0000 0.0000 0.0000 18.0095 0.0000
# 6 0.0000 0.0000 0.0000 0.0000 0.0000 27.5073
#
#
#
# Elastic Compliance Matrix: (Units=1/GPa)
#
#
# Indices 1 2 3 4 5 6 
#
# 1 0.008463 -0.002876 -0.001807 0.000000 0.000000 0.000000
# 2 -0.002876 0.012189 -0.005217 0.000000 0.000000 0.000000
# 3 -0.001807 -0.005217 0.014124 0.000000 0.000000 0.000000
# 4 0.000000 0.000000 0.000000 0.078665 0.000000 0.000000
# 5 0.000000 0.000000 0.000000 0.000000 0.055526 0.000000
# 6 0.000000 0.000000 0.000000 0.000000 0.000000 0.036354
#
#
# Mechanical properties :
#
#
# Convention : Reuss Voigt Hill
#
# Bulk Modulus (GPa) = 66.78350 68.80751 67.79551
# Shear Modulus (GPa) = 21.72826 26.06223 23.89525
#
# Velocity S-wave (km/s) = 3.42208 3.74786 3.58867
# Velocity P-wave (km/s) = 7.18385 7.47081 7.32874
#
# Compressibility (1/GPa) = 0.01497376
#
# Stress axis : x y z
#
# Youngs Moduli (GPa) = 118.16422 82.03903 70.80175
#
# Poissons Ratio (x) = 0.23598 0.12797
# Poissons Ratio (y) = 0.33989 0.36939
# Poissons Ratio (z) = 0.21358 0.42802
#
# Static dielectric constant tensor:
#      x y z
#    x 1.715310 0.000000 0.000000 
#    y 0.000000 1.627130 0.000000 
#    z 0.000000 0.000000 1.624050 
# 
# From -- ./inp_files/18001.got.cif
#   From: 2010.05.17/outbox.cif.g08.bks.cpg/sg52_10_cif.got.tgz:18001.got - 2010.06.03 12:15:38.
