data_PCOD9410795
_publ_section_title
;
Structure prediction by ZEFSAII (Michael W. Deem and Ramdas Pophale) SiO2 
 PCOD9410795
Probable space group: P N N A
;
_chemical_formula_sum "Si O2"
_cell_formula_units_Z 56
_cell_length_a 20.328315
_cell_length_b 9.046347
_cell_length_c 15.206432
_cell_angle_alpha 90.000000
_cell_angle_beta 90.000000
_cell_angle_gamma 90.000000
_cell_volume 2796.417095
_symmetry_space_group_name_H-M "P N N A"
_symmetry_group_IT_number 52
_symmetry_cell_setting 'orthorhombic'
loop_
_space_group_symop_operation_xyz
x,y,z
1/2-x,-y,z
x,1/2-y,1/2-z
1/2-x,1/2+y,1/2-z
-x,-y,-z
1/2+x,y,-z
-x,1/2+y,1/2+z
1/2+x,1/2-y,1/2+z
loop_
_atom_site_type_symbol
_atom_site_label
_atom_site_fract_x
_atom_site_fract_y
_atom_site_fract_z
Si Si1 0.496966 0.680690 0.999275
Si Si2 0.730548 0.831338 0.535645
Si Si3 0.599787 0.825465 0.653174
Si Si4 0.573010 0.422280 0.727586
Si Si5 0.056389 0.851156 0.833753
Si Si6 0.312001 0.422888 0.588938
Si Si7 0.639392 0.344468 0.554613
O O1 0.540352 0.720777 0.912267
O O2 0.500000 0.500000 0.000000
O O3 0.535098 0.753184 0.082153
O O4 0.423467 0.753879 0.012603
O O5 0.669415 0.816324 0.603168
O O6 0.708063 0.735675 0.450953
O O7 0.798125 0.759965 0.571125
O O8 0.750000 0.000000 0.516040
O O9 0.599717 0.750000 0.750000
O O10 0.589498 0.994399 0.683715
O O11 0.570340 0.250000 0.750000
O O12 0.501662 0.464396 0.689646
O O13 0.620486 0.428411 0.644461
O O14 0.063566 0.750000 0.750000
O O15 0.125752 0.920684 0.850258
O O16 0.250000 0.500000 0.632565
O O17 0.334233 0.528835 0.509443
#
# Coordination Sequence:
#
# PCOD9410795 Si02
#       7
#     8   8   8   8   8   8   8
#     4  11  22  41  66  97 132 174 217 275 330 394
#     4  11  22  41  63  94 131 175 218 270 331 405
#     4  12  25  38  64 101 136 168 222 270 328 402
#     4  10  21  38  59  94 127 168 213 257 323 392
#     4  10  21  39  68  87 123 169 216 273 328 386
#     4  10  22  41  64  93 122 167 224 267 330 393
#     4  10  23  39  66  90 132 176 218 265 329 391
#
# _framework density 20.025624000000001
#
# number of rings (size 3 to 8) (size 9 to 14) (size 15 to 20)
#    0.000    1.429    1.429    5.143    2.000    2.857 
#    0.000    0.714    3.143    0.000    0.000    0.000 
#    0.000    0.000    0.000    0.000    0.000    0.000 
#
# Total GULP energy -312344.213109 kJ/mol
# GULP energy per Si atom -5577.575234 kJ/mol
# Density = 1.998004 g / cm^3
# Si number density = 20.025624 Si / 1000 Ang^3
#
#
#
# Elastic Constant Matrix: (Units=GPa)
#
#
# Indices 1 2 3 4 5 6 
#
# 1 140.0575 23.8762 28.0395 0.0000 0.0000 0.0000
# 2 23.8762 65.2716 14.5195 0.0000 0.0000 0.0000
# 3 28.0395 14.5195 48.5192 0.0000 0.0000 0.0000
# 4 0.0000 0.0000 0.0000 23.2467 0.0000 0.0000
# 5 0.0000 0.0000 0.0000 0.0000 -948.1973 0.0000
# 6 0.0000 0.0000 0.0000 0.0000 0.0000 -70.5564
#
#
#
# Elastic Compliance Matrix: (Units=1/GPa)
#
#
# Indices 1 2 3 4 5 6 
#
# 1 0.008339 -0.002119 -0.004185 0.000000 0.000000 0.000000
# 2 -0.002119 0.016952 -0.003848 0.000000 0.000000 0.000000
# 3 -0.004185 -0.003848 0.024180 0.000000 0.000000 0.000000
# 4 0.000000 0.000000 0.000000 0.043017 0.000000 0.000000
# 5 0.000000 0.000000 0.000000 0.000000 -0.001055 0.000000
# 6 0.000000 0.000000 0.000000 0.000000 0.000000 -0.014173
#
#
# Mechanical properties :
#
#
# Convention : Reuss Voigt Hill
#
# Bulk Modulus (GPa) = 34.28594 42.96875 38.62735
# Shear Modulus (GPa) = 46.60371 -186.60719 -70.00174
#
# Velocity S-wave (km/s) = 4.82934 -9.66367 -5.91878
# Velocity P-wave (km/s) = 6.94658 10.14948 5.23244
#
# Compressibility (1/GPa) = 0.02916647
#
# Stress axis : x y z
#
# Youngs Moduli (GPa) = 119.91755 58.99045 41.35581
#
# Poissons Ratio (x) = 0.12503 0.17307
# Poissons Ratio (y) = 0.25416 0.15914
# Poissons Ratio (z) = 0.50185 0.22700
#
# Static dielectric constant tensor:
#      x y z
#    x 1.769940 0.000000 0.000000 
#    y 0.000000 1.671340 0.000000 
#    z 0.000000 0.000000 1.360340 
# 
# From -- ./inp_files/28756.got.cif
#   From: 2010.05.17/outbox.cif.g08.bks.cpg/sg52_15_cif.got.tgz:28756.got - 2010.06.03 12:15:38.
