data_PCOD9410658
_publ_section_title
;
Structure prediction by ZEFSAII (Michael W. Deem and Ramdas Pophale) SiO2 
 PCOD9410658
Probable space group: P N N A
;
_chemical_formula_sum "Si O2"
_cell_formula_units_Z 44
_cell_length_a 5.616876
_cell_length_b 19.195994
_cell_length_c 20.936343
_cell_angle_alpha 90.000000
_cell_angle_beta 90.000000
_cell_angle_gamma 90.000000
_cell_volume 2257.388284
_symmetry_space_group_name_H-M "P N N A"
_symmetry_group_IT_number 52
_symmetry_cell_setting 'orthorhombic'
loop_
_space_group_symop_operation_xyz
x,y,z
1/2-x,-y,z
x,1/2-y,1/2-z
1/2-x,1/2+y,1/2-z
-x,-y,-z
1/2+x,y,-z
-x,1/2+y,1/2+z
1/2+x,1/2-y,1/2+z
loop_
_atom_site_type_symbol
_atom_site_label
_atom_site_fract_x
_atom_site_fract_y
_atom_site_fract_z
Si Si1 0.250000 0.000000 0.728950
Si Si2 0.250000 0.000000 0.349164
Si Si3 0.282065 0.250000 0.250000
Si Si4 0.355525 0.248185 0.988255
Si Si5 0.106793 0.772813 0.658442
Si Si6 0.342574 0.401477 0.034634
Si Si7 0.329226 0.850277 0.770390
O O1 0.500006 0.010107 0.689447
O O2 0.203955 0.068597 0.770852
O O3 0.200493 0.935167 0.396674
O O4 0.142393 0.213666 0.307828
O O5 0.421019 0.186393 0.217097
O O6 0.367779 0.276284 0.916047
O O7 0.604191 0.210383 0.002136
O O8 0.348172 0.317311 0.032529
O O9 0.278630 0.824050 0.697590
O O10 0.159686 0.694301 0.683476
O O11 0.603803 0.422080 0.006270
#
# Coordination Sequence:
#
# PCOD9410658 Si02
#       7
#     4   4   4   8   8   8   8
#     4  12  28  37  62  90 116 165 204 246 298 360
#     4  12  26  37  54  78 130 161 204 236 278 354
#     4   8  18  38  66  78 114 154 202 254 312 334
#     4  10  23  33  56  85 114 150 197 239 298 353
#     4   9  20  39  59  85 115 157 201 261 298 353
#     4  10  21  37  50  73 111 166 201 229 280 329
#     4   9  22  38  60  85 114 158 207 253 306 346
#
# _framework density 19.49155
#
# number of rings (size 3 to 8) (size 9 to 14) (size 15 to 20)
#    0.000    2.545    0.000    1.636   20.364    0.000 
#    0.000    0.000    0.000    0.000    0.000    1.273 
#    0.000    0.000    0.000    0.000    0.000    0.000 
#
# Total GULP energy -244976.235770 kJ/mol
# GULP energy per Si atom -5567.641722 kJ/mol
# Density = 1.944719 g / cm^3
# Si number density = 19.491550 Si / 1000 Ang^3
#
#
#
# Elastic Constant Matrix: (Units=GPa)
#
#
# Indices 1 2 3 4 5 6 
#
# 1 140.4957 1.3920 3.0632 0.0000 0.0000 0.0000
# 2 1.3920 86.0186 -3.5328 0.0000 0.0000 0.0000
# 3 3.0632 -3.5328 29.4710 0.0000 0.0000 0.0000
# 4 0.0000 0.0000 0.0000 55.3991 0.0000 0.0000
# 5 0.0000 0.0000 0.0000 0.0000 7.1836 0.0000
# 6 0.0000 0.0000 0.0000 0.0000 0.0000 5.3472
#
#
#
# Elastic Compliance Matrix: (Units=1/GPa)
#
#
# Indices 1 2 3 4 5 6 
#
# 1 0.007136 -0.000147 -0.000759 0.000000 0.000000 0.000000
# 2 -0.000147 0.011686 0.001416 0.000000 0.000000 0.000000
# 3 -0.000759 0.001416 0.034180 0.000000 0.000000 0.000000
# 4 0.000000 0.000000 0.000000 0.018051 0.000000 0.000000
# 5 0.000000 0.000000 0.000000 0.000000 0.139207 0.000000
# 6 0.000000 0.000000 0.000000 0.000000 0.000000 0.187013
#
#
# Mechanical properties :
#
#
# Convention : Reuss Voigt Hill
#
# Bulk Modulus (GPa) = 18.51089 28.64778 23.57934
# Shear Modulus (GPa) = 12.06973 30.59018 21.32995
#
# Velocity S-wave (km/s) = 2.49113 3.96587 3.31164
# Velocity P-wave (km/s) = 4.21803 5.97497 5.17166
#
# Compressibility (1/GPa) = 0.05402224
#
# Stress axis : x y z
#
# Youngs Moduli (GPa) = 140.14119 85.57299 29.25662
#
# Poissons Ratio (x) = 0.01255 0.02221
# Poissons Ratio (y) = 0.02055 -0.04143
# Poissons Ratio (z) = 0.10640 -0.12118
#
# Static dielectric constant tensor:
#      x y z
#    x 1.892420 0.000000 0.000000 
#    y 0.000000 1.682800 0.000000 
#    z 0.000000 0.000000 1.674920 
# 
# From -- ./inp_files/38821.got.cif
#   From: 2010.05.17/outbox.cif.g08.bks.cpg/sg52_20_cif.got.tgz:38821.got - 2010.06.03 12:15:38.
