data_PCOD9410696
_publ_section_title
;
Structure prediction by ZEFSAII (Michael W. Deem and Ramdas Pophale) SiO2 
 PCOD9410696
Probable space group: P N N A
;
_chemical_formula_sum "Si O2"
_cell_formula_units_Z 28
_cell_length_a 9.127158
_cell_length_b 13.394569
_cell_length_c 9.217874
_cell_angle_alpha 90.000000
_cell_angle_beta 90.000000
_cell_angle_gamma 90.000000
_cell_volume 1126.925172
_symmetry_space_group_name_H-M "P N N A"
_symmetry_group_IT_number 52
_symmetry_cell_setting 'orthorhombic'
loop_
_space_group_symop_operation_xyz
x,y,z
1/2-x,-y,z
x,1/2-y,1/2-z
1/2-x,1/2+y,1/2-z
-x,-y,-z
1/2+x,y,-z
-x,1/2+y,1/2+z
1/2+x,1/2-y,1/2+z
loop_
_atom_site_type_symbol
_atom_site_label
_atom_site_fract_x
_atom_site_fract_y
_atom_site_fract_z
Si Si1 0.326765 0.250000 0.750000
Si Si2 0.412355 0.119136 0.183527
Si Si3 0.417006 0.885803 0.221536
Si Si4 0.073281 0.198858 0.549524
O O1 0.433817 0.169381 0.820846
O O2 0.228900 0.195669 0.630662
O O3 0.241842 0.148058 0.161037
O O4 0.456725 0.141130 0.350186
O O5 0.521933 0.186689 0.088746
O O6 0.427909 0.000493 0.175746
O O7 0.414600 0.853771 0.393323
#
# Coordination Sequence:
#
# PCOD9410696 Si02
#       4
#     4   8   8   8
#     4  10  22  34  58  92 126 168 214 260 320 388
#     4   9  21  37  60  93 123 160 219 259 312 396
#     4  11  20  38  63  87 124 173 209 262 326 375
#     4  10  21  37  58  93 130 158 210 277 315 373
#
# _framework density 24.846371000000001
#
# number of rings (size 3 to 8) (size 9 to 14) (size 15 to 20)
#    0.000    2.286    0.000    4.286    0.000    6.857 
#    0.000    1.429    0.000   10.286    0.000    2.000 
#    0.000    0.000    0.000    0.000    0.000    0.000 
#
# Total GULP energy -156316.634036 kJ/mol
# GULP energy per Si atom -5582.736930 kJ/mol
# Density = 2.478982 g / cm^3
# Si number density = 24.846371 Si / 1000 Ang^3
#
#
#
# Elastic Constant Matrix: (Units=GPa)
#
#
# Indices 1 2 3 4 5 6 
#
# 1 143.4522 25.4014 3.4488 0.0000 0.0000 0.0000
# 2 25.4014 125.5941 -32.3482 0.0000 0.0000 0.0000
# 3 3.4488 -32.3482 95.3126 0.0000 0.0000 0.0000
# 4 0.0000 0.0000 0.0000 6.6963 0.0000 0.0000
# 5 0.0000 0.0000 0.0000 0.0000 362.5538 0.0000
# 6 0.0000 0.0000 0.0000 0.0000 0.0000 -238.3663
#
#
#
# Elastic Compliance Matrix: (Units=1/GPa)
#
#
# Indices 1 2 3 4 5 6 
#
# 1 0.007290 -0.001690 -0.000837 0.000000 0.000000 0.000000
# 2 -0.001690 0.009117 0.003155 0.000000 0.000000 0.000000
# 3 -0.000837 0.003155 0.011593 0.000000 0.000000 0.000000
# 4 0.000000 0.000000 0.000000 0.149336 0.000000 0.000000
# 5 0.000000 0.000000 0.000000 0.000000 0.002758 0.000000
# 6 0.000000 0.000000 0.000000 0.000000 0.000000 -0.004195
#
#
# Mechanical properties :
#
#
# Convention : Reuss Voigt Hill
#
# Bulk Modulus (GPa) = 34.18177 39.70699 36.94438
# Shear Modulus (GPa) = 27.11563 50.70056 38.90810
#
# Velocity S-wave (km/s) = 3.30711 4.52216 3.96150
# Velocity P-wave (km/s) = 5.32633 6.57892 5.98548
#
# Compressibility (1/GPa) = 0.02925536
#
# Stress axis : x y z
#
# Youngs Moduli (GPa) = 137.16713 109.68925 86.25926
#
# Poissons Ratio (x) = 0.18539 0.07224
# Poissons Ratio (y) = 0.23183 -0.27217
# Poissons Ratio (z) = 0.11487 -0.34610
#
# Static dielectric constant tensor:
#      x y z
#    x 1.933180 0.000000 0.000000 
#    y 0.000000 2.034150 0.000000 
#    z 0.000000 0.000000 2.127980 
# 
# From -- ./inp_files/16371.got.cif
#   From: 2010.05.17/outbox.cif.g08.bks.cpg/sg52_9_cif.got.tgz:16371.got - 2010.06.03 12:15:38.
