data_PCOD9410435
_publ_section_title
;
Structure prediction by ZEFSAII (Michael W. Deem and Ramdas Pophale) SiO2 
 PCOD9410435
Probable space group: P N N A
;
_chemical_formula_sum "Si O2"
_cell_formula_units_Z 48
_cell_length_a 14.606002
_cell_length_b 20.057739
_cell_length_c 8.258612
_cell_angle_alpha 90.000000
_cell_angle_beta 90.000000
_cell_angle_gamma 90.000000
_cell_volume 2419.470852
_symmetry_space_group_name_H-M "P N N A"
_symmetry_group_IT_number 52
_symmetry_cell_setting 'orthorhombic'
loop_
_space_group_symop_operation_xyz
x,y,z
1/2-x,-y,z
x,1/2-y,1/2-z
1/2-x,1/2+y,1/2-z
-x,-y,-z
1/2+x,y,-z
-x,1/2+y,1/2+z
1/2+x,1/2-y,1/2+z
loop_
_atom_site_type_symbol
_atom_site_label
_atom_site_fract_x
_atom_site_fract_y
_atom_site_fract_z
Si Si1 0.693062 0.379023 0.419462
Si Si2 0.369785 0.337368 0.381667
Si Si3 0.365029 0.308025 0.025381
Si Si4 0.230311 0.250000 0.750000
Si Si5 0.510309 0.075120 0.948122
Si Si6 0.750000 0.000000 0.312930
Si Si7 0.439084 0.442167 0.914689
O O1 0.789044 0.364624 0.505984
O O2 0.672513 0.308194 0.334500
O O3 0.613800 0.399511 0.542410
O O4 0.708488 0.440399 0.296734
O O5 0.328238 0.329340 0.202459
O O6 0.404410 0.265252 0.441716
O O7 0.453993 0.385313 0.415005
O O8 0.293686 0.291394 0.879925
O O9 0.434105 0.368275 0.990789
O O10 0.470020 0.074803 0.768009
O O11 0.500000 0.000000 0.000000
O O12 0.834621 0.030701 0.411645
O O13 0.500000 0.500000 0.000000
#
# Coordination Sequence:
#
# PCOD9410435 Si02
#       7
#     8   8   8   4   8   4   8
#     4  11  22  41  68  92 127 180 217 272 332 398
#     4  10  22  42  65  95 128 175 223 273 332 397
#     4  10  21  41  67  92 133 173 216 277 337 390
#     4  10  20  42  66  94 130 174 224 266 342 398
#     4  12  23  41  64  95 131 169 223 272 331 404
#     4  12  22  44  70  90 138 174 214 274 346 392
#     4  12  25  42  67 102 133 174 225 278 335 403
#
# _framework density 19.839047000000001
#
# number of rings (size 3 to 8) (size 9 to 14) (size 15 to 20)
#    0.000    1.000    5.000    2.000    0.000    2.667 
#    0.000    5.000    0.000    0.000    0.000    0.000 
#    0.000    0.000    0.000    0.000    0.000    0.000 
#
# Total GULP energy -267500.907359 kJ/mol
# GULP energy per Si atom -5572.935570 kJ/mol
# Density = 1.979389 g / cm^3
# Si number density = 19.839047 Si / 1000 Ang^3
#
#
#
# Elastic Constant Matrix: (Units=GPa)
#
#
# Indices 1 2 3 4 5 6 
#
# 1 68.8229 27.1765 2.8569 0.0000 0.0000 0.0000
# 2 27.1765 123.4228 23.7739 0.0000 0.0000 0.0000
# 3 2.8569 23.7739 63.4407 0.0000 0.0000 0.0000
# 4 0.0000 0.0000 0.0000 25.4932 0.0000 0.0000
# 5 0.0000 0.0000 0.0000 0.0000 20.3260 0.0000
# 6 0.0000 0.0000 0.0000 0.0000 0.0000 25.5454
#
#
#
# Elastic Compliance Matrix: (Units=1/GPa)
#
#
# Indices 1 2 3 4 5 6 
#
# 1 0.015938 -0.003633 0.000644 0.000000 0.000000 0.000000
# 2 -0.003633 0.009561 -0.003419 0.000000 0.000000 0.000000
# 3 0.000644 -0.003419 0.017015 0.000000 0.000000 0.000000
# 4 0.000000 0.000000 0.000000 0.039226 0.000000 0.000000
# 5 0.000000 0.000000 0.000000 0.000000 0.049198 0.000000
# 6 0.000000 0.000000 0.000000 0.000000 0.000000 0.039146
#
#
# Mechanical properties :
#
#
# Convention : Reuss Voigt Hill
#
# Bulk Modulus (GPa) = 33.67409 40.36679 37.02044
# Shear Modulus (GPa) = 25.93350 27.73152 26.83251
#
# Velocity S-wave (km/s) = 3.61944 3.74281 3.68164
# Velocity P-wave (km/s) = 5.87176 6.25056 6.06412
#
# Compressibility (1/GPa) = 0.02969642
#
# Stress axis : x y z
#
# Youngs Moduli (GPa) = 62.74286 104.59272 58.77137
#
# Poissons Ratio (x) = 0.38003 -0.03784
# Poissons Ratio (y) = 0.22797 0.20095
# Poissons Ratio (z) = -0.04040 0.35763
#
# Static dielectric constant tensor:
#      x y z
#    x 1.690590 0.000000 0.000000 
#    y 0.000000 1.695880 0.000000 
#    z 0.000000 0.000000 1.814640 
# 
# From -- ./inp_files/10527.got.cif
#   From: 2010.05.17/outbox.cif.g08.bks.cpg/sg52_6_cif.got.tgz:10527.got - 2010.06.03 12:15:38.
