data_PCOD9410500
_publ_section_title
;
Structure prediction by ZEFSAII (Michael W. Deem and Ramdas Pophale) SiO2 
 PCOD9410500
Probable space group: P N N A
;
_chemical_formula_sum "Si O2"
_cell_formula_units_Z 36
_cell_length_a 12.705083
_cell_length_b 10.509353
_cell_length_c 12.467303
_cell_angle_alpha 90.000000
_cell_angle_beta 90.000000
_cell_angle_gamma 90.000000
_cell_volume 1664.661751
_symmetry_space_group_name_H-M "P N N A"
_symmetry_group_IT_number 52
_symmetry_cell_setting 'orthorhombic'
loop_
_space_group_symop_operation_xyz
x,y,z
1/2-x,-y,z
x,1/2-y,1/2-z
1/2-x,1/2+y,1/2-z
-x,-y,-z
1/2+x,y,-z
-x,1/2+y,1/2+z
1/2+x,1/2-y,1/2+z
loop_
_atom_site_type_symbol
_atom_site_label
_atom_site_fract_x
_atom_site_fract_y
_atom_site_fract_z
Si Si1 0.104523 0.524546 0.181971
Si Si2 0.750000 0.000000 0.865432
Si Si3 0.750000 0.500000 0.010378
Si Si4 0.946958 0.870478 0.963245
Si Si5 0.452919 0.750000 0.250000
Si Si6 0.896564 0.674955 0.144917
O O1 0.170048 0.573095 0.284584
O O2 0.106332 0.371012 0.197456
O O3 0.986989 0.575563 0.179445
O O4 0.162080 0.554257 0.070936
O O5 0.826038 0.907102 0.931755
O O6 0.803152 0.604039 0.084944
O O7 0.002307 0.814928 0.855712
O O8 0.947034 0.770573 0.058686
O O9 0.000000 0.000000 0.000000
O O10 0.861557 0.750000 0.250000
#
# Coordination Sequence:
#
# PCOD9410500 Si02
#       6
#     8   4   4   8   4   8
#     4  10  22  46  73 104 134 187 247 300 349 425
#     4   9  22  45  74 100 128 183 249 286 352 422
#     4  11  24  43  68 102 144 187 235 294 370 424
#     4  11  24  45  71 108 142 181 245 307 359 427
#     4  10  20  44  72 104 136 176 254 290 350 446
#     4  12  26  45  67 104 151 189 236 289 369 443
#
# _framework density 21.626014999999999
#
# number of rings (size 3 to 8) (size 9 to 14) (size 15 to 20)
#    0.000    1.333    2.222    3.333    0.000    4.444 
#   14.000    0.000    0.000    0.000    0.000    0.000 
#    0.000    0.000    0.000    0.000    0.000    0.000 
#
# Total GULP energy -201031.265077 kJ/mol
# GULP energy per Si atom -5584.201808 kJ/mol
# Density = 2.157679 g / cm^3
# Si number density = 21.626015 Si / 1000 Ang^3
#
#
#
# Elastic Constant Matrix: (Units=GPa)
#
#
# Indices 1 2 3 4 5 6 
#
# 1 53.0343 46.2051 27.5504 0.0000 0.0000 0.0000
# 2 46.2051 102.6166 39.9646 0.0000 0.0000 0.0000
# 3 27.5504 39.9646 126.5182 0.0000 0.0000 0.0000
# 4 0.0000 0.0000 0.0000 38.5695 0.0000 0.0000
# 5 0.0000 0.0000 0.0000 0.0000 25.0851 0.0000
# 6 0.0000 0.0000 0.0000 0.0000 0.0000 29.1797
#
#
#
# Elastic Compliance Matrix: (Units=1/GPa)
#
#
# Indices 1 2 3 4 5 6 
#
# 1 0.031840 -0.013269 -0.002742 0.000000 0.000000 0.000000
# 2 -0.013269 0.016642 -0.002367 0.000000 0.000000 0.000000
# 3 -0.002742 -0.002367 0.009249 0.000000 0.000000 0.000000
# 4 0.000000 0.000000 0.000000 0.025927 0.000000 0.000000
# 5 0.000000 0.000000 0.000000 0.000000 0.039864 0.000000
# 6 0.000000 0.000000 0.000000 0.000000 0.000000 0.034270
#
#
# Mechanical properties :
#
#
# Convention : Reuss Voigt Hill
#
# Bulk Modulus (GPa) = 47.67752 56.62326 52.15039
# Shear Modulus (GPa) = 24.80885 29.79677 27.30281
#
# Velocity S-wave (km/s) = 3.39067 3.71593 3.55702
# Velocity P-wave (km/s) = 6.11744 6.68211 6.40600
#
# Compressibility (1/GPa) = 0.02097424
#
# Stress axis : x y z
#
# Youngs Moduli (GPa) = 31.40660 60.09068 108.12067
#
# Poissons Ratio (x) = 0.79733 0.29649
# Poissons Ratio (y) = 0.41673 0.25596
# Poissons Ratio (z) = 0.08612 0.14225
#
# Static dielectric constant tensor:
#      x y z
#    x 1.781920 0.000000 0.000000 
#    y 0.000000 1.795630 0.000000 
#    z 0.000000 0.000000 1.801950 
# 
# From -- ./inp_files/17826.got.cif
#   From: 2010.05.17/outbox.cif.g08.bks.cpg/sg52_9_cif.got.tgz:17826.got - 2010.06.03 12:15:38.
