data_PCOD9410098
_publ_section_title
;
Structure prediction by ZEFSAII (Michael W. Deem and Ramdas Pophale) SiO2 
 PCOD9410098
Probable space group: P N N A
;
_chemical_formula_sum "Si O2"
_cell_formula_units_Z 36
_cell_length_a 14.757434
_cell_length_b 13.305927
_cell_length_c 8.539771
_cell_angle_alpha 90.000000
_cell_angle_beta 90.000000
_cell_angle_gamma 90.000000
_cell_volume 1676.880873
_symmetry_space_group_name_H-M "P N N A"
_symmetry_group_IT_number 52
_symmetry_cell_setting 'orthorhombic'
loop_
_space_group_symop_operation_xyz
x,y,z
1/2-x,-y,z
x,1/2-y,1/2-z
1/2-x,1/2+y,1/2-z
-x,-y,-z
1/2+x,y,-z
-x,1/2+y,1/2+z
1/2+x,1/2-y,1/2+z
loop_
_atom_site_type_symbol
_atom_site_label
_atom_site_fract_x
_atom_site_fract_y
_atom_site_fract_z
Si Si1 0.306401 0.130151 0.989400
Si Si2 0.483483 0.271441 0.562967
Si Si3 0.583939 0.076462 0.507429
Si Si4 0.750000 0.500000 0.201831
Si Si5 0.127911 0.079476 0.129283
O O1 0.380643 0.216555 0.991834
O O2 0.284515 0.089975 0.814899
O O3 0.211443 0.149462 0.074001
O O4 0.348890 0.031883 0.072556
O O5 0.482329 0.250000 0.750000
O O6 0.539748 0.185350 0.476062
O O7 0.537796 0.375881 0.551645
O O8 0.619306 0.079839 0.685136
O O9 0.500000 0.000000 0.500000
O O10 0.665567 0.040661 0.397811
#
# Coordination Sequence:
#
# PCOD9410098 Si02
#       5
#     8   8   8   4   8
#     4  10  21  40  63  85 117 158 195 242 297 360
#     4  10  21  37  60  87 118 154 198 247 297 352
#     4  11  23  40  61  90 123 158 201 253 301 351
#     4  10  20  38  64  90 120 158 202 254 302 352
#     4   9  20  39  61  86 118 157 195 238 298 362
#
# _framework density 21.468430999999999
#
# number of rings (size 3 to 8) (size 9 to 14) (size 15 to 20)
#    0.000    2.222    0.000    4.667    0.000    5.333 
#    0.000   13.333    0.000    5.333    0.000    0.000 
#    0.000    0.000    0.000    0.000    0.000    0.000 
#
# Total GULP energy -201188.068802 kJ/mol
# GULP energy per Si atom -5588.557467 kJ/mol
# Density = 2.141957 g / cm^3
# Si number density = 21.468431 Si / 1000 Ang^3
#
#
#
# Elastic Constant Matrix: (Units=GPa)
#
#
# Indices 1 2 3 4 5 6 
#
# 1 154.4383 29.4087 70.1338 0.0000 0.0000 0.0000
# 2 29.4087 42.6470 22.7010 0.0000 0.0000 0.0000
# 3 70.1338 22.7010 91.4272 0.0000 0.0000 0.0000
# 4 0.0000 0.0000 0.0000 7.3219 0.0000 0.0000
# 5 0.0000 0.0000 0.0000 0.0000 21.5081 0.0000
# 6 0.0000 0.0000 0.0000 0.0000 0.0000 45.5903
#
#
#
# Elastic Compliance Matrix: (Units=1/GPa)
#
#
# Indices 1 2 3 4 5 6 
#
# 1 0.010336 -0.003350 -0.007097 0.000000 0.000000 0.000000
# 2 -0.003350 0.028105 -0.004409 0.000000 0.000000 0.000000
# 3 -0.007097 -0.004409 0.017476 0.000000 0.000000 0.000000
# 4 0.000000 0.000000 0.000000 0.136577 0.000000 0.000000
# 5 0.000000 0.000000 0.000000 0.000000 0.046494 0.000000
# 6 0.000000 0.000000 0.000000 0.000000 0.000000 0.021934
#
#
# Mechanical properties :
#
#
# Convention : Reuss Voigt Hill
#
# Bulk Modulus (GPa) = 38.15862 59.22217 48.69039
# Shear Modulus (GPa) = 16.70181 25.96867 21.33524
#
# Velocity S-wave (km/s) = 2.79224 3.48173 3.15587
# Velocity P-wave (km/s) = 5.31115 6.61883 6.00072
#
# Compressibility (1/GPa) = 0.02620640
#
# Stress axis : x y z
#
# Youngs Moduli (GPa) = 96.75131 35.58083 57.22014
#
# Poissons Ratio (x) = 0.11919 0.40608
# Poissons Ratio (y) = 0.32409 0.25227
# Poissons Ratio (z) = 0.68663 0.15687
#
# Static dielectric constant tensor:
#      x y z
#    x 1.779130 0.000000 0.000000 
#    y 0.000000 1.787560 0.000000 
#    z 0.000000 0.000000 1.757720 
# 
# From -- ./inp_files/9918.got.cif
#   From: 2010.05.17/outbox.cif.g08.bks.cpg/sg52_5_cif.got.tgz:9918.got - 2010.06.03 12:15:38.
