data_PCOD9410549
_publ_section_title
;
Structure prediction by ZEFSAII (Michael W. Deem and Ramdas Pophale) SiO2 
 PCOD9410549
Probable space group: P N N A
;
_chemical_formula_sum "Si O2"
_cell_formula_units_Z 44
_cell_length_a 17.793864
_cell_length_b 5.759364
_cell_length_c 17.310419
_cell_angle_alpha 90.000000
_cell_angle_beta 90.000000
_cell_angle_gamma 90.000000
_cell_volume 1773.994931
_symmetry_space_group_name_H-M "P N N A"
_symmetry_group_IT_number 52
_symmetry_cell_setting 'orthorhombic'
loop_
_space_group_symop_operation_xyz
x,y,z
1/2-x,-y,z
x,1/2-y,1/2-z
1/2-x,1/2+y,1/2-z
-x,-y,-z
1/2+x,y,-z
-x,1/2+y,1/2+z
1/2+x,1/2-y,1/2+z
loop_
_atom_site_type_symbol
_atom_site_label
_atom_site_fract_x
_atom_site_fract_y
_atom_site_fract_z
Si Si1 0.913539 0.250000 0.750000
Si Si2 0.160470 0.366854 0.171906
Si Si3 0.255546 0.749596 0.618003
Si Si4 0.369074 0.729061 0.016896
Si Si5 0.495665 0.146184 0.826129
Si Si6 0.896879 0.274251 0.476695
O O1 0.854415 0.367995 0.808884
O O2 0.970972 0.398662 0.698150
O O3 0.190905 0.250000 0.250000
O O4 0.073349 0.286656 0.165928
O O5 0.189554 0.298832 0.088306
O O6 0.250000 0.500000 0.659387
O O7 0.331316 0.755110 0.567350
O O8 0.188757 0.742890 0.554259
O O9 0.250000 0.000000 0.658648
O O10 0.411879 0.479046 0.014586
O O11 0.405378 0.986645 0.025338
O O12 0.455157 0.250000 0.750000
O O13 0.446577 0.183414 0.900769
#
# Coordination Sequence:
#
# PCOD9410549 Si02
#       6
#     4   8   8   8   8   8
#     4   8  18  36  52  70 120 152 184 224 278 338
#     4   9  20  35  53  78 111 151 186 222 276 336
#     4   8  16  34  52  74 104 138 174 222 272 316
#     4  10  21  34  57  82 109 143 185 233 276 325
#     4   9  20  35  53  78 111 151 186 222 276 336
#     4  10  21  34  57  82 109 143 185 233 276 325
#
# _framework density 24.802776000000001
#
# number of rings (size 3 to 8) (size 9 to 14) (size 15 to 20)
#    0.000    3.273    0.000    0.000   10.182    1.455 
#    0.000    0.000    0.000   19.636    0.000    0.000 
#    0.000    0.000    0.000    0.000    0.000    0.000 
#
# Total GULP energy -244988.283176 kJ/mol
# GULP energy per Si atom -5567.915527 kJ/mol
# Density = 2.474632 g / cm^3
# Si number density = 24.802776 Si / 1000 Ang^3
#
#
#
# Elastic Constant Matrix: (Units=GPa)
#
#
# Indices 1 2 3 4 5 6 
#
# 1 49.5988 13.2578 14.1562 0.0000 0.0000 0.0000
# 2 13.2578 224.5989 59.9573 0.0000 0.0000 0.0000
# 3 14.1562 59.9573 123.5538 0.0000 0.0000 0.0000
# 4 0.0000 0.0000 0.0000 -7.2971 0.0000 0.0000
# 5 0.0000 0.0000 0.0000 0.0000 18.4885 0.0000
# 6 0.0000 0.0000 0.0000 0.0000 0.0000 -16.2775
#
#
#
# Elastic Compliance Matrix: (Units=1/GPa)
#
#
# Indices 1 2 3 4 5 6 
#
# 1 0.020934 -0.000684 -0.002067 0.000000 0.000000 0.000000
# 2 -0.000684 0.005137 -0.002415 0.000000 0.000000 0.000000
# 3 -0.002067 -0.002415 0.009502 0.000000 0.000000 0.000000
# 4 0.000000 0.000000 0.000000 -0.137041 0.000000 0.000000
# 5 0.000000 0.000000 0.000000 0.000000 0.054088 0.000000
# 6 0.000000 0.000000 0.000000 0.000000 0.000000 -0.061435
#
#
# Mechanical properties :
#
#
# Convention : Reuss Voigt Hill
#
# Bulk Modulus (GPa) = 39.61436 63.61045 51.61241
# Shear Modulus (GPa) = -55.51294 19.67482 -17.91906
#
# Velocity S-wave (km/s) = -4.73607 2.81953 -2.69078
# Velocity P-wave (km/s) = 3.72836 6.02510 3.34672
#
# Compressibility (1/GPa) = 0.02524337
#
# Stress axis : x y z
#
# Youngs Moduli (GPa) = 47.76816 194.65266 105.23897
#
# Poissons Ratio (x) = 0.13315 0.21749
# Poissons Ratio (y) = 0.03268 0.25411
# Poissons Ratio (z) = 0.09872 0.47002
#
# Static dielectric constant tensor:
#      x y z
#    x 1.956690 0.000000 0.000000 
#    y 0.000000 2.137810 0.000000 
#    z 0.000000 0.000000 2.295740 
# 
# From -- ./inp_files/37801.got.cif
#   From: 2010.05.17/outbox.cif.g08.bks.cpg/sg52_19_cif.got.tgz:37801.got - 2010.06.03 12:15:38.
