data_PCOD9410698
_publ_section_title
;
Structure prediction by ZEFSAII (Michael W. Deem and Ramdas Pophale) SiO2 
 PCOD9410698
Probable space group: P N N A
;
_chemical_formula_sum "Si O2"
_cell_formula_units_Z 56
_cell_length_a 20.310745
_cell_length_b 8.040459
_cell_length_c 15.005338
_cell_angle_alpha 90.000000
_cell_angle_beta 90.000000
_cell_angle_gamma 90.000000
_cell_volume 2450.487423
_symmetry_space_group_name_H-M "P N N A"
_symmetry_group_IT_number 52
_symmetry_cell_setting 'orthorhombic'
loop_
_space_group_symop_operation_xyz
x,y,z
1/2-x,-y,z
x,1/2-y,1/2-z
1/2-x,1/2+y,1/2-z
-x,-y,-z
1/2+x,y,-z
-x,1/2+y,1/2+z
1/2+x,1/2-y,1/2+z
loop_
_atom_site_type_symbol
_atom_site_label
_atom_site_fract_x
_atom_site_fract_y
_atom_site_fract_z
Si Si1 0.500746 0.334174 0.845268
Si Si2 0.444069 0.705206 0.844761
Si Si3 0.643604 0.209149 0.845404
Si Si4 0.084913 0.660418 0.341180
Si Si5 0.666845 0.337254 0.460238
Si Si6 0.608869 0.789896 0.035196
Si Si7 0.719759 0.818907 0.346578
O O1 0.484959 0.250000 0.750000
O O2 0.475232 0.522458 0.844817
O O3 0.579460 0.326485 0.855375
O O4 0.463514 0.233555 0.923226
O O5 0.410081 0.750000 0.750000
O O6 0.505675 0.831849 0.849041
O O7 0.393653 0.728034 0.924223
O O8 0.676294 0.250000 0.750000
O O9 0.612014 0.025347 0.839367
O O10 0.683743 0.207670 0.937346
O O11 0.103191 0.750000 0.250000
O O12 0.109990 0.747188 0.430807
O O13 0.638696 0.524628 0.454196
O O14 0.727862 0.299195 0.396519
O O15 0.655514 0.673015 0.092710
O O16 0.702348 0.750000 0.250000
O O17 0.750000 0.000000 0.337014
#
# Coordination Sequence:
#
# PCOD9410698 Si02
#       7
#     8   8   8   8   8   8   8
#     4  11  21  34  56  86 120 155 192 236 286 342
#     4  11  21  34  56  86 120 155 192 236 286 342
#     4  10  21  37  59  86 118 153 190 236 286 339
#     4  10  21  37  59  86 118 153 190 236 286 339
#     4  11  23  40  60  84 116 153 193 237 287 339
#     4  11  23  40  60  84 116 153 193 237 287 339
#     4  12  26  44  65  88 115 148 189 236 284 338
#
# _framework density 22.852598
#
# number of rings (size 3 to 8) (size 9 to 14) (size 15 to 20)
#    0.000    1.143    0.000    9.000    0.000    8.000 
#    0.000    0.714    0.000    0.000    0.000    0.000 
#    0.000    0.000    0.000    0.000    0.000    0.000 
#
# Total GULP energy -313543.875041 kJ/mol
# GULP energy per Si atom -5598.997769 kJ/mol
# Density = 2.280058 g / cm^3
# Si number density = 22.852598 Si / 1000 Ang^3
#
#
#
# Elastic Constant Matrix: (Units=GPa)
#
#
# Indices 1 2 3 4 5 6 
#
# 1 21.7159 -6.6150 17.1112 0.0000 0.0000 0.0000
# 2 -6.6150 64.0667 15.1972 0.0000 0.0000 0.0000
# 3 17.1112 15.1972 165.4816 0.0000 0.0000 0.0000
# 4 0.0000 0.0000 0.0000 22.5485 0.0000 0.0000
# 5 0.0000 0.0000 0.0000 0.0000 -41.6763 0.0000
# 6 0.0000 0.0000 0.0000 0.0000 0.0000 13.6032
#
#
#
# Elastic Compliance Matrix: (Units=1/GPa)
#
#
# Indices 1 2 3 4 5 6 
#
# 1 0.052974 0.006920 -0.006113 0.000000 0.000000 0.000000
# 2 0.006920 0.016860 -0.002264 0.000000 0.000000 0.000000
# 3 -0.006113 -0.002264 0.006883 0.000000 0.000000 0.000000
# 4 0.000000 0.000000 0.000000 0.044349 0.000000 0.000000
# 5 0.000000 0.000000 0.000000 0.000000 -0.023994 0.000000
# 6 0.000000 0.000000 0.000000 0.000000 0.000000 0.073512
#
#
# Mechanical properties :
#
#
# Convention : Reuss Voigt Hill
#
# Bulk Modulus (GPa) = 13.54966 33.62792 23.58879
# Shear Modulus (GPa) = 25.23987 13.93311 19.58649
#
# Velocity S-wave (km/s) = 3.32695 2.47188 2.93077
# Velocity P-wave (km/s) = 4.54974 4.78477 4.66874
#
# Compressibility (1/GPa) = 0.07380258
#
# Stress axis : x y z
#
# Youngs Moduli (GPa) = 18.87718 59.31123 145.28569
#
# Poissons Ratio (x) = -0.41042 0.88815
# Poissons Ratio (y) = -0.13062 0.32891
# Poissons Ratio (z) = 0.11540 0.13427
#
# Static dielectric constant tensor:
#      x y z
#    x 1.849610 0.000000 0.000000 
#    y 0.000000 1.855340 0.000000 
#    z 0.000000 0.000000 1.867810 
# 
# From -- ./inp_files/28758.got.cif
#   From: 2010.05.17/outbox.cif.g08.bks.cpg/sg52_15_cif.got.tgz:28758.got - 2010.06.03 12:15:38.
