data_PCOD9410973
_publ_section_title
;
Structure prediction by ZEFSAII (Michael W. Deem and Ramdas Pophale) SiO2 
 PCOD9410973
Probable space group: P N N A
;
_chemical_formula_sum "Si O2"
_cell_formula_units_Z 48
_cell_length_a 31.573116
_cell_length_b 5.130468
_cell_length_c 14.206785
_cell_angle_alpha 90.000000
_cell_angle_beta 90.000000
_cell_angle_gamma 90.000000
_cell_volume 2301.284098
_symmetry_space_group_name_H-M "P N N A"
_symmetry_group_IT_number 52
_symmetry_cell_setting 'orthorhombic'
loop_
_space_group_symop_operation_xyz
x,y,z
1/2-x,-y,z
x,1/2-y,1/2-z
1/2-x,1/2+y,1/2-z
-x,-y,-z
1/2+x,y,-z
-x,1/2+y,1/2+z
1/2+x,1/2-y,1/2+z
loop_
_atom_site_type_symbol
_atom_site_label
_atom_site_fract_x
_atom_site_fract_y
_atom_site_fract_z
Si Si1 0.017297 0.294325 0.575610
Si Si2 0.106717 0.371011 0.649411
Si Si3 0.720458 0.749795 0.940175
Si Si4 0.437085 0.024662 0.415176
Si Si5 0.833449 0.250000 0.750000
Si Si6 0.894154 0.750000 0.750000
Si Si7 0.135432 0.863158 0.544077
O O1 0.055663 0.391389 0.639451
O O2 0.041331 0.082131 0.510580
O O3 0.000000 0.500000 0.500000
O O4 0.975688 0.189389 0.627939
O O5 0.117147 0.250000 0.750000
O O6 0.122913 0.657727 0.624337
O O7 0.126949 0.161052 0.576067
O O8 0.750000 0.500000 0.939369
O O9 0.696653 0.765008 0.840407
O O10 0.750000 0.000000 0.957078
O O11 0.682923 0.700320 0.014245
O O12 0.422251 0.804003 0.342749
O O13 0.396157 0.178177 0.454296
O O14 0.863882 0.500128 0.745745
#
# Coordination Sequence:
#
# PCOD9410973 Si02
#       7
#     8   8   8   8   4   4   8
#     4  10  21  39  63  90 133 175 229 280 328 378
#     4  11  24  42  69  97 131 175 228 282 339 396
#     4  12  25  44  71 101 134 173 218 270 337 412
#     4  10  23  40  59  93 132 184 220 277 322 392
#     4  12  26  43  66 102 142 174 222 268 328 399
#     4  12  26  39  66  96 138 184 226 258 332 403
#     4  11  23  44  69  93 134 173 222 272 344 405
#
# _framework density 20.857918999999999
#
# number of rings (size 3 to 8) (size 9 to 14) (size 15 to 20)
#    0.000    1.000    3.333    3.000    7.000    1.333 
#    0.000    0.000    0.000   10.000    0.000    0.000 
#    0.000    0.000    0.000    0.000    0.000    0.000 
#
# Total GULP energy -268157.313723 kJ/mol
# GULP energy per Si atom -5586.610703 kJ/mol
# Density = 2.081045 g / cm^3
# Si number density = 20.857919 Si / 1000 Ang^3
#
#
#
# Elastic Constant Matrix: (Units=GPa)
#
#
# Indices 1 2 3 4 5 6 
#
# 1 119.0007 28.1776 9.0053 0.0000 0.0000 0.0000
# 2 28.1776 98.1505 -13.0020 0.0000 0.0000 0.0000
# 3 9.0053 -13.0020 44.0585 0.0000 0.0000 0.0000
# 4 0.0000 0.0000 0.0000 34.6148 0.0000 0.0000
# 5 0.0000 0.0000 0.0000 0.0000 19.2984 0.0000
# 6 0.0000 0.0000 0.0000 0.0000 0.0000 34.1673
#
#
#
# Elastic Compliance Matrix: (Units=1/GPa)
#
#
# Indices 1 2 3 4 5 6 
#
# 1 0.009339 -0.003053 -0.002810 0.000000 0.000000 0.000000
# 2 -0.003053 0.011601 0.004048 0.000000 0.000000 0.000000
# 3 -0.002810 0.004048 0.024466 0.000000 0.000000 0.000000
# 4 0.000000 0.000000 0.000000 0.028889 0.000000 0.000000
# 5 0.000000 0.000000 0.000000 0.000000 0.051818 0.000000
# 6 0.000000 0.000000 0.000000 0.000000 0.000000 0.029268
#
#
# Mechanical properties :
#
#
# Convention : Reuss Voigt Hill
#
# Bulk Modulus (GPa) = 23.93770 34.39682 29.16726
# Shear Modulus (GPa) = 28.91227 33.41802 31.16515
#
# Velocity S-wave (km/s) = 3.72715 4.00706 3.86963
# Velocity P-wave (km/s) = 5.47938 6.15918 5.82920
#
# Compressibility (1/GPa) = 0.04177510
#
# Stress axis : x y z
#
# Youngs Moduli (GPa) = 107.07868 86.19798 40.87312
#
# Poissons Ratio (x) = 0.26319 0.11485
# Poissons Ratio (y) = 0.32694 -0.16544
# Poissons Ratio (z) = 0.30088 -0.34890
#
# Static dielectric constant tensor:
#      x y z
#    x 1.766540 0.000000 0.000000 
#    y 0.000000 1.736900 0.000000 
#    z 0.000000 0.000000 1.782480 
# 
# From -- ./inp_files/29455.got.cif
#   From: 2010.05.17/outbox.cif.g08.bks.cpg/sg52_15_cif.got.tgz:29455.got - 2010.06.03 12:15:38.
