data_PCOD9410097
_publ_section_title
;
Structure prediction by ZEFSAII (Michael W. Deem and Ramdas Pophale) SiO2 
 PCOD9410097
Probable space group: P N N A
;
_chemical_formula_sum "Si O2"
_cell_formula_units_Z 64
_cell_length_a 20.185730
_cell_length_b 15.193863
_cell_length_c 10.596323
_cell_angle_alpha 90.000000
_cell_angle_beta 90.000000
_cell_angle_gamma 90.000000
_cell_volume 3249.883958
_symmetry_space_group_name_H-M "P N N A"
_symmetry_group_IT_number 52
_symmetry_cell_setting 'orthorhombic'
loop_
_space_group_symop_operation_xyz
x,y,z
1/2-x,-y,z
x,1/2-y,1/2-z
1/2-x,1/2+y,1/2-z
-x,-y,-z
1/2+x,y,-z
-x,1/2+y,1/2+z
1/2+x,1/2-y,1/2+z
loop_
_atom_site_type_symbol
_atom_site_label
_atom_site_fract_x
_atom_site_fract_y
_atom_site_fract_z
Si Si1 0.200381 0.735371 0.597946
Si Si2 0.086008 0.647896 0.001074
Si Si3 0.062647 0.038763 0.077516
Si Si4 0.521369 0.281738 0.509750
Si Si5 0.845979 0.789438 0.391118
Si Si6 0.107960 0.475015 0.848810
Si Si7 0.525979 0.889573 0.761562
Si Si8 0.324979 0.034242 0.904049
O O1 0.196069 0.750000 0.750000
O O2 0.155284 0.807137 0.530429
O O3 0.277183 0.748410 0.563018
O O4 0.175395 0.637661 0.563777
O O5 0.066416 0.652036 0.147639
O O6 0.029894 0.710465 0.938345
O O7 0.086806 0.548156 0.950095
O O8 0.066393 0.975352 0.195656
O O9 0.041968 0.138577 0.100924
O O10 0.127822 0.024186 0.993628
O O11 0.000000 0.000000 0.000000
O O12 0.589575 0.237245 0.468443
O O13 0.490500 0.328546 0.382765
O O14 0.855436 0.750000 0.250000
O O15 0.844087 0.895406 0.390178
O O16 0.143948 0.524567 0.734500
O O17 0.043573 0.424678 0.794175
O O18 0.250000 0.000000 0.905621
#
# Coordination Sequence:
#
# PCOD9410097 Si02
#       8
#     8   8   8   8   8   8   8   8
#     4  11  23  37  57  93 128 161 201 262 324 369
#     4  12  25  37  59  97 134 166 202 262 330 384
#     4  10  20  38  64  90 118 160 215 262 305 366
#     4  11  20  38  64  91 117 164 217 264 306 374
#     4  11  20  38  61  89 120 162 212 256 316 381
#     4  12  23  38  61  94 129 161 208 264 321 381
#     4  11  22  40  63  89 125 168 212 254 311 390
#     4  12  22  39  66  95 126 160 211 272 319 368
#
# _framework density 19.693010000000001
#
# number of rings (size 3 to 8) (size 9 to 14) (size 15 to 20)
#    0.000    0.750    6.250    4.500    0.000    0.000 
#    0.000    0.000    2.750    0.000    3.250    0.000 
#    0.000    0.000    0.000    0.000    0.000    0.000 
#
# Total GULP energy -357474.985370 kJ/mol
# GULP energy per Si atom -5585.546646 kJ/mol
# Density = 1.964819 g / cm^3
# Si number density = 19.693010 Si / 1000 Ang^3
#
#
#
# Elastic Constant Matrix: (Units=GPa)
#
#
# Indices 1 2 3 4 5 6 
#
# 1 82.2372 0.2269 9.0371 0.0000 0.0000 0.0000
# 2 0.2269 117.3147 12.0403 0.0000 0.0000 0.0000
# 3 9.0371 12.0403 25.0226 0.0000 0.0000 0.0000
# 4 0.0000 0.0000 0.0000 25.5340 0.0000 0.0000
# 5 0.0000 0.0000 0.0000 0.0000 18.3943 0.0000
# 6 0.0000 0.0000 0.0000 0.0000 0.0000 31.1093
#
#
#
# Elastic Compliance Matrix: (Units=1/GPa)
#
#
# Indices 1 2 3 4 5 6 
#
# 1 0.012687 0.000469 -0.004808 0.000000 0.000000 0.000000
# 2 0.000469 0.008984 -0.004492 0.000000 0.000000 0.000000
# 3 -0.004808 -0.004492 0.043862 0.000000 0.000000 0.000000
# 4 0.000000 0.000000 0.000000 0.039164 0.000000 0.000000
# 5 0.000000 0.000000 0.000000 0.000000 0.054365 0.000000
# 6 0.000000 0.000000 0.000000 0.000000 0.000000 0.032145
#
#
# Mechanical properties :
#
#
# Convention : Reuss Voigt Hill
#
# Bulk Modulus (GPa) = 20.88955 29.68701 25.28828
# Shear Modulus (GPa) = 22.23952 28.55887 25.39919
#
# Velocity S-wave (km/s) = 3.36417 3.81228 3.59521
# Velocity P-wave (km/s) = 5.07157 5.87245 5.48664
#
# Compressibility (1/GPa) = 0.04787083
#
# Stress axis : x y z
#
# Youngs Moduli (GPa) = 78.82101 111.30609 22.79888
#
# Poissons Ratio (x) = -0.05219 0.10961
# Poissons Ratio (y) = -0.03696 0.10242
# Poissons Ratio (z) = 0.37894 0.50003
#
# Static dielectric constant tensor:
#      x y z
#    x 1.674170 0.000000 0.000000 
#    y 0.000000 1.788690 0.000000 
#    z 0.000000 0.000000 1.703600 
# 
# From -- ./inp_files/20897.got.cif
#   From: 2010.05.17/outbox.cif.g08.bks.cpg/sg52_11_cif.got.tgz:20897.got - 2010.06.03 12:15:38.
