data_PCOD9410751
_publ_section_title
;
Structure prediction by ZEFSAII (Michael W. Deem and Ramdas Pophale) SiO2 
 PCOD9410751
Probable space group: P N N A
;
_chemical_formula_sum "Si O2"
_cell_formula_units_Z 32
_cell_length_a 8.655808
_cell_length_b 5.037414
_cell_length_c 36.542990
_cell_angle_alpha 90.000000
_cell_angle_beta 90.000000
_cell_angle_gamma 90.000000
_cell_volume 1593.379915
_symmetry_space_group_name_H-M "P N N A"
_symmetry_group_IT_number 52
_symmetry_cell_setting 'orthorhombic'
loop_
_space_group_symop_operation_xyz
x,y,z
1/2-x,-y,z
x,1/2-y,1/2-z
1/2-x,1/2+y,1/2-z
-x,-y,-z
1/2+x,y,-z
-x,1/2+y,1/2+z
1/2+x,1/2-y,1/2+z
loop_
_atom_site_type_symbol
_atom_site_label
_atom_site_fract_x
_atom_site_fract_y
_atom_site_fract_z
Si Si1 0.584397 0.848911 0.398262
Si Si2 0.529472 0.175553 0.053332
Si Si3 0.250000 0.000000 0.003170
Si Si4 0.635022 0.250218 0.830467
Si Si5 0.137309 0.250000 0.250000
O O1 0.577408 0.575282 0.421288
O O2 0.495723 0.784661 0.360873
O O3 0.750000 0.000000 0.392746
O O4 0.497188 0.069449 0.422265
O O5 0.381228 0.113451 0.029067
O O6 0.667492 0.208954 0.024008
O O7 0.750000 0.500000 0.831929
O O8 0.559039 0.236554 0.789756
O O9 0.750000 0.000000 0.836095
O O10 0.250000 0.500000 0.248971
#
# Coordination Sequence:
#
# PCOD9410751 Si02
#       5
#     8   8   4   8   4
#     4  12  24  41  59  91 127 158 195 252 309 358
#     4  11  25  41  63  85 119 157 205 250 309 353
#     4  10  24  44  62  86 114 160 206 256 300 368
#     4  10  21  37  64  92 120 158 202 247 296 359
#     4   8  16  34  58  90 120 148 194 246 288 340
#
# _framework density 20.083093000000002
#
# number of rings (size 3 to 8) (size 9 to 14) (size 15 to 20)
#    0.000    1.500    2.500    1.500    5.250    6.000 
#    0.000    0.000    0.000   12.000    0.000    0.000 
#    0.000    0.000    0.000    0.000    0.000    0.000 
#
# Total GULP energy -178543.882265 kJ/mol
# GULP energy per Si atom -5579.496321 kJ/mol
# Density = 2.003738 g / cm^3
# Si number density = 20.083093 Si / 1000 Ang^3
#
#
#
# Elastic Constant Matrix: (Units=GPa)
#
#
# Indices 1 2 3 4 5 6 
#
# 1 76.5208 14.2221 67.9852 0.0000 0.0000 0.0000
# 2 14.2221 137.6103 46.6576 0.0000 0.0000 0.0000
# 3 67.9852 46.6576 195.6330 0.0000 0.0000 0.0000
# 4 0.0000 0.0000 0.0000 21.6538 0.0000 0.0000
# 5 0.0000 0.0000 0.0000 0.0000 8.2345 0.0000
# 6 0.0000 0.0000 0.0000 0.0000 0.0000 14.4085
#
#
#
# Elastic Compliance Matrix: (Units=1/GPa)
#
#
# Indices 1 2 3 4 5 6 
#
# 1 0.018917 0.000298 -0.006645 0.000000 0.000000 0.000000
# 2 0.000298 0.007911 -0.001990 0.000000 0.000000 0.000000
# 3 -0.006645 -0.001990 0.007895 0.000000 0.000000 0.000000
# 4 0.000000 0.000000 0.000000 0.046181 0.000000 0.000000
# 5 0.000000 0.000000 0.000000 0.000000 0.121440 0.000000
# 6 0.000000 0.000000 0.000000 0.000000 0.000000 0.069403
#
#
# Mechanical properties :
#
#
# Convention : Reuss Voigt Hill
#
# Bulk Modulus (GPa) = 55.40578 74.16598 64.78588
# Shear Modulus (GPa) = 16.98147 27.58597 22.28372
#
# Velocity S-wave (km/s) = 2.91101 3.71022 3.33464
# Velocity P-wave (km/s) = 6.24074 7.44070 6.86698
#
# Compressibility (1/GPa) = 0.01804866
#
# Stress axis : x y z
#
# Youngs Moduli (GPa) = 52.86356 126.40767 126.65515
#
# Poissons Ratio (x) = -0.03766 0.84160
# Poissons Ratio (y) = -0.01575 0.25208
# Poissons Ratio (z) = 0.35127 0.25158
#
# Static dielectric constant tensor:
#      x y z
#    x 1.715000 0.000000 0.000000 
#    y 0.000000 1.726860 0.000000 
#    z 0.000000 0.000000 1.750860 
# 
# From -- ./inp_files/44161.got.cif
#   From: 2010.05.17/outbox.cif.g08.bks.cpg/sg52_23_cif.got.tgz:44161.got - 2010.06.03 12:15:38.
