data_PCOD9410178
_publ_section_title
;
Structure prediction by ZEFSAII (Michael W. Deem and Ramdas Pophale) SiO2 
 PCOD9410178
Probable space group: P N N A
;
_chemical_formula_sum "Si O2"
_cell_formula_units_Z 52
_cell_length_a 5.387200
_cell_length_b 19.172854
_cell_length_c 23.208103
_cell_angle_alpha 90.000000
_cell_angle_beta 90.000000
_cell_angle_gamma 90.000000
_cell_volume 2397.118521
_symmetry_space_group_name_H-M "P N N A"
_symmetry_group_IT_number 52
_symmetry_cell_setting 'orthorhombic'
loop_
_space_group_symop_operation_xyz
x,y,z
1/2-x,-y,z
x,1/2-y,1/2-z
1/2-x,1/2+y,1/2-z
-x,-y,-z
1/2+x,y,-z
-x,1/2+y,1/2+z
1/2+x,1/2-y,1/2+z
loop_
_atom_site_type_symbol
_atom_site_label
_atom_site_fract_x
_atom_site_fract_y
_atom_site_fract_z
Si Si1 0.750000 0.500000 0.197368
Si Si2 0.559633 0.292365 0.480675
Si Si3 0.331147 0.192455 0.145590
Si Si4 0.623872 0.575821 0.736438
Si Si5 0.172848 0.760235 0.683347
Si Si6 0.846872 0.868264 0.523362
Si Si7 0.084506 0.107362 0.348157
O O1 0.651108 0.440517 0.240479
O O2 0.533167 0.530585 0.157830
O O3 0.839012 0.322512 0.479176
O O4 0.428206 0.301928 0.419361
O O5 0.612099 0.211912 0.500748
O O6 0.354241 0.119021 0.178408
O O7 0.542901 0.238194 0.176863
O O8 0.047823 0.217833 0.151209
O O9 0.750000 0.500000 0.729852
O O10 0.752582 0.614665 0.790452
O O11 0.109030 0.750000 0.750000
O O12 0.136414 0.837089 0.658193
O O13 0.117072 0.900095 0.511167
O O14 0.790273 0.875306 0.591159
#
# Coordination Sequence:
#
# PCOD9410178 Si02
#       7
#     4   8   8   8   8   8   8
#     4  10  24  44  66  88 134 182 230 266 336 400
#     4  10  20  39  59  92 129 171 213 264 333 403
#     4  12  24  41  67 100 137 172 224 281 347 410
#     4  10  24  44  66  97 129 185 227 277 340 409
#     4  12  23  36  61 102 136 166 210 283 349 402
#     4  10  21  37  60  89 124 172 216 266 325 385
#     4  11  23  41  65  92 136 175 226 277 330 400
#
# _framework density 21.692710999999999
#
# number of rings (size 3 to 8) (size 9 to 14) (size 15 to 20)
#    0.000    1.231    1.538    6.000    6.462    0.000 
#    0.000    0.769    0.000    0.923    0.000    0.000 
#    0.000    0.000    0.000    0.000    0.000    0.000 
#
# Total GULP energy -290104.391262 kJ/mol
# GULP energy per Si atom -5578.930601 kJ/mol
# Density = 2.164334 g / cm^3
# Si number density = 21.692711 Si / 1000 Ang^3
#
#
#
# Elastic Constant Matrix: (Units=GPa)
#
#
# Indices 1 2 3 4 5 6 
#
# 1 101.4629 8.2091 6.0092 0.0000 0.0000 0.0000
# 2 8.2091 48.6172 18.5946 0.0000 0.0000 0.0000
# 3 6.0092 18.5946 112.0490 0.0000 0.0000 0.0000
# 4 0.0000 0.0000 0.0000 18.8760 0.0000 0.0000
# 5 0.0000 0.0000 0.0000 0.0000 38.5635 0.0000
# 6 0.0000 0.0000 0.0000 0.0000 0.0000 11.5262
#
#
#
# Elastic Compliance Matrix: (Units=1/GPa)
#
#
# Indices 1 2 3 4 5 6 
#
# 1 0.010000 -0.001584 -0.000273 0.000000 0.000000 0.000000
# 2 -0.001584 0.022214 -0.003601 0.000000 0.000000 0.000000
# 3 -0.000273 -0.003601 0.009537 0.000000 0.000000 0.000000
# 4 0.000000 0.000000 0.000000 0.052977 0.000000 0.000000
# 5 0.000000 0.000000 0.000000 0.000000 0.025931 0.000000
# 6 0.000000 0.000000 0.000000 0.000000 0.000000 0.086759
#
#
# Mechanical properties :
#
#
# Convention : Reuss Voigt Hill
#
# Bulk Modulus (GPa) = 32.43257 36.41722 34.42489
# Shear Modulus (GPa) = 21.87097 29.08089 25.47593
#
# Velocity S-wave (km/s) = 3.17869 3.66537 3.43067
# Velocity P-wave (km/s) = 5.33436 5.89385 5.62107
#
# Compressibility (1/GPa) = 0.03083320
#
# Stress axis : x y z
#
# Youngs Moduli (GPa) = 99.99831 45.01720 104.85483
#
# Poissons Ratio (x) = 0.07130 0.02867
# Poissons Ratio (y) = 0.15839 0.37763
# Poissons Ratio (z) = 0.02735 0.16213
#
# Static dielectric constant tensor:
#      x y z
#    x 1.937690 0.000000 0.000000 
#    y 0.000000 1.882230 0.000000 
#    z 0.000000 0.000000 1.748940 
# 
# From -- ./inp_files/35183.got.cif
#   From: 2010.05.17/outbox.cif.g08.bks.cpg/sg52_18_cif.got.tgz:35183.got - 2010.06.03 12:15:38.
