data_PCOD9410332
_publ_section_title
;
Structure prediction by ZEFSAII (Michael W. Deem and Ramdas Pophale) SiO2 
 PCOD9410332
Probable space group: P N N A
;
_chemical_formula_sum "Si O2"
_cell_formula_units_Z 48
_cell_length_a 9.410000
_cell_length_b 16.527482
_cell_length_c 15.005933
_cell_angle_alpha 90.000000
_cell_angle_beta 90.000000
_cell_angle_gamma 90.000000
_cell_volume 2333.776806
_symmetry_space_group_name_H-M "P N N A"
_symmetry_group_IT_number 52
_symmetry_cell_setting 'orthorhombic'
loop_
_space_group_symop_operation_xyz
x,y,z
1/2-x,-y,z
x,1/2-y,1/2-z
1/2-x,1/2+y,1/2-z
-x,-y,-z
1/2+x,y,-z
-x,1/2+y,1/2+z
1/2+x,1/2-y,1/2+z
loop_
_atom_site_type_symbol
_atom_site_label
_atom_site_fract_x
_atom_site_fract_y
_atom_site_fract_z
Si Si1 0.564638 0.764286 0.426568
Si Si2 0.187947 0.167444 0.995388
Si Si3 0.615802 0.250000 0.750000
Si Si4 0.279808 0.381023 0.313898
Si Si5 0.093539 0.541939 0.923138
Si Si6 0.750000 0.500000 0.404998
Si Si7 0.490802 0.990894 0.221550
O O1 0.458975 0.715548 0.493089
O O2 0.714102 0.719558 0.430772
O O3 0.487285 0.748017 0.333363
O O4 0.587872 0.860628 0.439183
O O5 0.187878 0.074421 0.962399
O O6 0.265966 0.163381 0.091784
O O7 0.725280 0.322789 0.763423
O O8 0.432182 0.418433 0.293772
O O9 0.145808 0.442159 0.313046
O O10 0.250000 0.500000 0.924854
O O11 0.028419 0.526272 0.824147
O O12 0.000000 0.500000 0.000000
O O13 0.623344 0.529094 0.340860
#
# Coordination Sequence:
#
# PCOD9410332 Si02
#       7
#     8   8   4   8   8   4   8
#     4  11  24  44  65  99 134 181 227 286 339 404
#     4  11  24  40  69 101 138 176 226 279 347 415
#     4  10  20  40  68  90 136 180 226 276 344 398
#     4  10  22  39  65  98 130 181 221 266 341 414
#     4  12  27  45  70  98 132 183 234 283 339 404
#     4  12  22  42  66 102 138 170 218 290 346 414
#     4  11  23  41  67  97 132 173 225 276 340 408
#
# _framework density 20.567520999999999
#
# number of rings (size 3 to 8) (size 9 to 14) (size 15 to 20)
#    0.000    1.000    2.500    5.000    2.333    4.667 
#    0.000    1.667    0.000    1.000    0.000    0.000 
#    0.000    0.000    0.000    0.000    0.000    0.000 
#
# Total GULP energy -267663.242390 kJ/mol
# GULP energy per Si atom -5576.317550 kJ/mol
# Density = 2.052071 g / cm^3
# Si number density = 20.567521 Si / 1000 Ang^3
#
#
#
# Elastic Constant Matrix: (Units=GPa)
#
#
# Indices 1 2 3 4 5 6 
#
# 1 88.9511 33.8413 22.0981 0.0000 0.0000 0.0000
# 2 33.8413 110.8906 18.6234 0.0000 0.0000 0.0000
# 3 22.0981 18.6234 76.8681 0.0000 0.0000 0.0000
# 4 0.0000 0.0000 0.0000 26.7100 0.0000 0.0000
# 5 0.0000 0.0000 0.0000 0.0000 34.4313 0.0000
# 6 0.0000 0.0000 0.0000 0.0000 0.0000 42.7317
#
#
#
# Elastic Compliance Matrix: (Units=1/GPa)
#
#
# Indices 1 2 3 4 5 6 
#
# 1 0.013339 -0.003572 -0.002969 0.000000 0.000000 0.000000
# 2 -0.003572 0.010357 -0.001482 0.000000 0.000000 0.000000
# 3 -0.002969 -0.001482 0.014222 0.000000 0.000000 0.000000
# 4 0.000000 0.000000 0.000000 0.037439 0.000000 0.000000
# 5 0.000000 0.000000 0.000000 0.000000 0.029043 0.000000
# 6 0.000000 0.000000 0.000000 0.000000 0.000000 0.023402
#
#
# Mechanical properties :
#
#
# Convention : Reuss Voigt Hill
#
# Bulk Modulus (GPa) = 45.72362 47.31504 46.51933
# Shear Modulus (GPa) = 33.08204 34.25107 33.66655
#
# Velocity S-wave (km/s) = 4.01491 4.08523 4.05023
# Velocity P-wave (km/s) = 6.61604 6.73104 6.67378
#
# Compressibility (1/GPa) = 0.02187053
#
# Stress axis : x y z
#
# Youngs Moduli (GPa) = 74.96956 96.55352 70.31340
#
# Poissons Ratio (x) = 0.34489 0.20878
# Poissons Ratio (y) = 0.26779 0.10423
# Poissons Ratio (z) = 0.22260 0.14313
#
# Static dielectric constant tensor:
#      x y z
#    x 1.729470 0.000000 0.000000 
#    y 0.000000 1.871420 0.000000 
#    z 0.000000 0.000000 1.735060 
# 
# From -- ./inp_files/24752.got.cif
#   From: 2010.05.17/outbox.cif.g08.bks.cpg/sg52_13_cif.got.tgz:24752.got - 2010.06.03 12:15:38.
