data_PCOD9410597
_publ_section_title
;
Structure prediction by ZEFSAII (Michael W. Deem and Ramdas Pophale) SiO2 
 PCOD9410597
Probable space group: P N N A
;
_chemical_formula_sum "Si O2"
_cell_formula_units_Z 64
_cell_length_a 5.201405
_cell_length_b 28.985761
_cell_length_c 19.619521
_cell_angle_alpha 90.000000
_cell_angle_beta 90.000000
_cell_angle_gamma 90.000000
_cell_volume 2957.970087
_symmetry_space_group_name_H-M "P N N A"
_symmetry_group_IT_number 52
_symmetry_cell_setting 'orthorhombic'
loop_
_space_group_symop_operation_xyz
x,y,z
1/2-x,-y,z
x,1/2-y,1/2-z
1/2-x,1/2+y,1/2-z
-x,-y,-z
1/2+x,y,-z
-x,1/2+y,1/2+z
1/2+x,1/2-y,1/2+z
loop_
_atom_site_type_symbol
_atom_site_label
_atom_site_fract_x
_atom_site_fract_y
_atom_site_fract_z
Si Si1 0.637980 0.075062 0.821424
Si Si2 0.531641 0.075900 0.675606
Si Si3 0.473726 0.551274 0.470113
Si Si4 0.137650 0.135926 0.824175
Si Si5 0.189329 0.448069 0.028319
Si Si6 0.984713 0.806229 0.042378
Si Si7 0.532673 0.137114 0.323023
Si Si8 0.476883 0.804164 0.542836
O O1 0.578435 0.051503 0.748573
O O2 0.580752 0.047985 0.890503
O O3 0.427703 0.116504 0.824717
O O4 0.928491 0.094042 0.824597
O O5 0.596682 0.049816 0.605947
O O6 0.244193 0.095999 0.672255
O O7 0.744404 0.116752 0.676735
O O8 0.500000 0.500000 0.500000
O O9 0.240956 0.574782 0.510422
O O10 0.087494 0.159240 0.750826
O O11 0.078311 0.167549 0.888185
O O12 0.250000 0.500000 0.003179
O O13 0.465849 0.425008 0.016384
O O14 0.970332 0.751063 0.053447
O O15 0.266918 0.817239 0.013723
O O16 0.566568 0.170610 0.386077
O O17 0.251252 0.816140 0.489921
#
# Coordination Sequence:
#
# PCOD9410597 Si02
#       8
#     8   8   8   8   8   8   8   8
#     4  10  21  37  56  80 112 141 182 230 272 325
#     4  10  21  37  56  82 110 143 182 222 273 329
#     4  10  21  37  56  79 110 140 176 226 271 325
#     4  10  21  36  56  81 108 146 185 227 271 324
#     4  10  21  37  57  81 110 139 179 224 265 321
#     4  10  21  36  54  80 110 143 188 228 272 331
#     4  10  21  36  56  81 112 142 184 225 271 330
#     4  10  21  36  54  80 114 145 181 230 275 325
#
# _framework density 21.636462000000002
#
# number of rings (size 3 to 8) (size 9 to 14) (size 15 to 20)
#    0.000    2.000    0.000    3.000    0.000    6.500 
#    2.250    0.000    5.500    9.000    0.000    0.000 
#    0.000    0.000    0.000    0.000    0.000    0.000 
#
# Total GULP energy -357583.184061 kJ/mol
# GULP energy per Si atom -5587.237251 kJ/mol
# Density = 2.158722 g / cm^3
# Si number density = 21.636462 Si / 1000 Ang^3
#
#
#
# Elastic Constant Matrix: (Units=GPa)
#
#
# Indices 1 2 3 4 5 6 
#
# 1 118.5814 -9.2414 5.0966 0.0000 0.0000 0.0000
# 2 -9.2414 31.8774 15.1288 0.0000 0.0000 0.0000
# 3 5.0966 15.1288 160.7395 0.0000 0.0000 0.0000
# 4 0.0000 0.0000 0.0000 -31.2082 0.0000 0.0000
# 5 0.0000 0.0000 0.0000 0.0000 32.6042 0.0000
# 6 0.0000 0.0000 0.0000 0.0000 0.0000 12.6565
#
#
#
# Elastic Compliance Matrix: (Units=1/GPa)
#
#
# Indices 1 2 3 4 5 6 
#
# 1 0.008672 0.002768 -0.000535 0.000000 0.000000 0.000000
# 2 0.002768 0.033721 -0.003262 0.000000 0.000000 0.000000
# 3 -0.000535 -0.003262 0.006545 0.000000 0.000000 0.000000
# 4 0.000000 0.000000 0.000000 -0.032043 0.000000 0.000000
# 5 0.000000 0.000000 0.000000 0.000000 0.030671 0.000000
# 6 0.000000 0.000000 0.000000 0.000000 0.000000 0.079011
#
#
# Mechanical properties :
#
#
# Convention : Reuss Voigt Hill
#
# Bulk Modulus (GPa) = 21.33119 37.01848 29.17484
# Shear Modulus (GPa) = 34.65939 22.82478 28.74209
#
# Velocity S-wave (km/s) = 4.00671 3.25148 3.64869
# Velocity P-wave (km/s) = 5.59333 5.58951 5.59142
#
# Compressibility (1/GPa) = 0.04687970
#
# Stress axis : x y z
#
# Youngs Moduli (GPa) = 115.31670 29.65548 152.78364
#
# Poissons Ratio (x) = -0.08209 0.08181
# Poissons Ratio (y) = -0.31921 0.49831
# Poissons Ratio (z) = 0.06175 0.09672
#
# Static dielectric constant tensor:
#      x y z
#    x 1.908730 0.000000 0.000000 
#    y 0.000000 1.745640 0.000000 
#    z 0.000000 0.000000 1.793690 
# 
# From -- ./inp_files/30388.got.cif
#   From: 2010.05.17/outbox.cif.g08.bks.cpg/sg52_16_cif.got.tgz:30388.got - 2010.06.03 12:15:38.
