data_PCOD9410851
_publ_section_title
;
Structure prediction by ZEFSAII (Michael W. Deem and Ramdas Pophale) SiO2 
 PCOD9410851
Probable space group: P N N A
;
_chemical_formula_sum "Si O2"
_cell_formula_units_Z 40
_cell_length_a 19.500975
_cell_length_b 17.062836
_cell_length_c 5.631660
_cell_angle_alpha 90.000000
_cell_angle_beta 90.000000
_cell_angle_gamma 90.000000
_cell_volume 1873.889464
_symmetry_space_group_name_H-M "P N N A"
_symmetry_group_IT_number 52
_symmetry_cell_setting 'orthorhombic'
loop_
_space_group_symop_operation_xyz
x,y,z
1/2-x,-y,z
x,1/2-y,1/2-z
1/2-x,1/2+y,1/2-z
-x,-y,-z
1/2+x,y,-z
-x,1/2+y,1/2+z
1/2+x,1/2-y,1/2+z
loop_
_atom_site_type_symbol
_atom_site_label
_atom_site_fract_x
_atom_site_fract_y
_atom_site_fract_z
Si Si1 0.071040 0.420781 0.906570
Si Si2 0.789363 0.654786 0.252289
Si Si3 0.717247 0.845473 0.746254
Si Si4 0.013931 0.934435 0.801730
Si Si5 0.563490 0.659794 0.685883
O O1 0.136279 0.383615 0.785445
O O2 0.063196 0.513767 0.864740
O O3 0.002269 0.377798 0.812609
O O4 0.058745 0.411375 0.187382
O O5 0.794714 0.750000 0.250000
O O6 0.755405 0.631532 0.506199
O O7 0.749272 0.631767 0.008718
O O8 0.717338 0.750000 0.750000
O O9 0.638427 0.872693 0.754636
O O10 0.050724 0.859699 0.909870
O O11 0.000000 0.000000 0.000000
O O12 0.563466 0.750000 0.750000
#
# Coordination Sequence:
#
# PCOD9410851 Si02
#       5
#     8   8   8   8   8
#     4  10  21  38  65  88 122 169 211 265 320 384
#     4  10  21  39  62  93 126 165 209 264 325 383
#     4   9  21  38  60  89 131 163 200 262 326 373
#     4   9  21  39  60  84 125 161 209 261 324 369
#     4  10  21  38  63  94 121 163 213 263 319 386
#
# _framework density 21.345977000000001
#
# number of rings (size 3 to 8) (size 9 to 14) (size 15 to 20)
#    0.000    2.400    0.000    0.600    8.400    0.800 
#    3.600    1.000    0.000    0.000    0.000    0.000 
#    0.000    0.000    0.000    0.000    0.000    0.000 
#
# Total GULP energy -222732.047709 kJ/mol
# GULP energy per Si atom -5568.301193 kJ/mol
# Density = 2.129739 g / cm^3
# Si number density = 21.345977 Si / 1000 Ang^3
#
#
#
# Elastic Constant Matrix: (Units=GPa)
#
#
# Indices 1 2 3 4 5 6 
#
# 1 145.4162 34.7889 78.6716 0.0000 0.0000 0.0000
# 2 34.7889 54.2702 34.5384 0.0000 0.0000 0.0000
# 3 78.6716 34.5384 138.2944 0.0000 0.0000 0.0000
# 4 0.0000 0.0000 0.0000 29.3126 0.0000 0.0000
# 5 0.0000 0.0000 0.0000 0.0000 21.9806 0.0000
# 6 0.0000 0.0000 0.0000 0.0000 0.0000 140.9287
#
#
#
# Elastic Compliance Matrix: (Units=1/GPa)
#
#
# Indices 1 2 3 4 5 6 
#
# 1 0.010456 -0.003468 -0.005082 0.000000 0.000000 0.000000
# 2 -0.003468 0.023059 -0.003786 0.000000 0.000000 0.000000
# 3 -0.005082 -0.003786 0.011067 0.000000 0.000000 0.000000
# 4 0.000000 0.000000 0.000000 0.034115 0.000000 0.000000
# 5 0.000000 0.000000 0.000000 0.000000 0.045495 0.000000
# 6 0.000000 0.000000 0.000000 0.000000 0.000000 0.007096
#
#
# Mechanical properties :
#
#
# Convention : Reuss Voigt Hill
#
# Bulk Modulus (GPa) = 50.22558 70.44206 60.33382
# Shear Modulus (GPa) = 30.75095 51.10984 40.93039
#
# Velocity S-wave (km/s) = 3.79964 4.89852 4.38365
# Velocity P-wave (km/s) = 6.54447 8.06634 7.34493
#
# Compressibility (1/GPa) = 0.01991017
#
# Stress axis : x y z
#
# Youngs Moduli (GPa) = 95.63974 43.36692 90.35590
#
# Poissons Ratio (x) = 0.15041 0.45917
# Poissons Ratio (y) = 0.33172 0.34207
# Poissons Ratio (z) = 0.48603 0.16418
#
# Static dielectric constant tensor:
#      x y z
#    x 1.769630 0.000000 0.000000 
#    y 0.000000 1.763150 0.000000 
#    z 0.000000 0.000000 1.751760 
# 
# From -- ./inp_files/3192.got.cif
#   From: 2010.05.17/outbox.cif.g08.bks.cpg/sg52_2_cif.got.tgz:3192.got - 2010.06.03 12:15:38.
