data_PCOD9410928
_publ_section_title
;
Structure prediction by ZEFSAII (Michael W. Deem and Ramdas Pophale) SiO2 
 PCOD9410928
Probable space group: P N N A
;
_chemical_formula_sum "Si O2"
_cell_formula_units_Z 36
_cell_length_a 17.183375
_cell_length_b 15.545048
_cell_length_c 7.610074
_cell_angle_alpha 90.000000
_cell_angle_beta 90.000000
_cell_angle_gamma 90.000000
_cell_volume 2032.775488
_symmetry_space_group_name_H-M "P N N A"
_symmetry_group_IT_number 52
_symmetry_cell_setting 'orthorhombic'
loop_
_space_group_symop_operation_xyz
x,y,z
1/2-x,-y,z
x,1/2-y,1/2-z
1/2-x,1/2+y,1/2-z
-x,-y,-z
1/2+x,y,-z
-x,1/2+y,1/2+z
1/2+x,1/2-y,1/2+z
loop_
_atom_site_type_symbol
_atom_site_label
_atom_site_fract_x
_atom_site_fract_y
_atom_site_fract_z
Si Si1 0.097888 0.849006 0.750000
Si Si2 0.052848 0.250000 0.250000
Si Si3 0.793475 0.089272 0.544177
Si Si4 0.682569 0.250000 0.456525
Si Si5 0.706525 0.910728 0.955824
O O1 0.129909 0.750000 0.750000
O O2 0.132457 0.895596 0.580013
O O3 0.005852 0.831666 0.749999
O O4 0.132456 0.895596 0.919986
O O5 0.106956 0.250000 0.420424
O O6 0.733799 0.166502 0.503796
O O7 0.813963 0.090838 0.750000
O O8 0.750000 0.000000 0.504753
O O9 0.664271 0.250000 0.250000
O O10 0.733800 0.333498 0.503795
O O11 0.750000 0.000000 0.995248
#
# Coordination Sequence:
#
# PCOD9410928 Si02
#       5
#     8   4   8   8   8
#     4  10  21  39  60  85 114 158 187 242 286 343
#     4  10  24  38  58  84 126 150 194 234 298 346
#     4  11  21  36  66  90 112 150 202 242 281 343
#     4  12  21  37  61  87 116 157 190 244 291 340
#     4  11  21  36  66  90 112 150 202 242 281 343
#
# _framework density 17.709776999999999
#
# number of rings (size 3 to 8) (size 9 to 14) (size 15 to 20)
#    0.667    0.444    6.667    0.667    0.000    1.778 
#    0.000    2.222    0.000    0.000    0.000    0.000 
#    0.000    0.000    0.000    0.000    0.000    0.000 
#
# Total GULP energy -200883.271176 kJ/mol
# GULP energy per Si atom -5580.090866 kJ/mol
# Density = 1.766947 g / cm^3
# Si number density = 17.709777 Si / 1000 Ang^3
#
#
#
# Elastic Constant Matrix: (Units=GPa)
#
#
# Indices 1 2 3 4 5 6 
#
# 1 100.2354 21.9435 32.6160 0.0000 0.0000 0.0000
# 2 21.9435 107.3768 19.4812 0.0000 0.0000 0.0000
# 3 32.6160 19.4812 86.5735 0.0000 0.0000 0.0000
# 4 0.0000 0.0000 0.0000 62.6851 0.0000 0.0000
# 5 0.0000 0.0000 0.0000 0.0000 17.6142 0.0000
# 6 0.0000 0.0000 0.0000 0.0000 0.0000 -0.5312
#
#
#
# Elastic Compliance Matrix: (Units=1/GPa)
#
#
# Indices 1 2 3 4 5 6 
#
# 1 0.011645 -0.001651 -0.004015 0.000000 0.000000 0.000000
# 2 -0.001651 0.009944 -0.001615 0.000000 0.000000 0.000000
# 3 -0.004015 -0.001615 0.013427 0.000000 0.000000 0.000000
# 4 0.000000 0.000000 0.000000 0.015953 0.000000 0.000000
# 5 0.000000 0.000000 0.000000 0.000000 0.056772 0.000000
# 6 0.000000 0.000000 0.000000 0.000000 0.000000 -1.882638
#
#
# Mechanical properties :
#
#
# Convention : Reuss Voigt Hill
#
# Bulk Modulus (GPa) = 48.89712 49.14078 49.01895
# Shear Modulus (GPa) = -2.85141 30.62996 13.88927
#
# Velocity S-wave (km/s) = -1.27027 4.16330 2.80352
# Velocity P-wave (km/s) = 5.05161 7.13574 6.18213
#
# Compressibility (1/GPa) = 0.02045110
#
# Stress axis : x y z
#
# Youngs Moduli (GPa) = 85.87672 100.56795 74.47566
#
# Poissons Ratio (x) = 0.16605 0.29906
# Poissons Ratio (y) = 0.14180 0.12031
# Poissons Ratio (z) = 0.34484 0.16246
#
# Static dielectric constant tensor:
#      x y z
#    x 1.583220 0.000000 0.000000 
#    y 0.000000 1.598310 0.000000 
#    z 0.000000 0.000000 1.600720 
# 
# From -- ./inp_files/11799.got.cif
#   From: 2010.05.17/outbox.cif.g08.bks.cpg/sg52_6_cif.got.tgz:11799.got - 2010.06.03 12:15:38.
