data_PCOD9410843
_publ_section_title
;
Structure prediction by ZEFSAII (Michael W. Deem and Ramdas Pophale) SiO2 
 PCOD9410843
Probable space group: P N N A
;
_chemical_formula_sum "Si O2"
_cell_formula_units_Z 48
_cell_length_a 15.991750
_cell_length_b 7.787642
_cell_length_c 16.871072
_cell_angle_alpha 90.000000
_cell_angle_beta 90.000000
_cell_angle_gamma 90.000000
_cell_volume 2101.089969
_symmetry_space_group_name_H-M "P N N A"
_symmetry_group_IT_number 52
_symmetry_cell_setting 'orthorhombic'
loop_
_space_group_symop_operation_xyz
x,y,z
1/2-x,-y,z
x,1/2-y,1/2-z
1/2-x,1/2+y,1/2-z
-x,-y,-z
1/2+x,y,-z
-x,1/2+y,1/2+z
1/2+x,1/2-y,1/2+z
loop_
_atom_site_type_symbol
_atom_site_label
_atom_site_fract_x
_atom_site_fract_y
_atom_site_fract_z
Si Si1 0.277522 0.200433 0.342223
Si Si2 0.490614 0.475432 0.725697
Si Si3 0.397905 0.707973 0.396760
Si Si4 0.845228 0.250000 0.250000
Si Si5 0.750000 0.000000 0.129681
Si Si6 0.448140 0.099327 0.384430
Si Si7 0.916937 0.647342 0.432728
O O1 0.285394 0.250000 0.250000
O O2 0.200855 0.300927 0.381874
O O3 0.364699 0.215745 0.389924
O O4 0.250000 0.000000 0.344142
O O5 0.556727 0.352679 0.682673
O O6 0.413507 0.392730 0.775779
O O7 0.536345 0.586942 0.790346
O O8 0.451018 0.559007 0.647564
O O9 0.427757 0.604982 0.474256
O O10 0.423942 0.906773 0.409363
O O11 0.791277 0.148177 0.185623
O O12 0.681441 0.106363 0.079984
O O13 0.531352 0.174293 0.423936
#
# Coordination Sequence:
#
# PCOD9410843 Si02
#       7
#     8   8   8   4   4   8   8
#     4  10  21  38  62  96 128 167 216 266 321 384
#     4  11  21  42  69  96 125 169 221 269 317 387
#     4  11  22  42  64  96 137 170 206 271 332 393
#     4  10  22  40  68  94 122 166 224 276 320 374
#     4  10  26  44  64  98 130 168 222 280 324 392
#     4  11  22  42  69  96 125 172 226 266 317 389
#     4  11  25  43  64  95 134 170 218 265 339 385
#
# _framework density 22.845286999999999
#
# number of rings (size 3 to 8) (size 9 to 14) (size 15 to 20)
#    0.000    1.333    1.667    4.500    4.667    0.000 
#   13.500    3.333    0.000    0.000    0.000    0.000 
#    0.000    0.000    0.000    0.000    0.000    0.000 
#
# Total GULP energy -267417.880052 kJ/mol
# GULP energy per Si atom -5571.205834 kJ/mol
# Density = 2.279329 g / cm^3
# Si number density = 22.845287 Si / 1000 Ang^3
#
#
#
# Elastic Constant Matrix: (Units=GPa)
#
#
# Indices 1 2 3 4 5 6 
#
# 1 136.7865 37.1122 50.7566 0.0000 0.0000 0.0000
# 2 37.1122 30.9146 17.4725 0.0000 0.0000 0.0000
# 3 50.7566 17.4725 129.4557 0.0000 0.0000 0.0000
# 4 0.0000 0.0000 0.0000 19.1300 0.0000 0.0000
# 5 0.0000 0.0000 0.0000 0.0000 4.6739 0.0000
# 6 0.0000 0.0000 0.0000 0.0000 0.0000 27.4542
#
#
#
# Elastic Compliance Matrix: (Units=1/GPa)
#
#
# Indices 1 2 3 4 5 6 
#
# 1 0.011790 -0.012494 -0.002936 0.000000 0.000000 0.000000
# 2 -0.012494 0.048259 -0.001615 0.000000 0.000000 0.000000
# 3 -0.002936 -0.001615 0.009094 0.000000 0.000000 0.000000
# 4 0.000000 0.000000 0.000000 0.052274 0.000000 0.000000
# 5 0.000000 0.000000 0.000000 0.000000 0.213955 0.000000
# 6 0.000000 0.000000 0.000000 0.000000 0.000000 0.036424
#
#
# Mechanical properties :
#
#
# Convention : Reuss Voigt Hill
#
# Bulk Modulus (GPa) = 28.52885 56.42659 42.47772
# Shear Modulus (GPa) = 11.97403 23.03931 17.50667
#
# Velocity S-wave (km/s) = 2.29188 3.17912 2.77124
# Velocity P-wave (km/s) = 4.41799 6.18295 5.37343
#
# Compressibility (1/GPa) = 0.03505223
#
# Stress axis : x y z
#
# Youngs Moduli (GPa) = 84.81731 20.72168 109.96444
#
# Poissons Ratio (x) = 0.25890 0.32289
# Poissons Ratio (y) = 1.05971 0.17757
# Poissons Ratio (z) = 0.24905 0.03346
#
# Static dielectric constant tensor:
#      x y z
#    x 1.894930 0.000000 0.000000 
#    y 0.000000 1.964120 0.000000 
#    z 0.000000 0.000000 1.763730 
# 
# From -- ./inp_files/33098.got.cif
#   From: 2010.05.17/outbox.cif.g08.bks.cpg/sg52_17_cif.got.tgz:33098.got - 2010.06.03 12:15:38.
