data_PCOD9410095
_publ_section_title
;
Structure prediction by ZEFSAII (Michael W. Deem and Ramdas Pophale) SiO2 
 PCOD9410095
Probable space group: P N N A
;
_chemical_formula_sum "Si O2"
_cell_formula_units_Z 40
_cell_length_a 9.205653
_cell_length_b 8.551713
_cell_length_c 25.383792
_cell_angle_alpha 90.000000
_cell_angle_beta 90.000000
_cell_angle_gamma 90.000000
_cell_volume 1998.316242
_symmetry_space_group_name_H-M "P N N A"
_symmetry_group_IT_number 52
_symmetry_cell_setting 'orthorhombic'
loop_
_space_group_symop_operation_xyz
x,y,z
1/2-x,-y,z
x,1/2-y,1/2-z
1/2-x,1/2+y,1/2-z
-x,-y,-z
1/2+x,y,-z
-x,1/2+y,1/2+z
1/2+x,1/2-y,1/2+z
loop_
_atom_site_type_symbol
_atom_site_label
_atom_site_fract_x
_atom_site_fract_y
_atom_site_fract_z
Si Si1 0.250000 0.000000 0.736674
Si Si2 0.250000 0.000000 0.114442
Si Si3 0.954553 0.441840 0.332969
Si Si4 0.829169 0.652584 0.032838
Si Si5 0.404560 0.349651 0.483880
Si Si6 0.202405 0.264229 0.854937
O O1 0.384316 0.054418 0.773969
O O2 0.195891 0.137433 0.698489
O O3 0.377052 0.931651 0.151886
O O4 0.169046 0.882965 0.073147
O O5 0.896434 0.609444 0.353513
O O6 0.866253 0.301288 0.359971
O O7 0.750000 0.500000 0.010452
O O8 0.843168 0.635525 0.095401
O O9 0.985675 0.703812 0.013031
O O10 0.726770 0.802570 0.021781
O O11 0.500000 0.500000 0.500000
#
# Coordination Sequence:
#
# PCOD9410095 Si02
#       6
#     4   4   8   8   8   8
#     4  10  20  42  63  92 120 159 214 264 314 378
#     4  12  22  38  63  96 124 157 218 256 314 370
#     4  10  21  36  64  87 120 157 209 261 308 370
#     4  12  24  40  63  93 129 168 211 264 328 371
#     4  12  24  41  64  92 127 173 215 261 309 392
#     4  10  20  38  64  88 115 164 211 256 309 383
#
# _framework density 20.016853000000001
#
# number of rings (size 3 to 8) (size 9 to 14) (size 15 to 20)
#    0.000    1.200    5.000    4.200    2.800    0.000 
#    0.000    4.000    0.000    0.000    0.000    0.000 
#    0.000    0.000    0.000    0.000    0.000    0.000 
#
# Total GULP energy -222944.990407 kJ/mol
# GULP energy per Si atom -5573.624760 kJ/mol
# Density = 1.997129 g / cm^3
# Si number density = 20.016853 Si / 1000 Ang^3
#
#
#
# Elastic Constant Matrix: (Units=GPa)
#
#
# Indices 1 2 3 4 5 6 
#
# 1 128.1494 12.4419 28.3626 0.0000 0.0000 0.0000
# 2 12.4419 53.3768 -14.1077 0.0000 0.0000 0.0000
# 3 28.3626 -14.1077 70.2287 0.0000 0.0000 0.0000
# 4 0.0000 0.0000 0.0000 15.8461 0.0000 0.0000
# 5 0.0000 0.0000 0.0000 0.0000 4.4244 0.0000
# 6 0.0000 0.0000 0.0000 0.0000 0.0000 29.8570
#
#
#
# Elastic Compliance Matrix: (Units=1/GPa)
#
#
# Indices 1 2 3 4 5 6 
#
# 1 0.009076 -0.003257 -0.004320 0.000000 0.000000 0.000000
# 2 -0.003257 0.020954 0.005525 0.000000 0.000000 0.000000
# 3 -0.004320 0.005525 0.017094 0.000000 0.000000 0.000000
# 4 0.000000 0.000000 0.000000 0.063107 0.000000 0.000000
# 5 0.000000 0.000000 0.000000 0.000000 0.226020 0.000000
# 6 0.000000 0.000000 0.000000 0.000000 0.000000 0.033493
#
#
# Mechanical properties :
#
#
# Convention : Reuss Voigt Hill
#
# Bulk Modulus (GPa) = 23.24533 33.90538 28.57535
# Shear Modulus (GPa) = 12.88039 25.02938 18.95488
#
# Velocity S-wave (km/s) = 2.53944 3.53996 3.08059
# Velocity P-wave (km/s) = 4.49849 5.80376 5.19230
#
# Compressibility (1/GPa) = 0.04301940
#
# Stress axis : x y z
#
# Youngs Moduli (GPa) = 110.18474 47.72309 58.50158
#
# Poissons Ratio (x) = 0.15544 0.25270
# Poissons Ratio (y) = 0.35889 -0.32321
# Poissons Ratio (z) = 0.47596 -0.26366
#
# Static dielectric constant tensor:
#      x y z
#    x 1.715640 0.000000 0.000000 
#    y 0.000000 1.768340 0.000000 
#    z 0.000000 0.000000 1.757860 
# 
# From -- ./inp_files/42160.got.cif
#   From: 2010.05.17/outbox.cif.g08.bks.cpg/sg52_22_cif.got.tgz:42160.got - 2010.06.03 12:15:38.
