data_PCOD9410333
_publ_section_title
;
Structure prediction by ZEFSAII (Michael W. Deem and Ramdas Pophale) SiO2 
 PCOD9410333
Probable space group: P N N A
;
_chemical_formula_sum "Si O2"
_cell_formula_units_Z 32
_cell_length_a 11.042534
_cell_length_b 8.596680
_cell_length_c 15.013381
_cell_angle_alpha 90.000000
_cell_angle_beta 90.000000
_cell_angle_gamma 90.000000
_cell_volume 1425.207215
_symmetry_space_group_name_H-M "P N N A"
_symmetry_group_IT_number 52
_symmetry_cell_setting 'orthorhombic'
loop_
_space_group_symop_operation_xyz
x,y,z
1/2-x,-y,z
x,1/2-y,1/2-z
1/2-x,1/2+y,1/2-z
-x,-y,-z
1/2+x,y,-z
-x,1/2+y,1/2+z
1/2+x,1/2-y,1/2+z
loop_
_atom_site_type_symbol
_atom_site_label
_atom_site_fract_x
_atom_site_fract_y
_atom_site_fract_z
Si Si1 0.839317 0.317252 0.486130
Si Si2 0.344083 0.878336 0.822725
Si Si3 0.233138 0.681781 0.166050
Si Si4 0.441196 0.907893 0.107120
O O1 0.732992 0.321217 0.411000
O O2 0.818278 0.201426 0.566976
O O3 0.870749 0.482266 0.536609
O O4 0.966829 0.286480 0.438253
O O5 0.367804 0.750000 0.750000
O O6 0.250000 0.000000 0.780667
O O7 0.465333 0.973594 0.846130
O O8 0.250000 0.500000 0.181611
O O9 0.159868 0.750000 0.250000
O O10 0.346297 0.804377 0.161009
#
# Coordination Sequence:
#
# PCOD9410333 Si02
#       4
#     8   8   8   8
#     4  10  21  43  67  92 129 167 207 260 322 384
#     4  10  22  40  65  96 134 174 215 266 320 383
#     4  12  26  42  63  92 126 164 212 268 321 382
#     4  10  20  40  68  91 123 172 213 257 325 386
#
# _framework density 22.452874999999999
#
# number of rings (size 3 to 8) (size 9 to 14) (size 15 to 20)
#    0.000    1.500    0.000    8.250    0.000    9.000 
#    0.000    0.000    0.000    0.000    0.000    0.000 
#    0.000    0.000    0.000    0.000    0.000    0.000 
#
# Total GULP energy -178331.159670 kJ/mol
# GULP energy per Si atom -5572.848740 kJ/mol
# Density = 2.240177 g / cm^3
# Si number density = 22.452875 Si / 1000 Ang^3
#
#
#
# Elastic Constant Matrix: (Units=GPa)
#
#
# Indices 1 2 3 4 5 6 
#
# 1 121.0486 21.4212 40.5851 0.0000 0.0000 0.0000
# 2 21.4212 101.4323 61.6432 0.0000 0.0000 0.0000
# 3 40.5851 61.6432 111.4203 0.0000 0.0000 0.0000
# 4 0.0000 0.0000 0.0000 59.4630 0.0000 0.0000
# 5 0.0000 0.0000 0.0000 0.0000 19.1191 0.0000
# 6 0.0000 0.0000 0.0000 0.0000 0.0000 20.3984
#
#
#
# Elastic Compliance Matrix: (Units=1/GPa)
#
#
# Indices 1 2 3 4 5 6 
#
# 1 0.009412 0.000144 -0.003508 0.000000 0.000000 0.000000
# 2 0.000144 0.014855 -0.008271 0.000000 0.000000 0.000000
# 3 -0.003508 -0.008271 0.014829 0.000000 0.000000 0.000000
# 4 0.000000 0.000000 0.000000 0.016817 0.000000 0.000000
# 5 0.000000 0.000000 0.000000 0.000000 0.052304 0.000000
# 6 0.000000 0.000000 0.000000 0.000000 0.000000 0.049023
#
#
# Mechanical properties :
#
#
# Convention : Reuss Voigt Hill
#
# Bulk Modulus (GPa) = 63.18780 64.57782 63.88281
# Shear Modulus (GPa) = 26.91291 33.81290 30.36290
#
# Velocity S-wave (km/s) = 3.46589 3.88487 3.68135
# Velocity P-wave (km/s) = 6.64982 6.99620 6.82521
#
# Compressibility (1/GPa) = 0.01582584
#
# Stress axis : x y z
#
# Youngs Moduli (GPa) = 106.24958 67.31829 67.43647
#
# Poissons Ratio (x) = -0.00972 0.23658
# Poissons Ratio (y) = -0.01533 0.55777
# Poissons Ratio (z) = 0.37274 0.55679
#
# Static dielectric constant tensor:
#      x y z
#    x 1.907720 0.000000 0.000000 
#    y 0.000000 1.799710 0.000000 
#    z 0.000000 0.000000 1.898970 
# 
# From -- ./inp_files/25476.got.cif
#   From: 2010.05.17/outbox.cif.g08.bks.cpg/sg52_13_cif.got.tgz:25476.got - 2010.06.03 12:15:38.
