data_PCOD9410583
_publ_section_title
;
Structure prediction by ZEFSAII (Michael W. Deem and Ramdas Pophale) SiO2 
 PCOD9410583
Probable space group: P N N A
;
_chemical_formula_sum "Si O2"
_cell_formula_units_Z 64
_cell_length_a 27.798912
_cell_length_b 9.200555
_cell_length_c 13.018217
_cell_angle_alpha 90.000000
_cell_angle_beta 90.000000
_cell_angle_gamma 90.000000
_cell_volume 3329.609723
_symmetry_space_group_name_H-M "P N N A"
_symmetry_group_IT_number 52
_symmetry_cell_setting 'orthorhombic'
loop_
_space_group_symop_operation_xyz
x,y,z
1/2-x,-y,z
x,1/2-y,1/2-z
1/2-x,1/2+y,1/2-z
-x,-y,-z
1/2+x,y,-z
-x,1/2+y,1/2+z
1/2+x,1/2-y,1/2+z
loop_
_atom_site_type_symbol
_atom_site_label
_atom_site_fract_x
_atom_site_fract_y
_atom_site_fract_z
Si Si1 0.237006 0.149884 0.988589
Si Si2 0.785633 0.627966 0.837051
Si Si3 0.358502 0.753307 0.874953
Si Si4 0.465546 0.134400 0.472116
Si Si5 0.564409 0.850170 0.150339
Si Si6 0.961471 0.831558 0.145471
Si Si7 0.639578 0.525782 0.986092
Si Si8 0.830255 0.292322 0.369352
O O1 0.185866 0.166448 0.931059
O O2 0.278843 0.150342 0.903707
O O3 0.250000 0.000000 0.045850
O O4 0.238797 0.281353 0.069611
O O5 0.750000 0.500000 0.800319
O O6 0.797370 0.750000 0.750000
O O7 0.829885 0.544609 0.893266
O O8 0.351691 0.750000 0.750000
O O9 0.410570 0.812903 0.912124
O O10 0.360348 0.591135 0.921312
O O11 0.455653 0.242405 0.565715
O O12 0.493605 0.241688 0.395928
O O13 0.413555 0.067401 0.445778
O O14 0.500000 0.000000 0.500000
O O15 0.564584 0.750000 0.250000
O O16 0.620604 0.886380 0.128052
O O17 0.533416 0.996261 0.159375
O O18 0.950173 0.750000 0.250000
O O19 0.659905 0.666339 0.046065
O O20 0.826139 0.250000 0.250000
#
# Coordination Sequence:
#
# PCOD9410583 Si02
#       8
#     8   8   8   8   8   8   8   8
#     4  11  22  37  59  96 130 163 212 255 306 378
#     4  11  23  45  69  91 124 171 222 270 323 372
#     4  10  22  34  59  89 131 167 206 247 312 382
#     4  11  21  40  64  87 123 162 205 266 324 372
#     4  10  22  37  61  93 123 166 207 248 319 391
#     4  11  22  38  61  88 124 166 212 258 312 382
#     4  10  22  41  62  95 124 165 212 267 316 388
#     4  10  21  35  62  92 137 168 201 249 317 389
#
# _framework density 19.221473
#
# number of rings (size 3 to 8) (size 9 to 14) (size 15 to 20)
#    0.000    1.500    2.500    2.625   10.500    0.000 
#    0.000    2.500    5.500    0.000    0.000    0.000 
#    0.000    0.000    0.000    0.000    0.000    0.000 
#
# Total GULP energy -356319.019636 kJ/mol
# GULP energy per Si atom -5567.484682 kJ/mol
# Density = 1.917772 g / cm^3
# Si number density = 19.221473 Si / 1000 Ang^3
#
#
#
# Elastic Constant Matrix: (Units=GPa)
#
#
# Indices 1 2 3 4 5 6 
#
# 1 118.5987 63.7957 37.8289 0.0000 0.0000 0.0000
# 2 63.7957 116.4854 26.3490 0.0000 0.0000 0.0000
# 3 37.8289 26.3490 69.2612 0.0000 0.0000 0.0000
# 4 0.0000 0.0000 0.0000 27.7236 0.0000 0.0000
# 5 0.0000 0.0000 0.0000 0.0000 364.6220 0.0000
# 6 0.0000 0.0000 0.0000 0.0000 0.0000 38.4396
#
#
#
# Elastic Compliance Matrix: (Units=1/GPa)
#
#
# Indices 1 2 3 4 5 6 
#
# 1 0.013331 -0.006187 -0.004928 0.000000 0.000000 0.000000
# 2 -0.006187 0.012264 -0.001287 0.000000 0.000000 0.000000
# 3 -0.004928 -0.001287 0.017619 0.000000 0.000000 0.000000
# 4 0.000000 0.000000 0.000000 0.036070 0.000000 0.000000
# 5 0.000000 0.000000 0.000000 0.000000 0.002743 0.000000
# 6 0.000000 0.000000 0.000000 0.000000 0.000000 0.026015
#
#
# Mechanical properties :
#
#
# Convention : Reuss Voigt Hill
#
# Bulk Modulus (GPa) = 54.31092 62.25472 58.28282
# Shear Modulus (GPa) = 35.97597 97.91515 66.94556
#
# Velocity S-wave (km/s) = 4.33096 7.14500 5.90797
# Velocity P-wave (km/s) = 7.30248 10.02629 8.77077
#
# Compressibility (1/GPa) = 0.01841250
#
# Stress axis : x y z
#
# Youngs Moduli (GPa) = 75.01076 81.53942 56.75692
#
# Poissons Ratio (x) = 0.50445 0.27969
# Poissons Ratio (y) = 0.46406 0.07302
# Poissons Ratio (z) = 0.36964 0.10491
#
# Static dielectric constant tensor:
#      x y z
#    x 1.715090 0.000000 0.000000 
#    y 0.000000 1.757690 0.000000 
#    z 0.000000 0.000000 1.641790 
# 
# From -- ./inp_files/23230.got.cif
#   From: 2010.05.17/outbox.cif.g08.bks.cpg/sg52_12_cif.got.tgz:23230.got - 2010.06.03 12:15:38.
