data_PCOD9410355
_publ_section_title
;
Structure prediction by ZEFSAII (Michael W. Deem and Ramdas Pophale) SiO2 
 PCOD9410355
Probable space group: P N N A
;
_chemical_formula_sum "Si O2"
_cell_formula_units_Z 48
_cell_length_a 14.941375
_cell_length_b 9.263248
_cell_length_c 13.864541
_cell_angle_alpha 90.000000
_cell_angle_beta 90.000000
_cell_angle_gamma 90.000000
_cell_volume 1918.930977
_symmetry_space_group_name_H-M "P N N A"
_symmetry_group_IT_number 52
_symmetry_cell_setting 'orthorhombic'
loop_
_space_group_symop_operation_xyz
x,y,z
1/2-x,-y,z
x,1/2-y,1/2-z
1/2-x,1/2+y,1/2-z
-x,-y,-z
1/2+x,y,-z
-x,1/2+y,1/2+z
1/2+x,1/2-y,1/2+z
loop_
_atom_site_type_symbol
_atom_site_label
_atom_site_fract_x
_atom_site_fract_y
_atom_site_fract_z
Si Si1 0.250000 0.000000 0.736114
Si Si2 0.423391 0.621663 0.008424
Si Si3 0.868780 0.394352 0.722656
Si Si4 0.750000 0.000000 0.614237
Si Si5 0.145557 0.750000 0.750000
Si Si6 0.622166 0.136334 0.104136
Si Si7 0.750000 0.000000 0.946822
Si Si8 0.008120 0.393692 0.365083
O O1 0.199357 0.868183 0.688208
O O2 0.320747 0.914296 0.804294
O O3 0.331453 0.560386 0.051624
O O4 0.453815 0.759699 0.074070
O O5 0.500000 0.500000 0.000000
O O6 0.402291 0.696386 0.905747
O O7 0.923638 0.250000 0.750000
O O8 0.797513 0.393636 0.809411
O O9 0.814652 0.406726 0.622173
O O10 0.925138 0.543682 0.717119
O O11 0.082238 0.668470 0.677939
O O12 0.530497 0.044439 0.092551
O O13 0.687755 0.094603 0.015607
#
# Coordination Sequence:
#
# PCOD9410355 Si02
#       8
#     4   8   8   4   4   8   4   8
#     4   9  22  41  71  92 127 180 240 276 357 416
#     4  12  27  45  69 103 145 182 236 293 356 434
#     4  11  24  40  71 102 136 187 234 290 365 439
#     4  11  28  45  67 108 147 184 238 292 373 424
#     4  10  22  44  64  98 132 178 222 298 342 416
#     4  10  22  44  69  98 132 186 234 291 359 416
#     4  10  20  40  70  96 138 178 236 300 356 430
#     4  11  24  45  70  99 143 182 232 300 358 422
#
# _framework density 25.013926000000001
#
# number of rings (size 3 to 8) (size 9 to 14) (size 15 to 20)
#    0.000    1.333    1.667    2.500    4.667    5.333 
#    6.000    0.000    0.000    0.000    0.000    0.000 
#    0.000    0.000    0.000    0.000    0.000    0.000 
#
# Total GULP energy -268034.056814 kJ/mol
# GULP energy per Si atom -5584.042850 kJ/mol
# Density = 2.495699 g / cm^3
# Si number density = 25.013926 Si / 1000 Ang^3
#
#
#
# Elastic Constant Matrix: (Units=GPa)
#
#
# Indices 1 2 3 4 5 6 
#
# 1 129.8819 63.8515 28.3416 0.0000 0.0000 0.0000
# 2 63.8515 146.5920 33.4989 0.0000 0.0000 0.0000
# 3 28.3416 33.4989 48.0822 0.0000 0.0000 0.0000
# 4 0.0000 0.0000 0.0000 15.9319 0.0000 0.0000
# 5 0.0000 0.0000 0.0000 0.0000 31.7842 0.0000
# 6 0.0000 0.0000 0.0000 0.0000 0.0000 31.9446
#
#
#
# Elastic Compliance Matrix: (Units=1/GPa)
#
#
# Indices 1 2 3 4 5 6 
#
# 1 0.010268 -0.003674 -0.003492 0.000000 0.000000 0.000000
# 2 -0.003674 0.009428 -0.004403 0.000000 0.000000 0.000000
# 3 -0.003492 -0.004403 0.025924 0.000000 0.000000 0.000000
# 4 0.000000 0.000000 0.000000 0.062767 0.000000 0.000000
# 5 0.000000 0.000000 0.000000 0.000000 0.031462 0.000000
# 6 0.000000 0.000000 0.000000 0.000000 0.000000 0.031304
#
#
# Mechanical properties :
#
#
# Convention : Reuss Voigt Hill
#
# Bulk Modulus (GPa) = 44.48265 63.99334 54.23799
# Shear Modulus (GPa) = 24.77877 29.18974 26.98426
#
# Velocity S-wave (km/s) = 3.15079 3.41976 3.28803
# Velocity P-wave (km/s) = 5.57301 6.42118 6.01207
#
# Compressibility (1/GPa) = 0.02248068
#
# Stress axis : x y z
#
# Youngs Moduli (GPa) = 97.39296 106.06487 38.57472
#
# Poissons Ratio (x) = 0.38971 0.13472
# Poissons Ratio (y) = 0.35785 0.16984
# Poissons Ratio (z) = 0.34013 0.46699
#
# Static dielectric constant tensor:
#      x y z
#    x 2.080420 0.000000 0.000000 
#    y 0.000000 2.094380 0.000000 
#    z 0.000000 0.000000 2.041800 
# 
# From -- ./inp_files/33138.got.cif
#   From: 2010.05.17/outbox.cif.g08.bks.cpg/sg52_17_cif.got.tgz:33138.got - 2010.06.03 12:15:38.
