data_PCOD9410133
_publ_section_title
;
Structure prediction by ZEFSAII (Michael W. Deem and Ramdas Pophale) SiO2 
 PCOD9410133
Probable space group: P N N A
;
_chemical_formula_sum "Si O2"
_cell_formula_units_Z 48
_cell_length_a 15.119836
_cell_length_b 17.408339
_cell_length_c 8.534013
_cell_angle_alpha 90.000000
_cell_angle_beta 90.000000
_cell_angle_gamma 90.000000
_cell_volume 2246.248065
_symmetry_space_group_name_H-M "P N N A"
_symmetry_group_IT_number 52
_symmetry_cell_setting 'orthorhombic'
loop_
_space_group_symop_operation_xyz
x,y,z
1/2-x,-y,z
x,1/2-y,1/2-z
1/2-x,1/2+y,1/2-z
-x,-y,-z
1/2+x,y,-z
-x,1/2+y,1/2+z
1/2+x,1/2-y,1/2+z
loop_
_atom_site_type_symbol
_atom_site_label
_atom_site_fract_x
_atom_site_fract_y
_atom_site_fract_z
Si Si1 0.613294 0.193042 0.896847
Si Si2 0.547193 0.764799 0.570760
Si Si3 0.495273 0.434508 0.132086
Si Si4 0.310476 0.932253 0.597102
Si Si5 0.153586 0.026362 0.233100
Si Si6 0.770471 0.235449 0.424351
O O1 0.632551 0.250000 0.750000
O O2 0.621613 0.104808 0.846685
O O3 0.517394 0.216340 0.961245
O O4 0.686090 0.214249 0.027546
O O5 0.522915 0.750000 0.750000
O O6 0.532860 0.855780 0.548347
O O7 0.649532 0.748157 0.541114
O O8 0.596471 0.424103 0.187063
O O9 0.423016 0.461248 0.260055
O O10 0.500000 0.500000 0.000000
O O11 0.331201 0.954687 0.416961
O O12 0.259937 0.852631 0.579581
O O13 0.250000 0.000000 0.664702
O O14 0.250000 0.000000 0.171683
O O15 0.803696 0.250000 0.250000
#
# Coordination Sequence:
#
# PCOD9410133 Si02
#       6
#     8   8   8   8   8   8
#     4  12  23  43  69 102 139 177 228 290 344 411
#     4  12  26  43  73 100 134 180 233 288 344 405
#     4  10  20  39  66  97 133 180 232 271 332 423
#     4  10  20  38  66  97 130 178 231 277 328 416
#     4  10  21  38  68  98 135 179 230 274 345 411
#     4  12  25  42  67 100 137 177 229 279 344 411
#
# _framework density 21.368967999999999
#
# number of rings (size 3 to 8) (size 9 to 14) (size 15 to 20)
#    0.000    1.000    3.333    5.500    2.333    1.333 
#    0.000    1.667    3.667    0.000    0.000    0.000 
#    0.000    0.000    0.000    0.000    0.000    0.000 
#
# Total GULP energy -268269.891361 kJ/mol
# GULP energy per Si atom -5588.956070 kJ/mol
# Density = 2.132033 g / cm^3
# Si number density = 21.368968 Si / 1000 Ang^3
#
#
#
# Elastic Constant Matrix: (Units=GPa)
#
#
# Indices 1 2 3 4 5 6 
#
# 1 148.5735 57.6606 3.5574 0.0000 0.0000 0.0000
# 2 57.6606 85.6075 3.3503 0.0000 0.0000 0.0000
# 3 3.5574 3.3503 36.1073 0.0000 0.0000 0.0000
# 4 0.0000 0.0000 0.0000 22.0913 0.0000 0.0000
# 5 0.0000 0.0000 0.0000 0.0000 22.3367 0.0000
# 6 0.0000 0.0000 0.0000 0.0000 0.0000 26.3058
#
#
#
# Elastic Compliance Matrix: (Units=1/GPa)
#
#
# Indices 1 2 3 4 5 6 
#
# 1 0.009117 -0.006128 -0.000330 0.000000 0.000000 0.000000
# 2 -0.006128 0.015842 -0.000866 0.000000 0.000000 0.000000
# 3 -0.000330 -0.000866 0.027808 0.000000 0.000000 0.000000
# 4 0.000000 0.000000 0.000000 0.045267 0.000000 0.000000
# 5 0.000000 0.000000 0.000000 0.000000 0.044769 0.000000
# 6 0.000000 0.000000 0.000000 0.000000 0.000000 0.038014
#
#
# Mechanical properties :
#
#
# Convention : Reuss Voigt Hill
#
# Bulk Modulus (GPa) = 26.23290 44.38055 35.30672
# Shear Modulus (GPa) = 24.01871 27.86144 25.94007
#
# Velocity S-wave (km/s) = 3.35625 3.61477 3.48791
# Velocity P-wave (km/s) = 5.22705 6.18352 5.72529
#
# Compressibility (1/GPa) = 0.03812008
#
# Stress axis : x y z
#
# Youngs Moduli (GPa) = 109.68931 63.12196 35.96081
#
# Poissons Ratio (x) = 0.38679 0.01185
# Poissons Ratio (y) = 0.67213 0.03115
# Poissons Ratio (z) = 0.03616 0.05468
#
# Static dielectric constant tensor:
#      x y z
#    x 1.815080 0.000000 0.000000 
#    y 0.000000 1.863260 0.000000 
#    z 0.000000 0.000000 1.743140 
# 
# From -- ./inp_files/10487.got.cif
#   From: 2010.05.17/outbox.cif.g08.bks.cpg/sg52_6_cif.got.tgz:10487.got - 2010.06.03 12:15:38.
