data_PCOD9410479
_publ_section_title
;
Structure prediction by ZEFSAII (Michael W. Deem and Ramdas Pophale) SiO2 
 PCOD9410479
Probable space group: P N N A
;
_chemical_formula_sum "Si O2"
_cell_formula_units_Z 36
_cell_length_a 9.180869
_cell_length_b 8.289390
_cell_length_c 22.209109
_cell_angle_alpha 90.000000
_cell_angle_beta 90.000000
_cell_angle_gamma 90.000000
_cell_volume 1690.197671
_symmetry_space_group_name_H-M "P N N A"
_symmetry_group_IT_number 52
_symmetry_cell_setting 'orthorhombic'
loop_
_space_group_symop_operation_xyz
x,y,z
1/2-x,-y,z
x,1/2-y,1/2-z
1/2-x,1/2+y,1/2-z
-x,-y,-z
1/2+x,y,-z
-x,1/2+y,1/2+z
1/2+x,1/2-y,1/2+z
loop_
_atom_site_type_symbol
_atom_site_label
_atom_site_fract_x
_atom_site_fract_y
_atom_site_fract_z
Si Si1 0.607910 0.750000 0.750000
Si Si2 0.721504 0.684274 0.524544
Si Si3 0.579608 0.998149 0.318415
Si Si4 0.061028 0.134035 0.546431
Si Si5 0.679931 0.183221 0.648864
O O1 0.505879 0.896783 0.730784
O O2 0.715544 0.720834 0.694021
O O3 0.750000 0.500000 0.509901
O O4 0.554569 0.721251 0.539319
O O5 0.781672 0.801707 0.472842
O O6 0.811915 0.737822 0.583697
O O7 0.563697 0.075834 0.385160
O O8 0.750000 0.000000 0.304294
O O9 0.483351 0.836238 0.326025
O O10 0.000000 0.000000 0.500000
O O11 0.750000 0.000000 0.644858
#
# Coordination Sequence:
#
# PCOD9410479 Si02
#       5
#     4   8   8   8   8
#     4  10  22  42  66  98 132 170 244 288 328 428
#     4  12  24  39  64 106 142 176 227 300 359 411
#     4  11  23  42  71 101 132 180 246 286 352 420
#     4  12  22  43  70  99 137 188 235 283 343 443
#     4  10  20  43  68  93 130 187 236 268 346 445
#
# _framework density 21.299285999999999
#
# number of rings (size 3 to 8) (size 9 to 14) (size 15 to 20)
#    0.000    0.889    6.667    2.667    0.000    3.556 
#    0.000    1.111    0.000    0.000    0.000    0.000 
#    0.000    0.000    0.000    0.000    0.000    0.000 
#
# Total GULP energy -201199.747459 kJ/mol
# GULP energy per Si atom -5588.881874 kJ/mol
# Density = 2.125081 g / cm^3
# Si number density = 21.299286 Si / 1000 Ang^3
#
#
#
# Elastic Constant Matrix: (Units=GPa)
#
#
# Indices 1 2 3 4 5 6 
#
# 1 145.2036 9.6854 11.7640 0.0000 0.0000 0.0000
# 2 9.6854 59.3856 21.5261 0.0000 0.0000 0.0000
# 3 11.7640 21.5261 80.0500 0.0000 0.0000 0.0000
# 4 0.0000 0.0000 0.0000 21.4701 0.0000 0.0000
# 5 0.0000 0.0000 0.0000 0.0000 33.5805 0.0000
# 6 0.0000 0.0000 0.0000 0.0000 0.0000 32.6032
#
#
#
# Elastic Compliance Matrix: (Units=1/GPa)
#
#
# Indices 1 2 3 4 5 6 
#
# 1 0.007009 -0.000853 -0.000801 0.000000 0.000000 0.000000
# 2 -0.000853 0.018762 -0.004920 0.000000 0.000000 0.000000
# 3 -0.000801 -0.004920 0.013933 0.000000 0.000000 0.000000
# 4 0.000000 0.000000 0.000000 0.046576 0.000000 0.000000
# 5 0.000000 0.000000 0.000000 0.000000 0.029779 0.000000
# 6 0.000000 0.000000 0.000000 0.000000 0.000000 0.030672
#
#
# Mechanical properties :
#
#
# Convention : Reuss Voigt Hill
#
# Bulk Modulus (GPa) = 37.65568 41.17669 39.41619
# Shear Modulus (GPa) = 29.63329 33.64167 31.63748
#
# Velocity S-wave (km/s) = 3.73403 3.97857 3.85824
# Velocity P-wave (km/s) = 6.02564 6.36237 6.19630
#
# Compressibility (1/GPa) = 0.02655642
#
# Stress axis : x y z
#
# Youngs Moduli (GPa) = 142.68114 53.30062 71.77296
#
# Poissons Ratio (x) = 0.04546 0.05746
# Poissons Ratio (y) = 0.12168 0.35311
# Poissons Ratio (z) = 0.11424 0.26223
#
# Static dielectric constant tensor:
#      x y z
#    x 1.811750 0.000000 0.000000 
#    y 0.000000 1.784710 0.000000 
#    z 0.000000 0.000000 1.752900 
# 
# From -- ./inp_files/35549.got.cif
#   From: 2010.05.17/outbox.cif.g08.bks.cpg/sg52_18_cif.got.tgz:35549.got - 2010.06.03 12:15:38.
