data_PCOD9410746
_publ_section_title
;
Structure prediction by ZEFSAII (Michael W. Deem and Ramdas Pophale) SiO2 
 PCOD9410746
Probable space group: P N N A
;
_chemical_formula_sum "Si O2"
_cell_formula_units_Z 60
_cell_length_a 13.931462
_cell_length_b 18.522160
_cell_length_c 11.761061
_cell_angle_alpha 90.000000
_cell_angle_beta 90.000000
_cell_angle_gamma 90.000000
_cell_volume 3034.833215
_symmetry_space_group_name_H-M "P N N A"
_symmetry_group_IT_number 52
_symmetry_cell_setting 'orthorhombic'
loop_
_space_group_symop_operation_xyz
x,y,z
1/2-x,-y,z
x,1/2-y,1/2-z
1/2-x,1/2+y,1/2-z
-x,-y,-z
1/2+x,y,-z
-x,1/2+y,1/2+z
1/2+x,1/2-y,1/2+z
loop_
_atom_site_type_symbol
_atom_site_label
_atom_site_fract_x
_atom_site_fract_y
_atom_site_fract_z
Si Si1 0.353577 0.194727 0.423558
Si Si2 0.795414 0.423457 0.736131
Si Si3 0.229853 0.171697 0.047988
Si Si4 0.702552 0.423190 0.338385
Si Si5 0.486380 0.430799 0.418625
Si Si6 0.466301 0.250000 0.750000
Si Si7 0.028390 0.226217 0.003105
Si Si8 0.710372 0.820013 0.315114
O O1 0.324705 0.130793 0.338659
O O2 0.301774 0.270602 0.397531
O O3 0.466734 0.215905 0.431595
O O4 0.315195 0.183090 0.552627
O O5 0.750000 0.500000 0.772767
O O6 0.717864 0.384584 0.651729
O O7 0.891864 0.436246 0.660064
O O8 0.254132 0.123109 0.938744
O O9 0.141386 0.215826 0.993162
O O10 0.750000 0.500000 0.346168
O O11 0.588443 0.425780 0.353979
O O12 0.727558 0.387128 0.219201
O O13 0.500000 0.500000 0.500000
O O14 0.482975 0.353179 0.482600
O O15 0.521169 0.252201 0.634344
O O16 0.394310 0.181763 0.744947
O O17 0.755245 0.750000 0.250000
#
# Coordination Sequence:
#
# PCOD9410746 Si02
#       8
#     8   8   8   8   8   4   8   8
#     4  11  23  42  66  92 135 175 225 280 338 411
#     4  12  26  44  62  95 142 178 223 281 352 419
#     4  11  21  39  66  99 127 173 221 275 340 402
#     4  11  22  38  68  98 129 168 223 278 335 398
#     4  11  24  40  65  98 134 172 214 282 347 400
#     4   8  18  34  58  86 126 158 212 268 312 382
#     4  10  21  37  63  96 128 165 220 274 327 402
#     4   9  19  39  61  88 125 169 214 273 323 390
#
# _framework density 19.770444000000001
#
# number of rings (size 3 to 8) (size 9 to 14) (size 15 to 20)
#    0.400    1.067    2.667    3.200    3.733    1.600 
#    0.000    0.000    0.000    2.400    0.000    0.000 
#    0.000    0.000    0.000    0.000    0.000    0.000 
#
# Total GULP energy -334009.625230 kJ/mol
# GULP energy per Si atom -5566.827087 kJ/mol
# Density = 1.972545 g / cm^3
# Si number density = 19.770444 Si / 1000 Ang^3
#
#
#
# Elastic Constant Matrix: (Units=GPa)
#
#
# Indices 1 2 3 4 5 6 
#
# 1 76.4766 39.4865 20.6616 0.0000 0.0000 0.0000
# 2 39.4865 101.1540 41.0555 0.0000 0.0000 0.0000
# 3 20.6616 41.0555 73.3660 0.0000 0.0000 0.0000
# 4 0.0000 0.0000 0.0000 40.5670 0.0000 0.0000
# 5 0.0000 0.0000 0.0000 0.0000 16.8538 0.0000
# 6 0.0000 0.0000 0.0000 0.0000 0.0000 42.7812
#
#
#
# Elastic Compliance Matrix: (Units=1/GPa)
#
#
# Indices 1 2 3 4 5 6 
#
# 1 0.016479 -0.005886 -0.001347 0.000000 0.000000 0.000000
# 2 -0.005886 0.014893 -0.006677 0.000000 0.000000 0.000000
# 3 -0.001347 -0.006677 0.017746 0.000000 0.000000 0.000000
# 4 0.000000 0.000000 0.000000 0.024651 0.000000 0.000000
# 5 0.000000 0.000000 0.000000 0.000000 0.059334 0.000000
# 6 0.000000 0.000000 0.000000 0.000000 0.000000 0.023375
#
#
# Mechanical properties :
#
#
# Convention : Reuss Voigt Hill
#
# Bulk Modulus (GPa) = 46.95110 50.37821 48.66466
# Shear Modulus (GPa) = 26.12380 30.02660 28.07520
#
# Velocity S-wave (km/s) = 3.63899 3.90136 3.77246
# Velocity P-wave (km/s) = 6.43863 6.76986 6.60632
#
# Compressibility (1/GPa) = 0.02129876
#
# Stress axis : x y z
#
# Youngs Moduli (GPa) = 60.68370 67.14363 56.35092
#
# Poissons Ratio (x) = 0.39520 0.07591
# Poissons Ratio (y) = 0.35718 0.37624
# Poissons Ratio (z) = 0.08175 0.44830
#
# Static dielectric constant tensor:
#      x y z
#    x 1.771190 0.000000 0.000000 
#    y 0.000000 1.713620 0.000000 
#    z 0.000000 0.000000 1.691290 
# 
# From -- ./inp_files/19817.got.cif
#   From: 2010.05.17/outbox.cif.g08.bks.cpg/sg52_10_cif.got.tgz:19817.got - 2010.06.03 12:15:38.
