data_PCOD9410544
_publ_section_title
;
Structure prediction by ZEFSAII (Michael W. Deem and Ramdas Pophale) SiO2 
 PCOD9410544
Probable space group: P N N A
;
_chemical_formula_sum "Si O2"
_cell_formula_units_Z 60
_cell_length_a 27.982675
_cell_length_b 5.274486
_cell_length_c 17.631614
_cell_angle_alpha 90.000000
_cell_angle_beta 90.000000
_cell_angle_gamma 90.000000
_cell_volume 2602.324448
_symmetry_space_group_name_H-M "P N N A"
_symmetry_group_IT_number 52
_symmetry_cell_setting 'orthorhombic'
loop_
_space_group_symop_operation_xyz
x,y,z
1/2-x,-y,z
x,1/2-y,1/2-z
1/2-x,1/2+y,1/2-z
-x,-y,-z
1/2+x,y,-z
-x,1/2+y,1/2+z
1/2+x,1/2-y,1/2+z
loop_
_atom_site_type_symbol
_atom_site_label
_atom_site_fract_x
_atom_site_fract_y
_atom_site_fract_z
Si Si1 0.439166 0.504011 0.434394
Si Si2 0.956654 0.250000 0.250000
Si Si3 0.195492 0.424589 0.049419
Si Si4 0.612999 0.381911 0.329001
Si Si5 0.844147 0.409148 0.480039
Si Si6 0.366507 0.490944 0.200389
Si Si7 0.466431 0.587052 0.154789
Si Si8 0.964267 0.665120 0.066075
O O1 0.394269 0.369885 0.473375
O O2 0.440228 0.642420 0.353938
O O3 0.488673 0.348348 0.432225
O O4 0.437908 0.753221 0.490293
O O5 0.922069 0.387845 0.307528
O O6 0.995547 0.451738 0.220839
O O7 0.250000 0.500000 0.065071
O O8 0.165522 0.467350 0.126067
O O9 0.184804 0.137756 0.021142
O O10 0.179457 0.633716 0.986830
O O11 0.630148 0.250000 0.250000
O O12 0.647526 0.493551 0.393871
O O13 0.577137 0.192367 0.372115
O O14 0.364726 0.750000 0.250000
O O15 0.420031 0.420095 0.168876
O O16 0.350362 0.250000 0.250000
O O17 0.506629 0.585264 0.086689
#
# Coordination Sequence:
#
# PCOD9410544 Si02
#       8
#     8   4   8   8   8   8   8   8
#     4  10  21  37  56  90 129 184 233 289 336 394
#     4  12  24  34  58  92 138 198 242 278 324 402
#     4  12  27  52  81 107 134 171 234 300 372 444
#     4  11  24  40  62  99 144 192 240 287 346 412
#     4  11  26  46  74 107 139 182 233 298 366 423
#     4  12  28  44  71 104 145 191 225 285 352 417
#     4  12  22  35  58  85 142 188 242 277 323 395
#     4  10  21  34  55  86 132 185 244 280 327 384
#
# _framework density 23.056311999999998
#
# number of rings (size 3 to 8) (size 9 to 14) (size 15 to 20)
#    0.000    0.800    4.667    2.400    5.600    0.533 
#    0.000    0.000    0.000    1.600    0.000    0.000 
#    0.000    0.000    0.000    0.000    0.000    0.000 
#
# Total GULP energy -334070.372899 kJ/mol
# GULP energy per Si atom -5567.839548 kJ/mol
# Density = 2.300383 g / cm^3
# Si number density = 23.056312 Si / 1000 Ang^3
#
#
#
# Elastic Constant Matrix: (Units=GPa)
#
#
# Indices 1 2 3 4 5 6 
#
# 1 64.4688 -3.6181 18.3319 0.0000 0.0000 0.0000
# 2 -3.6181 76.9638 10.3913 0.0000 0.0000 0.0000
# 3 18.3319 10.3913 70.3284 0.0000 0.0000 0.0000
# 4 0.0000 0.0000 0.0000 34.5093 0.0000 0.0000
# 5 0.0000 0.0000 0.0000 0.0000 12.8202 0.0000
# 6 0.0000 0.0000 0.0000 0.0000 0.0000 13.1560
#
#
#
# Elastic Compliance Matrix: (Units=1/GPa)
#
#
# Indices 1 2 3 4 5 6 
#
# 1 0.016903 0.001418 -0.004616 0.000000 0.000000 0.000000
# 2 0.001418 0.013377 -0.002346 0.000000 0.000000 0.000000
# 3 -0.004616 -0.002346 0.015769 0.000000 0.000000 0.000000
# 4 0.000000 0.000000 0.000000 0.028978 0.000000 0.000000
# 5 0.000000 0.000000 0.000000 0.000000 0.078002 0.000000
# 6 0.000000 0.000000 0.000000 0.000000 0.000000 0.076011
#
#
# Mechanical properties :
#
#
# Convention : Reuss Voigt Hill
#
# Bulk Modulus (GPa) = 28.60316 29.10790 28.85553
# Shear Modulus (GPa) = 19.85854 24.54081 22.19968
#
# Velocity S-wave (km/s) = 2.93799 3.26603 3.10634
# Velocity P-wave (km/s) = 4.89303 5.18408 5.04066
#
# Compressibility (1/GPa) = 0.03496117
#
# Stress axis : x y z
#
# Youngs Moduli (GPa) = 59.15974 74.75788 63.41663
#
# Poissons Ratio (x) = -0.10599 0.29270
# Poissons Ratio (y) = -0.08388 0.14878
# Poissons Ratio (z) = 0.27305 0.17538
#
# Static dielectric constant tensor:
#      x y z
#    x 1.859180 0.000000 0.000000 
#    y 0.000000 2.081550 0.000000 
#    z 0.000000 0.000000 1.672640 
# 
# From -- ./inp_files/34482.got.cif
#   From: 2010.05.17/outbox.cif.g08.bks.cpg/sg52_18_cif.got.tgz:34482.got - 2010.06.03 12:15:38.
