data_PCOD9410207
_publ_section_title
;
Structure prediction by ZEFSAII (Michael W. Deem and Ramdas Pophale) SiO2 
 PCOD9410207
Probable space group: P N N A
;
_chemical_formula_sum "Si O2"
_cell_formula_units_Z 48
_cell_length_a 17.322422
_cell_length_b 11.701261
_cell_length_c 12.568895
_cell_angle_alpha 90.000000
_cell_angle_beta 90.000000
_cell_angle_gamma 90.000000
_cell_volume 2547.641878
_symmetry_space_group_name_H-M "P N N A"
_symmetry_group_IT_number 52
_symmetry_cell_setting 'orthorhombic'
loop_
_space_group_symop_operation_xyz
x,y,z
1/2-x,-y,z
x,1/2-y,1/2-z
1/2-x,1/2+y,1/2-z
-x,-y,-z
1/2+x,y,-z
-x,1/2+y,1/2+z
1/2+x,1/2-y,1/2+z
loop_
_atom_site_type_symbol
_atom_site_label
_atom_site_fract_x
_atom_site_fract_y
_atom_site_fract_z
Si Si1 0.466066 0.378592 0.714828
Si Si2 0.659646 0.991318 0.090565
Si Si3 0.057246 0.068475 0.425879
Si Si4 0.376783 0.325927 0.394460
Si Si5 0.677228 0.581585 0.826110
Si Si6 0.455992 0.680686 0.506251
O O1 0.446525 0.250000 0.750000
O O2 0.388505 0.446912 0.691576
O O3 0.518273 0.423064 0.809980
O O4 0.512215 0.377360 0.602795
O O5 0.612739 0.104315 0.053177
O O6 0.750000 0.000000 0.112447
O O7 0.651315 0.899018 0.995035
O O8 0.071169 0.193992 0.471758
O O9 0.132703 0.994911 0.410864
O O10 0.000000 0.000000 0.500000
O O11 0.365643 0.396639 0.286153
O O12 0.326133 0.210089 0.376600
O O13 0.468166 0.304957 0.418086
O O14 0.750000 0.500000 0.800486
#
# Coordination Sequence:
#
# PCOD9410207 Si02
#       6
#     8   8   8   8   8   8
#     4   9  20  39  62  81 115 158 203 240 300 370
#     4  11  22  37  62  91 120 155 208 257 305 365
#     4  11  21  39  62  90 118 162 205 252 306 378
#     4  10  21  40  60  85 123 165 205 255 311 387
#     4  11  23  37  58  90 129 155 198 266 330 363
#     4  10  20  39  64  87 116 165 208 251 299 382
#
# _framework density 18.840952999999999
#
# number of rings (size 3 to 8) (size 9 to 14) (size 15 to 20)
#    0.000    1.667    1.667    4.500    2.333    0.000 
#    6.000    2.500    0.000    0.000    0.000    0.000 
#    0.000    0.000    0.000    0.000    0.000    0.000 
#
# Total GULP energy -267605.926669 kJ/mol
# GULP energy per Si atom -5575.123472 kJ/mol
# Density = 1.879807 g / cm^3
# Si number density = 18.840953 Si / 1000 Ang^3
#
#
#
# Elastic Constant Matrix: (Units=GPa)
#
#
# Indices 1 2 3 4 5 6 
#
# 1 63.3890 51.3232 2.9627 0.0000 0.0000 0.0000
# 2 51.3232 105.5560 25.1951 0.0000 0.0000 0.0000
# 3 2.9627 25.1951 39.6922 0.0000 0.0000 0.0000
# 4 0.0000 0.0000 0.0000 18.8930 0.0000 0.0000
# 5 0.0000 0.0000 0.0000 0.0000 5.3896 0.0000
# 6 0.0000 0.0000 0.0000 0.0000 0.0000 25.0987
#
#
#
# Elastic Compliance Matrix: (Units=1/GPa)
#
#
# Indices 1 2 3 4 5 6 
#
# 1 0.027876 -0.015389 0.007687 0.000000 0.000000 0.000000
# 2 -0.015389 0.019660 -0.011331 0.000000 0.000000 0.000000
# 3 0.007687 -0.011331 0.031813 0.000000 0.000000 0.000000
# 4 0.000000 0.000000 0.000000 0.052930 0.000000 0.000000
# 5 0.000000 0.000000 0.000000 0.000000 0.185544 0.000000
# 6 0.000000 0.000000 0.000000 0.000000 0.000000 0.039843
#
#
# Mechanical properties :
#
#
# Convention : Reuss Voigt Hill
#
# Bulk Modulus (GPa) = 24.22228 40.84437 32.53333
# Shear Modulus (GPa) = 12.21028 18.48666 15.34847
#
# Velocity S-wave (km/s) = 2.54849 3.13580 2.85728
# Velocity P-wave (km/s) = 4.64153 5.90225 5.30944
#
# Compressibility (1/GPa) = 0.04128430
#
# Stress axis : x y z
#
# Youngs Moduli (GPa) = 35.87344 50.86342 31.43405
#
# Poissons Ratio (x) = 0.78272 -0.24165
# Poissons Ratio (y) = 0.55204 0.35618
# Poissons Ratio (z) = -0.27577 0.57634
#
# Static dielectric constant tensor:
#      x y z
#    x 1.726230 0.000000 0.000000 
#    y 0.000000 1.684130 0.000000 
#    z 0.000000 0.000000 1.637450 
# 
# From -- ./inp_files/20615.got.cif
#   From: 2010.05.17/outbox.cif.g08.bks.cpg/sg52_11_cif.got.tgz:20615.got - 2010.06.03 12:15:38.
