data_PCOD9410116
_publ_section_title
;
Structure prediction by ZEFSAII (Michael W. Deem and Ramdas Pophale) SiO2 
 PCOD9410116
Probable space group: P N N A
;
_chemical_formula_sum "Si O2"
_cell_formula_units_Z 48
_cell_length_a 14.403780
_cell_length_b 27.636339
_cell_length_c 6.138416
_cell_angle_alpha 90.000000
_cell_angle_beta 90.000000
_cell_angle_gamma 90.000000
_cell_volume 2443.505427
_symmetry_space_group_name_H-M "P N N A"
_symmetry_group_IT_number 52
_symmetry_cell_setting 'orthorhombic'
loop_
_space_group_symop_operation_xyz
x,y,z
1/2-x,-y,z
x,1/2-y,1/2-z
1/2-x,1/2+y,1/2-z
-x,-y,-z
1/2+x,y,-z
-x,1/2+y,1/2+z
1/2+x,1/2-y,1/2+z
loop_
_atom_site_type_symbol
_atom_site_label
_atom_site_fract_x
_atom_site_fract_y
_atom_site_fract_z
Si Si1 0.283073 0.370312 0.303071
Si Si2 0.571857 0.643589 0.084615
Si Si3 0.951909 0.970477 0.300917
Si Si4 0.898084 0.059800 0.066872
Si Si5 0.627999 0.129868 0.462131
Si Si6 0.731531 0.804257 0.189810
O O1 0.309357 0.413893 0.464225
O O2 0.278143 0.320631 0.439918
O O3 0.364911 0.369619 0.123695
O O4 0.186972 0.376653 0.180781
O O5 0.565221 0.598527 0.253746
O O6 0.631233 0.684497 0.204675
O O7 0.469030 0.656399 0.009291
O O8 0.899015 0.923007 0.377843
O O9 0.028059 0.952318 0.124123
O O10 0.000000 0.000000 0.500000
O O11 0.884513 0.009178 0.187049
O O12 0.693547 0.159548 0.298494
O O13 0.757937 0.750000 0.250000
#
# Coordination Sequence:
#
# PCOD9410116 Si02
#       6
#     8   8   8   8   8   8
#     4  10  22  42  67  91 139 165 220 283 329 400
#     4  10  21  43  65  93 129 176 215 269 344 391
#     4  11  21  37  65  94 135 177 230 268 331 404
#     4  10  20  38  65  92 132 180 219 272 327 393
#     4  11  23  40  67  97 129 178 222 276 329 412
#     4  10  25  46  65  99 128 165 220 286 342 405
#
# _framework density 19.643906999999999
#
# number of rings (size 3 to 8) (size 9 to 14) (size 15 to 20)
#    0.000    1.667    3.333    0.000    2.333    2.667 
#    6.000   20.000    0.000    0.000    0.000    0.000 
#    0.000    0.000    0.000    0.000    0.000    0.000 
#
# Total GULP energy -267906.667705 kJ/mol
# GULP energy per Si atom -5581.388911 kJ/mol
# Density = 1.959920 g / cm^3
# Si number density = 19.643907 Si / 1000 Ang^3
#
#
#
# Elastic Constant Matrix: (Units=GPa)
#
#
# Indices 1 2 3 4 5 6 
#
# 1 110.5917 29.5499 37.5352 0.0000 0.0000 0.0000
# 2 29.5499 119.2826 53.0258 0.0000 0.0000 0.0000
# 3 37.5352 53.0258 107.5072 0.0000 0.0000 0.0000
# 4 0.0000 0.0000 0.0000 19.8407 0.0000 0.0000
# 5 0.0000 0.0000 0.0000 0.0000 28.0043 0.0000
# 6 0.0000 0.0000 0.0000 0.0000 0.0000 24.8603
#
#
#
# Elastic Compliance Matrix: (Units=1/GPa)
#
#
# Indices 1 2 3 4 5 6 
#
# 1 0.010397 -0.001232 -0.003022 0.000000 0.000000 0.000000
# 2 -0.001232 0.010884 -0.004938 0.000000 0.000000 0.000000
# 3 -0.003022 -0.004938 0.012793 0.000000 0.000000 0.000000
# 4 0.000000 0.000000 0.000000 0.050401 0.000000 0.000000
# 5 0.000000 0.000000 0.000000 0.000000 0.035709 0.000000
# 6 0.000000 0.000000 0.000000 0.000000 0.000000 0.040225
#
#
# Mechanical properties :
#
#
# Convention : Reuss Voigt Hill
#
# Bulk Modulus (GPa) = 63.74091 64.17812 63.95951
# Shear Modulus (GPa) = 27.17045 29.02577 28.09811
#
# Velocity S-wave (km/s) = 3.72311 3.84812 3.78613
# Velocity P-wave (km/s) = 7.14147 7.24470 7.19327
#
# Compressibility (1/GPa) = 0.01568851
#
# Stress axis : x y z
#
# Youngs Moduli (GPa) = 96.17878 91.87929 78.17063
#
# Poissons Ratio (x) = 0.11321 0.23626
# Poissons Ratio (y) = 0.11851 0.38601
# Poissons Ratio (z) = 0.29069 0.45370
#
# Static dielectric constant tensor:
#      x y z
#    x 1.670000 0.000000 0.000000 
#    y 0.000000 1.673820 0.000000 
#    z 0.000000 0.000000 1.739180 
# 
# From -- ./inp_files/2569.got.cif
#   From: 2010.05.17/outbox.cif.g08.bks.cpg/sg52_2_cif.got.tgz:2569.got - 2010.06.03 12:15:38.
