data_PCOD9410949
_publ_section_title
;
Structure prediction by ZEFSAII (Michael W. Deem and Ramdas Pophale) SiO2 
 PCOD9410949
Probable space group: P N N A
;
_chemical_formula_sum "Si O2"
_cell_formula_units_Z 64
_cell_length_a 5.215424
_cell_length_b 17.512591
_cell_length_c 31.230230
_cell_angle_alpha 90.000000
_cell_angle_beta 90.000000
_cell_angle_gamma 90.000000
_cell_volume 2852.431402
_symmetry_space_group_name_H-M "P N N A"
_symmetry_group_IT_number 52
_symmetry_cell_setting 'orthorhombic'
loop_
_space_group_symop_operation_xyz
x,y,z
1/2-x,-y,z
x,1/2-y,1/2-z
1/2-x,1/2+y,1/2-z
-x,-y,-z
1/2+x,y,-z
-x,1/2+y,1/2+z
1/2+x,1/2-y,1/2+z
loop_
_atom_site_type_symbol
_atom_site_label
_atom_site_fract_x
_atom_site_fract_y
_atom_site_fract_z
Si Si1 0.271401 0.682955 0.526105
Si Si2 0.653875 0.835177 0.660999
Si Si3 0.333698 0.413699 0.313597
Si Si4 0.271666 0.633410 0.977495
Si Si5 0.010643 0.957882 0.401471
Si Si6 0.985777 0.552079 0.227210
Si Si7 0.542493 0.721565 0.296098
Si Si8 0.589404 0.310475 0.376079
O O1 0.513925 0.656017 0.497794
O O2 0.269938 0.775159 0.523591
O O3 0.300513 0.669855 0.577286
O O4 0.675440 0.911913 0.633804
O O5 0.487428 0.870353 0.699638
O O6 0.884224 0.793040 0.684463
O O7 0.550954 0.771544 0.627576
O O8 0.250000 0.500000 0.321304
O O9 0.547312 0.423721 0.276777
O O10 0.141511 0.352542 0.291492
O O11 0.403470 0.376194 0.358753
O O12 0.376359 0.599864 0.933961
O O13 0.484898 0.608933 0.011900
O O14 0.750000 0.000000 0.384770
O O15 0.250000 0.000000 0.423692
O O16 0.750000 0.500000 0.214200
O O17 0.250000 0.500000 0.224417
O O18 0.642132 0.750000 0.250000
O O19 0.722799 0.698350 0.335450
#
# Coordination Sequence:
#
# PCOD9410949 Si02
#       8
#     8   8   8   8   8   8   8   8
#     4  10  23  44  71  99 134 177 233 299 370 431
#     4  11  25  42  61  96 141 182 241 289 341 399
#     4  10  25  44  67 103 145 187 235 288 361 436
#     4  10  21  39  62  87 124 171 225 289 351 413
#     4  12  26  40  61  90 131 182 233 285 345 404
#     4  11  25  42  66  94 142 201 239 279 341 417
#     4  11  25  43  71 105 145 186 239 295 350 417
#     4  11  26  40  74 103 135 186 236 305 357 432
#
# _framework density 22.437000999999999
#
# number of rings (size 3 to 8) (size 9 to 14) (size 15 to 20)
#    0.000    1.250    2.500    1.500   12.250    2.500 
#    0.000    0.000    0.000    0.750    0.000    0.000 
#    0.000    0.000    0.000    0.000    0.000    0.000 
#
# Total GULP energy -356785.634779 kJ/mol
# GULP energy per Si atom -5574.775543 kJ/mol
# Density = 2.238593 g / cm^3
# Si number density = 22.437001 Si / 1000 Ang^3
#
#
#
# Elastic Constant Matrix: (Units=GPa)
#
#
# Indices 1 2 3 4 5 6 
#
# 1 61.1133 22.0376 11.2255 0.0000 0.0000 0.0000
# 2 22.0376 68.6875 28.4163 0.0000 0.0000 0.0000
# 3 11.2255 28.4163 123.0489 0.0000 0.0000 0.0000
# 4 0.0000 0.0000 0.0000 29.4017 0.0000 0.0000
# 5 0.0000 0.0000 0.0000 0.0000 36.8584 0.0000
# 6 0.0000 0.0000 0.0000 0.0000 0.0000 16.7860
#
#
#
# Elastic Compliance Matrix: (Units=1/GPa)
#
#
# Indices 1 2 3 4 5 6 
#
# 1 0.018518 -0.005796 -0.000351 0.000000 0.000000 0.000000
# 2 -0.005796 0.017911 -0.003607 0.000000 0.000000 0.000000
# 3 -0.000351 -0.003607 0.008992 0.000000 0.000000 0.000000
# 4 0.000000 0.000000 0.000000 0.034012 0.000000 0.000000
# 5 0.000000 0.000000 0.000000 0.000000 0.027131 0.000000
# 6 0.000000 0.000000 0.000000 0.000000 0.000000 0.059574
#
#
# Mechanical properties :
#
#
# Convention : Reuss Voigt Hill
#
# Bulk Modulus (GPa) = 38.59269 41.80092 40.19681
# Shear Modulus (GPa) = 25.73579 29.35391 27.54485
#
# Velocity S-wave (km/s) = 3.39045 3.62094 3.50759
# Velocity P-wave (km/s) = 5.70655 6.01269 5.86162
#
# Compressibility (1/GPa) = 0.02591164
#
# Stress axis : x y z
#
# Youngs Moduli (GPa) = 54.00287 55.83259 111.21067
#
# Poissons Ratio (x) = 0.32361 0.03901
# Poissons Ratio (y) = 0.31300 0.40119
# Poissons Ratio (z) = 0.01894 0.20141
#
# Static dielectric constant tensor:
#      x y z
#    x 1.957830 0.000000 0.000000 
#    y 0.000000 1.853880 0.000000 
#    z 0.000000 0.000000 1.884610 
# 
# From -- ./inp_files/43909.got.cif
#   From: 2010.05.17/outbox.cif.g08.bks.cpg/sg52_22_cif.got.tgz:43909.got - 2010.06.03 12:15:38.
