data_PCOD9410397
_publ_section_title
;
Structure prediction by ZEFSAII (Michael W. Deem and Ramdas Pophale) SiO2 
 PCOD9410397
Probable space group: P N N A
;
_chemical_formula_sum "Si O2"
_cell_formula_units_Z 48
_cell_length_a 17.646135
_cell_length_b 9.075166
_cell_length_c 15.182037
_cell_angle_alpha 90.000000
_cell_angle_beta 90.000000
_cell_angle_gamma 90.000000
_cell_volume 2431.275763
_symmetry_space_group_name_H-M "P N N A"
_symmetry_group_IT_number 52
_symmetry_cell_setting 'orthorhombic'
loop_
_space_group_symop_operation_xyz
x,y,z
1/2-x,-y,z
x,1/2-y,1/2-z
1/2-x,1/2+y,1/2-z
-x,-y,-z
1/2+x,y,-z
-x,1/2+y,1/2+z
1/2+x,1/2-y,1/2+z
loop_
_atom_site_type_symbol
_atom_site_label
_atom_site_fract_x
_atom_site_fract_y
_atom_site_fract_z
Si Si1 0.435269 0.857312 0.094207
Si Si2 0.401993 0.451477 0.572421
Si Si3 0.793009 0.194088 0.485286
Si Si4 0.917494 0.937671 0.480183
Si Si5 0.658248 0.258603 0.147844
Si Si6 0.777836 0.666743 0.662519
O O1 0.522913 0.883178 0.117748
O O2 0.369120 0.851736 0.165073
O O3 0.418281 0.708200 0.040299
O O4 0.420521 0.990445 0.025924
O O5 0.342520 0.324194 0.556347
O O6 0.367405 0.594177 0.620036
O O7 0.726722 0.181763 0.412718
O O8 0.753727 0.246721 0.576461
O O9 0.850765 0.056832 0.499008
O O10 0.907307 0.874004 0.380978
O O11 0.000000 0.000000 0.500000
O O12 0.676376 0.250000 0.250000
O O13 0.750000 0.500000 0.656715
O O14 0.751721 0.750000 0.750000
#
# Coordination Sequence:
#
# PCOD9410397 Si02
#       6
#     8   8   8   8   8   8
#     4  10  21  42  65  90 126 170 216 269 329 398
#     4  10  20  41  70  88 124 173 215 269 331 402
#     4  12  22  42  70  95 131 173 221 280 343 404
#     4  11  23  41  68  97 130 174 223 277 339 402
#     4  11  25  43  65  99 136 174 225 280 345 407
#     4  12  26  43  65  98 134 177 224 275 338 409
#
# _framework density 19.742719999999998
#
# number of rings (size 3 to 8) (size 9 to 14) (size 15 to 20)
#    0.000    1.000    6.667    1.000    2.333    2.667 
#    3.000    2.500    0.000    0.000    0.000    0.000 
#    0.000    0.000    0.000    0.000    0.000    0.000 
#
# Total GULP energy -267551.023992 kJ/mol
# GULP energy per Si atom -5573.979667 kJ/mol
# Density = 1.969778 g / cm^3
# Si number density = 19.742720 Si / 1000 Ang^3
#
#
#
# Elastic Constant Matrix: (Units=GPa)
#
#
# Indices 1 2 3 4 5 6 
#
# 1 137.1135 56.0714 46.2751 0.0000 0.0000 0.0000
# 2 56.0714 105.4299 32.5762 0.0000 0.0000 0.0000
# 3 46.2751 32.5762 94.0032 0.0000 0.0000 0.0000
# 4 0.0000 0.0000 0.0000 16.6864 0.0000 0.0000
# 5 0.0000 0.0000 0.0000 0.0000 9.7639 0.0000
# 6 0.0000 0.0000 0.0000 0.0000 0.0000 43.7858
#
#
#
# Elastic Compliance Matrix: (Units=1/GPa)
#
#
# Indices 1 2 3 4 5 6 
#
# 1 0.010277 -0.004370 -0.003544 0.000000 0.000000 0.000000
# 2 -0.004370 0.012481 -0.002174 0.000000 0.000000 0.000000
# 3 -0.003544 -0.002174 0.013136 0.000000 0.000000 0.000000
# 4 0.000000 0.000000 0.000000 0.059929 0.000000 0.000000
# 5 0.000000 0.000000 0.000000 0.000000 0.102418 0.000000
# 6 0.000000 0.000000 0.000000 0.000000 0.000000 0.022838
#
#
# Mechanical properties :
#
#
# Convention : Reuss Voigt Hill
#
# Bulk Modulus (GPa) = 63.62701 67.37690 65.50196
# Shear Modulus (GPa) = 20.28436 27.48881 23.88658
#
# Velocity S-wave (km/s) = 3.20884 3.73547 3.48213
# Velocity P-wave (km/s) = 6.78431 7.26681 7.02970
#
# Compressibility (1/GPa) = 0.01571660
#
# Stress axis : x y z
#
# Youngs Moduli (GPa) = 97.30798 80.12214 76.12637
#
# Poissons Ratio (x) = 0.35016 0.26982
# Poissons Ratio (y) = 0.42527 0.16548
# Poissons Ratio (z) = 0.34490 0.17417
#
# Static dielectric constant tensor:
#      x y z
#    x 1.798330 0.000000 0.000000 
#    y 0.000000 1.727320 0.000000 
#    z 0.000000 0.000000 1.677220 
# 
# From -- ./inp_files/28055.got.cif
#   From: 2010.05.17/outbox.cif.g08.bks.cpg/sg52_15_cif.got.tgz:28055.got - 2010.06.03 12:15:38.
