data_PCOD9410725
_publ_section_title
;
Structure prediction by ZEFSAII (Michael W. Deem and Ramdas Pophale) SiO2 
 PCOD9410725
Probable space group: P N N A
;
_chemical_formula_sum "Si O2"
_cell_formula_units_Z 48
_cell_length_a 16.611881
_cell_length_b 7.088381
_cell_length_c 18.382506
_cell_angle_alpha 90.000000
_cell_angle_beta 90.000000
_cell_angle_gamma 90.000000
_cell_volume 2164.564744
_symmetry_space_group_name_H-M "P N N A"
_symmetry_group_IT_number 52
_symmetry_cell_setting 'orthorhombic'
loop_
_space_group_symop_operation_xyz
x,y,z
1/2-x,-y,z
x,1/2-y,1/2-z
1/2-x,1/2+y,1/2-z
-x,-y,-z
1/2+x,y,-z
-x,1/2+y,1/2+z
1/2+x,1/2-y,1/2+z
loop_
_atom_site_type_symbol
_atom_site_label
_atom_site_fract_x
_atom_site_fract_y
_atom_site_fract_z
Si Si1 0.840509 0.056690 0.424408
Si Si2 0.629713 0.317156 0.834793
Si Si3 0.542836 0.816920 0.166563
Si Si4 0.113725 0.855980 0.034571
Si Si5 0.187270 0.771494 0.336137
Si Si6 0.430297 0.662669 0.572264
O O1 0.891037 0.865034 0.422106
O O2 0.750000 0.000000 0.405530
O O3 0.886126 0.200023 0.371064
O O4 0.843099 0.172360 0.500431
O O5 0.630528 0.250000 0.750000
O O6 0.545351 0.239996 0.865314
O O7 0.631312 0.543680 0.842838
O O8 0.720346 0.278077 0.862441
O O9 0.541896 0.750000 0.250000
O O10 0.558255 0.035631 0.145382
O O11 0.145306 0.886817 0.115902
O O12 0.018929 0.815741 0.038478
O O13 0.122801 0.033721 0.982017
O O14 0.191936 0.750000 0.250000
#
# Coordination Sequence:
#
# PCOD9410725 Si02
#       6
#     8   8   8   8   8   8
#     4  11  25  47  67 100 134 174 234 287 332 403
#     4   9  20  38  58  93 139 168 217 269 327 404
#     4  10  23  44  69 101 134 175 225 283 340 407
#     4  10  23  42  67  98 135 181 224 274 329 406
#     4  10  21  37  60  98 136 178 217 273 333 396
#     4  10  23  46  69  96 134 180 224 275 340 402
#
# _framework density 22.175357999999999
#
# number of rings (size 3 to 8) (size 9 to 14) (size 15 to 20)
#    0.000    2.000    0.000    1.500    7.000    6.000 
#    6.000    0.000    0.000    0.000    0.000    0.000 
#    0.000    0.000    0.000    0.000    0.000    0.000 
#
# Total GULP energy -268020.245327 kJ/mol
# GULP energy per Si atom -5583.755111 kJ/mol
# Density = 2.212489 g / cm^3
# Si number density = 22.175358 Si / 1000 Ang^3
#
#
#
# Elastic Constant Matrix: (Units=GPa)
#
#
# Indices 1 2 3 4 5 6 
#
# 1 85.2862 6.4506 5.1851 0.0000 0.0000 0.0000
# 2 6.4506 75.3466 -2.0279 0.0000 0.0000 0.0000
# 3 5.1851 -2.0279 76.9826 0.0000 0.0000 0.0000
# 4 0.0000 0.0000 0.0000 15.2521 0.0000 0.0000
# 5 0.0000 0.0000 0.0000 0.0000 30.7230 0.0000
# 6 0.0000 0.0000 0.0000 0.0000 0.0000 13.9486
#
#
#
# Elastic Compliance Matrix: (Units=1/GPa)
#
#
# Indices 1 2 3 4 5 6 
#
# 1 0.011854 -0.001037 -0.000826 0.000000 0.000000 0.000000
# 2 -0.001037 0.013372 0.000422 0.000000 0.000000 0.000000
# 3 -0.000826 0.000422 0.013057 0.000000 0.000000 0.000000
# 4 0.000000 0.000000 0.000000 0.065565 0.000000 0.000000
# 5 0.000000 0.000000 0.000000 0.000000 0.032549 0.000000
# 6 0.000000 0.000000 0.000000 0.000000 0.000000 0.071692
#
#
# Mechanical properties :
#
#
# Convention : Reuss Voigt Hill
#
# Bulk Modulus (GPa) = 28.24753 28.53678 28.39216
# Shear Modulus (GPa) = 22.44468 27.18525 24.81497
#
# Velocity S-wave (km/s) = 3.18487 3.50511 3.34882
# Velocity P-wave (km/s) = 5.12742 5.41089 5.27106
#
# Compressibility (1/GPa) = 0.03540132
#
# Stress axis : x y z
#
# Youngs Moduli (GPa) = 84.36071 74.78234 76.58911
#
# Poissons Ratio (x) = 0.07755 0.06324
# Poissons Ratio (y) = 0.08749 -0.03233
# Poissons Ratio (z) = 0.06966 -0.03157
#
# Static dielectric constant tensor:
#      x y z
#    x 1.774630 0.000000 0.000000 
#    y 0.000000 1.816550 0.000000 
#    z 0.000000 0.000000 1.920470 
# 
# From -- ./inp_files/37826.got.cif
#   From: 2010.05.17/outbox.cif.g08.bks.cpg/sg52_19_cif.got.tgz:37826.got - 2010.06.03 12:15:38.
