data_PCOD9410846
_publ_section_title
;
Structure prediction by ZEFSAII (Michael W. Deem and Ramdas Pophale) SiO2 
 PCOD9410846
Probable space group: P N N A
;
_chemical_formula_sum "Si O2"
_cell_formula_units_Z 28
_cell_length_a 9.664929
_cell_length_b 5.446458
_cell_length_c 24.034848
_cell_angle_alpha 90.000000
_cell_angle_beta 90.000000
_cell_angle_gamma 90.000000
_cell_volume 1265.185503
_symmetry_space_group_name_H-M "P N N A"
_symmetry_group_IT_number 52
_symmetry_cell_setting 'orthorhombic'
loop_
_space_group_symop_operation_xyz
x,y,z
1/2-x,-y,z
x,1/2-y,1/2-z
1/2-x,1/2+y,1/2-z
-x,-y,-z
1/2+x,y,-z
-x,1/2+y,1/2+z
1/2+x,1/2-y,1/2+z
loop_
_atom_site_type_symbol
_atom_site_label
_atom_site_fract_x
_atom_site_fract_y
_atom_site_fract_z
Si Si1 0.598226 0.116083 0.953291
Si Si2 0.250000 0.000000 0.514745
Si Si3 0.138312 0.795973 0.882166
Si Si4 0.589435 0.996809 0.275185
O O1 0.510614 0.092363 0.897094
O O2 0.750000 0.000000 0.948907
O O3 0.633121 0.389808 0.974773
O O4 0.500000 0.000000 0.000000
O O5 0.196524 0.798992 0.558764
O O6 0.105480 0.569265 0.840643
O O7 0.250000 0.000000 0.862310
O O8 0.523196 0.750000 0.250000
O O9 0.750000 0.000000 0.256439
O O10 0.530335 0.250000 0.250000
#
# Coordination Sequence:
#
# PCOD9410846 Si02
#       4
#     8   4   8   8
#     4  12  24  41  59  97 144 185 235 280 337 426
#     4  12  22  38  64  92 142 184 222 278 338 430
#     4  12  23  39  67  99 138 184 228 290 355 417
#     4  10  21  38  62  98 131 164 224 295 355 402
#
# _framework density 22.131141
#
# number of rings (size 3 to 8) (size 9 to 14) (size 15 to 20)
#    0.000    0.571    7.143    3.429    0.000    0.000 
#    0.000    0.000    0.000    0.000    3.714    2.000 
#    0.000    0.000    0.000    0.000    0.000    0.000 
#
# Total GULP energy -156043.532014 kJ/mol
# GULP energy per Si atom -5572.983286 kJ/mol
# Density = 2.208077 g / cm^3
# Si number density = 22.131141 Si / 1000 Ang^3
#
#
#
# Elastic Constant Matrix: (Units=GPa)
#
#
# Indices 1 2 3 4 5 6 
#
# 1 123.0720 37.9138 34.9320 0.0000 0.0000 0.0000
# 2 37.9138 130.6922 37.5372 0.0000 0.0000 0.0000
# 3 34.9320 37.5372 102.1928 0.0000 0.0000 0.0000
# 4 0.0000 0.0000 0.0000 43.9287 0.0000 0.0000
# 5 0.0000 0.0000 0.0000 0.0000 -2.7606 0.0000
# 6 0.0000 0.0000 0.0000 0.0000 0.0000 41.5431
#
#
#
# Elastic Compliance Matrix: (Units=1/GPa)
#
#
# Indices 1 2 3 4 5 6 
#
# 1 0.009456 -0.002029 -0.002487 0.000000 0.000000 0.000000
# 2 -0.002029 0.008989 -0.002608 0.000000 0.000000 0.000000
# 3 -0.002487 -0.002608 0.011594 0.000000 0.000000 0.000000
# 4 0.000000 0.000000 0.000000 0.022764 0.000000 0.000000
# 5 0.000000 0.000000 0.000000 0.000000 -0.362244 0.000000
# 6 0.000000 0.000000 0.000000 0.000000 0.000000 0.024071
#
#
# Mechanical properties :
#
#
# Convention : Reuss Voigt Hill
#
# Bulk Modulus (GPa) = 63.32956 64.08031 63.70494
# Shear Modulus (GPa) = -18.80711 32.91385 7.05337
#
# Velocity S-wave (km/s) = -2.91830 3.86063 1.78718
# Velocity P-wave (km/s) = 4.16202 6.99216 5.75381
#
# Compressibility (1/GPa) = 0.01579041
#
# Stress axis : x y z
#
# Youngs Moduli (GPa) = 105.74970 111.24289 86.25370
#
# Poissons Ratio (x) = 0.22570 0.21453
# Poissons Ratio (y) = 0.21456 0.22498
# Poissons Ratio (z) = 0.26301 0.29017
#
# Static dielectric constant tensor:
#      x y z
#    x 1.825170 0.000000 0.000000 
#    y 0.000000 2.031840 0.000000 
#    z 0.000000 0.000000 1.855430 
# 
# From -- ./inp_files/41954.got.cif
#   From: 2010.05.17/outbox.cif.g08.bks.cpg/sg52_21_cif.got.tgz:41954.got - 2010.06.03 12:15:38.
