data_PCOD9410924
_publ_section_title
;
Structure prediction by ZEFSAII (Michael W. Deem and Ramdas Pophale) SiO2 
 PCOD9410924
Probable space group: P N N A
;
_chemical_formula_sum "Si O2"
_cell_formula_units_Z 40
_cell_length_a 22.990493
_cell_length_b 14.343671
_cell_length_c 6.518633
_cell_angle_alpha 90.000000
_cell_angle_beta 90.000000
_cell_angle_gamma 90.000000
_cell_volume 2149.637009
_symmetry_space_group_name_H-M "P N N A"
_symmetry_group_IT_number 52
_symmetry_cell_setting 'orthorhombic'
loop_
_space_group_symop_operation_xyz
x,y,z
1/2-x,-y,z
x,1/2-y,1/2-z
1/2-x,1/2+y,1/2-z
-x,-y,-z
1/2+x,y,-z
-x,1/2+y,1/2+z
1/2+x,1/2-y,1/2+z
loop_
_atom_site_type_symbol
_atom_site_label
_atom_site_fract_x
_atom_site_fract_y
_atom_site_fract_z
Si Si1 0.095919 0.487898 0.953338
Si Si2 0.382560 0.850656 0.168618
Si Si3 0.514201 0.094846 0.117733
Si Si4 0.181434 0.498802 0.569763
Si Si5 0.888806 0.144801 0.780620
O O1 0.040979 0.445341 0.829211
O O2 0.146229 0.494247 0.782313
O O3 0.104515 0.415319 0.136776
O O4 0.098623 0.587274 0.070347
O O5 0.367962 0.750000 0.250000
O O6 0.437207 0.850655 0.012169
O O7 0.332167 0.902833 0.047524
O O8 0.454019 0.149987 0.127174
O O9 0.500000 0.000000 0.000000
O O10 0.250000 0.500000 0.600725
O O11 0.152579 0.581295 0.428289
O O12 0.866550 0.250000 0.750000
#
# Coordination Sequence:
#
# PCOD9410924 Si02
#       5
#     8   8   8   8   8
#     4  10  21  39  59  84 124 162 199 241 304 356
#     4  10  23  38  61  92 121 156 201 244 301 362
#     4  11  20  37  58  89 127 161 191 240 298 368
#     4  10  23  44  62  83 119 161 210 253 296 350
#     4  11  24  38  61  95 124 156 201 248 304 360
#
# _framework density 18.607792
#
# number of rings (size 3 to 8) (size 9 to 14) (size 15 to 20)
#    0.000    1.600    6.000    0.600    2.800    7.200 
#    0.000    2.000    0.000    0.000    0.000    0.000 
#    0.000    0.000    0.000    0.000    0.000    0.000 
#
# Total GULP energy -222924.510910 kJ/mol
# GULP energy per Si atom -5573.112773 kJ/mol
# Density = 1.856544 g / cm^3
# Si number density = 18.607792 Si / 1000 Ang^3
#
#
#
# Elastic Constant Matrix: (Units=GPa)
#
#
# Indices 1 2 3 4 5 6 
#
# 1 82.8313 0.8958 9.7764 0.0000 0.0000 0.0000
# 2 0.8958 111.5499 16.4462 0.0000 0.0000 0.0000
# 3 9.7764 16.4462 84.9967 0.0000 0.0000 0.0000
# 4 0.0000 0.0000 0.0000 4.5320 0.0000 0.0000
# 5 0.0000 0.0000 0.0000 0.0000 8.0509 0.0000
# 6 0.0000 0.0000 0.0000 0.0000 0.0000 12.4096
#
#
#
# Elastic Compliance Matrix: (Units=1/GPa)
#
#
# Indices 1 2 3 4 5 6 
#
# 1 0.012240 0.000112 -0.001430 0.000000 0.000000 0.000000
# 2 0.000112 0.009229 -0.001799 0.000000 0.000000 0.000000
# 3 -0.001430 -0.001799 0.012278 0.000000 0.000000 0.000000
# 4 0.000000 0.000000 0.000000 0.220653 0.000000 0.000000
# 5 0.000000 0.000000 0.000000 0.000000 0.124210 0.000000
# 6 0.000000 0.000000 0.000000 0.000000 0.000000 0.080583
#
#
# Mechanical properties :
#
#
# Convention : Reuss Voigt Hill
#
# Bulk Modulus (GPa) = 36.34366 37.06830 36.70598
# Shear Modulus (GPa) = 10.53527 21.81578 16.17553
#
# Velocity S-wave (km/s) = 2.38203 3.42775 2.95157
# Velocity P-wave (km/s) = 5.20953 5.96909 5.60220
#
# Compressibility (1/GPa) = 0.02751511
#
# Stress axis : x y z
#
# Youngs Moduli (GPa) = 81.69764 108.35559 81.44892
#
# Poissons Ratio (x) = -0.01219 0.11644
# Poissons Ratio (y) = -0.00919 0.14650
# Poissons Ratio (z) = 0.11680 0.19489
#
# Static dielectric constant tensor:
#      x y z
#    x 2.124120 0.000000 0.000000 
#    y 0.000000 1.645750 0.000000 
#    z 0.000000 0.000000 1.700100 
# 
# From -- ./inp_files/5010.got.cif
#   From: 2010.05.17/outbox.cif.g08.bks.cpg/sg52_3_cif.got.tgz:5010.got - 2010.06.03 12:15:38.
