data_PCOD9410529
_publ_section_title
;
Structure prediction by ZEFSAII (Michael W. Deem and Ramdas Pophale) SiO2 
 PCOD9410529
Probable space group: P N N A
;
_chemical_formula_sum "Si O2"
_cell_formula_units_Z 40
_cell_length_a 23.215676
_cell_length_b 6.171608
_cell_length_c 13.614176
_cell_angle_alpha 90.000000
_cell_angle_beta 90.000000
_cell_angle_gamma 90.000000
_cell_volume 1950.612613
_symmetry_space_group_name_H-M "P N N A"
_symmetry_group_IT_number 52
_symmetry_cell_setting 'orthorhombic'
loop_
_space_group_symop_operation_xyz
x,y,z
1/2-x,-y,z
x,1/2-y,1/2-z
1/2-x,1/2+y,1/2-z
-x,-y,-z
1/2+x,y,-z
-x,1/2+y,1/2+z
1/2+x,1/2-y,1/2+z
loop_
_atom_site_type_symbol
_atom_site_label
_atom_site_fract_x
_atom_site_fract_y
_atom_site_fract_z
Si Si1 0.685533 0.195457 0.855944
Si Si2 0.750000 0.000000 0.492653
Si Si3 0.501122 0.250000 0.250000
Si Si4 0.076392 0.040662 0.389663
Si Si5 0.446230 0.621249 0.549619
Si Si6 0.156327 0.818599 0.015070
O O1 0.711367 0.250000 0.750000
O O2 0.619025 0.272898 0.850771
O O3 0.712087 0.347175 0.938751
O O4 0.687690 0.953996 0.898254
O O5 0.797728 0.174321 0.451960
O O6 0.463993 0.062857 0.305810
O O7 0.539212 0.348419 0.336869
O O8 0.114126 0.841560 0.428088
O O9 0.053386 0.153845 0.489014
O O10 0.500000 0.500000 0.500000
O O11 0.385964 0.490513 0.538298
#
# Coordination Sequence:
#
# PCOD9410529 Si02
#       6
#     8   4   4   8   8   8
#     4  10  21  33  56  85 123 166 207 253 320 397
#     4  10  22  34  58  82 122 160 210 268 330 380
#     4  12  22  38  64  90 128 182 210 262 324 384
#     4  10  22  39  57  89 130 169 213 254 316 393
#     4  11  24  40  60  90 134 169 221 262 321 403
#     4  10  21  41  55  83 127 166 209 268 317 392
#
# _framework density 20.506378000000002
#
# number of rings (size 3 to 8) (size 9 to 14) (size 15 to 20)
#    0.000    1.600    2.000    2.400    5.600    1.600 
#    0.000    0.000    0.000    0.000    0.000    0.000 
#  216.000    0.000    0.000    0.000    0.000    0.000 
#
# Total GULP energy -222815.477825 kJ/mol
# GULP energy per Si atom -5570.386946 kJ/mol
# Density = 2.045970 g / cm^3
# Si number density = 20.506378 Si / 1000 Ang^3
#
#
#
# Elastic Constant Matrix: (Units=GPa)
#
#
# Indices 1 2 3 4 5 6 
#
# 1 100.7969 45.4247 44.0807 0.0000 0.0000 0.0000
# 2 45.4247 116.9561 34.9338 0.0000 0.0000 0.0000
# 3 44.0807 34.9338 103.9065 0.0000 0.0000 0.0000
# 4 0.0000 0.0000 0.0000 20.4151 0.0000 0.0000
# 5 0.0000 0.0000 0.0000 0.0000 33.4877 0.0000
# 6 0.0000 0.0000 0.0000 0.0000 0.0000 67.1903
#
#
#
# Elastic Compliance Matrix: (Units=1/GPa)
#
#
# Indices 1 2 3 4 5 6 
#
# 1 0.013662 -0.003974 -0.004460 0.000000 0.000000 0.000000
# 2 -0.003974 0.010661 -0.001898 0.000000 0.000000 0.000000
# 3 -0.004460 -0.001898 0.012154 0.000000 0.000000 0.000000
# 4 0.000000 0.000000 0.000000 0.048983 0.000000 0.000000
# 5 0.000000 0.000000 0.000000 0.000000 0.029862 0.000000
# 6 0.000000 0.000000 0.000000 0.000000 0.000000 0.014883
#
#
# Mechanical properties :
#
#
# Convention : Reuss Voigt Hill
#
# Bulk Modulus (GPa) = 63.24005 63.39312 63.31658
# Shear Modulus (GPa) = 32.02236 37.36666 34.69451
#
# Velocity S-wave (km/s) = 3.95597 4.27335 4.11772
# Velocity P-wave (km/s) = 7.19531 7.43839 7.31786
#
# Compressibility (1/GPa) = 0.01581276
#
# Stress axis : x y z
#
# Youngs Moduli (GPa) = 73.19391 93.80221 82.27573
#
# Poissons Ratio (x) = 0.37279 0.36694
# Poissons Ratio (y) = 0.29089 0.15617
# Poissons Ratio (z) = 0.32644 0.17805
#
# Static dielectric constant tensor:
#      x y z
#    x 1.894750 0.000000 0.000000 
#    y 0.000000 1.556190 0.000000 
#    z 0.000000 0.000000 1.711540 
# 
# From -- ./inp_files/22679.got.cif
#   From: 2010.05.17/outbox.cif.g08.bks.cpg/sg52_12_cif.got.tgz:22679.got - 2010.06.03 12:15:38.
