data_PCOD9410540
_publ_section_title
;
Structure prediction by ZEFSAII (Michael W. Deem and Ramdas Pophale) SiO2 
 PCOD9410540
Probable space group: P N N A
;
_chemical_formula_sum "Si O2"
_cell_formula_units_Z 48
_cell_length_a 9.376109
_cell_length_b 12.720455
_cell_length_c 17.703956
_cell_angle_alpha 90.000000
_cell_angle_beta 90.000000
_cell_angle_gamma 90.000000
_cell_volume 2111.522021
_symmetry_space_group_name_H-M "P N N A"
_symmetry_group_IT_number 52
_symmetry_cell_setting 'orthorhombic'
loop_
_space_group_symop_operation_xyz
x,y,z
1/2-x,-y,z
x,1/2-y,1/2-z
1/2-x,1/2+y,1/2-z
-x,-y,-z
1/2+x,y,-z
-x,1/2+y,1/2+z
1/2+x,1/2-y,1/2+z
loop_
_atom_site_type_symbol
_atom_site_label
_atom_site_fract_x
_atom_site_fract_y
_atom_site_fract_z
Si Si1 0.000000 0.447893 0.897264
Si Si2 0.249462 0.250000 0.750000
Si Si3 0.000000 0.618440 0.280171
Si Si4 0.750000 0.650740 1.000000
Si Si5 0.500000 0.296487 0.902187
Si Si6 1.000000 0.381607 0.275370
Si Si7 0.250537 0.250000 0.250000
O O1 1.000000 0.400516 0.812195
O O2 0.859587 0.411537 0.943832
O O3 0.000001 0.574489 0.892113
O O4 0.140413 0.411537 0.943832
O O5 0.500000 0.299310 0.656647
O O6 0.137723 0.313287 0.698053
O O7 0.137724 0.686713 0.301947
O O8 1.000000 0.498600 0.304790
O O9 0.855813 0.718000 0.949302
O O10 0.644186 0.718001 0.050698
O O11 0.356895 0.346078 0.769963
O O12 0.143104 0.346078 0.230036
#
# Coordination Sequence:
#
# PCOD9410540 Si02
#       7
#     8   4   8   8   8   8   4
#     4  11  19  33  54  82 120 153 195 248 302 364
#     4  10  22  38  56  86 120 160 200 240 308 362
#     4  11  23  38  59  89 125 160 200 251 307 365
#     4  10  21  34  54  86 119 162 203 246 305 354
#     4  11  20  33  54  82 117 152 198 250 299 357
#     4  11  22  37  59  89 121 160 202 248 308 369
#     4  10  22  38  56  86 120 160 200 240 308 362
#
# _framework density 22.732417000000002
#
# number of rings (size 3 to 8) (size 9 to 14) (size 15 to 20)
#    0.000    1.333    0.000    9.000    0.000    2.667 
#    0.000    0.000    0.000    0.000    0.000   79.333 
#    0.000    0.000    0.000    0.000    0.000    0.000 
#
# Total GULP energy -267236.568649 kJ/mol
# GULP energy per Si atom -5567.428514 kJ/mol
# Density = 2.268068 g / cm^3
# Si number density = 22.732417 Si / 1000 Ang^3
#
#
#
# Elastic Constant Matrix: (Units=GPa)
#
#
# Indices 1 2 3 4 5 6 
#
# 1 184.3889 41.4609 19.7479 0.0000 0.0000 0.0000
# 2 41.4609 123.6044 19.8448 0.0000 0.0000 0.0000
# 3 19.7479 19.8448 101.7056 0.0000 0.0000 0.0000
# 4 0.0000 0.0000 0.0000 40.0345 0.0000 0.0000
# 5 0.0000 0.0000 0.0000 0.0000 17.0179 0.0000
# 6 0.0000 0.0000 0.0000 0.0000 0.0000 17.4492
#
#
#
# Elastic Compliance Matrix: (Units=1/GPa)
#
#
# Indices 1 2 3 4 5 6 
#
# 1 0.005926 -0.001861 -0.000787 0.000000 0.000000 0.000000
# 2 -0.001861 0.008937 -0.001382 0.000000 0.000000 0.000000
# 3 -0.000787 -0.001382 0.010255 0.000000 0.000000 0.000000
# 4 0.000000 0.000000 0.000000 0.024978 0.000000 0.000000
# 5 0.000000 0.000000 0.000000 0.000000 0.058762 0.000000
# 6 0.000000 0.000000 0.000000 0.000000 0.000000 0.057309
#
#
# Mechanical properties :
#
#
# Convention : Reuss Voigt Hill
#
# Bulk Modulus (GPa) = 58.63246 63.53401 61.08324
# Shear Modulus (GPa) = 27.79096 36.81000 32.30048
#
# Velocity S-wave (km/s) = 3.50026 4.02839 3.77357
# Velocity P-wave (km/s) = 6.49493 7.04603 6.77609
#
# Compressibility (1/GPa) = 0.01705540
#
# Stress axis : x y z
#
# Youngs Moduli (GPa) = 168.74196 111.89898 97.51422
#
# Poissons Ratio (x) = 0.20829 0.07679
# Poissons Ratio (y) = 0.31410 0.13479
# Poissons Ratio (z) = 0.13288 0.15468
#
# Static dielectric constant tensor:
#      x y z
#    x 1.928960 0.000000 0.000000 
#    y 0.000000 1.835950 0.000000 
#    z 0.000000 0.000000 2.098420 
# 
# From -- ./inp_files/17002.got.cif
#   From: 2010.05.17/outbox.cif.g08.bks.cpg/sg52_9_cif.got.tgz:17002.got - 2010.06.03 12:15:38.
