data_PCOD9410780
_publ_section_title
;
Structure prediction by ZEFSAII (Michael W. Deem and Ramdas Pophale) SiO2 
 PCOD9410780
Probable space group: P N N A
;
_chemical_formula_sum "Si O2"
_cell_formula_units_Z 64
_cell_length_a 22.325702
_cell_length_b 9.118696
_cell_length_c 16.708820
_cell_angle_alpha 90.000000
_cell_angle_beta 90.000000
_cell_angle_gamma 90.000000
_cell_volume 3401.603122
_symmetry_space_group_name_H-M "P N N A"
_symmetry_group_IT_number 52
_symmetry_cell_setting 'orthorhombic'
loop_
_space_group_symop_operation_xyz
x,y,z
1/2-x,-y,z
x,1/2-y,1/2-z
1/2-x,1/2+y,1/2-z
-x,-y,-z
1/2+x,y,-z
-x,1/2+y,1/2+z
1/2+x,1/2-y,1/2+z
loop_
_atom_site_type_symbol
_atom_site_label
_atom_site_fract_x
_atom_site_fract_y
_atom_site_fract_z
Si Si1 0.903111 0.861416 0.366474
Si Si2 0.583157 0.793972 0.342317
Si Si3 0.242494 0.668601 0.514532
Si Si4 0.057925 0.334537 0.171337
Si Si5 0.609716 0.843988 0.983546
Si Si6 0.875789 0.689559 0.527242
Si Si7 0.042412 0.818511 0.335317
Si Si8 0.268748 0.666527 0.825731
O O1 0.897102 0.785847 0.452367
O O2 0.840617 0.813541 0.326618
O O3 0.969328 0.815815 0.337064
O O4 0.900000 0.037808 0.361581
O O5 0.602151 0.750000 0.250000
O O6 0.511332 0.791195 0.339884
O O7 0.600141 0.702342 0.422684
O O8 0.250000 0.500000 0.542466
O O9 0.180346 0.687185 0.468358
O O10 0.303817 0.696838 0.467874
O O11 0.243171 0.769178 0.592444
O O12 0.078616 0.250000 0.250000
O O13 0.095694 0.266454 0.101616
O O14 0.060680 0.510462 0.168287
O O15 0.569755 0.761581 0.915233
O O16 0.603232 0.020361 0.979142
O O17 0.061569 0.750000 0.250000
O O18 0.250000 0.500000 0.819801
O O19 0.243345 0.750000 0.750000
#
# Coordination Sequence:
#
# PCOD9410780 Si02
#       8
#     8   8   8   8   8   8   8   8
#     4  10  22  38  57  83 118 154 191 235 286 340
#     4  10  22  37  57  85 118 154 191 233 282 342
#     4   9  21  39  56  78 109 147 190 235 282 339
#     4  10  21  38  58  84 116 148 187 236 290 344
#     4  11  22  38  61  86 115 152 194 239 289 344
#     4  10  21  38  60  84 114 152 192 236 290 345
#     4  11  23  39  61  87 117 150 192 241 290 346
#     4  11  22  35  55  81 113 151 192 234 281 337
#
# _framework density 18.814657
#
# number of rings (size 3 to 8) (size 9 to 14) (size 15 to 20)
#    0.000    1.750    0.000    3.750    0.000   13.000 
#    0.000    0.625    0.000    0.000    0.000    0.000 
#    0.000    0.000    0.000    0.000    0.000    0.000 
#
# Total GULP energy -356737.543431 kJ/mol
# GULP energy per Si atom -5574.024116 kJ/mol
# Density = 1.877183 g / cm^3
# Si number density = 18.814657 Si / 1000 Ang^3
#
#
#
# Elastic Constant Matrix: (Units=GPa)
#
#
# Indices 1 2 3 4 5 6 
#
# 1 69.4050 63.2188 64.3406 0.0000 0.0000 0.0000
# 2 63.2188 87.1792 85.0437 0.0000 0.0000 0.0000
# 3 64.3406 85.0437 140.2047 0.0000 0.0000 0.0000
# 4 0.0000 0.0000 0.0000 -122.6124 0.0000 0.0000
# 5 0.0000 0.0000 0.0000 0.0000 -172.3168 0.0000
# 6 0.0000 0.0000 0.0000 0.0000 0.0000 15.3568
#
#
#
# Elastic Compliance Matrix: (Units=1/GPa)
#
#
# Indices 1 2 3 4 5 6 
#
# 1 0.042668 -0.029000 -0.001990 0.000000 0.000000 0.000000
# 2 -0.029000 0.047804 -0.015688 0.000000 0.000000 0.000000
# 3 -0.001990 -0.015688 0.017562 0.000000 0.000000 0.000000
# 4 0.000000 0.000000 0.000000 -0.008156 0.000000 0.000000
# 5 0.000000 0.000000 0.000000 0.000000 -0.005803 0.000000
# 6 0.000000 0.000000 0.000000 0.000000 0.000000 0.065118
#
#
# Mechanical properties :
#
#
# Convention : Reuss Voigt Hill
#
# Bulk Modulus (GPa) = 68.13194 80.22167 74.17680
# Shear Modulus (GPa) = 19.42188 -50.30210 -15.44011
#
# Velocity S-wave (km/s) = 3.21639 -5.17626 -2.86779
# Velocity P-wave (km/s) = 7.07703 2.64681 5.34275
#
# Compressibility (1/GPa) = 0.01467740
#
# Stress axis : x y z
#
# Youngs Moduli (GPa) = 23.43668 20.91880 56.94158
#
# Poissons Ratio (x) = 0.60664 0.11334
# Poissons Ratio (y) = 0.67965 0.89332
# Poissons Ratio (z) = 0.04665 0.32818
#
# Static dielectric constant tensor:
#      x y z
#    x 1.683470 0.000000 0.000000 
#    y 0.000000 1.642240 0.000000 
#    z 0.000000 0.000000 1.524730 
# 
# From -- ./inp_files/29251.got.cif
#   From: 2010.05.17/outbox.cif.g08.bks.cpg/sg52_15_cif.got.tgz:29251.got - 2010.06.03 12:15:38.
