data_PCOD9410977
_publ_section_title
;
Structure prediction by ZEFSAII (Michael W. Deem and Ramdas Pophale) SiO2 
 PCOD9410977
Probable space group: P N N A
;
_chemical_formula_sum "Si O2"
_cell_formula_units_Z 40
_cell_length_a 18.712906
_cell_length_b 8.103189
_cell_length_c 11.498878
_cell_angle_alpha 90.000000
_cell_angle_beta 90.000000
_cell_angle_gamma 90.000000
_cell_volume 1743.623328
_symmetry_space_group_name_H-M "P N N A"
_symmetry_group_IT_number 52
_symmetry_cell_setting 'orthorhombic'
loop_
_space_group_symop_operation_xyz
x,y,z
1/2-x,-y,z
x,1/2-y,1/2-z
1/2-x,1/2+y,1/2-z
-x,-y,-z
1/2+x,y,-z
-x,1/2+y,1/2+z
1/2+x,1/2-y,1/2+z
loop_
_atom_site_type_symbol
_atom_site_label
_atom_site_fract_x
_atom_site_fract_y
_atom_site_fract_z
Si Si1 0.822632 0.395732 0.847522
Si Si2 0.618887 0.850188 0.403890
Si Si3 0.183612 0.418174 0.698675
Si Si4 0.528457 0.427417 0.815091
Si Si5 0.552859 0.011017 0.106602
O O1 0.750000 0.500000 0.833321
O O2 0.825583 0.250000 0.750000
O O3 0.892743 0.512349 0.840481
O O4 0.833394 0.337002 0.980791
O O5 0.536321 0.917131 0.408040
O O6 0.597398 0.659860 0.376685
O O7 0.657555 0.967167 0.308332
O O8 0.250000 0.500000 0.635104
O O9 0.212518 0.250000 0.750000
O O10 0.119026 0.366445 0.612688
O O11 0.533355 0.250000 0.750000
O O12 0.496154 0.546043 0.716551
O O13 0.500000 0.000000 0.000000
#
# Coordination Sequence:
#
# PCOD9410977 Si02
#       5
#     8   8   8   8   8
#     4  12  25  41  62  91 130 172 214 261 325 397
#     4  10  22  42  66  92 126 168 220 275 326 391
#     4  11  23  41  66  97 130 169 219 279 337 392
#     4   9  20  39  63  89 123 161 207 264 318 380
#     4  10  21  39  63  95 131 168 211 263 325 396
#
# _framework density 22.940736000000001
#
# number of rings (size 3 to 8) (size 9 to 14) (size 15 to 20)
#    0.000    1.600    0.000    6.000    0.000    9.600 
#    0.000   10.000    0.000    0.000    0.000    0.000 
#    0.000    0.000    0.000    0.000    0.000    0.000 
#
# Total GULP energy -222717.865680 kJ/mol
# GULP energy per Si atom -5567.946642 kJ/mol
# Density = 2.288852 g / cm^3
# Si number density = 22.940736 Si / 1000 Ang^3
#
#
#
# Elastic Constant Matrix: (Units=GPa)
#
#
# Indices 1 2 3 4 5 6 
#
# 1 155.3432 28.1171 20.4308 0.0000 0.0000 0.0000
# 2 28.1171 61.9231 22.0475 0.0000 0.0000 0.0000
# 3 20.4308 22.0475 83.7946 0.0000 0.0000 0.0000
# 4 0.0000 0.0000 0.0000 20.0547 0.0000 0.0000
# 5 0.0000 0.0000 0.0000 0.0000 -12.1653 0.0000
# 6 0.0000 0.0000 0.0000 0.0000 0.0000 31.2557
#
#
#
# Elastic Compliance Matrix: (Units=1/GPa)
#
#
# Indices 1 2 3 4 5 6 
#
# 1 0.007085 -0.002871 -0.000972 0.000000 0.000000 0.000000
# 2 -0.002871 0.018982 -0.004294 0.000000 0.000000 0.000000
# 3 -0.000972 -0.004294 0.013301 0.000000 0.000000 0.000000
# 4 0.000000 0.000000 0.000000 0.049864 0.000000 0.000000
# 5 0.000000 0.000000 0.000000 0.000000 -0.082201 0.000000
# 6 0.000000 0.000000 0.000000 0.000000 0.000000 0.031994
#
#
# Mechanical properties :
#
#
# Convention : Reuss Voigt Hill
#
# Bulk Modulus (GPa) = 43.30364 49.13906 46.22135
# Shear Modulus (GPa) = 79.37038 23.19341 51.28190
#
# Velocity S-wave (km/s) = 5.88839 3.18309 4.73314
# Velocity P-wave (km/s) = 8.07144 5.91405 7.07545
#
# Compressibility (1/GPa) = 0.02309275
#
# Stress axis : x y z
#
# Youngs Moduli (GPa) = 141.14659 52.68263 75.18314
#
# Poissons Ratio (x) = 0.15124 0.07308
# Poissons Ratio (y) = 0.40521 0.32286
# Poissons Ratio (z) = 0.13720 0.22624
#
# Static dielectric constant tensor:
#      x y z
#    x 1.914350 0.000000 0.000000 
#    y 0.000000 2.030000 0.000000 
#    z 0.000000 0.000000 1.918670 
# 
# From -- ./inp_files/20318.got.cif
#   From: 2010.05.17/outbox.cif.g08.bks.cpg/sg52_11_cif.got.tgz:20318.got - 2010.06.03 12:15:38.
