data_PCOD9410603
_publ_section_title
;
Structure prediction by ZEFSAII (Michael W. Deem and Ramdas Pophale) SiO2 
 PCOD9410603
Probable space group: P N N A
;
_chemical_formula_sum "Si O2"
_cell_formula_units_Z 64
_cell_length_a 5.183770
_cell_length_b 20.243402
_cell_length_c 30.049560
_cell_angle_alpha 90.000000
_cell_angle_beta 90.000000
_cell_angle_gamma 90.000000
_cell_volume 3153.314884
_symmetry_space_group_name_H-M "P N N A"
_symmetry_group_IT_number 52
_symmetry_cell_setting 'orthorhombic'
loop_
_space_group_symop_operation_xyz
x,y,z
1/2-x,-y,z
x,1/2-y,1/2-z
1/2-x,1/2+y,1/2-z
-x,-y,-z
1/2+x,y,-z
-x,1/2+y,1/2+z
1/2+x,1/2-y,1/2+z
loop_
_atom_site_type_symbol
_atom_site_label
_atom_site_fract_x
_atom_site_fract_y
_atom_site_fract_z
Si Si1 0.491404 0.187129 0.912343
Si Si2 0.000243 0.457105 0.693219
Si Si3 0.998540 0.957737 0.300254
Si Si4 0.079509 0.831241 0.583092
Si Si5 0.343620 0.064612 0.969537
Si Si6 0.502016 0.529700 0.049936
Si Si7 0.996445 0.182343 0.855950
Si Si8 0.917182 0.329278 0.857039
O O1 0.475859 0.258407 0.935888
O O2 0.363779 0.129956 0.941164
O O3 0.782635 0.174172 0.895654
O O4 0.292765 0.190974 0.871222
O O5 0.750000 0.500000 0.680820
O O6 0.984208 0.384054 0.672642
O O7 0.250000 0.500000 0.679547
O O8 0.008150 0.450116 0.746724
O O9 0.013999 0.886703 0.323051
O O10 0.750000 0.000000 0.313699
O O11 0.250000 0.000000 0.311768
O O12 0.028296 0.891978 0.550215
O O13 0.366947 0.832430 0.603601
O O14 0.865835 0.839570 0.621976
O O15 0.250000 0.000000 0.942026
O O16 0.622632 0.063400 0.992837
O O17 0.750000 0.500000 0.073611
O O18 0.250000 0.500000 0.072321
O O19 0.500000 0.500000 0.000000
O O20 0.924981 0.254963 0.837055
#
# Coordination Sequence:
#
# PCOD9410603 Si02
#       8
#     8   8   8   8   8   8   8   8
#     4  10  21  38  57  84 111 145 187 227 279 340
#     4  10  21  37  56  83 118 149 185 234 280 332
#     4  10  21  36  55  83 114 147 193 233 276 338
#     4  10  21  37  55  80 111 142 186 236 277 331
#     4  10  21  38  57  82 111 139 178 226 273 331
#     4  10  21  37  53  76 108 140 179 231 277 330
#     4  10  21  37  58  82 116 146 188 232 277 339
#     4  10  21  36  57  82 110 149 189 232 279 330
#
# _framework density 20.296102000000001
#
# number of rings (size 3 to 8) (size 9 to 14) (size 15 to 20)
#    0.000    2.000    0.000    3.000    0.000    5.000 
#    4.500    0.000    0.000    9.000    0.000    0.000 
#    0.000    0.000    0.000    0.000    0.000    0.000 
#
# Total GULP energy -356955.822757 kJ/mol
# GULP energy per Si atom -5577.434731 kJ/mol
# Density = 2.024991 g / cm^3
# Si number density = 20.296102 Si / 1000 Ang^3
#
#
#
# Elastic Constant Matrix: (Units=GPa)
#
#
# Indices 1 2 3 4 5 6 
#
# 1 132.2281 32.5142 7.4173 0.0000 0.0000 0.0000
# 2 32.5142 220.0038 52.2673 0.0000 0.0000 0.0000
# 3 7.4173 52.2673 25.0256 0.0000 0.0000 0.0000
# 4 0.0000 0.0000 0.0000 31.7949 0.0000 0.0000
# 5 0.0000 0.0000 0.0000 0.0000 4.4283 0.0000
# 6 0.0000 0.0000 0.0000 0.0000 0.0000 30.3559
#
#
#
# Elastic Compliance Matrix: (Units=1/GPa)
#
#
# Indices 1 2 3 4 5 6 
#
# 1 0.007848 -0.001205 0.000191 0.000000 0.000000 0.000000
# 2 -0.001205 0.009207 -0.018872 0.000000 0.000000 0.000000
# 3 0.000191 -0.018872 0.079318 0.000000 0.000000 0.000000
# 4 0.000000 0.000000 0.000000 0.031452 0.000000 0.000000
# 5 0.000000 0.000000 0.000000 0.000000 0.225821 0.000000
# 6 0.000000 0.000000 0.000000 0.000000 0.000000 0.032943
#
#
# Mechanical properties :
#
#
# Convention : Reuss Voigt Hill
#
# Bulk Modulus (GPa) = 17.66764 62.40612 40.03688
# Shear Modulus (GPa) = 11.23022 32.31975 21.77498
#
# Velocity S-wave (km/s) = 2.35483 3.99483 3.27902
# Velocity P-wave (km/s) = 4.01465 7.21754 5.83996
#
# Compressibility (1/GPa) = 0.05660067
#
# Stress axis : x y z
#
# Youngs Moduli (GPa) = 127.41540 108.61253 12.60753
#
# Poissons Ratio (x) = 0.13091 -0.00241
# Poissons Ratio (y) = 0.15358 0.23793
# Poissons Ratio (z) = -0.02437 2.04975
#
# Static dielectric constant tensor:
#      x y z
#    x 1.723600 0.000000 0.000000 
#    y 0.000000 1.766770 0.000000 
#    z 0.000000 0.000000 1.691800 
# 
# From -- ./inp_files/43901.got.cif
#   From: 2010.05.17/outbox.cif.g08.bks.cpg/sg52_22_cif.got.tgz:43901.got - 2010.06.03 12:15:38.
