data_PCOD9410384
_publ_section_title
;
Structure prediction by ZEFSAII (Michael W. Deem and Ramdas Pophale) SiO2 
 PCOD9410384
Probable space group: P N N A
;
_chemical_formula_sum "Si O2"
_cell_formula_units_Z 64
_cell_length_a 9.976248
_cell_length_b 30.267049
_cell_length_c 9.694783
_cell_angle_alpha 90.000000
_cell_angle_beta 90.000000
_cell_angle_gamma 90.000000
_cell_volume 2927.355113
_symmetry_space_group_name_H-M "P N N A"
_symmetry_group_IT_number 52
_symmetry_cell_setting 'orthorhombic'
loop_
_space_group_symop_operation_xyz
x,y,z
1/2-x,-y,z
x,1/2-y,1/2-z
1/2-x,1/2+y,1/2-z
-x,-y,-z
1/2+x,y,-z
-x,1/2+y,1/2+z
1/2+x,1/2-y,1/2+z
loop_
_atom_site_type_symbol
_atom_site_label
_atom_site_fract_x
_atom_site_fract_y
_atom_site_fract_z
Si Si1 0.674793 0.288177 0.638566
Si Si2 0.542530 0.431173 0.206236
Si Si3 0.908575 0.012651 0.129515
Si Si4 0.628945 0.742180 0.406027
Si Si5 0.857807 0.896266 0.562415
Si Si6 0.123469 0.843613 0.595824
Si Si7 0.278614 0.384619 0.315003
Si Si8 0.695743 0.894518 0.143627
O O1 0.702176 0.250000 0.750000
O O2 0.517484 0.281302 0.599369
O O3 0.721517 0.334874 0.701597
O O4 0.765982 0.281627 0.503852
O O5 0.532121 0.481646 0.252049
O O6 0.420845 0.399601 0.252057
O O7 0.665580 0.410963 0.292370
O O8 0.583094 0.430377 0.046917
O O9 0.750000 0.000000 0.106462
O O10 0.906302 0.064583 0.160481
O O11 0.000000 0.000000 0.000000
O O12 0.677215 0.750000 0.250000
O O13 0.621340 0.793256 0.453276
O O14 0.975236 0.860894 0.572823
O O15 0.729824 0.872654 0.490293
O O16 0.818316 0.912443 0.714207
O O17 0.154257 0.853462 0.758754
O O18 0.285982 0.389759 0.479653
#
# Coordination Sequence:
#
# PCOD9410384 Si02
#       8
#     8   8   8   8   8   8   8   8
#     4  11  26  42  62  98 131 175 223 287 338 406
#     4  10  23  42  67  99 139 181 230 282 350 424
#     4  10  20  41  66 100 140 173 221 290 354 405
#     4  11  23  43  61  90 131 168 218 281 342 399
#     4  11  23  41  67  94 130 182 225 275 338 424
#     4  11  22  42  66  91 129 182 225 275 347 411
#     4  12  23  41  69  98 132 175 233 281 345 417
#     4  10  24  39  72 102 135 175 231 292 345 419
#
# _framework density 21.862739000000001
#
# number of rings (size 3 to 8) (size 9 to 14) (size 15 to 20)
#    0.000    1.250    2.500    3.750    3.500    0.500 
#    0.000    0.625    5.500    0.000    0.000    0.000 
#    0.000    0.000    0.000    0.000    0.000    0.000 
#
# Total GULP energy -357196.263024 kJ/mol
# GULP energy per Si atom -5581.191610 kJ/mol
# Density = 2.181298 g / cm^3
# Si number density = 21.862739 Si / 1000 Ang^3
#
#
#
# Elastic Constant Matrix: (Units=GPa)
#
#
# Indices 1 2 3 4 5 6 
#
# 1 69.3120 -4.1337 50.2646 0.0000 0.0000 0.0000
# 2 -4.1337 57.5907 26.0511 0.0000 0.0000 0.0000
# 3 50.2646 26.0511 150.0889 0.0000 0.0000 0.0000
# 4 0.0000 0.0000 0.0000 21.9579 0.0000 0.0000
# 5 0.0000 0.0000 0.0000 0.0000 39.6221 0.0000
# 6 0.0000 0.0000 0.0000 0.0000 0.0000 12.9526
#
#
#
# Elastic Compliance Matrix: (Units=1/GPa)
#
#
# Indices 1 2 3 4 5 6 
#
# 1 0.020258 0.004908 -0.007636 0.000000 0.000000 0.000000
# 2 0.004908 0.020033 -0.005121 0.000000 0.000000 0.000000
# 3 -0.007636 -0.005121 0.010109 0.000000 0.000000 0.000000
# 4 0.000000 0.000000 0.000000 0.045542 0.000000 0.000000
# 5 0.000000 0.000000 0.000000 0.000000 0.025238 0.000000
# 6 0.000000 0.000000 0.000000 0.000000 0.000000 0.077205
#
#
# Mechanical properties :
#
#
# Convention : Reuss Voigt Hill
#
# Bulk Modulus (GPa) = 28.81688 46.81731 37.81710
# Shear Modulus (GPa) = 22.15823 28.56047 25.35935
#
# Velocity S-wave (km/s) = 3.18703 3.61827 3.40948
# Velocity P-wave (km/s) = 5.17226 6.23831 5.73013
#
# Compressibility (1/GPa) = 0.03470188
#
# Stress axis : x y z
#
# Youngs Moduli (GPa) = 49.36305 49.91855 98.92214
#
# Poissons Ratio (x) = -0.24502 0.75540
# Poissons Ratio (y) = -0.24229 0.50657
# Poissons Ratio (z) = 0.37695 0.25563
#
# Static dielectric constant tensor:
#      x y z
#    x 1.785750 0.000000 0.000000 
#    y 0.000000 2.060330 0.000000 
#    z 0.000000 0.000000 1.834420 
# 
# From -- ./inp_files/9137.got.cif
#   From: 2010.05.17/outbox.cif.g08.bks.cpg/sg52_5_cif.got.tgz:9137.got - 2010.06.03 12:15:38.
