data_PCOD9410413
_publ_section_title
;
Structure prediction by ZEFSAII (Michael W. Deem and Ramdas Pophale) SiO2 
 PCOD9410413
Probable space group: P N N A
;
_chemical_formula_sum "Si O2"
_cell_formula_units_Z 36
_cell_length_a 13.471670
_cell_length_b 24.611577
_cell_length_c 5.176701
_cell_angle_alpha 90.000000
_cell_angle_beta 90.000000
_cell_angle_gamma 90.000000
_cell_volume 1716.382032
_symmetry_space_group_name_H-M "P N N A"
_symmetry_group_IT_number 52
_symmetry_cell_setting 'orthorhombic'
loop_
_space_group_symop_operation_xyz
x,y,z
1/2-x,-y,z
x,1/2-y,1/2-z
1/2-x,1/2+y,1/2-z
-x,-y,-z
1/2+x,y,-z
-x,1/2+y,1/2+z
1/2+x,1/2-y,1/2+z
loop_
_atom_site_type_symbol
_atom_site_label
_atom_site_fract_x
_atom_site_fract_y
_atom_site_fract_z
Si Si1 0.910096 0.347478 0.923741
Si Si2 0.766247 0.804904 0.868212
Si Si3 0.028307 0.441358 0.106287
Si Si4 0.582433 0.111610 0.113174
Si Si5 0.891365 0.250000 0.250000
O O1 0.797005 0.336510 0.849451
O O2 0.978269 0.357864 0.672504
O O3 0.932582 0.401457 0.086767
O O4 0.947523 0.294313 0.077255
O O5 0.813063 0.750000 0.750000
O O6 0.840753 0.844618 0.010189
O O7 0.681613 0.783192 0.061494
O O8 0.068586 0.434333 0.394311
O O9 0.000000 0.500000 0.000000
O O10 0.102505 0.414864 0.893228
#
# Coordination Sequence:
#
# PCOD9410413 Si02
#       5
#     8   8   8   8   4
#     4   9  22  38  68  91 136 169 217 261 341 381
#     4  10  22  41  61  96 136 167 214 270 323 405
#     4  10  22  44  68  92 130 170 224 274 324 385
#     4  10  23  42  67  96 125 173 220 269 327 391
#     4  10  20  42  60  96 138 174 208 272 324 406
#
# _framework density 20.974353000000001
#
# number of rings (size 3 to 8) (size 9 to 14) (size 15 to 20)
#    1.333    0.889    0.000    2.000    6.222    0.000 
#   26.000    1.111    0.000    0.000    0.000    0.000 
#    0.000    0.000    0.000    0.000    0.000    0.000 
#
# Total GULP energy -200613.549257 kJ/mol
# GULP energy per Si atom -5572.598590 kJ/mol
# Density = 2.092661 g / cm^3
# Si number density = 20.974353 Si / 1000 Ang^3
#
#
#
# Elastic Constant Matrix: (Units=GPa)
#
#
# Indices 1 2 3 4 5 6 
#
# 1 19.8581 17.9770 -2.9684 0.0000 0.0000 0.0000
# 2 17.9770 103.3414 18.5906 0.0000 0.0000 0.0000
# 3 -2.9684 18.5906 95.6587 0.0000 0.0000 0.0000
# 4 0.0000 0.0000 0.0000 39.4790 0.0000 0.0000
# 5 0.0000 0.0000 0.0000 0.0000 21.5962 0.0000
# 6 0.0000 0.0000 0.0000 0.0000 0.0000 329.0057
#
#
#
# Elastic Compliance Matrix: (Units=1/GPa)
#
#
# Indices 1 2 3 4 5 6 
#
# 1 0.061297 -0.011404 0.004118 0.000000 0.000000 0.000000
# 2 -0.011404 0.012149 -0.002715 0.000000 0.000000 0.000000
# 3 0.004118 -0.002715 0.011109 0.000000 0.000000 0.000000
# 4 0.000000 0.000000 0.000000 0.025330 0.000000 0.000000
# 5 0.000000 0.000000 0.000000 0.000000 0.046304 0.000000
# 6 0.000000 0.000000 0.000000 0.000000 0.000000 0.003039
#
#
# Mechanical properties :
#
#
# Convention : Reuss Voigt Hill
#
# Bulk Modulus (GPa) = 15.49093 31.78406 23.63749
# Shear Modulus (GPa) = 24.90694 90.36678 57.63686
#
# Velocity S-wave (km/s) = 3.44974 6.57099 5.24779
# Velocity P-wave (km/s) = 4.82383 8.52979 6.92916
#
# Compressibility (1/GPa) = 0.06455390
#
# Stress axis : x y z
#
# Youngs Moduli (GPa) = 16.31413 82.31232 90.01496
#
# Poissons Ratio (x) = 0.93868 -0.37072
# Poissons Ratio (y) = 0.18604 0.24438
# Poissons Ratio (z) = -0.06719 0.22347
#
# Static dielectric constant tensor:
#      x y z
#    x 1.740290 0.000000 0.000000 
#    y 0.000000 1.740560 0.000000 
#    z 0.000000 0.000000 1.845930 
# 
# From -- ./inp_files/2230.got.cif
#   From: 2010.05.17/outbox.cif.g08.bks.cpg/sg52_2_cif.got.tgz:2230.got - 2010.06.03 12:15:38.
