data_PCOD9410638
_publ_section_title
;
Structure prediction by ZEFSAII (Michael W. Deem and Ramdas Pophale) SiO2 
 PCOD9410638
Probable space group: P N N A
;
_chemical_formula_sum "Si O2"
_cell_formula_units_Z 32
_cell_length_a 17.379759
_cell_length_b 4.919853
_cell_length_c 18.415735
_cell_angle_alpha 90.000000
_cell_angle_beta 90.000000
_cell_angle_gamma 90.000000
_cell_volume 1574.653249
_symmetry_space_group_name_H-M "P N N A"
_symmetry_group_IT_number 52
_symmetry_cell_setting 'orthorhombic'
loop_
_space_group_symop_operation_xyz
x,y,z
1/2-x,-y,z
x,1/2-y,1/2-z
1/2-x,1/2+y,1/2-z
-x,-y,-z
1/2+x,y,-z
-x,1/2+y,1/2+z
1/2+x,1/2-y,1/2+z
loop_
_atom_site_type_symbol
_atom_site_label
_atom_site_fract_x
_atom_site_fract_y
_atom_site_fract_z
Si Si1 0.697726 0.765352 0.466258
Si Si2 0.970261 0.118041 0.421412
Si Si3 0.522613 0.859339 0.830239
Si Si4 0.302326 0.235477 0.363810
O O1 0.750000 0.500000 0.463093
O O2 0.613597 0.753840 0.432768
O O3 0.684287 0.834766 0.551264
O O4 0.750000 0.000000 0.432602
O O5 0.014756 0.341598 0.369761
O O6 0.000000 0.000000 0.500000
O O7 0.971015 0.838447 0.378435
O O8 0.500387 0.750000 0.750000
O O9 0.613170 0.787094 0.834352
O O10 0.250000 0.500000 0.360995
O O11 0.250000 0.000000 0.329330
#
# Coordination Sequence:
#
# PCOD9410638 Si02
#       4
#     8   8   8   8
#     4  10  21  37  63  96 126 160 215 280 330 384
#     4  12  24  42  70  96 128 176 227 277 329 397
#     4  12  26  42  64  97 138 178 218 274 339 403
#     4  10  21  36  60  93 131 171 213 257 325 409
#
# _framework density 20.321936999999998
#
# number of rings (size 3 to 8) (size 9 to 14) (size 15 to 20)
#    0.000    1.000    2.500    4.500    7.000    1.000 
#    0.000    0.000    0.000   15.000    0.000    0.000 
#    0.000    0.000    0.000    0.000    0.000    0.000 
#
# Total GULP energy -178137.810900 kJ/mol
# GULP energy per Si atom -5566.806591 kJ/mol
# Density = 2.027568 g / cm^3
# Si number density = 20.321937 Si / 1000 Ang^3
#
#
#
# Elastic Constant Matrix: (Units=GPa)
#
#
# Indices 1 2 3 4 5 6 
#
# 1 104.0896 5.1950 24.1328 0.0000 0.0000 0.0000
# 2 5.1950 81.2350 12.1600 0.0000 0.0000 0.0000
# 3 24.1328 12.1600 88.0821 0.0000 0.0000 0.0000
# 4 0.0000 0.0000 0.0000 17.4667 0.0000 0.0000
# 5 0.0000 0.0000 0.0000 0.0000 32.6520 0.0000
# 6 0.0000 0.0000 0.0000 0.0000 0.0000 31.8410
#
#
#
# Elastic Compliance Matrix: (Units=1/GPa)
#
#
# Indices 1 2 3 4 5 6 
#
# 1 0.010263 -0.000240 -0.002779 0.000000 0.000000 0.000000
# 2 -0.000240 0.012575 -0.001670 0.000000 0.000000 0.000000
# 3 -0.002779 -0.001670 0.012345 0.000000 0.000000 0.000000
# 4 0.000000 0.000000 0.000000 0.057252 0.000000 0.000000
# 5 0.000000 0.000000 0.000000 0.000000 0.030626 0.000000
# 6 0.000000 0.000000 0.000000 0.000000 0.000000 0.031406
#
#
# Mechanical properties :
#
#
# Convention : Reuss Voigt Hill
#
# Bulk Modulus (GPa) = 38.75230 39.59804 39.17517
# Shear Modulus (GPa) = 28.99427 31.85319 30.42373
#
# Velocity S-wave (km/s) = 3.78133 3.96337 3.87342
# Velocity P-wave (km/s) = 6.17861 6.36177 6.27086
#
# Compressibility (1/GPa) = 0.02580492
#
# Stress axis : x y z
#
# Youngs Moduli (GPa) = 97.43407 79.52060 81.00476
#
# Poissons Ratio (x) = 0.01912 0.22509
# Poissons Ratio (y) = 0.02342 0.13529
# Poissons Ratio (z) = 0.27075 0.13282
#
# Static dielectric constant tensor:
#      x y z
#    x 1.727660 0.000000 0.000000 
#    y 0.000000 1.711720 0.000000 
#    z 0.000000 0.000000 1.858150 
# 
# From -- ./inp_files/27574.got.cif
#   From: 2010.05.17/outbox.cif.g08.bks.cpg/sg52_14_cif.got.tgz:27574.got - 2010.06.03 12:15:38.
