data_PCOD9410980
_publ_section_title
;
Structure prediction by ZEFSAII (Michael W. Deem and Ramdas Pophale) SiO2 
 PCOD9410980
Probable space group: P N N A
;
_chemical_formula_sum "Si O2"
_cell_formula_units_Z 32
_cell_length_a 5.275096
_cell_length_b 7.226417
_cell_length_c 36.068559
_cell_angle_alpha 90.000000
_cell_angle_beta 90.000000
_cell_angle_gamma 90.000000
_cell_volume 1374.935035
_symmetry_space_group_name_H-M "P N N A"
_symmetry_group_IT_number 52
_symmetry_cell_setting 'orthorhombic'
loop_
_space_group_symop_operation_xyz
x,y,z
1/2-x,-y,z
x,1/2-y,1/2-z
1/2-x,1/2+y,1/2-z
-x,-y,-z
1/2+x,y,-z
-x,1/2+y,1/2+z
1/2+x,1/2-y,1/2+z
loop_
_atom_site_type_symbol
_atom_site_label
_atom_site_fract_x
_atom_site_fract_y
_atom_site_fract_z
Si Si1 0.281861 0.722818 0.330239
Si Si2 0.278026 0.719326 0.707508
Si Si3 0.992885 0.622077 0.907367
Si Si4 0.481861 0.292010 0.516523
O O1 0.250000 0.500000 0.330410
O O2 0.493964 0.787501 0.300716
O O3 0.398214 0.786930 0.369147
O O4 0.000717 0.791602 0.319378
O O5 0.250000 0.500000 0.701400
O O6 0.351706 0.750000 0.750000
O O7 0.750000 0.500000 0.919143
O O8 0.250000 0.500000 0.903577
O O9 0.035161 0.774496 0.939383
O O10 0.500000 0.500000 0.500000
O O11 0.736149 0.203812 0.501302
#
# Coordination Sequence:
#
# PCOD9410980 Si02
#       4
#     8   8   8   8
#     4  10  23  42  64  92 132 179 224 261 334 412
#     4  10  21  39  63  96 128 173 223 273 323 395
#     4  12  26  43  67 101 136 167 221 287 336 381
#     4  10  23  43  67  96 126 173 225 253 338 399
#
# _framework density 23.273826
#
# number of rings (size 3 to 8) (size 9 to 14) (size 15 to 20)
#    0.000    1.500    0.000    3.750    3.500    6.000 
#    9.000    0.000    0.000    0.000    0.000    0.000 
#    0.000    0.000    0.000    0.000    0.000    0.000 
#
# Total GULP energy -178745.637323 kJ/mol
# GULP energy per Si atom -5585.801166 kJ/mol
# Density = 2.322085 g / cm^3
# Si number density = 23.273826 Si / 1000 Ang^3
#
#
#
# Elastic Constant Matrix: (Units=GPa)
#
#
# Indices 1 2 3 4 5 6 
#
# 1 221.6013 36.1978 60.1293 0.0000 0.0000 0.0000
# 2 36.1978 101.1483 13.6378 0.0000 0.0000 0.0000
# 3 60.1293 13.6378 155.1502 0.0000 0.0000 0.0000
# 4 0.0000 0.0000 0.0000 33.1976 0.0000 0.0000
# 5 0.0000 0.0000 0.0000 0.0000 55.2338 0.0000
# 6 0.0000 0.0000 0.0000 0.0000 0.0000 -15.0645
#
#
#
# Elastic Compliance Matrix: (Units=1/GPa)
#
#
# Indices 1 2 3 4 5 6 
#
# 1 0.005298 -0.001639 -0.001909 0.000000 0.000000 0.000000
# 2 -0.001639 0.010512 -0.000289 0.000000 0.000000 0.000000
# 3 -0.001909 -0.000289 0.007211 0.000000 0.000000 0.000000
# 4 0.000000 0.000000 0.000000 0.030123 0.000000 0.000000
# 5 0.000000 0.000000 0.000000 0.000000 0.018105 0.000000
# 6 0.000000 0.000000 0.000000 0.000000 0.000000 -0.066381
#
#
# Mechanical properties :
#
#
# Convention : Reuss Voigt Hill
#
# Bulk Modulus (GPa) = 65.15914 77.53664 71.34789
# Shear Modulus (GPa) = 283.17482 39.20236 161.18859
#
# Velocity S-wave (km/s) = 11.04242 4.10859 8.33113
# Velocity P-wave (km/s) = 13.80716 7.47627 11.10253
#
# Compressibility (1/GPa) = 0.01534704
#
# Stress axis : x y z
#
# Youngs Moduli (GPa) = 188.73724 95.13058 138.68185
#
# Poissons Ratio (x) = 0.15589 0.26480
# Poissons Ratio (y) = 0.30928 0.04007
# Poissons Ratio (z) = 0.36037 0.02748
#
# Static dielectric constant tensor:
#      x y z
#    x 1.881160 0.000000 0.000000 
#    y 0.000000 1.876700 0.000000 
#    z 0.000000 0.000000 1.855560 
# 
# From -- ./inp_files/43558.got.cif
#   From: 2010.05.17/outbox.cif.g08.bks.cpg/sg52_22_cif.got.tgz:43558.got - 2010.06.03 12:15:38.
