data_PCOD9410675
_publ_section_title
;
Structure prediction by ZEFSAII (Michael W. Deem and Ramdas Pophale) SiO2 
 PCOD9410675
Probable space group: P N N A
;
_chemical_formula_sum "Si O2"
_cell_formula_units_Z 40
_cell_length_a 12.157733
_cell_length_b 5.065435
_cell_length_c 34.002205
_cell_angle_alpha 90.000000
_cell_angle_beta 90.000000
_cell_angle_gamma 90.000000
_cell_volume 2093.998806
_symmetry_space_group_name_H-M "P N N A"
_symmetry_group_IT_number 52
_symmetry_cell_setting 'orthorhombic'
loop_
_space_group_symop_operation_xyz
x,y,z
1/2-x,-y,z
x,1/2-y,1/2-z
1/2-x,1/2+y,1/2-z
-x,-y,-z
1/2+x,y,-z
-x,1/2+y,1/2+z
1/2+x,1/2-y,1/2+z
loop_
_atom_site_type_symbol
_atom_site_label
_atom_site_fract_x
_atom_site_fract_y
_atom_site_fract_z
Si Si1 0.541288 0.675896 0.372700
Si Si2 0.829530 0.249030 0.205378
Si Si3 0.171317 0.244541 0.087005
Si Si4 0.169890 0.250782 0.001758
Si Si5 0.633062 0.164217 0.415833
O O1 0.580719 0.721298 0.328413
O O2 0.411891 0.644966 0.379511
O O3 0.614185 0.439025 0.392120
O O4 0.557141 0.951065 0.395412
O O5 0.750000 0.500000 0.198915
O O6 0.873952 0.250000 0.250000
O O7 0.750000 0.000000 0.202397
O O8 0.250000 0.500000 0.094185
O O9 0.110895 0.260086 0.044006
O O10 0.250000 0.000000 0.080246
O O11 0.250000 0.500000 0.003358
O O12 0.250000 0.000000 0.996712
O O13 0.104254 0.275267 0.961148
O O14 0.750000 0.000000 0.414562
#
# Coordination Sequence:
#
# PCOD9410675 Si02
#       5
#     8   8   8   8   8
#     4  12  22  34  58  81 104 143 182 219 266 319
#     4  10  21  37  57  83 114 139 162 204 266 335
#     4  10  22  39  54  73 105 145 189 228 260 301
#     4   9  18  33  50  70 105 145 176 218 268 309
#     4  11  21  33  52  82 113 137 172 223 271 322
#
# _framework density 19.102208999999998
#
# number of rings (size 3 to 8) (size 9 to 14) (size 15 to 20)
#    0.000    1.600    0.000    7.200    0.000    1.600 
#    0.000    0.000    0.000    1.200    0.000    0.000 
#    0.000    0.000    0.000    0.000    0.000    0.000 
#
# Total GULP energy -222853.143769 kJ/mol
# GULP energy per Si atom -5571.328594 kJ/mol
# Density = 1.905873 g / cm^3
# Si number density = 19.102209 Si / 1000 Ang^3
#
#
#
# Elastic Constant Matrix: (Units=GPa)
#
#
# Indices 1 2 3 4 5 6 
#
# 1 38.1461 6.1743 56.6772 0.0000 0.0000 0.0000
# 2 6.1743 133.9675 35.3172 0.0000 0.0000 0.0000
# 3 56.6772 35.3172 170.9915 0.0000 0.0000 0.0000
# 4 0.0000 0.0000 0.0000 20.4407 0.0000 0.0000
# 5 0.0000 0.0000 0.0000 0.0000 20.0935 0.0000
# 6 0.0000 0.0000 0.0000 0.0000 0.0000 21.7675
#
#
#
# Elastic Compliance Matrix: (Units=1/GPa)
#
#
# Indices 1 2 3 4 5 6 
#
# 1 0.052306 0.002284 -0.017809 0.000000 0.000000 0.000000
# 2 0.002284 0.007994 -0.002408 0.000000 0.000000 0.000000
# 3 -0.017809 -0.002408 0.012249 0.000000 0.000000 0.000000
# 4 0.000000 0.000000 0.000000 0.048922 0.000000 0.000000
# 5 0.000000 0.000000 0.000000 0.000000 0.049767 0.000000
# 6 0.000000 0.000000 0.000000 0.000000 0.000000 0.045940
#
#
# Mechanical properties :
#
#
# Convention : Reuss Voigt Hill
#
# Bulk Modulus (GPa) = 27.26105 59.93805 43.59955
# Shear Modulus (GPa) = 18.84855 28.78943 23.81899
#
# Velocity S-wave (km/s) = 3.14462 3.88638 3.53501
# Velocity P-wave (km/s) = 5.24280 7.18222 6.28774
#
# Compressibility (1/GPa) = 0.03668237
#
# Stress axis : x y z
#
# Youngs Moduli (GPa) = 19.11824 125.09225 81.64101
#
# Poissons Ratio (x) = -0.28574 1.45397
# Poissons Ratio (y) = -0.04367 0.19661
# Poissons Ratio (z) = 0.34048 0.30126
#
# Static dielectric constant tensor:
#      x y z
#    x 1.663540 0.000000 0.000000 
#    y 0.000000 1.679140 0.000000 
#    z 0.000000 0.000000 1.715520 
# 
# From -- ./inp_files/44719.got.cif
#   From: 2010.05.17/outbox.cif.g08.bks.cpg/sg52_23_cif.got.tgz:44719.got - 2010.06.03 12:15:38.
