data_PCOD9410502
_publ_section_title
;
Structure prediction by ZEFSAII (Michael W. Deem and Ramdas Pophale) SiO2 
 PCOD9410502
Probable space group: P N N A
;
_chemical_formula_sum "Si O2"
_cell_formula_units_Z 48
_cell_length_a 9.838984
_cell_length_b 26.857233
_cell_length_c 9.284314
_cell_angle_alpha 90.000000
_cell_angle_beta 90.000000
_cell_angle_gamma 90.000000
_cell_volume 2453.360345
_symmetry_space_group_name_H-M "P N N A"
_symmetry_group_IT_number 52
_symmetry_cell_setting 'orthorhombic'
loop_
_space_group_symop_operation_xyz
x,y,z
1/2-x,-y,z
x,1/2-y,1/2-z
1/2-x,1/2+y,1/2-z
-x,-y,-z
1/2+x,y,-z
-x,1/2+y,1/2+z
1/2+x,1/2-y,1/2+z
loop_
_atom_site_type_symbol
_atom_site_label
_atom_site_fract_x
_atom_site_fract_y
_atom_site_fract_z
Si Si1 0.060065 0.865988 0.819724
Si Si2 0.531034 0.718754 0.550617
Si Si3 0.750000 0.500000 0.508379
Si Si4 0.934954 0.681148 0.948227
Si Si5 0.249487 0.250000 0.250000
Si Si6 0.998113 0.435708 0.577218
Si Si7 0.368562 0.650188 0.737972
O O1 0.221814 0.868893 0.808681
O O2 0.998227 0.858319 0.661904
O O3 0.030451 0.815822 0.911232
O O4 0.005386 0.910944 0.917244
O O5 0.536874 0.776417 0.507168
O O6 0.660007 0.712970 0.653565
O O7 0.405083 0.700584 0.649360
O O8 0.646948 0.536610 0.595342
O O9 0.866752 0.529796 0.419210
O O10 0.835072 0.715583 0.856075
O O11 0.872332 0.658355 0.092014
O O12 0.021228 0.390379 0.686563
#
# Coordination Sequence:
#
# PCOD9410502 Si02
#       7
#     8   8   4   8   4   8   8
#     4  11  23  39  59  92 127 162 215 261 307 368
#     4  11  22  38  57  84 123 177 220 253 292 359
#     4  10  20  44  74  98 118 152 208 258 332 406
#     4  12  23  38  58  85 131 178 210 255 302 357
#     4  12  22  36  56  84 116 184 230 244 302 352
#     4  10  22  41  72 100 120 158 200 267 320 396
#     4  11  23  39  59  93 129 161 214 267 309 362
#
# _framework density 19.565003000000001
#
# number of rings (size 3 to 8) (size 9 to 14) (size 15 to 20)
#    0.000    1.000    5.000    2.000    2.333    1.333 
#    0.000    0.000    0.000    6.000    0.000    0.000 
#    0.000    0.000    0.000    0.000    0.000    0.000 
#
# Total GULP energy -267774.539540 kJ/mol
# GULP energy per Si atom -5578.636240 kJ/mol
# Density = 1.952047 g / cm^3
# Si number density = 19.565003 Si / 1000 Ang^3
#
#
#
# Elastic Constant Matrix: (Units=GPa)
#
#
# Indices 1 2 3 4 5 6 
#
# 1 87.5469 19.0308 24.4129 0.0000 0.0000 0.0000
# 2 19.0308 62.8357 19.3798 0.0000 0.0000 0.0000
# 3 24.4129 19.3798 112.4423 0.0000 0.0000 0.0000
# 4 0.0000 0.0000 0.0000 9.4311 0.0000 0.0000
# 5 0.0000 0.0000 0.0000 0.0000 21.2394 0.0000
# 6 0.0000 0.0000 0.0000 0.0000 0.0000 36.3769
#
#
#
# Elastic Compliance Matrix: (Units=1/GPa)
#
#
# Indices 1 2 3 4 5 6 
#
# 1 0.012730 -0.003172 -0.002217 0.000000 0.000000 0.000000
# 2 -0.003172 0.017598 -0.002344 0.000000 0.000000 0.000000
# 3 -0.002217 -0.002344 0.009779 0.000000 0.000000 0.000000
# 4 0.000000 0.000000 0.000000 0.106033 0.000000 0.000000
# 5 0.000000 0.000000 0.000000 0.000000 0.047082 0.000000
# 6 0.000000 0.000000 0.000000 0.000000 0.000000 0.027490
#
#
# Mechanical properties :
#
#
# Convention : Reuss Voigt Hill
#
# Bulk Modulus (GPa) = 40.58369 43.16355 41.87362
# Shear Modulus (GPa) = 20.45889 26.74290 23.60090
#
# Velocity S-wave (km/s) = 3.23722 3.70114 3.47692
# Velocity P-wave (km/s) = 5.89583 6.35406 6.12923
#
# Compressibility (1/GPa) = 0.02464044
#
# Stress axis : x y z
#
# Youngs Moduli (GPa) = 78.55333 56.82400 102.26064
#
# Poissons Ratio (x) = 0.18023 0.22674
# Poissons Ratio (y) = 0.24915 0.23975
# Poissons Ratio (z) = 0.17417 0.13322
#
# Static dielectric constant tensor:
#      x y z
#    x 1.719440 0.000000 0.000000 
#    y 0.000000 1.735690 0.000000 
#    z 0.000000 0.000000 1.690590 
# 
# From -- ./inp_files/7725.got.cif
#   From: 2010.05.17/outbox.cif.g08.bks.cpg/sg52_4_cif.got.tgz:7725.got - 2010.06.03 12:15:38.
