data_PCOD9410426
_publ_section_title
;
Structure prediction by ZEFSAII (Michael W. Deem and Ramdas Pophale) SiO2 
 PCOD9410426
Probable space group: P N N A
;
_chemical_formula_sum "Si O2"
_cell_formula_units_Z 56
_cell_length_a 14.516484
_cell_length_b 14.424621
_cell_length_c 11.425322
_cell_angle_alpha 90.000000
_cell_angle_beta 90.000000
_cell_angle_gamma 90.000000
_cell_volume 2392.402786
_symmetry_space_group_name_H-M "P N N A"
_symmetry_group_IT_number 52
_symmetry_cell_setting 'orthorhombic'
loop_
_space_group_symop_operation_xyz
x,y,z
1/2-x,-y,z
x,1/2-y,1/2-z
1/2-x,1/2+y,1/2-z
-x,-y,-z
1/2+x,y,-z
-x,1/2+y,1/2+z
1/2+x,1/2-y,1/2+z
loop_
_atom_site_type_symbol
_atom_site_label
_atom_site_fract_x
_atom_site_fract_y
_atom_site_fract_z
Si Si1 0.750000 0.500000 0.923350
Si Si2 0.490872 0.243495 0.985438
Si Si3 0.079544 0.382761 0.322186
Si Si4 0.771067 0.145084 0.754586
Si Si5 0.618374 0.939879 0.224437
Si Si6 0.424089 0.566334 0.936948
Si Si7 0.135009 0.750000 0.750000
Si Si8 0.122153 0.569825 0.453242
O O1 0.806435 0.426919 0.841700
O O2 0.673680 0.445312 0.996909
O O3 0.576417 0.198176 0.916943
O O4 0.414562 0.256272 0.880840
O O5 0.527329 0.332996 0.053269
O O6 0.447499 0.156985 0.056214
O O7 0.161925 0.361594 0.236991
O O8 0.087098 0.481395 0.383773
O O9 0.980814 0.387949 0.262222
O O10 0.804014 0.250000 0.750000
O O11 0.788642 0.104699 0.883730
O O12 0.684610 0.851401 0.249717
O O13 0.604509 0.025960 0.309387
O O14 0.632882 0.959279 0.087712
O O15 0.500000 0.500000 0.000000
#
# Coordination Sequence:
#
# PCOD9410426 Si02
#       8
#     4   8   8   8   8   8   4   8
#     4  12  28  44  62 108 142 180 246 294 376 440
#     4  10  21  36  65  93 129 174 238 277 358 423
#     4  10  20  42  65 100 127 177 229 297 358 426
#     4  12  25  39  70 100 140 176 235 312 365 431
#     4  10  21  37  68  88 135 177 232 274 358 441
#     4  12  25  43  68 101 141 189 232 303 361 436
#     4   8  16  32  56  94 116 172 218 278 330 428
#     4  10  22  41  63 100 130 182 229 287 360 431
#
# _framework density 23.407429
#
# number of rings (size 3 to 8) (size 9 to 14) (size 15 to 20)
#    0.000    1.714    2.857    3.429    8.000    0.000 
#    2.571    2.143    0.000    0.000    0.000    0.000 
#    0.000    0.000    0.000    0.000    0.000    0.000 
#
# Total GULP energy -312091.360837 kJ/mol
# GULP energy per Si atom -5573.060015 kJ/mol
# Density = 2.335415 g / cm^3
# Si number density = 23.407429 Si / 1000 Ang^3
#
#
#
# Elastic Constant Matrix: (Units=GPa)
#
#
# Indices 1 2 3 4 5 6 
#
# 1 39.3355 -3.4229 14.0686 0.0000 0.0000 0.0000
# 2 -3.4229 167.0412 49.9706 0.0000 0.0000 0.0000
# 3 14.0686 49.9706 93.2974 0.0000 0.0000 0.0000
# 4 0.0000 0.0000 0.0000 41.8838 0.0000 0.0000
# 5 0.0000 0.0000 0.0000 0.0000 22.3217 0.0000
# 6 0.0000 0.0000 0.0000 0.0000 0.0000 21.2147
#
#
#
# Elastic Compliance Matrix: (Units=1/GPa)
#
#
# Indices 1 2 3 4 5 6 
#
# 1 0.027504 0.002149 -0.005298 0.000000 0.000000 0.000000
# 2 0.002149 0.007297 -0.004232 0.000000 0.000000 0.000000
# 3 -0.005298 -0.004232 0.013784 0.000000 0.000000 0.000000
# 4 0.000000 0.000000 0.000000 0.023876 0.000000 0.000000
# 5 0.000000 0.000000 0.000000 0.000000 0.044800 0.000000
# 6 0.000000 0.000000 0.000000 0.000000 0.000000 0.047137
#
#
# Mechanical properties :
#
#
# Convention : Reuss Voigt Hill
#
# Bulk Modulus (GPa) = 29.56705 46.76741 38.16723
# Shear Modulus (GPa) = 26.25576 33.02124 29.63850
#
# Velocity S-wave (km/s) = 3.35279 3.76002 3.56223
# Velocity P-wave (km/s) = 5.25806 6.23486 5.76718
#
# Compressibility (1/GPa) = 0.03382143
#
# Stress axis : x y z
#
# Youngs Moduli (GPa) = 36.35803 137.04988 72.54740
#
# Poissons Ratio (x) = -0.29446 0.38437
# Poissons Ratio (y) = -0.07812 0.30703
# Poissons Ratio (z) = 0.19263 0.58001
#
# Static dielectric constant tensor:
#      x y z
#    x 2.013910 0.000000 0.000000 
#    y 0.000000 2.105680 0.000000 
#    z 0.000000 0.000000 1.905810 
# 
# From -- ./inp_files/19676.got.cif
#   From: 2010.05.17/outbox.cif.g08.bks.cpg/sg52_10_cif.got.tgz:19676.got - 2010.06.03 12:15:38.
