data_PCOD9410368
_publ_section_title
;
Structure prediction by ZEFSAII (Michael W. Deem and Ramdas Pophale) SiO2 
 PCOD9410368
Probable space group: P N N A
;
_chemical_formula_sum "Si O2"
_cell_formula_units_Z 44
_cell_length_a 5.588205
_cell_length_b 14.184033
_cell_length_c 26.806078
_cell_angle_alpha 90.000000
_cell_angle_beta 90.000000
_cell_angle_gamma 90.000000
_cell_volume 2124.737777
_symmetry_space_group_name_H-M "P N N A"
_symmetry_group_IT_number 52
_symmetry_cell_setting 'orthorhombic'
loop_
_space_group_symop_operation_xyz
x,y,z
1/2-x,-y,z
x,1/2-y,1/2-z
1/2-x,1/2+y,1/2-z
-x,-y,-z
1/2+x,y,-z
-x,1/2+y,1/2+z
1/2+x,1/2-y,1/2+z
loop_
_atom_site_type_symbol
_atom_site_label
_atom_site_fract_x
_atom_site_fract_y
_atom_site_fract_z
Si Si1 0.878837 0.088645 0.289560
Si Si2 0.530608 0.250000 0.250000
Si Si3 0.001256 0.450390 0.319844
Si Si4 0.817276 0.167253 0.935944
Si Si5 0.185415 0.604060 0.544188
Si Si6 0.669079 0.248721 0.660018
O O1 0.689290 0.161797 0.266214
O O2 0.008474 0.048206 0.240616
O O3 0.045915 0.151598 0.324431
O O4 0.750000 0.000000 0.314928
O O5 0.368652 0.270416 0.298224
O O6 0.250000 0.500000 0.337059
O O7 0.997527 0.339600 0.333791
O O8 0.750000 0.500000 0.334581
O O9 0.575800 0.103938 0.931396
O O10 0.764815 0.249462 0.896505
O O11 0.083382 0.131080 0.923559
O O12 0.832562 0.173714 0.996331
O O13 0.250000 0.500000 0.525156
#
# Coordination Sequence:
#
# PCOD9410368 Si02
#       6
#     8   4   8   8   8   8
#     4  11  24  40  60  81 122 176 209 263 321 372
#     4  12  22  44  62  86 136 160 224 268 324 366
#     4  11  23  38  58  85 120 165 209 256 314 358
#     4  10  22  34  60  86 119 163 207 248 315 383
#     4  10  20  41  60  88 129 165 200 262 329 390
#     4  12  24  38  60  92 123 172 217 268 308 384
#
# _framework density 20.708437
#
# number of rings (size 3 to 8) (size 9 to 14) (size 15 to 20)
#    0.000    1.091    3.636    4.909    2.545    2.909 
#    0.000    0.909    0.000    0.000    0.000    5.091 
#    0.000    0.000    0.000    0.000    0.000    0.000 
#
# Total GULP energy -245381.942144 kJ/mol
# GULP energy per Si atom -5576.862321 kJ/mol
# Density = 2.066130 g / cm^3
# Si number density = 20.708437 Si / 1000 Ang^3
#
#
#
# Elastic Constant Matrix: (Units=GPa)
#
#
# Indices 1 2 3 4 5 6 
#
# 1 157.4983 47.2795 29.5390 0.0000 0.0000 0.0000
# 2 47.2795 72.7072 24.5493 0.0000 0.0000 0.0000
# 3 29.5390 24.5493 98.5060 0.0000 0.0000 0.0000
# 4 0.0000 0.0000 0.0000 23.9255 0.0000 0.0000
# 5 0.0000 0.0000 0.0000 0.0000 10.5959 0.0000
# 6 0.0000 0.0000 0.0000 0.0000 0.0000 32.5131
#
#
#
# Elastic Compliance Matrix: (Units=1/GPa)
#
#
# Indices 1 2 3 4 5 6 
#
# 1 0.008019 -0.004807 -0.001207 0.000000 0.000000 0.000000
# 2 -0.004807 0.017899 -0.003019 0.000000 0.000000 0.000000
# 3 -0.001207 -0.003019 0.011266 0.000000 0.000000 0.000000
# 4 0.000000 0.000000 0.000000 0.041796 0.000000 0.000000
# 5 0.000000 0.000000 0.000000 0.000000 0.094376 0.000000
# 6 0.000000 0.000000 0.000000 0.000000 0.000000 0.030757
#
#
# Mechanical properties :
#
#
# Convention : Reuss Voigt Hill
#
# Bulk Modulus (GPa) = 52.30655 59.04966 55.67811
# Shear Modulus (GPa) = 21.87693 28.56314 25.22003
#
# Velocity S-wave (km/s) = 3.25380 3.71792 3.49357
# Velocity P-wave (km/s) = 6.27930 6.85618 6.57408
#
# Compressibility (1/GPa) = 0.01911806
#
# Stress axis : x y z
#
# Youngs Moduli (GPa) = 124.71110 55.86901 88.76307
#
# Poissons Ratio (x) = 0.26855 0.10710
# Poissons Ratio (y) = 0.59947 0.26800
# Poissons Ratio (z) = 0.15047 0.16869
#
# Static dielectric constant tensor:
#      x y z
#    x 1.850440 0.000000 0.000000 
#    y 0.000000 1.734020 0.000000 
#    z 0.000000 0.000000 1.815480 
# 
# From -- ./inp_files/41636.got.cif
#   From: 2010.05.17/outbox.cif.g08.bks.cpg/sg52_21_cif.got.tgz:41636.got - 2010.06.03 12:15:38.
