data_PCOD9410364
_publ_section_title
;
Structure prediction by ZEFSAII (Michael W. Deem and Ramdas Pophale) SiO2 
 PCOD9410364
Probable space group: P N N A
;
_chemical_formula_sum "Si O2"
_cell_formula_units_Z 64
_cell_length_a 18.209524
_cell_length_b 28.658414
_cell_length_c 5.294239
_cell_angle_alpha 90.000000
_cell_angle_beta 90.000000
_cell_angle_gamma 90.000000
_cell_volume 2762.830798
_symmetry_space_group_name_H-M "P N N A"
_symmetry_group_IT_number 52
_symmetry_cell_setting 'orthorhombic'
loop_
_space_group_symop_operation_xyz
x,y,z
1/2-x,-y,z
x,1/2-y,1/2-z
1/2-x,1/2+y,1/2-z
-x,-y,-z
1/2+x,y,-z
-x,1/2+y,1/2+z
1/2+x,1/2-y,1/2+z
loop_
_atom_site_type_symbol
_atom_site_label
_atom_site_fract_x
_atom_site_fract_y
_atom_site_fract_z
Si Si1 0.107461 0.702006 0.632508
Si Si2 0.633759 0.123787 0.888123
Si Si3 0.791504 0.541951 0.283985
Si Si4 0.224394 0.202166 0.858986
Si Si5 0.491009 0.079103 0.022262
Si Si6 0.097661 0.644724 0.153639
Si Si7 0.934585 0.496323 0.201111
Si Si8 0.749389 0.619179 0.978288
O O1 0.077625 0.750000 0.750000
O O2 0.192665 0.713233 0.549765
O O3 0.076294 0.682428 0.369466
O O4 0.098061 0.664885 0.867020
O O5 0.674113 0.083749 0.052593
O O6 0.667888 0.173913 0.965600
O O7 0.547425 0.116733 0.907673
O O8 0.667535 0.113931 0.617443
O O9 0.750000 0.500000 0.426806
O O10 0.855192 0.515855 0.124544
O O11 0.734246 0.571044 0.117339
O O12 0.192617 0.250000 0.750000
O O13 0.244160 0.165278 0.643188
O O14 0.453111 0.101142 0.268533
O O15 0.542047 0.035355 0.093638
O O16 0.434699 0.054790 0.828995
O O17 0.182050 0.628721 0.208789
O O18 0.000000 0.500000 0.000000
#
# Coordination Sequence:
#
# PCOD9410364 Si02
#       8
#     8   8   8   8   8   8   8   8
#     4  10  21  40  65  98 130 163 211 267 327 395
#     4  10  20  41  56  86 124 158 215 262 320 373
#     4  10  23  36  58  89 119 163 209 271 313 373
#     4   9  19  36  61  90 120 160 207 265 327 385
#     4  10  24  38  60  89 123 172 214 264 315 397
#     4  11  23  39  67  97 125 172 212 266 326 381
#     4  10  22  40  60  84 125 169 215 253 325 386
#     4  10  21  36  61  89 126 158 218 264 319 376
#
# _framework density 23.164648
#
# number of rings (size 3 to 8) (size 9 to 14) (size 15 to 20)
#    0.000    2.000    1.250    1.125    5.250    1.000 
#    0.000    1.250    0.000    0.000    0.000    0.000 
#    0.000    0.000    0.000    0.000    0.000    0.000 
#
# Total GULP energy -356436.780142 kJ/mol
# GULP energy per Si atom -5569.324690 kJ/mol
# Density = 2.311192 g / cm^3
# Si number density = 23.164648 Si / 1000 Ang^3
#
#
#
# Elastic Constant Matrix: (Units=GPa)
#
#
# Indices 1 2 3 4 5 6 
#
# 1 45.5011 18.1276 -6.2394 0.0000 0.0000 0.0000
# 2 18.1276 125.7861 11.2449 0.0000 0.0000 0.0000
# 3 -6.2394 11.2449 39.6309 0.0000 0.0000 0.0000
# 4 0.0000 0.0000 0.0000 18.7740 0.0000 0.0000
# 5 0.0000 0.0000 0.0000 0.0000 27.3932 0.0000
# 6 0.0000 0.0000 0.0000 0.0000 0.0000 23.3430
#
#
#
# Elastic Compliance Matrix: (Units=1/GPa)
#
#
# Indices 1 2 3 4 5 6 
#
# 1 0.024219 -0.003931 0.004928 0.000000 0.000000 0.000000
# 2 -0.003931 0.008795 -0.003114 0.000000 0.000000 0.000000
# 3 0.004928 -0.003114 0.026892 0.000000 0.000000 0.000000
# 4 0.000000 0.000000 0.000000 0.053265 0.000000 0.000000
# 5 0.000000 0.000000 0.000000 0.000000 0.036505 0.000000
# 6 0.000000 0.000000 0.000000 0.000000 0.000000 0.042839
#
#
# Mechanical properties :
#
#
# Convention : Reuss Voigt Hill
#
# Bulk Modulus (GPa) = 17.96201 28.57602 23.26902
# Shear Modulus (GPa) = 23.22254 26.42105 24.82179
#
# Velocity S-wave (km/s) = 3.16966 3.38091 3.27699
# Velocity P-wave (km/s) = 4.60071 5.25391 4.93812
#
# Compressibility (1/GPa) = 0.05567304
#
# Stress axis : x y z
#
# Youngs Moduli (GPa) = 41.28921 113.70194 37.18515
#
# Poissons Ratio (x) = 0.44696 -0.18327
# Poissons Ratio (y) = 0.16231 0.11581
# Poissons Ratio (z) = -0.20349 0.35411
#
# Static dielectric constant tensor:
#      x y z
#    x 1.901780 0.000000 0.000000 
#    y 0.000000 1.904960 0.000000 
#    z 0.000000 0.000000 1.949100 
# 
# From -- ./inp_files/3662.got.cif
#   From: 2010.05.17/outbox.cif.g08.bks.cpg/sg52_2_cif.got.tgz:3662.got - 2010.06.03 12:15:38.
