data_PCOD9410363
_publ_section_title
;
Structure prediction by ZEFSAII (Michael W. Deem and Ramdas Pophale) SiO2 
 PCOD9410363
Probable space group: P N N A
;
_chemical_formula_sum "Si O2"
_cell_formula_units_Z 44
_cell_length_a 15.701635
_cell_length_b 14.944206
_cell_length_c 9.376392
_cell_angle_alpha 90.000000
_cell_angle_beta 90.000000
_cell_angle_gamma 90.000000
_cell_volume 2200.156018
_symmetry_space_group_name_H-M "P N N A"
_symmetry_group_IT_number 52
_symmetry_cell_setting 'orthorhombic'
loop_
_space_group_symop_operation_xyz
x,y,z
1/2-x,-y,z
x,1/2-y,1/2-z
1/2-x,1/2+y,1/2-z
-x,-y,-z
1/2+x,y,-z
-x,1/2+y,1/2+z
1/2+x,1/2-y,1/2+z
loop_
_atom_site_type_symbol
_atom_site_label
_atom_site_fract_x
_atom_site_fract_y
_atom_site_fract_z
Si Si1 0.531311 0.443110 0.859946
Si Si2 0.291657 0.250000 0.250000
Si Si3 0.257210 0.750000 0.750000
Si Si4 0.250000 0.000000 0.612095
Si Si5 0.131377 0.585010 0.677360
Si Si6 0.658735 0.553700 0.656629
Si Si7 0.177436 0.169631 0.481127
O O1 0.458507 0.403310 0.756530
O O2 0.592291 0.502324 0.758103
O O3 0.588855 0.363402 0.921608
O O4 0.500000 0.500000 0.000000
O O5 0.337459 0.343741 0.285554
O O6 0.228985 0.233765 0.380148
O O7 0.194473 0.670031 0.698780
O O8 0.321173 0.782876 0.630490
O O9 0.328049 0.008677 0.720751
O O10 0.236616 0.083174 0.509870
O O11 0.131083 0.558666 0.510902
O O12 0.750000 0.500000 0.662514
#
# Coordination Sequence:
#
# PCOD9410363 Si02
#       7
#     8   4   4   4   8   8   8
#     4  12  26  43  71 105 143 183 230 299 359 414
#     4  12  24  43  75 102 132 186 242 284 339 433
#     4  10  24  43  71 102 138 188 240 284 349 439
#     4  10  20  40  76  88 138 192 230 270 352 430
#     4  11  23  43  70 103 141 184 236 296 352 412
#     4  12  25  46  73 104 139 189 241 291 355 431
#     4  11  22  43  67 103 133 181 235 280 352 420
#
# _framework density 19.998581999999999
#
# number of rings (size 3 to 8) (size 9 to 14) (size 15 to 20)
#    0.000    0.727    6.364    1.636    2.545    0.727 
#    0.000    2.727    0.000    0.000    0.000    0.000 
#    0.000    0.000    0.000    0.000    0.000    0.000 
#
# Total GULP energy -245438.501650 kJ/mol
# GULP energy per Si atom -5578.147765 kJ/mol
# Density = 1.995306 g / cm^3
# Si number density = 19.998582 Si / 1000 Ang^3
#
#
#
# Elastic Constant Matrix: (Units=GPa)
#
#
# Indices 1 2 3 4 5 6 
#
# 1 105.6635 30.5807 67.3491 0.0000 0.0000 0.0000
# 2 30.5807 71.3449 36.3977 0.0000 0.0000 0.0000
# 3 67.3491 36.3977 124.9008 0.0000 0.0000 0.0000
# 4 0.0000 0.0000 0.0000 20.4946 0.0000 0.0000
# 5 0.0000 0.0000 0.0000 0.0000 41.6308 0.0000
# 6 0.0000 0.0000 0.0000 0.0000 0.0000 -29.7011
#
#
#
# Elastic Compliance Matrix: (Units=1/GPa)
#
#
# Indices 1 2 3 4 5 6 
#
# 1 0.014843 -0.002677 -0.007224 0.000000 0.000000 0.000000
# 2 -0.002677 0.016947 -0.003495 0.000000 0.000000 0.000000
# 3 -0.007224 -0.003495 0.012920 0.000000 0.000000 0.000000
# 4 0.000000 0.000000 0.000000 0.048793 0.000000 0.000000
# 5 0.000000 0.000000 0.000000 0.000000 0.024021 0.000000
# 6 0.000000 0.000000 0.000000 0.000000 0.000000 -0.033669
#
#
# Mechanical properties :
#
#
# Convention : Reuss Voigt Hill
#
# Bulk Modulus (GPa) = 55.80767 63.39602 59.60184
# Shear Modulus (GPa) = 42.87461 17.65697 30.26579
#
# Velocity S-wave (km/s) = 4.63523 2.97461 3.89446
# Velocity P-wave (km/s) = 7.52420 6.60051 7.07744
#
# Compressibility (1/GPa) = 0.01791868
#
# Stress axis : x y z
#
# Youngs Moduli (GPa) = 67.37188 59.00776 77.39966
#
# Poissons Ratio (x) = 0.15796 0.55910
# Poissons Ratio (y) = 0.18035 0.27052
# Poissons Ratio (z) = 0.48666 0.20624
#
# Static dielectric constant tensor:
#      x y z
#    x 1.740220 0.000000 0.000000 
#    y 0.000000 1.727340 0.000000 
#    z 0.000000 0.000000 1.568600 
# 
# From -- ./inp_files/10386.got.cif
#   From: 2010.05.17/outbox.cif.g08.bks.cpg/sg52_6_cif.got.tgz:10386.got - 2010.06.03 12:15:38.
