data_PCOD9410313
_publ_section_title
;
Structure prediction by ZEFSAII (Michael W. Deem and Ramdas Pophale) SiO2 
 PCOD9410313
Probable space group: P N N A
;
_chemical_formula_sum "Si O2"
_cell_formula_units_Z 64
_cell_length_a 15.130174
_cell_length_b 17.071094
_cell_length_c 11.879640
_cell_angle_alpha 90.000000
_cell_angle_beta 90.000000
_cell_angle_gamma 90.000000
_cell_volume 3068.375852
_symmetry_space_group_name_H-M "P N N A"
_symmetry_group_IT_number 52
_symmetry_cell_setting 'orthorhombic'
loop_
_space_group_symop_operation_xyz
x,y,z
1/2-x,-y,z
x,1/2-y,1/2-z
1/2-x,1/2+y,1/2-z
-x,-y,-z
1/2+x,y,-z
-x,1/2+y,1/2+z
1/2+x,1/2-y,1/2+z
loop_
_atom_site_type_symbol
_atom_site_label
_atom_site_fract_x
_atom_site_fract_y
_atom_site_fract_z
Si Si1 0.266357 0.168197 0.318968
Si Si2 0.795173 0.417635 0.590444
Si Si3 0.633300 0.340476 0.024379
Si Si4 0.039742 0.864481 0.966641
Si Si5 0.389438 0.159740 0.738409
Si Si6 0.850373 0.659388 0.443789
Si Si7 0.209554 0.085476 0.734915
Si Si8 0.428198 0.179092 0.491883
O O1 0.258662 0.250000 0.250000
O O2 0.279631 0.105343 0.219884
O O3 0.182110 0.157216 0.402604
O O4 0.353785 0.167017 0.397604
O O5 0.750000 0.500000 0.567189
O O6 0.896641 0.412742 0.549932
O O7 0.738903 0.359177 0.511360
O O8 0.648534 0.252679 0.072463
O O9 0.675859 0.402125 0.109421
O O10 0.527834 0.349451 0.028224
O O11 0.061421 0.885438 0.837611
O O12 0.066351 0.773247 0.989257
O O13 0.935555 0.865859 0.984547
O O14 0.416992 0.250000 0.750000
O O15 0.286577 0.148189 0.759337
O O16 0.402272 0.138078 0.609177
O O17 0.859608 0.609930 0.329576
O O18 0.250000 0.000000 0.752275
#
# Coordination Sequence:
#
# PCOD9410313 Si02
#       8
#     8   8   8   8   8   8   8   8
#     4  12  23  42  68  95 135 177 221 279 330 393
#     4  12  26  43  63  97 138 177 216 274 346 405
#     4  11  24  42  72  97 128 177 229 276 333 400
#     4  10  22  39  68  99 132 168 222 282 338 392
#     4  10  20  40  66  92 127 169 218 275 331 395
#     4  11  23  42  69 101 128 172 225 280 331 402
#     4  12  25  42  63  96 136 177 220 272 336 403
#     4  10  22  40  68 101 127 171 232 283 326 391
#
# _framework density 20.857941
#
# number of rings (size 3 to 8) (size 9 to 14) (size 15 to 20)
#    0.000    1.000    5.000    1.500    3.500    1.500 
#    0.000    0.625    0.000    0.000    0.000    0.000 
#    0.000    0.000    0.000    0.000    0.000    0.000 
#
# Total GULP energy -357372.893706 kJ/mol
# GULP energy per Si atom -5583.951464 kJ/mol
# Density = 2.081047 g / cm^3
# Si number density = 20.857941 Si / 1000 Ang^3
#
#
#
# Elastic Constant Matrix: (Units=GPa)
#
#
# Indices 1 2 3 4 5 6 
#
# 1 59.1755 -11.4039 12.9735 0.0000 0.0000 0.0000
# 2 -11.4039 18.9461 2.5873 0.0000 0.0000 0.0000
# 3 12.9735 2.5873 107.4326 0.0000 0.0000 0.0000
# 4 0.0000 0.0000 0.0000 6.6309 0.0000 0.0000
# 5 0.0000 0.0000 0.0000 0.0000 21.6540 0.0000
# 6 0.0000 0.0000 0.0000 0.0000 0.0000 13.9754
#
#
#
# Elastic Compliance Matrix: (Units=1/GPa)
#
#
# Indices 1 2 3 4 5 6 
#
# 1 0.019865 0.012325 -0.002696 0.000000 0.000000 0.000000
# 2 0.012325 0.060602 -0.002948 0.000000 0.000000 0.000000
# 3 -0.002696 -0.002948 0.009705 0.000000 0.000000 0.000000
# 4 0.000000 0.000000 0.000000 0.150809 0.000000 0.000000
# 5 0.000000 0.000000 0.000000 0.000000 0.046181 0.000000
# 6 0.000000 0.000000 0.000000 0.000000 0.000000 0.071554
#
#
# Mechanical properties :
#
#
# Convention : Reuss Voigt Hill
#
# Bulk Modulus (GPa) = 9.65855 21.54090 15.59972
# Shear Modulus (GPa) = 13.16258 20.54520 16.85389
#
# Velocity S-wave (km/s) = 2.51481 3.14189 2.84567
# Velocity P-wave (km/s) = 3.61567 4.84889 4.27696
#
# Compressibility (1/GPa) = 0.10353526
#
# Stress axis : x y z
#
# Youngs Moduli (GPa) = 50.33951 16.50100 103.04292
#
# Poissons Ratio (x) = -0.20338 0.27778
# Poissons Ratio (y) = -0.62044 0.30376
# Poissons Ratio (z) = 0.13570 0.04864
#
# Static dielectric constant tensor:
#      x y z
#    x 1.756360 0.000000 0.000000 
#    y 0.000000 1.760240 0.000000 
#    z 0.000000 0.000000 1.777750 
# 
# From -- ./inp_files/19870.got.cif
#   From: 2010.05.17/outbox.cif.g08.bks.cpg/sg52_10_cif.got.tgz:19870.got - 2010.06.03 12:15:38.
