data_PCOD9410121
_publ_section_title
;
Structure prediction by ZEFSAII (Michael W. Deem and Ramdas Pophale) SiO2 
 PCOD9410121
Probable space group: P N N A
;
_chemical_formula_sum "Si O2"
_cell_formula_units_Z 40
_cell_length_a 8.958721
_cell_length_b 11.013405
_cell_length_c 19.542343
_cell_angle_alpha 90.000000
_cell_angle_beta 90.000000
_cell_angle_gamma 90.000000
_cell_volume 1928.165257
_symmetry_space_group_name_H-M "P N N A"
_symmetry_group_IT_number 52
_symmetry_cell_setting 'orthorhombic'
loop_
_space_group_symop_operation_xyz
x,y,z
1/2-x,-y,z
x,1/2-y,1/2-z
1/2-x,1/2+y,1/2-z
-x,-y,-z
1/2+x,y,-z
-x,1/2+y,1/2+z
1/2+x,1/2-y,1/2+z
loop_
_atom_site_type_symbol
_atom_site_label
_atom_site_fract_x
_atom_site_fract_y
_atom_site_fract_z
Si Si1 0.750000 0.500000 0.550470
Si Si2 0.327725 0.874722 0.635995
Si Si3 0.920745 0.685269 0.633645
Si Si4 0.635327 0.750000 0.250000
Si Si5 0.340034 0.244063 0.974800
Si Si6 0.169219 0.627986 0.118271
O O1 0.872110 0.559188 0.600358
O O2 0.684622 0.609384 0.505053
O O3 0.239069 0.833247 0.703157
O O4 0.295018 0.778578 0.575680
O O5 0.503328 0.882242 0.647957
O O6 0.250000 0.000000 0.613257
O O7 0.775161 0.766577 0.648927
O O8 0.027872 0.676878 0.698529
O O9 0.014515 0.751272 0.573208
O O10 0.346899 0.334527 0.038549
O O11 0.250000 0.500000 0.125466
#
# Coordination Sequence:
#
# PCOD9410121 Si02
#       6
#     4   8   8   4   8   8
#     4  10  20  38  66 104 126 166 214 266 332 374
#     4  11  24  44  63  92 129 173 215 260 329 388
#     4  10  22  40  62  93 131 165 219 262 316 380
#     4  10  24  48  58  86 128 180 220 262 312 390
#     4  10  21  39  66  97 135 162 207 266 331 388
#     4  11  21  37  66  97 124 161 210 273 325 374
#
# _framework density 20.745108999999999
#
# number of rings (size 3 to 8) (size 9 to 14) (size 15 to 20)
#    0.000    1.600    0.000    6.000    0.000    4.800 
#   19.800    0.000    0.000    0.000    0.000    0.000 
#    0.000    0.000    0.000    0.000    0.000    0.000 
#
# Total GULP energy -223593.240349 kJ/mol
# GULP energy per Si atom -5589.831009 kJ/mol
# Density = 2.069789 g / cm^3
# Si number density = 20.745109 Si / 1000 Ang^3
#
#
#
# Elastic Constant Matrix: (Units=GPa)
#
#
# Indices 1 2 3 4 5 6 
#
# 1 167.4260 48.7646 52.6231 0.0000 0.0000 0.0000
# 2 48.7646 105.5662 32.7369 0.0000 0.0000 0.0000
# 3 52.6231 32.7369 100.6639 0.0000 0.0000 0.0000
# 4 0.0000 0.0000 0.0000 13.6714 0.0000 0.0000
# 5 0.0000 0.0000 0.0000 0.0000 17.3005 0.0000
# 6 0.0000 0.0000 0.0000 0.0000 0.0000 34.0782
#
#
#
# Elastic Compliance Matrix: (Units=1/GPa)
#
#
# Indices 1 2 3 4 5 6 
#
# 1 0.007730 -0.002578 -0.003203 0.000000 0.000000 0.000000
# 2 -0.002578 0.011395 -0.002358 0.000000 0.000000 0.000000
# 3 -0.003203 -0.002358 0.012375 0.000000 0.000000 0.000000
# 4 0.000000 0.000000 0.000000 0.073145 0.000000 0.000000
# 5 0.000000 0.000000 0.000000 0.000000 0.057802 0.000000
# 6 0.000000 0.000000 0.000000 0.000000 0.000000 0.029344
#
#
# Mechanical properties :
#
#
# Convention : Reuss Voigt Hill
#
# Bulk Modulus (GPa) = 65.69025 71.32282 68.50654
# Shear Modulus (GPa) = 23.45843 28.97880 26.21861
#
# Velocity S-wave (km/s) = 3.36638 3.74156 3.55892
# Velocity P-wave (km/s) = 6.84428 7.28841 7.06983
#
# Compressibility (1/GPa) = 0.01522296
#
# Stress axis : x y z
#
# Youngs Moduli (GPa) = 129.36267 87.75995 80.80657
#
# Poissons Ratio (x) = 0.22621 0.25880
# Poissons Ratio (y) = 0.33345 0.19056
# Poissons Ratio (z) = 0.41432 0.20695
#
# Static dielectric constant tensor:
#      x y z
#    x 1.781100 0.000000 0.000000 
#    y 0.000000 1.742410 0.000000 
#    z 0.000000 0.000000 1.730630 
# 
# From -- ./inp_files/30930.got.cif
#   From: 2010.05.17/outbox.cif.g08.bks.cpg/sg52_16_cif.got.tgz:30930.got - 2010.06.03 12:15:38.
