data_PCOD9410415
_publ_section_title
;
Structure prediction by ZEFSAII (Michael W. Deem and Ramdas Pophale) SiO2 
 PCOD9410415
Probable space group: P N N A
;
_chemical_formula_sum "Si O2"
_cell_formula_units_Z 48
_cell_length_a 23.708904
_cell_length_b 14.463077
_cell_length_c 6.188199
_cell_angle_alpha 90.000000
_cell_angle_beta 90.000000
_cell_angle_gamma 90.000000
_cell_volume 2121.956359
_symmetry_space_group_name_H-M "P N N A"
_symmetry_group_IT_number 52
_symmetry_cell_setting 'orthorhombic'
loop_
_space_group_symop_operation_xyz
x,y,z
1/2-x,-y,z
x,1/2-y,1/2-z
1/2-x,1/2+y,1/2-z
-x,-y,-z
1/2+x,y,-z
-x,1/2+y,1/2+z
1/2+x,1/2-y,1/2+z
loop_
_atom_site_type_symbol
_atom_site_label
_atom_site_fract_x
_atom_site_fract_y
_atom_site_fract_z
Si Si1 0.876312 0.040068 0.793564
Si Si2 0.611586 0.122648 0.103510
Si Si3 0.828073 0.250000 0.250000
Si Si4 0.619892 0.750000 0.750000
Si Si5 0.233538 0.100959 0.712349
Si Si6 0.750000 0.500000 0.799430
Si Si7 0.953926 0.578415 0.992705
Si Si8 0.937866 0.750000 0.750000
O O1 0.901237 0.143125 0.771604
O O2 0.808220 0.039361 0.795541
O O3 0.898963 0.975249 0.599373
O O4 0.894058 0.979743 0.999980
O O5 0.674554 0.132939 0.193207
O O6 0.564193 0.124400 0.284911
O O7 0.600536 0.202715 0.931665
O O8 0.856149 0.243022 0.493500
O O9 0.786092 0.163858 0.236221
O O10 0.229546 0.083724 0.455695
O O11 0.250000 0.000000 0.798556
O O12 0.972106 0.663444 0.841454
O O13 0.000000 0.500000 0.000000
#
# Coordination Sequence:
#
# PCOD9410415 Si02
#       8
#     8   8   4   4   8   4   8   4
#     4  11  25  43  71 102 146 195 242 305 374 449
#     4  11  24  44  72 104 145 184 247 310 375 453
#     4  12  26  38  65  99 146 203 249 304 362 454
#     4  12  26  45  62 107 150 199 259 296 376 460
#     4  10  21  38  63  95 143 196 241 298 357 436
#     4  10  20  42  62 100 146 196 242 292 374 442
#     4  11  25  52  76 105 141 188 246 313 380 454
#     4  10  26  45  75 112 138 184 244 316 384 452
#
# _framework density 22.620636000000001
#
# number of rings (size 3 to 8) (size 9 to 14) (size 15 to 20)
#    0.500    0.667    3.333    1.500    8.167    3.333 
#    6.000    0.000    0.000    0.000    0.000    0.000 
#    0.000    0.000    0.000    0.000    0.000    0.000 
#
# Total GULP energy -267321.418606 kJ/mol
# GULP energy per Si atom -5569.196221 kJ/mol
# Density = 2.256915 g / cm^3
# Si number density = 22.620636 Si / 1000 Ang^3
#
#
#
# Elastic Constant Matrix: (Units=GPa)
#
#
# Indices 1 2 3 4 5 6 
#
# 1 44.7017 10.4882 27.6240 0.0000 0.0000 0.0000
# 2 10.4882 165.2673 36.2706 0.0000 0.0000 0.0000
# 3 27.6240 36.2706 99.6995 0.0000 0.0000 0.0000
# 4 0.0000 0.0000 0.0000 34.4617 0.0000 0.0000
# 5 0.0000 0.0000 0.0000 0.0000 6.8826 0.0000
# 6 0.0000 0.0000 0.0000 0.0000 0.0000 34.4555
#
#
#
# Elastic Compliance Matrix: (Units=1/GPa)
#
#
# Indices 1 2 3 4 5 6 
#
# 1 0.026993 -0.000078 -0.007451 0.000000 0.000000 0.000000
# 2 -0.000078 0.006576 -0.002371 0.000000 0.000000 0.000000
# 3 -0.007451 -0.002371 0.012957 0.000000 0.000000 0.000000
# 4 0.000000 0.000000 0.000000 0.029018 0.000000 0.000000
# 5 0.000000 0.000000 0.000000 0.000000 0.145294 0.000000
# 6 0.000000 0.000000 0.000000 0.000000 0.000000 0.029023
#
#
# Mechanical properties :
#
#
# Convention : Reuss Voigt Hill
#
# Bulk Modulus (GPa) = 37.41477 50.93712 44.17595
# Shear Modulus (GPa) = 17.94890 30.84566 24.39728
#
# Velocity S-wave (km/s) = 2.81992 3.69671 3.28768
# Velocity P-wave (km/s) = 5.21331 6.38653 5.82951
#
# Compressibility (1/GPa) = 0.02672742
#
# Stress axis : x y z
#
# Youngs Moduli (GPa) = 37.04653 152.06683 77.17817
#
# Poissons Ratio (x) = 0.01184 0.57503
# Poissons Ratio (y) = 0.00288 0.18297
# Poissons Ratio (z) = 0.27602 0.36052
#
# Static dielectric constant tensor:
#      x y z
#    x 1.837870 0.000000 0.000000 
#    y 0.000000 1.849710 0.000000 
#    z 0.000000 0.000000 1.979780 
# 
# From -- ./inp_files/5864.got.cif
#   From: 2010.05.17/outbox.cif.g08.bks.cpg/sg52_3_cif.got.tgz:5864.got - 2010.06.03 12:15:38.
