data_PCOD9410604
_publ_section_title
;
Structure prediction by ZEFSAII (Michael W. Deem and Ramdas Pophale) SiO2 
 PCOD9410604
Probable space group: P N N A
;
_chemical_formula_sum "Si O2"
_cell_formula_units_Z 32
_cell_length_a 13.401721
_cell_length_b 23.845994
_cell_length_c 4.884681
_cell_angle_alpha 90.000000
_cell_angle_beta 90.000000
_cell_angle_gamma 90.000000
_cell_volume 1561.033451
_symmetry_space_group_name_H-M "P N N A"
_symmetry_group_IT_number 52
_symmetry_cell_setting 'orthorhombic'
loop_
_space_group_symop_operation_xyz
x,y,z
1/2-x,-y,z
x,1/2-y,1/2-z
1/2-x,1/2+y,1/2-z
-x,-y,-z
1/2+x,y,-z
-x,1/2+y,1/2+z
1/2+x,1/2-y,1/2+z
loop_
_atom_site_type_symbol
_atom_site_label
_atom_site_fract_x
_atom_site_fract_y
_atom_site_fract_z
Si Si1 0.002053 0.051665 0.212116
Si Si2 0.591410 0.313506 0.155145
Si Si3 0.411852 0.107324 0.286570
Si Si4 0.817618 0.628989 0.675647
O O1 0.945508 0.056748 0.504620
O O2 0.114196 0.074618 0.244293
O O3 0.944828 0.096652 0.024592
O O4 0.000000 0.000000 0.000000
O O5 0.588009 0.250000 0.250000
O O6 0.481106 0.340422 0.128549
O O7 0.656334 0.352030 0.366585
O O8 0.642156 0.320944 0.863158
O O9 0.294836 0.116912 0.264337
#
# Coordination Sequence:
#
# PCOD9410604 Si02
#       4
#     8   8   8   8
#     4  10  21  38  59  85 115 148 191 238 286 344
#     4  10  21  36  56  83 114 149 191 236 284 342
#     4  10  21  38  58  83 115 149 189 238 286 338
#     4  10  21  38  57  83 117 150 190 240 288 340
#
# _framework density 20.499241000000001
#
# number of rings (size 3 to 8) (size 9 to 14) (size 15 to 20)
#    0.000    2.000    0.000    3.000    0.000    3.000 
#    0.000    2.500    0.000    0.000    0.000    0.000 
#    0.000    0.000    0.000    0.000    0.000    0.000 
#
# Total GULP energy -178301.997246 kJ/mol
# GULP energy per Si atom -5571.937414 kJ/mol
# Density = 2.045258 g / cm^3
# Si number density = 20.499241 Si / 1000 Ang^3
#
#
#
# Elastic Constant Matrix: (Units=GPa)
#
#
# Indices 1 2 3 4 5 6 
#
# 1 185.9635 34.1827 24.1049 0.0000 0.0000 0.0000
# 2 34.1827 55.6166 0.3875 0.0000 0.0000 0.0000
# 3 24.1049 0.3875 107.3704 0.0000 0.0000 0.0000
# 4 0.0000 0.0000 0.0000 39.7224 0.0000 0.0000
# 5 0.0000 0.0000 0.0000 0.0000 18.1534 0.0000
# 6 0.0000 0.0000 0.0000 0.0000 0.0000 3.2211
#
#
#
# Elastic Compliance Matrix: (Units=1/GPa)
#
#
# Indices 1 2 3 4 5 6 
#
# 1 0.006264 -0.003840 -0.001392 0.000000 0.000000 0.000000
# 2 -0.003840 0.020335 0.000789 0.000000 0.000000 0.000000
# 3 -0.001392 0.000789 0.009623 0.000000 0.000000 0.000000
# 4 0.000000 0.000000 0.000000 0.025175 0.000000 0.000000
# 5 0.000000 0.000000 0.000000 0.000000 0.055086 0.000000
# 6 0.000000 0.000000 0.000000 0.000000 0.000000 0.310455
#
#
# Mechanical properties :
#
#
# Convention : Reuss Voigt Hill
#
# Bulk Modulus (GPa) = 36.58380 51.81119 44.19750
# Shear Modulus (GPa) = 11.23756 31.57108 21.40432
#
# Velocity S-wave (km/s) = 2.34389 3.92868 3.23484
# Velocity P-wave (km/s) = 5.02098 6.77561 5.96319
#
# Compressibility (1/GPa) = 0.02733450
#
# Stress axis : x y z
#
# Youngs Moduli (GPa) = 159.64906 49.17652 103.91446
#
# Poissons Ratio (x) = 0.18884 0.14469
# Poissons Ratio (y) = 0.61306 -0.08196
# Poissons Ratio (z) = 0.22229 -0.03879
#
# Static dielectric constant tensor:
#      x y z
#    x 1.727040 0.000000 0.000000 
#    y 0.000000 1.795670 0.000000 
#    z 0.000000 0.000000 1.737870 
# 
# From -- ./inp_files/1019.got.cif
#   From: 2010.05.17/outbox.cif.g08.bks.cpg/sg52_1_cif.got.tgz:1019.got - 2010.06.03 12:15:38.
