data_PCOD9410822
_publ_section_title
;
Structure prediction by ZEFSAII (Michael W. Deem and Ramdas Pophale) SiO2 
 PCOD9410822
Probable space group: P N N A
;
_chemical_formula_sum "Si O2"
_cell_formula_units_Z 36
_cell_length_a 10.331839
_cell_length_b 5.868585
_cell_length_c 25.547353
_cell_angle_alpha 90.000000
_cell_angle_beta 90.000000
_cell_angle_gamma 90.000000
_cell_volume 1549.019690
_symmetry_space_group_name_H-M "P N N A"
_symmetry_group_IT_number 52
_symmetry_cell_setting 'orthorhombic'
loop_
_space_group_symop_operation_xyz
x,y,z
1/2-x,-y,z
x,1/2-y,1/2-z
1/2-x,1/2+y,1/2-z
-x,-y,-z
1/2+x,y,-z
-x,1/2+y,1/2+z
1/2+x,1/2-y,1/2+z
loop_
_atom_site_type_symbol
_atom_site_label
_atom_site_fract_x
_atom_site_fract_y
_atom_site_fract_z
Si Si1 0.590244 0.383054 0.871680
Si Si2 0.880559 0.084414 0.068576
Si Si3 0.250000 0.500000 0.316199
Si Si4 0.074571 0.689543 0.032463
Si Si5 0.501399 0.009512 0.259460
O O1 0.467578 0.244782 0.895193
O O2 0.624494 0.559284 0.917201
O O3 0.544158 0.507674 0.819381
O O4 0.700068 0.205505 0.852837
O O5 0.750000 0.000000 0.095363
O O6 0.837764 0.201953 0.013251
O O7 0.975888 0.880660 0.052581
O O8 0.374114 0.472215 0.278054
O O9 0.000000 0.500000 0.000000
O O10 0.575345 0.250000 0.250000
O O11 0.554793 0.750000 0.250000
#
# Coordination Sequence:
#
# PCOD9410822 Si02
#       5
#     8   8   4   8   8
#     4  10  22  40  67  99 137 191 236 291 377 438
#     4  10  22  45  65  98 140 181 243 300 357 438
#     4  10  22  42  60 106 142 178 228 300 362 436
#     4   9  21  43  63  98 132 185 237 298 353 429
#     4  10  21  38  61  98 142 175 221 291 359 424
#
# _framework density 23.240503
#
# number of rings (size 3 to 8) (size 9 to 14) (size 15 to 20)
#    0.000    2.222    0.000    2.000    6.222    3.556 
#   22.000    0.000    0.000    0.000   52.000    0.000 
#    0.000    0.000    0.000    0.000    0.000    0.000 
#
# Total GULP energy -200933.600803 kJ/mol
# GULP energy per Si atom -5581.488911 kJ/mol
# Density = 2.318761 g / cm^3
# Si number density = 23.240503 Si / 1000 Ang^3
#
#
#
# Elastic Constant Matrix: (Units=GPa)
#
#
# Indices 1 2 3 4 5 6 
#
# 1 67.3878 22.5122 34.3950 0.0000 0.0000 0.0000
# 2 22.5122 153.5235 74.8240 0.0000 0.0000 0.0000
# 3 34.3950 74.8240 182.9081 0.0000 0.0000 0.0000
# 4 0.0000 0.0000 0.0000 53.0199 0.0000 0.0000
# 5 0.0000 0.0000 0.0000 0.0000 24.3015 0.0000
# 6 0.0000 0.0000 0.0000 0.0000 0.0000 26.6142
#
#
#
# Elastic Compliance Matrix: (Units=1/GPa)
#
#
# Indices 1 2 3 4 5 6 
#
# 1 0.016573 -0.001138 -0.002651 0.000000 0.000000 0.000000
# 2 -0.001138 0.008214 -0.003146 0.000000 0.000000 0.000000
# 3 -0.002651 -0.003146 0.007253 0.000000 0.000000 0.000000
# 4 0.000000 0.000000 0.000000 0.018861 0.000000 0.000000
# 5 0.000000 0.000000 0.000000 0.000000 0.041150 0.000000
# 6 0.000000 0.000000 0.000000 0.000000 0.000000 0.037574
#
#
# Mechanical properties :
#
#
# Convention : Reuss Voigt Hill
#
# Bulk Modulus (GPa) = 55.03862 74.14243 64.59052
# Shear Modulus (GPa) = 33.43353 38.92633 36.17993
#
# Velocity S-wave (km/s) = 3.79699 4.09704 3.94986
# Velocity P-wave (km/s) = 6.55412 7.37241 6.97527
#
# Compressibility (1/GPa) = 0.01816906
#
# Stress axis : x y z
#
# Youngs Moduli (GPa) = 60.34022 121.74468 137.87963
#
# Poissons Ratio (x) = 0.13857 0.36549
# Poissons Ratio (y) = 0.06868 0.43378
# Poissons Ratio (z) = 0.15995 0.38302
#
# Static dielectric constant tensor:
#      x y z
#    x 1.680400 0.000000 0.000000 
#    y 0.000000 1.979340 0.000000 
#    z 0.000000 0.000000 1.875360 
# 
# From -- ./inp_files/39902.got.cif
#   From: 2010.05.17/outbox.cif.g08.bks.cpg/sg52_20_cif.got.tgz:39902.got - 2010.06.03 12:15:38.
