data_PCOD9410892
_publ_section_title
;
Structure prediction by ZEFSAII (Michael W. Deem and Ramdas Pophale) SiO2 
 PCOD9410892
Probable space group: P N N A
;
_chemical_formula_sum "Si O2"
_cell_formula_units_Z 64
_cell_length_a 13.935317
_cell_length_b 17.510487
_cell_length_c 13.057648
_cell_angle_alpha 90.000000
_cell_angle_beta 90.000000
_cell_angle_gamma 90.000000
_cell_volume 3186.251363
_symmetry_space_group_name_H-M "P N N A"
_symmetry_group_IT_number 52
_symmetry_cell_setting 'orthorhombic'
loop_
_space_group_symop_operation_xyz
x,y,z
1/2-x,-y,z
x,1/2-y,1/2-z
1/2-x,1/2+y,1/2-z
-x,-y,-z
1/2+x,y,-z
-x,1/2+y,1/2+z
1/2+x,1/2-y,1/2+z
loop_
_atom_site_type_symbol
_atom_site_label
_atom_site_fract_x
_atom_site_fract_y
_atom_site_fract_z
Si Si1 0.303517 0.569239 0.548140
Si Si2 0.896831 0.794594 0.169257
Si Si3 0.414698 0.132767 0.229932
Si Si4 0.492899 0.196093 0.844621
Si Si5 0.768934 0.915506 0.655180
Si Si6 0.647484 0.282684 0.966853
Si Si7 0.091175 0.041935 0.161586
Si Si8 0.338072 0.193544 0.023175
O O1 0.250000 0.500000 0.602534
O O2 0.354519 0.629200 0.620361
O O3 0.374623 0.544974 0.456428
O O4 0.217003 0.614592 0.495659
O O5 0.830452 0.750000 0.250000
O O6 0.982781 0.826712 0.241426
O O7 0.908745 0.738326 0.071242
O O8 0.332711 0.125023 0.316742
O O9 0.431697 0.045152 0.192176
O O10 0.374934 0.184897 0.137704
O O11 0.463932 0.250000 0.750000
O O12 0.595684 0.229009 0.883069
O O13 0.509358 0.106228 0.822731
O O14 0.419508 0.203361 0.938574
O O15 0.838557 0.865602 0.583176
O O16 0.822713 0.930705 0.763510
O O17 0.750000 0.000000 0.611324
O O18 0.755762 0.255991 0.987103
#
# Coordination Sequence:
#
# PCOD9410892 Si02
#       8
#     8   8   8   8   8   8   8   8
#     4  11  20  38  62  90 126 162 199 255 324 382
#     4  11  26  42  60  88 129 172 211 260 314 385
#     4  11  21  35  61  97 130 155 204 257 321 378
#     4  12  23  38  62  95 131 168 204 257 316 380
#     4  10  21  38  66  96 124 161 210 268 313 368
#     4  11  23  41  65  89 123 166 213 259 315 370
#     4  11  19  36  63  99 129 154 198 265 324 376
#     4  11  22  34  58  95 125 165 199 252 311 377
#
# _framework density 20.086299
#
# number of rings (size 3 to 8) (size 9 to 14) (size 15 to 20)
#    0.000    1.000    7.500    0.375    3.500    3.000 
#    0.000    0.625    2.750    2.250    0.000    0.000 
#    0.000    0.000    0.000    0.000    0.000    0.000 
#
# Total GULP energy -356696.926758 kJ/mol
# GULP energy per Si atom -5573.389481 kJ/mol
# Density = 2.004058 g / cm^3
# Si number density = 20.086299 Si / 1000 Ang^3
#
#
#
# Elastic Constant Matrix: (Units=GPa)
#
#
# Indices 1 2 3 4 5 6 
#
# 1 46.0978 14.4204 8.8206 0.0000 0.0000 0.0000
# 2 14.4204 97.8735 37.7552 0.0000 0.0000 0.0000
# 3 8.8206 37.7552 64.1797 0.0000 0.0000 0.0000
# 4 0.0000 0.0000 0.0000 15.5452 0.0000 0.0000
# 5 0.0000 0.0000 0.0000 0.0000 12.2448 0.0000
# 6 0.0000 0.0000 0.0000 0.0000 0.0000 18.1758
#
#
#
# Elastic Compliance Matrix: (Units=1/GPa)
#
#
# Indices 1 2 3 4 5 6 
#
# 1 0.022852 -0.002788 -0.001501 0.000000 0.000000 0.000000
# 2 -0.002788 0.013557 -0.007592 0.000000 0.000000 0.000000
# 3 -0.001501 -0.007592 0.020254 0.000000 0.000000 0.000000
# 4 0.000000 0.000000 0.000000 0.064329 0.000000 0.000000
# 5 0.000000 0.000000 0.000000 0.000000 0.081668 0.000000
# 6 0.000000 0.000000 0.000000 0.000000 0.000000 0.055018
#
#
# Mechanical properties :
#
#
# Convention : Reuss Voigt Hill
#
# Bulk Modulus (GPa) = 30.39377 36.68260 33.53819
# Shear Modulus (GPa) = 17.09956 19.00346 18.05151
#
# Velocity S-wave (km/s) = 2.92088 3.07920 3.00108
# Velocity P-wave (km/s) = 5.15168 5.56274 5.36115
#
# Compressibility (1/GPa) = 0.03290147
#
# Stress axis : x y z
#
# Youngs Moduli (GPa) = 43.75926 73.76456 49.37405
#
# Poissons Ratio (x) = 0.20567 0.07409
# Poissons Ratio (y) = 0.12201 0.37484
# Poissons Ratio (z) = 0.06566 0.56001
#
# Static dielectric constant tensor:
#      x y z
#    x 1.756680 0.000000 0.000000 
#    y 0.000000 1.828970 0.000000 
#    z 0.000000 0.000000 1.716300 
# 
# From -- ./inp_files/19879.got.cif
#   From: 2010.05.17/outbox.cif.g08.bks.cpg/sg52_10_cif.got.tgz:19879.got - 2010.06.03 12:15:38.
