data_PCOD9410443
_publ_section_title
;
Structure prediction by ZEFSAII (Michael W. Deem and Ramdas Pophale) SiO2 
 PCOD9410443
Probable space group: P N N A
;
_chemical_formula_sum "Si O2"
_cell_formula_units_Z 40
_cell_length_a 10.516038
_cell_length_b 6.661583
_cell_length_c 27.435391
_cell_angle_alpha 90.000000
_cell_angle_beta 90.000000
_cell_angle_gamma 90.000000
_cell_volume 1921.944065
_symmetry_space_group_name_H-M "P N N A"
_symmetry_group_IT_number 52
_symmetry_cell_setting 'orthorhombic'
loop_
_space_group_symop_operation_xyz
x,y,z
1/2-x,-y,z
x,1/2-y,1/2-z
1/2-x,1/2+y,1/2-z
-x,-y,-z
1/2+x,y,-z
-x,1/2+y,1/2+z
1/2+x,1/2-y,1/2+z
loop_
_atom_site_type_symbol
_atom_site_label
_atom_site_fract_x
_atom_site_fract_y
_atom_site_fract_z
Si Si1 0.250000 0.000000 0.681340
Si Si2 0.448258 0.695901 0.883909
Si Si3 0.634186 0.156357 0.593036
Si Si4 0.111034 0.483998 0.324325
Si Si5 0.376780 0.636710 0.986558
Si Si6 0.934847 0.250000 0.250000
O O1 0.323044 0.841121 0.647591
O O2 0.150329 0.886545 0.715144
O O3 0.510843 0.478865 0.895106
O O4 0.409999 0.765493 0.938588
O O5 0.545288 0.828349 0.852004
O O6 0.637089 0.326378 0.632725
O O7 0.642663 0.244932 0.538422
O O8 0.750000 0.000000 0.596976
O O9 0.250000 0.500000 0.300388
O O10 0.017835 0.393753 0.284212
O O11 0.250000 0.500000 0.977405
O O12 0.500000 0.500000 0.000000
#
# Coordination Sequence:
#
# PCOD9410443 Si02
#       6
#     4   8   8   8   8   4
#     4  12  24  46  68  92 134 174 222 278 344 404
#     4  11  22  41  71  98 133 175 219 274 339 411
#     4  10  20  42  67  97 140 172 216 276 330 398
#     4  12  26  43  70 100 127 175 231 281 341 398
#     4   9  19  36  66 101 134 181 217 266 343 409
#     4  12  28  46  66  96 130 178 230 286 336 394
#
# _framework density 20.812259000000001
#
# number of rings (size 3 to 8) (size 9 to 14) (size 15 to 20)
#    0.000    1.200    5.000    1.200    0.000    3.200 
#    0.000    0.000    4.400    0.000    0.000    0.000 
#    0.000    0.000    0.000    0.000    0.000    0.000 
#
# Total GULP energy -223236.473221 kJ/mol
# GULP energy per Si atom -5580.911831 kJ/mol
# Density = 2.076489 g / cm^3
# Si number density = 20.812259 Si / 1000 Ang^3
#
#
#
# Elastic Constant Matrix: (Units=GPa)
#
#
# Indices 1 2 3 4 5 6 
#
# 1 130.8577 21.1817 58.0276 0.0000 0.0000 0.0000
# 2 21.1817 33.6876 27.6730 0.0000 0.0000 0.0000
# 3 58.0276 27.6730 138.2658 0.0000 0.0000 0.0000
# 4 0.0000 0.0000 0.0000 0.3800 0.0000 0.0000
# 5 0.0000 0.0000 0.0000 0.0000 -9.8812 0.0000
# 6 0.0000 0.0000 0.0000 0.0000 0.0000 26.8689
#
#
#
# Elastic Compliance Matrix: (Units=1/GPa)
#
#
# Indices 1 2 3 4 5 6 
#
# 1 0.009685 -0.003292 -0.003406 0.000000 0.000000 0.000000
# 2 -0.003292 0.036644 -0.005953 0.000000 0.000000 0.000000
# 3 -0.003406 -0.005953 0.009853 0.000000 0.000000 0.000000
# 4 0.000000 0.000000 0.000000 2.631531 0.000000 0.000000
# 5 0.000000 0.000000 0.000000 0.000000 -0.101202 0.000000
# 6 0.000000 0.000000 0.000000 0.000000 0.000000 0.037218
#
#
# Mechanical properties :
#
#
# Convention : Reuss Voigt Hill
#
# Bulk Modulus (GPa) = 32.38146 57.39729 44.88938
# Shear Modulus (GPa) = 1.88018 16.53545 9.20781
#
# Velocity S-wave (km/s) = 0.95150 2.82175 2.10567
# Velocity P-wave (km/s) = 4.09875 6.18505 5.24665
#
# Compressibility (1/GPa) = 0.03088187
#
# Stress axis : x y z
#
# Youngs Moduli (GPa) = 103.25242 27.28947 101.49048
#
# Poissons Ratio (x) = 0.08984 0.34565
# Poissons Ratio (y) = 0.33990 0.60412
# Poissons Ratio (z) = 0.35165 0.16244
#
# Static dielectric constant tensor:
#      x y z
#    x 1.862050 0.000000 0.000000 
#    y 0.000000 1.616180 0.000000 
#    z 0.000000 0.000000 1.789830 
# 
# From -- ./inp_files/44751.got.cif
#   From: 2010.05.17/outbox.cif.g08.bks.cpg/sg52_23_cif.got.tgz:44751.got - 2010.06.03 12:15:38.
