data_PCOD9410354
_publ_section_title
;
Structure prediction by ZEFSAII (Michael W. Deem and Ramdas Pophale) SiO2 
 PCOD9410354
Probable space group: P N N A
;
_chemical_formula_sum "Si O2"
_cell_formula_units_Z 48
_cell_length_a 8.363418
_cell_length_b 16.350787
_cell_length_c 16.296694
_cell_angle_alpha 90.000000
_cell_angle_beta 90.000000
_cell_angle_gamma 90.000000
_cell_volume 2228.547910
_symmetry_space_group_name_H-M "P N N A"
_symmetry_group_IT_number 52
_symmetry_cell_setting 'orthorhombic'
loop_
_space_group_symop_operation_xyz
x,y,z
1/2-x,-y,z
x,1/2-y,1/2-z
1/2-x,1/2+y,1/2-z
-x,-y,-z
1/2+x,y,-z
-x,1/2+y,1/2+z
1/2+x,1/2-y,1/2+z
loop_
_atom_site_type_symbol
_atom_site_label
_atom_site_fract_x
_atom_site_fract_y
_atom_site_fract_z
Si Si1 0.722178 0.820900 0.624999
Si Si2 0.524607 0.250000 0.750000
Si Si3 0.999095 0.877255 0.890953
Si Si4 0.242432 0.309489 0.500229
Si Si5 0.750000 0.000000 0.673861
Si Si6 0.434402 0.517908 0.719271
Si Si7 0.073757 0.205756 0.824843
O O1 0.866318 0.800762 0.686472
O O2 0.753834 0.781237 0.536771
O O3 0.573191 0.768218 0.659629
O O4 0.709781 0.918085 0.623644
O O5 0.459090 0.180507 0.812991
O O6 0.089815 0.844823 0.970790
O O7 0.048495 0.967311 0.865235
O O8 0.819783 0.863872 0.923396
O O9 0.154949 0.305072 0.587447
O O10 0.912676 0.988113 0.727448
O O11 0.250000 0.500000 0.748730
O O12 0.460384 0.614030 0.705381
O O13 0.167506 0.250000 0.750000
#
# Coordination Sequence:
#
# PCOD9410354 Si02
#       7
#     8   4   8   8   4   8   8
#     4  11  22  45  71 105 138 203 240 296 383 440
#     4  10  20  40  70  96 136 184 242 294 354 446
#     4  11  24  43  68 103 148 185 243 303 368 451
#     4  11  25  43  68 105 148 190 237 305 381 441
#     4  12  24  48  80 104 152 190 264 314 362 454
#     4  12  26  44  72 118 144 192 252 310 376 443
#     4  12  24  45  73 100 149 191 243 306 374 446
#
# _framework density 21.538689000000002
#
# number of rings (size 3 to 8) (size 9 to 14) (size 15 to 20)
#    0.000    0.667    7.500    0.000    3.500    0.667 
#    3.000    0.833    5.500    0.000    0.000    0.000 
#    0.000    0.000    0.000    0.000    0.000    0.000 
#
# Total GULP energy -267571.994715 kJ/mol
# GULP energy per Si atom -5574.416557 kJ/mol
# Density = 2.148967 g / cm^3
# Si number density = 21.538689 Si / 1000 Ang^3
#
#
#
# Elastic Constant Matrix: (Units=GPa)
#
#
# Indices 1 2 3 4 5 6 
#
# 1 51.3301 -1.5308 -1.0854 0.0000 0.0000 0.0000
# 2 -1.5308 109.0881 -9.8502 0.0000 0.0000 0.0000
# 3 -1.0854 -9.8502 53.2283 0.0000 0.0000 0.0000
# 4 0.0000 0.0000 0.0000 32.9330 0.0000 0.0000
# 5 0.0000 0.0000 0.0000 0.0000 6.8977 0.0000
# 6 0.0000 0.0000 0.0000 0.0000 0.0000 35.7150
#
#
#
# Elastic Compliance Matrix: (Units=1/GPa)
#
#
# Indices 1 2 3 4 5 6 
#
# 1 0.019501 0.000315 0.000456 0.000000 0.000000 0.000000
# 2 0.000315 0.009328 0.001733 0.000000 0.000000 0.000000
# 3 0.000456 0.001733 0.019117 0.000000 0.000000 0.000000
# 4 0.000000 0.000000 0.000000 0.030365 0.000000 0.000000
# 5 0.000000 0.000000 0.000000 0.000000 0.144975 0.000000
# 6 0.000000 0.000000 0.000000 0.000000 0.000000 0.027999
#
#
# Mechanical properties :
#
#
# Convention : Reuss Voigt Hill
#
# Bulk Modulus (GPa) = 18.88499 20.96817 19.92658
# Shear Modulus (GPa) = 18.94452 30.18334 24.56393
#
# Velocity S-wave (km/s) = 2.96895 3.74753 3.38073
# Velocity P-wave (km/s) = 4.53209 5.33681 4.95083
#
# Compressibility (1/GPa) = 0.05295211
#
# Stress axis : x y z
#
# Youngs Moduli (GPa) = 51.27999 107.20680 52.30966
#
# Poissons Ratio (x) = -0.03375 -0.02385
# Poissons Ratio (y) = -0.01614 -0.09063
# Poissons Ratio (z) = -0.02338 -0.18574
#
# Static dielectric constant tensor:
#      x y z
#    x 1.937150 0.000000 0.000000 
#    y 0.000000 1.801320 0.000000 
#    z 0.000000 0.000000 1.797140 
# 
# From -- ./inp_files/31279.got.cif
#   From: 2010.05.17/outbox.cif.g08.bks.cpg/sg52_16_cif.got.tgz:31279.got - 2010.06.03 12:15:38.
