data_PCOD9410049
_publ_section_title
;
Structure prediction by ZEFSAII (Michael W. Deem and Ramdas Pophale) SiO2 
 PCOD9410049
Probable space group: P N N A
;
_chemical_formula_sum "Si O2"
_cell_formula_units_Z 60
_cell_length_a 27.577992
_cell_length_b 11.539844
_cell_length_c 9.084523
_cell_angle_alpha 90.000000
_cell_angle_beta 90.000000
_cell_angle_gamma 90.000000
_cell_volume 2891.110613
_symmetry_space_group_name_H-M "P N N A"
_symmetry_group_IT_number 52
_symmetry_cell_setting 'orthorhombic'
loop_
_space_group_symop_operation_xyz
x,y,z
1/2-x,-y,z
x,1/2-y,1/2-z
1/2-x,1/2+y,1/2-z
-x,-y,-z
1/2+x,y,-z
-x,1/2+y,1/2+z
1/2+x,1/2-y,1/2+z
loop_
_atom_site_type_symbol
_atom_site_label
_atom_site_fract_x
_atom_site_fract_y
_atom_site_fract_z
Si Si1 0.576763 0.536585 0.414306
Si Si2 0.902616 0.839872 0.645867
Si Si3 0.618385 0.919771 0.784083
Si Si4 0.038015 0.750000 0.250000
Si Si5 0.514085 0.325576 0.543059
Si Si6 0.227295 0.626618 0.176123
Si Si7 0.242498 0.132271 0.668658
Si Si8 0.373095 0.871468 0.684808
O O1 0.611845 0.592696 0.538692
O O2 0.548733 0.432832 0.499671
O O3 0.533167 0.624488 0.371766
O O4 0.605585 0.476936 0.280838
O O5 0.873842 0.750000 0.750000
O O6 0.953790 0.776481 0.611942
O O7 0.885338 0.874617 0.485784
O O8 0.896538 0.952152 0.741850
O O9 0.575577 0.849051 0.707521
O O10 0.670678 0.886124 0.721309
O O11 0.006566 0.716381 0.387936
O O12 0.250000 0.500000 0.222216
O O13 0.243932 0.750000 0.250000
O O14 0.238194 0.635186 0.000491
O O15 0.261332 0.250000 0.750000
O O16 0.184610 0.137209 0.683338
O O17 0.250000 0.000000 0.726912
O O18 0.392613 0.750000 0.750000
#
# Coordination Sequence:
#
# PCOD9410049 Si02
#       8
#     8   8   8   4   8   8   8   8
#     4  10  21  40  63  93 131 179 220 273 332 411
#     4  12  22  38  62  98 131 170 226 281 323 400
#     4  11  23  43  68  94 134 170 226 282 340 408
#     4  10  22  42  66  88 128 186 214 280 336 400
#     4  10  20  38  61  90 134 170 226 269 332 398
#     4  11  25  46  72 103 137 176 228 291 355 423
#     4  10  24  44  66  99 138 177 225 285 350 426
#     4  11  21  39  65  94 131 177 224 272 347 410
#
# _framework density 20.753271999999999
#
# number of rings (size 3 to 8) (size 9 to 14) (size 15 to 20)
#    0.000    1.333    3.333    2.400    0.000    6.400 
#    2.400    0.000    0.000    0.000    0.000    0.000 
#    0.000    0.000    0.000    0.000    0.000    0.000 
#
# Total GULP energy -334128.763247 kJ/mol
# GULP energy per Si atom -5568.812721 kJ/mol
# Density = 2.070604 g / cm^3
# Si number density = 20.753272 Si / 1000 Ang^3
#
#
#
# Elastic Constant Matrix: (Units=GPa)
#
#
# Indices 1 2 3 4 5 6 
#
# 1 83.1497 26.0487 34.1760 0.0000 0.0000 0.0000
# 2 26.0487 127.7315 21.6070 0.0000 0.0000 0.0000
# 3 34.1760 21.6070 86.8166 0.0000 0.0000 0.0000
# 4 0.0000 0.0000 0.0000 46.5846 0.0000 0.0000
# 5 0.0000 0.0000 0.0000 0.0000 -1.4897 0.0000
# 6 0.0000 0.0000 0.0000 0.0000 0.0000 45.8729
#
#
#
# Elastic Compliance Matrix: (Units=1/GPa)
#
#
# Indices 1 2 3 4 5 6 
#
# 1 0.014885 -0.002134 -0.005329 0.000000 0.000000 0.000000
# 2 -0.002134 0.008479 -0.001270 0.000000 0.000000 0.000000
# 3 -0.005329 -0.001270 0.013932 0.000000 0.000000 0.000000
# 4 0.000000 0.000000 0.000000 0.021466 0.000000 0.000000
# 5 0.000000 0.000000 0.000000 0.000000 -0.671272 0.000000
# 6 0.000000 0.000000 0.000000 0.000000 0.000000 0.021799
#
#
# Mechanical properties :
#
#
# Convention : Reuss Voigt Hill
#
# Bulk Modulus (GPa) = 50.42664 51.26235 50.84450
# Shear Modulus (GPa) = -8.82404 32.58463 11.88030
#
# Velocity S-wave (km/s) = -2.06424 3.96674 2.39520
# Velocity P-wave (km/s) = 4.32081 6.76273 5.67468
#
# Compressibility (1/GPa) = 0.01983079
#
# Stress axis : x y z
#
# Youngs Moduli (GPa) = 67.18081 117.93824 71.77591
#
# Poissons Ratio (x) = 0.25171 0.38246
# Poissons Ratio (y) = 0.14338 0.09116
# Poissons Ratio (z) = 0.35797 0.14979
#
# Static dielectric constant tensor:
#      x y z
#    x 1.779310 0.000000 0.000000 
#    y 0.000000 1.766860 0.000000 
#    z 0.000000 0.000000 1.739220 
# 
# From -- ./inp_files/15071.got.cif
#   From: 2010.05.17/outbox.cif.g08.bks.cpg/sg52_8_cif.got.tgz:15071.got - 2010.06.03 12:15:38.
