data_PCOD9410186
_publ_section_title
;
Structure prediction by ZEFSAII (Michael W. Deem and Ramdas Pophale) SiO2 
 PCOD9410186
Probable space group: P N N A
;
_chemical_formula_sum "Si O2"
_cell_formula_units_Z 28
_cell_length_a 27.942807
_cell_length_b 5.581715
_cell_length_c 8.111298
_cell_angle_alpha 90.000000
_cell_angle_beta 90.000000
_cell_angle_gamma 90.000000
_cell_volume 1265.109294
_symmetry_space_group_name_H-M "P N N A"
_symmetry_group_IT_number 52
_symmetry_cell_setting 'orthorhombic'
loop_
_space_group_symop_operation_xyz
x,y,z
1/2-x,-y,z
x,1/2-y,1/2-z
1/2-x,1/2+y,1/2-z
-x,-y,-z
1/2+x,y,-z
-x,1/2+y,1/2+z
1/2+x,1/2-y,1/2+z
loop_
_atom_site_type_symbol
_atom_site_label
_atom_site_fract_x
_atom_site_fract_y
_atom_site_fract_z
Si Si1 0.720671 0.750000 0.750000
Si Si2 0.944529 0.486974 0.047399
Si Si3 0.304226 0.097674 0.911709
Si Si4 0.092523 0.025452 0.927448
O O1 0.750000 0.500000 0.751608
O O2 0.692557 0.746810 0.579799
O O3 0.921189 0.232951 0.995097
O O4 0.931559 0.506158 0.244227
O O5 0.925371 0.739794 0.979460
O O6 0.000000 0.500000 0.000000
O O7 0.311101 0.250000 0.750000
O O8 0.350465 0.931281 0.913566
O O9 0.250000 0.000000 0.903654
#
# Coordination Sequence:
#
# PCOD9410186 Si02
#       4
#     4   8   8   8
#     4  10  24  44  62  98 140 184 238 276 330 412
#     4  10  20  39  62  86 130 167 220 294 334 393
#     4  11  23  41  73 104 145 190 228 283 354 418
#     4  10  22  39  63  99 128 169 234 274 336 430
#
# _framework density 22.132477000000002
#
# number of rings (size 3 to 8) (size 9 to 14) (size 15 to 20)
#    0.000    1.714    2.857    1.714    4.000    4.571 
#    0.000    8.571    0.000    0.000    0.000    0.000 
#    0.000    0.000    0.000    0.000    0.000    0.000 
#
# Total GULP energy -155947.746493 kJ/mol
# GULP energy per Si atom -5569.562375 kJ/mol
# Density = 2.208210 g / cm^3
# Si number density = 22.132477 Si / 1000 Ang^3
#
#
#
# Elastic Constant Matrix: (Units=GPa)
#
#
# Indices 1 2 3 4 5 6 
#
# 1 191.4549 56.8019 1.4284 0.0000 0.0000 0.0000
# 2 56.8019 190.8556 1.4099 0.0000 0.0000 0.0000
# 3 1.4284 1.4099 94.0053 0.0000 0.0000 0.0000
# 4 0.0000 0.0000 0.0000 9.6706 0.0000 0.0000
# 5 0.0000 0.0000 0.0000 0.0000 128.9319 0.0000
# 6 0.0000 0.0000 0.0000 0.0000 0.0000 25.9621
#
#
#
# Elastic Compliance Matrix: (Units=1/GPa)
#
#
# Indices 1 2 3 4 5 6 
#
# 1 0.005729 -0.001705 -0.000061 0.000000 0.000000 0.000000
# 2 -0.001705 0.005747 -0.000060 0.000000 0.000000 0.000000
# 3 -0.000061 -0.000060 0.010640 0.000000 0.000000 0.000000
# 4 0.000000 0.000000 0.000000 0.103406 0.000000 0.000000
# 5 0.000000 0.000000 0.000000 0.000000 0.007756 0.000000
# 6 0.000000 0.000000 0.000000 0.000000 0.000000 0.038518
#
#
# Mechanical properties :
#
#
# Convention : Reuss Voigt Hill
#
# Bulk Modulus (GPa) = 54.16152 66.17735 60.16943
# Shear Modulus (GPa) = 27.53253 60.69130 44.11191
#
# Velocity S-wave (km/s) = 3.53085 5.24227 4.46924
# Velocity P-wave (km/s) = 6.41460 8.16133 7.34011
#
# Compressibility (1/GPa) = 0.01846329
#
# Stress axis : x y z
#
# Youngs Moduli (GPa) = 174.53884 173.99293 93.98907
#
# Poissons Ratio (x) = 0.29661 0.00578
# Poissons Ratio (y) = 0.29754 0.00567
# Poissons Ratio (z) = 0.01073 0.01049
#
# Static dielectric constant tensor:
#      x y z
#    x 1.999880 0.000000 0.000000 
#    y 0.000000 1.797750 0.000000 
#    z 0.000000 0.000000 1.788170 
# 
# From -- ./inp_files/14644.got.cif
#   From: 2010.05.17/outbox.cif.g08.bks.cpg/sg52_8_cif.got.tgz:14644.got - 2010.06.03 12:15:38.
