data_PCOD9410954
_publ_section_title
;
Structure prediction by ZEFSAII (Michael W. Deem and Ramdas Pophale) SiO2 
 PCOD9410954
Probable space group: P N N A
;
_chemical_formula_sum "Si O2"
_cell_formula_units_Z 40
_cell_length_a 25.766612
_cell_length_b 6.113548
_cell_length_c 12.924149
_cell_angle_alpha 90.000000
_cell_angle_beta 90.000000
_cell_angle_gamma 90.000000
_cell_volume 2035.881990
_symmetry_space_group_name_H-M "P N N A"
_symmetry_group_IT_number 52
_symmetry_cell_setting 'orthorhombic'
loop_
_space_group_symop_operation_xyz
x,y,z
1/2-x,-y,z
x,1/2-y,1/2-z
1/2-x,1/2+y,1/2-z
-x,-y,-z
1/2+x,y,-z
-x,1/2+y,1/2+z
1/2+x,1/2-y,1/2+z
loop_
_atom_site_type_symbol
_atom_site_label
_atom_site_fract_x
_atom_site_fract_y
_atom_site_fract_z
Si Si1 0.201584 0.875955 0.646736
Si Si2 0.615531 0.935746 0.063069
Si Si3 0.869164 0.750000 0.250000
Si Si4 0.581580 0.390509 0.652941
Si Si5 0.480471 0.112124 0.602418
Si Si6 0.513478 0.750000 0.750000
O O1 0.221253 0.750000 0.750000
O O2 0.168769 0.700306 0.580876
O O3 0.250000 0.000000 0.595184
O O4 0.163558 0.063710 0.689246
O O5 0.569600 0.758165 0.080387
O O6 0.607654 0.110174 0.154846
O O7 0.612774 0.060475 0.952670
O O8 0.606068 0.250000 0.750000
O O9 0.529832 0.255038 0.631183
O O10 0.554811 0.621224 0.679882
O O11 0.500000 0.000000 0.500000
O O12 0.478193 0.925508 0.689939
#
# Coordination Sequence:
#
# PCOD9410954 Si02
#       6
#     8   8   4   8   8   4
#     4  10  21  39  62  89 132 165 196 252 325 394
#     4  11  24  38  61  96 124 172 215 259 320 380
#     4  10  24  39  62  90 138 154 206 256 321 392
#     4  10  23  40  59  82 124 172 218 261 306 363
#     4  11  23  39  57  84 129 172 217 261 304 373
#     4  10  22  39  58  78 126 170 210 264 313 352
#
# _framework density 19.647504000000001
#
# number of rings (size 3 to 8) (size 9 to 14) (size 15 to 20)
#    0.000    1.600    3.000    0.600    2.800    8.800 
#    0.000    0.000    0.000    0.000    0.000    0.000 
#   30.000    0.000    0.000    0.000    0.000    0.000 
#
# Total GULP energy -223001.616476 kJ/mol
# GULP energy per Si atom -5575.040412 kJ/mol
# Density = 1.960278 g / cm^3
# Si number density = 19.647504 Si / 1000 Ang^3
#
#
#
# Elastic Constant Matrix: (Units=GPa)
#
#
# Indices 1 2 3 4 5 6 
#
# 1 66.9024 39.5467 54.3968 0.0000 0.0000 0.0000
# 2 39.5467 107.0067 57.4647 0.0000 0.0000 0.0000
# 3 54.3968 57.4647 140.0918 0.0000 0.0000 0.0000
# 4 0.0000 0.0000 0.0000 53.6668 0.0000 0.0000
# 5 0.0000 0.0000 0.0000 0.0000 18.4626 0.0000
# 6 0.0000 0.0000 0.0000 0.0000 0.0000 42.4766
#
#
#
# Elastic Compliance Matrix: (Units=1/GPa)
#
#
# Indices 1 2 3 4 5 6 
#
# 1 0.023685 -0.004892 -0.007190 0.000000 0.000000 0.000000
# 2 -0.004892 0.012996 -0.003431 0.000000 0.000000 0.000000
# 3 -0.007190 -0.003431 0.011337 0.000000 0.000000 0.000000
# 4 0.000000 0.000000 0.000000 0.018633 0.000000 0.000000
# 5 0.000000 0.000000 0.000000 0.000000 0.054164 0.000000
# 6 0.000000 0.000000 0.000000 0.000000 0.000000 0.023542
#
#
# Mechanical properties :
#
#
# Convention : Reuss Voigt Hill
#
# Bulk Modulus (GPa) = 58.85274 68.53523 63.69398
# Shear Modulus (GPa) = 27.61694 33.76072 30.68883
#
# Velocity S-wave (km/s) = 3.75323 4.14976 3.95647
# Velocity P-wave (km/s) = 6.98582 7.61044 7.30481
#
# Compressibility (1/GPa) = 0.01699156
#
# Stress axis : x y z
#
# Youngs Moduli (GPa) = 42.22092 76.94773 88.20305
#
# Poissons Ratio (x) = 0.37644 0.63418
# Poissons Ratio (y) = 0.20655 0.30264
# Poissons Ratio (z) = 0.30357 0.26402
#
# Static dielectric constant tensor:
#      x y z
#    x 1.719640 0.000000 0.000000 
#    y 0.000000 1.645750 0.000000 
#    z 0.000000 0.000000 1.723650 
# 
# From -- ./inp_files/23084.got.cif
#   From: 2010.05.17/outbox.cif.g08.bks.cpg/sg52_12_cif.got.tgz:23084.got - 2010.06.03 12:15:38.
