data_PCOD9410470
_publ_section_title
;
Structure prediction by ZEFSAII (Michael W. Deem and Ramdas Pophale) SiO2 
 PCOD9410470
Probable space group: P N N A
;
_chemical_formula_sum "Si O2"
_cell_formula_units_Z 60
_cell_length_a 17.684459
_cell_length_b 30.337174
_cell_length_c 5.639101
_cell_angle_alpha 90.000000
_cell_angle_beta 90.000000
_cell_angle_gamma 90.000000
_cell_volume 3025.358005
_symmetry_space_group_name_H-M "P N N A"
_symmetry_group_IT_number 52
_symmetry_cell_setting 'orthorhombic'
loop_
_space_group_symop_operation_xyz
x,y,z
1/2-x,-y,z
x,1/2-y,1/2-z
1/2-x,1/2+y,1/2-z
-x,-y,-z
1/2+x,y,-z
-x,1/2+y,1/2+z
1/2+x,1/2-y,1/2+z
loop_
_atom_site_type_symbol
_atom_site_label
_atom_site_fract_x
_atom_site_fract_y
_atom_site_fract_z
Si Si1 0.505797 0.551794 0.547395
Si Si2 0.684410 0.319578 0.752652
Si Si3 0.133070 0.386116 0.617131
Si Si4 0.936906 0.408386 0.048700
Si Si5 0.806832 0.288771 0.438923
Si Si6 0.220531 0.868676 0.627048
Si Si7 0.960219 0.823510 0.459945
Si Si8 0.435178 0.250000 0.250000
O O1 0.500000 0.500000 0.500000
O O2 0.422937 0.574176 0.565683
O O3 0.546330 0.570381 0.307872
O O4 0.541342 0.564649 0.806943
O O5 0.665609 0.365407 0.621121
O O6 0.726072 0.287489 0.571340
O O7 0.746816 0.332464 0.945933
O O8 0.605311 0.306693 0.865777
O O9 0.205722 0.395078 0.782895
O O10 0.085075 0.346675 0.742269
O O11 0.848418 0.396700 0.030771
O O12 0.986961 0.363460 0.050015
O O13 0.808223 0.250000 0.250000
O O14 0.811309 0.337929 0.336650
O O15 0.878820 0.280341 0.600647
O O16 0.012368 0.782764 0.395854
#
# Coordination Sequence:
#
# PCOD9410470 Si02
#       8
#     8   8   8   8   8   8   8   4
#     4  11  24  44  74 106 139 177 222 281 346 417
#     4  10  20  43  63  88 124 176 223 266 346 398
#     4   9  21  41  68  91 133 172 219 269 344 410
#     4  11  23  42  75 100 137 177 229 271 346 410
#     4  11  23  39  61  90 129 170 224 292 337 390
#     4  10  23  40  67  92 126 182 225 270 341 406
#     4  10  22  41  63  96 125 181 219 283 329 404
#     4  12  26  42  62  92 136 170 238 288 330 394
#
# _framework density 19.832363999999998
#
# number of rings (size 3 to 8) (size 9 to 14) (size 15 to 20)
#    0.000    1.600    1.333    2.800    7.467    1.067 
#   20.400    0.667    2.933    0.000    0.000    0.000 
#    0.000    0.000    0.000    0.000    0.000    0.000 
#
# Total GULP energy -334912.750289 kJ/mol
# GULP energy per Si atom -5581.879171 kJ/mol
# Density = 1.978722 g / cm^3
# Si number density = 19.832364 Si / 1000 Ang^3
#
#
#
# Elastic Constant Matrix: (Units=GPa)
#
#
# Indices 1 2 3 4 5 6 
#
# 1 129.6312 23.2461 33.8723 0.0000 0.0000 0.0000
# 2 23.2461 36.7036 0.3148 0.0000 0.0000 0.0000
# 3 33.8723 0.3148 66.9922 0.0000 0.0000 0.0000
# 4 0.0000 0.0000 0.0000 21.2227 0.0000 0.0000
# 5 0.0000 0.0000 0.0000 0.0000 -82.3567 0.0000
# 6 0.0000 0.0000 0.0000 0.0000 0.0000 6.8646
#
#
#
# Elastic Compliance Matrix: (Units=1/GPa)
#
#
# Indices 1 2 3 4 5 6 
#
# 1 0.010206 -0.006420 -0.005130 0.000000 0.000000 0.000000
# 2 -0.006420 0.031285 0.003099 0.000000 0.000000 0.000000
# 3 -0.005130 0.003099 0.017506 0.000000 0.000000 0.000000
# 4 0.000000 0.000000 0.000000 0.047119 0.000000 0.000000
# 5 0.000000 0.000000 0.000000 0.000000 -0.012142 0.000000
# 6 0.000000 0.000000 0.000000 0.000000 0.000000 0.145674
#
#
# Mechanical properties :
#
#
# Convention : Reuss Voigt Hill
#
# Bulk Modulus (GPa) = 23.75578 38.68816 31.22197
# Shear Modulus (GPa) = 18.47869 0.87239 9.67554
#
# Velocity S-wave (km/s) = 3.05576 0.66396 2.21117
# Velocity P-wave (km/s) = 4.94515 4.48751 4.72188
#
# Compressibility (1/GPa) = 0.04209502
#
# Stress axis : x y z
#
# Youngs Moduli (GPa) = 97.98239 31.96452 57.12198
#
# Poissons Ratio (x) = 0.20521 0.29304
# Poissons Ratio (y) = 0.62904 -0.17702
# Poissons Ratio (z) = 0.50266 -0.09906
#
# Static dielectric constant tensor:
#      x y z
#    x 1.709760 0.000000 0.000000 
#    y 0.000000 1.665320 0.000000 
#    z 0.000000 0.000000 1.886000 
# 
# From -- ./inp_files/3607.got.cif
#   From: 2010.05.17/outbox.cif.g08.bks.cpg/sg52_2_cif.got.tgz:3607.got - 2010.06.03 12:15:38.
