data_PCOD9410814
_publ_section_title
;
Structure prediction by ZEFSAII (Michael W. Deem and Ramdas Pophale) SiO2 
 PCOD9410814
Probable space group: P N N A
;
_chemical_formula_sum "Si O2"
_cell_formula_units_Z 32
_cell_length_a 8.907933
_cell_length_b 5.007644
_cell_length_c 31.636527
_cell_angle_alpha 90.000000
_cell_angle_beta 90.000000
_cell_angle_gamma 90.000000
_cell_volume 1411.234516
_symmetry_space_group_name_H-M "P N N A"
_symmetry_group_IT_number 52
_symmetry_cell_setting 'orthorhombic'
loop_
_space_group_symop_operation_xyz
x,y,z
1/2-x,-y,z
x,1/2-y,1/2-z
1/2-x,1/2+y,1/2-z
-x,-y,-z
1/2+x,y,-z
-x,1/2+y,1/2+z
1/2+x,1/2-y,1/2+z
loop_
_atom_site_type_symbol
_atom_site_label
_atom_site_fract_x
_atom_site_fract_y
_atom_site_fract_z
Si Si1 0.357781 0.241692 0.980018
Si Si2 0.146251 0.761557 0.152460
Si Si3 0.576121 0.575116 0.931995
Si Si4 0.914390 0.995500 0.219022
O O1 0.250000 0.500000 0.981847
O O2 0.480666 0.320551 0.945771
O O3 0.250000 0.000000 0.970552
O O4 0.429998 0.230586 0.027082
O O5 0.250000 0.500000 0.164706
O O6 0.035905 0.678143 0.114256
O O7 0.051085 0.906944 0.189070
O O8 0.250000 0.000000 0.135005
O O9 0.750000 0.500000 0.927190
O O10 0.894276 0.750000 0.250000
O O11 0.750000 0.000000 0.196474
O O12 0.943424 0.250000 0.250000
#
# Coordination Sequence:
#
# PCOD9410814 Si02
#       4
#     8   8   8   8
#     4  10  21  38  61  90 124 172 225 270 323 388
#     4  11  23  40  65  99 133 168 214 272 331 391
#     4   9  21  39  62  90 130 171 215 274 333 386
#     4  10  22  43  69  96 130 170 211 263 331 402
#
# _framework density 22.675182
#
# number of rings (size 3 to 8) (size 9 to 14) (size 15 to 20)
#    0.000    2.000    0.000    2.250    0.000   15.000 
#    0.000   10.000    0.000    3.000    0.000    0.000 
#    0.000    0.000    0.000    0.000    0.000    0.000 
#
# Total GULP energy -178590.607397 kJ/mol
# GULP energy per Si atom -5580.956481 kJ/mol
# Density = 2.262357 g / cm^3
# Si number density = 22.675182 Si / 1000 Ang^3
#
#
#
# Elastic Constant Matrix: (Units=GPa)
#
#
# Indices 1 2 3 4 5 6 
#
# 1 100.3051 55.0105 50.6685 0.0000 0.0000 0.0000
# 2 55.0105 171.3938 43.9539 0.0000 0.0000 0.0000
# 3 50.6685 43.9539 94.8386 0.0000 0.0000 0.0000
# 4 0.0000 0.0000 0.0000 24.3166 0.0000 0.0000
# 5 0.0000 0.0000 0.0000 0.0000 19.2568 0.0000
# 6 0.0000 0.0000 0.0000 0.0000 0.0000 42.7878
#
#
#
# Elastic Compliance Matrix: (Units=1/GPa)
#
#
# Indices 1 2 3 4 5 6 
#
# 1 0.015003 -0.003132 -0.006564 0.000000 0.000000 0.000000
# 2 -0.003132 0.007275 -0.001699 0.000000 0.000000 0.000000
# 3 -0.006564 -0.001699 0.014838 0.000000 0.000000 0.000000
# 4 0.000000 0.000000 0.000000 0.041124 0.000000 0.000000
# 5 0.000000 0.000000 0.000000 0.000000 0.051930 0.000000
# 6 0.000000 0.000000 0.000000 0.000000 0.000000 0.023371
#
#
# Mechanical properties :
#
#
# Convention : Reuss Voigt Hill
#
# Bulk Modulus (GPa) = 69.79505 73.97816 71.88660
# Shear Modulus (GPa) = 27.60803 31.73253 29.67028
#
# Velocity S-wave (km/s) = 3.49312 3.74497 3.62123
# Velocity P-wave (km/s) = 6.86414 7.16908 7.01826
#
# Compressibility (1/GPa) = 0.01432766
#
# Stress axis : x y z
#
# Youngs Moduli (GPa) = 66.65324 137.45020 67.39325
#
# Poissons Ratio (x) = 0.43050 0.44237
# Poissons Ratio (y) = 0.20876 0.11447
# Poissons Ratio (z) = 0.43751 0.23346
#
# Static dielectric constant tensor:
#      x y z
#    x 1.929440 0.000000 0.000000 
#    y 0.000000 1.878100 0.000000 
#    z 0.000000 0.000000 1.867310 
# 
# From -- ./inp_files/44021.got.cif
#   From: 2010.05.17/outbox.cif.g08.bks.cpg/sg52_23_cif.got.tgz:44021.got - 2010.06.03 12:15:38.
