data_PCOD9410489
_publ_section_title
;
Structure prediction by ZEFSAII (Michael W. Deem and Ramdas Pophale) SiO2 
 PCOD9410489
Probable space group: P N N A
;
_chemical_formula_sum "Si O2"
_cell_formula_units_Z 32
_cell_length_a 7.858667
_cell_length_b 6.485633
_cell_length_c 28.888621
_cell_angle_alpha 90.000000
_cell_angle_beta 90.000000
_cell_angle_gamma 90.000000
_cell_volume 1472.407658
_symmetry_space_group_name_H-M "P N N A"
_symmetry_group_IT_number 52
_symmetry_cell_setting 'orthorhombic'
loop_
_space_group_symop_operation_xyz
x,y,z
1/2-x,-y,z
x,1/2-y,1/2-z
1/2-x,1/2+y,1/2-z
-x,-y,-z
1/2+x,y,-z
-x,1/2+y,1/2+z
1/2+x,1/2-y,1/2+z
loop_
_atom_site_type_symbol
_atom_site_label
_atom_site_fract_x
_atom_site_fract_y
_atom_site_fract_z
Si Si1 0.990439 0.713165 0.878457
Si Si2 0.978584 0.750000 0.250000
Si Si3 0.250000 0.000000 0.823274
Si Si4 0.932467 0.094524 0.547265
Si Si5 0.250000 0.000000 0.060296
Si Si6 0.250000 0.000000 0.306890
O O1 0.034199 0.504718 0.908709
O O2 0.852343 0.655687 0.839518
O O3 0.886927 0.870588 0.910618
O O4 0.144557 0.838274 0.854898
O O5 0.103686 0.904765 0.275803
O O6 0.868861 0.867376 0.211234
O O7 0.879063 0.331754 0.537879
O O8 0.750000 0.000000 0.557425
O O9 0.000000 0.000000 0.500000
#
# Coordination Sequence:
#
# PCOD9410489 Si02
#       6
#     8   4   4   8   4   4
#     4  11  23  42  68 100 132 187 231 290 351 440
#     4  12  26  44  68 102 138 186 230 306 356 432
#     4  12  26  41  66 108 144 170 242 304 369 408
#     4  10  23  41  65 100 136 181 239 292 354 430
#     4  10  20  44  66  94 134 192 232 280 352 434
#     4  12  22  47  70  90 136 186 240 270 361 442
#
# _framework density 21.733111000000001
#
# number of rings (size 3 to 8) (size 9 to 14) (size 15 to 20)
#    0.000    1.000    3.750    4.500    0.000    7.000 
#    0.000    0.000    0.000    0.000    0.000    0.000 
#    0.000    0.000    0.000    0.000    0.000    0.000 
#
# Total GULP energy -178350.819177 kJ/mol
# GULP energy per Si atom -5573.463099 kJ/mol
# Density = 2.168365 g / cm^3
# Si number density = 21.733111 Si / 1000 Ang^3
#
#
#
# Elastic Constant Matrix: (Units=GPa)
#
#
# Indices 1 2 3 4 5 6 
#
# 1 120.4017 65.2295 62.8461 0.0000 0.0000 0.0000
# 2 65.2295 142.4660 63.6744 0.0000 0.0000 0.0000
# 3 62.8461 63.6744 110.1228 0.0000 0.0000 0.0000
# 4 0.0000 0.0000 0.0000 36.5282 0.0000 0.0000
# 5 0.0000 0.0000 0.0000 0.0000 39.6898 0.0000
# 6 0.0000 0.0000 0.0000 0.0000 0.0000 18.7263
#
#
#
# Elastic Compliance Matrix: (Units=1/GPa)
#
#
# Indices 1 2 3 4 5 6 
#
# 1 0.013049 -0.003568 -0.005384 0.000000 0.000000 0.000000
# 2 -0.003568 0.010441 -0.004001 0.000000 0.000000 0.000000
# 3 -0.005384 -0.004001 0.014466 0.000000 0.000000 0.000000
# 4 0.000000 0.000000 0.000000 0.027376 0.000000 0.000000
# 5 0.000000 0.000000 0.000000 0.000000 0.025195 0.000000
# 6 0.000000 0.000000 0.000000 0.000000 0.000000 0.053401
#
#
# Mechanical properties :
#
#
# Convention : Reuss Voigt Hill
#
# Bulk Modulus (GPa) = 82.98083 84.05449 83.51766
# Shear Modulus (GPa) = 28.76024 31.07155 29.91589
#
# Velocity S-wave (km/s) = 3.64172 3.78522 3.71416
# Velocity P-wave (km/s) = 7.47980 7.60681 7.54358
#
# Compressibility (1/GPa) = 0.01205098
#
# Stress axis : x y z
#
# Youngs Moduli (GPa) = 76.63531 95.77480 69.12562
#
# Poissons Ratio (x) = 0.34176 0.37214
# Poissons Ratio (y) = 0.27346 0.27656
# Poissons Ratio (z) = 0.41257 0.38317
#
# Static dielectric constant tensor:
#      x y z
#    x 1.773910 0.000000 0.000000 
#    y 0.000000 1.004500 0.000000 
#    z 0.000000 0.000000 0.396780 
# 
# From -- ./inp_files/44079.got.cif
#   From: 2010.05.17/outbox.cif.g08.bks.cpg/sg52_23_cif.got.tgz:44079.got - 2010.06.03 12:15:38.
