data_PCOD9410254
_publ_section_title
;
Structure prediction by ZEFSAII (Michael W. Deem and Ramdas Pophale) SiO2 
 PCOD9410254
Probable space group: P N N A
;
_chemical_formula_sum "Si O2"
_cell_formula_units_Z 60
_cell_length_a 16.037064
_cell_length_b 24.707625
_cell_length_c 7.639808
_cell_angle_alpha 90.000000
_cell_angle_beta 90.000000
_cell_angle_gamma 90.000000
_cell_volume 3027.180435
_symmetry_space_group_name_H-M "P N N A"
_symmetry_group_IT_number 52
_symmetry_cell_setting 'orthorhombic'
loop_
_space_group_symop_operation_xyz
x,y,z
1/2-x,-y,z
x,1/2-y,1/2-z
1/2-x,1/2+y,1/2-z
-x,-y,-z
1/2+x,y,-z
-x,1/2+y,1/2+z
1/2+x,1/2-y,1/2+z
loop_
_atom_site_type_symbol
_atom_site_label
_atom_site_fract_x
_atom_site_fract_y
_atom_site_fract_z
Si Si1 0.786734 0.397503 0.478611
Si Si2 0.434491 0.320414 0.393881
Si Si3 0.886276 0.646988 0.547316
Si Si4 0.910779 0.750000 0.750000
Si Si5 0.967027 0.534442 0.670048
Si Si6 0.557116 0.794471 0.485029
Si Si7 0.381755 0.405830 0.855514
Si Si8 0.179958 0.962676 0.314058
O O1 0.867741 0.364271 0.545703
O O2 0.700808 0.365479 0.454078
O O3 0.813348 0.418712 0.290583
O O4 0.778871 0.440057 0.636116
O O5 0.528946 0.333938 0.451736
O O6 0.403592 0.265001 0.487567
O O7 0.442226 0.315196 0.184641
O O8 0.864424 0.698005 0.672184
O O9 0.916564 0.589155 0.622233
O O10 0.969229 0.777972 0.602166
O O11 0.902959 0.495285 0.766490
O O12 0.000000 0.500000 0.500000
O O13 0.040683 0.556747 0.795173
O O14 0.593700 0.842022 0.363403
O O15 0.347152 0.418416 0.046424
O O16 0.250000 0.000000 0.399867
#
# Coordination Sequence:
#
# PCOD9410254 Si02
#       8
#     8   8   8   4   8   8   8   8
#     4  12  24  45  68  96 140 175 225 282 337 399
#     4  10  21  43  68  99 134 174 223 277 335 408
#     4  11  23  42  69  98 132 183 217 283 345 399
#     4  10  20  42  66  98 136 170 228 278 342 408
#     4  12  23  43  73  96 135 183 228 278 343 402
#     4  10  20  39  72  97 132 177 220 277 341 405
#     4  12  24  44  69 101 131 181 227 277 341 411
#     4  12  26  44  64  98 136 177 231 282 339 399
#
# _framework density 19.820423999999999
#
# number of rings (size 3 to 8) (size 9 to 14) (size 15 to 20)
#    0.000    0.800    6.667    1.200    0.000    2.667 
#    4.800    4.000    0.000    0.000    0.000    0.000 
#    0.000    0.000    0.000    0.000    0.000    0.000 
#
# Total GULP energy -334275.995919 kJ/mol
# GULP energy per Si atom -5571.266599 kJ/mol
# Density = 1.977531 g / cm^3
# Si number density = 19.820424 Si / 1000 Ang^3
#
#
#
# Elastic Constant Matrix: (Units=GPa)
#
#
# Indices 1 2 3 4 5 6 
#
# 1 91.1826 20.4790 12.7263 0.0000 0.0000 0.0000
# 2 20.4790 78.9460 34.3671 0.0000 0.0000 0.0000
# 3 12.7263 34.3671 60.3327 0.0000 0.0000 0.0000
# 4 0.0000 0.0000 0.0000 28.7150 0.0000 0.0000
# 5 0.0000 0.0000 0.0000 0.0000 9.4927 0.0000
# 6 0.0000 0.0000 0.0000 0.0000 0.0000 16.1778
#
#
#
# Elastic Compliance Matrix: (Units=1/GPa)
#
#
# Indices 1 2 3 4 5 6 
#
# 1 0.011689 -0.002605 -0.000982 0.000000 0.000000 0.000000
# 2 -0.002605 0.017424 -0.009376 0.000000 0.000000 0.000000
# 3 -0.000982 -0.009376 0.022123 0.000000 0.000000 0.000000
# 4 0.000000 0.000000 0.000000 0.034825 0.000000 0.000000
# 5 0.000000 0.000000 0.000000 0.000000 0.105344 0.000000
# 6 0.000000 0.000000 0.000000 0.000000 0.000000 0.061813
#
#
# Mechanical properties :
#
#
# Convention : Reuss Voigt Hill
#
# Bulk Modulus (GPa) = 39.50879 40.62292 40.06586
# Shear Modulus (GPa) = 17.38646 21.73635 19.56141
#
# Velocity S-wave (km/s) = 2.96497 3.31519 3.14496
# Velocity P-wave (km/s) = 5.63010 5.93245 5.78325
#
# Compressibility (1/GPa) = 0.02531082
#
# Stress axis : x y z
#
# Youngs Moduli (GPa) = 85.55009 57.39182 45.20272
#
# Poissons Ratio (x) = 0.14949 0.04438
# Poissons Ratio (y) = 0.22284 0.42381
# Poissons Ratio (z) = 0.08400 0.53809
#
# Static dielectric constant tensor:
#      x y z
#    x 1.662100 0.000000 0.000000 
#    y 0.000000 1.727650 0.000000 
#    z 0.000000 0.000000 1.719760 
# 
# From -- ./inp_files/10969.got.cif
#   From: 2010.05.17/outbox.cif.g08.bks.cpg/sg52_6_cif.got.tgz:10969.got - 2010.06.03 12:15:38.
