data_PCOD9410692
_publ_section_title
;
Structure prediction by ZEFSAII (Michael W. Deem and Ramdas Pophale) SiO2 
 PCOD9410692
Probable space group: P N N A
;
_chemical_formula_sum "Si O2"
_cell_formula_units_Z 28
_cell_length_a 16.979639
_cell_length_b 13.106524
_cell_length_c 4.840401
_cell_angle_alpha 90.000000
_cell_angle_beta 90.000000
_cell_angle_gamma 90.000000
_cell_volume 1077.202423
_symmetry_space_group_name_H-M "P N N A"
_symmetry_group_IT_number 52
_symmetry_cell_setting 'orthorhombic'
loop_
_space_group_symop_operation_xyz
x,y,z
1/2-x,-y,z
x,1/2-y,1/2-z
1/2-x,1/2+y,1/2-z
-x,-y,-z
1/2+x,y,-z
-x,1/2+y,1/2+z
1/2+x,1/2-y,1/2+z
loop_
_atom_site_type_symbol
_atom_site_label
_atom_site_fract_x
_atom_site_fract_y
_atom_site_fract_z
Si Si1 0.756580 0.119014 0.786226
Si Si2 0.972212 0.636535 0.717782
Si Si3 0.281770 0.750000 0.750000
Si Si4 0.427276 0.412540 0.212563
O O1 0.748136 0.178402 0.499574
O O2 0.849436 0.131330 0.853981
O O3 0.750000 0.000000 0.739216
O O4 0.698892 0.157200 0.030788
O O5 0.938422 0.750000 0.750000
O O6 0.999509 0.616601 0.407114
O O7 0.924099 0.536093 0.809726
O O8 0.049520 0.631811 0.915791
#
# Coordination Sequence:
#
# PCOD9410692 Si02
#       4
#     8   8   4   8
#     4  11  23  42  64  92 126 156 207 259 300 371
#     4  10  21  37  58  86 122 153 197 240 300 355
#     4  10  24  38  64  94 110 174 204 238 318 352
#     4  10  22  36  60  89 115 157 195 247 294 356
#
# _framework density 25.993259999999999
#
# number of rings (size 3 to 8) (size 9 to 14) (size 15 to 20)
#    0.000    1.714    0.000    3.429   12.000    0.000 
#    5.143    0.000    0.000    0.000    0.000    0.000 
#    0.000    0.000    0.000    0.000    0.000    0.000 
#
# Total GULP energy -156051.637812 kJ/mol
# GULP energy per Si atom -5573.272779 kJ/mol
# Density = 2.593410 g / cm^3
# Si number density = 25.993260 Si / 1000 Ang^3
#
#
#
# Elastic Constant Matrix: (Units=GPa)
#
#
# Indices 1 2 3 4 5 6 
#
# 1 58.2378 6.5020 19.0142 0.0000 0.0000 0.0000
# 2 6.5020 180.7136 32.8247 0.0000 0.0000 0.0000
# 3 19.0142 32.8247 160.5212 0.0000 0.0000 0.0000
# 4 0.0000 0.0000 0.0000 40.4216 0.0000 0.0000
# 5 0.0000 0.0000 0.0000 0.0000 15.7226 0.0000
# 6 0.0000 0.0000 0.0000 0.0000 0.0000 11.8000
#
#
#
# Elastic Compliance Matrix: (Units=1/GPa)
#
#
# Indices 1 2 3 4 5 6 
#
# 1 0.017874 -0.000268 -0.002062 0.000000 0.000000 0.000000
# 2 -0.000268 0.005751 -0.001144 0.000000 0.000000 0.000000
# 3 -0.002062 -0.001144 0.006708 0.000000 0.000000 0.000000
# 4 0.000000 0.000000 0.000000 0.024739 0.000000 0.000000
# 5 0.000000 0.000000 0.000000 0.000000 0.063603 0.000000
# 6 0.000000 0.000000 0.000000 0.000000 0.000000 0.084746
#
#
# Mechanical properties :
#
#
# Convention : Reuss Voigt Hill
#
# Bulk Modulus (GPa) = 42.76571 57.35047 50.05809
# Shear Modulus (GPa) = 22.91834 36.33095 29.62464
#
# Velocity S-wave (km/s) = 2.97257 3.74265 3.37961
# Velocity P-wave (km/s) = 5.31694 6.38655 5.87614
#
# Compressibility (1/GPa) = 0.02338322
#
# Stress axis : x y z
#
# Youngs Moduli (GPa) = 55.94623 173.87928 149.07615
#
# Poissons Ratio (x) = 0.04669 0.30745
# Poissons Ratio (y) = 0.01502 0.17058
# Poissons Ratio (z) = 0.11538 0.19896
#
# Static dielectric constant tensor:
#      x y z
#    x 2.132070 0.000000 0.000000 
#    y 0.000000 2.083550 0.000000 
#    z 0.000000 0.000000 1.919080 
# 
# From -- ./inp_files/4761.got.cif
#   From: 2010.05.17/outbox.cif.g08.bks.cpg/sg52_3_cif.got.tgz:4761.got - 2010.06.03 12:15:38.
