data_PCOD9410390
_publ_section_title
;
Structure prediction by ZEFSAII (Michael W. Deem and Ramdas Pophale) SiO2 
 PCOD9410390
Probable space group: P N N A
;
_chemical_formula_sum "Si O2"
_cell_formula_units_Z 48
_cell_length_a 9.650201
_cell_length_b 16.210318
_cell_length_c 14.017425
_cell_angle_alpha 90.000000
_cell_angle_beta 90.000000
_cell_angle_gamma 90.000000
_cell_volume 2192.785420
_symmetry_space_group_name_H-M "P N N A"
_symmetry_group_IT_number 52
_symmetry_cell_setting 'orthorhombic'
loop_
_space_group_symop_operation_xyz
x,y,z
1/2-x,-y,z
x,1/2-y,1/2-z
1/2-x,1/2+y,1/2-z
-x,-y,-z
1/2+x,y,-z
-x,1/2+y,1/2+z
1/2+x,1/2-y,1/2+z
loop_
_atom_site_type_symbol
_atom_site_label
_atom_site_fract_x
_atom_site_fract_y
_atom_site_fract_z
Si Si1 0.972026 0.301120 0.515913
Si Si2 0.959245 0.686039 0.833103
Si Si3 0.771761 0.403767 0.944633
Si Si4 0.727371 0.095452 0.021190
Si Si5 0.074828 0.151926 0.608819
Si Si6 0.227528 0.850323 0.762584
O O1 0.987209 0.240527 0.424060
O O2 0.070169 0.379328 0.502263
O O3 0.033262 0.248058 0.603023
O O4 0.820531 0.336670 0.533734
O O5 0.923296 0.750000 0.750000
O O6 0.825304 0.634112 0.862387
O O7 0.084384 0.629446 0.792757
O O8 0.750000 0.500000 0.954839
O O9 0.933989 0.389811 0.927182
O O10 0.703969 0.361149 0.037370
O O11 0.769862 0.115149 0.131032
O O12 0.750000 0.000000 0.998860
O O13 0.134536 0.121177 0.708189
O O14 0.228396 0.750000 0.750000
#
# Coordination Sequence:
#
# PCOD9410390 Si02
#       6
#     8   8   8   8   8   8
#     4  11  20  42  64  90 121 169 219 249 307 392
#     4  10  20  41  69  85 122 170 216 257 318 377
#     4  11  24  39  62  97 130 164 207 266 326 374
#     4  12  25  40  64  96 132 167 207 268 326 378
#     4  11  22  40  68  92 126 170 215 260 311 391
#     4  11  21  43  67  94 121 164 219 262 314 382
#
# _framework density 21.889968
#
# number of rings (size 3 to 8) (size 9 to 14) (size 15 to 20)
#    0.000    1.000    5.000    5.000    0.000    2.667 
#    3.000    0.833    0.000    0.000    0.000    0.000 
#    0.000    0.000    0.000    0.000    0.000    0.000 
#
# Total GULP energy -268114.325619 kJ/mol
# GULP energy per Si atom -5585.715117 kJ/mol
# Density = 2.184015 g / cm^3
# Si number density = 21.889968 Si / 1000 Ang^3
#
#
#
# Elastic Constant Matrix: (Units=GPa)
#
#
# Indices 1 2 3 4 5 6 
#
# 1 78.8445 -6.8972 5.8920 0.0000 0.0000 0.0000
# 2 -6.8972 63.3560 -11.8976 0.0000 0.0000 0.0000
# 3 5.8920 -11.8976 40.8836 0.0000 0.0000 0.0000
# 4 0.0000 0.0000 0.0000 7.1568 0.0000 0.0000
# 5 0.0000 0.0000 0.0000 0.0000 12.5994 0.0000
# 6 0.0000 0.0000 0.0000 0.0000 0.0000 -5.9341
#
#
#
# Elastic Compliance Matrix: (Units=1/GPa)
#
#
# Indices 1 2 3 4 5 6 
#
# 1 0.012895 0.001116 -0.001534 0.000000 0.000000 0.000000
# 2 0.001116 0.016793 0.004726 0.000000 0.000000 0.000000
# 3 -0.001534 0.004726 0.026056 0.000000 0.000000 0.000000
# 4 0.000000 0.000000 0.000000 0.139727 0.000000 0.000000
# 5 0.000000 0.000000 0.000000 0.000000 0.079369 0.000000
# 6 0.000000 0.000000 0.000000 0.000000 0.000000 -0.168518
#
#
# Mechanical properties :
#
#
# Convention : Reuss Voigt Hill
#
# Bulk Modulus (GPa) = 15.53743 17.47540 16.50641
# Shear Modulus (GPa) = 41.96090 15.83023 28.89556
#
# Velocity S-wave (km/s) = 4.38299 2.69210 3.63717
# Velocity P-wave (km/s) = 5.72080 4.20284 5.01953
#
# Compressibility (1/GPa) = 0.06436070
#
# Stress axis : x y z
#
# Youngs Moduli (GPa) = 77.54692 59.54926 38.37876
#
# Poissons Ratio (x) = -0.06645 0.05886
# Poissons Ratio (y) = -0.08653 -0.18138
# Poissons Ratio (z) = 0.11894 -0.28144
#
# Static dielectric constant tensor:
#      x y z
#    x 1.814510 0.000000 0.000000 
#    y 0.000000 1.795790 0.000000 
#    z 0.000000 0.000000 1.935250 
# 
# From -- ./inp_files/24722.got.cif
#   From: 2010.05.17/outbox.cif.g08.bks.cpg/sg52_13_cif.got.tgz:24722.got - 2010.06.03 12:15:38.
