data_PCOD9410868
_publ_section_title
;
Structure prediction by ZEFSAII (Michael W. Deem and Ramdas Pophale) SiO2 
 PCOD9410868
Probable space group: P N N A
;
_chemical_formula_sum "Si O2"
_cell_formula_units_Z 40
_cell_length_a 8.121491
_cell_length_b 13.451230
_cell_length_c 14.358695
_cell_angle_alpha 90.000000
_cell_angle_beta 90.000000
_cell_angle_gamma 90.000000
_cell_volume 1568.601900
_symmetry_space_group_name_H-M "P N N A"
_symmetry_group_IT_number 52
_symmetry_cell_setting 'orthorhombic'
loop_
_space_group_symop_operation_xyz
x,y,z
1/2-x,-y,z
x,1/2-y,1/2-z
1/2-x,1/2+y,1/2-z
-x,-y,-z
1/2+x,y,-z
-x,1/2+y,1/2+z
1/2+x,1/2-y,1/2+z
loop_
_atom_site_type_symbol
_atom_site_label
_atom_site_fract_x
_atom_site_fract_y
_atom_site_fract_z
Si Si1 0.960147 0.831795 0.359990
Si Si2 0.436763 0.965193 0.298812
Si Si3 0.652012 0.603441 0.038829
Si Si4 0.530134 0.904433 0.109040
Si Si5 0.081440 0.371045 0.586868
O O1 0.959221 0.930442 0.295776
O O2 0.091011 0.860263 0.439953
O O3 0.779444 0.827707 0.406988
O O4 0.988854 0.714667 0.345504
O O5 0.250000 0.000000 0.296684
O O6 0.496869 0.914946 0.394048
O O7 0.471922 0.889887 0.214447
O O8 0.750000 0.500000 0.030231
O O9 0.725770 0.889442 0.103470
O O10 0.491551 0.022665 0.096991
O O11 0.448007 0.846530 0.023150
#
# Coordination Sequence:
#
# PCOD9410868 Si02
#       5
#     8   8   8   8   8
#     4  11  21  40  69  97 133 170 226 272 332 397
#     4  11  24  41  66  99 132 173 221 278 339 400
#     4  10  21  38  65 100 133 172 210 274 342 396
#     4  10  24  43  67  92 131 178 220 267 336 400
#     4  10  23  42  67  90 128 175 223 264 332 397
#
# _framework density 25.500413999999999
#
# number of rings (size 3 to 8) (size 9 to 14) (size 15 to 20)
#    0.000    1.600    0.000    5.400   14.000    0.800 
#    0.000    3.000    8.800    0.000    0.000    0.000 
#    0.000    0.000    0.000    0.000    0.000    0.000 
#
# Total GULP energy -223696.906597 kJ/mol
# GULP energy per Si atom -5592.422665 kJ/mol
# Density = 2.544237 g / cm^3
# Si number density = 25.500414 Si / 1000 Ang^3
#
#
#
# Elastic Constant Matrix: (Units=GPa)
#
#
# Indices 1 2 3 4 5 6 
#
# 1 96.5335 -25.7388 8.9367 0.0000 0.0000 0.0000
# 2 -25.7388 99.8269 -3.2155 0.0000 0.0000 0.0000
# 3 8.9367 -3.2155 69.6744 0.0000 0.0000 0.0000
# 4 0.0000 0.0000 0.0000 48.6510 0.0000 0.0000
# 5 0.0000 0.0000 0.0000 0.0000 22.6048 0.0000
# 6 0.0000 0.0000 0.0000 0.0000 0.0000 14.0119
#
#
#
# Elastic Compliance Matrix: (Units=1/GPa)
#
#
# Indices 1 2 3 4 5 6 
#
# 1 0.011242 0.002856 -0.001310 0.000000 0.000000 0.000000
# 2 0.002856 0.010758 0.000130 0.000000 0.000000 0.000000
# 3 -0.001310 0.000130 0.014527 0.000000 0.000000 0.000000
# 4 0.000000 0.000000 0.000000 0.020555 0.000000 0.000000
# 5 0.000000 0.000000 0.000000 0.000000 0.044238 0.000000
# 6 0.000000 0.000000 0.000000 0.000000 0.000000 0.071368
#
#
# Mechanical properties :
#
#
# Convention : Reuss Voigt Hill
#
# Bulk Modulus (GPa) = 25.07571 25.11107 25.09339
# Shear Modulus (GPa) = 27.37810 36.12370 31.75090
#
# Velocity S-wave (km/s) = 3.28019 3.76785 3.53244
# Velocity P-wave (km/s) = 4.91945 5.36634 5.14775
#
# Compressibility (1/GPa) = 0.03987923
#
# Stress axis : x y z
#
# Youngs Moduli (GPa) = 88.95232 92.95414 68.83963
#
# Poissons Ratio (x) = -0.26551 0.09019
# Poissons Ratio (y) = -0.25408 -0.00896
# Poissons Ratio (z) = 0.11654 -0.01210
#
# Static dielectric constant tensor:
#      x y z
#    x 1.949440 0.000000 0.000000 
#    y 0.000000 2.165060 0.000000 
#    z 0.000000 0.000000 2.148650 
# 
# From -- ./inp_files/24408.got.cif
#   From: 2010.05.17/outbox.cif.g08.bks.cpg/sg52_13_cif.got.tgz:24408.got - 2010.06.03 12:15:38.
