data_PCOD9410217
_publ_section_title
;
Structure prediction by ZEFSAII (Michael W. Deem and Ramdas Pophale) SiO2 
 PCOD9410217
Probable space group: P N N A
;
_chemical_formula_sum "Si O2"
_cell_formula_units_Z 48
_cell_length_a 18.830565
_cell_length_b 11.727428
_cell_length_c 9.925205
_cell_angle_alpha 90.000000
_cell_angle_beta 90.000000
_cell_angle_gamma 90.000000
_cell_volume 2191.823666
_symmetry_space_group_name_H-M "P N N A"
_symmetry_group_IT_number 52
_symmetry_cell_setting 'orthorhombic'
loop_
_space_group_symop_operation_xyz
x,y,z
1/2-x,-y,z
x,1/2-y,1/2-z
1/2-x,1/2+y,1/2-z
-x,-y,-z
1/2+x,y,-z
-x,1/2+y,1/2+z
1/2+x,1/2-y,1/2+z
loop_
_atom_site_type_symbol
_atom_site_label
_atom_site_fract_x
_atom_site_fract_y
_atom_site_fract_z
Si Si1 0.147123 0.562447 0.647757
Si Si2 0.884916 0.665716 0.934425
Si Si3 0.754742 0.622670 0.792822
Si Si4 0.287306 0.818866 0.887972
Si Si5 0.139720 0.581128 0.970034
Si Si6 0.035958 0.726360 0.591342
O O1 0.207614 0.641618 0.581334
O O2 0.166108 0.432305 0.624158
O O3 0.157352 0.581237 0.809939
O O4 0.072144 0.602186 0.585634
O O5 0.841050 0.633797 0.801123
O O6 0.954751 0.741916 0.934428
O O7 0.823918 0.735947 0.008558
O O8 0.895791 0.542344 0.002885
O O9 0.750000 0.500000 0.714871
O O10 0.730268 0.750000 0.750000
O O11 0.706002 0.596161 0.927539
O O12 0.286524 0.750000 0.750000
O O13 0.083775 0.682965 0.989356
O O14 0.045791 0.750000 0.750000
#
# Coordination Sequence:
#
# PCOD9410217 Si02
#       6
#     8   8   8   8   8   8
#     4  10  21  36  61  92 121 157 195 263 312 355
#     4  11  21  36  62  88 119 163 199 245 305 377
#     4  10  22  40  63  90 119 160 210 258 304 370
#     4  11  20  35  61  92 121 148 207 259 305 361
#     4  10  20  39  65  86 115 160 211 246 301 367
#     4  10  21  38  59  86 122 160 202 244 309 371
#
# _framework density 21.899571000000002
#
# number of rings (size 3 to 8) (size 9 to 14) (size 15 to 20)
#    0.000    1.667    1.667    4.500    4.667    0.667 
#    6.000    0.833    7.333    0.000    0.000    0.000 
#    0.000    0.000    0.000    0.000    0.000    0.000 
#
# Total GULP energy -267411.259553 kJ/mol
# GULP energy per Si atom -5571.067907 kJ/mol
# Density = 2.184973 g / cm^3
# Si number density = 21.899571 Si / 1000 Ang^3
#
#
#
# Elastic Constant Matrix: (Units=GPa)
#
#
# Indices 1 2 3 4 5 6 
#
# 1 110.5335 44.3952 9.4409 0.0000 0.0000 0.0000
# 2 44.3952 137.6225 16.4492 0.0000 0.0000 0.0000
# 3 9.4409 16.4492 28.6835 0.0000 0.0000 0.0000
# 4 0.0000 0.0000 0.0000 60.6381 0.0000 0.0000
# 5 0.0000 0.0000 0.0000 0.0000 20.4750 0.0000
# 6 0.0000 0.0000 0.0000 0.0000 0.0000 40.6862
#
#
#
# Elastic Compliance Matrix: (Units=1/GPa)
#
#
# Indices 1 2 3 4 5 6 
#
# 1 0.010463 -0.003182 -0.001619 0.000000 0.000000 0.000000
# 2 -0.003182 0.008769 -0.003981 0.000000 0.000000 0.000000
# 3 -0.001619 -0.003981 0.037679 0.000000 0.000000 0.000000
# 4 0.000000 0.000000 0.000000 0.016491 0.000000 0.000000
# 5 0.000000 0.000000 0.000000 0.000000 0.048840 0.000000
# 6 0.000000 0.000000 0.000000 0.000000 0.000000 0.024578
#
#
# Mechanical properties :
#
#
# Convention : Reuss Voigt Hill
#
# Bulk Modulus (GPa) = 25.41512 46.37890 35.89701
# Shear Modulus (GPa) = 28.16886 38.13013 33.14949
#
# Velocity S-wave (km/s) = 3.59036 4.17722 3.89486
# Velocity P-wave (km/s) = 5.36825 6.67005 6.05424
#
# Compressibility (1/GPa) = 0.03934666
#
# Stress axis : x y z
#
# Youngs Moduli (GPa) = 95.57231 114.04453 26.53971
#
# Poissons Ratio (x) = 0.36286 0.04297
# Poissons Ratio (y) = 0.30409 0.10566
# Poissons Ratio (z) = 0.15475 0.45404
#
# Static dielectric constant tensor:
#      x y z
#    x 1.857840 0.000000 0.000000 
#    y 0.000000 1.844390 0.000000 
#    z 0.000000 0.000000 2.243890 
# 
# From -- ./inp_files/20613.got.cif
#   From: 2010.05.17/outbox.cif.g08.bks.cpg/sg52_11_cif.got.tgz:20613.got - 2010.06.03 12:15:38.
