data_PCOD9410022
_publ_section_title
;
Structure prediction by ZEFSAII (Michael W. Deem and Ramdas Pophale) SiO2 
 PCOD9410022
Probable space group: P N N A
;
_chemical_formula_sum "Si O2"
_cell_formula_units_Z 60
_cell_length_a 30.163131
_cell_length_b 19.079345
_cell_length_c 5.134926
_cell_angle_alpha 90.000000
_cell_angle_beta 90.000000
_cell_angle_gamma 90.000000
_cell_volume 2955.112852
_symmetry_space_group_name_H-M "P N N A"
_symmetry_group_IT_number 52
_symmetry_cell_setting 'orthorhombic'
loop_
_space_group_symop_operation_xyz
x,y,z
1/2-x,-y,z
x,1/2-y,1/2-z
1/2-x,1/2+y,1/2-z
-x,-y,-z
1/2+x,y,-z
-x,1/2+y,1/2+z
1/2+x,1/2-y,1/2+z
loop_
_atom_site_type_symbol
_atom_site_label
_atom_site_fract_x
_atom_site_fract_y
_atom_site_fract_z
Si Si1 0.306760 0.250000 0.250000
Si Si2 0.053993 0.457611 0.243202
Si Si3 0.509658 0.407934 0.250068
Si Si4 0.768409 0.329797 0.141194
Si Si5 0.207095 0.453905 0.743960
Si Si6 0.945255 0.296661 0.500694
Si Si7 0.845770 0.998678 0.753425
Si Si8 0.853835 0.358317 0.442796
O O1 0.276241 0.185958 0.337835
O O2 0.339396 0.281555 0.460003
O O3 0.045537 0.431943 0.536204
O O4 0.105089 0.472275 0.188862
O O5 0.027109 0.530698 0.223421
O O6 0.032595 0.404868 0.031786
O O7 0.484670 0.341873 0.373026
O O8 0.763607 0.250000 0.250000
O O9 0.726987 0.377134 0.205348
O O10 0.814411 0.367080 0.232842
O O11 0.250000 0.500000 0.671941
O O12 0.173391 0.458645 0.505495
O O13 0.185432 0.483891 0.007530
O O14 0.957757 0.250000 0.250000
O O15 0.905987 0.348211 0.393194
O O16 0.929898 0.250000 0.750000
O O17 0.849022 0.079491 0.848572
#
# Coordination Sequence:
#
# PCOD9410022 Si02
#       8
#     4   8   8   8   8   8   8   8
#     4  10  20  38  60  84 128 174 206 258 318 398
#     4  10  21  41  63  91 118 170 208 268 316 376
#     4  10  21  40  64  89 127 160 216 252 317 390
#     4  10  23  40  62  87 127 178 220 267 321 395
#     4  12  25  41  62  98 129 174 219 274 327 383
#     4  12  24  38  62  99 135 168 205 254 326 407
#     4  12  25  40  67  92 136 167 215 277 326 378
#     4  11  22  38  57  96 132 173 203 260 329 403
#
# _framework density 20.303792000000001
#
# number of rings (size 3 to 8) (size 9 to 14) (size 15 to 20)
#    0.000    1.067    3.333    4.000    3.733    0.000 
#    0.000    0.000    0.000    8.000    0.000    0.000 
#    0.000    0.000    0.000    0.000    0.000    0.000 
#
# Total GULP energy -334695.066105 kJ/mol
# GULP energy per Si atom -5578.251102 kJ/mol
# Density = 2.025758 g / cm^3
# Si number density = 20.303792 Si / 1000 Ang^3
#
#
#
# Elastic Constant Matrix: (Units=GPa)
#
#
# Indices 1 2 3 4 5 6 
#
# 1 69.3278 35.4617 25.8089 0.0000 0.0000 0.0000
# 2 35.4617 82.9190 24.6317 0.0000 0.0000 0.0000
# 3 25.8089 24.6317 99.5767 0.0000 0.0000 0.0000
# 4 0.0000 0.0000 0.0000 30.2057 0.0000 0.0000
# 5 0.0000 0.0000 0.0000 0.0000 16.4179 0.0000
# 6 0.0000 0.0000 0.0000 0.0000 0.0000 17.4402
#
#
#
# Elastic Compliance Matrix: (Units=1/GPa)
#
#
# Indices 1 2 3 4 5 6 
#
# 1 0.019367 -0.007330 -0.003207 0.000000 0.000000 0.000000
# 2 -0.007330 0.015791 -0.002006 0.000000 0.000000 0.000000
# 3 -0.003207 -0.002006 0.011370 0.000000 0.000000 0.000000
# 4 0.000000 0.000000 0.000000 0.033106 0.000000 0.000000
# 5 0.000000 0.000000 0.000000 0.000000 0.060909 0.000000
# 6 0.000000 0.000000 0.000000 0.000000 0.000000 0.057339
#
#
# Mechanical properties :
#
#
# Convention : Reuss Voigt Hill
#
# Bulk Modulus (GPa) = 46.63712 47.06979 46.85346
# Shear Modulus (GPa) = 21.72819 23.87416 22.80117
#
# Velocity S-wave (km/s) = 3.27487 3.43278 3.35476
# Velocity P-wave (km/s) = 6.10895 6.24060 6.17512
#
# Compressibility (1/GPa) = 0.02144215
#
# Stress axis : x y z
#
# Youngs Moduli (GPa) = 51.63313 63.32793 87.95185
#
# Poissons Ratio (x) = 0.46421 0.28202
# Poissons Ratio (y) = 0.37848 0.17645
# Poissons Ratio (z) = 0.16556 0.12705
#
# Static dielectric constant tensor:
#      x y z
#    x 1.718000 0.000000 0.000000 
#    y 0.000000 1.751010 0.000000 
#    z 0.000000 0.000000 1.829630 
# 
# From -- ./inp_files/5939.got.cif
#   From: 2010.05.17/outbox.cif.g08.bks.cpg/sg52_3_cif.got.tgz:5939.got - 2010.06.03 12:15:38.
