data_PCOD9410222
_publ_section_title
;
Structure prediction by ZEFSAII (Michael W. Deem and Ramdas Pophale) SiO2 
 PCOD9410222
Probable space group: P N N A
;
_chemical_formula_sum "Si O2"
_cell_formula_units_Z 28
_cell_length_a 9.692204
_cell_length_b 6.917565
_cell_length_c 22.813746
_cell_angle_alpha 90.000000
_cell_angle_beta 90.000000
_cell_angle_gamma 90.000000
_cell_volume 1529.580707
_symmetry_space_group_name_H-M "P N N A"
_symmetry_group_IT_number 52
_symmetry_cell_setting 'orthorhombic'
loop_
_space_group_symop_operation_xyz
x,y,z
1/2-x,-y,z
x,1/2-y,1/2-z
1/2-x,1/2+y,1/2-z
-x,-y,-z
1/2+x,y,-z
-x,1/2+y,1/2+z
1/2+x,1/2-y,1/2+z
loop_
_atom_site_type_symbol
_atom_site_label
_atom_site_fract_x
_atom_site_fract_y
_atom_site_fract_z
Si Si1 0.405074 0.055991 0.903950
Si Si2 0.750000 0.000000 0.601967
Si Si3 0.370519 0.170843 0.024077
Si Si4 0.367448 0.669120 0.315333
O O1 0.494671 0.092069 0.846527
O O2 0.250000 0.000000 0.888622
O O3 0.491929 0.904055 0.943410
O O4 0.391598 0.216935 0.955331
O O5 0.667872 0.859690 0.559312
O O6 0.826588 0.850121 0.644277
O O7 0.250000 0.000000 0.028999
O O8 0.250000 0.500000 0.316756
O O9 0.384654 0.750000 0.250000
#
# Coordination Sequence:
#
# PCOD9410222 Si02
#       4
#     8   4   8   8
#     4  10  21  41  61  92 136 161 194 267 324 362
#     4  12  20  38  70  94 120 160 224 256 294 376
#     4  10  20  39  65  92 128 168 206 255 309 376
#     4  12  24  43  66  92 120 170 222 257 299 375
#
# _framework density 18.305669999999999
#
# number of rings (size 3 to 8) (size 9 to 14) (size 15 to 20)
#    0.000    1.143    7.143    0.000    0.000    1.143 
#    0.000    4.286    0.000    0.000    0.000    0.000 
#    0.000    0.000    0.000    0.000    0.000    0.000 
#
# Total GULP energy -155942.848440 kJ/mol
# GULP energy per Si atom -5569.387444 kJ/mol
# Density = 1.826401 g / cm^3
# Si number density = 18.305670 Si / 1000 Ang^3
#
#
#
# Elastic Constant Matrix: (Units=GPa)
#
#
# Indices 1 2 3 4 5 6 
#
# 1 162.5583 48.0346 78.8007 0.0000 0.0000 0.0000
# 2 48.0346 72.4133 54.5883 0.0000 0.0000 0.0000
# 3 78.8007 54.5883 169.3144 0.0000 0.0000 0.0000
# 4 0.0000 0.0000 0.0000 25.7498 0.0000 0.0000
# 5 0.0000 0.0000 0.0000 0.0000 65.8124 0.0000
# 6 0.0000 0.0000 0.0000 0.0000 0.0000 8.3182
#
#
#
# Elastic Compliance Matrix: (Units=1/GPa)
#
#
# Indices 1 2 3 4 5 6 
#
# 1 0.008581 -0.003542 -0.002851 0.000000 0.000000 0.000000
# 2 -0.003542 0.019706 -0.004705 0.000000 0.000000 0.000000
# 3 -0.002851 -0.004705 0.008750 0.000000 0.000000 0.000000
# 4 0.000000 0.000000 0.000000 0.038835 0.000000 0.000000
# 5 0.000000 0.000000 0.000000 0.000000 0.015195 0.000000
# 6 0.000000 0.000000 0.000000 0.000000 0.000000 0.120219
#
#
# Mechanical properties :
#
#
# Convention : Reuss Voigt Hill
#
# Bulk Modulus (GPa) = 67.38663 85.23703 76.31183
# Shear Modulus (GPa) = 20.97059 34.83357 27.90208
#
# Velocity S-wave (km/s) = 3.38831 4.36694 3.90838
# Velocity P-wave (km/s) = 7.22491 8.49065 7.88323
#
# Compressibility (1/GPa) = 0.01483974
#
# Stress axis : x y z
#
# Youngs Moduli (GPa) = 116.54192 50.74592 114.28438
#
# Poissons Ratio (x) = 0.17976 0.32587
# Poissons Ratio (y) = 0.41283 0.53768
# Poissons Ratio (z) = 0.33231 0.23875
#
# Static dielectric constant tensor:
#      x y z
#    x 1.691530 0.000000 0.000000 
#    y 0.000000 1.614720 0.000000 
#    z 0.000000 0.000000 1.654210 
# 
# From -- ./inp_files/39100.got.cif
#   From: 2010.05.17/outbox.cif.g08.bks.cpg/sg52_20_cif.got.tgz:39100.got - 2010.06.03 12:15:38.
