data_PCOD9410111
_publ_section_title
;
Structure prediction by ZEFSAII (Michael W. Deem and Ramdas Pophale) SiO2 
 PCOD9410111
Probable space group: P N N A
;
_chemical_formula_sum "Si O2"
_cell_formula_units_Z 48
_cell_length_a 21.340692
_cell_length_b 14.694480
_cell_length_c 7.900439
_cell_angle_alpha 90.000000
_cell_angle_beta 90.000000
_cell_angle_gamma 90.000000
_cell_volume 2477.501603
_symmetry_space_group_name_H-M "P N N A"
_symmetry_group_IT_number 52
_symmetry_cell_setting 'orthorhombic'
loop_
_space_group_symop_operation_xyz
x,y,z
1/2-x,-y,z
x,1/2-y,1/2-z
1/2-x,1/2+y,1/2-z
-x,-y,-z
1/2+x,y,-z
-x,1/2+y,1/2+z
1/2+x,1/2-y,1/2+z
loop_
_atom_site_type_symbol
_atom_site_label
_atom_site_fract_x
_atom_site_fract_y
_atom_site_fract_z
Si Si1 0.982717 0.603915 0.047190
Si Si2 0.806794 0.750000 0.750000
Si Si3 0.629085 0.428672 0.813372
Si Si4 0.911343 0.248323 0.543484
Si Si5 0.725906 0.698260 0.081240
Si Si6 0.539157 0.933552 0.886859
Si Si7 0.250000 0.000000 0.505665
O O1 0.034346 0.677685 0.988976
O O2 0.991039 0.608591 0.249024
O O3 0.915397 0.613138 0.961068
O O4 0.000000 0.500000 0.000000
O O5 0.847432 0.659770 0.712369
O O6 0.764977 0.773323 0.585710
O O7 0.590642 0.505017 0.710539
O O8 0.689381 0.478021 0.891961
O O9 0.904213 0.250000 0.750000
O O10 0.846309 0.219976 0.460890
O O11 0.930611 0.351892 0.507255
O O12 0.745668 0.750000 0.250000
O O13 0.735279 0.590886 0.107848
O O14 0.500000 0.000000 0.000000
#
# Coordination Sequence:
#
# PCOD9410111 Si02
#       7
#     8   4   8   8   8   8   4
#     4   9  19  37  60  85 121 165 203 256 328 383
#     4  10  24  44  64  90 138 172 222 268 328 400
#     4  10  22  40  66  85 128 180 209 263 341 390
#     4  10  20  38  65  89 130 165 210 271 327 387
#     4  11  23  43  67  99 124 176 226 267 325 396
#     4  10  22  37  59  99 125 160 216 274 326 387
#     4  10  22  44  66  90 134 172 218 268 324 398
#
# _framework density 19.374355999999999
#
# number of rings (size 3 to 8) (size 9 to 14) (size 15 to 20)
#    0.000    2.000    0.833    3.000    4.667    4.000 
#    9.000    0.833    0.000    0.000    0.000    0.000 
#    0.000    0.000    0.000    0.000    0.000    0.000 
#
# Total GULP energy -267740.807671 kJ/mol
# GULP energy per Si atom -5577.933493 kJ/mol
# Density = 1.933026 g / cm^3
# Si number density = 19.374356 Si / 1000 Ang^3
#
#
#
# Elastic Constant Matrix: (Units=GPa)
#
#
# Indices 1 2 3 4 5 6 
#
# 1 110.6480 52.6107 32.6905 0.0000 0.0000 0.0000
# 2 52.6107 165.8606 38.0426 0.0000 0.0000 0.0000
# 3 32.6905 38.0426 52.6378 0.0000 0.0000 0.0000
# 4 0.0000 0.0000 0.0000 17.1064 0.0000 0.0000
# 5 0.0000 0.0000 0.0000 0.0000 7.3934 0.0000
# 6 0.0000 0.0000 0.0000 0.0000 0.0000 38.0950
#
#
#
# Elastic Compliance Matrix: (Units=1/GPa)
#
#
# Indices 1 2 3 4 5 6 
#
# 1 0.011866 -0.002486 -0.005573 0.000000 0.000000 0.000000
# 2 -0.002486 0.007748 -0.004056 0.000000 0.000000 0.000000
# 3 -0.005573 -0.004056 0.025390 0.000000 0.000000 0.000000
# 4 0.000000 0.000000 0.000000 0.058458 0.000000 0.000000
# 5 0.000000 0.000000 0.000000 0.000000 0.135257 0.000000
# 6 0.000000 0.000000 0.000000 0.000000 0.000000 0.026250
#
#
# Mechanical properties :
#
#
# Convention : Reuss Voigt Hill
#
# Bulk Modulus (GPa) = 48.13454 63.98154 56.05804
# Shear Modulus (GPa) = 16.88492 26.23913 21.56203
#
# Velocity S-wave (km/s) = 2.95534 3.68410 3.33966
# Velocity P-wave (km/s) = 6.04514 7.15488 6.62330
#
# Compressibility (1/GPa) = 0.02077510
#
# Stress axis : x y z
#
# Youngs Moduli (GPa) = 84.27413 129.06755 39.38554
#
# Poissons Ratio (x) = 0.32082 0.21949
# Poissons Ratio (y) = 0.20948 0.15974
# Poissons Ratio (z) = 0.46965 0.52348
#
# Static dielectric constant tensor:
#      x y z
#    x 1.692270 0.000000 0.000000 
#    y 0.000000 1.706110 0.000000 
#    z 0.000000 0.000000 1.693780 
# 
# From -- ./inp_files/12128.got.cif
#   From: 2010.05.17/outbox.cif.g08.bks.cpg/sg52_7_cif.got.tgz:12128.got - 2010.06.03 12:15:38.
