data_PCOD9410906
_publ_section_title
;
Structure prediction by ZEFSAII (Michael W. Deem and Ramdas Pophale) SiO2 
 PCOD9410906
Probable space group: P N N A
;
_chemical_formula_sum "Si O2"
_cell_formula_units_Z 40
_cell_length_a 16.682656
_cell_length_b 5.529928
_cell_length_c 18.793516
_cell_angle_alpha 90.000000
_cell_angle_beta 90.000000
_cell_angle_gamma 90.000000
_cell_volume 1733.774893
_symmetry_space_group_name_H-M "P N N A"
_symmetry_group_IT_number 52
_symmetry_cell_setting 'orthorhombic'
loop_
_space_group_symop_operation_xyz
x,y,z
1/2-x,-y,z
x,1/2-y,1/2-z
1/2-x,1/2+y,1/2-z
-x,-y,-z
1/2+x,y,-z
-x,1/2+y,1/2+z
1/2+x,1/2-y,1/2+z
loop_
_atom_site_type_symbol
_atom_site_label
_atom_site_fract_x
_atom_site_fract_y
_atom_site_fract_z
Si Si1 0.552676 0.305975 0.170092
Si Si2 0.359163 0.294075 0.168859
Si Si3 0.337522 0.954134 0.943374
Si Si4 0.965300 0.317288 0.059841
Si Si5 0.142562 0.303860 0.408491
O O1 0.578759 0.250000 0.250000
O O2 0.456538 0.280717 0.168481
O O3 0.602025 0.142567 0.115709
O O4 0.565120 0.566262 0.133659
O O5 0.332317 0.250000 0.250000
O O6 0.340310 0.561517 0.137421
O O7 0.331857 0.059004 0.125207
O O8 0.250000 0.000000 0.913187
O O9 0.389148 0.180606 0.972095
O O10 0.324879 0.782085 0.011375
O O11 0.045900 0.177593 0.081068
O O12 0.000000 0.500000 0.000000
#
# Coordination Sequence:
#
# PCOD9410906 Si02
#       5
#     8   8   8   8   8
#     4  10  22  40  61  94 133 178 224 276 337 408
#     4  10  21  38  69 103 131 162 222 286 342 398
#     4  12  25  41  62  97 135 181 228 278 338 416
#     4  11  21  41  69  91 128 173 228 287 334 399
#     4  11  21  39  68  97 131 172 221 278 336 400
#
# _framework density 23.071047
#
# number of rings (size 3 to 8) (size 9 to 14) (size 15 to 20)
#    0.000    1.200    4.000    3.600    0.000    1.600 
#    3.600    0.000    0.000    2.400    0.000    0.000 
#    0.000    0.000    0.000    0.000    0.000    0.000 
#
# Total GULP energy -223397.197722 kJ/mol
# GULP energy per Si atom -5584.929943 kJ/mol
# Density = 2.301854 g / cm^3
# Si number density = 23.071047 Si / 1000 Ang^3
#
#
#
# Elastic Constant Matrix: (Units=GPa)
#
#
# Indices 1 2 3 4 5 6 
#
# 1 73.7682 -0.6834 -12.8598 0.0000 0.0000 0.0000
# 2 -0.6834 94.0324 42.1038 0.0000 0.0000 0.0000
# 3 -12.8598 42.1038 157.5742 0.0000 0.0000 0.0000
# 4 0.0000 0.0000 0.0000 33.6386 0.0000 0.0000
# 5 0.0000 0.0000 0.0000 0.0000 8.7156 0.0000
# 6 0.0000 0.0000 0.0000 0.0000 0.0000 3.0379
#
#
#
# Elastic Compliance Matrix: (Units=1/GPa)
#
#
# Indices 1 2 3 4 5 6 
#
# 1 0.013769 -0.000458 0.001246 0.000000 0.000000 0.000000
# 2 -0.000458 0.012095 -0.003269 0.000000 0.000000 0.000000
# 3 0.001246 -0.003269 0.007321 0.000000 0.000000 0.000000
# 4 0.000000 0.000000 0.000000 0.029728 0.000000 0.000000
# 5 0.000000 0.000000 0.000000 0.000000 0.114737 0.000000
# 6 0.000000 0.000000 0.000000 0.000000 0.000000 0.329170
#
#
# Mechanical properties :
#
#
# Convention : Reuss Voigt Hill
#
# Bulk Modulus (GPa) = 35.43147 42.49957 38.96552
# Shear Modulus (GPa) = 9.59344 28.86605 19.22974
#
# Velocity S-wave (km/s) = 2.04138 3.54104 2.89017
# Velocity P-wave (km/s) = 4.57681 5.93126 5.29750
#
# Compressibility (1/GPa) = 0.02822350
#
# Stress axis : x y z
#
# Youngs Moduli (GPa) = 72.62718 82.67811 136.58538
#
# Poissons Ratio (x) = 0.03785 -0.17019
# Poissons Ratio (y) = 0.03325 0.44652
# Poissons Ratio (z) = -0.09050 0.27029
#
# Static dielectric constant tensor:
#      x y z
#    x 1.839110 0.000000 0.000000 
#    y 0.000000 2.044870 0.000000 
#    z 0.000000 0.000000 1.774880 
# 
# From -- ./inp_files/33445.got.cif
#   From: 2010.05.17/outbox.cif.g08.bks.cpg/sg52_17_cif.got.tgz:33445.got - 2010.06.03 12:15:38.
