data_PCOD9410410
_publ_section_title
;
Structure prediction by ZEFSAII (Michael W. Deem and Ramdas Pophale) SiO2 
 PCOD9410410
Probable space group: P N N A
;
_chemical_formula_sum "Si O2"
_cell_formula_units_Z 48
_cell_length_a 10.002351
_cell_length_b 16.683009
_cell_length_c 15.483455
_cell_angle_alpha 90.000000
_cell_angle_beta 90.000000
_cell_angle_gamma 90.000000
_cell_volume 2583.713479
_symmetry_space_group_name_H-M "P N N A"
_symmetry_group_IT_number 52
_symmetry_cell_setting 'orthorhombic'
loop_
_space_group_symop_operation_xyz
x,y,z
1/2-x,-y,z
x,1/2-y,1/2-z
1/2-x,1/2+y,1/2-z
-x,-y,-z
1/2+x,y,-z
-x,1/2+y,1/2+z
1/2+x,1/2-y,1/2+z
loop_
_atom_site_type_symbol
_atom_site_label
_atom_site_fract_x
_atom_site_fract_y
_atom_site_fract_z
Si Si1 0.117464 0.794857 0.974757
Si Si2 0.099098 0.487278 0.254323
Si Si3 0.575157 0.657903 0.283185
Si Si4 0.378971 0.622267 0.748140
Si Si5 0.123745 0.962799 0.047375
Si Si6 0.600766 0.251334 0.399433
O O1 0.254819 0.754456 0.945247
O O2 0.059163 0.833108 0.886510
O O3 0.143941 0.868784 0.038408
O O4 0.010985 0.742699 0.027138
O O5 0.250000 0.500000 0.216614
O O6 0.042696 0.397036 0.245178
O O7 0.115613 0.506453 0.355632
O O8 0.977004 0.548045 0.232015
O O9 0.580870 0.750000 0.250000
O O10 0.717545 0.614839 0.261980
O O11 0.415776 0.666772 0.657411
O O12 0.400805 0.683207 0.827245
O O13 0.250000 0.000000 0.999830
O O14 0.000000 0.000000 0.000000
#
# Coordination Sequence:
#
# PCOD9410410 Si02
#       6
#     8   8   8   8   8   8
#     4  11  20  35  58  87 124 156 199 249 301 366
#     4  11  24  38  56  91 126 160 200 257 314 361
#     4  11  22  40  62  89 121 165 213 246 301 377
#     4  10  20  42  60  86 123 164 212 241 299 376
#     4  11  21  30  49  83 123 154 184 234 304 367
#     4  10  21  36  61  89 121 161 203 247 305 362
#
# _framework density 18.577912000000001
#
# number of rings (size 3 to 8) (size 9 to 14) (size 15 to 20)
#    0.000    1.333    6.667    1.500    4.667    0.000 
#    6.000    0.000    0.000    1.000    0.000    0.000 
#    0.000    0.000    0.000    0.000    0.000    0.000 
#
# Total GULP energy -267346.977262 kJ/mol
# GULP energy per Si atom -5569.728693 kJ/mol
# Density = 1.853563 g / cm^3
# Si number density = 18.577912 Si / 1000 Ang^3
#
#
#
# Elastic Constant Matrix: (Units=GPa)
#
#
# Indices 1 2 3 4 5 6 
#
# 1 134.2050 51.8616 40.8334 0.0000 0.0000 0.0000
# 2 51.8616 64.4882 10.1597 0.0000 0.0000 0.0000
# 3 40.8334 10.1597 43.0261 0.0000 0.0000 0.0000
# 4 0.0000 0.0000 0.0000 14.3512 0.0000 0.0000
# 5 0.0000 0.0000 0.0000 0.0000 27.2226 0.0000
# 6 0.0000 0.0000 0.0000 0.0000 0.0000 24.9324
#
#
#
# Elastic Compliance Matrix: (Units=1/GPa)
#
#
# Indices 1 2 3 4 5 6 
#
# 1 0.014983 -0.010188 -0.011813 0.000000 0.000000 0.000000
# 2 -0.010188 0.023034 0.004230 0.000000 0.000000 0.000000
# 3 -0.011813 0.004230 0.033454 0.000000 0.000000 0.000000
# 4 0.000000 0.000000 0.000000 0.069680 0.000000 0.000000
# 5 0.000000 0.000000 0.000000 0.000000 0.036734 0.000000
# 6 0.000000 0.000000 0.000000 0.000000 0.000000 0.040108
#
#
# Mechanical properties :
#
#
# Convention : Reuss Voigt Hill
#
# Bulk Modulus (GPa) = 27.83385 49.71429 38.77407
# Shear Modulus (GPa) = 18.83151 22.55888 20.69520
#
# Velocity S-wave (km/s) = 3.18724 3.48844 3.34124
# Velocity P-wave (km/s) = 5.34410 6.56076 5.98344
#
# Compressibility (1/GPa) = 0.03592748
#
# Stress axis : x y z
#
# Youngs Moduli (GPa) = 66.74380 43.41494 29.89155
#
# Poissons Ratio (x) = 0.44231 0.35312
# Poissons Ratio (y) = 0.67999 -0.12644
# Poissons Ratio (z) = 0.78847 -0.18364
#
# Static dielectric constant tensor:
#      x y z
#    x 1.720760 0.000000 0.000000 
#    y 0.000000 1.674120 0.000000 
#    z 0.000000 0.000000 1.549150 
# 
# From -- ./inp_files/24747.got.cif
#   From: 2010.05.17/outbox.cif.g08.bks.cpg/sg52_13_cif.got.tgz:24747.got - 2010.06.03 12:15:38.
