data_PCOD9410550
_publ_section_title
;
Structure prediction by ZEFSAII (Michael W. Deem and Ramdas Pophale) SiO2 
 PCOD9410550
Probable space group: P N N A
;
_chemical_formula_sum "Si O2"
_cell_formula_units_Z 40
_cell_length_a 8.423028
_cell_length_b 7.796766
_cell_length_c 22.846841
_cell_angle_alpha 90.000000
_cell_angle_beta 90.000000
_cell_angle_gamma 90.000000
_cell_volume 1500.406386
_symmetry_space_group_name_H-M "P N N A"
_symmetry_group_IT_number 52
_symmetry_cell_setting 'orthorhombic'
loop_
_space_group_symop_operation_xyz
x,y,z
1/2-x,-y,z
x,1/2-y,1/2-z
1/2-x,1/2+y,1/2-z
-x,-y,-z
1/2+x,y,-z
-x,1/2+y,1/2+z
1/2+x,1/2-y,1/2+z
loop_
_atom_site_type_symbol
_atom_site_label
_atom_site_fract_x
_atom_site_fract_y
_atom_site_fract_z
Si Si1 0.967763 0.806124 0.841086
Si Si2 0.750000 0.500000 0.287169
Si Si3 0.250000 0.000000 0.491785
Si Si4 0.988137 0.724389 0.060743
Si Si5 0.979579 0.907741 0.317104
Si Si6 0.250000 0.000000 0.251009
Si Si7 0.750000 0.500000 0.568497
O O1 0.873921 0.898471 0.788048
O O2 0.855522 0.862024 0.894824
O O3 0.140009 0.888876 0.829806
O O4 0.005494 0.604556 0.839311
O O5 0.864493 0.587734 0.238439
O O6 0.108667 0.930259 0.452547
O O7 0.327111 0.841255 0.528892
O O8 0.950208 0.721020 0.129834
O O9 0.099911 0.887201 0.043232
O O10 0.154746 0.874399 0.293654
#
# Coordination Sequence:
#
# PCOD9410550 Si02
#       7
#     8   4   4   8   8   4   4
#     4  10  22  37  56  91 132 172 218 267 316 387
#     4  10  21  34  58  94 134 176 222 272 319 376
#     4  10  24  46  69  94 124 160 217 282 358 434
#     4  11  24  43  68  95 125 167 217 281 351 423
#     4  11  21  38  61  86 125 171 216 263 326 398
#     4   9  17  32  56  83 118 165 212 258 307 371
#     4  11  24  42  67  97 130 171 221 272 340 417
#
# _framework density 26.659443
#
# number of rings (size 3 to 8) (size 9 to 14) (size 15 to 20)
#    0.000    1.600    0.000    6.000    0.000    7.200 
#    0.000   10.000    0.000    0.000    0.000    0.000 
#    0.000    0.000    0.000    0.000    0.000    0.000 
#
# Total GULP energy -223340.848777 kJ/mol
# GULP energy per Si atom -5583.521219 kJ/mol
# Density = 2.659876 g / cm^3
# Si number density = 26.659443 Si / 1000 Ang^3
#
#
#
# Elastic Constant Matrix: (Units=GPa)
#
#
# Indices 1 2 3 4 5 6 
#
# 1 164.1170 51.7115 36.0752 0.0000 0.0000 0.0000
# 2 51.7115 145.1734 23.5550 0.0000 0.0000 0.0000
# 3 36.0752 23.5550 55.7134 0.0000 0.0000 0.0000
# 4 0.0000 0.0000 0.0000 18.3224 0.0000 0.0000
# 5 0.0000 0.0000 0.0000 0.0000 20.1489 0.0000
# 6 0.0000 0.0000 0.0000 0.0000 0.0000 53.9513
#
#
#
# Elastic Compliance Matrix: (Units=1/GPa)
#
#
# Indices 1 2 3 4 5 6 
#
# 1 0.007638 -0.002059 -0.004075 0.000000 0.000000 0.000000
# 2 -0.002059 0.007951 -0.002028 0.000000 0.000000 0.000000
# 3 -0.004075 -0.002028 0.021445 0.000000 0.000000 0.000000
# 4 0.000000 0.000000 0.000000 0.054578 0.000000 0.000000
# 5 0.000000 0.000000 0.000000 0.000000 0.049630 0.000000
# 6 0.000000 0.000000 0.000000 0.000000 0.000000 0.018535
#
#
# Mechanical properties :
#
#
# Convention : Reuss Voigt Hill
#
# Bulk Modulus (GPa) = 48.28821 65.29856 56.79338
# Shear Modulus (GPa) = 27.32163 35.39535 31.35849
#
# Velocity S-wave (km/s) = 3.20478 3.64769 3.43339
# Velocity P-wave (km/s) = 5.64327 6.50290 6.08827
#
# Compressibility (1/GPa) = 0.02070899
#
# Stress axis : x y z
#
# Youngs Moduli (GPa) = 130.92698 125.77089 46.63097
#
# Poissons Ratio (x) = 0.25902 0.19002
# Poissons Ratio (y) = 0.26964 0.09457
# Poissons Ratio (z) = 0.53351 0.25507
#
# Static dielectric constant tensor:
#      x y z
#    x 2.131370 0.000000 0.000000 
#    y 0.000000 2.201720 0.000000 
#    z 0.000000 0.000000 2.129000 
# 
# From -- ./inp_files/39304.got.cif
#   From: 2010.05.17/outbox.cif.g08.bks.cpg/sg52_20_cif.got.tgz:39304.got - 2010.06.03 12:15:38.
