data_PCOD9410086
_publ_section_title
;
Structure prediction by ZEFSAII (Michael W. Deem and Ramdas Pophale) SiO2 
 PCOD9410086
Probable space group: P N N A
;
_chemical_formula_sum "Si O2"
_cell_formula_units_Z 56
_cell_length_a 14.843102
_cell_length_b 5.254800
_cell_length_c 27.454564
_cell_angle_alpha 90.000000
_cell_angle_beta 90.000000
_cell_angle_gamma 90.000000
_cell_volume 2141.388245
_symmetry_space_group_name_H-M "P N N A"
_symmetry_group_IT_number 52
_symmetry_cell_setting 'orthorhombic'
loop_
_space_group_symop_operation_xyz
x,y,z
1/2-x,-y,z
x,1/2-y,1/2-z
1/2-x,1/2+y,1/2-z
-x,-y,-z
1/2+x,y,-z
-x,1/2+y,1/2+z
1/2+x,1/2-y,1/2+z
loop_
_atom_site_type_symbol
_atom_site_label
_atom_site_fract_x
_atom_site_fract_y
_atom_site_fract_z
Si Si1 0.322576 0.204897 0.903249
Si Si2 0.878890 0.305407 0.302035
Si Si3 0.832649 0.159463 0.937762
Si Si4 0.853688 0.946802 0.491009
Si Si5 0.696850 0.746959 0.825563
Si Si6 0.510318 0.314317 0.174313
Si Si7 0.486181 0.871730 0.931022
O O1 0.309939 0.244228 0.846393
O O2 0.333601 0.443970 0.937706
O O3 0.250000 0.000000 0.922428
O O4 0.417929 0.076765 0.909396
O O5 0.835853 0.250000 0.250000
O O6 0.924206 0.584936 0.307718
O O7 0.954957 0.086168 0.307525
O O8 0.802007 0.255319 0.885427
O O9 0.917726 0.976417 0.929079
O O10 0.750000 0.000000 0.960744
O O11 0.893852 0.352075 0.970580
O O12 0.750000 0.000000 0.513710
O O13 0.925444 0.729905 0.477063
O O14 0.750000 0.500000 0.808535
O O15 0.592519 0.742984 0.810888
O O16 0.750000 0.000000 0.811284
O O17 0.508549 0.321711 0.115018
#
# Coordination Sequence:
#
# PCOD9410086 Si02
#       7
#     8   8   8   8   8   8   8
#     4  11  23  42  64  92 126 167 215 269 330 403
#     4  11  23  42  67  95 127 166 212 270 333 402
#     4  10  23  40  58  92 130 173 225 275 319 381
#     4  12  22  39  61  89 127 169 220 272 331 382
#     4  10  20  38  63  93 130 174 219 269 327 388
#     4  10  21  40  66  95 127 168 220 267 327 402
#     4  10  22  41  63  88 123 175 219 265 329 393
#
# _framework density 26.151261000000002
#
# number of rings (size 3 to 8) (size 9 to 14) (size 15 to 20)
#    0.000    1.429    2.857    2.571    0.000    1.714 
#    2.571    3.571    0.000    8.571    0.000    0.000 
#    0.000    0.000    0.000    0.000    0.000    0.000 
#
# Total GULP energy -312188.866161 kJ/mol
# GULP energy per Si atom -5574.801181 kJ/mol
# Density = 2.609174 g / cm^3
# Si number density = 26.151261 Si / 1000 Ang^3
#
#
#
# Elastic Constant Matrix: (Units=GPa)
#
#
# Indices 1 2 3 4 5 6 
#
# 1 98.1415 8.1733 -37.6870 0.0000 0.0000 0.0000
# 2 8.1733 107.2549 -5.3424 0.0000 0.0000 0.0000
# 3 -37.6870 -5.3424 98.2757 0.0000 0.0000 0.0000
# 4 0.0000 0.0000 0.0000 22.8045 0.0000 0.0000
# 5 0.0000 0.0000 0.0000 0.0000 0.3434 0.0000
# 6 0.0000 0.0000 0.0000 0.0000 0.0000 6.0103
#
#
#
# Elastic Compliance Matrix: (Units=1/GPa)
#
#
# Indices 1 2 3 4 5 6 
#
# 1 0.011999 -0.000687 0.004564 0.000000 0.000000 0.000000
# 2 -0.000687 0.009388 0.000247 0.000000 0.000000 0.000000
# 3 0.004564 0.000247 0.011939 0.000000 0.000000 0.000000
# 4 0.000000 0.000000 0.000000 0.043851 0.000000 0.000000
# 5 0.000000 0.000000 0.000000 0.000000 2.912103 0.000000
# 6 0.000000 0.000000 0.000000 0.000000 0.000000 0.166382
#
#
# Mechanical properties :
#
#
# Convention : Reuss Voigt Hill
#
# Bulk Modulus (GPa) = 24.05316 25.99556 25.02436
# Shear Modulus (GPa) = 1.58164 28.40017 14.99090
#
# Velocity S-wave (km/s) = 0.77854 3.29902 2.39684
# Velocity P-wave (km/s) = 3.16636 4.94706 4.15327
#
# Compressibility (1/GPa) = 0.04157457
#
# Stress axis : x y z
#
# Youngs Moduli (GPa) = 83.33857 106.51626 83.75806
#
# Poissons Ratio (x) = 0.07318 -0.38228
# Poissons Ratio (y) = 0.05726 -0.02068
# Poissons Ratio (z) = -0.38037 -0.02630
#
# Static dielectric constant tensor:
#      x y z
#    x 1.352190 0.000000 0.000000 
#    y 0.000000 2.008190 0.000000 
#    z 0.000000 0.000000 2.119510 
# 
# From -- ./inp_files/44992.got.cif
#   From: 2010.05.17/outbox.cif.g08.bks.cpg/sg52_23_cif.got.tgz:44992.got - 2010.06.03 12:15:38.
