data_PCOD9410412
_publ_section_title
;
Structure prediction by ZEFSAII (Michael W. Deem and Ramdas Pophale) SiO2 
 PCOD9410412
Probable space group: P N N A
;
_chemical_formula_sum "Si O2"
_cell_formula_units_Z 36
_cell_length_a 13.272836
_cell_length_b 25.036916
_cell_length_c 5.238511
_cell_angle_alpha 90.000000
_cell_angle_beta 90.000000
_cell_angle_gamma 90.000000
_cell_volume 1740.814200
_symmetry_space_group_name_H-M "P N N A"
_symmetry_group_IT_number 52
_symmetry_cell_setting 'orthorhombic'
loop_
_space_group_symop_operation_xyz
x,y,z
1/2-x,-y,z
x,1/2-y,1/2-z
1/2-x,1/2+y,1/2-z
-x,-y,-z
1/2+x,y,-z
-x,1/2+y,1/2+z
1/2+x,1/2-y,1/2+z
loop_
_atom_site_type_symbol
_atom_site_label
_atom_site_fract_x
_atom_site_fract_y
_atom_site_fract_z
Si Si1 0.657056 0.653031 0.929580
Si Si2 0.166594 0.385152 0.375391
Si Si3 0.643450 0.750000 0.250000
Si Si4 0.017207 0.197039 0.871171
Si Si5 0.722939 0.438802 0.118274
O O1 0.727565 0.644630 0.682653
O O2 0.543274 0.664775 0.847708
O O3 0.697555 0.703774 0.089444
O O4 0.678241 0.599059 0.085843
O O5 0.088118 0.341214 0.467815
O O6 0.179071 0.427013 0.604076
O O7 0.150990 0.415726 0.106739
O O8 0.570267 0.720042 0.448073
O O9 0.067472 0.250000 0.750000
O O10 0.750000 0.500000 0.078733
#
# Coordination Sequence:
#
# PCOD9410412 Si02
#       5
#     8   8   4   8   8
#     4   9  22  39  66  92 132 170 211 262 327 381
#     4  10  23  42  66  97 126 169 219 263 327 381
#     4  10  20  42  60  92 136 168 212 264 322 396
#     4  10  22  41  61  96 134 166 212 271 318 396
#     4  10  22  44  66  93 130 172 222 271 316 381
#
# _framework density 20.67998
#
# number of rings (size 3 to 8) (size 9 to 14) (size 15 to 20)
#    1.333    0.889    0.000    2.000    6.222    0.000 
#   26.000    2.222    0.000    0.000    0.000    0.000 
#    0.000    0.000    0.000    0.000    0.000    0.000 
#
# Total GULP energy -200636.509075 kJ/mol
# GULP energy per Si atom -5573.236363 kJ/mol
# Density = 2.063291 g / cm^3
# Si number density = 20.679980 Si / 1000 Ang^3
#
#
#
# Elastic Constant Matrix: (Units=GPa)
#
#
# Indices 1 2 3 4 5 6 
#
# 1 21.7943 31.0492 2.9046 0.0000 0.0000 0.0000
# 2 31.0492 143.0368 31.6522 0.0000 0.0000 0.0000
# 3 2.9046 31.6522 103.8670 0.0000 0.0000 0.0000
# 4 0.0000 0.0000 0.0000 34.1636 0.0000 0.0000
# 5 0.0000 0.0000 0.0000 0.0000 28.5089 0.0000
# 6 0.0000 0.0000 0.0000 0.0000 0.0000 82.2738
#
#
#
# Elastic Compliance Matrix: (Units=1/GPa)
#
#
# Indices 1 2 3 4 5 6 
#
# 1 0.067150 -0.015185 0.002750 0.000000 0.000000 0.000000
# 2 -0.015185 0.010931 -0.002906 0.000000 0.000000 0.000000
# 3 0.002750 -0.002906 0.010436 0.000000 0.000000 0.000000
# 4 0.000000 0.000000 0.000000 0.029271 0.000000 0.000000
# 5 0.000000 0.000000 0.000000 0.000000 0.035077 0.000000
# 6 0.000000 0.000000 0.000000 0.000000 0.000000 0.012155
#
#
# Mechanical properties :
#
#
# Convention : Reuss Voigt Hill
#
# Bulk Modulus (GPa) = 17.29083 44.43442 30.86262
# Shear Modulus (GPa) = 23.25791 42.52874 32.89332
#
# Velocity S-wave (km/s) = 3.35723 4.53980 3.99254
# Velocity P-wave (km/s) = 4.83811 7.00093 6.01749
#
# Compressibility (1/GPa) = 0.05783412
#
# Stress axis : x y z
#
# Youngs Moduli (GPa) = 14.89197 91.48691 95.81784
#
# Poissons Ratio (x) = 1.38921 -0.26346
# Poissons Ratio (y) = 0.22613 0.27848
# Poissons Ratio (z) = -0.04095 0.26589
#
# Static dielectric constant tensor:
#      x y z
#    x 1.742240 0.000000 0.000000 
#    y 0.000000 1.721130 0.000000 
#    z 0.000000 0.000000 1.812870 
# 
# From -- ./inp_files/1245.got.cif
#   From: 2010.05.17/outbox.cif.g08.bks.cpg/sg52_1_cif.got.tgz:1245.got - 2010.06.03 12:15:38.
