data_PCOD9410636
_publ_section_title
;
Structure prediction by ZEFSAII (Michael W. Deem and Ramdas Pophale) SiO2 
 PCOD9410636
Probable space group: P N N A
;
_chemical_formula_sum "Si O2"
_cell_formula_units_Z 60
_cell_length_a 21.053369
_cell_length_b 16.375967
_cell_length_c 7.521908
_cell_angle_alpha 90.000000
_cell_angle_beta 90.000000
_cell_angle_gamma 90.000000
_cell_volume 2593.322775
_symmetry_space_group_name_H-M "P N N A"
_symmetry_group_IT_number 52
_symmetry_cell_setting 'orthorhombic'
loop_
_space_group_symop_operation_xyz
x,y,z
1/2-x,-y,z
x,1/2-y,1/2-z
1/2-x,1/2+y,1/2-z
-x,-y,-z
1/2+x,y,-z
-x,1/2+y,1/2+z
1/2+x,1/2-y,1/2+z
loop_
_atom_site_type_symbol
_atom_site_label
_atom_site_fract_x
_atom_site_fract_y
_atom_site_fract_z
Si Si1 0.419336 0.193823 0.086331
Si Si2 0.927288 0.576344 0.884538
Si Si3 0.155064 0.317558 0.881177
Si Si4 0.707334 0.435796 0.392827
Si Si5 0.771183 0.223541 0.953848
Si Si6 0.921489 0.250000 0.250000
Si Si7 0.928219 0.069519 0.358398
Si Si8 0.092969 0.511989 0.461223
O O1 0.432877 0.250000 0.250000
O O2 0.347191 0.215330 0.014818
O O3 0.421525 0.099059 0.126345
O O4 0.460973 0.217933 0.918114
O O5 0.927801 0.557939 0.674076
O O6 0.001076 0.589080 0.927917
O O7 0.884780 0.651573 0.951329
O O8 0.903627 0.494985 0.993683
O O9 0.125177 0.250000 0.750000
O O10 0.163287 0.392256 0.747992
O O11 0.225564 0.285479 0.937504
O O12 0.750000 0.500000 0.288757
O O13 0.742242 0.364301 0.498290
O O14 0.667406 0.493352 0.521986
O O15 0.765239 0.250000 0.750000
O O16 0.895705 0.158398 0.319076
O O17 0.930294 0.023440 0.165320
#
# Coordination Sequence:
#
# PCOD9410636 Si02
#       8
#     8   8   8   8   8   4   8   8
#     4  10  21  36  60  90 123 160 204 250 306 374
#     4  11  22  43  66  92 122 167 211 265 312 378
#     4  10  23  41  62  90 126 167 209 254 311 372
#     4  11  21  38  59  90 126 161 205 252 307 377
#     4  10  21  38  56  86 122 163 200 249 304 369
#     4  10  22  40  60  88 122 164 198 258 322 364
#     4  10  23  42  64  92 124 159 212 262 319 376
#     4  11  21  39  65  91 126 163 203 263 315 371
#
# _framework density 23.136341000000002
#
# number of rings (size 3 to 8) (size 9 to 14) (size 15 to 20)
#    0.000    1.600    2.667    2.000    2.800    0.000 
#   10.800    3.333    0.000    0.000    0.000    0.000 
#    0.000    0.000    0.000    0.000    0.000    0.000 
#
# Total GULP energy -334125.916345 kJ/mol
# GULP energy per Si atom -5568.765272 kJ/mol
# Density = 2.308368 g / cm^3
# Si number density = 23.136341 Si / 1000 Ang^3
#
#
#
# Elastic Constant Matrix: (Units=GPa)
#
#
# Indices 1 2 3 4 5 6 
#
# 1 30.6059 14.3803 5.9460 0.0000 0.0000 0.0000
# 2 14.3803 98.8220 31.6522 0.0000 0.0000 0.0000
# 3 5.9460 31.6522 71.4597 0.0000 0.0000 0.0000
# 4 0.0000 0.0000 0.0000 33.6970 0.0000 0.0000
# 5 0.0000 0.0000 0.0000 0.0000 22.0132 0.0000
# 6 0.0000 0.0000 0.0000 0.0000 0.0000 20.7610
#
#
#
# Elastic Compliance Matrix: (Units=1/GPa)
#
#
# Indices 1 2 3 4 5 6 
#
# 1 0.035107 -0.004863 -0.000767 0.000000 0.000000 0.000000
# 2 -0.004863 0.012466 -0.005117 0.000000 0.000000 0.000000
# 3 -0.000767 -0.005117 0.016324 0.000000 0.000000 0.000000
# 4 0.000000 0.000000 0.000000 0.029676 0.000000 0.000000
# 5 0.000000 0.000000 0.000000 0.000000 0.045427 0.000000
# 6 0.000000 0.000000 0.000000 0.000000 0.000000 0.048167
#
#
# Mechanical properties :
#
#
# Convention : Reuss Voigt Hill
#
# Bulk Modulus (GPa) = 23.58313 33.87161 28.72737
# Shear Modulus (GPa) = 22.44197 25.22151 23.83174
#
# Velocity S-wave (km/s) = 3.11784 3.30529 3.21293
# Velocity P-wave (km/s) = 4.81420 5.40725 5.11932
#
# Compressibility (1/GPa) = 0.04240319
#
# Stress axis : x y z
#
# Youngs Moduli (GPa) = 28.48399 80.21956 61.25873
#
# Poissons Ratio (x) = 0.39011 0.04700
# Poissons Ratio (y) = 0.13852 0.31346
# Poissons Ratio (z) = 0.02185 0.41048
#
# Static dielectric constant tensor:
#      x y z
#    x 2.013320 0.000000 0.000000 
#    y 0.000000 1.895480 0.000000 
#    z 0.000000 0.000000 1.952600 
# 
# From -- ./inp_files/14446.got.cif
#   From: 2010.05.17/outbox.cif.g08.bks.cpg/sg52_8_cif.got.tgz:14446.got - 2010.06.03 12:15:38.
