data_PCOD9410219
_publ_section_title
;
Structure prediction by ZEFSAII (Michael W. Deem and Ramdas Pophale) SiO2 
 PCOD9410219
Probable space group: P N N A
;
_chemical_formula_sum "Si O2"
_cell_formula_units_Z 32
_cell_length_a 36.710533
_cell_length_b 7.794971
_cell_length_c 5.104529
_cell_angle_alpha 90.000000
_cell_angle_beta 90.000000
_cell_angle_gamma 90.000000
_cell_volume 1460.699462
_symmetry_space_group_name_H-M "P N N A"
_symmetry_group_IT_number 52
_symmetry_cell_setting 'orthorhombic'
loop_
_space_group_symop_operation_xyz
x,y,z
1/2-x,-y,z
x,1/2-y,1/2-z
1/2-x,1/2+y,1/2-z
-x,-y,-z
1/2+x,y,-z
-x,1/2+y,1/2+z
1/2+x,1/2-y,1/2+z
loop_
_atom_site_type_symbol
_atom_site_label
_atom_site_fract_x
_atom_site_fract_y
_atom_site_fract_z
Si Si1 0.105574 0.541426 0.738230
Si Si2 0.779255 0.640881 0.509714
Si Si3 0.849353 0.457159 0.757612
Si Si4 0.523653 0.547217 0.247822
O O1 0.104936 0.750000 0.750000
O O2 0.119354 0.498154 0.450449
O O3 0.064621 0.474305 0.773830
O O4 0.135123 0.490730 0.958565
O O5 0.750000 0.500000 0.423407
O O6 0.762351 0.750000 0.750000
O O7 0.813708 0.551116 0.649819
O O8 0.788629 0.750000 0.250000
O O9 0.843607 0.250000 0.750000
O O10 0.528411 0.750000 0.250000
O O11 0.500000 0.500000 0.500000
O O12 0.500000 0.500000 0.000000
#
# Coordination Sequence:
#
# PCOD9410219 Si02
#       4
#     8   8   8   8
#     4   9  19  36  61  88 119 162 208 250 306 378
#     4  12  26  44  66  95 129 165 205 256 312 375
#     4  10  20  39  65  90 118 160 209 256 307 369
#     4  11  22  39  61  89 124 165 211 258 309 370
#
# _framework density 21.907312000000001
#
# number of rings (size 3 to 8) (size 9 to 14) (size 15 to 20)
#    0.000    1.500    0.000    5.250    0.000    7.000 
#    0.000   12.500    0.000    0.000    0.000    0.000 
#    0.000    0.000    0.000    0.000    0.000    0.000 
#
# Total GULP energy -178868.329285 kJ/mol
# GULP energy per Si atom -5589.635290 kJ/mol
# Density = 2.185745 g / cm^3
# Si number density = 21.907312 Si / 1000 Ang^3
#
#
#
# Elastic Constant Matrix: (Units=GPa)
#
#
# Indices 1 2 3 4 5 6 
#
# 1 130.6573 39.1880 35.1201 0.0000 0.0000 0.0000
# 2 39.1880 59.2828 33.2033 0.0000 0.0000 0.0000
# 3 35.1201 33.2033 149.4268 0.0000 0.0000 0.0000
# 4 0.0000 0.0000 0.0000 31.9815 0.0000 0.0000
# 5 0.0000 0.0000 0.0000 0.0000 31.9888 0.0000
# 6 0.0000 0.0000 0.0000 0.0000 0.0000 24.8823
#
#
#
# Elastic Compliance Matrix: (Units=1/GPa)
#
#
# Indices 1 2 3 4 5 6 
#
# 1 0.009669 -0.005846 -0.000973 0.000000 0.000000 0.000000
# 2 -0.005846 0.022801 -0.003692 0.000000 0.000000 0.000000
# 3 -0.000973 -0.003692 0.007741 0.000000 0.000000 0.000000
# 4 0.000000 0.000000 0.000000 0.031268 0.000000 0.000000
# 5 0.000000 0.000000 0.000000 0.000000 0.031261 0.000000
# 6 0.000000 0.000000 0.000000 0.000000 0.000000 0.040189
#
#
# Mechanical properties :
#
#
# Convention : Reuss Voigt Hill
#
# Bulk Modulus (GPa) = 52.11839 61.59884 56.85861
# Shear Modulus (GPa) = 29.35152 33.22755 31.28954
#
# Velocity S-wave (km/s) = 3.66431 3.89875 3.78334
# Velocity P-wave (km/s) = 6.46103 6.96032 6.71531
#
# Compressibility (1/GPa) = 0.01918709
#
# Stress axis : x y z
#
# Youngs Moduli (GPa) = 103.42658 43.85803 129.17400
#
# Poissons Ratio (x) = 0.25640 0.12574
# Poissons Ratio (y) = 0.60465 0.47696
# Poissons Ratio (z) = 0.10068 0.16194
#
# Static dielectric constant tensor:
#      x y z
#    x 1.793100 0.000000 0.000000 
#    y 0.000000 1.839730 0.000000 
#    z 0.000000 0.000000 1.726220 
# 
# From -- ./inp_files/6227.got.cif
#   From: 2010.05.17/outbox.cif.g08.bks.cpg/sg52_4_cif.got.tgz:6227.got - 2010.06.03 12:15:38.
