data_PCOD9410508
_publ_section_title
;
Structure prediction by ZEFSAII (Michael W. Deem and Ramdas Pophale) SiO2 
 PCOD9410508
Probable space group: P N N A
;
_chemical_formula_sum "Si O2"
_cell_formula_units_Z 28
_cell_length_a 15.407680
_cell_length_b 12.875588
_cell_length_c 5.179952
_cell_angle_alpha 90.000000
_cell_angle_beta 90.000000
_cell_angle_gamma 90.000000
_cell_volume 1027.614105
_symmetry_space_group_name_H-M "P N N A"
_symmetry_group_IT_number 52
_symmetry_cell_setting 'orthorhombic'
loop_
_space_group_symop_operation_xyz
x,y,z
1/2-x,-y,z
x,1/2-y,1/2-z
1/2-x,1/2+y,1/2-z
-x,-y,-z
1/2+x,y,-z
-x,1/2+y,1/2+z
1/2+x,1/2-y,1/2+z
loop_
_atom_site_type_symbol
_atom_site_label
_atom_site_fract_x
_atom_site_fract_y
_atom_site_fract_z
Si Si1 0.970776 0.634141 0.621777
Si Si2 0.848362 0.177602 0.997775
Si Si3 0.799972 0.592051 0.850382
Si Si4 0.639458 0.250000 0.250000
O O1 0.974854 0.750000 0.750000
O O2 0.899813 0.569411 0.780213
O O3 0.921639 0.659338 0.357044
O O4 0.069599 0.604531 0.573577
O O5 0.873820 0.250000 0.750000
O O6 0.764420 0.115366 0.892229
O O7 0.839089 0.250000 0.250000
O O8 0.750000 0.500000 0.993643
O O9 0.808255 0.695149 0.021030
#
# Coordination Sequence:
#
# PCOD9410508 Si02
#       4
#     8   8   8   4
#     4   9  20  41  70  98 142 191 244 299 365 431
#     4  11  24  43  74 107 139 197 247 293 372 445
#     4  11  26  43  72 112 150 195 249 304 369 444
#     4  10  20  46  68 100 148 198 236 304 364 420
#
# _framework density 27.247579999999999
#
# number of rings (size 3 to 8) (size 9 to 14) (size 15 to 20)
#    0.000    1.714    1.429    2.571    8.000    2.286 
#    0.000    1.429    0.000    1.714    0.000    0.000 
#    0.000    0.000    0.000    0.000    0.000    0.000 
#
# Total GULP energy -156507.201208 kJ/mol
# GULP energy per Si atom -5589.542900 kJ/mol
# Density = 2.718556 g / cm^3
# Si number density = 27.247580 Si / 1000 Ang^3
#
#
#
# Elastic Constant Matrix: (Units=GPa)
#
#
# Indices 1 2 3 4 5 6 
#
# 1 181.9989 30.2752 51.7220 0.0000 0.0000 0.0000
# 2 30.2752 82.5778 18.9280 0.0000 0.0000 0.0000
# 3 51.7220 18.9280 143.9762 0.0000 0.0000 0.0000
# 4 0.0000 0.0000 0.0000 34.7498 0.0000 0.0000
# 5 0.0000 0.0000 0.0000 0.0000 -25.4620 0.0000
# 6 0.0000 0.0000 0.0000 0.0000 0.0000 24.7753
#
#
#
# Elastic Compliance Matrix: (Units=1/GPa)
#
#
# Indices 1 2 3 4 5 6 
#
# 1 0.006388 -0.001872 -0.002049 0.000000 0.000000 0.000000
# 2 -0.001872 0.013035 -0.001041 0.000000 0.000000 0.000000
# 3 -0.002049 -0.001041 0.007818 0.000000 0.000000 0.000000
# 4 0.000000 0.000000 0.000000 0.028777 0.000000 0.000000
# 5 0.000000 0.000000 0.000000 0.000000 -0.039274 0.000000
# 6 0.000000 0.000000 0.000000 0.000000 0.000000 0.040363
#
#
# Mechanical properties :
#
#
# Convention : Reuss Voigt Hill
#
# Bulk Modulus (GPa) = 57.74621 67.82260 62.78440
# Shear Modulus (GPa) = 68.67736 27.32112 47.99924
#
# Velocity S-wave (km/s) = 5.02590 3.16998 4.20169
# Velocity P-wave (km/s) = 7.41072 6.19222 6.82870
#
# Compressibility (1/GPa) = 0.01731715
#
# Stress axis : x y z
#
# Youngs Moduli (GPa) = 156.53726 76.71713 127.90278
#
# Poissons Ratio (x) = 0.14365 0.26204
# Poissons Ratio (y) = 0.29312 0.13314
# Poissons Ratio (z) = 0.32071 0.07986
#
# Static dielectric constant tensor:
#      x y z
#    x 2.242610 0.000000 0.000000 
#    y 0.000000 2.212000 0.000000 
#    z 0.000000 0.000000 2.163770 
# 
# From -- ./inp_files/2931.got.cif
#   From: 2010.05.17/outbox.cif.g08.bks.cpg/sg52_2_cif.got.tgz:2931.got - 2010.06.03 12:15:38.
