data_PCOD9410964
_publ_section_title
;
Structure prediction by ZEFSAII (Michael W. Deem and Ramdas Pophale) SiO2 
 PCOD9410964
Probable space group: P N N A
;
_chemical_formula_sum "Si O2"
_cell_formula_units_Z 36
_cell_length_a 22.956397
_cell_length_b 5.005528
_cell_length_c 13.245404
_cell_angle_alpha 90.000000
_cell_angle_beta 90.000000
_cell_angle_gamma 90.000000
_cell_volume 1522.014644
_symmetry_space_group_name_H-M "P N N A"
_symmetry_group_IT_number 52
_symmetry_cell_setting 'orthorhombic'
loop_
_space_group_symop_operation_xyz
x,y,z
1/2-x,-y,z
x,1/2-y,1/2-z
1/2-x,1/2+y,1/2-z
-x,-y,-z
1/2+x,y,-z
-x,1/2+y,1/2+z
1/2+x,1/2-y,1/2+z
loop_
_atom_site_type_symbol
_atom_site_label
_atom_site_fract_x
_atom_site_fract_y
_atom_site_fract_z
Si Si1 0.991010 0.385909 0.637856
Si Si2 0.314568 0.500836 0.176111
Si Si3 0.209486 0.750000 0.750000
Si Si4 0.903898 0.226841 0.137051
Si Si5 0.073637 0.098555 0.458226
O O1 0.989643 0.250000 0.750000
O O2 0.054642 0.489150 0.600156
O O3 0.970804 0.137318 0.572330
O O4 0.050185 0.361959 0.394666
O O5 0.250000 0.500000 0.128579
O O6 0.315699 0.750000 0.250000
O O7 0.365450 0.530403 0.097014
O O8 0.323093 0.250000 0.250000
O O9 0.250000 0.500000 0.775420
O O10 0.163920 0.829158 0.839559
O O11 0.930190 0.250000 0.250000
O O12 0.909886 0.491839 0.072136
#
# Coordination Sequence:
#
# PCOD9410964 Si02
#       5
#     8   8   4   8   8
#     4  12  25  43  70 105 146 186 238 304 386 457
#     4  10  21  39  62  93 134 176 227 291 361 438
#     4  10  26  48  74  96 136 194 252 308 376 442
#     4  10  26  46  70 101 146 185 250 313 376 442
#     4  12  24  42  69 105 138 193 239 302 376 465
#
# _framework density 23.652857999999998
#
# number of rings (size 3 to 8) (size 9 to 14) (size 15 to 20)
#    0.667    0.444    0.000    6.667    1.556    4.444 
#    0.000    3.333    0.000    0.000    0.000    0.000 
#    0.000    0.000    0.000    0.000    0.000    0.000 
#
# Total GULP energy -200562.520332 kJ/mol
# GULP energy per Si atom -5571.181120 kJ/mol
# Density = 2.359902 g / cm^3
# Si number density = 23.652858 Si / 1000 Ang^3
#
#
#
# Elastic Constant Matrix: (Units=GPa)
#
#
# Indices 1 2 3 4 5 6 
#
# 1 176.0268 62.5321 46.2532 0.0000 0.0000 0.0000
# 2 62.5321 180.3313 55.0367 0.0000 0.0000 0.0000
# 3 46.2532 55.0367 120.3568 0.0000 0.0000 0.0000
# 4 0.0000 0.0000 0.0000 16.4091 0.0000 0.0000
# 5 0.0000 0.0000 0.0000 0.0000 -9.6850 0.0000
# 6 0.0000 0.0000 0.0000 0.0000 0.0000 34.2578
#
#
#
# Elastic Compliance Matrix: (Units=1/GPa)
#
#
# Indices 1 2 3 4 5 6 
#
# 1 0.006793 -0.001812 -0.001782 0.000000 0.000000 0.000000
# 2 -0.001812 0.006928 -0.002472 0.000000 0.000000 0.000000
# 3 -0.001782 -0.002472 0.010124 0.000000 0.000000 0.000000
# 4 0.000000 0.000000 0.000000 0.060942 0.000000 0.000000
# 5 0.000000 0.000000 0.000000 0.000000 -0.103253 0.000000
# 6 0.000000 0.000000 0.000000 0.000000 0.000000 0.029190
#
#
# Mechanical properties :
#
#
# Convention : Reuss Voigt Hill
#
# Bulk Modulus (GPa) = 85.37112 89.37320 87.37216
# Shear Modulus (GPa) = 186.85005 29.05591 107.95298
#
# Velocity S-wave (km/s) = 8.89766 3.50870 6.76311
# Velocity P-wave (km/s) = 11.90502 7.36763 9.89979
#
# Compressibility (1/GPa) = 0.01171356
#
# Stress axis : x y z
#
# Youngs Moduli (GPa) = 147.21542 144.34329 98.77739
#
# Poissons Ratio (x) = 0.26149 0.17603
# Poissons Ratio (y) = 0.26669 0.24416
# Poissons Ratio (z) = 0.26235 0.35679
#
# Static dielectric constant tensor:
#      x y z
#    x 2.054670 0.000000 0.000000 
#    y 0.000000 0.778270 0.000000 
#    z 0.000000 0.000000 -41.834230 
# 
# From -- ./inp_files/22042.got.cif
#   From: 2010.05.17/outbox.cif.g08.bks.cpg/sg52_12_cif.got.tgz:22042.got - 2010.06.03 12:15:38.
