data_PCOD9410042
_publ_section_title
;
Structure prediction by ZEFSAII (Michael W. Deem and Ramdas Pophale) SiO2 
 PCOD9410042
Probable space group: P N N A
;
_chemical_formula_sum "Si O2"
_cell_formula_units_Z 60
_cell_length_a 15.024794
_cell_length_b 24.916176
_cell_length_c 7.202297
_cell_angle_alpha 90.000000
_cell_angle_beta 90.000000
_cell_angle_gamma 90.000000
_cell_volume 2696.254870
_symmetry_space_group_name_H-M "P N N A"
_symmetry_group_IT_number 52
_symmetry_cell_setting 'orthorhombic'
loop_
_space_group_symop_operation_xyz
x,y,z
1/2-x,-y,z
x,1/2-y,1/2-z
1/2-x,1/2+y,1/2-z
-x,-y,-z
1/2+x,y,-z
-x,1/2+y,1/2+z
1/2+x,1/2-y,1/2+z
loop_
_atom_site_type_symbol
_atom_site_label
_atom_site_fract_x
_atom_site_fract_y
_atom_site_fract_z
Si Si1 0.631167 0.961991 0.581373
Si Si2 0.115573 0.102396 0.014639
Si Si3 0.700048 0.298635 0.377171
Si Si4 0.330235 0.750000 0.250000
Si Si5 0.148925 0.627237 0.804098
Si Si6 0.799790 0.051409 0.989457
Si Si7 0.423727 0.938919 0.631862
Si Si8 0.950834 0.850313 0.631543
O O1 0.675714 0.911642 0.475493
O O2 0.525930 0.950017 0.581161
O O3 0.638498 0.017244 0.467085
O O4 0.657834 0.966532 0.795750
O O5 0.119416 0.161519 0.926053
O O6 0.218005 0.090400 0.060382
O O7 0.084765 0.062655 0.853661
O O8 0.063228 0.106012 0.203600
O O9 0.670521 0.250000 0.250000
O O10 0.726000 0.273845 0.578391
O O11 0.777450 0.331105 0.269307
O O12 0.394459 0.797448 0.324918
O O13 0.139704 0.584196 0.633272
O O14 0.057562 0.656520 0.863850
O O15 0.750000 0.000000 0.075889
O O16 0.410304 0.879871 0.546950
#
# Coordination Sequence:
#
# PCOD9410042 Si02
#       8
#     8   8   8   4   8   8   8   8
#     4  10  22  37  58  89 121 160 206 251 309 377
#     4  10  21  36  58  83 116 156 196 249 305 369
#     4  10  22  38  59  85 117 153 198 253 318 368
#     4  10  22  40  64  88 120 158 214 258 318 386
#     4  10  23  39  60  88 122 159 205 261 313 376
#     4  11  22  35  55  86 123 162 201 248 306 370
#     4  10  20  38  61  86 120 161 203 255 308 369
#     4  10  21  39  63  87 118 160 208 258 311 377
#
# _framework density 22.25309
#
# number of rings (size 3 to 8) (size 9 to 14) (size 15 to 20)
#    0.000    1.867    0.000    3.200    0.933    8.000 
#    0.000    5.333    5.867    0.000    0.000    0.000 
#    0.000    0.000    0.000    0.000    0.000    0.000 
#
# Total GULP energy -334935.669942 kJ/mol
# GULP energy per Si atom -5582.261166 kJ/mol
# Density = 2.220244 g / cm^3
# Si number density = 22.253090 Si / 1000 Ang^3
#
#
#
# Elastic Constant Matrix: (Units=GPa)
#
#
# Indices 1 2 3 4 5 6 
#
# 1 48.1331 9.1648 -1.5781 0.0000 0.0000 0.0000
# 2 9.1648 64.5307 7.1357 0.0000 0.0000 0.0000
# 3 -1.5781 7.1357 93.1658 0.0000 0.0000 0.0000
# 4 0.0000 0.0000 0.0000 35.5314 0.0000 0.0000
# 5 0.0000 0.0000 0.0000 0.0000 30.6982 0.0000
# 6 0.0000 0.0000 0.0000 0.0000 0.0000 12.3239
#
#
#
# Elastic Compliance Matrix: (Units=1/GPa)
#
#
# Indices 1 2 3 4 5 6 
#
# 1 0.021386 -0.003104 0.000600 0.000000 0.000000 0.000000
# 2 -0.003104 0.016079 -0.001284 0.000000 0.000000 0.000000
# 3 0.000600 -0.001284 0.010842 0.000000 0.000000 0.000000
# 4 0.000000 0.000000 0.000000 0.028144 0.000000 0.000000
# 5 0.000000 0.000000 0.000000 0.000000 0.032575 0.000000
# 6 0.000000 0.000000 0.000000 0.000000 0.000000 0.081143
#
#
# Mechanical properties :
#
#
# Convention : Reuss Voigt Hill
#
# Bulk Modulus (GPa) = 24.55069 26.14160 25.34614
# Shear Modulus (GPa) = 23.66044 28.45117 26.05580
#
# Velocity S-wave (km/s) = 3.26428 3.57953 3.42553
# Velocity P-wave (km/s) = 5.02631 5.37187 5.20196
#
# Compressibility (1/GPa) = 0.04073205
#
# Stress axis : x y z
#
# Youngs Moduli (GPa) = 46.75881 62.19183 92.23329
#
# Poissons Ratio (x) = 0.19302 -0.05534
# Poissons Ratio (y) = 0.14513 0.11844
# Poissons Ratio (z) = -0.02805 0.07986
#
# Static dielectric constant tensor:
#      x y z
#    x 1.824710 0.000000 0.000000 
#    y 0.000000 1.885640 0.000000 
#    z 0.000000 0.000000 1.840630 
# 
# From -- ./inp_files/3617.got.cif
#   From: 2010.05.17/outbox.cif.g08.bks.cpg/sg52_2_cif.got.tgz:3617.got - 2010.06.03 12:15:38.
