data_PCOD9410759
_publ_section_title
;
Structure prediction by ZEFSAII (Michael W. Deem and Ramdas Pophale) SiO2 
 PCOD9410759
Probable space group: P N N A
;
_chemical_formula_sum "Si O2"
_cell_formula_units_Z 56
_cell_length_a 29.853866
_cell_length_b 5.080938
_cell_length_c 17.747268
_cell_angle_alpha 90.000000
_cell_angle_beta 90.000000
_cell_angle_gamma 90.000000
_cell_volume 2692.005744
_symmetry_space_group_name_H-M "P N N A"
_symmetry_group_IT_number 52
_symmetry_cell_setting 'orthorhombic'
loop_
_space_group_symop_operation_xyz
x,y,z
1/2-x,-y,z
x,1/2-y,1/2-z
1/2-x,1/2+y,1/2-z
-x,-y,-z
1/2+x,y,-z
-x,1/2+y,1/2+z
1/2+x,1/2-y,1/2+z
loop_
_atom_site_type_symbol
_atom_site_label
_atom_site_fract_x
_atom_site_fract_y
_atom_site_fract_z
Si Si1 0.799256 0.059715 0.087944
Si Si2 0.382967 0.500946 0.696899
Si Si3 0.299002 0.939396 0.484012
Si Si4 0.031059 0.221798 0.424352
Si Si5 0.613669 0.831071 0.571979
Si Si6 0.437912 0.107754 0.943654
Si Si7 0.080762 0.497361 0.301314
O O1 0.803385 0.851431 0.018633
O O2 0.750000 0.000000 0.120381
O O3 0.837322 0.013607 0.148962
O O4 0.800499 0.352343 0.053445
O O5 0.387354 0.250000 0.750000
O O6 0.422292 0.504049 0.635190
O O7 0.383661 0.750000 0.750000
O O8 0.250000 0.000000 0.449194
O O9 0.341190 0.002620 0.430949
O O10 0.045445 0.385814 0.498179
O O11 0.038465 0.402429 0.350540
O O12 0.978118 0.181859 0.433341
O O13 0.067548 0.993070 0.413229
O O14 0.604344 0.728178 0.487632
O O15 0.614772 0.600954 0.634000
O O16 0.071503 0.750000 0.250000
O O17 0.095437 0.250000 0.250000
#
# Coordination Sequence:
#
# PCOD9410759 Si02
#       7
#     8   8   8   8   8   8   8
#     4  10  21  40  62  89 126 165 216 268 311 375
#     4  12  26  41  60  89 129 178 209 267 327 369
#     4  10  21  37  67  99 123 158 210 271 318 368
#     4  10  22  40  67  94 118 178 207 271 317 376
#     4  11  21  39  71  91 133 166 209 270 319 383
#     4  10  23  40  61  94 129 163 227 262 319 382
#     4  11  23  41  62  96 128 161 209 256 318 392
#
# _framework density 20.802333000000001
#
# number of rings (size 3 to 8) (size 9 to 14) (size 15 to 20)
#    0.000    1.429    2.857    2.143    4.000    1.714 
#    0.000    0.000    0.000    0.000    3.714    0.000 
#    0.000    0.000    0.000    0.000    0.000    0.000 
#
# Total GULP energy -312737.375770 kJ/mol
# GULP energy per Si atom -5584.595996 kJ/mol
# Density = 2.075499 g / cm^3
# Si number density = 20.802333 Si / 1000 Ang^3
#
#
#
# Elastic Constant Matrix: (Units=GPa)
#
#
# Indices 1 2 3 4 5 6 
#
# 1 99.1334 8.2855 35.4800 0.0000 0.0000 0.0000
# 2 8.2855 95.0752 29.5972 0.0000 0.0000 0.0000
# 3 35.4800 29.5972 93.4286 0.0000 0.0000 0.0000
# 4 0.0000 0.0000 0.0000 81.6961 0.0000 0.0000
# 5 0.0000 0.0000 0.0000 0.0000 9.4525 0.0000
# 6 0.0000 0.0000 0.0000 0.0000 0.0000 18.8630
#
#
#
# Elastic Compliance Matrix: (Units=1/GPa)
#
#
# Indices 1 2 3 4 5 6 
#
# 1 0.011688 0.000403 -0.004566 0.000000 0.000000 0.000000
# 2 0.000403 0.011683 -0.003854 0.000000 0.000000 0.000000
# 3 -0.004566 -0.003854 0.013658 0.000000 0.000000 0.000000
# 4 0.000000 0.000000 0.000000 0.012240 0.000000 0.000000
# 5 0.000000 0.000000 0.000000 0.000000 0.105792 0.000000
# 6 0.000000 0.000000 0.000000 0.000000 0.000000 0.053014
#
#
# Mechanical properties :
#
#
# Convention : Reuss Voigt Hill
#
# Bulk Modulus (GPa) = 47.63172 48.26252 47.94712
# Shear Modulus (GPa) = 21.63492 36.28730 28.96111
#
# Velocity S-wave (km/s) = 3.22844 4.18112 3.73527
# Velocity P-wave (km/s) = 6.06993 6.82348 6.45771
#
# Compressibility (1/GPa) = 0.02099441
#
# Stress axis : x y z
#
# Youngs Moduli (GPa) = 85.55786 85.59725 73.21560
#
# Poissons Ratio (x) = -0.03449 0.33432
# Poissons Ratio (y) = -0.03447 0.28217
# Poissons Ratio (z) = 0.39068 0.32989
#
# Static dielectric constant tensor:
#      x y z
#    x 1.789140 0.000000 0.000000 
#    y 0.000000 1.785580 0.000000 
#    z 0.000000 0.000000 1.737770 
# 
# From -- ./inp_files/29697.got.cif
#   From: 2010.05.17/outbox.cif.g08.bks.cpg/sg52_15_cif.got.tgz:29697.got - 2010.06.03 12:15:38.
