data_PCOD9410262
_publ_section_title
;
Structure prediction by ZEFSAII (Michael W. Deem and Ramdas Pophale) SiO2 
 PCOD9410262
Probable space group: P N N A
;
_chemical_formula_sum "Si O2"
_cell_formula_units_Z 48
_cell_length_a 16.334972
_cell_length_b 13.692602
_cell_length_c 8.617900
_cell_angle_alpha 90.000000
_cell_angle_beta 90.000000
_cell_angle_gamma 90.000000
_cell_volume 1927.550786
_symmetry_space_group_name_H-M "P N N A"
_symmetry_group_IT_number 52
_symmetry_cell_setting 'orthorhombic'
loop_
_space_group_symop_operation_xyz
x,y,z
1/2-x,-y,z
x,1/2-y,1/2-z
1/2-x,1/2+y,1/2-z
-x,-y,-z
1/2+x,y,-z
-x,1/2+y,1/2+z
1/2+x,1/2-y,1/2+z
loop_
_atom_site_type_symbol
_atom_site_label
_atom_site_fract_x
_atom_site_fract_y
_atom_site_fract_z
Si Si1 0.174523 0.563122 0.515177
Si Si2 0.967277 0.325298 0.431896
Si Si3 0.533674 0.250000 0.250000
Si Si4 0.343574 0.629464 0.960276
Si Si5 0.842957 0.465019 0.831116
Si Si6 0.320876 0.287774 0.982069
Si Si7 0.612661 0.250000 0.750000
O O1 0.250000 0.500000 0.576378
O O2 0.090029 0.582000 0.604841
O O3 0.145061 0.519707 0.350426
O O4 0.205855 0.675210 0.491804
O O5 0.908619 0.230944 0.401706
O O6 0.986445 0.310693 0.616053
O O7 0.051047 0.321105 0.341106
O O8 0.592331 0.323700 0.155995
O O9 0.379725 0.527986 0.027598
O O10 0.250623 0.649265 0.897787
O O11 0.338702 0.692730 0.119967
O O12 0.750000 0.500000 0.852296
O O13 0.845366 0.351494 0.869785
#
# Coordination Sequence:
#
# PCOD9410262 Si02
#       7
#     8   8   4   8   8   8   4
#     4   9  18  32  63  89 118 153 221 262 320 370
#     4   9  20  38  63  80 127 172 207 256 340 378
#     4  10  20  40  56  92 130 184 190 266 348 396
#     4  10  22  35  65  90 129 162 224 260 322 387
#     4   9  17  31  57  96 112 150 213 270 304 370
#     4   9  19  35  65  84 120 166 215 274 310 376
#     4  10  22  38  56  92 128 172 200 266 332 380
#
# _framework density 24.902069000000001
#
# number of rings (size 3 to 8) (size 9 to 14) (size 15 to 20)
#    1.000    1.667    0.000    1.500    7.000    0.667 
#    0.000    8.333    7.333    0.000    0.000    0.000 
#    0.000    0.000    0.000    0.000    0.000    0.000 
#
# Total GULP energy -267305.511919 kJ/mol
# GULP energy per Si atom -5568.864832 kJ/mol
# Density = 2.484539 g / cm^3
# Si number density = 24.902069 Si / 1000 Ang^3
#
#
#
# Elastic Constant Matrix: (Units=GPa)
#
#
# Indices 1 2 3 4 5 6 
#
# 1 56.5711 10.3918 11.1139 0.0000 0.0000 0.0000
# 2 10.3918 94.0921 12.6805 0.0000 0.0000 0.0000
# 3 11.1139 12.6805 80.1980 0.0000 0.0000 0.0000
# 4 0.0000 0.0000 0.0000 21.0558 0.0000 0.0000
# 5 0.0000 0.0000 0.0000 0.0000 -374.8270 0.0000
# 6 0.0000 0.0000 0.0000 0.0000 0.0000 31.3947
#
#
#
# Elastic Compliance Matrix: (Units=1/GPa)
#
#
# Indices 1 2 3 4 5 6 
#
# 1 0.018443 -0.001729 -0.002282 0.000000 0.000000 0.000000
# 2 -0.001729 0.011021 -0.001503 0.000000 0.000000 0.000000
# 3 -0.002282 -0.001503 0.013023 0.000000 0.000000 0.000000
# 4 0.000000 0.000000 0.000000 0.047493 0.000000 0.000000
# 5 0.000000 0.000000 0.000000 0.000000 -0.002668 0.000000
# 6 0.000000 0.000000 0.000000 0.000000 0.000000 0.031852
#
#
# Mechanical properties :
#
#
# Convention : Reuss Voigt Hill
#
# Bulk Modulus (GPa) = 31.78841 33.24820 32.51831
# Shear Modulus (GPa) = 35.54158 -51.36362 -7.91102
#
# Velocity S-wave (km/s) = 3.78200 -4.54654 -1.78431
# Velocity P-wave (km/s) = 5.64486 3.76574 2.97352
#
# Compressibility (1/GPa) = 0.03145800
#
# Stress axis : x y z
#
# Youngs Moduli (GPa) = 54.22132 90.73236 76.78671
#
# Poissons Ratio (x) = 0.15690 0.17526
# Poissons Ratio (y) = 0.09376 0.11541
# Poissons Ratio (z) = 0.12376 0.13637
#
# Static dielectric constant tensor:
#      x y z
#    x 1.989030 0.000000 0.000000 
#    y 0.000000 2.095610 0.000000 
#    z 0.000000 0.000000 2.040460 
# 
# From -- ./inp_files/13346.got.cif
#   From: 2010.05.17/outbox.cif.g08.bks.cpg/sg52_7_cif.got.tgz:13346.got - 2010.06.03 12:15:38.
