data_PCOD9410383
_publ_section_title
;
Structure prediction by ZEFSAII (Michael W. Deem and Ramdas Pophale) SiO2 
 PCOD9410383
Probable space group: P N N A
;
_chemical_formula_sum "Si O2"
_cell_formula_units_Z 52
_cell_length_a 26.338473
_cell_length_b 11.400106
_cell_length_c 8.146049
_cell_angle_alpha 90.000000
_cell_angle_beta 90.000000
_cell_angle_gamma 90.000000
_cell_volume 2445.943948
_symmetry_space_group_name_H-M "P N N A"
_symmetry_group_IT_number 52
_symmetry_cell_setting 'orthorhombic'
loop_
_space_group_symop_operation_xyz
x,y,z
1/2-x,-y,z
x,1/2-y,1/2-z
1/2-x,1/2+y,1/2-z
-x,-y,-z
1/2+x,y,-z
-x,1/2+y,1/2+z
1/2+x,1/2-y,1/2+z
loop_
_atom_site_type_symbol
_atom_site_label
_atom_site_fract_x
_atom_site_fract_y
_atom_site_fract_z
Si Si1 0.395504 0.481929 0.806973
Si Si2 0.805293 0.955975 0.097770
Si Si3 0.435429 0.750000 0.250000
Si Si4 0.896670 0.367126 0.851419
Si Si5 0.696111 0.457989 0.793757
Si Si6 0.992759 0.510264 0.804568
Si Si7 0.854494 0.719441 0.018950
O O1 0.349655 0.464769 0.678692
O O2 0.451208 0.500506 0.728969
O O3 0.401235 0.380627 0.948103
O O4 0.380306 0.606794 0.892106
O O5 0.750000 0.000000 0.161300
O O6 0.801634 0.956928 0.901726
O O7 0.825281 0.821633 0.116562
O O8 0.469304 0.636354 0.228474
O O9 0.399568 0.772056 0.092481
O O10 0.885063 0.250000 0.750000
O O11 0.849959 0.454546 0.826302
O O12 0.948767 0.416143 0.770932
O O13 0.750000 0.500000 0.859157
O O14 0.683708 0.339414 0.889158
O O15 0.000000 0.500000 0.000000
#
# Coordination Sequence:
#
# PCOD9410383 Si02
#       7
#     8   8   4   8   8   8   8
#     4  10  23  43  62  94 138 169 222 270 344 404
#     4  11  23  40  63  98 135 166 220 277 340 403
#     4  12  18  40  76  90 128 174 228 280 320 396
#     4  10  21  41  64  91 129 171 222 275 324 391
#     4  10  21  39  63  92 125 170 235 271 325 402
#     4  10  20  41  65  98 130 167 224 278 332 401
#     4  11  20  41  70  91 124 184 230 271 323 405
#
# _framework density 21.259685999999999
#
# number of rings (size 3 to 8) (size 9 to 14) (size 15 to 20)
#    0.000    1.538    6.154    0.462    0.000    6.154 
#    5.538    4.615    0.000    0.000    0.000    0.000 
#    0.000    0.000    0.000    0.000    0.000    0.000 
#
# Total GULP energy -289660.575179 kJ/mol
# GULP energy per Si atom -5570.395677 kJ/mol
# Density = 2.121130 g / cm^3
# Si number density = 21.259686 Si / 1000 Ang^3
#
#
#
# Elastic Constant Matrix: (Units=GPa)
#
#
# Indices 1 2 3 4 5 6 
#
# 1 165.6052 33.7890 31.7139 0.0000 0.0000 0.0000
# 2 33.7890 86.2061 31.6576 0.0000 0.0000 0.0000
# 3 31.7139 31.6576 43.3383 0.0000 0.0000 0.0000
# 4 0.0000 0.0000 0.0000 34.6254 0.0000 0.0000
# 5 0.0000 0.0000 0.0000 0.0000 20.8717 0.0000
# 6 0.0000 0.0000 0.0000 0.0000 0.0000 20.6852
#
#
#
# Elastic Compliance Matrix: (Units=1/GPa)
#
#
# Indices 1 2 3 4 5 6 
#
# 1 0.007112 -0.001198 -0.004329 0.000000 0.000000 0.000000
# 2 -0.001198 0.016054 -0.010851 0.000000 0.000000 0.000000
# 3 -0.004329 -0.010851 0.034169 0.000000 0.000000 0.000000
# 4 0.000000 0.000000 0.000000 0.028881 0.000000 0.000000
# 5 0.000000 0.000000 0.000000 0.000000 0.047912 0.000000
# 6 0.000000 0.000000 0.000000 0.000000 0.000000 0.048344
#
#
# Mechanical properties :
#
#
# Convention : Reuss Voigt Hill
#
# Bulk Modulus (GPa) = 40.68513 54.38561 47.53537
# Shear Modulus (GPa) = 22.37937 28.43574 25.40756
#
# Velocity S-wave (km/s) = 3.24800 3.66121 3.46078
# Velocity P-wave (km/s) = 5.76583 6.59619 6.19494
#
# Compressibility (1/GPa) = 0.02457901
#
# Stress axis : x y z
#
# Youngs Moduli (GPa) = 140.60897 62.28861 29.26653
#
# Poissons Ratio (x) = 0.07460 0.12671
# Poissons Ratio (y) = 0.16840 0.31757
# Poissons Ratio (z) = 0.60876 0.67588
#
# Static dielectric constant tensor:
#      x y z
#    x 2.183340 0.000000 0.000000 
#    y 0.000000 1.770220 0.000000 
#    z 0.000000 0.000000 1.894210 
# 
# From -- ./inp_files/15022.got.cif
#   From: 2010.05.17/outbox.cif.g08.bks.cpg/sg52_8_cif.got.tgz:15022.got - 2010.06.03 12:15:38.
