data_PCOD9410433
_publ_section_title
;
Structure prediction by ZEFSAII (Michael W. Deem and Ramdas Pophale) SiO2 
 PCOD9410433
Probable space group: P N N A
;
_chemical_formula_sum "Si O2"
_cell_formula_units_Z 48
_cell_length_a 27.653976
_cell_length_b 5.167279
_cell_length_c 15.312709
_cell_angle_alpha 90.000000
_cell_angle_beta 90.000000
_cell_angle_gamma 90.000000
_cell_volume 2188.121947
_symmetry_space_group_name_H-M "P N N A"
_symmetry_group_IT_number 52
_symmetry_cell_setting 'orthorhombic'
loop_
_space_group_symop_operation_xyz
x,y,z
1/2-x,-y,z
x,1/2-y,1/2-z
1/2-x,1/2+y,1/2-z
-x,-y,-z
1/2+x,y,-z
-x,1/2+y,1/2+z
1/2+x,1/2-y,1/2+z
loop_
_atom_site_type_symbol
_atom_site_label
_atom_site_fract_x
_atom_site_fract_y
_atom_site_fract_z
Si Si1 0.625418 0.778838 0.074441
Si Si2 0.044916 0.250000 0.250000
Si Si3 0.511225 0.749124 0.060006
Si Si4 0.250000 0.000000 0.639422
Si Si5 0.681794 0.262481 0.015689
Si Si6 0.694395 0.444411 0.823976
Si Si7 0.114683 0.750000 0.250000
Si Si8 0.669958 0.750000 0.250000
O O1 0.568662 0.755906 0.070482
O O2 0.649507 0.505993 0.048171
O O3 0.638189 0.861527 0.173315
O O4 0.650748 0.004248 0.020066
O O5 0.078863 0.505021 0.258646
O O6 0.014644 0.261239 0.156912
O O7 0.500000 0.500000 0.000000
O O8 0.500000 0.000000 0.000000
O O9 0.270050 0.776529 0.575742
O O10 0.205865 0.943611 0.702491
O O11 0.696355 0.314279 0.917342
O O12 0.750000 0.500000 0.800434
O O13 0.676086 0.250000 0.750000
O O14 0.654434 0.673865 0.824666
#
# Coordination Sequence:
#
# PCOD9410433 Si02
#       8
#     8   4   8   4   8   8   4   4
#     4  11  26  45  73 104 139 191 235 305 357 451
#     4  12  29  51  76 114 150 194 253 327 382 458
#     4  12  28  49  78 108 149 192 252 315 391 450
#     4  10  20  42  66 108 142 192 226 300 348 436
#     4  11  26  42  70 104 146 184 243 290 365 429
#     4  12  27  46  70 104 147 197 246 302 360 440
#     4  12  28  45  76 103 145 200 245 306 376 442
#     4  10  21  42  72 101 145 182 244 275 372 426
#
# _framework density 21.936622
#
# number of rings (size 3 to 8) (size 9 to 14) (size 15 to 20)
#    0.000    0.667    2.500    3.500    9.333    4.000 
#    0.000    5.000    0.000    0.000    0.000    0.000 
#    0.000    0.000    0.000    0.000    0.000    0.000 
#
# Total GULP energy -268037.440720 kJ/mol
# GULP energy per Si atom -5584.113348 kJ/mol
# Density = 2.188669 g / cm^3
# Si number density = 21.936622 Si / 1000 Ang^3
#
#
#
# Elastic Constant Matrix: (Units=GPa)
#
#
# Indices 1 2 3 4 5 6 
#
# 1 144.3193 61.6019 29.9609 0.0000 0.0000 0.0000
# 2 61.6019 129.5032 33.5201 0.0000 0.0000 0.0000
# 3 29.9609 33.5201 128.7434 0.0000 0.0000 0.0000
# 4 0.0000 0.0000 0.0000 11.4145 0.0000 0.0000
# 5 0.0000 0.0000 0.0000 0.0000 65.6764 0.0000
# 6 0.0000 0.0000 0.0000 0.0000 0.0000 19.9340
#
#
#
# Elastic Compliance Matrix: (Units=1/GPa)
#
#
# Indices 1 2 3 4 5 6 
#
# 1 0.008820 -0.003929 -0.001030 0.000000 0.000000 0.000000
# 2 -0.003929 0.010030 -0.001697 0.000000 0.000000 0.000000
# 3 -0.001030 -0.001697 0.008449 0.000000 0.000000 0.000000
# 4 0.000000 0.000000 0.000000 0.087608 0.000000 0.000000
# 5 0.000000 0.000000 0.000000 0.000000 0.015226 0.000000
# 6 0.000000 0.000000 0.000000 0.000000 0.000000 0.050166
#
#
# Mechanical properties :
#
#
# Convention : Reuss Voigt Hill
#
# Bulk Modulus (GPa) = 71.49263 72.52576 72.00920
# Shear Modulus (GPa) = 25.21791 37.90384 31.56087
#
# Velocity S-wave (km/s) = 3.39422 4.16129 3.79717
# Velocity P-wave (km/s) = 6.92981 7.49811 7.21956
#
# Compressibility (1/GPa) = 0.01398745
#
# Stress axis : x y z
#
# Youngs Moduli (GPa) = 113.38042 99.70093 118.35920
#
# Poissons Ratio (x) = 0.39172 0.12186
# Poissons Ratio (y) = 0.44546 0.20087
# Poissons Ratio (z) = 0.11674 0.16920
#
# Static dielectric constant tensor:
#      x y z
#    x 1.810970 0.000000 0.000000 
#    y 0.000000 1.866210 0.000000 
#    z 0.000000 0.000000 1.838940 
# 
# From -- ./inp_files/29495.got.cif
#   From: 2010.05.17/outbox.cif.g08.bks.cpg/sg52_15_cif.got.tgz:29495.got - 2010.06.03 12:15:38.
