data_PCOD9410802
_publ_section_title
;
Structure prediction by ZEFSAII (Michael W. Deem and Ramdas Pophale) SiO2 
 PCOD9410802
Probable space group: P N N A
;
_chemical_formula_sum "Si O2"
_cell_formula_units_Z 40
_cell_length_a 28.170257
_cell_length_b 11.418647
_cell_length_c 5.268361
_cell_angle_alpha 90.000000
_cell_angle_beta 90.000000
_cell_angle_gamma 90.000000
_cell_volume 1694.653772
_symmetry_space_group_name_H-M "P N N A"
_symmetry_group_IT_number 52
_symmetry_cell_setting 'orthorhombic'
loop_
_space_group_symop_operation_xyz
x,y,z
1/2-x,-y,z
x,1/2-y,1/2-z
1/2-x,1/2+y,1/2-z
-x,-y,-z
1/2+x,y,-z
-x,1/2+y,1/2+z
1/2+x,1/2-y,1/2+z
loop_
_atom_site_type_symbol
_atom_site_label
_atom_site_fract_x
_atom_site_fract_y
_atom_site_fract_z
Si Si1 0.237643 0.872753 0.898260
Si Si2 0.629978 0.918171 0.019907
Si Si3 0.464756 0.824437 0.501538
Si Si4 0.072353 0.588311 0.019747
Si Si5 0.661351 0.176967 0.988699
O O1 0.237603 0.750000 0.750000
O O2 0.283979 0.860540 0.074349
O O3 0.250000 0.000000 0.764301
O O4 0.184757 0.880417 0.006839
O O5 0.598754 0.883558 0.780578
O O6 0.605830 0.880901 0.282699
O O7 0.632414 0.059120 0.024472
O O8 0.451744 0.750000 0.750000
O O9 0.521121 0.851833 0.510545
O O10 0.438384 0.948842 0.492470
O O11 0.456857 0.750000 0.250000
O O12 0.661251 0.250000 0.250000
O O13 0.644439 0.250000 0.750000
#
# Coordination Sequence:
#
# PCOD9410802 Si02
#       5
#     8   8   8   8   8
#     4   9  21  41  65  95 134 179 221 268 326 385
#     4  11  23  39  63  94 129 164 211 273 325 379
#     4  11  24  44  67  89 125 170 208 260 329 394
#     4  11  25  42  63  97 127 160 215 267 322 391
#     4  10  21  38  60  89 127 171 217 262 318 386
#
# _framework density 23.603643999999999
#
# number of rings (size 3 to 8) (size 9 to 14) (size 15 to 20)
#    0.000    1.600    0.000    3.600    0.000   13.600 
#    0.000   11.000    0.000    0.000    0.000    0.000 
#    0.000    0.000    0.000    0.000    0.000    0.000 
#
# Total GULP energy -223904.165472 kJ/mol
# GULP energy per Si atom -5597.604137 kJ/mol
# Density = 2.354992 g / cm^3
# Si number density = 23.603644 Si / 1000 Ang^3
#
#
#
# Elastic Constant Matrix: (Units=GPa)
#
#
# Indices 1 2 3 4 5 6 
#
# 1 140.8038 5.3676 15.3705 0.0000 0.0000 0.0000
# 2 5.3676 132.4346 6.6455 0.0000 0.0000 0.0000
# 3 15.3705 6.6455 113.4047 0.0000 0.0000 0.0000
# 4 0.0000 0.0000 0.0000 -56.5595 0.0000 0.0000
# 5 0.0000 0.0000 0.0000 0.0000 -0.4381 0.0000
# 6 0.0000 0.0000 0.0000 0.0000 0.0000 -30.0380
#
#
#
# Elastic Compliance Matrix: (Units=1/GPa)
#
#
# Indices 1 2 3 4 5 6 
#
# 1 0.007217 -0.000244 -0.000964 0.000000 0.000000 0.000000
# 2 -0.000244 0.007581 -0.000411 0.000000 0.000000 0.000000
# 3 -0.000964 -0.000411 0.008973 0.000000 0.000000 0.000000
# 4 0.000000 0.000000 0.000000 -0.017680 0.000000 0.000000
# 5 0.000000 0.000000 0.000000 0.000000 -2.282464 0.000000
# 6 0.000000 0.000000 0.000000 0.000000 0.000000 -0.033291
#
#
# Mechanical properties :
#
#
# Convention : Reuss Voigt Hill
#
# Bulk Modulus (GPa) = 48.70329 49.04559 48.87444
# Shear Modulus (GPa) = -2.17431 6.54351 2.18460
#
# Velocity S-wave (km/s) = -0.96082 1.66681 0.96309
# Velocity P-wave (km/s) = 4.40995 4.95260 4.68914
#
# Compressibility (1/GPa) = 0.02053249
#
# Stress axis : x y z
#
# Youngs Moduli (GPa) = 138.56948 131.90138 111.44914
#
# Poissons Ratio (x) = 0.03220 0.10742
# Poissons Ratio (y) = 0.03383 0.04583
# Poissons Ratio (z) = 0.13355 0.05424
#
# Static dielectric constant tensor:
#      x y z
#    x 1.890210 0.000000 0.000000 
#    y 0.000000 1.850420 0.000000 
#    z 0.000000 0.000000 1.816180 
# 
# From -- ./inp_files/5594.got.cif
#   From: 2010.05.17/outbox.cif.g08.bks.cpg/sg52_3_cif.got.tgz:5594.got - 2010.06.03 12:15:38.
