data_PCOD9410563
_publ_section_title
;
Structure prediction by ZEFSAII (Michael W. Deem and Ramdas Pophale) SiO2 
 PCOD9410563
Probable space group: P N N A
;
_chemical_formula_sum "Si O2"
_cell_formula_units_Z 48
_cell_length_a 10.177689
_cell_length_b 16.651441
_cell_length_c 13.314369
_cell_angle_alpha 90.000000
_cell_angle_beta 90.000000
_cell_angle_gamma 90.000000
_cell_volume 2256.428559
_symmetry_space_group_name_H-M "P N N A"
_symmetry_group_IT_number 52
_symmetry_cell_setting 'orthorhombic'
loop_
_space_group_symop_operation_xyz
x,y,z
1/2-x,-y,z
x,1/2-y,1/2-z
1/2-x,1/2+y,1/2-z
-x,-y,-z
1/2+x,y,-z
-x,1/2+y,1/2+z
1/2+x,1/2-y,1/2+z
loop_
_atom_site_type_symbol
_atom_site_label
_atom_site_fract_x
_atom_site_fract_y
_atom_site_fract_z
Si Si1 0.792890 0.394877 0.092802
Si Si2 0.518318 0.893916 0.582896
Si Si3 0.870525 0.443739 0.321705
Si Si4 0.274295 0.216184 0.863118
Si Si5 0.118696 0.947995 0.197434
Si Si6 0.522350 0.786372 0.861830
O O1 0.637438 0.414383 0.083936
O O2 0.842637 0.420936 0.203669
O O3 0.792099 0.298316 0.078884
O O4 0.893328 0.425552 0.008488
O O5 0.581745 0.923165 0.687717
O O6 0.527468 0.796405 0.577241
O O7 0.750000 0.500000 0.353429
O O8 0.870621 0.358044 0.377455
O O9 0.001575 0.493567 0.335444
O O10 0.285060 0.250000 0.750000
O O11 0.126858 0.182736 0.873616
O O12 0.116156 0.863984 0.135113
O O13 0.250000 0.000000 0.193323
O O14 0.534977 0.750000 0.750000
#
# Coordination Sequence:
#
# PCOD9410563 Si02
#       6
#     8   8   8   8   8   8
#     4  10  21  35  54  78 105 141 174 209 257 312
#     4  10  21  37  54  75 107 142 173 207 257 315
#     4  11  18  34  56  78 101 132 176 213 257 307
#     4   8  15  32  55  74  95 135 182 213 241 304
#     4  11  22  34  52  83 107 135 169 220 268 299
#     4   8  15  34  55  70  98 139 177 206 254 306
#
# _framework density 21.272556000000002
#
# number of rings (size 3 to 8) (size 9 to 14) (size 15 to 20)
#    0.000    2.333    3.333    2.000    2.333    1.333 
#    3.000    2.500    0.000    2.000    0.000    0.000 
#    0.000    0.000    0.000    0.000    0.000    0.000 
#
# Total GULP energy -267523.041200 kJ/mol
# GULP energy per Si atom -5573.396692 kJ/mol
# Density = 2.122414 g / cm^3
# Si number density = 21.272556 Si / 1000 Ang^3
#
#
#
# Elastic Constant Matrix: (Units=GPa)
#
#
# Indices 1 2 3 4 5 6 
#
# 1 117.9211 37.8505 4.8721 0.0000 0.0000 0.0000
# 2 37.8505 142.6763 -5.1823 0.0000 0.0000 0.0000
# 3 4.8721 -5.1823 12.4931 0.0000 0.0000 0.0000
# 4 0.0000 0.0000 0.0000 19.6292 0.0000 0.0000
# 5 0.0000 0.0000 0.0000 0.0000 9.5092 0.0000
# 6 0.0000 0.0000 0.0000 0.0000 0.0000 49.0051
#
#
#
# Elastic Compliance Matrix: (Units=1/GPa)
#
#
# Indices 1 2 3 4 5 6 
#
# 1 0.009550 -0.002710 -0.004848 0.000000 0.000000 0.000000
# 2 -0.002710 0.007885 0.004327 0.000000 0.000000 0.000000
# 3 -0.004848 0.004327 0.083730 0.000000 0.000000 0.000000
# 4 0.000000 0.000000 0.000000 0.050944 0.000000 0.000000
# 5 0.000000 0.000000 0.000000 0.000000 0.105162 0.000000
# 6 0.000000 0.000000 0.000000 0.000000 0.000000 0.020406
#
#
# Mechanical properties :
#
#
# Convention : Reuss Voigt Hill
#
# Bulk Modulus (GPa) = 10.55920 38.68569 24.62245
# Shear Modulus (GPa) = 15.83747 31.33204 23.58476
#
# Velocity S-wave (km/s) = 2.73152 3.84198 3.33332
# Velocity P-wave (km/s) = 3.86300 6.15681 5.13951
#
# Compressibility (1/GPa) = 0.09470412
#
# Stress axis : x y z
#
# Youngs Moduli (GPa) = 104.70839 126.82454 11.94311
#
# Poissons Ratio (x) = 0.34366 0.05791
# Poissons Ratio (y) = 0.28373 -0.05168
# Poissons Ratio (z) = 0.50768 -0.54883
#
# Static dielectric constant tensor:
#      x y z
#    x 1.727750 0.000000 0.000000 
#    y 0.000000 1.817400 0.000000 
#    z 0.000000 0.000000 1.839800 
# 
# From -- ./inp_files/24744.got.cif
#   From: 2010.05.17/outbox.cif.g08.bks.cpg/sg52_13_cif.got.tgz:24744.got - 2010.06.03 12:15:38.
