data_PCOD9410602
_publ_section_title
;
Structure prediction by ZEFSAII (Michael W. Deem and Ramdas Pophale) SiO2 
 PCOD9410602
Probable space group: P N N A
;
_chemical_formula_sum "Si O2"
_cell_formula_units_Z 32
_cell_length_a 13.153455
_cell_length_b 5.000789
_cell_length_c 25.890287
_cell_angle_alpha 90.000000
_cell_angle_beta 90.000000
_cell_angle_gamma 90.000000
_cell_volume 1703.002316
_symmetry_space_group_name_H-M "P N N A"
_symmetry_group_IT_number 52
_symmetry_cell_setting 'orthorhombic'
loop_
_space_group_symop_operation_xyz
x,y,z
1/2-x,-y,z
x,1/2-y,1/2-z
1/2-x,1/2+y,1/2-z
-x,-y,-z
1/2+x,y,-z
-x,1/2+y,1/2+z
1/2+x,1/2-y,1/2+z
loop_
_atom_site_type_symbol
_atom_site_label
_atom_site_fract_x
_atom_site_fract_y
_atom_site_fract_z
Si Si1 0.036887 0.908140 0.596808
Si Si2 0.324914 0.251425 0.808242
Si Si3 0.180131 0.255097 0.432605
Si Si4 0.865374 0.567195 0.451583
O O1 0.091182 0.796029 0.648151
O O2 0.077425 0.713159 0.551889
O O3 0.917164 0.849624 0.599131
O O4 0.076582 0.205355 0.581988
O O5 0.250000 0.500000 0.811992
O O6 0.368525 0.250000 0.750000
O O7 0.250000 0.000000 0.814662
O O8 0.250000 0.500000 0.411850
O O9 0.143004 0.343353 0.489385
O O10 0.250000 0.000000 0.440294
O O11 0.750000 0.500000 0.433521
#
# Coordination Sequence:
#
# PCOD9410602 Si02
#       4
#     8   8   8   8
#     4  12  21  35  57  77 105 144 179 211 263 317
#     4  10  21  36  55  81 108 131 164 215 270 320
#     4  11  23  37  51  75 110 144 180 219 253 299
#     4  11  21  34  53  81 109 137 174 217 262 316
#
# _framework density 18.790344000000001
#
# number of rings (size 3 to 8) (size 9 to 14) (size 15 to 20)
#    0.000    1.000    0.000   10.500    0.000    0.000 
#    0.000    0.000    0.000    1.500    0.000    0.000 
#    0.000    0.000    0.000    0.000    0.000    0.000 
#
# Total GULP energy -178708.888130 kJ/mol
# GULP energy per Si atom -5584.652754 kJ/mol
# Density = 1.874758 g / cm^3
# Si number density = 18.790344 Si / 1000 Ang^3
#
#
#
# Elastic Constant Matrix: (Units=GPa)
#
#
# Indices 1 2 3 4 5 6 
#
# 1 76.6330 -10.0842 32.1264 0.0000 0.0000 0.0000
# 2 -10.0842 85.8065 -1.8463 0.0000 0.0000 0.0000
# 3 32.1264 -1.8463 81.4575 0.0000 0.0000 0.0000
# 4 0.0000 0.0000 0.0000 -15.2324 0.0000 0.0000
# 5 0.0000 0.0000 0.0000 0.0000 15.5013 0.0000
# 6 0.0000 0.0000 0.0000 0.0000 0.0000 32.2535
#
#
#
# Elastic Compliance Matrix: (Units=1/GPa)
#
#
# Indices 1 2 3 4 5 6 
#
# 1 0.015888 0.001733 -0.006227 0.000000 0.000000 0.000000
# 2 0.001733 0.011849 -0.000415 0.000000 0.000000 0.000000
# 3 -0.006227 -0.000415 0.014723 0.000000 0.000000 0.000000
# 4 0.000000 0.000000 0.000000 -0.065650 0.000000 0.000000
# 5 0.000000 0.000000 0.000000 0.000000 0.064511 0.000000
# 6 0.000000 0.000000 0.000000 0.000000 0.000000 0.031004
#
#
# Mechanical properties :
#
#
# Convention : Reuss Voigt Hill
#
# Bulk Modulus (GPa) = 30.63519 31.58764 31.11141
# Shear Modulus (GPa) = 53.75042 21.41789 37.58415
#
# Velocity S-wave (km/s) = 5.35420 3.37981 4.47719
# Velocity P-wave (km/s) = 7.38663 5.66373 6.58180
#
# Compressibility (1/GPa) = 0.03264220
#
# Stress axis : x y z
#
# Youngs Moduli (GPa) = 62.94192 84.39612 67.92225
#
# Poissons Ratio (x) = -0.14627 0.42293
# Poissons Ratio (y) = -0.10909 0.02819
# Poissons Ratio (z) = 0.39192 0.03502
#
# Static dielectric constant tensor:
#      x y z
#    x 1.721850 0.000000 0.000000 
#    y 0.000000 1.652510 0.000000 
#    z 0.000000 0.000000 1.685410 
# 
# From -- ./inp_files/42464.got.cif
#   From: 2010.05.17/outbox.cif.g08.bks.cpg/sg52_22_cif.got.tgz:42464.got - 2010.06.03 12:15:38.
