data_PCOD9410343
_publ_section_title
;
Structure prediction by ZEFSAII (Michael W. Deem and Ramdas Pophale) SiO2 
 PCOD9410343
Probable space group: P N N A
;
_chemical_formula_sum "Si O2"
_cell_formula_units_Z 64
_cell_length_a 17.158218
_cell_length_b 27.277951
_cell_length_c 6.766741
_cell_angle_alpha 90.000000
_cell_angle_beta 90.000000
_cell_angle_gamma 90.000000
_cell_volume 3167.112426
_symmetry_space_group_name_H-M "P N N A"
_symmetry_group_IT_number 52
_symmetry_cell_setting 'orthorhombic'
loop_
_space_group_symop_operation_xyz
x,y,z
1/2-x,-y,z
x,1/2-y,1/2-z
1/2-x,1/2+y,1/2-z
-x,-y,-z
1/2+x,y,-z
-x,1/2+y,1/2+z
1/2+x,1/2-y,1/2+z
loop_
_atom_site_type_symbol
_atom_site_label
_atom_site_fract_x
_atom_site_fract_y
_atom_site_fract_z
Si Si1 0.624187 0.125075 0.029499
Si Si2 0.589157 0.697319 0.643191
Si Si3 0.327281 0.474953 0.692598
Si Si4 0.202755 0.892263 0.118938
Si Si5 0.593726 0.952517 0.587161
Si Si6 0.969377 0.632897 0.100840
Si Si7 0.569773 0.470622 0.597275
Si Si8 0.968882 0.694848 0.696624
O O1 0.705325 0.113703 0.920653
O O2 0.608914 0.123625 0.266761
O O3 0.561854 0.086679 0.934880
O O4 0.596065 0.177364 0.957166
O O5 0.603112 0.750000 0.750000
O O6 0.663070 0.661020 0.633235
O O7 0.524556 0.669571 0.775151
O O8 0.550832 0.697532 0.423757
O O9 0.250000 0.500000 0.779408
O O10 0.320735 0.424713 0.571181
O O11 0.356028 0.514968 0.535594
O O12 0.386841 0.463939 0.863952
O O13 0.165236 0.923727 0.301363
O O14 0.518239 0.917737 0.597582
O O15 0.582164 0.004651 0.693300
O O16 0.963591 0.659144 0.887863
O O17 0.500000 0.500000 0.500000
O O18 0.951175 0.750000 0.750000
#
# Coordination Sequence:
#
# PCOD9410343 Si02
#       8
#     8   8   8   8   8   8   8   8
#     4  11  24  39  60  89 133 166 200 260 318 373
#     4  10  20  40  69  88 118 157 205 259 312 374
#     4  11  23  38  61  87 126 171 208 255 311 368
#     4  10  23  42  58  91 130 161 203 257 314 371
#     4  10  23  37  65  90 123 167 219 251 299 374
#     4  10  21  40  61  94 119 161 207 259 308 370
#     4  11  23  41  57  89 130 170 211 258 305 370
#     4  11  23  40  68  91 117 156 211 262 318 377
#
# _framework density 20.207681999999998
#
# number of rings (size 3 to 8) (size 9 to 14) (size 15 to 20)
#    0.000    1.500    3.750    0.750    5.250    3.000 
#    0.000    0.000    2.750    0.000    0.000    0.000 
#    0.000    0.000    0.000    0.000    0.000    0.000 
#
# Total GULP energy -356769.712764 kJ/mol
# GULP energy per Si atom -5574.526762 kJ/mol
# Density = 2.016169 g / cm^3
# Si number density = 20.207682 Si / 1000 Ang^3
#
#
#
# Elastic Constant Matrix: (Units=GPa)
#
#
# Indices 1 2 3 4 5 6 
#
# 1 51.3014 2.2084 6.4761 0.0000 0.0000 0.0000
# 2 2.2084 88.2948 30.0927 0.0000 0.0000 0.0000
# 3 6.4761 30.0927 96.2618 0.0000 0.0000 0.0000
# 4 0.0000 0.0000 0.0000 30.8155 0.0000 0.0000
# 5 0.0000 0.0000 0.0000 0.0000 22.5190 0.0000
# 6 0.0000 0.0000 0.0000 0.0000 0.0000 23.0725
#
#
#
# Elastic Compliance Matrix: (Units=1/GPa)
#
#
# Indices 1 2 3 4 5 6 
#
# 1 0.019660 -0.000046 -0.001308 0.000000 0.000000 0.000000
# 2 -0.000046 0.012676 -0.003960 0.000000 0.000000 0.000000
# 3 -0.001308 -0.003960 0.011714 0.000000 0.000000 0.000000
# 4 0.000000 0.000000 0.000000 0.032451 0.000000 0.000000
# 5 0.000000 0.000000 0.000000 0.000000 0.044407 0.000000
# 6 0.000000 0.000000 0.000000 0.000000 0.000000 0.043342
#
#
# Mechanical properties :
#
#
# Convention : Reuss Voigt Hill
#
# Bulk Modulus (GPa) = 29.91979 34.82359 32.37169
# Shear Modulus (GPa) = 26.87900 28.42012 27.64956
#
# Velocity S-wave (km/s) = 3.65106 3.75427 3.70303
# Velocity P-wave (km/s) = 5.71069 6.00525 5.85982
#
# Compressibility (1/GPa) = 0.03342270
#
# Stress axis : x y z
#
# Youngs Moduli (GPa) = 50.86525 78.88673 85.36635
#
# Poissons Ratio (x) = 0.00361 0.11169
# Poissons Ratio (y) = 0.00233 0.33803
# Poissons Ratio (z) = 0.06655 0.31237
#
# Static dielectric constant tensor:
#      x y z
#    x 1.795700 0.000000 0.000000 
#    y 0.000000 1.770580 0.000000 
#    z 0.000000 0.000000 1.749660 
# 
# From -- ./inp_files/3684.got.cif
#   From: 2010.05.17/outbox.cif.g08.bks.cpg/sg52_2_cif.got.tgz:3684.got - 2010.06.03 12:15:38.
