data_PCOD9410197
_publ_section_title
;
Structure prediction by ZEFSAII (Michael W. Deem and Ramdas Pophale) SiO2 
 PCOD9410197
Probable space group: P N N A
;
_chemical_formula_sum "Si O2"
_cell_formula_units_Z 32
_cell_length_a 13.664745
_cell_length_b 6.916563
_cell_length_c 11.847982
_cell_angle_alpha 90.000000
_cell_angle_beta 90.000000
_cell_angle_gamma 90.000000
_cell_volume 1119.789148
_symmetry_space_group_name_H-M "P N N A"
_symmetry_group_IT_number 52
_symmetry_cell_setting 'orthorhombic'
loop_
_space_group_symop_operation_xyz
x,y,z
1/2-x,-y,z
x,1/2-y,1/2-z
1/2-x,1/2+y,1/2-z
-x,-y,-z
1/2+x,y,-z
-x,1/2+y,1/2+z
1/2+x,1/2-y,1/2+z
loop_
_atom_site_type_symbol
_atom_site_label
_atom_site_fract_x
_atom_site_fract_y
_atom_site_fract_z
Si Si1 0.550371 0.773027 0.874947
Si Si2 0.624163 0.705362 0.372687
Si Si3 0.840350 0.757310 0.402169
Si Si4 0.655725 0.360867 0.635464
O O1 0.601343 0.750000 0.750000
O O2 0.445220 0.670005 0.859478
O O3 0.560161 0.006973 0.881017
O O4 0.586461 0.724478 0.002690
O O5 0.576942 0.750000 0.250000
O O6 0.732430 0.802057 0.361895
O O7 0.644891 0.475248 0.384943
O O8 0.839882 0.790532 0.535322
O O9 0.750000 0.500000 0.623272
O O10 0.657055 0.250000 0.750000
#
# Coordination Sequence:
#
# PCOD9410197 Si02
#       4
#     8   8   8   8
#     4  11  23  41  65  96 133 170 217 277 329 391
#     4  10  20  39  63  87 125 175 218 263 326 395
#     4  10  21  39  63  91 129 176 217 263 335 399
#     4  11  21  39  67  95 131 174 222 271 333 392
#
# _framework density 28.576809999999998
#
# number of rings (size 3 to 8) (size 9 to 14) (size 15 to 20)
#    0.000    1.500    5.000    4.500    0.000    4.000 
#    0.000   10.000    0.000    0.000    0.000    0.000 
#    0.000    0.000    0.000    0.000    0.000    0.000 
#
# Total GULP energy -178693.107495 kJ/mol
# GULP energy per Si atom -5584.159609 kJ/mol
# Density = 2.851177 g / cm^3
# Si number density = 28.576810 Si / 1000 Ang^3
#
#
#
# Elastic Constant Matrix: (Units=GPa)
#
#
# Indices 1 2 3 4 5 6 
#
# 1 156.3277 -19.7601 40.6070 0.0000 0.0000 0.0000
# 2 -19.7601 74.8120 22.4417 0.0000 0.0000 0.0000
# 3 40.6070 22.4417 341.4947 0.0000 0.0000 0.0000
# 4 0.0000 0.0000 0.0000 46.0416 0.0000 0.0000
# 5 0.0000 0.0000 0.0000 0.0000 303.0162 0.0000
# 6 0.0000 0.0000 0.0000 0.0000 0.0000 6.4379
#
#
#
# Elastic Compliance Matrix: (Units=1/GPa)
#
#
# Indices 1 2 3 4 5 6 
#
# 1 0.006914 0.002114 -0.000961 0.000000 0.000000 0.000000
# 2 0.002114 0.014282 -0.001190 0.000000 0.000000 0.000000
# 3 -0.000961 -0.001190 0.003121 0.000000 0.000000 0.000000
# 4 0.000000 0.000000 0.000000 0.021720 0.000000 0.000000
# 5 0.000000 0.000000 0.000000 0.000000 0.003300 0.000000
# 6 0.000000 0.000000 0.000000 0.000000 0.000000 0.155331
#
#
# Mechanical properties :
#
#
# Convention : Reuss Voigt Hill
#
# Bulk Modulus (GPa) = 41.24817 73.24574 57.24696
# Shear Modulus (GPa) = 23.49382 106.38884 64.94133
#
# Velocity S-wave (km/s) = 2.87039 6.10818 4.77227
# Velocity P-wave (km/s) = 5.04490 8.68524 7.10227
#
# Compressibility (1/GPa) = 0.02424350
#
# Stress axis : x y z
#
# Youngs Moduli (GPa) = 144.63985 70.01682 320.43224
#
# Poissons Ratio (x) = -0.14804 0.30795
# Poissons Ratio (y) = -0.30583 0.38131
# Poissons Ratio (z) = 0.13901 0.08332
#
# Static dielectric constant tensor:
#      x y z
#    x 2.415880 0.000000 0.000000 
#    y 0.000000 2.259430 0.000000 
#    z 0.000000 0.000000 2.216400 
# 
# From -- ./inp_files/18982.got.cif
#   From: 2010.05.17/outbox.cif.g08.bks.cpg/sg52_10_cif.got.tgz:18982.got - 2010.06.03 12:15:38.
