data_PCOD9410099
_publ_section_title
;
Structure prediction by ZEFSAII (Michael W. Deem and Ramdas Pophale) SiO2 
 PCOD9410099
Probable space group: P N N A
;
_chemical_formula_sum "Si O2"
_cell_formula_units_Z 48
_cell_length_a 14.434093
_cell_length_b 17.938366
_cell_length_c 8.640840
_cell_angle_alpha 90.000000
_cell_angle_beta 90.000000
_cell_angle_gamma 90.000000
_cell_volume 2237.321229
_symmetry_space_group_name_H-M "P N N A"
_symmetry_group_IT_number 52
_symmetry_cell_setting 'orthorhombic'
loop_
_space_group_symop_operation_xyz
x,y,z
1/2-x,-y,z
x,1/2-y,1/2-z
1/2-x,1/2+y,1/2-z
-x,-y,-z
1/2+x,y,-z
-x,1/2+y,1/2+z
1/2+x,1/2-y,1/2+z
loop_
_atom_site_type_symbol
_atom_site_label
_atom_site_fract_x
_atom_site_fract_y
_atom_site_fract_z
Si Si1 0.489369 0.386688 0.250603
Si Si2 0.146024 0.502264 0.070807
Si Si3 0.357014 0.491358 0.714131
Si Si4 0.626495 0.333091 0.035720
Si Si5 0.231226 0.750000 0.750000
Si Si6 0.422271 0.341728 0.574342
Si Si7 0.574440 0.250000 0.750000
O O1 0.421727 0.448628 0.174858
O O2 0.581499 0.433938 0.299424
O O3 0.527555 0.329858 0.121693
O O4 0.445851 0.343742 0.393778
O O5 0.250000 0.500000 0.134416
O O6 0.144260 0.533988 0.895083
O O7 0.124853 0.415851 0.036891
O O8 0.250000 0.500000 0.669089
O O9 0.403054 0.427067 0.616296
O O10 0.704820 0.309582 0.158534
O O11 0.633728 0.278799 0.891916
O O12 0.165320 0.707315 0.628332
O O13 0.507399 0.312685 0.678026
#
# Coordination Sequence:
#
# PCOD9410099 Si02
#       7
#     8   8   8   8   4   8   4
#     4  11  22  39  66  93 124 166 217 274 326 385
#     4  10  21  38  63  92 126 166 213 272 327 383
#     4  10  20  38  64  90 124 165 210 271 324 374
#     4  11  23  42  64  91 127 172 220 262 324 383
#     4  11  24  42  62  93 136 174 210 263 318 399
#     4  11  23  39  61  92 127 164 209 259 324 386
#     4  11  24  40  62  85 122 170 210 259 312 395
#
# _framework density 21.454228000000001
#
# number of rings (size 3 to 8) (size 9 to 14) (size 15 to 20)
#    0.000    1.333    0.000    8.500    0.000    3.333 
#    0.000    1.667    0.000    0.000    0.000    0.000 
#    0.000    0.000    0.000    0.000    0.000    0.000 
#
# Total GULP energy -268212.534052 kJ/mol
# GULP energy per Si atom -5587.761126 kJ/mol
# Density = 2.140540 g / cm^3
# Si number density = 21.454228 Si / 1000 Ang^3
#
#
#
# Elastic Constant Matrix: (Units=GPa)
#
#
# Indices 1 2 3 4 5 6 
#
# 1 92.4466 19.8707 52.8560 0.0000 0.0000 0.0000
# 2 19.8707 62.8668 41.5737 0.0000 0.0000 0.0000
# 3 52.8560 41.5737 104.9421 0.0000 0.0000 0.0000
# 4 0.0000 0.0000 0.0000 32.1445 0.0000 0.0000
# 5 0.0000 0.0000 0.0000 0.0000 30.2443 0.0000
# 6 0.0000 0.0000 0.0000 0.0000 0.0000 16.0057
#
#
#
# Elastic Compliance Matrix: (Units=1/GPa)
#
#
# Indices 1 2 3 4 5 6 
#
# 1 0.015198 0.000350 -0.007793 0.000000 0.000000 0.000000
# 2 0.000350 0.021561 -0.008718 0.000000 0.000000 0.000000
# 3 -0.007793 -0.008718 0.016908 0.000000 0.000000 0.000000
# 4 0.000000 0.000000 0.000000 0.031110 0.000000 0.000000
# 5 0.000000 0.000000 0.000000 0.000000 0.033064 0.000000
# 6 0.000000 0.000000 0.000000 0.000000 0.000000 0.062478
#
#
# Mechanical properties :
#
#
# Convention : Reuss Voigt Hill
#
# Bulk Modulus (GPa) = 46.85059 54.31737 50.58398
# Shear Modulus (GPa) = 22.75262 25.40924 24.08093
#
# Velocity S-wave (km/s) = 3.26009 3.44517 3.35391
# Velocity P-wave (km/s) = 6.00465 6.41859 6.21507
#
# Compressibility (1/GPa) = 0.02134445
#
# Stress axis : x y z
#
# Youngs Moduli (GPa) = 65.80014 46.37968 59.14389
#
# Poissons Ratio (x) = -0.01623 0.46092
# Poissons Ratio (y) = -0.02303 0.51561
# Poissons Ratio (z) = 0.51279 0.40434
#
# Static dielectric constant tensor:
#      x y z
#    x 1.785000 0.000000 0.000000 
#    y 0.000000 1.802150 0.000000 
#    z 0.000000 0.000000 1.771270 
# 
# From -- ./inp_files/10545.got.cif
#   From: 2010.05.17/outbox.cif.g08.bks.cpg/sg52_6_cif.got.tgz:10545.got - 2010.06.03 12:15:38.
