data_PCOD9410020
_publ_section_title
;
Structure prediction by ZEFSAII (Michael W. Deem and Ramdas Pophale) SiO2 
 PCOD9410020
Probable space group: P N N A
;
_chemical_formula_sum "Si O2"
_cell_formula_units_Z 48
_cell_length_a 23.471692
_cell_length_b 8.024817
_cell_length_c 10.641773
_cell_angle_alpha 90.000000
_cell_angle_beta 90.000000
_cell_angle_gamma 90.000000
_cell_volume 2004.442146
_symmetry_space_group_name_H-M "P N N A"
_symmetry_group_IT_number 52
_symmetry_cell_setting 'orthorhombic'
loop_
_space_group_symop_operation_xyz
x,y,z
1/2-x,-y,z
x,1/2-y,1/2-z
1/2-x,1/2+y,1/2-z
-x,-y,-z
1/2+x,y,-z
-x,1/2+y,1/2+z
1/2+x,1/2-y,1/2+z
loop_
_atom_site_type_symbol
_atom_site_label
_atom_site_fract_x
_atom_site_fract_y
_atom_site_fract_z
Si Si1 0.679955 0.130405 0.939665
Si Si2 0.750000 0.000000 0.156136
Si Si3 0.158551 0.750000 0.750000
Si Si4 0.033232 0.361474 0.145043
Si Si5 0.012357 0.292658 0.888971
Si Si6 0.384774 0.208476 0.023028
Si Si7 0.656483 0.480743 0.828579
O O1 0.668946 0.325995 0.919901
O O2 0.691535 0.058575 0.797789
O O3 0.635702 0.982611 0.976573
O O4 0.724129 0.128343 0.054393
O O5 0.700873 0.908805 0.233957
O O6 0.122590 0.764180 0.621563
O O7 0.006704 0.250000 0.250000
O O8 0.990658 0.508803 0.118239
O O9 0.090040 0.441967 0.202728
O O10 0.046175 0.261291 0.017335
O O11 0.032481 0.250000 0.750000
O O12 0.948576 0.225571 0.920536
O O13 0.345778 0.336947 0.107272
#
# Coordination Sequence:
#
# PCOD9410020 Si02
#       7
#     8   4   4   8   8   8   8
#     4  10  20  40  61  90 112 154 201 251 306 369
#     4  10  24  42  58  88 122 146 210 256 304 388
#     4  10  24  42  62  88 122 162 200 254 316 366
#     4  10  20  38  59  90 126 157 206 250 293 366
#     4  10  22  37  60  90 125 163 204 252 300 353
#     4  10  21  40  62  88 122 161 203 244 303 366
#     4  10  20  39  66  87 122 159 196 252 306 350
#
# _framework density 23.946814
#
# number of rings (size 3 to 8) (size 9 to 14) (size 15 to 20)
#    0.000    2.000    1.667    2.500    3.500    0.667 
#   12.000    3.333    0.000    0.000    0.000    0.000 
#    0.000    0.000    0.000    0.000    0.000    0.000 
#
# Total GULP energy -267398.293699 kJ/mol
# GULP energy per Si atom -5570.797785 kJ/mol
# Density = 2.389231 g / cm^3
# Si number density = 23.946814 Si / 1000 Ang^3
#
#
#
# Elastic Constant Matrix: (Units=GPa)
#
#
# Indices 1 2 3 4 5 6 
#
# 1 39.5401 4.4175 7.2301 0.0000 0.0000 0.0000
# 2 4.4175 82.7794 15.9124 0.0000 0.0000 0.0000
# 3 7.2301 15.9124 147.5439 0.0000 0.0000 0.0000
# 4 0.0000 0.0000 0.0000 22.1637 0.0000 0.0000
# 5 0.0000 0.0000 0.0000 0.0000********** 0.0000
# 6 0.0000 0.0000 0.0000 0.0000 0.0000 33.3969
#
#
#
# Elastic Compliance Matrix: (Units=1/GPa)
#
#
# Indices 1 2 3 4 5 6 
#
# 1 0.025626 -0.001150 -0.001132 0.000000 0.000000 0.000000
# 2 -0.001150 0.012388 -0.001280 0.000000 0.000000 0.000000
# 3 -0.001132 -0.001280 0.006971 0.000000 0.000000 0.000000
# 4 0.000000 0.000000 0.000000 0.045119 0.000000 0.000000
# 5 0.000000 0.000000 0.000000 0.000000 0.000002 0.000000
# 6 0.000000 0.000000 0.000000 0.000000 0.000000 0.029943
#
#
# Mechanical properties :
#
#
# Convention : Reuss Voigt Hill
#
# Bulk Modulus (GPa) = 26.41154 36.10928 31.26041
# Shear Modulus (GPa) = 35.76742 106118.09677 53076.93210
#
# Velocity S-wave (km/s) = 3.86893 210.73747 149.03900
# Velocity P-wave (km/s) = 5.56878 243.36971 172.13342
#
# Compressibility (1/GPa) = 0.03786223
#
# Stress axis : x y z
#
# Youngs Moduli (GPa) = 39.02253 80.72561 143.44917
#
# Poissons Ratio (x) = 0.09283 0.16235
# Poissons Ratio (y) = 0.04488 0.18356
# Poissons Ratio (z) = 0.04416 0.10330
#
# Static dielectric constant tensor:
#      x y z
#    x 2.041490 0.000000 0.000000 
#    y 0.000000 1.933600 0.000000 
#    z 0.000000 0.000000 2.638040 
# 
# From -- ./inp_files/15587.got.cif
#   From: 2010.05.17/outbox.cif.g08.bks.cpg/sg52_8_cif.got.tgz:15587.got - 2010.06.03 12:15:38.
