data_PCOD9410210
_publ_section_title
;
Structure prediction by ZEFSAII (Michael W. Deem and Ramdas Pophale) SiO2 
 PCOD9410210
Probable space group: P N N A
;
_chemical_formula_sum "Si O2"
_cell_formula_units_Z 64
_cell_length_a 19.753865
_cell_length_b 9.971152
_cell_length_c 17.152403
_cell_angle_alpha 90.000000
_cell_angle_beta 90.000000
_cell_angle_gamma 90.000000
_cell_volume 3378.488073
_symmetry_space_group_name_H-M "P N N A"
_symmetry_group_IT_number 52
_symmetry_cell_setting 'orthorhombic'
loop_
_space_group_symop_operation_xyz
x,y,z
1/2-x,-y,z
x,1/2-y,1/2-z
1/2-x,1/2+y,1/2-z
-x,-y,-z
1/2+x,y,-z
-x,1/2+y,1/2+z
1/2+x,1/2-y,1/2+z
loop_
_atom_site_type_symbol
_atom_site_label
_atom_site_fract_x
_atom_site_fract_y
_atom_site_fract_z
Si Si1 0.457493 0.627416 0.810277
Si Si2 0.695708 0.116140 0.301777
Si Si3 0.984368 0.841150 0.488111
Si Si4 0.135015 0.270791 0.103680
Si Si5 0.891670 0.456975 0.815989
Si Si6 0.873617 0.255878 0.543589
Si Si7 0.330789 0.015284 0.155942
Si Si8 0.242334 0.344322 0.977263
O O1 0.466149 0.750000 0.750000
O O2 0.382692 0.567712 0.795009
O O3 0.457040 0.675638 0.900183
O O4 0.526573 0.541086 0.805088
O O5 0.702993 0.250000 0.250000
O O6 0.710149 0.156388 0.391698
O O7 0.750000 0.000000 0.281904
O O8 0.930943 0.793623 0.551067
O O9 0.053022 0.757292 0.493925
O O10 0.000000 0.000000 0.500000
O O11 0.137226 0.398873 0.159713
O O12 0.136927 0.131672 0.148497
O O13 0.197077 0.274485 0.042811
O O14 0.875243 0.354769 0.886383
O O15 0.856957 0.417377 0.735304
O O16 0.855708 0.395310 0.583900
O O17 0.816479 0.218281 0.481651
O O18 0.250000 0.000000 0.156438
O O19 0.250000 0.500000 0.999535
#
# Coordination Sequence:
#
# PCOD9410210 Si02
#       8
#     8   8   8   8   8   8   8   8
#     4  10  20  39  64  91 122 161 208 261 312 375
#     4  10  23  41  65  93 122 159 208 260 321 374
#     4  11  20  40  69  94 118 159 216 264 305 368
#     4  12  23  39  63  95 127 163 211 265 314 362
#     4  11  23  40  66  90 125 172 221 253 307 375
#     4  11  23  40  65  92 124 172 218 254 312 378
#     4  12  27  41  57  95 141 172 200 257 323 382
#     4  11  20  38  65  92 120 162 215 261 301 368
#
# _framework density 18.943384999999999
#
# number of rings (size 3 to 8) (size 9 to 14) (size 15 to 20)
#    0.000    1.000    6.250    2.250    3.500    1.500 
#    2.250    2.500    0.000    0.000    0.000    0.000 
#    0.000    0.000    0.000    0.000    0.000    0.000 
#
# Total GULP energy -357414.801730 kJ/mol
# GULP energy per Si atom -5584.606277 kJ/mol
# Density = 1.890027 g / cm^3
# Si number density = 18.943385 Si / 1000 Ang^3
#
#
#
# Elastic Constant Matrix: (Units=GPa)
#
#
# Indices 1 2 3 4 5 6 
#
# 1 117.6292 7.3688 3.7369 0.0000 0.0000 0.0000
# 2 7.3688 55.3023 1.7561 0.0000 0.0000 0.0000
# 3 3.7369 1.7561 51.3710 0.0000 0.0000 0.0000
# 4 0.0000 0.0000 0.0000 15.2077 0.0000 0.0000
# 5 0.0000 0.0000 0.0000 0.0000 19.4044 0.0000
# 6 0.0000 0.0000 0.0000 0.0000 0.0000 20.3480
#
#
#
# Elastic Compliance Matrix: (Units=1/GPa)
#
#
# Indices 1 2 3 4 5 6 
#
# 1 0.008590 -0.001126 -0.000586 0.000000 0.000000 0.000000
# 2 -0.001126 0.018250 -0.000542 0.000000 0.000000 0.000000
# 3 -0.000586 -0.000542 0.019527 0.000000 0.000000 0.000000
# 4 0.000000 0.000000 0.000000 0.065756 0.000000 0.000000
# 5 0.000000 0.000000 0.000000 0.000000 0.051535 0.000000
# 6 0.000000 0.000000 0.000000 0.000000 0.000000 0.049145
#
#
# Mechanical properties :
#
#
# Convention : Reuss Voigt Hill
#
# Bulk Modulus (GPa) = 23.88985 27.78069 25.83527
# Shear Modulus (GPa) = 21.62024 25.08808 23.35416
#
# Velocity S-wave (km/s) = 3.38199 3.64314 3.51499
# Velocity P-wave (km/s) = 5.28101 5.69154 5.49011
#
# Compressibility (1/GPa) = 0.04185877
#
# Stress axis : x y z
#
# Youngs Moduli (GPa) = 116.40822 54.79548 51.21005
#
# Poissons Ratio (x) = 0.06170 0.03003
# Poissons Ratio (y) = 0.13108 0.02775
# Poissons Ratio (z) = 0.06826 0.02970
#
# Static dielectric constant tensor:
#      x y z
#    x 1.681230 0.000000 0.000000 
#    y 0.000000 1.646850 0.000000 
#    z 0.000000 0.000000 1.656420 
# 
# From -- ./inp_files/34117.got.cif
#   From: 2010.05.17/outbox.cif.g08.bks.cpg/sg52_18_cif.got.tgz:34117.got - 2010.06.03 12:15:38.
