data_PCOD9410270
_publ_section_title
;
Structure prediction by ZEFSAII (Michael W. Deem and Ramdas Pophale) SiO2 
 PCOD9410270
Probable space group: P N N A
;
_chemical_formula_sum "Si O2"
_cell_formula_units_Z 44
_cell_length_a 23.816487
_cell_length_b 13.951673
_cell_length_c 5.218923
_cell_angle_alpha 90.000000
_cell_angle_beta 90.000000
_cell_angle_gamma 90.000000
_cell_volume 1734.142892
_symmetry_space_group_name_H-M "P N N A"
_symmetry_group_IT_number 52
_symmetry_cell_setting 'orthorhombic'
loop_
_space_group_symop_operation_xyz
x,y,z
1/2-x,-y,z
x,1/2-y,1/2-z
1/2-x,1/2+y,1/2-z
-x,-y,-z
1/2+x,y,-z
-x,1/2+y,1/2+z
1/2+x,1/2-y,1/2+z
loop_
_atom_site_type_symbol
_atom_site_label
_atom_site_fract_x
_atom_site_fract_y
_atom_site_fract_z
Si Si1 0.720073 0.652491 0.147193
Si Si2 0.880322 0.459086 0.239348
Si Si3 0.299679 0.556932 0.413297
Si Si4 0.196118 0.250000 0.250000
Si Si5 0.061199 0.340169 0.872633
Si Si6 0.004977 0.890419 0.891690
O O1 0.691685 0.750000 0.250000
O O2 0.668706 0.585370 0.068205
O O3 0.760945 0.600337 0.353465
O O4 0.762082 0.697262 0.944277
O O5 0.846317 0.482555 0.498067
O O6 0.903057 0.561797 0.149182
O O7 0.931856 0.388922 0.288351
O O8 0.250000 0.500000 0.261203
O O9 0.334014 0.652898 0.333023
O O10 0.096164 0.250000 0.750000
O O11 0.013110 0.339278 0.651273
O O12 0.033436 0.353325 0.154699
O O13 0.000000 0.000000 0.000000
#
# Coordination Sequence:
#
# PCOD9410270 Si02
#       6
#     8   8   8   4   8   8
#     4   9  20  40  60  89 133 167 215 270 322 392
#     4  10  21  42  66  93 125 172 221 269 334 404
#     4   9  20  40  60  90 131 168 213 271 327 394
#     4  10  20  40  60  92 130 170 216 272 330 394
#     4  11  24  45  69 101 139 176 223 283 344 406
#     4  10  22  46  66  94 136 175 221 284 340 403
#
# _framework density 25.372765000000001
#
# number of rings (size 3 to 8) (size 9 to 14) (size 15 to 20)
#    0.000    2.182    0.000    2.727    0.000    5.818 
#   47.455    0.000    0.000    0.000    0.000    0.000 
#    0.000    0.000    0.000    0.000    0.000    0.000 
#
# Total GULP energy -244983.197068 kJ/mol
# GULP energy per Si atom -5567.799933 kJ/mol
# Density = 2.531502 g / cm^3
# Si number density = 25.372765 Si / 1000 Ang^3
#
#
#
# Elastic Constant Matrix: (Units=GPa)
#
#
# Indices 1 2 3 4 5 6 
#
# 1 113.2947 17.2022 34.7943 0.0000 0.0000 0.0000
# 2 17.2022 107.3929 41.8421 0.0000 0.0000 0.0000
# 3 34.7943 41.8421 112.3239 0.0000 0.0000 0.0000
# 4 0.0000 0.0000 0.0000 41.7615 0.0000 0.0000
# 5 0.0000 0.0000 0.0000 0.0000 16.8631 0.0000
# 6 0.0000 0.0000 0.0000 0.0000 0.0000 26.7400
#
#
#
# Elastic Compliance Matrix: (Units=1/GPa)
#
#
# Indices 1 2 3 4 5 6 
#
# 1 0.009773 -0.000451 -0.002859 0.000000 0.000000 0.000000
# 2 -0.000451 0.010913 -0.003926 0.000000 0.000000 0.000000
# 3 -0.002859 -0.003926 0.011251 0.000000 0.000000 0.000000
# 4 0.000000 0.000000 0.000000 0.023945 0.000000 0.000000
# 5 0.000000 0.000000 0.000000 0.000000 0.059301 0.000000
# 6 0.000000 0.000000 0.000000 0.000000 0.000000 0.037397
#
#
# Mechanical properties :
#
#
# Convention : Reuss Voigt Hill
#
# Bulk Modulus (GPa) = 57.25756 57.85430 57.55593
# Shear Modulus (GPa) = 28.92257 33.01778 30.97018
#
# Velocity S-wave (km/s) = 3.37991 3.61128 3.49751
# Velocity P-wave (km/s) = 6.15201 6.34347 6.24848
#
# Compressibility (1/GPa) = 0.01746494
#
# Stress axis : x y z
#
# Youngs Moduli (GPa) = 102.32070 91.63077 88.88235
#
# Poissons Ratio (x) = 0.04137 0.25414
# Poissons Ratio (y) = 0.04619 0.34891
# Poissons Ratio (z) = 0.29256 0.35970
#
# Static dielectric constant tensor:
#      x y z
#    x 2.074140 0.000000 0.000000 
#    y 0.000000 -1.315530 0.000000 
#    z 0.000000 0.000000 2.173230 
# 
# From -- ./inp_files/5752.got.cif
#   From: 2010.05.17/outbox.cif.g08.bks.cpg/sg52_3_cif.got.tgz:5752.got - 2010.06.03 12:15:38.
