data_PCOD9410927
_publ_section_title
;
Structure prediction by ZEFSAII (Michael W. Deem and Ramdas Pophale) SiO2 
 PCOD9410927
Probable space group: P N N A
;
_chemical_formula_sum "Si O2"
_cell_formula_units_Z 48
_cell_length_a 19.278915
_cell_length_b 18.947740
_cell_length_c 5.331284
_cell_angle_alpha 90.000000
_cell_angle_beta 90.000000
_cell_angle_gamma 90.000000
_cell_volume 1947.474696
_symmetry_space_group_name_H-M "P N N A"
_symmetry_group_IT_number 52
_symmetry_cell_setting 'orthorhombic'
loop_
_space_group_symop_operation_xyz
x,y,z
1/2-x,-y,z
x,1/2-y,1/2-z
1/2-x,1/2+y,1/2-z
-x,-y,-z
1/2+x,y,-z
-x,1/2+y,1/2+z
1/2+x,1/2-y,1/2+z
loop_
_atom_site_type_symbol
_atom_site_label
_atom_site_fract_x
_atom_site_fract_y
_atom_site_fract_z
Si Si1 0.624500 0.638133 0.847545
Si Si2 0.016586 0.612496 0.544120
Si Si3 0.250000 0.000000 0.079409
Si Si4 0.861182 0.471145 0.196677
Si Si5 0.278690 0.250000 0.250000
Si Si6 0.860439 0.896495 0.041185
Si Si7 0.306002 0.750000 0.750000
Si Si8 0.070506 0.750000 0.750000
O O1 0.553411 0.610477 0.727237
O O2 0.672670 0.684261 0.668644
O O3 0.661679 0.568191 0.947208
O O4 0.610573 0.695457 0.068040
O O5 0.066494 0.563979 0.715904
O O6 0.023647 0.695560 0.599164
O O7 0.937153 0.593486 0.568247
O O8 0.303075 0.044689 0.902228
O O9 0.195681 0.064728 0.140638
O O10 0.863238 0.554560 0.208770
O O11 0.237013 0.227574 0.499699
O O12 0.845992 0.817580 0.134099
#
# Coordination Sequence:
#
# PCOD9410927 Si02
#       8
#     8   8   4   8   4   8   4   4
#     4  11  22  38  72 101 137 193 247 313 376 456
#     4  11  22  40  72 104 138 200 253 315 382 459
#     4   8  20  42  68  94 144 192 232 322 370 464
#     4   9  22  44  67 102 144 190 251 313 383 456
#     4  12  26  44  76 107 153 202 258 314 384 482
#     4  10  24  46  72 100 155 190 256 315 393 452
#     4  12  29  49  74 115 151 210 256 318 400 462
#     4  10  21  39  60 106 152 178 252 314 384 442
#
# _framework density 24.647303999999998
#
# number of rings (size 3 to 8) (size 9 to 14) (size 15 to 20)
#    1.000    0.667    1.667    2.000    7.000    1.333 
#    6.000    0.833    0.000    0.000    0.000    0.000 
#    0.000    0.000    0.000    0.000    0.000    0.000 
#
# Total GULP energy -267342.556938 kJ/mol
# GULP energy per Si atom -5569.636603 kJ/mol
# Density = 2.459121 g / cm^3
# Si number density = 24.647304 Si / 1000 Ang^3
#
#
#
# Elastic Constant Matrix: (Units=GPa)
#
#
# Indices 1 2 3 4 5 6 
#
# 1 121.1908 18.5588 3.0180 0.0000 0.0000 0.0000
# 2 18.5588 134.0402 -3.2599 0.0000 0.0000 0.0000
# 3 3.0180 -3.2599 64.0335 0.0000 0.0000 0.0000
# 4 0.0000 0.0000 0.0000 28.6348 0.0000 0.0000
# 5 0.0000 0.0000 0.0000 0.0000 -17.4272 0.0000
# 6 0.0000 0.0000 0.0000 0.0000 0.0000 -16.7764
#
#
#
# Elastic Compliance Matrix: (Units=1/GPa)
#
#
# Indices 1 2 3 4 5 6 
#
# 1 0.008444 -0.001180 -0.000458 0.000000 0.000000 0.000000
# 2 -0.001180 0.007635 0.000444 0.000000 0.000000 0.000000
# 3 -0.000458 0.000444 0.015661 0.000000 0.000000 0.000000
# 4 0.000000 0.000000 0.000000 0.034923 0.000000 0.000000
# 5 0.000000 0.000000 0.000000 0.000000 -0.057382 0.000000
# 6 0.000000 0.000000 0.000000 0.000000 0.000000 -0.059608
#
#
# Mechanical properties :
#
#
# Convention : Reuss Voigt Hill
#
# Bulk Modulus (GPa) = 34.06994 39.54424 36.80709
# Shear Modulus (GPa) = -131.04214 18.94942 -56.04636
#
# Velocity S-wave (km/s) = -7.29948 2.77577 -4.77375
# Velocity P-wave (km/s) = 7.56242 5.13343 3.92671
#
# Compressibility (1/GPa) = 0.02935139
#
# Stress axis : x y z
#
# Youngs Moduli (GPa) = 118.43297 130.98158 63.85276
#
# Poissons Ratio (x) = 0.15459 0.02925
# Poissons Ratio (y) = 0.13978 -0.02837
# Poissons Ratio (z) = 0.05425 -0.05820
#
# Static dielectric constant tensor:
#      x y z
#    x 2.022840 0.000000 0.000000 
#    y 0.000000 1.976690 0.000000 
#    z 0.000000 0.000000 2.397550 
# 
# From -- ./inp_files/3503.got.cif
#   From: 2010.05.17/outbox.cif.g08.bks.cpg/sg52_2_cif.got.tgz:3503.got - 2010.06.03 12:15:38.
