data_PCOD9410013
_publ_section_title
;
Structure prediction by ZEFSAII (Michael W. Deem and Ramdas Pophale) SiO2 
 PCOD9410013
Probable space group: P N N A
;
_chemical_formula_sum "Si O2"
_cell_formula_units_Z 44
_cell_length_a 9.446210
_cell_length_b 21.214612
_cell_length_c 8.535973
_cell_angle_alpha 90.000000
_cell_angle_beta 90.000000
_cell_angle_gamma 90.000000
_cell_volume 1710.589186
_symmetry_space_group_name_H-M "P N N A"
_symmetry_group_IT_number 52
_symmetry_cell_setting 'orthorhombic'
loop_
_space_group_symop_operation_xyz
x,y,z
1/2-x,-y,z
x,1/2-y,1/2-z
1/2-x,1/2+y,1/2-z
-x,-y,-z
1/2+x,y,-z
-x,1/2+y,1/2+z
1/2+x,1/2-y,1/2+z
loop_
_atom_site_type_symbol
_atom_site_label
_atom_site_fract_x
_atom_site_fract_y
_atom_site_fract_z
Si Si1 0.250000 0.000000 0.504478
Si Si2 0.186153 0.334244 0.422288
Si Si3 0.972941 0.683463 0.849780
Si Si4 0.278224 0.789064 0.596927
Si Si5 0.009513 0.481577 0.773521
Si Si6 0.430141 0.408643 0.539037
O O1 0.148015 0.037244 0.627156
O O2 0.373335 0.023894 0.386756
O O3 0.249824 0.267183 0.469514
O O4 0.270052 0.388479 0.511754
O O5 0.163875 0.347228 0.238357
O O6 0.021684 0.344637 0.465872
O O7 0.977027 0.750000 0.750000
O O8 0.140257 0.669742 0.863769
O O9 0.918022 0.680924 0.026508
O O10 0.314973 0.750000 0.750000
O O11 0.038313 0.551566 0.696471
O O12 0.977732 0.444441 0.615869
#
# Coordination Sequence:
#
# PCOD9410013 Si02
#       6
#     4   8   8   8   8   8
#     4  10  20  40  62  88 118 164 210 250 326 376
#     4  11  22  38  62  90 120 157 211 263 296 375
#     4   9  20  37  56  81 113 150 194 245 303 357
#     4  10  20  38  59  82 117 157 196 245 313 368
#     4  10  22  40  64  89 127 170 205 262 322 382
#     4  11  22  40  63  91 123 168 220 255 312 386
#
# _framework density 25.72213
#
# number of rings (size 3 to 8) (size 9 to 14) (size 15 to 20)
#    0.000    1.818    0.000    5.455    0.000    6.545 
#    0.000   18.182    0.000    0.000    0.000    0.000 
#    0.000    0.000    0.000    0.000    0.000    0.000 
#
# Total GULP energy -244991.129509 kJ/mol
# GULP energy per Si atom -5567.980216 kJ/mol
# Density = 2.566359 g / cm^3
# Si number density = 25.722130 Si / 1000 Ang^3
#
#
#
# Elastic Constant Matrix: (Units=GPa)
#
#
# Indices 1 2 3 4 5 6 
#
# 1 123.5699 15.3317 41.3996 0.0000 0.0000 0.0000
# 2 15.3317 61.4356 13.1603 0.0000 0.0000 0.0000
# 3 41.3996 13.1603 127.8898 0.0000 0.0000 0.0000
# 4 0.0000 0.0000 0.0000 18.8262 0.0000 0.0000
# 5 0.0000 0.0000 0.0000 0.0000 31.4093 0.0000
# 6 0.0000 0.0000 0.0000 0.0000 0.0000 34.4894
#
#
#
# Elastic Compliance Matrix: (Units=1/GPa)
#
#
# Indices 1 2 3 4 5 6 
#
# 1 0.009248 -0.001704 -0.002818 0.000000 0.000000 0.000000
# 2 -0.001704 0.016958 -0.001193 0.000000 0.000000 0.000000
# 3 -0.002818 -0.001193 0.008854 0.000000 0.000000 0.000000
# 4 0.000000 0.000000 0.000000 0.053117 0.000000 0.000000
# 5 0.000000 0.000000 0.000000 0.000000 0.031838 0.000000
# 6 0.000000 0.000000 0.000000 0.000000 0.000000 0.028994
#
#
# Mechanical properties :
#
#
# Convention : Reuss Voigt Hill
#
# Bulk Modulus (GPa) = 42.32127 50.29760 46.30943
# Shear Modulus (GPa) = 29.70555 33.14523 31.42539
#
# Velocity S-wave (km/s) = 3.40202 3.59359 3.49911
# Velocity P-wave (km/s) = 5.64983 6.06755 5.86241
#
# Compressibility (1/GPa) = 0.02362878
#
# Stress axis : x y z
#
# Youngs Moduli (GPa) = 108.12813 58.96871 112.93829
#
# Poissons Ratio (x) = 0.10050 0.31831
# Poissons Ratio (y) = 0.18428 0.13478
# Poissons Ratio (z) = 0.30475 0.07037
#
# Static dielectric constant tensor:
#      x y z
#    x 1.944430 0.000000 0.000000 
#    y 0.000000 2.631300 0.000000 
#    z 0.000000 0.000000 2.360270 
# 
# From -- ./inp_files/7628.got.cif
#   From: 2010.05.17/outbox.cif.g08.bks.cpg/sg52_4_cif.got.tgz:7628.got - 2010.06.03 12:15:38.
