data_PCOD9410103
_publ_section_title
;
Structure prediction by ZEFSAII (Michael W. Deem and Ramdas Pophale) SiO2 
 PCOD9410103
Probable space group: P N N A
;
_chemical_formula_sum "Si O2"
_cell_formula_units_Z 32
_cell_length_a 12.061996
_cell_length_b 4.982172
_cell_length_c 23.848145
_cell_angle_alpha 90.000000
_cell_angle_beta 90.000000
_cell_angle_gamma 90.000000
_cell_volume 1433.152813
_symmetry_space_group_name_H-M "P N N A"
_symmetry_group_IT_number 52
_symmetry_cell_setting 'orthorhombic'
loop_
_space_group_symop_operation_xyz
x,y,z
1/2-x,-y,z
x,1/2-y,1/2-z
1/2-x,1/2+y,1/2-z
-x,-y,-z
1/2+x,y,-z
-x,1/2+y,1/2+z
1/2+x,1/2-y,1/2+z
loop_
_atom_site_type_symbol
_atom_site_label
_atom_site_fract_x
_atom_site_fract_y
_atom_site_fract_z
Si Si1 0.103402 0.272150 0.904734
Si Si2 0.750000 0.500000 0.575753
Si Si3 0.469270 0.785600 0.130178
Si Si4 0.557321 0.750000 0.250000
Si Si5 0.250000 0.000000 0.498187
Si Si6 0.250000 0.500000 0.816078
O O1 0.204278 0.280554 0.859762
O O2 0.010658 0.485406 0.883574
O O3 0.154283 0.374955 0.962687
O O4 0.050875 0.980694 0.904299
O O5 0.653194 0.363672 0.611797
O O6 0.706943 0.748274 0.538008
O O7 0.487473 0.841759 0.196407
O O8 0.645119 0.545878 0.223089
#
# Coordination Sequence:
#
# PCOD9410103 Si02
#       6
#     8   4   8   4   4   4
#     4  10  22  40  65  96 122 154 204 263 324 379
#     4  12  26  42  60  90 128 174 222 250 292 374
#     4  11  24  41  62  91 126 165 213 255 305 375
#     4  10  20  38  64  92 126 164 196 260 322 364
#     4  11  24  42  67  94 127 164 204 269 326 364
#     4   9  18  34  63  94 119 144 196 257 326 384
#
# _framework density 22.328392999999998
#
# number of rings (size 3 to 8) (size 9 to 14) (size 15 to 20)
#    0.000    1.500    0.000    4.500    0.000   16.000 
#    0.000    6.250    0.000    0.000    0.000    0.000 
#    0.000    0.000    0.000    0.000    0.000    0.000 
#
# Total GULP energy -178834.415339 kJ/mol
# GULP energy per Si atom -5588.575479 kJ/mol
# Density = 2.227757 g / cm^3
# Si number density = 22.328393 Si / 1000 Ang^3
#
#
#
# Elastic Constant Matrix: (Units=GPa)
#
#
# Indices 1 2 3 4 5 6 
#
# 1 72.5849 2.1399 53.9134 0.0000 0.0000 0.0000
# 2 2.1399 85.2679 23.8202 0.0000 0.0000 0.0000
# 3 53.9134 23.8202 125.3217 0.0000 0.0000 0.0000
# 4 0.0000 0.0000 0.0000 8.3839 0.0000 0.0000
# 5 0.0000 0.0000 0.0000 0.0000 72.5632 0.0000
# 6 0.0000 0.0000 0.0000 0.0000 0.0000 33.5318
#
#
#
# Elastic Compliance Matrix: (Units=1/GPa)
#
#
# Indices 1 2 3 4 5 6 
#
# 1 0.020586 0.002067 -0.009249 0.000000 0.000000 0.000000
# 2 0.002067 0.012593 -0.003283 0.000000 0.000000 0.000000
# 3 -0.009249 -0.003283 0.012582 0.000000 0.000000 0.000000
# 4 0.000000 0.000000 0.000000 0.119277 0.000000 0.000000
# 5 0.000000 0.000000 0.000000 0.000000 0.013781 0.000000
# 6 0.000000 0.000000 0.000000 0.000000 0.000000 0.029822
#
#
# Mechanical properties :
#
#
# Convention : Reuss Voigt Hill
#
# Bulk Modulus (GPa) = 40.27098 49.21349 44.74224
# Shear Modulus (GPa) = 21.02186 36.44919 28.73553
#
# Velocity S-wave (km/s) = 3.07169 4.04470 3.59130
# Velocity P-wave (km/s) = 5.53672 6.62581 6.10560
#
# Compressibility (1/GPa) = 0.02483178
#
# Stress axis : x y z
#
# Youngs Moduli (GPa) = 48.57731 79.40950 79.47668
#
# Poissons Ratio (x) = -0.16415 0.73507
# Poissons Ratio (y) = -0.10041 0.26091
# Poissons Ratio (z) = 0.44929 0.26069
#
# Static dielectric constant tensor:
#      x y z
#    x 1.850220 0.000000 0.000000 
#    y 0.000000 1.836450 0.000000 
#    z 0.000000 0.000000 1.848290 
# 
# From -- ./inp_files/36510.got.cif
#   From: 2010.05.17/outbox.cif.g08.bks.cpg/sg52_19_cif.got.tgz:36510.got - 2010.06.03 12:15:38.
