data_PCOD9410062
_publ_section_title
;
Structure prediction by ZEFSAII (Michael W. Deem and Ramdas Pophale) SiO2 
 PCOD9410062
Probable space group: P N N A
;
_chemical_formula_sum "Si O2"
_cell_formula_units_Z 32
_cell_length_a 7.814112
_cell_length_b 31.206182
_cell_length_c 4.223013
_cell_angle_alpha 90.000000
_cell_angle_beta 90.000000
_cell_angle_gamma 90.000000
_cell_volume 1029.775813
_symmetry_space_group_name_H-M "P N N A"
_symmetry_group_IT_number 52
_symmetry_cell_setting 'orthorhombic'
loop_
_space_group_symop_operation_xyz
x,y,z
1/2-x,-y,z
x,1/2-y,1/2-z
1/2-x,1/2+y,1/2-z
-x,-y,-z
1/2+x,y,-z
-x,1/2+y,1/2+z
1/2+x,1/2-y,1/2+z
loop_
_atom_site_type_symbol
_atom_site_label
_atom_site_fract_x
_atom_site_fract_y
_atom_site_fract_z
Si Si1 0.249384 0.624200 0.202721
Si Si2 0.022928 0.937779 0.745800
Si Si3 0.483487 0.811754 0.701296
Si Si4 0.750000 0.000000 0.814745
Si Si5 0.209783 0.750000 0.750000
O O1 0.136586 0.591451 0.986597
O O2 0.366126 0.656152 0.999378
O O3 0.385459 0.595725 0.396485
O O4 0.116589 0.656321 0.370475
O O5 0.137928 0.966862 0.975604
O O6 0.883474 0.971856 0.613668
O O7 0.348492 0.783287 0.897880
O O8 0.595748 0.779199 0.482511
#
# Coordination Sequence:
#
# PCOD9410062 Si02
#       5
#     8   8   8   4   4
#     4   9  20  40  61  82 117 166 200 230 294 375
#     4  10  22  40  61  86 122 156 202 252 298 358
#     4   9  20  39  60  89 117 155 200 241 293 355
#     4  10  24  40  58  94 122 150 204 264 306 334
#     4  10  20  38  62  88 122 152 200 248 288 356
#
# _framework density 31.074724
#
# number of rings (size 3 to 8) (size 9 to 14) (size 15 to 20)
#    0.000    2.500    0.000    0.000    0.000   15.000 
#    0.000   32.500    0.000    0.000    0.000    0.000 
#    0.000    0.000    0.000    0.000    0.000    0.000 
#
# Total GULP energy -179008.824133 kJ/mol
# GULP energy per Si atom -5594.025754 kJ/mol
# Density = 3.100400 g / cm^3
# Si number density = 31.074724 Si / 1000 Ang^3
#
#
#
# Elastic Constant Matrix: (Units=GPa)
#
#
# Indices 1 2 3 4 5 6 
#
# 1 228.7249 170.6440 76.1674 0.0000 0.0000 0.0000
# 2 170.6440 243.2576 85.9466 0.0000 0.0000 0.0000
# 3 76.1674 85.9466 70.6199 0.0000 0.0000 0.0000
# 4 0.0000 0.0000 0.0000 81.9508 0.0000 0.0000
# 5 0.0000 0.0000 0.0000 0.0000 12.3422 0.0000
# 6 0.0000 0.0000 0.0000 0.0000 0.0000 216.3290
#
#
#
# Elastic Compliance Matrix: (Units=1/GPa)
#
#
# Indices 1 2 3 4 5 6 
#
# 1 0.009732 -0.005471 -0.003838 0.000000 0.000000 0.000000
# 2 -0.005471 0.010287 -0.006620 0.000000 0.000000 0.000000
# 3 -0.003838 -0.006620 0.026356 0.000000 0.000000 0.000000
# 4 0.000000 0.000000 0.000000 0.012202 0.000000 0.000000
# 5 0.000000 0.000000 0.000000 0.000000 0.081023 0.000000
# 6 0.000000 0.000000 0.000000 0.000000 0.000000 0.004623
#
#
# Mechanical properties :
#
#
# Convention : Reuss Voigt Hill
#
# Bulk Modulus (GPa) = 68.87811 134.23538 101.55675
# Shear Modulus (GPa) = 27.63658 76.11402 51.87530
#
# Velocity S-wave (km/s) = 2.98545 4.95450 4.09023
# Velocity P-wave (km/s) = 5.83929 8.71899 7.42018
#
# Compressibility (1/GPa) = 0.01451840
#
# Stress axis : x y z
#
# Youngs Moduli (GPa) = 102.75732 97.20746 37.94156
#
# Poissons Ratio (x) = 0.53178 0.14563
# Poissons Ratio (y) = 0.56215 0.25116
# Poissons Ratio (z) = 0.39441 0.64347
#
# Static dielectric constant tensor:
#      x y z
#    x 2.369410 0.000000 0.000000 
#    y 0.000000 2.440120 0.000000 
#    z 0.000000 0.000000 2.400990 
# 
# From -- ./inp_files/453.got.cif
#   From: 2010.05.17/outbox.cif.g08.bks.cpg/sg52_1_cif.got.tgz:453.got - 2010.06.03 12:15:38.
