data_PCOD9410090
_publ_section_title
;
Structure prediction by ZEFSAII (Michael W. Deem and Ramdas Pophale) SiO2 
 PCOD9410090
Probable space group: P N N A
;
_chemical_formula_sum "Si O2"
_cell_formula_units_Z 40
_cell_length_a 14.429473
_cell_length_b 8.511168
_cell_length_c 11.717633
_cell_angle_alpha 90.000000
_cell_angle_beta 90.000000
_cell_angle_gamma 90.000000
_cell_volume 1439.062064
_symmetry_space_group_name_H-M "P N N A"
_symmetry_group_IT_number 52
_symmetry_cell_setting 'orthorhombic'
loop_
_space_group_symop_operation_xyz
x,y,z
1/2-x,-y,z
x,1/2-y,1/2-z
1/2-x,1/2+y,1/2-z
-x,-y,-z
1/2+x,y,-z
-x,1/2+y,1/2+z
1/2+x,1/2-y,1/2+z
loop_
_atom_site_type_symbol
_atom_site_label
_atom_site_fract_x
_atom_site_fract_y
_atom_site_fract_z
Si Si1 0.624657 0.037183 0.397613
Si Si2 0.068098 0.711184 0.047297
Si Si3 0.348334 0.506019 0.321490
Si Si4 0.677610 0.137044 0.067100
Si Si5 0.953386 0.421120 0.321301
O O1 0.524035 0.123144 0.409863
O O2 0.692843 0.186357 0.391066
O O3 0.635054 0.930647 0.508526
O O4 0.616023 0.929223 0.285472
O O5 0.049447 0.801257 0.926774
O O6 0.119463 0.835710 0.128695
O O7 0.250000 0.500000 0.259016
O O8 0.328187 0.618489 0.431028
O O9 0.443287 0.571920 0.271208
O O10 0.750000 0.000000 0.100474
O O11 0.578767 0.079619 0.115243
#
# Coordination Sequence:
#
# PCOD9410090 Si02
#       5
#     8   8   8   8   8
#     4  11  21  37  70  94 134 169 229 291 343 403
#     4  10  21  39  63  98 128 177 226 277 347 409
#     4  10  20  39  66  93 131 183 226 272 347 418
#     4  10  20  38  63  96 129 174 223 277 348 410
#     4  11  20  40  66  93 131 181 226 276 344 418
#
# _framework density 27.795884000000001
#
# number of rings (size 3 to 8) (size 9 to 14) (size 15 to 20)
#    0.000    1.600    4.000    2.400    0.000    0.000 
#    0.000   23.000    8.800    0.000    0.000    0.000 
#    0.000    0.000    0.000    0.000    0.000    0.000 
#
# Total GULP energy -223525.483234 kJ/mol
# GULP energy per Si atom -5588.137081 kJ/mol
# Density = 2.773262 g / cm^3
# Si number density = 27.795884 Si / 1000 Ang^3
#
#
#
# Elastic Constant Matrix: (Units=GPa)
#
#
# Indices 1 2 3 4 5 6 
#
# 1 159.9501 37.4049 12.2600 0.0000 0.0000 0.0000
# 2 37.4049 102.7608 41.7475 0.0000 0.0000 0.0000
# 3 12.2600 41.7475 78.3093 0.0000 0.0000 0.0000
# 4 0.0000 0.0000 0.0000 27.9768 0.0000 0.0000
# 5 0.0000 0.0000 0.0000 0.0000 30.1252 0.0000
# 6 0.0000 0.0000 0.0000 0.0000 0.0000 33.7429
#
#
#
# Elastic Compliance Matrix: (Units=1/GPa)
#
#
# Indices 1 2 3 4 5 6 
#
# 1 0.006840 -0.002623 0.000327 0.000000 0.000000 0.000000
# 2 -0.002623 0.013427 -0.006748 0.000000 0.000000 0.000000
# 3 0.000327 -0.006748 0.016316 0.000000 0.000000 0.000000
# 4 0.000000 0.000000 0.000000 0.035744 0.000000 0.000000
# 5 0.000000 0.000000 0.000000 0.000000 0.033195 0.000000
# 6 0.000000 0.000000 0.000000 0.000000 0.000000 0.029636
#
#
# Mechanical properties :
#
#
# Convention : Reuss Voigt Hill
#
# Bulk Modulus (GPa) = 54.06218 58.20500 56.13359
# Shear Modulus (GPa) = 31.36568 35.00949 33.18759
#
# Velocity S-wave (km/s) = 3.36285 3.55282 3.45914
# Velocity P-wave (km/s) = 5.87965 6.14945 6.01606
#
# Compressibility (1/GPa) = 0.01849722
#
# Stress axis : x y z
#
# Youngs Moduli (GPa) = 146.19417 74.47501 61.29014
#
# Poissons Ratio (x) = 0.19534 -0.02006
# Poissons Ratio (y) = 0.38344 0.41356
# Poissons Ratio (z) = -0.04786 0.50253
#
# Static dielectric constant tensor:
#      x y z
#    x 2.290390 0.000000 0.000000 
#    y 0.000000 2.195910 0.000000 
#    z 0.000000 0.000000 2.143250 
# 
# From -- ./inp_files/26898.got.cif
#   From: 2010.05.17/outbox.cif.g08.bks.cpg/sg52_14_cif.got.tgz:26898.got - 2010.06.03 12:15:38.
