data_PCOD9410137
_publ_section_title
;
Structure prediction by ZEFSAII (Michael W. Deem and Ramdas Pophale) SiO2 
 PCOD9410137
Probable space group: P N N A
;
_chemical_formula_sum "Si O2"
_cell_formula_units_Z 40
_cell_length_a 7.786337
_cell_length_b 11.311523
_cell_length_c 19.948919
_cell_angle_alpha 90.000000
_cell_angle_beta 90.000000
_cell_angle_gamma 90.000000
_cell_volume 1757.007625
_symmetry_space_group_name_H-M "P N N A"
_symmetry_group_IT_number 52
_symmetry_cell_setting 'orthorhombic'
loop_
_space_group_symop_operation_xyz
x,y,z
1/2-x,-y,z
x,1/2-y,1/2-z
1/2-x,1/2+y,1/2-z
-x,-y,-z
1/2+x,y,-z
-x,1/2+y,1/2+z
1/2+x,1/2-y,1/2+z
loop_
_atom_site_type_symbol
_atom_site_label
_atom_site_fract_x
_atom_site_fract_y
_atom_site_fract_z
Si Si1 0.857961 0.885743 0.043928
Si Si2 0.158042 0.204170 0.425162
Si Si3 0.750000 0.000000 0.483265
Si Si4 0.213783 0.672840 0.879751
Si Si5 0.634808 0.887391 0.845617
Si Si6 0.382802 0.750000 0.750000
O O1 0.746482 0.804491 0.093663
O O2 0.025494 0.916278 0.087249
O O3 0.750000 0.000000 0.026848
O O4 0.891983 0.803901 0.979932
O O5 0.275881 0.107136 0.463214
O O6 0.251746 0.273781 0.366225
O O7 0.982689 0.144812 0.399022
O O8 0.831306 0.912877 0.425809
O O9 0.267409 0.677563 0.803046
O O10 0.503456 0.842374 0.789431
O O11 0.750000 0.000000 0.827252
#
# Coordination Sequence:
#
# PCOD9410137 Si02
#       6
#     8   8   4   8   8   4
#     4  10  20  38  67 101 136 167 213 279 351 405
#     4  11  22  39  71 104 135 170 223 287 355 398
#     4  10  22  42  70 108 136 166 228 290 356 400
#     4  10  22  42  66  94 135 182 220 277 334 409
#     4  11  24  44  69  96 137 180 229 286 335 411
#     4  10  26  50  60  92 136 188 244 262 328 420
#
# _framework density 22.765979999999999
#
# number of rings (size 3 to 8) (size 9 to 14) (size 15 to 20)
#    0.000    1.600    0.000    4.800    0.000    6.400 
#   16.200    0.000    0.000    0.000    0.000    0.000 
#    0.000    0.000    0.000    0.000    0.000    0.000 
#
# Total GULP energy -222938.756094 kJ/mol
# GULP energy per Si atom -5573.468902 kJ/mol
# Density = 2.271416 g / cm^3
# Si number density = 22.765980 Si / 1000 Ang^3
#
#
#
# Elastic Constant Matrix: (Units=GPa)
#
#
# Indices 1 2 3 4 5 6 
#
# 1 103.2203 33.8837 52.6990 0.0000 0.0000 0.0000
# 2 33.8837 140.5144 45.8768 0.0000 0.0000 0.0000
# 3 52.6990 45.8768 120.2447 0.0000 0.0000 0.0000
# 4 0.0000 0.0000 0.0000 12.3180 0.0000 0.0000
# 5 0.0000 0.0000 0.0000 0.0000 19.5953 0.0000
# 6 0.0000 0.0000 0.0000 0.0000 0.0000 16.1941
#
#
#
# Elastic Compliance Matrix: (Units=1/GPa)
#
#
# Indices 1 2 3 4 5 6 
#
# 1 0.012726 -0.001425 -0.005033 0.000000 0.000000 0.000000
# 2 -0.001425 0.008289 -0.002538 0.000000 0.000000 0.000000
# 3 -0.005033 -0.002538 0.011491 0.000000 0.000000 0.000000
# 4 0.000000 0.000000 0.000000 0.081182 0.000000 0.000000
# 5 0.000000 0.000000 0.000000 0.000000 0.051033 0.000000
# 6 0.000000 0.000000 0.000000 0.000000 0.000000 0.061751
#
#
# Mechanical properties :
#
#
# Convention : Reuss Voigt Hill
#
# Bulk Modulus (GPa) = 68.90767 69.87759 69.39263
# Shear Modulus (GPa) = 20.05605 25.05614 22.55610
#
# Velocity S-wave (km/s) = 2.97133 3.32112 3.15108
# Velocity P-wave (km/s) = 6.48886 6.74292 6.61711
#
# Compressibility (1/GPa) = 0.01451217
#
# Stress axis : x y z
#
# Youngs Moduli (GPa) = 78.58111 120.64204 87.02762
#
# Poissons Ratio (x) = 0.17195 0.43805
# Poissons Ratio (y) = 0.11200 0.22086
# Poissons Ratio (z) = 0.39553 0.30617
#
# Static dielectric constant tensor:
#      x y z
#    x 2.012930 0.000000 0.000000 
#    y 0.000000 1.859500 0.000000 
#    z 0.000000 0.000000 1.826270 
# 
# From -- ./inp_files/30912.got.cif
#   From: 2010.05.17/outbox.cif.g08.bks.cpg/sg52_16_cif.got.tgz:30912.got - 2010.06.03 12:15:38.
