data_PCOD9410721
_publ_section_title
;
Structure prediction by ZEFSAII (Michael W. Deem and Ramdas Pophale) SiO2 
 PCOD9410721
Probable space group: P N N A
;
_chemical_formula_sum "Si O2"
_cell_formula_units_Z 64
_cell_length_a 13.614478
_cell_length_b 23.009562
_cell_length_c 8.504379
_cell_angle_alpha 90.000000
_cell_angle_beta 90.000000
_cell_angle_gamma 90.000000
_cell_volume 2664.108772
_symmetry_space_group_name_H-M "P N N A"
_symmetry_group_IT_number 52
_symmetry_cell_setting 'orthorhombic'
loop_
_space_group_symop_operation_xyz
x,y,z
1/2-x,-y,z
x,1/2-y,1/2-z
1/2-x,1/2+y,1/2-z
-x,-y,-z
1/2+x,y,-z
-x,1/2+y,1/2+z
1/2+x,1/2-y,1/2+z
loop_
_atom_site_type_symbol
_atom_site_label
_atom_site_fract_x
_atom_site_fract_y
_atom_site_fract_z
Si Si1 0.507556 0.976109 0.255790
Si Si2 0.304963 0.402518 0.830805
Si Si3 0.407423 0.575764 0.935070
Si Si4 0.339062 0.685930 0.268290
Si Si5 0.652183 0.808044 0.554759
Si Si6 0.186790 0.680763 0.554263
Si Si7 0.481574 0.882631 0.038487
Si Si8 0.546306 0.185254 0.271990
O O1 0.616906 0.948325 0.266100
O O2 0.440347 0.952022 0.399937
O O3 0.469460 0.949898 0.089717
O O4 0.525859 0.043139 0.302001
O O5 0.207727 0.432267 0.898277
O O6 0.274157 0.350246 0.711926
O O7 0.365519 0.366434 0.959208
O O8 0.420300 0.645037 0.916368
O O9 0.381131 0.750000 0.250000
O O10 0.259573 0.682194 0.129516
O O11 0.267538 0.678076 0.418551
O O12 0.431143 0.646623 0.308900
O O13 0.652781 0.748425 0.453093
O O14 0.568885 0.805042 0.687315
O O15 0.092940 0.639675 0.523704
O O16 0.437495 0.853047 0.883506
O O17 0.589700 0.250000 0.250000
#
# Coordination Sequence:
#
# PCOD9410721 Si02
#       8
#     8   8   8   8   8   8   8   8
#     4  10  24  44  65  96 131 177 219 279 322 387
#     4  11  22  38  67  95 127 170 221 273 327 391
#     4  11  24  44  67  96 133 171 227 270 333 395
#     4  10  21  37  60  91 131 174 211 266 322 394
#     4  11  20  40  61  92 134 174 207 269 338 387
#     4  10  21  38  58  93 135 166 209 270 329 392
#     4  11  22  38  65  93 129 173 222 261 332 395
#     4  12  23  41  65  95 132 174 211 269 340 396
#
# _framework density 24.023042
#
# number of rings (size 3 to 8) (size 9 to 14) (size 15 to 20)
#    0.000    1.250    3.750    2.625    0.000    6.500 
#    0.000    0.000    0.000    0.000    0.000    0.000 
#    0.000    0.000    0.000    0.000    0.000    0.000 
#
# Total GULP energy -357070.017379 kJ/mol
# GULP energy per Si atom -5579.219022 kJ/mol
# Density = 2.396836 g / cm^3
# Si number density = 24.023042 Si / 1000 Ang^3
#
#
#
# Elastic Constant Matrix: (Units=GPa)
#
#
# Indices 1 2 3 4 5 6 
#
# 1 49.6525 -13.8462 20.8273 0.0000 0.0000 0.0000
# 2 -13.8462 99.6004 32.5723 0.0000 0.0000 0.0000
# 3 20.8273 32.5723 43.2320 0.0000 0.0000 0.0000
# 4 0.0000 0.0000 0.0000 30.9038 0.0000 0.0000
# 5 0.0000 0.0000 0.0000 0.0000 24.3620 0.0000
# 6 0.0000 0.0000 0.0000 0.0000 0.0000 19.8913
#
#
#
# Elastic Compliance Matrix: (Units=1/GPa)
#
#
# Indices 1 2 3 4 5 6 
#
# 1 0.035721 0.014057 -0.027800 0.000000 0.000000 0.000000
# 2 0.014057 0.018855 -0.020978 0.000000 0.000000 0.000000
# 3 -0.027800 -0.020978 0.052329 0.000000 0.000000 0.000000
# 4 0.000000 0.000000 0.000000 0.032358 0.000000 0.000000
# 5 0.000000 0.000000 0.000000 0.000000 0.041048 0.000000
# 6 0.000000 0.000000 0.000000 0.000000 0.000000 0.050273
#
#
# Mechanical properties :
#
#
# Convention : Reuss Voigt Hill
#
# Bulk Modulus (GPa) = 26.69252 30.17688 28.43470
# Shear Modulus (GPa) = 15.99928 25.22684 20.61306
#
# Velocity S-wave (km/s) = 2.58349 3.24406 2.93243
# Velocity P-wave (km/s) = 4.47600 5.15953 4.82987
#
# Compressibility (1/GPa) = 0.03746368
#
# Stress axis : x y z
#
# Youngs Moduli (GPa) = 27.99466 53.03703 19.10971
#
# Poissons Ratio (x) = -0.74556 0.53125
# Poissons Ratio (y) = -0.39353 0.40088
# Poissons Ratio (z) = 0.77826 1.11261
#
# Static dielectric constant tensor:
#      x y z
#    x 1.908530 0.000000 0.000000 
#    y 0.000000 1.979070 0.000000 
#    z 0.000000 0.000000 2.026730 
# 
# From -- ./inp_files/10994.got.cif
#   From: 2010.05.17/outbox.cif.g08.bks.cpg/sg52_6_cif.got.tgz:10994.got - 2010.06.03 12:15:38.
