data_PCOD9410931
_publ_section_title
;
Structure prediction by ZEFSAII (Michael W. Deem and Ramdas Pophale) SiO2 
 PCOD9410931
Probable space group: P N N A
;
_chemical_formula_sum "Si O2"
_cell_formula_units_Z 36
_cell_length_a 25.679704
_cell_length_b 8.862092
_cell_length_c 7.927784
_cell_angle_alpha 90.000000
_cell_angle_beta 90.000000
_cell_angle_gamma 90.000000
_cell_volume 1804.172574
_symmetry_space_group_name_H-M "P N N A"
_symmetry_group_IT_number 52
_symmetry_cell_setting 'orthorhombic'
loop_
_space_group_symop_operation_xyz
x,y,z
1/2-x,-y,z
x,1/2-y,1/2-z
1/2-x,1/2+y,1/2-z
-x,-y,-z
1/2+x,y,-z
-x,1/2+y,1/2+z
1/2+x,1/2-y,1/2+z
loop_
_atom_site_type_symbol
_atom_site_label
_atom_site_fract_x
_atom_site_fract_y
_atom_site_fract_z
Si Si1 0.675908 0.502599 0.322602
Si Si2 0.750911 0.750000 0.250000
Si Si3 0.958552 0.074393 0.733168
Si Si4 0.111361 0.160025 0.078235
Si Si5 0.425853 0.554489 0.874201
O O1 0.709695 0.651497 0.358397
O O2 0.709217 0.385515 0.206349
O O3 0.661183 0.418183 0.494723
O O4 0.621395 0.521946 0.226271
O O5 0.947162 0.250000 0.750000
O O6 0.020720 0.051655 0.730096
O O7 0.930483 0.966850 0.868129
O O8 0.937810 0.028796 0.549047
O O9 0.123182 0.250000 0.250000
O O10 0.089488 0.277439 0.939208
#
# Coordination Sequence:
#
# PCOD9410931 Si02
#       5
#     8   4   8   8   8
#     4  11  21  42  65  89 117 157 207 255 301 363
#     4  10  24  38  68  86 112 154 220 252 296 356
#     4  10  22  36  58  93 126 157 203 238 301 376
#     4  10  21  39  63  87 129 161 190 251 315 355
#     4  10  21  39  60  88 125 164 193 246 304 367
#
# _framework density 19.953745000000001
#
# number of rings (size 3 to 8) (size 9 to 14) (size 15 to 20)
#    0.000    1.778    2.222    1.333    3.111    3.556 
#    6.000    0.000   19.556    0.000    0.000    0.000 
#    0.000    0.000    0.000    0.000    0.000    0.000 
#
# Total GULP energy -200586.441848 kJ/mol
# GULP energy per Si atom -5571.845607 kJ/mol
# Density = 1.990833 g / cm^3
# Si number density = 19.953745 Si / 1000 Ang^3
#
#
#
# Elastic Constant Matrix: (Units=GPa)
#
#
# Indices 1 2 3 4 5 6 
#
# 1 112.4267 46.2109 36.0996 0.0000 0.0000 0.0000
# 2 46.2109 84.1204 27.6695 0.0000 0.0000 0.0000
# 3 36.0996 27.6695 77.7012 0.0000 0.0000 0.0000
# 4 0.0000 0.0000 0.0000 20.6018 0.0000 0.0000
# 5 0.0000 0.0000 0.0000 0.0000 0.1025 0.0000
# 6 0.0000 0.0000 0.0000 0.0000 0.0000 44.1719
#
#
#
# Elastic Compliance Matrix: (Units=1/GPa)
#
#
# Indices 1 2 3 4 5 6 
#
# 1 0.012396 -0.005567 -0.003776 0.000000 0.000000 0.000000
# 2 -0.005567 0.015965 -0.003099 0.000000 0.000000 0.000000
# 3 -0.003776 -0.003099 0.015728 0.000000 0.000000 0.000000
# 4 0.000000 0.000000 0.000000 0.048539 0.000000 0.000000
# 5 0.000000 0.000000 0.000000 0.000000 9.754700 0.000000
# 6 0.000000 0.000000 0.000000 0.000000 0.000000 0.022639
#
#
# Mechanical properties :
#
#
# Convention : Reuss Voigt Hill
#
# Bulk Modulus (GPa) = 52.07290 54.91203 53.49247
# Shear Modulus (GPa) = 0.50499 23.92647 12.21573
#
# Velocity S-wave (km/s) = 0.50361 3.46655 2.47696
# Velocity P-wave (km/s) = 5.14700 6.60319 5.92004
#
# Compressibility (1/GPa) = 0.01920385
#
# Stress axis : x y z
#
# Youngs Moduli (GPa) = 80.67380 62.63580 63.58169
#
# Poissons Ratio (x) = 0.34871 0.24011
# Poissons Ratio (y) = 0.44913 0.19702
# Poissons Ratio (z) = 0.30466 0.19409
#
# Static dielectric constant tensor:
#      x y z
#    x 1.714180 0.000000 0.000000 
#    y 0.000000 1.775460 0.000000 
#    z 0.000000 0.000000 1.705040 
# 
# From -- ./inp_files/14753.got.cif
#   From: 2010.05.17/outbox.cif.g08.bks.cpg/sg52_8_cif.got.tgz:14753.got - 2010.06.03 12:15:38.
