data_PCOD9410177
_publ_section_title
;
Structure prediction by ZEFSAII (Michael W. Deem and Ramdas Pophale) SiO2 
 PCOD9410177
Probable space group: P N N A
;
_chemical_formula_sum "Si O2"
_cell_formula_units_Z 64
_cell_length_a 17.629044
_cell_length_b 20.891902
_cell_length_c 8.246991
_cell_angle_alpha 90.000000
_cell_angle_beta 90.000000
_cell_angle_gamma 90.000000
_cell_volume 3037.401914
_symmetry_space_group_name_H-M "P N N A"
_symmetry_group_IT_number 52
_symmetry_cell_setting 'orthorhombic'
loop_
_space_group_symop_operation_xyz
x,y,z
1/2-x,-y,z
x,1/2-y,1/2-z
1/2-x,1/2+y,1/2-z
-x,-y,-z
1/2+x,y,-z
-x,1/2+y,1/2+z
1/2+x,1/2-y,1/2+z
loop_
_atom_site_type_symbol
_atom_site_label
_atom_site_fract_x
_atom_site_fract_y
_atom_site_fract_z
Si Si1 0.808559 0.541869 0.524464
Si Si2 0.317805 0.656749 0.260402
Si Si3 0.950433 0.592399 0.330200
Si Si4 0.957264 0.327363 0.130333
Si Si5 0.067600 0.427789 0.046443
Si Si6 0.604652 0.951513 0.743139
Si Si7 0.039740 0.290645 0.449412
Si Si8 0.658006 0.810344 0.636992
O O1 0.750000 0.500000 0.419999
O O2 0.782193 0.608172 0.606153
O O3 0.884348 0.560923 0.433045
O O4 0.831871 0.490683 0.661741
O O5 0.369051 0.613012 0.142952
O O6 0.379170 0.698664 0.361070
O O7 0.249225 0.687662 0.159431
O O8 0.960574 0.664743 0.394661
O O9 0.030132 0.557048 0.352334
O O10 0.929212 0.585573 0.143057
O O11 0.987093 0.399125 0.106682
O O12 0.974875 0.312895 0.318933
O O13 0.017972 0.283009 0.031115
O O14 0.878014 0.309150 0.044687
O O15 0.080963 0.500782 0.097964
O O16 0.628511 0.879833 0.696546
O O17 0.632395 0.750000 0.750000
#
# Coordination Sequence:
#
# PCOD9410177 Si02
#       8
#     8   8   8   8   8   8   8   8
#     4  10  20  39  59  86 122 167 203 254 314 384
#     4   9  21  41  64  89 122 171 210 252 322 389
#     4  11  21  38  63  96 123 165 219 256 327 381
#     4  10  21  39  63  93 122 163 212 265 317 374
#     4  10  22  38  64  90 123 166 214 262 321 387
#     4  11  22  41  61  91 126 160 213 272 313 393
#     4   9  21  41  68  86 129 171 211 262 318 398
#     4  12  24  37  68  94 124 163 218 267 326 379
#
# _framework density 21.070639
#
# number of rings (size 3 to 8) (size 9 to 14) (size 15 to 20)
#    0.000    1.750    2.500    2.250    3.500    0.000 
#    2.250    0.000    8.250    0.000    0.000    0.000 
#    0.000    0.000    0.000    0.000    0.000    0.000 
#
# Total GULP energy -356722.738960 kJ/mol
# GULP energy per Si atom -5573.792796 kJ/mol
# Density = 2.102268 g / cm^3
# Si number density = 21.070639 Si / 1000 Ang^3
#
#
#
# Elastic Constant Matrix: (Units=GPa)
#
#
# Indices 1 2 3 4 5 6 
#
# 1 86.7860 5.8428 -6.0240 0.0000 0.0000 0.0000
# 2 5.8428 98.6047 7.4982 0.0000 0.0000 0.0000
# 3 -6.0240 7.4982 34.0556 0.0000 0.0000 0.0000
# 4 0.0000 0.0000 0.0000 30.4418 0.0000 0.0000
# 5 0.0000 0.0000 0.0000 0.0000 22.5252 0.0000
# 6 0.0000 0.0000 0.0000 0.0000 0.0000 29.4309
#
#
#
# Elastic Compliance Matrix: (Units=1/GPa)
#
#
# Indices 1 2 3 4 5 6 
#
# 1 0.011738 -0.000868 0.002267 0.000000 0.000000 0.000000
# 2 -0.000868 0.010378 -0.002439 0.000000 0.000000 0.000000
# 3 0.002267 -0.002439 0.030302 0.000000 0.000000 0.000000
# 4 0.000000 0.000000 0.000000 0.032850 0.000000 0.000000
# 5 0.000000 0.000000 0.000000 0.000000 0.044395 0.000000
# 6 0.000000 0.000000 0.000000 0.000000 0.000000 0.033978
#
#
# Mechanical properties :
#
#
# Convention : Reuss Voigt Hill
#
# Bulk Modulus (GPa) = 19.86478 26.00892 22.93685
# Shear Modulus (GPa) = 27.39741 30.62154 29.00948
#
# Velocity S-wave (km/s) = 3.60983 3.81633 3.71451
# Velocity P-wave (km/s) = 5.17906 5.63823 5.41351
#
# Compressibility (1/GPa) = 0.05034034
#
# Stress axis : x y z
#
# Youngs Moduli (GPa) = 85.19028 96.35418 33.00142
#
# Poissons Ratio (x) = 0.08363 -0.07483
# Poissons Ratio (y) = 0.07394 0.08048
# Poissons Ratio (z) = -0.19317 0.23497
#
# Static dielectric constant tensor:
#      x y z
#    x 1.821940 0.000000 0.000000 
#    y 0.000000 1.844270 0.000000 
#    z 0.000000 0.000000 1.769300 
# 
# From -- ./inp_files/12583.got.cif
#   From: 2010.05.17/outbox.cif.g08.bks.cpg/sg52_7_cif.got.tgz:12583.got - 2010.06.03 12:15:38.
