data_PCOD9410835
_publ_section_title
;
Structure prediction by ZEFSAII (Michael W. Deem and Ramdas Pophale) SiO2 
 PCOD9410835
Probable space group: P N N A
;
_chemical_formula_sum "Si O2"
_cell_formula_units_Z 48
_cell_length_a 16.413192
_cell_length_b 16.264525
_cell_length_c 8.685817
_cell_angle_alpha 90.000000
_cell_angle_beta 90.000000
_cell_angle_gamma 90.000000
_cell_volume 2318.702922
_symmetry_space_group_name_H-M "P N N A"
_symmetry_group_IT_number 52
_symmetry_cell_setting 'orthorhombic'
loop_
_space_group_symop_operation_xyz
x,y,z
1/2-x,-y,z
x,1/2-y,1/2-z
1/2-x,1/2+y,1/2-z
-x,-y,-z
1/2+x,y,-z
-x,1/2+y,1/2+z
1/2+x,1/2-y,1/2+z
loop_
_atom_site_type_symbol
_atom_site_label
_atom_site_fract_x
_atom_site_fract_y
_atom_site_fract_z
Si Si1 0.954161 0.745090 0.066831
Si Si2 0.821030 0.162456 0.335874
Si Si3 0.988454 0.418126 0.102132
Si Si4 0.226760 0.248545 0.071886
Si Si5 0.959732 0.584146 0.557117
Si Si6 0.219284 0.090182 0.922952
O O1 0.961863 0.750000 0.250000
O O2 0.858424 0.742686 0.019555
O O3 0.995319 0.826112 0.989430
O O4 0.990817 0.661714 0.999074
O O5 0.839366 0.250000 0.250000
O O6 0.896399 0.099965 0.338659
O O7 0.790057 0.186083 0.505566
O O8 0.745665 0.121299 0.244946
O O9 0.043053 0.419661 0.257397
O O10 0.000000 0.500000 0.000000
O O11 0.209085 0.250000 0.250000
O O12 0.259879 0.157985 0.032600
O O13 0.874685 0.587942 0.466765
O O14 0.000000 0.500000 0.500000
O O15 0.250000 0.000000 0.948604
#
# Coordination Sequence:
#
# PCOD9410835 Si02
#       6
#     8   8   8   8   8   8
#     4  11  22  41  65  91 130 176 218 268 327 385
#     4  10  22  42  65  90 124 169 216 265 324 385
#     4  12  26  42  63  96 133 171 217 268 324 388
#     4  10  21  39  64  92 124 165 215 267 322 381
#     4  11  22  40  65  94 128 167 213 264 322 389
#     4  10  21  38  62  91 123 162 208 260 318 378
#
# _framework density 20.701229999999999
#
# number of rings (size 3 to 8) (size 9 to 14) (size 15 to 20)
#    0.000    1.333    0.000    8.000    0.000    6.000 
#    0.000    0.833    0.000    0.000    0.000    0.000 
#    0.000    0.000    0.000    0.000    0.000    0.000 
#
# Total GULP energy -267930.156642 kJ/mol
# GULP energy per Si atom -5581.878263 kJ/mol
# Density = 2.065411 g / cm^3
# Si number density = 20.701230 Si / 1000 Ang^3
#
#
#
# Elastic Constant Matrix: (Units=GPa)
#
#
# Indices 1 2 3 4 5 6 
#
# 1 73.7907 33.7814 27.0996 0.0000 0.0000 0.0000
# 2 33.7814 160.1008 60.3591 0.0000 0.0000 0.0000
# 3 27.0996 60.3591 142.6506 0.0000 0.0000 0.0000
# 4 0.0000 0.0000 0.0000 27.0667 0.0000 0.0000
# 5 0.0000 0.0000 0.0000 0.0000 29.0731 0.0000
# 6 0.0000 0.0000 0.0000 0.0000 0.0000 19.5774
#
#
#
# Elastic Compliance Matrix: (Units=1/GPa)
#
#
# Indices 1 2 3 4 5 6 
#
# 1 0.015398 -0.002554 -0.001845 0.000000 0.000000 0.000000
# 2 -0.002554 0.007855 -0.002839 0.000000 0.000000 0.000000
# 3 -0.001845 -0.002839 0.008562 0.000000 0.000000 0.000000
# 4 0.000000 0.000000 0.000000 0.036946 0.000000 0.000000
# 5 0.000000 0.000000 0.000000 0.000000 0.034396 0.000000
# 6 0.000000 0.000000 0.000000 0.000000 0.000000 0.051079
#
#
# Mechanical properties :
#
#
# Convention : Reuss Voigt Hill
#
# Bulk Modulus (GPa) = 57.66604 68.78028 63.22316
# Shear Modulus (GPa) = 28.65485 32.16355 30.40920
#
# Velocity S-wave (km/s) = 3.72453 3.94598 3.83685
# Velocity P-wave (km/s) = 6.81271 7.35244 7.08771
#
# Compressibility (1/GPa) = 0.01734123
#
# Stress axis : x y z
#
# Youngs Moduli (GPa) = 64.94200 127.30704 116.79983
#
# Poissons Ratio (x) = 0.32509 0.21547
# Poissons Ratio (y) = 0.16583 0.33154
# Poissons Ratio (z) = 0.11980 0.36137
#
# Static dielectric constant tensor:
#      x y z
#    x 1.673290 0.000000 0.000000 
#    y 0.000000 1.787680 0.000000 
#    z 0.000000 0.000000 1.783100 
# 
# From -- ./inp_files/10446.got.cif
#   From: 2010.05.17/outbox.cif.g08.bks.cpg/sg52_6_cif.got.tgz:10446.got - 2010.06.03 12:15:38.
