data_PCOD9410519
_publ_section_title
;
Structure prediction by ZEFSAII (Michael W. Deem and Ramdas Pophale) SiO2 
 PCOD9410519
Probable space group: P N N A
;
_chemical_formula_sum "Si O2"
_cell_formula_units_Z 36
_cell_length_a 25.266679
_cell_length_b 5.209521
_cell_length_c 16.780249
_cell_angle_alpha 90.000000
_cell_angle_beta 90.000000
_cell_angle_gamma 90.000000
_cell_volume 2208.738783
_symmetry_space_group_name_H-M "P N N A"
_symmetry_group_IT_number 52
_symmetry_cell_setting 'orthorhombic'
loop_
_space_group_symop_operation_xyz
x,y,z
1/2-x,-y,z
x,1/2-y,1/2-z
1/2-x,1/2+y,1/2-z
-x,-y,-z
1/2+x,y,-z
-x,1/2+y,1/2+z
1/2+x,1/2-y,1/2+z
loop_
_atom_site_type_symbol
_atom_site_label
_atom_site_fract_x
_atom_site_fract_y
_atom_site_fract_z
Si Si1 0.551700 0.239576 0.424471
Si Si2 0.570794 0.737420 0.518912
Si Si3 0.750000 0.500000 0.805394
Si Si4 0.982344 0.750000 0.250000
Si Si5 0.633870 0.905555 0.665813
Si Si6 0.556455 0.250000 0.750000
O O1 0.576547 0.493201 0.462370
O O2 0.489177 0.254068 0.447057
O O3 0.551803 0.217604 0.329485
O O4 0.576195 0.993178 0.466799
O O5 0.609213 0.744916 0.594312
O O6 0.755353 0.750000 0.750000
O O7 0.694529 0.523649 0.850871
O O8 0.019164 0.497496 0.263703
O O9 0.632964 0.750000 0.750000
O O10 0.595799 0.152174 0.680289
#
# Coordination Sequence:
#
# PCOD9410519 Si02
#       6
#     8   8   4   4   8   4
#     4  10  21  33  47  71  95 130 165 210 237 293
#     4  10  21  32  48  70  99 126 170 203 243 283
#     4  10  22  34  50  72  98 130 176 208 236 284
#     4  12  22  34  51  72 100 134 175 200 252 296
#     4  11  22  35  52  72 101 138 171 205 245 296
#     4  12  20  30  51  72  92 142 167 202 234 300
#
# _framework density 16.298894000000001
#
# number of rings (size 3 to 8) (size 9 to 14) (size 15 to 20)
#    0.000    1.333    4.444    1.333    9.333    0.000 
#    0.000    0.000    0.000    0.000    0.000    0.000 
#    0.000    3.556    0.000    0.000    0.000    0.000 
#
# Total GULP energy -200950.976004 kJ/mol
# GULP energy per Si atom -5581.971556 kJ/mol
# Density = 1.626180 g / cm^3
# Si number density = 16.298894 Si / 1000 Ang^3
#
#
#
# Elastic Constant Matrix: (Units=GPa)
#
#
# Indices 1 2 3 4 5 6 
#
# 1 65.6849 28.2556 32.4604 0.0000 0.0000 0.0000
# 2 28.2556 124.8217 45.9647 0.0000 0.0000 0.0000
# 3 32.4604 45.9647 117.7549 0.0000 0.0000 0.0000
# 4 0.0000 0.0000 0.0000 20.4764 0.0000 0.0000
# 5 0.0000 0.0000 0.0000 0.0000 10.1393 0.0000
# 6 0.0000 0.0000 0.0000 0.0000 0.0000 8.7451
#
#
#
# Elastic Compliance Matrix: (Units=1/GPa)
#
#
# Indices 1 2 3 4 5 6 
#
# 1 0.018361 -0.002677 -0.004016 0.000000 0.000000 0.000000
# 2 -0.002677 0.009747 -0.003067 0.000000 0.000000 0.000000
# 3 -0.004016 -0.003067 0.010796 0.000000 0.000000 0.000000
# 4 0.000000 0.000000 0.000000 0.048837 0.000000 0.000000
# 5 0.000000 0.000000 0.000000 0.000000 0.098626 0.000000
# 6 0.000000 0.000000 0.000000 0.000000 0.000000 0.114350
#
#
# Mechanical properties :
#
#
# Convention : Reuss Voigt Hill
#
# Bulk Modulus (GPa) = 51.59016 57.95812 54.77414
# Shear Modulus (GPa) = 15.30469 21.31088 18.30779
#
# Velocity S-wave (km/s) = 3.06764 3.61987 3.35513
# Velocity P-wave (km/s) = 6.65346 7.28752 6.97769
#
# Compressibility (1/GPa) = 0.01938354
#
# Stress axis : x y z
#
# Youngs Moduli (GPa) = 54.46424 102.59872 92.62404
#
# Poissons Ratio (x) = 0.27469 0.37200
# Poissons Ratio (y) = 0.14582 0.28403
# Poissons Ratio (z) = 0.21874 0.31462
#
# Static dielectric constant tensor:
#      x y z
#    x 1.531270 0.000000 0.000000 
#    y 0.000000 1.594180 0.000000 
#    z 0.000000 0.000000 1.484980 
# 
# From -- ./inp_files/28518.got.cif
#   From: 2010.05.17/outbox.cif.g08.bks.cpg/sg52_15_cif.got.tgz:28518.got - 2010.06.03 12:15:38.
