data_PCOD9410523
_publ_section_title
;
Structure prediction by ZEFSAII (Michael W. Deem and Ramdas Pophale) SiO2 
 PCOD9410523
Probable space group: P N N A
;
_chemical_formula_sum "Si O2"
_cell_formula_units_Z 64
_cell_length_a 26.005636
_cell_length_b 15.428720
_cell_length_c 8.258152
_cell_angle_alpha 90.000000
_cell_angle_beta 90.000000
_cell_angle_gamma 90.000000
_cell_volume 3313.448686
_symmetry_space_group_name_H-M "P N N A"
_symmetry_group_IT_number 52
_symmetry_cell_setting 'orthorhombic'
loop_
_space_group_symop_operation_xyz
x,y,z
1/2-x,-y,z
x,1/2-y,1/2-z
1/2-x,1/2+y,1/2-z
-x,-y,-z
1/2+x,y,-z
-x,1/2+y,1/2+z
1/2+x,1/2-y,1/2+z
loop_
_atom_site_type_symbol
_atom_site_label
_atom_site_fract_x
_atom_site_fract_y
_atom_site_fract_z
Si Si1 0.074807 0.835477 0.850381
Si Si2 0.638724 0.495531 0.258744
Si Si3 0.964380 0.451197 0.869658
Si Si4 0.028429 0.077782 0.097036
Si Si5 0.940115 0.649260 0.280099
Si Si6 0.341554 0.225918 0.063868
Si Si7 0.848485 0.416873 0.946609
Si Si8 0.695476 0.544996 0.584503
O O1 0.086396 0.750000 0.750000
O O2 0.099856 0.923531 0.786054
O O3 0.014952 0.854436 0.852545
O O4 0.102725 0.814143 0.019182
O O5 0.604950 0.411745 0.213808
O O6 0.667595 0.495323 0.433075
O O7 0.668016 0.520031 0.093083
O O8 0.947572 0.526902 0.745206
O O9 0.911201 0.412230 0.933932
O O10 0.004044 0.383561 0.785792
O O11 0.000000 0.500000 0.000000
O O12 0.063255 0.126610 0.970242
O O13 0.000000 0.000000 0.000000
O O14 0.934293 0.750000 0.250000
O O15 0.340900 0.250000 0.250000
O O16 0.331059 0.320919 0.993547
O O17 0.303667 0.146264 0.027252
O O18 0.829681 0.445920 0.766172
O O19 0.750000 0.500000 0.604987
#
# Coordination Sequence:
#
# PCOD9410523 Si02
#       8
#     8   8   8   8   8   8   8   8
#     4  11  19  32  54  86 122 157 205 257 310 356
#     4  11  21  42  63  88 125 167 206 261 319 376
#     4  11  21  36  58  91 130 169 210 258 311 373
#     4  10  21  33  49  78 121 174 206 247 297 354
#     4  11  24  36  57  83 130 177 221 246 303 382
#     4   9  21  33  60  93 120 148 202 262 323 372
#     4  11  21  38  68  94 129 159 212 265 317 377
#     4  10  24  42  67  93 122 158 202 270 342 385
#
# _framework density 19.315224000000001
#
# number of rings (size 3 to 8) (size 9 to 14) (size 15 to 20)
#    0.000    1.500    5.000    0.750   10.500    0.500 
#    0.000    0.000   11.000    0.000    0.000    0.000 
#    0.000    0.000    0.000    0.000    0.000    0.000 
#
# Total GULP energy -356328.728270 kJ/mol
# GULP energy per Si atom -5567.636379 kJ/mol
# Density = 1.927126 g / cm^3
# Si number density = 19.315224 Si / 1000 Ang^3
#
#
#
# Elastic Constant Matrix: (Units=GPa)
#
#
# Indices 1 2 3 4 5 6 
#
# 1 65.7246 39.2645 19.4503 0.0000 0.0000 0.0000
# 2 39.2645 129.6718 29.7154 0.0000 0.0000 0.0000
# 3 19.4503 29.7154 75.3053 0.0000 0.0000 0.0000
# 4 0.0000 0.0000 0.0000 17.6757 0.0000 0.0000
# 5 0.0000 0.0000 0.0000 0.0000 17.4156 0.0000
# 6 0.0000 0.0000 0.0000 0.0000 0.0000 21.1310
#
#
#
# Elastic Compliance Matrix: (Units=1/GPa)
#
#
# Indices 1 2 3 4 5 6 
#
# 1 0.019142 -0.005127 -0.002921 0.000000 0.000000 0.000000
# 2 -0.005127 0.009852 -0.002563 0.000000 0.000000 0.000000
# 3 -0.002921 -0.002563 0.015045 0.000000 0.000000 0.000000
# 4 0.000000 0.000000 0.000000 0.056575 0.000000 0.000000
# 5 0.000000 0.000000 0.000000 0.000000 0.057420 0.000000
# 6 0.000000 0.000000 0.000000 0.000000 0.000000 0.047324
#
#
# Mechanical properties :
#
#
# Convention : Reuss Voigt Hill
#
# Bulk Modulus (GPa) = 43.82766 49.72912 46.77839
# Shear Modulus (GPa) = 21.35058 23.39589 22.37323
#
# Velocity S-wave (km/s) = 3.32833 3.48410 3.40710
# Velocity P-wave (km/s) = 6.12457 6.47976 6.30466
#
# Compressibility (1/GPa) = 0.02281664
#
# Stress axis : x y z
#
# Youngs Moduli (GPa) = 52.24034 101.50665 66.46630
#
# Poissons Ratio (x) = 0.52041 0.19416
# Poissons Ratio (y) = 0.26783 0.17037
# Poissons Ratio (z) = 0.15260 0.26018
#
# Static dielectric constant tensor:
#      x y z
#    x 1.370480 0.000000 0.000000 
#    y 0.000000 1.135330 0.000000 
#    z 0.000000 0.000000 1.740960 
# 
# From -- ./inp_files/14513.got.cif
#   From: 2010.05.17/outbox.cif.g08.bks.cpg/sg52_8_cif.got.tgz:14513.got - 2010.06.03 12:15:38.
