data_PCOD9410139
_publ_section_title
;
Structure prediction by ZEFSAII (Michael W. Deem and Ramdas Pophale) SiO2 
 PCOD9410139
Probable space group: P N N A
;
_chemical_formula_sum "Si O2"
_cell_formula_units_Z 40
_cell_length_a 14.549964
_cell_length_b 15.697738
_cell_length_c 7.276142
_cell_angle_alpha 90.000000
_cell_angle_beta 90.000000
_cell_angle_gamma 90.000000
_cell_volume 1661.881913
_symmetry_space_group_name_H-M "P N N A"
_symmetry_group_IT_number 52
_symmetry_cell_setting 'orthorhombic'
loop_
_space_group_symop_operation_xyz
x,y,z
1/2-x,-y,z
x,1/2-y,1/2-z
1/2-x,1/2+y,1/2-z
-x,-y,-z
1/2+x,y,-z
-x,1/2+y,1/2+z
1/2+x,1/2-y,1/2+z
loop_
_atom_site_type_symbol
_atom_site_label
_atom_site_fract_x
_atom_site_fract_y
_atom_site_fract_z
Si Si1 0.593150 0.541095 0.915255
Si Si2 0.774489 0.877663 0.619701
Si Si3 0.971103 0.402703 0.525491
Si Si4 0.272595 0.099674 0.953557
Si Si5 0.123297 0.278969 0.566557
O O1 0.678209 0.601440 0.987744
O O2 0.655271 0.457131 0.880415
O O3 0.555730 0.593987 0.740498
O O4 0.500000 0.500000 0.000000
O O5 0.745915 0.872904 0.834143
O O6 0.829197 0.795852 0.546714
O O7 0.878518 0.385608 0.414661
O O8 0.000000 0.500000 0.500000
O O9 0.050912 0.339350 0.465130
O O10 0.250000 0.000000 0.933189
O O11 0.201110 0.158309 0.850013
O O12 0.071322 0.250000 0.750000
#
# Coordination Sequence:
#
# PCOD9410139 Si02
#       5
#     8   8   8   8   8
#     4  10  20  38  67  93 129 174 220 265 338 398
#     4  10  21  42  64  95 130 174 225 272 321 404
#     4  11  22  41  68  92 126 175 221 267 334 404
#     4  11  21  45  70  89 126 184 223 257 333 411
#     4  12  26  40  62 104 138 161 216 294 337 376
#
# _framework density 24.069099999999999
#
# number of rings (size 3 to 8) (size 9 to 14) (size 15 to 20)
#    0.000    1.200    6.000    1.800    0.000    6.400 
#    3.600    2.000    0.000    0.000    0.000    0.000 
#    0.000    0.000    0.000    0.000    0.000    0.000 
#
# Total GULP energy -223155.808696 kJ/mol
# GULP energy per Si atom -5578.895217 kJ/mol
# Density = 2.401432 g / cm^3
# Si number density = 24.069100 Si / 1000 Ang^3
#
#
#
# Elastic Constant Matrix: (Units=GPa)
#
#
# Indices 1 2 3 4 5 6 
#
# 1 196.2602 60.8666 16.9344 0.0000 0.0000 0.0000
# 2 60.8666 147.8661 13.9204 0.0000 0.0000 0.0000
# 3 16.9344 13.9204 33.6569 0.0000 0.0000 0.0000
# 4 0.0000 0.0000 0.0000 19.6507 0.0000 0.0000
# 5 0.0000 0.0000 0.0000 0.0000 22.9981 0.0000
# 6 0.0000 0.0000 0.0000 0.0000 0.0000 51.2705
#
#
#
# Elastic Compliance Matrix: (Units=1/GPa)
#
#
# Indices 1 2 3 4 5 6 
#
# 1 0.005976 -0.002265 -0.002070 0.000000 0.000000 0.000000
# 2 -0.002265 0.007895 -0.002126 0.000000 0.000000 0.000000
# 3 -0.002070 -0.002126 0.031632 0.000000 0.000000 0.000000
# 4 0.000000 0.000000 0.000000 0.050889 0.000000 0.000000
# 5 0.000000 0.000000 0.000000 0.000000 0.043482 0.000000
# 6 0.000000 0.000000 0.000000 0.000000 0.000000 0.019504
#
#
# Mechanical properties :
#
#
# Convention : Reuss Voigt Hill
#
# Bulk Modulus (GPa) = 30.69185 62.35845 46.52515
# Shear Modulus (GPa) = 27.29820 37.85465 32.57643
#
# Velocity S-wave (km/s) = 3.37138 3.97009 3.68292
# Velocity P-wave (km/s) = 5.28528 6.85418 6.12021
#
# Compressibility (1/GPa) = 0.03258194
#
# Stress axis : x y z
#
# Youngs Moduli (GPa) = 167.32451 126.65551 31.61320
#
# Poissons Ratio (x) = 0.28690 0.06544
# Poissons Ratio (y) = 0.37902 0.06720
# Poissons Ratio (z) = 0.34638 0.26924
#
# Static dielectric constant tensor:
#      x y z
#    x 1.928350 0.000000 0.000000 
#    y 0.000000 1.948170 0.000000 
#    z 0.000000 0.000000 2.188520 
# 
# From -- ./inp_files/10061.got.cif
#   From: 2010.05.17/outbox.cif.g08.bks.cpg/sg52_6_cif.got.tgz:10061.got - 2010.06.03 12:15:38.
