data_PCOD9410727
_publ_section_title
;
Structure prediction by ZEFSAII (Michael W. Deem and Ramdas Pophale) SiO2 
 PCOD9410727
Probable space group: P N N A
;
_chemical_formula_sum "Si O2"
_cell_formula_units_Z 64
_cell_length_a 9.575333
_cell_length_b 15.947100
_cell_length_c 21.400616
_cell_angle_alpha 90.000000
_cell_angle_beta 90.000000
_cell_angle_gamma 90.000000
_cell_volume 3267.848230
_symmetry_space_group_name_H-M "P N N A"
_symmetry_group_IT_number 52
_symmetry_cell_setting 'orthorhombic'
loop_
_space_group_symop_operation_xyz
x,y,z
1/2-x,-y,z
x,1/2-y,1/2-z
1/2-x,1/2+y,1/2-z
-x,-y,-z
1/2+x,y,-z
-x,1/2+y,1/2+z
1/2+x,1/2-y,1/2+z
loop_
_atom_site_type_symbol
_atom_site_label
_atom_site_fract_x
_atom_site_fract_y
_atom_site_fract_z
Si Si1 0.191619 0.354095 0.680417
Si Si2 0.360503 0.929940 0.682171
Si Si3 0.230036 0.903686 0.956476
Si Si4 0.499171 0.776084 0.622472
Si Si5 0.003748 0.180897 0.198074
Si Si6 0.327266 0.798537 0.377856
Si Si7 0.892713 0.547294 0.786698
Si Si8 0.043600 0.207832 0.016545
O O1 0.180089 0.399619 0.747357
O O2 0.208382 0.402719 0.614637
O O3 0.057891 0.294820 0.670178
O O4 0.341628 0.307564 0.681987
O O5 0.391449 0.851916 0.636902
O O6 0.250000 0.000000 0.661163
O O7 0.505414 0.977689 0.687457
O O8 0.323595 0.850387 0.003786
O O9 0.250000 0.000000 0.976422
O O10 0.081518 0.853062 0.957966
O O11 0.660936 0.799550 0.629791
O O12 0.492766 0.741130 0.552527
O O13 0.033348 0.250000 0.250000
O O14 0.114016 0.208971 0.146893
O O15 0.036204 0.090581 0.226440
O O16 0.377081 0.878632 0.337921
O O17 0.403015 0.789687 0.444860
O O18 0.750000 0.500000 0.771434
#
# Coordination Sequence:
#
# PCOD9410727 Si02
#       8
#     8   8   8   8   8   8   8   8
#     4  11  23  39  65  94 129 169 212 264 322 402
#     4  12  24  41  65  96 135 166 216 275 338 384
#     4  11  23  40  65  98 130 166 211 271 322 381
#     4  11  25  42  66  94 127 175 221 269 324 397
#     4  10  21  37  61  90 122 168 212 252 318 393
#     4  11  23  43  65  90 126 174 222 259 326 400
#     4  11  24  40  62  93 131 167 203 273 329 380
#     4  11  23  44  68  90 129 172 223 263 317 389
#
# _framework density 19.584752000000002
#
# number of rings (size 3 to 8) (size 9 to 14) (size 15 to 20)
#    0.000    1.000    5.000    1.875    3.500    1.000 
#    0.000    1.875    0.000    0.000    0.000    0.000 
#    0.000    0.000    0.000    0.000    0.000    0.000 
#
# Total GULP energy -356335.168178 kJ/mol
# GULP energy per Si atom -5567.737003 kJ/mol
# Density = 1.954018 g / cm^3
# Si number density = 19.584752 Si / 1000 Ang^3
#
#
#
# Elastic Constant Matrix: (Units=GPa)
#
#
# Indices 1 2 3 4 5 6 
#
# 1 94.3998 6.1034 2.2295 0.0000 0.0000 0.0000
# 2 6.1034 55.7209 9.7744 0.0000 0.0000 0.0000
# 3 2.2295 9.7744 46.4571 0.0000 0.0000 0.0000
# 4 0.0000 0.0000 0.0000 14.0235 0.0000 0.0000
# 5 0.0000 0.0000 0.0000 0.0000 16.0114 0.0000
# 6 0.0000 0.0000 0.0000 0.0000 0.0000 32.2124
#
#
#
# Elastic Compliance Matrix: (Units=1/GPa)
#
#
# Indices 1 2 3 4 5 6 
#
# 1 0.010672 -0.001121 -0.000276 0.000000 0.000000 0.000000
# 2 -0.001121 0.018752 -0.003892 0.000000 0.000000 0.000000
# 3 -0.000276 -0.003892 0.022357 0.000000 0.000000 0.000000
# 4 0.000000 0.000000 0.000000 0.071309 0.000000 0.000000
# 5 0.000000 0.000000 0.000000 0.000000 0.062455 0.000000
# 6 0.000000 0.000000 0.000000 0.000000 0.000000 0.031044
#
#
# Mechanical properties :
#
#
# Convention : Reuss Voigt Hill
#
# Bulk Modulus (GPa) = 24.26920 25.86582 25.06751
# Shear Modulus (GPa) = 20.75537 24.34750 22.55143
#
# Velocity S-wave (km/s) = 3.25895 3.52971 3.39703
# Velocity P-wave (km/s) = 5.15556 5.46330 5.31165
#
# Compressibility (1/GPa) = 0.04120449
#
# Stress axis : x y z
#
# Youngs Moduli (GPa) = 93.70121 53.32773 44.72821
#
# Poissons Ratio (x) = 0.05975 0.01236
# Poissons Ratio (y) = 0.10499 0.17406
# Poissons Ratio (z) = 0.02590 0.20753
#
# Static dielectric constant tensor:
#      x y z
#    x 1.659280 0.000000 0.000000 
#    y 0.000000 1.664710 0.000000 
#    z 0.000000 0.000000 1.818150 
# 
# From -- ./inp_files/36189.got.cif
#   From: 2010.05.17/outbox.cif.g08.bks.cpg/sg52_19_cif.got.tgz:36189.got - 2010.06.03 12:15:38.
