data_PCOD9410122
_publ_section_title
;
Structure prediction by ZEFSAII (Michael W. Deem and Ramdas Pophale) SiO2 
 PCOD9410122
Probable space group: P N N A
;
_chemical_formula_sum "Si O2"
_cell_formula_units_Z 36
_cell_length_a 9.904159
_cell_length_b 17.294419
_cell_length_c 8.531513
_cell_angle_alpha 90.000000
_cell_angle_beta 90.000000
_cell_angle_gamma 90.000000
_cell_volume 1461.334500
_symmetry_space_group_name_H-M "P N N A"
_symmetry_group_IT_number 52
_symmetry_cell_setting 'orthorhombic'
loop_
_space_group_symop_operation_xyz
x,y,z
1/2-x,-y,z
x,1/2-y,1/2-z
1/2-x,1/2+y,1/2-z
-x,-y,-z
1/2+x,y,-z
-x,1/2+y,1/2+z
1/2+x,1/2-y,1/2+z
loop_
_atom_site_type_symbol
_atom_site_label
_atom_site_fract_x
_atom_site_fract_y
_atom_site_fract_z
Si Si1 0.879175 0.360742 0.858213
Si Si2 0.068146 0.829002 0.702335
Si Si3 0.250000 0.000000 0.542770
Si Si4 0.161815 0.420583 0.345025
Si Si5 0.148710 0.118223 0.798016
O O1 0.761105 0.356758 0.731011
O O2 0.014197 0.342960 0.764147
O O3 0.890814 0.317278 0.021816
O O4 0.845348 0.446349 0.935393
O O5 0.996573 0.750000 0.750000
O O6 0.208758 0.838217 0.794846
O O7 0.974078 0.903130 0.743477
O O8 0.331012 0.945861 0.661846
O O9 0.250000 0.500000 0.344450
O O10 0.124539 0.410368 0.526433
#
# Coordination Sequence:
#
# PCOD9410122 Si02
#       5
#     8   8   4   8   8
#     4  11  24  44  72 104 141 189 235 294 360 433
#     4  11  27  49  70 102 144 195 249 302 369 441
#     4  10  20  38  66 104 138 180 226 290 356 424
#     4  12  26  44  72 110 149 190 243 309 368 436
#     4  11  24  41  70 103 143 184 234 295 360 434
#
# _framework density 24.635017999999999
#
# number of rings (size 3 to 8) (size 9 to 14) (size 15 to 20)
#    0.000    0.889    2.222    4.667    6.222    5.333 
#    0.000    3.333    0.000    0.000    0.000    0.000 
#    0.000    0.000    0.000    0.000    0.000    0.000 
#
# Total GULP energy -200755.203041 kJ/mol
# GULP energy per Si atom -5576.533418 kJ/mol
# Density = 2.457895 g / cm^3
# Si number density = 24.635018 Si / 1000 Ang^3
#
#
#
# Elastic Constant Matrix: (Units=GPa)
#
#
# Indices 1 2 3 4 5 6 
#
# 1 123.0867 18.4450 -2.3230 0.0000 0.0000 0.0000
# 2 18.4450 76.7243 8.2424 0.0000 0.0000 0.0000
# 3 -2.3230 8.2424 128.6367 0.0000 0.0000 0.0000
# 4 0.0000 0.0000 0.0000 6.1225 0.0000 0.0000
# 5 0.0000 0.0000 0.0000 0.0000 191.4784 0.0000
# 6 0.0000 0.0000 0.0000 0.0000 0.0000 -0.0638
#
#
#
# Elastic Compliance Matrix: (Units=1/GPa)
#
#
# Indices 1 2 3 4 5 6 
#
# 1 0.008438 -0.002059 0.000284 0.000000 0.000000 0.000000
# 2 -0.002059 0.013627 -0.000910 0.000000 0.000000 0.000000
# 3 0.000284 -0.000910 0.007837 0.000000 0.000000 0.000000
# 4 0.000000 0.000000 0.000000 0.163332 0.000000 0.000000
# 5 0.000000 0.000000 0.000000 0.000000 0.005223 0.000000
# 6 0.000000 0.000000 0.000000 0.000000 0.000000-15.668449
#
#
# Mechanical properties :
#
#
# Convention : Reuss Voigt Hill
#
# Bulk Modulus (GPa) = 40.76339 41.90848 41.33593
# Shear Modulus (GPa) = -0.32349 59.77964 29.72808
#
# Velocity S-wave (km/s) = -0.36276 4.93141 3.47759
# Velocity P-wave (km/s) = 4.05060 7.03376 5.73939
#
# Compressibility (1/GPa) = 0.02453182
#
# Stress axis : x y z
#
# Youngs Moduli (GPa) = 118.50735 73.38641 127.59502
#
# Poissons Ratio (x) = 0.15111 -0.03628
# Poissons Ratio (y) = 0.24403 0.11615
# Poissons Ratio (z) = -0.03369 0.06680
#
# Static dielectric constant tensor:
#      x y z
#    x 2.033650 0.000000 0.000000 
#    y 0.000000 3.515310 0.000000 
#    z 0.000000 0.000000 1.922750 
# 
# From -- ./inp_files/7268.got.cif
#   From: 2010.05.17/outbox.cif.g08.bks.cpg/sg52_4_cif.got.tgz:7268.got - 2010.06.03 12:15:38.
