data_PCOD9410691
_publ_section_title
;
Structure prediction by ZEFSAII (Michael W. Deem and Ramdas Pophale) SiO2 
 PCOD9410691
Probable space group: P N N A
;
_chemical_formula_sum "Si O2"
_cell_formula_units_Z 40
_cell_length_a 27.091242
_cell_length_b 10.447353
_cell_length_c 6.708424
_cell_angle_alpha 90.000000
_cell_angle_beta 90.000000
_cell_angle_gamma 90.000000
_cell_volume 1898.697108
_symmetry_space_group_name_H-M "P N N A"
_symmetry_group_IT_number 52
_symmetry_cell_setting 'orthorhombic'
loop_
_space_group_symop_operation_xyz
x,y,z
1/2-x,-y,z
x,1/2-y,1/2-z
1/2-x,1/2+y,1/2-z
-x,-y,-z
1/2+x,y,-z
-x,1/2+y,1/2+z
1/2+x,1/2-y,1/2+z
loop_
_atom_site_type_symbol
_atom_site_label
_atom_site_fract_x
_atom_site_fract_y
_atom_site_fract_z
Si Si1 0.806956 0.965238 0.262670
Si Si2 0.945708 0.887641 0.061865
Si Si3 0.532950 0.951088 0.685413
Si Si4 0.151773 0.232550 0.018107
Si Si5 0.600085 0.613032 0.160079
O O1 0.821348 0.850604 0.413063
O O2 0.750000 0.000000 0.264922
O O3 0.841887 0.083167 0.321979
O O4 0.823642 0.900382 0.053954
O O5 0.998897 0.867878 0.163494
O O6 0.923401 0.002473 0.198056
O O7 0.905751 0.775201 0.047619
O O8 0.951690 0.935782 0.835295
O O9 0.579624 0.895561 0.565727
O O10 0.500000 0.000000 0.500000
O O11 0.154646 0.250000 0.250000
O O12 0.587127 0.750000 0.250000
#
# Coordination Sequence:
#
# PCOD9410691 Si02
#       5
#     8   8   8   8   8
#     4  10  23  41  66  91 123 165 214 265 325 380
#     4   9  19  38  61  89 123 163 209 251 308 375
#     4   9  18  37  60  89 125 164 206 252 306 371
#     4  10  21  40  65  92 126 162 212 267 318 374
#     4  10  21  37  58  85 124 164 200 256 311 370
#
# _framework density 21.067079
#
# number of rings (size 3 to 8) (size 9 to 14) (size 15 to 20)
#    0.000    2.400    0.000    1.200    2.800    3.200 
#    0.000   49.000    0.000    0.000    0.000    0.000 
#    0.000    0.000    0.000    0.000    0.000    0.000 
#
# Total GULP energy -223268.709849 kJ/mol
# GULP energy per Si atom -5581.717746 kJ/mol
# Density = 2.101913 g / cm^3
# Si number density = 21.067079 Si / 1000 Ang^3
#
#
#
# Elastic Constant Matrix: (Units=GPa)
#
#
# Indices 1 2 3 4 5 6 
#
# 1 122.4731 17.6484 63.5444 0.0000 0.0000 0.0000
# 2 17.6484 63.9248 38.6056 0.0000 0.0000 0.0000
# 3 63.5444 38.6056 186.3051 0.0000 0.0000 0.0000
# 4 0.0000 0.0000 0.0000 29.1208 0.0000 0.0000
# 5 0.0000 0.0000 0.0000 0.0000 -10.6351 0.0000
# 6 0.0000 0.0000 0.0000 0.0000 0.0000 -1.7932
#
#
#
# Elastic Compliance Matrix: (Units=1/GPa)
#
#
# Indices 1 2 3 4 5 6 
#
# 1 0.009956 -0.000798 -0.003231 0.000000 0.000000 0.000000
# 2 -0.000798 0.017945 -0.003446 0.000000 0.000000 0.000000
# 3 -0.003231 -0.003446 0.007184 0.000000 0.000000 0.000000
# 4 0.000000 0.000000 0.000000 0.034340 0.000000 0.000000
# 5 0.000000 0.000000 0.000000 0.000000 -0.094028 0.000000
# 6 0.000000 0.000000 0.000000 0.000000 0.000000 -0.557649
#
#
# Mechanical properties :
#
#
# Convention : Reuss Voigt Hill
#
# Bulk Modulus (GPa) = 49.66382 68.03331 58.84857
# Shear Modulus (GPa) = -8.91915 20.19880 5.63982
#
# Velocity S-wave (km/s) = -2.05983 3.09978 1.63795
# Velocity P-wave (km/s) = 4.23888 6.72126 5.61887
#
# Compressibility (1/GPa) = 0.02013538
#
# Stress axis : x y z
#
# Youngs Moduli (GPa) = 100.44053 55.72582 139.20690
#
# Poissons Ratio (x) = 0.04445 0.44971
# Poissons Ratio (y) = 0.08012 0.47977
# Poissons Ratio (z) = 0.32447 0.19205
#
# Static dielectric constant tensor:
#      x y z
#    x 1.805740 0.000000 0.000000 
#    y 0.000000 1.794160 0.000000 
#    z 0.000000 0.000000 1.751580 
# 
# From -- ./inp_files/5585.got.cif
#   From: 2010.05.17/outbox.cif.g08.bks.cpg/sg52_3_cif.got.tgz:5585.got - 2010.06.03 12:15:38.
