data_PCOD9410891
_publ_section_title
;
Structure prediction by ZEFSAII (Michael W. Deem and Ramdas Pophale) SiO2 
 PCOD9410891
Probable space group: P N N A
;
_chemical_formula_sum "Si O2"
_cell_formula_units_Z 56
_cell_length_a 14.587639
_cell_length_b 14.879599
_cell_length_c 12.216016
_cell_angle_alpha 90.000000
_cell_angle_beta 90.000000
_cell_angle_gamma 90.000000
_cell_volume 2651.586672
_symmetry_space_group_name_H-M "P N N A"
_symmetry_group_IT_number 52
_symmetry_cell_setting 'orthorhombic'
loop_
_space_group_symop_operation_xyz
x,y,z
1/2-x,-y,z
x,1/2-y,1/2-z
1/2-x,1/2+y,1/2-z
-x,-y,-z
1/2+x,y,-z
-x,1/2+y,1/2+z
1/2+x,1/2-y,1/2+z
loop_
_atom_site_type_symbol
_atom_site_label
_atom_site_fract_x
_atom_site_fract_y
_atom_site_fract_z
Si Si1 0.184886 0.419173 0.116911
Si Si2 0.093060 0.981213 0.570318
Si Si3 0.234519 0.221141 0.060758
Si Si4 0.525839 0.477071 0.737613
Si Si5 0.133658 0.723858 0.875347
Si Si6 0.589542 0.662679 0.676697
Si Si7 0.026721 0.156533 0.045166
O O1 0.250000 0.500000 0.157418
O O2 0.227252 0.320899 0.111468
O O3 0.093245 0.414073 0.190892
O O4 0.159520 0.451170 0.993008
O O5 0.126558 0.877896 0.576845
O O6 0.067645 0.995161 0.696926
O O7 0.000000 0.000000 0.500000
O O8 0.306430 0.166729 0.134062
O O9 0.133831 0.180520 0.047194
O O10 0.287372 0.229614 0.946223
O O11 0.575365 0.571985 0.741175
O O12 0.513200 0.432533 0.619429
O O13 0.152704 0.750000 0.750000
O O14 0.033988 0.766528 0.897781
O O15 0.570759 0.750000 0.750000
O O16 0.518480 0.654410 0.575095
#
# Coordination Sequence:
#
# PCOD9410891 Si02
#       7
#     8   8   8   8   8   8   8
#     4  11  22  38  66 100 131 170 225 290 344 399
#     4  10  21  38  66  95 128 172 223 281 337 407
#     4  11  26  42  66 103 137 169 234 284 339 415
#     4  11  24  42  69  93 134 180 228 280 350 415
#     4  11  22  44  67  98 141 179 221 282 348 407
#     4  11  27  45  68  98 139 177 228 290 348 407
#     4  11  25  43  68  98 130 186 226 275 344 427
#
# _framework density 21.119430999999999
#
# number of rings (size 3 to 8) (size 9 to 14) (size 15 to 20)
#    0.000    1.143    2.857    3.000   12.000    0.571 
#    0.000    0.000    0.000    0.000    0.000    0.000 
#    0.000    0.000    0.000    0.000    0.000    0.000 
#
# Total GULP energy -312554.763605 kJ/mol
# GULP energy per Si atom -5581.335064 kJ/mol
# Density = 2.107136 g / cm^3
# Si number density = 21.119431 Si / 1000 Ang^3
#
#
#
# Elastic Constant Matrix: (Units=GPa)
#
#
# Indices 1 2 3 4 5 6 
#
# 1 88.5774 20.5154 31.4098 0.0000 0.0000 0.0000
# 2 20.5154 56.6142 4.5196 0.0000 0.0000 0.0000
# 3 31.4098 4.5196 91.7974 0.0000 0.0000 0.0000
# 4 0.0000 0.0000 0.0000 38.8165 0.0000 0.0000
# 5 0.0000 0.0000 0.0000 0.0000 17.7525 0.0000
# 6 0.0000 0.0000 0.0000 0.0000 0.0000 26.3277
#
#
#
# Elastic Compliance Matrix: (Units=1/GPa)
#
#
# Indices 1 2 3 4 5 6 
#
# 1 0.013996 -0.004708 -0.004557 0.000000 0.000000 0.000000
# 2 -0.004708 0.019317 0.000660 0.000000 0.000000 0.000000
# 3 -0.004557 0.000660 0.012420 0.000000 0.000000 0.000000
# 4 0.000000 0.000000 0.000000 0.025762 0.000000 0.000000
# 5 0.000000 0.000000 0.000000 0.000000 0.056330 0.000000
# 6 0.000000 0.000000 0.000000 0.000000 0.000000 0.037983
#
#
# Mechanical properties :
#
#
# Convention : Reuss Voigt Hill
#
# Bulk Modulus (GPa) = 35.05991 38.87540 36.96765
# Shear Modulus (GPa) = 25.97052 28.61563 27.29308
#
# Velocity S-wave (km/s) = 3.51051 3.68495 3.59879
# Velocity P-wave (km/s) = 5.75051 6.04587 5.90004
#
# Compressibility (1/GPa) = 0.02852261
#
# Stress axis : x y z
#
# Youngs Moduli (GPa) = 71.44937 51.76856 80.51303
#
# Poissons Ratio (x) = 0.24372 0.36691
# Poissons Ratio (y) = 0.33638 -0.05312
# Poissons Ratio (z) = 0.32560 -0.03416
#
# Static dielectric constant tensor:
#      x y z
#    x 1.786000 0.000000 0.000000 
#    y 0.000000 1.743780 0.000000 
#    z 0.000000 0.000000 1.843760 
# 
# From -- ./inp_files/19654.got.cif
#   From: 2010.05.17/outbox.cif.g08.bks.cpg/sg52_10_cif.got.tgz:19654.got - 2010.06.03 12:15:38.
