data_PCOD9410525
_publ_section_title
;
Structure prediction by ZEFSAII (Michael W. Deem and Ramdas Pophale) SiO2 
 PCOD9410525
Probable space group: P N N A
;
_chemical_formula_sum "Si O2"
_cell_formula_units_Z 52
_cell_length_a 21.901488
_cell_length_b 25.030056
_cell_length_c 5.037284
_cell_angle_alpha 90.000000
_cell_angle_beta 90.000000
_cell_angle_gamma 90.000000
_cell_volume 2761.416276
_symmetry_space_group_name_H-M "P N N A"
_symmetry_group_IT_number 52
_symmetry_cell_setting 'orthorhombic'
loop_
_space_group_symop_operation_xyz
x,y,z
1/2-x,-y,z
x,1/2-y,1/2-z
1/2-x,1/2+y,1/2-z
-x,-y,-z
1/2+x,y,-z
-x,1/2+y,1/2+z
1/2+x,1/2-y,1/2+z
loop_
_atom_site_type_symbol
_atom_site_label
_atom_site_fract_x
_atom_site_fract_y
_atom_site_fract_z
Si Si1 0.575768 0.901540 0.316861
Si Si2 0.897908 0.336207 0.666497
Si Si3 0.998336 0.250000 0.750000
Si Si4 0.610831 0.201781 0.551476
Si Si5 0.210606 0.250000 0.750000
Si Si6 0.936211 0.982071 0.141552
Si Si7 0.933774 0.588431 0.825855
Si Si8 0.702771 0.750000 0.750000
O O1 0.585360 0.880654 0.614305
O O2 0.503517 0.896191 0.250303
O O3 0.591107 0.963270 0.258661
O O4 0.612353 0.864380 0.113676
O O5 0.953850 0.294559 0.629095
O O6 0.841568 0.301129 0.769626
O O7 0.044452 0.219014 0.557217
O O8 0.627582 0.250000 0.750000
O O9 0.662655 0.203251 0.325363
O O10 0.604009 0.142808 0.662130
O O11 0.254640 0.258246 0.502893
O O12 0.941128 0.942011 0.391804
O O13 0.906083 0.950590 0.897447
O O14 0.000000 0.000000 0.000000
#
# Coordination Sequence:
#
# PCOD9410525 Si02
#       8
#     8   8   4   8   4   8   8   4
#     4  11  19  35  54  85 120 157 195 224 287 345
#     4  11  22  35  60  84 119 157 185 240 293 348
#     4  10  22  32  52  90 122 150 182 232 292 364
#     4  11  23  37  61  86 121 154 194 235 301 347
#     4  11  24  43  60  79 120 151 204 248 280 359
#     4  10  21  33  52  80 126 165 192 227 274 348
#     4  11  21  34  55  85 126 160 190 229 285 352
#     4  11  24  43  58  87 116 151 206 242 294 349
#
# _framework density 18.830915999999998
#
# number of rings (size 3 to 8) (size 9 to 14) (size 15 to 20)
#    0.000    1.231    2.308    6.462    4.308    1.231 
#    0.000    0.000    0.000    0.000    0.000   16.154 
#    0.000    0.000    0.000    0.000    0.000    0.000 
#
# Total GULP energy -290077.167859 kJ/mol
# GULP energy per Si atom -5578.407074 kJ/mol
# Density = 1.878806 g / cm^3
# Si number density = 18.830916 Si / 1000 Ang^3
#
#
#
# Elastic Constant Matrix: (Units=GPa)
#
#
# Indices 1 2 3 4 5 6 
#
# 1 70.8998 25.9500 14.8854 0.0000 0.0000 0.0000
# 2 25.9500 107.6823 36.6489 0.0000 0.0000 0.0000
# 3 14.8854 36.6489 83.5338 0.0000 0.0000 0.0000
# 4 0.0000 0.0000 0.0000 36.1821 0.0000 0.0000
# 5 0.0000 0.0000 0.0000 0.0000 8.9972 0.0000
# 6 0.0000 0.0000 0.0000 0.0000 0.0000 -2.8099
#
#
#
# Elastic Compliance Matrix: (Units=1/GPa)
#
#
# Indices 1 2 3 4 5 6 
#
# 1 0.015593 -0.003306 -0.001328 0.000000 0.000000 0.000000
# 2 -0.003306 0.011617 -0.004508 0.000000 0.000000 0.000000
# 3 -0.001328 -0.004508 0.014186 0.000000 0.000000 0.000000
# 4 0.000000 0.000000 0.000000 0.027638 0.000000 0.000000
# 5 0.000000 0.000000 0.000000 0.000000 0.111145 0.000000
# 6 0.000000 0.000000 0.000000 0.000000 0.000000 -0.355888
#
#
# Mechanical properties :
#
#
# Convention : Reuss Voigt Hill
#
# Bulk Modulus (GPa) = 43.26660 46.34271 44.80466
# Shear Modulus (GPa) = -33.39559 20.78266 -6.30647
#
# Velocity S-wave (km/s) = -4.21580 3.32572 -1.83201
# Velocity P-wave (km/s) = 0.81916 6.27778 4.40111
#
# Compressibility (1/GPa) = 0.02311252
#
# Stress axis : x y z
#
# Youngs Moduli (GPa) = 64.13049 86.07762 70.49374
#
# Poissons Ratio (x) = 0.28454 0.09364
# Poissons Ratio (y) = 0.21199 0.31778
# Poissons Ratio (z) = 0.08519 0.38803
#
# Static dielectric constant tensor:
#      x y z
#    x 1.633650 0.000000 0.000000 
#    y 0.000000 1.712090 0.000000 
#    z 0.000000 0.000000 1.709140 
# 
# From -- ./inp_files/4467.got.cif
#   From: 2010.05.17/outbox.cif.g08.bks.cpg/sg52_3_cif.got.tgz:4467.got - 2010.06.03 12:15:38.
