data_PCOD9410867
_publ_section_title
;
Structure prediction by ZEFSAII (Michael W. Deem and Ramdas Pophale) SiO2 
 PCOD9410867
Probable space group: P N N A
;
_chemical_formula_sum "Si O2"
_cell_formula_units_Z 64
_cell_length_a 12.095522
_cell_length_b 29.528062
_cell_length_c 7.409952
_cell_angle_alpha 90.000000
_cell_angle_beta 90.000000
_cell_angle_gamma 90.000000
_cell_volume 2646.518624
_symmetry_space_group_name_H-M "P N N A"
_symmetry_group_IT_number 52
_symmetry_cell_setting 'orthorhombic'
loop_
_space_group_symop_operation_xyz
x,y,z
1/2-x,-y,z
x,1/2-y,1/2-z
1/2-x,1/2+y,1/2-z
-x,-y,-z
1/2+x,y,-z
-x,1/2+y,1/2+z
1/2+x,1/2-y,1/2+z
loop_
_atom_site_type_symbol
_atom_site_label
_atom_site_fract_x
_atom_site_fract_y
_atom_site_fract_z
Si Si1 0.903334 0.200208 0.305615
Si Si2 0.552605 0.696406 0.771469
Si Si3 0.175946 0.332671 0.864437
Si Si4 0.754618 0.576016 0.241333
Si Si5 0.312091 0.122684 0.111736
Si Si6 0.917328 0.635654 0.796676
Si Si7 0.024486 0.542886 0.762998
Si Si8 0.007752 0.947986 0.174898
O O1 0.940481 0.250000 0.250000
O O2 0.910170 0.189956 0.520734
O O3 0.772345 0.195904 0.276319
O O4 0.979767 0.162600 0.210951
O O5 0.540163 0.750000 0.750000
O O6 0.434024 0.672060 0.745485
O O7 0.641055 0.673001 0.641901
O O8 0.224791 0.382888 0.893942
O O9 0.128574 0.325905 0.064369
O O10 0.705001 0.602101 0.414737
O O11 0.655291 0.542743 0.189931
O O12 0.877854 0.559599 0.285632
O O13 0.187655 0.122150 0.182744
O O14 0.401682 0.090681 0.214618
O O15 0.970315 0.587120 0.855552
O O16 0.966528 0.494217 0.784211
O O17 0.014586 0.547992 0.543764
#
# Coordination Sequence:
#
# PCOD9410867 Si02
#       8
#     8   8   8   8   8   8   8   8
#     4  11  25  43  68  95 127 171 216 269 325 393
#     4  11  25  43  63  95 130 163 215 270 323 390
#     4  11  23  43  67  89 130 170 210 262 328 391
#     4  11  21  38  69  93 126 170 220 266 323 390
#     4  11  23  40  66  93 131 173 214 269 332 387
#     4  11  23  43  65  93 133 173 208 264 332 388
#     4  10  21  38  65  98 130 168 216 274 326 385
#     4  10  21  38  65 100 128 165 221 273 322 385
#
# _framework density 24.182711000000001
#
# number of rings (size 3 to 8) (size 9 to 14) (size 15 to 20)
#    0.000    1.250    5.000    0.750    1.750    2.000 
#    0.000    0.625    2.750    0.000    0.000    0.000 
#    0.000    0.000    0.000    0.000    0.000    0.000 
#
# Total GULP energy -357040.839507 kJ/mol
# GULP energy per Si atom -5578.763117 kJ/mol
# Density = 2.412767 g / cm^3
# Si number density = 24.182711 Si / 1000 Ang^3
#
#
#
# Elastic Constant Matrix: (Units=GPa)
#
#
# Indices 1 2 3 4 5 6 
#
# 1 160.6547 41.2992 16.4918 0.0000 0.0000 0.0000
# 2 41.2992 116.4469 -3.9698 0.0000 0.0000 0.0000
# 3 16.4918 -3.9698 45.1664 0.0000 0.0000 0.0000
# 4 0.0000 0.0000 0.0000 17.6448 0.0000 0.0000
# 5 0.0000 0.0000 0.0000 0.0000 31.3446 0.0000
# 6 0.0000 0.0000 0.0000 0.0000 0.0000 20.5445
#
#
#
# Elastic Compliance Matrix: (Units=1/GPa)
#
#
# Indices 1 2 3 4 5 6 
#
# 1 0.007200 -0.002651 -0.002862 0.000000 0.000000 0.000000
# 2 -0.002651 0.009590 0.001811 0.000000 0.000000 0.000000
# 3 -0.002862 0.001811 0.023345 0.000000 0.000000 0.000000
# 4 0.000000 0.000000 0.000000 0.056674 0.000000 0.000000
# 5 0.000000 0.000000 0.000000 0.000000 0.031903 0.000000
# 6 0.000000 0.000000 0.000000 0.000000 0.000000 0.048675
#
#
# Mechanical properties :
#
#
# Convention : Reuss Voigt Hill
#
# Bulk Modulus (GPa) = 30.55333 47.76782 39.16057
# Shear Modulus (GPa) = 25.54926 31.80322 28.67624
#
# Velocity S-wave (km/s) = 3.25393 3.63040 3.44730
# Velocity P-wave (km/s) = 5.17486 6.11300 5.66339
#
# Compressibility (1/GPa) = 0.03272966
#
# Stress axis : x y z
#
# Youngs Moduli (GPa) = 138.89239 104.28002 42.83660
#
# Poissons Ratio (x) = 0.27645 0.12259
# Poissons Ratio (y) = 0.36821 -0.07757
# Poissons Ratio (z) = 0.39750 -0.18884
#
# Static dielectric constant tensor:
#      x y z
#    x 1.942360 0.000000 0.000000 
#    y 0.000000 1.973440 0.000000 
#    z 0.000000 0.000000 1.980660 
# 
# From -- ./inp_files/9125.got.cif
#   From: 2010.05.17/outbox.cif.g08.bks.cpg/sg52_5_cif.got.tgz:9125.got - 2010.06.03 12:15:38.
