data_PCOD9410718
_publ_section_title
;
Structure prediction by ZEFSAII (Michael W. Deem and Ramdas Pophale) SiO2 
 PCOD9410718
Probable space group: P N N A
;
_chemical_formula_sum "Si O2"
_cell_formula_units_Z 24
_cell_length_a 27.712341
_cell_length_b 7.547337
_cell_length_c 5.164637
_cell_angle_alpha 90.000000
_cell_angle_beta 90.000000
_cell_angle_gamma 90.000000
_cell_volume 1080.206432
_symmetry_space_group_name_H-M "P N N A"
_symmetry_group_IT_number 52
_symmetry_cell_setting 'orthorhombic'
loop_
_space_group_symop_operation_xyz
x,y,z
1/2-x,-y,z
x,1/2-y,1/2-z
1/2-x,1/2+y,1/2-z
-x,-y,-z
1/2+x,y,-z
-x,1/2+y,1/2+z
1/2+x,1/2-y,1/2+z
loop_
_atom_site_type_symbol
_atom_site_label
_atom_site_fract_x
_atom_site_fract_y
_atom_site_fract_z
Si Si1 0.454264 0.128117 0.505973
Si Si2 0.856005 0.963282 0.284942
Si Si3 0.304633 0.538246 0.280201
O O1 0.463724 0.250000 0.750000
O O2 0.500000 0.000000 0.500000
O O3 0.405905 0.022510 0.585524
O O4 0.449369 0.250000 0.250000
O O5 0.856455 0.750000 0.250000
O O6 0.816268 0.027747 0.492186
O O7 0.841696 0.029939 0.998928
O O8 0.250000 0.500000 0.359094
O O9 0.310168 0.750000 0.250000
#
# Coordination Sequence:
#
# PCOD9410718 Si02
#       3
#     8   8   8
#     4  12  26  44  68  98 128 167 212 264 322 384
#     4  10  22  41  62  89 127 168 211 260 315 373
#     4  10  21  37  60  89 124 167 210 258 312 369
#
# _framework density 22.217977000000001
#
# number of rings (size 3 to 8) (size 9 to 14) (size 15 to 20)
#    0.000    1.333    0.000    5.000    0.000    8.000 
#    0.000    0.000    0.000    0.000    0.000    0.000 
#    0.000    0.000    0.000    0.000    0.000    0.000 
#
# Total GULP energy -134085.053586 kJ/mol
# GULP energy per Si atom -5586.877233 kJ/mol
# Density = 2.216741 g / cm^3
# Si number density = 22.217977 Si / 1000 Ang^3
#
#
#
# Elastic Constant Matrix: (Units=GPa)
#
#
# Indices 1 2 3 4 5 6 
#
# 1 128.8543 6.3422 56.0586 0.0000 0.0000 0.0000
# 2 6.3422 37.9821 48.2683 0.0000 0.0000 0.0000
# 3 56.0586 48.2683 201.4951 0.0000 0.0000 0.0000
# 4 0.0000 0.0000 0.0000 17.0929 0.0000 0.0000
# 5 0.0000 0.0000 0.0000 0.0000 39.0873 0.0000
# 6 0.0000 0.0000 0.0000 0.0000 0.0000 37.8717
#
#
#
# Elastic Compliance Matrix: (Units=1/GPa)
#
#
# Indices 1 2 3 4 5 6 
#
# 1 0.008980 0.002409 -0.003075 0.000000 0.000000 0.000000
# 2 0.002409 0.038497 -0.009892 0.000000 0.000000 0.000000
# 3 -0.003075 -0.009892 0.008188 0.000000 0.000000 0.000000
# 4 0.000000 0.000000 0.000000 0.058504 0.000000 0.000000
# 5 0.000000 0.000000 0.000000 0.000000 0.025584 0.000000
# 6 0.000000 0.000000 0.000000 0.000000 0.000000 0.026405
#
#
# Mechanical properties :
#
#
# Convention : Reuss Voigt Hill
#
# Bulk Modulus (GPa) = 28.94535 65.51884 47.23210
# Shear Modulus (GPa) = 25.15200 35.98788 30.56994
#
# Velocity S-wave (km/s) = 3.36825 4.02900 3.71335
# Velocity P-wave (km/s) = 5.30877 7.15520 6.30000
#
# Compressibility (1/GPa) = 0.03454786
#
# Stress axis : x y z
#
# Youngs Moduli (GPa) = 111.35712 25.97597 122.12705
#
# Poissons Ratio (x) = -0.06257 0.37559
# Poissons Ratio (y) = -0.26824 1.20810
# Poissons Ratio (z) = 0.34247 0.25696
#
# Static dielectric constant tensor:
#      x y z
#    x 1.529220 0.000000 0.000000 
#    y 0.000000 1.771790 0.000000 
#    z 0.000000 0.000000 1.808130 
# 
# From -- ./inp_files/5443.got.cif
#   From: 2010.05.17/outbox.cif.g08.bks.cpg/sg52_3_cif.got.tgz:5443.got - 2010.06.03 12:15:38.
