data_PCOD9410595
_publ_section_title
;
Structure prediction by ZEFSAII (Michael W. Deem and Ramdas Pophale) SiO2 
 PCOD9410595
Probable space group: P N N A
;
_chemical_formula_sum "Si O2"
_cell_formula_units_Z 32
_cell_length_a 37.840679
_cell_length_b 7.052813
_cell_length_c 5.168396
_cell_angle_alpha 90.000000
_cell_angle_beta 90.000000
_cell_angle_gamma 90.000000
_cell_volume 1379.358233
_symmetry_space_group_name_H-M "P N N A"
_symmetry_group_IT_number 52
_symmetry_cell_setting 'orthorhombic'
loop_
_space_group_symop_operation_xyz
x,y,z
1/2-x,-y,z
x,1/2-y,1/2-z
1/2-x,1/2+y,1/2-z
-x,-y,-z
1/2+x,y,-z
-x,1/2+y,1/2+z
1/2+x,1/2-y,1/2+z
loop_
_atom_site_type_symbol
_atom_site_label
_atom_site_fract_x
_atom_site_fract_y
_atom_site_fract_z
Si Si1 0.065932 0.033458 0.173270
Si Si2 0.785664 0.118059 0.000280
Si Si3 0.535258 0.028439 0.330859
Si Si4 0.637458 0.885062 0.000599
O O1 0.056812 0.250000 0.250000
O O2 0.064265 0.950687 0.463817
O O3 0.039494 0.944308 0.958406
O O4 0.104082 0.021009 0.040915
O O5 0.784768 0.250000 0.250000
O O6 0.823972 0.015657 0.009131
O O7 0.750000 0.000000 0.996094
O O8 0.785702 0.250000 0.750000
O O9 0.539325 0.250000 0.250000
O O10 0.500000 0.000000 0.500000
O O11 0.634171 0.750000 0.250000
O O12 0.637306 0.750000 0.750000
#
# Coordination Sequence:
#
# PCOD9410595 Si02
#       4
#     8   8   8   8
#     4  10  21  37  55  79 110 142 182 229 277 332
#     4  10  21  38  59  86 119 153 193 239 286 342
#     4  10  21  36  54  78 107 140 181 229 277 331
#     4  10  21  37  57  83 113 145 185 231 277 333
#
# _framework density 23.199193000000001
#
# number of rings (size 3 to 8) (size 9 to 14) (size 15 to 20)
#    0.000    2.000    0.000    3.000    0.000    4.000 
#    0.000    3.750    0.000    0.000    0.000    0.000 
#    0.000    0.000    0.000    0.000    0.000    0.000 
#
# Total GULP energy -178468.167952 kJ/mol
# GULP energy per Si atom -5577.130249 kJ/mol
# Density = 2.314639 g / cm^3
# Si number density = 23.199193 Si / 1000 Ang^3
#
#
#
# Elastic Constant Matrix: (Units=GPa)
#
#
# Indices 1 2 3 4 5 6 
#
# 1 190.2635 15.0224 61.3118 0.0000 0.0000 0.0000
# 2 15.0224 36.5624 34.2200 0.0000 0.0000 0.0000
# 3 61.3118 34.2200 237.3775 0.0000 0.0000 0.0000
# 4 0.0000 0.0000 0.0000 17.6210 0.0000 0.0000
# 5 0.0000 0.0000 0.0000 0.0000 33.8297 0.0000
# 6 0.0000 0.0000 0.0000 0.0000 0.0000 34.5144
#
#
#
# Elastic Compliance Matrix: (Units=1/GPa)
#
#
# Indices 1 2 3 4 5 6 
#
# 1 0.005773 -0.001129 -0.001328 0.000000 0.000000 0.000000
# 2 -0.001129 0.031837 -0.004298 0.000000 0.000000 0.000000
# 3 -0.001328 -0.004298 0.005175 0.000000 0.000000 0.000000
# 4 0.000000 0.000000 0.000000 0.056750 0.000000 0.000000
# 5 0.000000 0.000000 0.000000 0.000000 0.029560 0.000000
# 6 0.000000 0.000000 0.000000 0.000000 0.000000 0.028973
#
#
# Mechanical properties :
#
#
# Convention : Reuss Voigt Hill
#
# Bulk Modulus (GPa) = 34.15867 76.14576 55.15221
# Shear Modulus (GPa) = 27.57287 40.76963 34.17125
#
# Velocity S-wave (km/s) = 3.45124 4.19665 3.84207
# Velocity P-wave (km/s) = 5.53511 7.50842 6.59598
#
# Compressibility (1/GPa) = 0.02927515
#
# Stress axis : x y z
#
# Youngs Moduli (GPa) = 173.21845 31.41007 193.22133
#
# Poissons Ratio (x) = 0.03545 0.25668
# Poissons Ratio (y) = 0.19551 0.83047
# Poissons Ratio (z) = 0.23010 0.13500
#
# Static dielectric constant tensor:
#      x y z
#    x 1.983570 0.000000 0.000000 
#    y 0.000000 1.950840 0.000000 
#    z 0.000000 0.000000 1.930730 
# 
# From -- ./inp_files/6137.got.cif
#   From: 2010.05.17/outbox.cif.g08.bks.cpg/sg52_4_cif.got.tgz:6137.got - 2010.06.03 12:15:38.
