data_PCOD9410193
_publ_section_title
;
Structure prediction by ZEFSAII (Michael W. Deem and Ramdas Pophale) SiO2 
 PCOD9410193
Probable space group: P N N A
;
_chemical_formula_sum "Si O2"
_cell_formula_units_Z 64
_cell_length_a 18.073531
_cell_length_b 12.063613
_cell_length_c 13.945944
_cell_angle_alpha 90.000000
_cell_angle_beta 90.000000
_cell_angle_gamma 90.000000
_cell_volume 3040.663227
_symmetry_space_group_name_H-M "P N N A"
_symmetry_group_IT_number 52
_symmetry_cell_setting 'orthorhombic'
loop_
_space_group_symop_operation_xyz
x,y,z
1/2-x,-y,z
x,1/2-y,1/2-z
1/2-x,1/2+y,1/2-z
-x,-y,-z
1/2+x,y,-z
-x,1/2+y,1/2+z
1/2+x,1/2-y,1/2+z
loop_
_atom_site_type_symbol
_atom_site_label
_atom_site_fract_x
_atom_site_fract_y
_atom_site_fract_z
Si Si1 0.981332 0.146926 0.674124
Si Si2 0.626517 0.257483 0.135919
Si Si3 0.289223 0.385009 0.388477
Si Si4 0.060958 0.172076 0.041139
Si Si5 0.601059 0.757313 0.496350
Si Si6 0.683767 0.178309 0.626399
Si Si7 0.764203 0.380262 0.059120
Si Si8 0.604970 0.023566 0.779506
O O1 0.979174 0.250000 0.750000
O O2 0.923078 0.175402 0.591380
O O3 0.062226 0.149685 0.626062
O O4 0.963029 0.031610 0.724242
O O5 0.632848 0.250000 0.250000
O O6 0.707030 0.290634 0.100297
O O7 0.591725 0.159124 0.068662
O O8 0.250000 0.500000 0.417242
O O9 0.341856 0.337474 0.470537
O O10 0.232619 0.289256 0.358656
O O11 0.341322 0.420395 0.301233
O O12 0.109432 0.276669 0.075691
O O13 0.079877 0.077735 0.119404
O O14 0.974517 0.202843 0.041528
O O15 0.651730 0.839234 0.433948
O O16 0.735457 0.114025 0.551304
O O17 0.651620 0.107105 0.713482
O O18 0.750000 0.500000 0.103865
#
# Coordination Sequence:
#
# PCOD9410193 Si02
#       8
#     8   8   8   8   8   8   8   8
#     4  10  20  39  62  94 125 171 210 261 325 399
#     4   9  21  44  66  84 128 170 219 270 316 380
#     4  11  23  38  58  92 135 169 207 251 322 405
#     4  10  22  42  64  92 125 167 212 270 319 382
#     4  10  22  41  61  89 130 168 220 263 317 380
#     4  10  23  42  58  96 134 166 205 256 334 389
#     4  10  21  41  67  92 120 172 217 261 319 386
#     4  12  23  38  65  99 135 165 209 267 337 392
#
# _framework density 21.048038999999999
#
# number of rings (size 3 to 8) (size 9 to 14) (size 15 to 20)
#    0.000    1.750    2.500    1.125    0.000    5.000 
#    2.250    6.250    5.500    0.000    0.000    0.000 
#    0.000    0.000    0.000    0.000    0.000    0.000 
#
# Total GULP energy -356797.304231 kJ/mol
# GULP energy per Si atom -5574.957879 kJ/mol
# Density = 2.100013 g / cm^3
# Si number density = 21.048039 Si / 1000 Ang^3
#
#
#
# Elastic Constant Matrix: (Units=GPa)
#
#
# Indices 1 2 3 4 5 6 
#
# 1 124.5697 25.2718 31.0951 0.0000 0.0000 0.0000
# 2 25.2718 72.2518 28.5098 0.0000 0.0000 0.0000
# 3 31.0951 28.5098 86.0488 0.0000 0.0000 0.0000
# 4 0.0000 0.0000 0.0000 15.6327 0.0000 0.0000
# 5 0.0000 0.0000 0.0000 0.0000 19.4874 0.0000
# 6 0.0000 0.0000 0.0000 0.0000 0.0000 0.9164
#
#
#
# Elastic Compliance Matrix: (Units=1/GPa)
#
#
# Indices 1 2 3 4 5 6 
#
# 1 0.009110 -0.002171 -0.002573 0.000000 0.000000 0.000000
# 2 -0.002171 0.016440 -0.004662 0.000000 0.000000 0.000000
# 3 -0.002573 -0.004662 0.014096 0.000000 0.000000 0.000000
# 4 0.000000 0.000000 0.000000 0.063969 0.000000 0.000000
# 5 0.000000 0.000000 0.000000 0.000000 0.051315 0.000000
# 6 0.000000 0.000000 0.000000 0.000000 0.000000 1.091186
#
#
# Mechanical properties :
#
#
# Convention : Reuss Voigt Hill
#
# Bulk Modulus (GPa) = 48.00048 50.29152 49.14600
# Shear Modulus (GPa) = 3.93121 20.40687 12.16904
#
# Velocity S-wave (km/s) = 1.36813 3.11712 2.40710
# Velocity P-wave (km/s) = 5.03492 6.07460 5.57903
#
# Compressibility (1/GPa) = 0.02083313
#
# Stress axis : x y z
#
# Youngs Moduli (GPa) = 109.76515 60.82866 70.94375
#
# Poissons Ratio (x) = 0.13208 0.18252
# Poissons Ratio (y) = 0.23834 0.33075
# Poissons Ratio (z) = 0.28240 0.28359
#
# Static dielectric constant tensor:
#      x y z
#    x 1.777960 0.000000 0.000000 
#    y 0.000000 1.779510 0.000000 
#    z 0.000000 0.000000 1.858960 
# 
# From -- ./inp_files/28319.got.cif
#   From: 2010.05.17/outbox.cif.g08.bks.cpg/sg52_15_cif.got.tgz:28319.got - 2010.06.03 12:15:38.
