data_PCOD9410392
_publ_section_title
;
Structure prediction by ZEFSAII (Michael W. Deem and Ramdas Pophale) SiO2 
 PCOD9410392
Probable space group: P N N A
;
_chemical_formula_sum "Si O2"
_cell_formula_units_Z 28
_cell_length_a 12.604538
_cell_length_b 7.842486
_cell_length_c 12.027862
_cell_angle_alpha 90.000000
_cell_angle_beta 90.000000
_cell_angle_gamma 90.000000
_cell_volume 1188.965138
_symmetry_space_group_name_H-M "P N N A"
_symmetry_group_IT_number 52
_symmetry_cell_setting 'orthorhombic'
loop_
_space_group_symop_operation_xyz
x,y,z
1/2-x,-y,z
x,1/2-y,1/2-z
1/2-x,1/2+y,1/2-z
-x,-y,-z
1/2+x,y,-z
-x,1/2+y,1/2+z
1/2+x,1/2-y,1/2+z
loop_
_atom_site_type_symbol
_atom_site_label
_atom_site_fract_x
_atom_site_fract_y
_atom_site_fract_z
Si Si1 0.750000 0.500000 0.012699
Si Si2 0.400527 0.398419 0.182456
Si Si3 0.480058 0.128064 0.841991
Si Si4 0.095067 0.221674 0.931030
O O1 0.657818 0.556505 0.929394
O O2 0.797123 0.668602 0.071023
O O3 0.341138 0.250000 0.250000
O O4 0.424628 0.545279 0.269766
O O5 0.513571 0.325414 0.144909
O O6 0.426415 0.250000 0.750000
O O7 0.406702 0.973973 0.887962
O O8 0.537232 0.213992 0.947807
#
# Coordination Sequence:
#
# PCOD9410392 Si02
#       4
#     4   8   8   8
#     4  12  22  36  68 100 138 176 246 302 340 428
#     4  10  23  40  67  95 135 181 229 292 360 410
#     4  10  20  41  69  93 137 192 229 280 371 414
#     4  10  23  41  65 100 137 182 232 301 353 418
#
# _framework density 23.549890000000001
#
# number of rings (size 3 to 8) (size 9 to 14) (size 15 to 20)
#    0.000    1.714    2.857    0.857    4.000    0.000 
#    0.000    0.000   18.857    0.000    0.000    0.000 
#    0.000    0.000    0.000    1.143    0.000    0.000 
#
# Total GULP energy -156344.769822 kJ/mol
# GULP energy per Si atom -5583.741779 kJ/mol
# Density = 2.349629 g / cm^3
# Si number density = 23.549890 Si / 1000 Ang^3
#
#
#
# Elastic Constant Matrix: (Units=GPa)
#
#
# Indices 1 2 3 4 5 6 
#
# 1 63.0459 52.5171 34.6138 0.0000 0.0000 0.0000
# 2 52.5171 129.3381 52.7335 0.0000 0.0000 0.0000
# 3 34.6138 52.7335 125.0319 0.0000 0.0000 0.0000
# 4 0.0000 0.0000 0.0000 57.3178 0.0000 0.0000
# 5 0.0000 0.0000 0.0000 0.0000 52.1807 0.0000
# 6 0.0000 0.0000 0.0000 0.0000 0.0000 35.5098
#
#
#
# Elastic Compliance Matrix: (Units=1/GPa)
#
#
# Indices 1 2 3 4 5 6 
#
# 1 0.024976 -0.008843 -0.003185 0.000000 0.000000 0.000000
# 2 -0.008843 0.012468 -0.002811 0.000000 0.000000 0.000000
# 3 -0.003185 -0.002811 0.010065 0.000000 0.000000 0.000000
# 4 0.000000 0.000000 0.000000 0.017447 0.000000 0.000000
# 5 0.000000 0.000000 0.000000 0.000000 0.019164 0.000000
# 6 0.000000 0.000000 0.000000 0.000000 0.000000 0.028161
#
#
# Mechanical properties :
#
#
# Convention : Reuss Voigt Hill
#
# Bulk Modulus (GPa) = 56.07630 66.34944 61.21287
# Shear Modulus (GPa) = 33.80614 40.83844 37.32229
#
# Velocity S-wave (km/s) = 3.79292 4.16880 3.98530
# Velocity P-wave (km/s) = 6.56088 7.16987 6.87212
#
# Compressibility (1/GPa) = 0.01783285
#
# Stress axis : x y z
#
# Youngs Moduli (GPa) = 40.03823 80.20397 99.35422
#
# Poissons Ratio (x) = 0.70924 0.31642
# Poissons Ratio (y) = 0.35406 0.27924
# Poissons Ratio (z) = 0.12751 0.22541
#
# Static dielectric constant tensor:
#      x y z
#    x 1.904030 0.000000 0.000000 
#    y 0.000000 2.032850 0.000000 
#    z 0.000000 0.000000 1.886440 
# 
# From -- ./inp_files/18759.got.cif
#   From: 2010.05.17/outbox.cif.g08.bks.cpg/sg52_10_cif.got.tgz:18759.got - 2010.06.03 12:15:38.
