data_PCOD9410129
_publ_section_title
;
Structure prediction by ZEFSAII (Michael W. Deem and Ramdas Pophale) SiO2 
 PCOD9410129
Probable space group: P N N A
;
_chemical_formula_sum "Si O2"
_cell_formula_units_Z 48
_cell_length_a 10.864984
_cell_length_b 22.815121
_cell_length_c 9.154387
_cell_angle_alpha 90.000000
_cell_angle_beta 90.000000
_cell_angle_gamma 90.000000
_cell_volume 2269.243686
_symmetry_space_group_name_H-M "P N N A"
_symmetry_group_IT_number 52
_symmetry_cell_setting 'orthorhombic'
loop_
_space_group_symop_operation_xyz
x,y,z
1/2-x,-y,z
x,1/2-y,1/2-z
1/2-x,1/2+y,1/2-z
-x,-y,-z
1/2+x,y,-z
-x,1/2+y,1/2+z
1/2+x,1/2-y,1/2+z
loop_
_atom_site_type_symbol
_atom_site_label
_atom_site_fract_x
_atom_site_fract_y
_atom_site_fract_z
Si Si1 0.639716 0.862788 0.248561
Si Si2 0.379459 0.531279 0.566058
Si Si3 0.886591 0.487895 0.107411
Si Si4 0.504452 0.853130 0.965194
Si Si5 0.951299 0.727838 0.889607
Si Si6 0.594388 0.183448 0.307305
O O1 0.607040 0.921007 0.337018
O O2 0.562519 0.808057 0.313911
O O3 0.780726 0.847997 0.265525
O O4 0.609776 0.872459 0.077468
O O5 0.250000 0.500000 0.526501
O O6 0.500000 0.500000 0.500000
O O7 0.390657 0.525597 0.742306
O O8 0.398041 0.598249 0.514110
O O9 0.750000 0.500000 0.042281
O O10 0.000000 0.500000 0.000000
O O11 0.514987 0.845434 0.789729
O O12 0.478105 0.787957 0.024741
O O13 0.871684 0.750000 0.750000
O O14 0.909434 0.684986 0.018146
O O15 0.604474 0.250000 0.250000
#
# Coordination Sequence:
#
# PCOD9410129 Si02
#       6
#     8   8   8   8   8   8
#     4  11  22  42  65  91 136 176 227 291 349 424
#     4  11  23  43  67  98 132 177 230 286 353 417
#     4  11  26  45  67  96 135 181 231 290 357 422
#     4  10  21  39  64  96 129 169 229 281 343 423
#     4   9  21  40  64  98 134 172 224 281 350 414
#     4  10  20  38  66  93 129 176 216 278 352 414
#
# _framework density 21.152422999999999
#
# number of rings (size 3 to 8) (size 9 to 14) (size 15 to 20)
#    0.000    1.667    1.667    3.500    4.667    0.667 
#    0.000    7.500    0.000    0.000    0.000    0.000 
#    0.000    0.000    0.000    0.000    0.000    0.000 
#
# Total GULP energy -267229.025549 kJ/mol
# GULP energy per Si atom -5567.271366 kJ/mol
# Density = 2.110428 g / cm^3
# Si number density = 21.152423 Si / 1000 Ang^3
#
#
#
# Elastic Constant Matrix: (Units=GPa)
#
#
# Indices 1 2 3 4 5 6 
#
# 1 117.6283 35.1321 70.7929 0.0000 0.0000 0.0000
# 2 35.1321 126.2384 16.1274 0.0000 0.0000 0.0000
# 3 70.7929 16.1274 146.7690 0.0000 0.0000 0.0000
# 4 0.0000 0.0000 0.0000 30.3817 0.0000 0.0000
# 5 0.0000 0.0000 0.0000 0.0000 37.6552 0.0000
# 6 0.0000 0.0000 0.0000 0.0000 0.0000 30.0089
#
#
#
# Elastic Compliance Matrix: (Units=1/GPa)
#
#
# Indices 1 2 3 4 5 6 
#
# 1 0.012908 -0.002837 -0.005914 0.000000 0.000000 0.000000
# 2 -0.002837 0.008658 0.000417 0.000000 0.000000 0.000000
# 3 -0.005914 0.000417 0.009620 0.000000 0.000000 0.000000
# 4 0.000000 0.000000 0.000000 0.032915 0.000000 0.000000
# 5 0.000000 0.000000 0.000000 0.000000 0.026557 0.000000
# 6 0.000000 0.000000 0.000000 0.000000 0.000000 0.033323
#
#
# Mechanical properties :
#
#
# Convention : Reuss Voigt Hill
#
# Bulk Modulus (GPa) = 68.88100 70.52673 69.70387
# Shear Modulus (GPa) = 34.36694 37.51471 35.94083
#
# Velocity S-wave (km/s) = 4.03516 4.21591 4.12653
# Velocity P-wave (km/s) = 7.37190 7.55732 7.46519
#
# Compressibility (1/GPa) = 0.01451779
#
# Stress axis : x y z
#
# Youngs Moduli (GPa) = 77.47066 115.50390 103.94588
#
# Poissons Ratio (x) = 0.32765 0.61478
# Poissons Ratio (y) = 0.21976 -0.04334
# Poissons Ratio (z) = 0.45819 -0.04816
#
# Static dielectric constant tensor:
#      x y z
#    x 1.755760 0.000000 0.000000 
#    y 0.000000 1.872660 0.000000 
#    z 0.000000 0.000000 1.838440 
# 
# From -- ./inp_files/8854.got.cif
#   From: 2010.05.17/outbox.cif.g08.bks.cpg/sg52_5_cif.got.tgz:8854.got - 2010.06.03 12:15:38.
