data_PCOD9410574
_publ_section_title
;
Structure prediction by ZEFSAII (Michael W. Deem and Ramdas Pophale) SiO2 
 PCOD9410574
Probable space group: P N N A
;
_chemical_formula_sum "Si O2"
_cell_formula_units_Z 56
_cell_length_a 23.419676
_cell_length_b 8.638572
_cell_length_c 14.185061
_cell_angle_alpha 90.000000
_cell_angle_beta 90.000000
_cell_angle_gamma 90.000000
_cell_volume 2869.815967
_symmetry_space_group_name_H-M "P N N A"
_symmetry_group_IT_number 52
_symmetry_cell_setting 'orthorhombic'
loop_
_space_group_symop_operation_xyz
x,y,z
1/2-x,-y,z
x,1/2-y,1/2-z
1/2-x,1/2+y,1/2-z
-x,-y,-z
1/2+x,y,-z
-x,1/2+y,1/2+z
1/2+x,1/2-y,1/2+z
loop_
_atom_site_type_symbol
_atom_site_label
_atom_site_fract_x
_atom_site_fract_y
_atom_site_fract_z
Si Si1 0.049652 0.494293 0.223654
Si Si2 0.644984 0.693068 0.145394
Si Si3 0.047445 0.683969 0.394085
Si Si4 0.216424 0.233908 0.059843
Si Si5 0.977967 0.139570 0.435125
Si Si6 0.250000 0.500000 0.918492
Si Si7 0.852825 0.750000 0.750000
Si Si8 0.333449 0.085227 0.021835
O O1 0.021566 0.563758 0.318851
O O2 0.056707 0.649802 0.159044
O O3 0.106882 0.402126 0.250652
O O4 0.013748 0.373968 0.160526
O O5 0.631964 0.750000 0.250000
O O6 0.588268 0.625082 0.095117
O O7 0.699265 0.578822 0.140719
O O8 0.662086 0.838118 0.080427
O O9 0.015848 0.715854 0.493319
O O10 0.109069 0.620398 0.422906
O O11 0.186272 0.267348 0.158185
O O12 0.280441 0.168970 0.073290
O O13 0.180615 0.094216 0.014722
O O14 0.221167 0.375455 0.988361
O O15 0.000000 0.000000 0.500000
#
# Coordination Sequence:
#
# PCOD9410574 Si02
#       8
#     8   8   8   8   8   4   4   8
#     4  10  21  35  58  87 122 158 210 250 306 380
#     4  10  22  41  68  89 117 164 216 258 322 376
#     4   9  18  39  61  80 120 170 196 250 315 366
#     4  10  22  36  56  89 124 161 201 251 313 374
#     4   9  20  38  65  89 121 163 204 255 318 388
#     4  10  24  40  64  88 124 162 208 266 324 362
#     4  12  24  32  54  92 130 154 206 256 302 376
#     4   9  19  40  57  84 120 162 202 247 308 381
#
# _framework density 19.513446999999999
#
# number of rings (size 3 to 8) (size 9 to 14) (size 15 to 20)
#    0.000    2.286    1.429    0.000    9.000    4.571 
#    0.000    2.143   12.571    0.000    0.000    0.000 
#    0.000    0.000    0.000    0.000    0.000    0.000 
#
# Total GULP energy -312185.364461 kJ/mol
# GULP energy per Si atom -5574.738651 kJ/mol
# Density = 1.946903 g / cm^3
# Si number density = 19.513447 Si / 1000 Ang^3
#
#
#
# Elastic Constant Matrix: (Units=GPa)
#
#
# Indices 1 2 3 4 5 6 
#
# 1 57.5993 20.4446 53.5326 0.0000 0.0000 0.0000
# 2 20.4446 75.0077 43.4524 0.0000 0.0000 0.0000
# 3 53.5326 43.4524 116.6849 0.0000 0.0000 0.0000
# 4 0.0000 0.0000 0.0000 18.2331 0.0000 0.0000
# 5 0.0000 0.0000 0.0000 0.0000 22.2141 0.0000
# 6 0.0000 0.0000 0.0000 0.0000 0.0000 16.2610
#
#
#
# Elastic Compliance Matrix: (Units=1/GPa)
#
#
# Indices 1 2 3 4 5 6 
#
# 1 0.030271 -0.000262 -0.013790 0.000000 0.000000 0.000000
# 2 -0.000262 0.017001 -0.006211 0.000000 0.000000 0.000000
# 3 -0.013790 -0.006211 0.017209 0.000000 0.000000 0.000000
# 4 0.000000 0.000000 0.000000 0.054845 0.000000 0.000000
# 5 0.000000 0.000000 0.000000 0.000000 0.045016 0.000000
# 6 0.000000 0.000000 0.000000 0.000000 0.000000 0.061497
#
#
# Mechanical properties :
#
#
# Convention : Reuss Voigt Hill
#
# Bulk Modulus (GPa) = 41.74389 53.79455 47.76922
# Shear Modulus (GPa) = 18.22480 20.13246 19.17863
#
# Velocity S-wave (km/s) = 3.05939 3.21553 3.13843
# Velocity P-wave (km/s) = 5.82397 6.43537 6.13729
#
# Compressibility (1/GPa) = 0.02395560
#
# Stress axis : x y z
#
# Youngs Moduli (GPa) = 33.03523 58.81862 58.10750
#
# Poissons Ratio (x) = 0.01542 0.80130
# Poissons Ratio (y) = 0.00866 0.36090
# Poissons Ratio (z) = 0.45555 0.36531
#
# Static dielectric constant tensor:
#      x y z
#    x 1.675300 0.000000 0.000000 
#    y 0.000000 1.673330 0.000000 
#    z 0.000000 0.000000 1.705070 
# 
# From -- ./inp_files/28811.got.cif
#   From: 2010.05.17/outbox.cif.g08.bks.cpg/sg52_15_cif.got.tgz:28811.got - 2010.06.03 12:15:38.
