data_PCOD9410114
_publ_section_title
;
Structure prediction by ZEFSAII (Michael W. Deem and Ramdas Pophale) SiO2 
 PCOD9410114
Probable space group: P N N A
;
_chemical_formula_sum "Si O2"
_cell_formula_units_Z 40
_cell_length_a 9.198706
_cell_length_b 14.803221
_cell_length_c 15.055770
_cell_angle_alpha 90.000000
_cell_angle_beta 90.000000
_cell_angle_gamma 90.000000
_cell_volume 2050.151395
_symmetry_space_group_name_H-M "P N N A"
_symmetry_group_IT_number 52
_symmetry_cell_setting 'orthorhombic'
loop_
_space_group_symop_operation_xyz
x,y,z
1/2-x,-y,z
x,1/2-y,1/2-z
1/2-x,1/2+y,1/2-z
-x,-y,-z
1/2+x,y,-z
-x,1/2+y,1/2+z
1/2+x,1/2-y,1/2+z
loop_
_atom_site_type_symbol
_atom_site_label
_atom_site_fract_x
_atom_site_fract_y
_atom_site_fract_z
Si Si1 0.939434 0.750000 0.250000
Si Si2 0.250000 0.000000 0.471895
Si Si3 0.307873 0.100633 0.743206
Si Si4 0.512307 0.880580 0.423835
Si Si5 0.978860 0.788306 0.055530
Si Si6 0.688411 0.599381 0.444356
O O1 0.833042 0.835644 0.260661
O O2 0.021015 0.761393 0.156239
O O3 0.360734 0.935104 0.419414
O O4 0.139604 0.940490 0.530699
O O5 0.424549 0.137254 0.673475
O O6 0.369492 0.098410 0.843237
O O7 0.250000 0.000000 0.722327
O O8 0.491490 0.794664 0.487404
O O9 0.815196 0.825557 0.056920
O O10 0.074686 0.869195 0.017010
O O11 0.750000 0.500000 0.462581
#
# Coordination Sequence:
#
# PCOD9410114 Si02
#       6
#     4   4   8   8   8   8
#     4  10  22  38  60  92 120 168 210 254 312 382
#     4  10  22  32  56  88 132 162 194 236 312 372
#     4  10  20  38  65  92 119 164 209 251 305 380
#     4  11  20  37  59  93 128 163 195 252 311 375
#     4  11  22  39  63  87 122 163 204 260 307 371
#     4  10  22  41  67  89 118 163 215 257 306 363
#
# _framework density 19.510755
#
# number of rings (size 3 to 8) (size 9 to 14) (size 15 to 20)
#    0.000    1.600    1.000    5.400    2.800    0.000 
#    0.000    4.000    4.400    0.000    0.000    0.000 
#    0.000    0.000    0.000    0.000    0.000    0.000 
#
# Total GULP energy -223349.562341 kJ/mol
# GULP energy per Si atom -5583.739059 kJ/mol
# Density = 1.946635 g / cm^3
# Si number density = 19.510755 Si / 1000 Ang^3
#
#
#
# Elastic Constant Matrix: (Units=GPa)
#
#
# Indices 1 2 3 4 5 6 
#
# 1 63.2458 12.2246 47.1329 0.0000 0.0000 0.0000
# 2 12.2246 110.0896 49.2513 0.0000 0.0000 0.0000
# 3 47.1329 49.2513 147.3418 0.0000 0.0000 0.0000
# 4 0.0000 0.0000 0.0000 29.0850 0.0000 0.0000
# 5 0.0000 0.0000 0.0000 0.0000 55.4209 0.0000
# 6 0.0000 0.0000 0.0000 0.0000 0.0000 30.0379
#
#
#
# Elastic Compliance Matrix: (Units=1/GPa)
#
#
# Indices 1 2 3 4 5 6 
#
# 1 0.020818 0.000785 -0.006922 0.000000 0.000000 0.000000
# 2 0.000785 0.010710 -0.003831 0.000000 0.000000 0.000000
# 3 -0.006922 -0.003831 0.010282 0.000000 0.000000 0.000000
# 4 0.000000 0.000000 0.000000 0.034382 0.000000 0.000000
# 5 0.000000 0.000000 0.000000 0.000000 0.018044 0.000000
# 6 0.000000 0.000000 0.000000 0.000000 0.000000 0.033291
#
#
# Mechanical properties :
#
#
# Convention : Reuss Voigt Hill
#
# Bulk Modulus (GPa) = 45.71637 59.76611 52.74124
# Shear Modulus (GPa) = 32.30921 37.04663 34.67792
#
# Velocity S-wave (km/s) = 4.07377 4.36223 4.22047
# Velocity P-wave (km/s) = 6.75350 7.48805 7.13024
#
# Compressibility (1/GPa) = 0.02187400
#
# Stress axis : x y z
#
# Youngs Moduli (GPa) = 48.03536 93.36783 97.25926
#
# Poissons Ratio (x) = -0.07329 0.67321
# Poissons Ratio (y) = -0.03771 0.37262
# Poissons Ratio (z) = 0.33249 0.35771
#
# Static dielectric constant tensor:
#      x y z
#    x 1.659320 0.000000 0.000000 
#    y 0.000000 1.699260 0.000000 
#    z 0.000000 0.000000 1.709260 
# 
# From -- ./inp_files/16720.got.cif
#   From: 2010.05.17/outbox.cif.g08.bks.cpg/sg52_9_cif.got.tgz:16720.got - 2010.06.03 12:15:38.
