data_PCOD9410483
_publ_section_title
;
Structure prediction by ZEFSAII (Michael W. Deem and Ramdas Pophale) SiO2 
 PCOD9410483
Probable space group: P N N A
;
_chemical_formula_sum "Si O2"
_cell_formula_units_Z 36
_cell_length_a 12.389293
_cell_length_b 11.805045
_cell_length_c 11.762188
_cell_angle_alpha 90.000000
_cell_angle_beta 90.000000
_cell_angle_gamma 90.000000
_cell_volume 1720.292466
_symmetry_space_group_name_H-M "P N N A"
_symmetry_group_IT_number 52
_symmetry_cell_setting 'orthorhombic'
loop_
_space_group_symop_operation_xyz
x,y,z
1/2-x,-y,z
x,1/2-y,1/2-z
1/2-x,1/2+y,1/2-z
-x,-y,-z
1/2+x,y,-z
-x,1/2+y,1/2+z
1/2+x,1/2-y,1/2+z
loop_
_atom_site_type_symbol
_atom_site_label
_atom_site_fract_x
_atom_site_fract_y
_atom_site_fract_z
Si Si1 0.722008 0.156292 0.040441
Si Si2 0.073994 0.536142 0.605939
Si Si3 0.150500 0.087499 0.549145
Si Si4 0.750000 0.500000 0.670271
Si Si5 0.448490 0.000280 0.317306
O O1 0.846267 0.135776 0.071084
O O2 0.691790 0.285075 0.051447
O O3 0.649254 0.075630 0.120934
O O4 0.710709 0.099204 0.915290
O O5 0.000000 0.500000 0.500000
O O6 0.009469 0.567690 0.718106
O O7 0.045379 0.073856 0.629340
O O8 0.250000 0.000000 0.573620
O O9 0.105573 0.062935 0.422676
O O10 0.653695 0.549360 0.747545
#
# Coordination Sequence:
#
# PCOD9410483 Si02
#       5
#     8   8   8   4   8
#     4  10  23  43  71 102 136 176 236 289 342 411
#     4  10  20  43  74 103 130 175 241 288 333 400
#     4  11  27  47  62 102 152 184 222 280 362 421
#     4  10  20  48  72 100 130 182 242 284 334 410
#     4  11  23  47  67  99 146 182 230 281 346 420
#
# _framework density 20.926673000000001
#
# number of rings (size 3 to 8) (size 9 to 14) (size 15 to 20)
#    0.000    1.778    5.556    0.000    3.111    5.333 
#    8.000    0.000    0.000    0.000    0.000    0.000 
#    0.000    0.000    0.000    0.000    0.000    0.000 
#
# Total GULP energy -200680.630084 kJ/mol
# GULP energy per Si atom -5574.461947 kJ/mol
# Density = 2.087904 g / cm^3
# Si number density = 20.926673 Si / 1000 Ang^3
#
#
#
# Elastic Constant Matrix: (Units=GPa)
#
#
# Indices 1 2 3 4 5 6 
#
# 1 142.8502 55.4682 37.9578 0.0000 0.0000 0.0000
# 2 55.4682 129.6116 3.5567 0.0000 0.0000 0.0000
# 3 37.9578 3.5567 75.1095 0.0000 0.0000 0.0000
# 4 0.0000 0.0000 0.0000 3.0839 0.0000 0.0000
# 5 0.0000 0.0000 0.0000 0.0000 43.0011 0.0000
# 6 0.0000 0.0000 0.0000 0.0000 0.0000 29.8435
#
#
#
# Elastic Compliance Matrix: (Units=1/GPa)
#
#
# Indices 1 2 3 4 5 6 
#
# 1 0.009861 -0.004088 -0.004790 0.000000 0.000000 0.000000
# 2 -0.004088 0.009421 0.001620 0.000000 0.000000 0.000000
# 3 -0.004790 0.001620 0.015658 0.000000 0.000000 0.000000
# 4 0.000000 0.000000 0.000000 0.324262 0.000000 0.000000
# 5 0.000000 0.000000 0.000000 0.000000 0.023255 0.000000
# 6 0.000000 0.000000 0.000000 0.000000 0.000000 0.033508
#
#
# Mechanical properties :
#
#
# Convention : Reuss Voigt Hill
#
# Bulk Modulus (GPa) = 48.96477 60.17078 54.56777
# Shear Modulus (GPa) = 11.43412 31.89159 21.66286
#
# Velocity S-wave (km/s) = 2.34003 3.90804 3.22091
# Velocity P-wave (km/s) = 5.54527 7.01279 6.32176
#
# Compressibility (1/GPa) = 0.02042285
#
# Stress axis : x y z
#
# Youngs Moduli (GPa) = 101.41419 106.15047 63.86647
#
# Poissons Ratio (x) = 0.43399 0.30589
# Poissons Ratio (y) = 0.41463 -0.10347
# Poissons Ratio (z) = 0.48573 -0.17197
#
# Static dielectric constant tensor:
#      x y z
#    x 1.860600 0.000000 0.000000 
#    y 0.000000 1.702070 0.000000 
#    z 0.000000 0.000000 1.789060 
# 
# From -- ./inp_files/17770.got.cif
#   From: 2010.05.17/outbox.cif.g08.bks.cpg/sg52_9_cif.got.tgz:17770.got - 2010.06.03 12:15:38.
