data_PCOD9410337
_publ_section_title
;
Structure prediction by ZEFSAII (Michael W. Deem and Ramdas Pophale) SiO2 
 PCOD9410337
Probable space group: P N N A
;
_chemical_formula_sum "Si O2"
_cell_formula_units_Z 52
_cell_length_a 13.764076
_cell_length_b 9.350598
_cell_length_c 19.769457
_cell_angle_alpha 90.000000
_cell_angle_beta 90.000000
_cell_angle_gamma 90.000000
_cell_volume 2544.375406
_symmetry_space_group_name_H-M "P N N A"
_symmetry_group_IT_number 52
_symmetry_cell_setting 'orthorhombic'
loop_
_space_group_symop_operation_xyz
x,y,z
1/2-x,-y,z
x,1/2-y,1/2-z
1/2-x,1/2+y,1/2-z
-x,-y,-z
1/2+x,y,-z
-x,1/2+y,1/2+z
1/2+x,1/2-y,1/2+z
loop_
_atom_site_type_symbol
_atom_site_label
_atom_site_fract_x
_atom_site_fract_y
_atom_site_fract_z
Si Si1 0.140356 0.459378 0.842038
Si Si2 0.947975 0.910805 0.940771
Si Si3 0.012817 0.250000 0.750000
Si Si4 0.615661 0.684423 0.619892
Si Si5 0.490079 0.224922 0.670739
Si Si6 0.212319 0.159676 0.318400
Si Si7 0.457600 0.852756 0.530853
O O1 0.250000 0.500000 0.824118
O O2 0.081856 0.367942 0.785666
O O3 0.125810 0.379068 0.913400
O O4 0.084358 0.607102 0.852901
O O5 0.014781 0.862990 0.877266
O O6 0.874250 0.023605 0.907759
O O7 0.920232 0.761412 0.975832
O O8 0.000000 0.000000 0.000000
O O9 0.942537 0.313817 0.691664
O O10 0.717464 0.762815 0.628865
O O11 0.546814 0.776194 0.570206
O O12 0.473365 0.250000 0.750000
O O13 0.599145 0.163259 0.664179
O O14 0.221457 0.250000 0.250000
O O15 0.250000 0.000000 0.308153
O O16 0.500000 0.000000 0.500000
#
# Coordination Sequence:
#
# PCOD9410337 Si02
#       7
#     8   8   4   8   8   8   8
#     4  11  24  42  66  96 129 185 233 284 346 416
#     4  10  22  41  67  95 134 182 225 281 344 411
#     4  10  20  40  68  94 132 168 218 290 350 406
#     4  10  21  39  69  96 132 173 216 277 350 415
#     4  11  24  41  67  98 139 171 225 291 347 413
#     4  11  24  38  63 103 138 173 218 272 352 430
#     4  10  20  42  65  92 131 174 230 281 333 404
#
# _framework density 20.437235000000001
#
# number of rings (size 3 to 8) (size 9 to 14) (size 15 to 20)
#    0.000    1.538    2.308    2.769    5.385    0.000 
#    2.769    1.538    0.000    0.000    0.000    0.000 
#    0.000    0.000    0.000    0.000    0.000    0.000 
#
# Total GULP energy -290354.207919 kJ/mol
# GULP energy per Si atom -5583.734768 kJ/mol
# Density = 2.039072 g / cm^3
# Si number density = 20.437235 Si / 1000 Ang^3
#
#
#
# Elastic Constant Matrix: (Units=GPa)
#
#
# Indices 1 2 3 4 5 6 
#
# 1 90.6543 27.5559 8.3592 0.0000 0.0000 0.0000
# 2 27.5559 133.5609 39.9067 0.0000 0.0000 0.0000
# 3 8.3592 39.9067 104.1955 0.0000 0.0000 0.0000
# 4 0.0000 0.0000 0.0000 34.2534 0.0000 0.0000
# 5 0.0000 0.0000 0.0000 0.0000 12.4053 0.0000
# 6 0.0000 0.0000 0.0000 0.0000 0.0000 1.6116
#
#
#
# Elastic Compliance Matrix: (Units=1/GPa)
#
#
# Indices 1 2 3 4 5 6 
#
# 1 0.011769 -0.002423 -0.000016 0.000000 0.000000 0.000000
# 2 -0.002423 0.008954 -0.003235 0.000000 0.000000 0.000000
# 3 -0.000016 -0.003235 0.010838 0.000000 0.000000 0.000000
# 4 0.000000 0.000000 0.000000 0.029194 0.000000 0.000000
# 5 0.000000 0.000000 0.000000 0.000000 0.080611 0.000000
# 6 0.000000 0.000000 0.000000 0.000000 0.000000 0.620494
#
#
# Mechanical properties :
#
#
# Convention : Reuss Voigt Hill
#
# Bulk Modulus (GPa) = 49.47598 53.33938 51.40768
# Shear Modulus (GPa) = 6.41071 26.49332 16.45201
#
# Velocity S-wave (km/s) = 1.77302 3.60436 2.84033
# Velocity P-wave (km/s) = 5.33411 6.59376 5.99710
#
# Compressibility (1/GPa) = 0.02021183
#
# Stress axis : x y z
#
# Youngs Moduli (GPa) = 84.96890 111.68513 92.27157
#
# Poissons Ratio (x) = 0.27065 0.00148
# Poissons Ratio (y) = 0.20591 0.29848
# Poissons Ratio (z) = 0.00136 0.36128
#
# Static dielectric constant tensor:
#      x y z
#    x 1.784970 0.000000 0.000000 
#    y 0.000000 1.741770 0.000000 
#    z 0.000000 0.000000 1.940060 
# 
# From -- ./inp_files/37274.got.cif
#   From: 2010.05.17/outbox.cif.g08.bks.cpg/sg52_19_cif.got.tgz:37274.got - 2010.06.03 12:15:38.
