data_PCOD9410871
_publ_section_title
;
Structure prediction by ZEFSAII (Michael W. Deem and Ramdas Pophale) SiO2 
 PCOD9410871
Probable space group: P N N A
;
_chemical_formula_sum "Si O2"
_cell_formula_units_Z 60
_cell_length_a 16.115981
_cell_length_b 23.552632
_cell_length_c 7.579942
_cell_angle_alpha 90.000000
_cell_angle_beta 90.000000
_cell_angle_gamma 90.000000
_cell_volume 2877.147160
_symmetry_space_group_name_H-M "P N N A"
_symmetry_group_IT_number 52
_symmetry_cell_setting 'orthorhombic'
loop_
_space_group_symop_operation_xyz
x,y,z
1/2-x,-y,z
x,1/2-y,1/2-z
1/2-x,1/2+y,1/2-z
-x,-y,-z
1/2+x,y,-z
-x,1/2+y,1/2+z
1/2+x,1/2-y,1/2+z
loop_
_atom_site_type_symbol
_atom_site_label
_atom_site_fract_x
_atom_site_fract_y
_atom_site_fract_z
Si Si1 0.609347 0.378330 0.308807
Si Si2 0.102001 0.239571 0.959582
Si Si3 0.473061 0.250000 0.750000
Si Si4 0.387412 0.142645 0.686850
Si Si5 0.227506 0.332477 0.009822
Si Si6 0.735480 0.559337 0.390679
Si Si7 0.788085 0.440599 0.796692
Si Si8 0.474276 0.436363 0.059802
O O1 0.594368 0.328428 0.450697
O O2 0.668572 0.355321 0.149059
O O3 0.670688 0.419808 0.408838
O O4 0.533606 0.409376 0.210349
O O5 0.093033 0.250000 0.750000
O O6 0.185239 0.270405 0.034394
O O7 0.030100 0.264160 0.082048
O O8 0.420554 0.194906 0.799114
O O9 0.323209 0.172602 0.550128
O O10 0.327635 0.099224 0.787722
O O11 0.463811 0.107815 0.602709
O O12 0.234512 0.384537 0.149534
O O13 0.750000 0.500000 0.294221
O O14 0.702452 0.554072 0.587472
O O15 0.750000 0.500000 0.861674
O O16 0.879784 0.436832 0.874380
O O17 0.500000 0.500000 0.000000
#
# Coordination Sequence:
#
# PCOD9410871 Si02
#       8
#     8   8   4   8   8   8   8   8
#     4  10  21  38  65  90 125 170 217 276 335 394
#     4  10  23  42  64  92 130 175 223 274 333 402
#     4  12  26  40  66  98 136 166 224 274 344 398
#     4  10  23  40  65  94 130 172 216 274 332 409
#     4   9  20  40  64  84 126 168 220 258 326 395
#     4  10  22  41  61  92 130 169 216 272 337 397
#     4  10  22  39  63  96 129 168 219 272 329 417
#     4  11  22  41  67  98 129 176 226 279 349 408
#
# _framework density 20.853992000000002
#
# number of rings (size 3 to 8) (size 9 to 14) (size 15 to 20)
#    0.000    1.867    0.000    3.200    8.400    3.733 
#    2.400    3.333    0.000    0.000    0.000    0.000 
#    0.000    0.000    0.000    0.000    0.000    0.000 
#
# Total GULP energy -334014.063093 kJ/mol
# GULP energy per Si atom -5566.901052 kJ/mol
# Density = 2.080653 g / cm^3
# Si number density = 20.853992 Si / 1000 Ang^3
#
#
#
# Elastic Constant Matrix: (Units=GPa)
#
#
# Indices 1 2 3 4 5 6 
#
# 1 72.1382 52.3156 10.2892 0.0000 0.0000 0.0000
# 2 52.3156 139.2541 25.6738 0.0000 0.0000 0.0000
# 3 10.2892 25.6738 47.6992 0.0000 0.0000 0.0000
# 4 0.0000 0.0000 0.0000 9.9142 0.0000 0.0000
# 5 0.0000 0.0000 0.0000 0.0000 230.3521 0.0000
# 6 0.0000 0.0000 0.0000 0.0000 0.0000 38.6476
#
#
#
# Elastic Compliance Matrix: (Units=1/GPa)
#
#
# Indices 1 2 3 4 5 6 
#
# 1 0.019057 -0.007107 -0.000286 0.000000 0.000000 0.000000
# 2 -0.007107 0.010622 -0.004185 0.000000 0.000000 0.000000
# 3 -0.000286 -0.004185 0.023279 0.000000 0.000000 0.000000
# 4 0.000000 0.000000 0.000000 0.100865 0.000000 0.000000
# 5 0.000000 0.000000 0.000000 0.000000 0.004341 0.000000
# 6 0.000000 0.000000 0.000000 0.000000 0.000000 0.025875
#
#
# Mechanical properties :
#
#
# Convention : Reuss Voigt Hill
#
# Bulk Modulus (GPa) = 33.55216 48.40542 40.97879
# Shear Modulus (GPa) = 23.02794 67.17032 45.09913
#
# Velocity S-wave (km/s) = 3.32662 5.68153 4.65544
# Velocity P-wave (km/s) = 5.55691 8.14258 6.97068
#
# Compressibility (1/GPa) = 0.02980434
#
# Stress axis : x y z
#
# Youngs Moduli (GPa) = 52.47432 94.13988 42.95791
#
# Poissons Ratio (x) = 0.66903 0.01227
# Poissons Ratio (y) = 0.37292 0.17976
# Poissons Ratio (z) = 0.01499 0.39393
#
# Static dielectric constant tensor:
#      x y z
#    x 1.729600 0.000000 0.000000 
#    y 0.000000 1.777280 0.000000 
#    z 0.000000 0.000000 1.772230 
# 
# From -- ./inp_files/10976.got.cif
#   From: 2010.05.17/outbox.cif.g08.bks.cpg/sg52_6_cif.got.tgz:10976.got - 2010.06.03 12:15:38.
