data_PCOD9410498
_publ_section_title
;
Structure prediction by ZEFSAII (Michael W. Deem and Ramdas Pophale) SiO2 
 PCOD9410498
Probable space group: P N N A
;
_chemical_formula_sum "Si O2"
_cell_formula_units_Z 48
_cell_length_a 9.381236
_cell_length_b 14.656207
_cell_length_c 16.826742
_cell_angle_alpha 90.000000
_cell_angle_beta 90.000000
_cell_angle_gamma 90.000000
_cell_volume 2313.564904
_symmetry_space_group_name_H-M "P N N A"
_symmetry_group_IT_number 52
_symmetry_cell_setting 'orthorhombic'
loop_
_space_group_symop_operation_xyz
x,y,z
1/2-x,-y,z
x,1/2-y,1/2-z
1/2-x,1/2+y,1/2-z
-x,-y,-z
1/2+x,y,-z
-x,1/2+y,1/2+z
1/2+x,1/2-y,1/2+z
loop_
_atom_site_type_symbol
_atom_site_label
_atom_site_fract_x
_atom_site_fract_y
_atom_site_fract_z
Si Si1 0.120181 0.233161 0.950239
Si Si2 0.905893 0.396843 0.636048
Si Si3 0.153011 0.802369 0.820195
Si Si4 0.890643 0.937467 0.454106
Si Si5 0.900790 0.904805 0.905200
Si Si6 0.872452 0.575925 0.230194
O O1 0.260243 0.241136 0.894034
O O2 0.105324 0.333902 0.987189
O O3 0.986621 0.191757 0.899533
O O4 0.133600 0.155949 0.017530
O O5 0.912758 0.486677 0.579369
O O6 0.738107 0.385803 0.649377
O O7 0.991401 0.429634 0.713462
O O8 0.068706 0.750000 0.750000
O O9 0.280504 0.842485 0.766528
O O10 0.044313 0.871046 0.862709
O O11 0.919700 0.920633 0.360616
O O12 0.750000 0.000000 0.457507
O O13 0.000000 0.000000 0.500000
O O14 0.750000 0.500000 0.236582
#
# Coordination Sequence:
#
# PCOD9410498 Si02
#       6
#     8   8   8   8   8   8
#     4  11  24  42  70  97 138 177 231 275 344 419
#     4  10  23  41  66 105 137 172 220 285 352 402
#     4  11  22  41  68  98 133 182 228 276 343 412
#     4  11  27  47  70  97 132 183 235 284 338 398
#     4  11  23  40  66 103 140 169 221 286 350 408
#     4  10  20  44  70  92 132 177 229 274 335 410
#
# _framework density 20.747204
#
# number of rings (size 3 to 8) (size 9 to 14) (size 15 to 20)
#    0.000    1.333    3.333    1.500    4.667    1.333 
#    6.000    0.000    0.000    0.000    0.000    0.000 
#    0.000    0.000    0.000    0.000    0.000    0.000 
#
# Total GULP energy -267294.272118 kJ/mol
# GULP energy per Si atom -5568.630669 kJ/mol
# Density = 2.069998 g / cm^3
# Si number density = 20.747204 Si / 1000 Ang^3
#
#
#
# Elastic Constant Matrix: (Units=GPa)
#
#
# Indices 1 2 3 4 5 6 
#
# 1 98.3404 13.9588 24.0723 0.0000 0.0000 0.0000
# 2 13.9588 117.1705 6.5895 0.0000 0.0000 0.0000
# 3 24.0723 6.5895 69.7437 0.0000 0.0000 0.0000
# 4 0.0000 0.0000 0.0000 25.6338 0.0000 0.0000
# 5 0.0000 0.0000 0.0000 0.0000 35.4840 0.0000
# 6 0.0000 0.0000 0.0000 0.0000 0.0000 23.5327
#
#
#
# Elastic Compliance Matrix: (Units=1/GPa)
#
#
# Indices 1 2 3 4 5 6 
#
# 1 0.011254 -0.001128 -0.003778 0.000000 0.000000 0.000000
# 2 -0.001128 0.008693 -0.000432 0.000000 0.000000 0.000000
# 3 -0.003778 -0.000432 0.015683 0.000000 0.000000 0.000000
# 4 0.000000 0.000000 0.000000 0.039011 0.000000 0.000000
# 5 0.000000 0.000000 0.000000 0.000000 0.028182 0.000000
# 6 0.000000 0.000000 0.000000 0.000000 0.000000 0.042494
#
#
# Mechanical properties :
#
#
# Convention : Reuss Voigt Hill
#
# Bulk Modulus (GPa) = 40.07347 41.61066 40.84207
# Shear Modulus (GPa) = 30.43025 32.97236 31.70130
#
# Velocity S-wave (km/s) = 3.83393 3.99086 3.91318
# Velocity P-wave (km/s) = 6.24145 6.42927 6.33606
#
# Compressibility (1/GPa) = 0.02495417
#
# Stress axis : x y z
#
# Youngs Moduli (GPa) = 88.86029 115.03152 63.76373
#
# Poissons Ratio (x) = 0.12978 0.24088
# Poissons Ratio (y) = 0.10025 0.02754
# Poissons Ratio (z) = 0.33568 0.04969
#
# Static dielectric constant tensor:
#      x y z
#    x 1.701840 0.000000 0.000000 
#    y 0.000000 1.746760 0.000000 
#    z 0.000000 0.000000 1.762080 
# 
# From -- ./inp_files/31263.got.cif
#   From: 2010.05.17/outbox.cif.g08.bks.cpg/sg52_16_cif.got.tgz:31263.got - 2010.06.03 12:15:38.
