data_PCOD9410056
_publ_section_title
;
Structure prediction by ZEFSAII (Michael W. Deem and Ramdas Pophale) SiO2 
 PCOD9410056
Probable space group: P N N A
;
_chemical_formula_sum "Si O2"
_cell_formula_units_Z 60
_cell_length_a 9.187994
_cell_length_b 27.528005
_cell_length_c 11.808624
_cell_angle_alpha 90.000000
_cell_angle_beta 90.000000
_cell_angle_gamma 90.000000
_cell_volume 2986.721552
_symmetry_space_group_name_H-M "P N N A"
_symmetry_group_IT_number 52
_symmetry_cell_setting 'orthorhombic'
loop_
_space_group_symop_operation_xyz
x,y,z
1/2-x,-y,z
x,1/2-y,1/2-z
1/2-x,1/2+y,1/2-z
-x,-y,-z
1/2+x,y,-z
-x,1/2+y,1/2+z
1/2+x,1/2-y,1/2+z
loop_
_atom_site_type_symbol
_atom_site_label
_atom_site_fract_x
_atom_site_fract_y
_atom_site_fract_z
Si Si1 0.532336 0.802815 0.884475
Si Si2 0.923760 0.312450 0.874592
Si Si3 0.883700 0.402976 0.221312
Si Si4 0.522697 0.750000 0.250000
Si Si5 0.400276 0.830194 0.407322
Si Si6 0.148860 0.452833 0.923865
Si Si7 0.091331 0.014935 0.326106
Si Si8 0.700804 0.827245 0.099354
O O1 0.579037 0.746227 0.887304
O O2 0.546375 0.821736 0.756673
O O3 0.364613 0.809458 0.915609
O O4 0.627570 0.829955 0.977134
O O5 0.771386 0.337236 0.904967
O O6 0.043047 0.329247 0.964613
O O7 0.748651 0.413026 0.136245
O O8 0.819373 0.377030 0.331827
O O9 0.998128 0.366649 0.162492
O O10 0.979339 0.451618 0.244016
O O11 0.427847 0.779443 0.340957
O O12 0.621103 0.786597 0.176854
O O13 0.250000 0.500000 0.909114
O O14 0.996413 0.466478 0.864512
O O15 0.119263 0.453546 0.058193
O O16 0.250000 0.000000 0.280525
#
# Coordination Sequence:
#
# PCOD9410056 Si02
#       8
#     8   8   8   4   8   8   8   8
#     4  11  24  41  63  80 120 171 229 262 309 365
#     4  11  24  39  61  87 120 173 220 259 314 366
#     4  10  23  36  57  92 131 162 201 262 322 380
#     4  10  20  38  62  78 124 168 210 260 318 362
#     4  11  24  37  57  90 129 163 208 262 312 373
#     4   8  16  34  57  86 128 166 201 247 325 397
#     4   9  17  35  61  90 122 165 201 252 321 402
#     4  11  24  40  60  87 121 166 218 267 315 371
#
# _framework density 20.088916999999999
#
# number of rings (size 3 to 8) (size 9 to 14) (size 15 to 20)
#    0.000    1.867    1.333    3.200    9.333    0.000 
#    2.400    0.000    0.000    0.000    0.000   12.133 
#    0.000    0.000    0.000    0.000    0.000    0.000 
#
# Total GULP energy -335048.457648 kJ/mol
# GULP energy per Si atom -5584.140961 kJ/mol
# Density = 2.004319 g / cm^3
# Si number density = 20.088917 Si / 1000 Ang^3
#
#
#
# Elastic Constant Matrix: (Units=GPa)
#
#
# Indices 1 2 3 4 5 6 
#
# 1 91.1384 21.6679 21.9751 0.0000 0.0000 0.0000
# 2 21.6679 43.4404 14.3827 0.0000 0.0000 0.0000
# 3 21.9751 14.3827 96.8180 0.0000 0.0000 0.0000
# 4 0.0000 0.0000 0.0000 18.7214 0.0000 0.0000
# 5 0.0000 0.0000 0.0000 0.0000 25.4841 0.0000
# 6 0.0000 0.0000 0.0000 0.0000 0.0000 33.7843
#
#
#
# Elastic Compliance Matrix: (Units=1/GPa)
#
#
# Indices 1 2 3 4 5 6 
#
# 1 0.012829 -0.005716 -0.002063 0.000000 0.000000 0.000000
# 2 -0.005716 0.026758 -0.002678 0.000000 0.000000 0.000000
# 3 -0.002063 -0.002678 0.011195 0.000000 0.000000 0.000000
# 4 0.000000 0.000000 0.000000 0.053415 0.000000 0.000000
# 5 0.000000 0.000000 0.000000 0.000000 0.039240 0.000000
# 6 0.000000 0.000000 0.000000 0.000000 0.000000 0.029600
#
#
# Mechanical properties :
#
#
# Convention : Reuss Voigt Hill
#
# Bulk Modulus (GPa) = 33.48005 38.60536 36.04270
# Shear Modulus (GPa) = 24.52136 27.15603 25.83870
#
# Velocity S-wave (km/s) = 3.49756 3.68066 3.59028
# Velocity P-wave (km/s) = 5.74566 6.10917 5.93020
#
# Compressibility (1/GPa) = 0.02986854
#
# Stress axis : x y z
#
# Youngs Moduli (GPa) = 77.95072 37.37244 89.32887
#
# Poissons Ratio (x) = 0.21362 0.18425
# Poissons Ratio (y) = 0.44556 0.23919
# Poissons Ratio (z) = 0.16078 0.10007
#
# Static dielectric constant tensor:
#      x y z
#    x 1.706120 0.000000 0.000000 
#    y 0.000000 1.769100 0.000000 
#    z 0.000000 0.000000 1.708560 
# 
# From -- ./inp_files/17158.got.cif
#   From: 2010.05.17/outbox.cif.g08.bks.cpg/sg52_9_cif.got.tgz:17158.got - 2010.06.03 12:15:38.
