data_PCOD9410088
_publ_section_title
;
Structure prediction by ZEFSAII (Michael W. Deem and Ramdas Pophale) SiO2 
 PCOD9410088
Probable space group: P N N A
;
_chemical_formula_sum "Si O2"
_cell_formula_units_Z 60
_cell_length_a 11.539668
_cell_length_b 14.962493
_cell_length_c 15.118163
_cell_angle_alpha 90.000000
_cell_angle_beta 90.000000
_cell_angle_gamma 90.000000
_cell_volume 2610.335309
_symmetry_space_group_name_H-M "P N N A"
_symmetry_group_IT_number 52
_symmetry_cell_setting 'orthorhombic'
loop_
_space_group_symop_operation_xyz
x,y,z
1/2-x,-y,z
x,1/2-y,1/2-z
1/2-x,1/2+y,1/2-z
-x,-y,-z
1/2+x,y,-z
-x,1/2+y,1/2+z
1/2+x,1/2-y,1/2+z
loop_
_atom_site_type_symbol
_atom_site_label
_atom_site_fract_x
_atom_site_fract_y
_atom_site_fract_z
Si Si1 0.750000 0.000000 0.539208
Si Si2 0.057165 0.367375 0.565954
Si Si3 0.995667 0.308304 0.375610
Si Si4 0.942811 0.220523 0.658023
Si Si5 0.604210 0.066667 0.385454
Si Si6 0.699620 0.324455 0.875479
Si Si7 0.111780 0.518570 0.698755
Si Si8 0.754842 0.225662 0.421500
O O1 0.643666 0.002559 0.465739
O O2 0.692366 0.070595 0.607177
O O3 0.061633 0.459710 0.617456
O O4 0.169235 0.308980 0.596499
O O5 0.048028 0.362097 0.460357
O O6 0.948467 0.309414 0.599979
O O7 0.939907 0.382345 0.311690
O O8 0.885586 0.249699 0.403930
O O9 0.093829 0.237501 0.347766
O O10 0.002950 0.250000 0.750000
O O11 0.814787 0.189501 0.680201
O O12 0.002309 0.140081 0.603013
O O13 0.577421 0.017383 0.294966
O O14 0.711496 0.136667 0.371722
O O15 0.733605 0.295511 0.975743
O O16 0.250000 0.500000 0.692777
#
# Coordination Sequence:
#
# PCOD9410088 Si02
#       8
#     4   8   8   8   8   8   8   8
#     4  10  22  44  68 102 134 168 234 298 344 422
#     4  10  20  38  63  94 126 178 229 272 348 409
#     4  11  22  41  63  96 136 179 232 280 346 422
#     4  11  21  40  69  89 133 178 229 279 344 435
#     4  10  22  39  64 103 127 170 229 292 369 399
#     4  10  23  42  65  96 131 183 224 279 348 419
#     4  12  22  38  62 102 140 170 229 295 356 415
#     4   9  19  37  63  93 127 169 224 287 334 413
#
# _framework density 22.985551999999998
#
# number of rings (size 3 to 8) (size 9 to 14) (size 15 to 20)
#    0.000    1.600    4.667    1.200    0.000    0.533 
#    2.400    3.333    0.000    0.000    0.000    0.000 
#    0.000    0.000    0.000    0.000    0.000    0.000 
#
# Total GULP energy -334435.287710 kJ/mol
# GULP energy per Si atom -5573.921462 kJ/mol
# Density = 2.293324 g / cm^3
# Si number density = 22.985552 Si / 1000 Ang^3
#
#
#
# Elastic Constant Matrix: (Units=GPa)
#
#
# Indices 1 2 3 4 5 6 
#
# 1 96.8406 31.2106 0.5808 0.0000 0.0000 0.0000
# 2 31.2106 100.3767 23.1383 0.0000 0.0000 0.0000
# 3 0.5808 23.1383 62.7776 0.0000 0.0000 0.0000
# 4 0.0000 0.0000 0.0000 30.0741 0.0000 0.0000
# 5 0.0000 0.0000 0.0000 0.0000 18.3831 0.0000
# 6 0.0000 0.0000 0.0000 0.0000 0.0000 31.2758
#
#
#
# Elastic Compliance Matrix: (Units=1/GPa)
#
#
# Indices 1 2 3 4 5 6 
#
# 1 0.011577 -0.003907 0.001333 0.000000 0.000000 0.000000
# 2 -0.003907 0.012206 -0.004463 0.000000 0.000000 0.000000
# 3 0.001333 -0.004463 0.017562 0.000000 0.000000 0.000000
# 4 0.000000 0.000000 0.000000 0.033251 0.000000 0.000000
# 5 0.000000 0.000000 0.000000 0.000000 0.054398 0.000000
# 6 0.000000 0.000000 0.000000 0.000000 0.000000 0.031974
#
#
# Mechanical properties :
#
#
# Convention : Reuss Voigt Hill
#
# Bulk Modulus (GPa) = 36.66824 41.09492 38.88158
# Shear Modulus (GPa) = 27.15444 29.61763 28.38604
#
# Velocity S-wave (km/s) = 3.44084 3.59351 3.51800
# Velocity P-wave (km/s) = 5.63677 5.92749 5.78396
#
# Compressibility (1/GPa) = 0.02727156
#
# Stress axis : x y z
#
# Youngs Moduli (GPa) = 86.37466 81.92662 56.94191
#
# Poissons Ratio (x) = 0.32010 -0.07590
# Poissons Ratio (y) = 0.33747 0.25411
# Poissons Ratio (z) = -0.11513 0.36561
#
# Static dielectric constant tensor:
#      x y z
#    x 1.907590 0.000000 0.000000 
#    y 0.000000 1.951000 0.000000 
#    z 0.000000 0.000000 1.904710 
# 
# From -- ./inp_files/32372.got.cif
#   From: 2010.05.17/outbox.cif.g08.bks.cpg/sg52_17_cif.got.tgz:32372.got - 2010.06.03 12:15:38.
