data_PCOD9410377
_publ_section_title
;
Structure prediction by ZEFSAII (Michael W. Deem and Ramdas Pophale) SiO2 
 PCOD9410377
Probable space group: P N N A
;
_chemical_formula_sum "Si O2"
_cell_formula_units_Z 56
_cell_length_a 14.226927
_cell_length_b 30.690618
_cell_length_c 5.473935
_cell_angle_alpha 90.000000
_cell_angle_beta 90.000000
_cell_angle_gamma 90.000000
_cell_volume 2390.101656
_symmetry_space_group_name_H-M "P N N A"
_symmetry_group_IT_number 52
_symmetry_cell_setting 'orthorhombic'
loop_
_space_group_symop_operation_xyz
x,y,z
1/2-x,-y,z
x,1/2-y,1/2-z
1/2-x,1/2+y,1/2-z
-x,-y,-z
1/2+x,y,-z
-x,1/2+y,1/2+z
1/2+x,1/2-y,1/2+z
loop_
_atom_site_type_symbol
_atom_site_label
_atom_site_fract_x
_atom_site_fract_y
_atom_site_fract_z
Si Si1 0.984368 0.035467 0.276481
Si Si2 0.469364 0.844104 0.649517
Si Si3 0.702535 0.343839 0.817315
Si Si4 0.292166 0.750000 0.250000
Si Si5 0.360329 0.914282 0.956904
Si Si6 0.410923 0.750000 0.750000
Si Si7 0.687592 0.535912 0.540946
Si Si8 0.141702 0.604623 0.043309
O O1 0.908400 0.017562 0.077851
O O2 0.917923 0.075282 0.362898
O O3 0.075376 0.059673 0.158909
O O4 0.000000 0.000000 0.500000
O O5 0.402913 0.838311 0.414472
O O6 0.462845 0.796587 0.771922
O O7 0.575703 0.854894 0.599777
O O8 0.430633 0.888937 0.776098
O O9 0.751803 0.298069 0.760940
O O10 0.692044 0.373712 0.582808
O O11 0.759344 0.372828 0.012671
O O12 0.349488 0.750049 0.503739
O O13 0.273258 0.945292 0.870852
O O14 0.750000 0.500000 0.683841
O O15 0.656312 0.573133 0.725453
#
# Coordination Sequence:
#
# PCOD9410377 Si02
#       8
#     8   8   8   4   8   4   8   8
#     4  12  26  42  68  99 133 177 237 297 356 432
#     4  11  21  41  68  95 136 177 224 286 350 423
#     4  10  22  40  67  93 139 177 232 282 351 427
#     4  10  20  41  64 107 140 192 236 295 362 431
#     4  11  22  42  66  93 132 181 224 286 358 421
#     4  10  22  37  72 105 140 186 238 291 358 439
#     4  11  26  42  64  95 131 175 231 287 348 421
#     4  11  24  42  66  99 129 180 231 277 357 424
#
# _framework density 23.429964999999999
#
# number of rings (size 3 to 8) (size 9 to 14) (size 15 to 20)
#    0.000    1.143    4.286    1.714    2.000    4.571 
#    0.000    0.000    0.000    4.286    0.000    0.000 
#    0.000    0.000    0.000    0.000    0.000    0.000 
#
# Total GULP energy -311780.643644 kJ/mol
# GULP energy per Si atom -5567.511494 kJ/mol
# Density = 2.337664 g / cm^3
# Si number density = 23.429965 Si / 1000 Ang^3
#
#
#
# Elastic Constant Matrix: (Units=GPa)
#
#
# Indices 1 2 3 4 5 6 
#
# 1 97.0216 28.0699 -2.2894 0.0000 0.0000 0.0000
# 2 28.0699 110.4969 11.0430 0.0000 0.0000 0.0000
# 3 -2.2894 11.0430 38.1112 0.0000 0.0000 0.0000
# 4 0.0000 0.0000 0.0000 41.4067 0.0000 0.0000
# 5 0.0000 0.0000 0.0000 0.0000 25.4918 0.0000
# 6 0.0000 0.0000 0.0000 0.0000 0.0000 40.4447
#
#
#
# Elastic Compliance Matrix: (Units=1/GPa)
#
#
# Indices 1 2 3 4 5 6 
#
# 1 0.011212 -0.003003 0.001544 0.000000 0.000000 0.000000
# 2 -0.003003 0.010124 -0.003114 0.000000 0.000000 0.000000
# 3 0.001544 -0.003114 0.027234 0.000000 0.000000 0.000000
# 4 0.000000 0.000000 0.000000 0.024151 0.000000 0.000000
# 5 0.000000 0.000000 0.000000 0.000000 0.039228 0.000000
# 6 0.000000 0.000000 0.000000 0.000000 0.000000 0.024725
#
#
# Mechanical properties :
#
#
# Convention : Reuss Voigt Hill
#
# Bulk Modulus (GPa) = 25.36502 35.47518 30.42010
# Shear Modulus (GPa) = 31.45420 35.38904 33.42162
#
# Velocity S-wave (km/s) = 3.66796 3.89063 3.78093
# Velocity P-wave (km/s) = 5.36544 5.94613 5.66323
#
# Compressibility (1/GPa) = 0.03942437
#
# Stress axis : x y z
#
# Youngs Moduli (GPa) = 89.18949 98.77553 36.71883
#
# Poissons Ratio (x) = 0.29657 -0.05668
# Poissons Ratio (y) = 0.26779 0.11434
# Poissons Ratio (z) = -0.13767 0.30757
#
# Static dielectric constant tensor:
#      x y z
#    x 3.141750 0.000000 0.000000 
#    y 0.000000 2.026930 0.000000 
#    z 0.000000 0.000000 2.007920 
# 
# From -- ./inp_files/2656.got.cif
#   From: 2010.05.17/outbox.cif.g08.bks.cpg/sg52_2_cif.got.tgz:2656.got - 2010.06.03 12:15:38.
