data_PCOD9410477
_publ_section_title
;
Structure prediction by ZEFSAII (Michael W. Deem and Ramdas Pophale) SiO2 
 PCOD9410477
Probable space group: P N N A
;
_chemical_formula_sum "Si O2"
_cell_formula_units_Z 52
_cell_length_a 21.505264
_cell_length_b 18.175531
_cell_length_c 6.575961
_cell_angle_alpha 90.000000
_cell_angle_beta 90.000000
_cell_angle_gamma 90.000000
_cell_volume 2570.343196
_symmetry_space_group_name_H-M "P N N A"
_symmetry_group_IT_number 52
_symmetry_cell_setting 'orthorhombic'
loop_
_space_group_symop_operation_xyz
x,y,z
1/2-x,-y,z
x,1/2-y,1/2-z
1/2-x,1/2+y,1/2-z
-x,-y,-z
1/2+x,y,-z
-x,1/2+y,1/2+z
1/2+x,1/2-y,1/2+z
loop_
_atom_site_type_symbol
_atom_site_label
_atom_site_fract_x
_atom_site_fract_y
_atom_site_fract_z
Si Si1 0.555807 0.858044 0.422185
Si Si2 0.560100 0.325593 0.632901
Si Si3 0.776708 0.318724 0.636078
Si Si4 0.750000 0.000000 0.301847
Si Si5 0.500443 0.250000 0.250000
Si Si6 0.841741 0.068255 0.612529
Si Si7 0.158097 0.750000 0.750000
Si Si8 0.172104 0.437560 0.437173
O O1 0.497300 0.858647 0.267678
O O2 0.536306 0.807920 0.612548
O O3 0.590588 0.930563 0.505339
O O4 0.611799 0.814600 0.315646
O O5 0.580376 0.250000 0.750000
O O6 0.538074 0.297120 0.413962
O O7 0.611719 0.386779 0.588968
O O8 0.747174 0.250000 0.750000
O O9 0.831627 0.354417 0.770540
O O10 0.800805 0.285870 0.425929
O O11 0.728820 0.384390 0.618280
O O12 0.713496 0.943319 0.448378
O O13 0.804529 0.967779 0.156287
O O14 0.835338 0.004443 0.779818
#
# Coordination Sequence:
#
# PCOD9410477 Si02
#       8
#     8   8   8   4   4   8   4   8
#     4  11  22  40  70 100 134 175 230 285 348 399
#     4  10  24  44  69 100 138 183 227 288 345 414
#     4  12  24  40  69 103 129 173 229 291 344 402
#     4  12  24  46  68  92 142 188 224 280 352 410
#     4  10  20  43  66  98 137 170 226 288 342 396
#     4  12  25  45  69  99 139 179 226 291 341 415
#     4  12  22  37  74 104 127 166 236 296 336 408
#     4  12  26  45  65  97 144 181 232 277 351 428
#
# _framework density 20.23076
#
# number of rings (size 3 to 8) (size 9 to 14) (size 15 to 20)
#    0.000    0.615    6.923    2.308    0.000    3.692 
#    0.000    1.538    0.000    0.000    0.000    0.000 
#    0.000    0.000    0.000    0.000    0.000    0.000 
#
# Total GULP energy -290188.316263 kJ/mol
# GULP energy per Si atom -5580.544544 kJ/mol
# Density = 2.018471 g / cm^3
# Si number density = 20.230760 Si / 1000 Ang^3
#
#
#
# Elastic Constant Matrix: (Units=GPa)
#
#
# Indices 1 2 3 4 5 6 
#
# 1 114.2203 37.0591 59.5146 0.0000 0.0000 0.0000
# 2 37.0591 75.5949 39.1283 0.0000 0.0000 0.0000
# 3 59.5146 39.1283 132.6961 0.0000 0.0000 0.0000
# 4 0.0000 0.0000 0.0000 37.9324 0.0000 0.0000
# 5 0.0000 0.0000 0.0000 0.0000 44.7097 0.0000
# 6 0.0000 0.0000 0.0000 0.0000 0.0000 39.4407
#
#
#
# Elastic Compliance Matrix: (Units=1/GPa)
#
#
# Indices 1 2 3 4 5 6 
#
# 1 0.012257 -0.003733 -0.004397 0.000000 0.000000 0.000000
# 2 -0.003733 0.016748 -0.003264 0.000000 0.000000 0.000000
# 3 -0.004397 -0.003264 0.010470 0.000000 0.000000 0.000000
# 4 0.000000 0.000000 0.000000 0.026363 0.000000 0.000000
# 5 0.000000 0.000000 0.000000 0.000000 0.022367 0.000000
# 6 0.000000 0.000000 0.000000 0.000000 0.000000 0.025355
#
#
# Mechanical properties :
#
#
# Convention : Reuss Voigt Hill
#
# Bulk Modulus (GPa) = 59.92411 65.99058 62.95734
# Shear Modulus (GPa) = 35.23370 36.87050 36.05210
#
# Velocity S-wave (km/s) = 4.17776 4.27370 4.22601
# Velocity P-wave (km/s) = 7.27710 7.55265 7.41615
#
# Compressibility (1/GPa) = 0.01668778
#
# Stress axis : x y z
#
# Youngs Moduli (GPa) = 81.58570 59.70836 95.50739
#
# Poissons Ratio (x) = 0.22290 0.41990
# Poissons Ratio (y) = 0.30457 0.31176
# Poissons Ratio (z) = 0.35869 0.19490
#
# Static dielectric constant tensor:
#      x y z
#    x 1.752110 0.000000 0.000000 
#    y 0.000000 1.729030 0.000000 
#    z 0.000000 0.000000 3.101490 
# 
# From -- ./inp_files/4460.got.cif
#   From: 2010.05.17/outbox.cif.g08.bks.cpg/sg52_3_cif.got.tgz:4460.got - 2010.06.03 12:15:38.
