data_PCOD9410402
_publ_section_title
;
Structure prediction by ZEFSAII (Michael W. Deem and Ramdas Pophale) SiO2 
 PCOD9410402
Probable space group: P N N A
;
_chemical_formula_sum "Si O2"
_cell_formula_units_Z 32
_cell_length_a 9.159453
_cell_length_b 23.606301
_cell_length_c 7.029674
_cell_angle_alpha 90.000000
_cell_angle_beta 90.000000
_cell_angle_gamma 90.000000
_cell_volume 1519.961768
_symmetry_space_group_name_H-M "P N N A"
_symmetry_group_IT_number 52
_symmetry_cell_setting 'orthorhombic'
loop_
_space_group_symop_operation_xyz
x,y,z
1/2-x,-y,z
x,1/2-y,1/2-z
1/2-x,1/2+y,1/2-z
-x,-y,-z
1/2+x,y,-z
-x,1/2+y,1/2+z
1/2+x,1/2-y,1/2+z
loop_
_atom_site_type_symbol
_atom_site_label
_atom_site_fract_x
_atom_site_fract_y
_atom_site_fract_z
Si Si1 0.463092 0.339474 0.692088
Si Si2 0.281510 0.305350 0.380216
Si Si3 0.717603 0.935750 0.317649
Si Si4 0.972916 0.379029 0.897333
O O1 0.353763 0.297209 0.585979
O O2 0.622074 0.332390 0.605286
O O3 0.386334 0.401227 0.673414
O O4 0.482012 0.336410 0.920644
O O5 0.269143 0.250000 0.250000
O O6 0.389703 0.347689 0.269704
O O7 0.627598 0.929401 0.515927
O O8 0.868315 0.901670 0.344075
O O9 0.750000 0.000000 0.268167
#
# Coordination Sequence:
#
# PCOD9410402 Si02
#       4
#     8   8   8   8
#     4  10  24  43  62  97 130 159 228 261 310 400
#     4  12  26  42  67  92 130 178 211 269 329 372
#     4  10  20  41  71  96 130 174 209 267 334 376
#     4  10  21  42  65  95 133 161 222 263 311 393
#
# _framework density 21.053160999999999
#
# number of rings (size 3 to 8) (size 9 to 14) (size 15 to 20)
#    1.500    0.000    2.500    2.250    3.500    0.000 
#    0.000    6.250    0.000    0.000    0.000    0.000 
#    0.000    0.000    0.000    0.000    0.000    0.000 
#
# Total GULP energy -178428.124135 kJ/mol
# GULP energy per Si atom -5575.878879 kJ/mol
# Density = 2.100524 g / cm^3
# Si number density = 21.053161 Si / 1000 Ang^3
#
#
#
# Elastic Constant Matrix: (Units=GPa)
#
#
# Indices 1 2 3 4 5 6 
#
# 1 191.6307 57.9638 57.9041 0.0000 0.0000 0.0000
# 2 57.9638 85.5296 46.0142 0.0000 0.0000 0.0000
# 3 57.9041 46.0142 84.9555 0.0000 0.0000 0.0000
# 4 0.0000 0.0000 0.0000 21.9261 0.0000 0.0000
# 5 0.0000 0.0000 0.0000 0.0000 20.2654 0.0000
# 6 0.0000 0.0000 0.0000 0.0000 0.0000 -3.7185
#
#
#
# Elastic Compliance Matrix: (Units=1/GPa)
#
#
# Indices 1 2 3 4 5 6 
#
# 1 0.007118 -0.003124 -0.003159 0.000000 0.000000 0.000000
# 2 -0.003124 0.017871 -0.007550 0.000000 0.000000 0.000000
# 3 -0.003159 -0.007550 0.018014 0.000000 0.000000 0.000000
# 4 0.000000 0.000000 0.000000 0.045608 0.000000 0.000000
# 5 0.000000 0.000000 0.000000 0.000000 0.049345 0.000000
# 6 0.000000 0.000000 0.000000 0.000000 0.000000 -0.268922
#
#
# Mechanical properties :
#
#
# Convention : Reuss Voigt Hill
#
# Bulk Modulus (GPa) = 65.20868 76.20887 70.70877
# Shear Modulus (GPa) = -50.92276 21.04350 -14.93963
#
# Velocity S-wave (km/s) = -4.92344 3.16498 -2.66675
# Velocity P-wave (km/s) = 1.13124 7.04507 4.91698
#
# Compressibility (1/GPa) = 0.01533538
#
# Stress axis : x y z
#
# Youngs Moduli (GPa) = 140.48856 55.95662 55.51390
#
# Poissons Ratio (x) = 0.17482 0.17539
# Poissons Ratio (y) = 0.43892 0.41913
# Poissons Ratio (z) = 0.44385 0.42247
#
# Static dielectric constant tensor:
#      x y z
#    x 1.721650 0.000000 0.000000 
#    y 0.000000 1.707350 0.000000 
#    z 0.000000 0.000000 1.781810 
# 
# From -- ./inp_files/7366.got.cif
#   From: 2010.05.17/outbox.cif.g08.bks.cpg/sg52_4_cif.got.tgz:7366.got - 2010.06.03 12:15:38.
