data_PCOD9410890
_publ_section_title
;
Structure prediction by ZEFSAII (Michael W. Deem and Ramdas Pophale) SiO2 
 PCOD9410890
Probable space group: P N N A
;
_chemical_formula_sum "Si O2"
_cell_formula_units_Z 48
_cell_length_a 8.835950
_cell_length_b 8.820022
_cell_length_c 27.775100
_cell_angle_alpha 90.000000
_cell_angle_beta 90.000000
_cell_angle_gamma 90.000000
_cell_volume 2164.604462
_symmetry_space_group_name_H-M "P N N A"
_symmetry_group_IT_number 52
_symmetry_cell_setting 'orthorhombic'
loop_
_space_group_symop_operation_xyz
x,y,z
1/2-x,-y,z
x,1/2-y,1/2-z
1/2-x,1/2+y,1/2-z
-x,-y,-z
1/2+x,y,-z
-x,1/2+y,1/2+z
1/2+x,1/2-y,1/2+z
loop_
_atom_site_type_symbol
_atom_site_label
_atom_site_fract_x
_atom_site_fract_y
_atom_site_fract_z
Si Si1 0.120062 0.614376 0.973090
Si Si2 0.242535 0.318261 0.701970
Si Si3 0.591938 0.246098 0.804380
Si Si4 0.906873 0.245900 0.569376
Si Si5 0.232301 0.319028 0.593246
Si Si6 0.250000 0.500000 0.366666
Si Si7 0.750000 0.000000 0.632355
O O1 0.250000 0.500000 0.958164
O O2 0.164695 0.724945 0.016989
O O3 0.119204 0.728952 0.926888
O O4 0.000000 0.500000 0.000000
O O5 0.250000 0.500000 0.707259
O O6 0.166220 0.250000 0.750000
O O7 0.411588 0.250788 0.699426
O O8 0.184209 0.282211 0.648501
O O9 0.653864 0.250000 0.750000
O O10 0.658863 0.383889 0.834601
O O11 0.638309 0.093977 0.832358
O O12 0.838373 0.383209 0.599660
O O13 0.864348 0.094299 0.598751
O O14 0.084373 0.273584 0.563378
O O15 0.250000 0.500000 0.590732
#
# Coordination Sequence:
#
# PCOD9410890 Si02
#       7
#     8   8   8   8   8   4   4
#     4  12  26  44  68  99 133 177 229 282 340 407
#     4  10  23  42  65  97 132 176 220 273 336 404
#     4  10  21  39  63  94 131 173 221 275 335 402
#     4  11  24  43  65  98 130 180 220 282 334 405
#     4  11  26  45  68  98 139 176 228 277 346 404
#     4  10  21  38  66  94 134 168 223 272 336 404
#     4  10  23  40  66  94 132 174 223 276 340 394
#
# _framework density 22.174952999999999
#
# number of rings (size 3 to 8) (size 9 to 14) (size 15 to 20)
#    0.000    1.333    2.500    2.500    3.500    5.333 
#    0.000    4.167    0.000    0.000    0.000    0.000 
#    0.000    0.000    0.000    0.000    0.000    0.000 
#
# Total GULP energy -267892.185838 kJ/mol
# GULP energy per Si atom -5581.087205 kJ/mol
# Density = 2.212448 g / cm^3
# Si number density = 22.174953 Si / 1000 Ang^3
#
#
#
# Elastic Constant Matrix: (Units=GPa)
#
#
# Indices 1 2 3 4 5 6 
#
# 1 35.8335 14.2165 -7.5541 0.0000 0.0000 0.0000
# 2 14.2165 95.3074 51.1285 0.0000 0.0000 0.0000
# 3 -7.5541 51.1285 136.9676 0.0000 0.0000 0.0000
# 4 0.0000 0.0000 0.0000 33.0447 0.0000 0.0000
# 5 0.0000 0.0000 0.0000 0.0000 39.9570 0.0000
# 6 0.0000 0.0000 0.0000 0.0000 0.0000 24.0358
#
#
#
# Elastic Compliance Matrix: (Units=1/GPa)
#
#
# Indices 1 2 3 4 5 6 
#
# 1 0.031637 -0.007071 0.004384 0.000000 0.000000 0.000000
# 2 -0.007071 0.014700 -0.005877 0.000000 0.000000 0.000000
# 3 0.004384 -0.005877 0.009737 0.000000 0.000000 0.000000
# 4 0.000000 0.000000 0.000000 0.030262 0.000000 0.000000
# 5 0.000000 0.000000 0.000000 0.000000 0.025027 0.000000
# 6 0.000000 0.000000 0.000000 0.000000 0.000000 0.041605
#
#
# Mechanical properties :
#
#
# Convention : Reuss Voigt Hill
#
# Bulk Modulus (GPa) = 25.67709 42.63226 34.15467
# Shear Modulus (GPa) = 27.31095 33.42868 30.36981
#
# Velocity S-wave (km/s) = 3.51324 3.88686 3.70476
# Velocity P-wave (km/s) = 5.29732 6.27780 5.80829
#
# Compressibility (1/GPa) = 0.03894522
#
# Stress axis : x y z
#
# Youngs Moduli (GPa) = 31.60905 68.02675 102.70345
#
# Poissons Ratio (x) = 0.48102 -0.45029
# Poissons Ratio (y) = 0.22351 0.60363
# Poissons Ratio (z) = -0.13859 0.39982
#
# Static dielectric constant tensor:
#      x y z
#    x 1.832180 0.000000 0.000000 
#    y 0.000000 1.835220 0.000000 
#    z 0.000000 0.000000 1.855250 
# 
# From -- ./inp_files/44435.got.cif
#   From: 2010.05.17/outbox.cif.g08.bks.cpg/sg52_23_cif.got.tgz:44435.got - 2010.06.03 12:15:38.
