data_PCOD9410120
_publ_section_title
;
Structure prediction by ZEFSAII (Michael W. Deem and Ramdas Pophale) SiO2 
 PCOD9410120
Probable space group: P N N A
;
_chemical_formula_sum "Si O2"
_cell_formula_units_Z 40
_cell_length_a 10.239464
_cell_length_b 19.029539
_cell_length_c 8.634499
_cell_angle_alpha 90.000000
_cell_angle_beta 90.000000
_cell_angle_gamma 90.000000
_cell_volume 1682.451813
_symmetry_space_group_name_H-M "P N N A"
_symmetry_group_IT_number 52
_symmetry_cell_setting 'orthorhombic'
loop_
_space_group_symop_operation_xyz
x,y,z
1/2-x,-y,z
x,1/2-y,1/2-z
1/2-x,1/2+y,1/2-z
-x,-y,-z
1/2+x,y,-z
-x,1/2+y,1/2+z
1/2+x,1/2-y,1/2+z
loop_
_atom_site_type_symbol
_atom_site_label
_atom_site_fract_x
_atom_site_fract_y
_atom_site_fract_z
Si Si1 0.649468 0.815362 0.103627
Si Si2 0.930648 0.794936 0.115358
Si Si3 0.518150 0.426989 0.180326
Si Si4 0.988377 0.410218 0.172192
Si Si5 0.755910 0.423182 0.652981
O O1 0.781377 0.770484 0.098919
O O2 0.616250 0.855026 0.262790
O O3 0.515503 0.783972 0.037364
O O4 0.685747 0.871886 0.972473
O O5 0.997736 0.750000 0.250000
O O6 0.926285 0.874355 0.188102
O O7 0.561015 0.508665 0.189172
O O8 0.361832 0.428467 0.210239
O O9 0.533996 0.400821 0.004784
O O10 0.115087 0.403440 0.282446
O O11 0.750000 0.500000 0.580056
#
# Coordination Sequence:
#
# PCOD9410120 Si02
#       5
#     8   8   8   8   8
#     4  11  23  42  68  93 126 171 214 271 322 380
#     4  11  26  46  64  93 128 170 225 259 319 391
#     4   9  22  38  63  96 134 167 208 271 320 389
#     4  10  20  38  65  99 130 167 210 265 339 373
#     4   9  19  35  58  95 130 160 208 260 318 382
#
# _framework density 23.774827999999999
#
# number of rings (size 3 to 8) (size 9 to 14) (size 15 to 20)
#    0.000    2.000    2.000    0.000    5.600    4.000 
#    3.600    1.000    0.000    0.000    0.000    0.000 
#    0.000    0.000    0.000    0.000    0.000    0.000 
#
# Total GULP energy -223396.224875 kJ/mol
# GULP energy per Si atom -5584.905622 kJ/mol
# Density = 2.372072 g / cm^3
# Si number density = 23.774828 Si / 1000 Ang^3
#
#
#
# Elastic Constant Matrix: (Units=GPa)
#
#
# Indices 1 2 3 4 5 6 
#
# 1 94.5647 16.3833 12.4428 0.0000 0.0000 0.0000
# 2 16.3833 33.1463 15.5999 0.0000 0.0000 0.0000
# 3 12.4428 15.5999 81.1551 0.0000 0.0000 0.0000
# 4 0.0000 0.0000 0.0000 33.3153 0.0000 0.0000
# 5 0.0000 0.0000 0.0000 0.0000 14.6960 0.0000
# 6 0.0000 0.0000 0.0000 0.0000 0.0000 14.6647
#
#
#
# Elastic Compliance Matrix: (Units=1/GPa)
#
#
# Indices 1 2 3 4 5 6 
#
# 1 0.011606 -0.005386 -0.000744 0.000000 0.000000 0.000000
# 2 -0.005386 0.035670 -0.006031 0.000000 0.000000 0.000000
# 3 -0.000744 -0.006031 0.013595 0.000000 0.000000 0.000000
# 4 0.000000 0.000000 0.000000 0.030016 0.000000 0.000000
# 5 0.000000 0.000000 0.000000 0.000000 0.068046 0.000000
# 6 0.000000 0.000000 0.000000 0.000000 0.000000 0.068191
#
#
# Mechanical properties :
#
#
# Convention : Reuss Voigt Hill
#
# Bulk Modulus (GPa) = 27.36053 33.07979 30.22016
# Shear Modulus (GPa) = 18.96602 23.49787 21.23194
#
# Velocity S-wave (km/s) = 2.82748 3.14722 2.99162
# Velocity P-wave (km/s) = 4.71092 5.21062 4.96706
#
# Compressibility (1/GPa) = 0.03654900
#
# Stress axis : x y z
#
# Youngs Moduli (GPa) = 86.16352 28.03484 73.55417
#
# Poissons Ratio (x) = 0.15100 0.05473
# Poissons Ratio (y) = 0.46410 0.44359
# Poissons Ratio (z) = 0.06411 0.16907
#
# Static dielectric constant tensor:
#      x y z
#    x 1.928530 0.000000 0.000000 
#    y 0.000000 1.997130 0.000000 
#    z 0.000000 0.000000 1.924360 
# 
# From -- ./inp_files/8493.got.cif
#   From: 2010.05.17/outbox.cif.g08.bks.cpg/sg52_5_cif.got.tgz:8493.got - 2010.06.03 12:15:38.
