data_PCOD9410248
_publ_section_title
;
Structure prediction by ZEFSAII (Michael W. Deem and Ramdas Pophale) SiO2 
 PCOD9410248
Probable space group: P N N A
;
_chemical_formula_sum "Si O2"
_cell_formula_units_Z 32
_cell_length_a 13.359213
_cell_length_b 21.466335
_cell_length_c 4.900969
_cell_angle_alpha 90.000000
_cell_angle_beta 90.000000
_cell_angle_gamma 90.000000
_cell_volume 1405.467257
_symmetry_space_group_name_H-M "P N N A"
_symmetry_group_IT_number 52
_symmetry_cell_setting 'orthorhombic'
loop_
_space_group_symop_operation_xyz
x,y,z
1/2-x,-y,z
x,1/2-y,1/2-z
1/2-x,1/2+y,1/2-z
-x,-y,-z
1/2+x,y,-z
-x,1/2+y,1/2+z
1/2+x,1/2-y,1/2+z
loop_
_atom_site_type_symbol
_atom_site_label
_atom_site_fract_x
_atom_site_fract_y
_atom_site_fract_z
Si Si1 0.707411 0.321416 0.200382
Si Si2 0.108208 0.979086 0.378695
Si Si3 0.878641 0.614400 0.696793
Si Si4 0.890595 0.105277 0.154560
O O1 0.681402 0.250000 0.250000
O O2 0.640177 0.366817 0.386310
O O3 0.818754 0.336039 0.309440
O O4 0.686079 0.341097 0.890814
O O5 0.156199 0.945733 0.638354
O O6 0.150967 0.043011 0.257157
O O7 0.101697 0.928110 0.138223
O O8 0.000000 0.000000 0.500000
O O9 0.997037 0.621287 0.747663
#
# Coordination Sequence:
#
# PCOD9410248 Si02
#       4
#     8   8   8   8
#     4  12  27  42  61  92 126 173 226 251 297 383
#     4  10  20  39  68  99 125 156 204 259 330 394
#     4  11  23  43  66  92 127 162 205 267 320 369
#     4  11  23  42  66  95 130 163 202 266 325 373
#
# _framework density 22.768227
#
# number of rings (size 3 to 8) (size 9 to 14) (size 15 to 20)
#    0.000    1.000    0.000    9.750    0.000    8.000 
#    0.000    0.000    0.000    0.000    0.000    0.000 
#    0.000    0.000    0.000    0.000    0.000    0.000 
#
# Total GULP energy -178994.050160 kJ/mol
# GULP energy per Si atom -5593.564067 kJ/mol
# Density = 2.271641 g / cm^3
# Si number density = 22.768227 Si / 1000 Ang^3
#
#
#
# Elastic Constant Matrix: (Units=GPa)
#
#
# Indices 1 2 3 4 5 6 
#
# 1 89.6730 -0.9967 -2.8447 0.0000 0.0000 0.0000
# 2 -0.9967 46.4620 2.7651 0.0000 0.0000 0.0000
# 3 -2.8447 2.7651 105.5387 0.0000 0.0000 0.0000
# 4 0.0000 0.0000 0.0000 25.6061 0.0000 0.0000
# 5 0.0000 0.0000 0.0000 0.0000 28.9876 0.0000
# 6 0.0000 0.0000 0.0000 0.0000 0.0000 15.4997
#
#
#
# Elastic Compliance Matrix: (Units=1/GPa)
#
#
# Indices 1 2 3 4 5 6 
#
# 1 0.011163 0.000222 0.000295 0.000000 0.000000 0.000000
# 2 0.000222 0.021561 -0.000559 0.000000 0.000000 0.000000
# 3 0.000295 -0.000559 0.009498 0.000000 0.000000 0.000000
# 4 0.000000 0.000000 0.000000 0.039053 0.000000 0.000000
# 5 0.000000 0.000000 0.000000 0.000000 0.034498 0.000000
# 6 0.000000 0.000000 0.000000 0.000000 0.000000 0.064518
#
#
# Mechanical properties :
#
#
# Convention : Reuss Voigt Hill
#
# Bulk Modulus (GPa) = 23.73132 26.61346 25.17239
# Shear Modulus (GPa) = 25.71747 30.20201 27.95974
#
# Velocity S-wave (km/s) = 3.36450 3.64606 3.50811
# Velocity P-wave (km/s) = 5.05359 5.42580 5.24300
#
# Compressibility (1/GPa) = 0.04213841
#
# Stress axis : x y z
#
# Youngs Moduli (GPa) = 89.57797 46.38007 105.28758
#
# Poissons Ratio (x) = -0.01029 -0.03107
# Poissons Ratio (y) = -0.01988 0.05885
# Poissons Ratio (z) = -0.02643 0.02592
#
# Static dielectric constant tensor:
#      x y z
#    x 1.948520 0.000000 0.000000 
#    y 0.000000 1.851990 0.000000 
#    z 0.000000 0.000000 1.816220 
# 
# From -- ./inp_files/2013.got.cif
#   From: 2010.05.17/outbox.cif.g08.bks.cpg/sg52_2_cif.got.tgz:2013.got - 2010.06.03 12:15:38.
