data_PCOD9410302
_publ_section_title
;
Structure prediction by ZEFSAII (Michael W. Deem and Ramdas Pophale) SiO2 
 PCOD9410302
Probable space group: P N N A
;
_chemical_formula_sum "Si O2"
_cell_formula_units_Z 44
_cell_length_a 9.601712
_cell_length_b 16.221322
_cell_length_c 13.408029
_cell_angle_alpha 90.000000
_cell_angle_beta 90.000000
_cell_angle_gamma 90.000000
_cell_volume 2088.333529
_symmetry_space_group_name_H-M "P N N A"
_symmetry_group_IT_number 52
_symmetry_cell_setting 'orthorhombic'
loop_
_space_group_symop_operation_xyz
x,y,z
1/2-x,-y,z
x,1/2-y,1/2-z
1/2-x,1/2+y,1/2-z
-x,-y,-z
1/2+x,y,-z
-x,1/2+y,1/2+z
1/2+x,1/2-y,1/2+z
loop_
_atom_site_type_symbol
_atom_site_label
_atom_site_fract_x
_atom_site_fract_y
_atom_site_fract_z
Si Si1 0.589013 0.528573 0.905680
Si Si2 0.690520 0.701106 0.848402
Si Si3 0.477848 0.408811 0.537552
Si Si4 0.695570 0.750000 0.250000
Si Si5 0.963719 0.611883 0.760964
Si Si6 0.710448 0.306627 0.459213
O O1 0.750000 0.500000 0.919500
O O2 0.591948 0.626106 0.884228
O O3 0.527721 0.476213 0.813824
O O4 0.500000 0.500000 0.000000
O O5 0.637047 0.750000 0.750000
O O6 0.831920 0.658356 0.807249
O O7 0.738917 0.753175 0.945477
O O8 0.500000 0.500000 0.500000
O O9 0.552564 0.401023 0.643992
O O10 0.555828 0.340517 0.472047
O O11 0.317305 0.383642 0.545314
O O12 0.595959 0.671446 0.229129
O O13 0.776408 0.737153 0.352765
#
# Coordination Sequence:
#
# PCOD9410302 Si02
#       6
#     8   8   8   4   8   8
#     4  10  23  39  65  98 131 173 219 277 330 400
#     4  11  20  38  68  97 124 170 236 267 312 398
#     4  11  24  41  64  91 131 167 219 268 328 384
#     4  10  20  40  64  94 134 176 216 268 346 380
#     4  10  20  41  65  90 130 178 216 263 327 401
#     4  11  23  41  65  93 127 172 211 273 322 396
#
# _framework density 21.069431999999999
#
# number of rings (size 3 to 8) (size 9 to 14) (size 15 to 20)
#    0.000    1.455    2.727    2.727    2.545    2.909 
#    1.636    7.273    0.000    0.000    0.000    0.000 
#    0.000    0.000    0.000    0.000    0.000    0.000 
#
# Total GULP energy -245882.289677 kJ/mol
# GULP energy per Si atom -5588.233856 kJ/mol
# Density = 2.102148 g / cm^3
# Si number density = 21.069432 Si / 1000 Ang^3
#
#
#
# Elastic Constant Matrix: (Units=GPa)
#
#
# Indices 1 2 3 4 5 6 
#
# 1 42.3696 1.3913 18.1818 0.0000 0.0000 0.0000
# 2 1.3913 97.3982 36.1269 0.0000 0.0000 0.0000
# 3 18.1818 36.1269 125.7569 0.0000 0.0000 0.0000
# 4 0.0000 0.0000 0.0000 41.4895 0.0000 0.0000
# 5 0.0000 0.0000 0.0000 0.0000 31.8176 0.0000
# 6 0.0000 0.0000 0.0000 0.0000 0.0000 6.7673
#
#
#
# Elastic Compliance Matrix: (Units=1/GPa)
#
#
# Indices 1 2 3 4 5 6 
#
# 1 0.025270 0.001113 -0.003973 0.000000 0.000000 0.000000
# 2 0.001113 0.011541 -0.003476 0.000000 0.000000 0.000000
# 3 -0.003973 -0.003476 0.009525 0.000000 0.000000 0.000000
# 4 0.000000 0.000000 0.000000 0.024102 0.000000 0.000000
# 5 0.000000 0.000000 0.000000 0.000000 0.031429 0.000000
# 6 0.000000 0.000000 0.000000 0.000000 0.000000 0.147769
#
#
# Mechanical properties :
#
#
# Convention : Reuss Voigt Hill
#
# Bulk Modulus (GPa) = 29.70665 41.88052 35.79359
# Shear Modulus (GPa) = 18.27951 30.00320 24.14136
#
# Velocity S-wave (km/s) = 2.94867 3.77771 3.38864
# Velocity P-wave (km/s) = 5.07178 6.24088 5.68646
#
# Compressibility (1/GPa) = 0.03366249
#
# Stress axis : x y z
#
# Youngs Moduli (GPa) = 39.57215 86.65030 104.98764
#
# Poissons Ratio (x) = -0.09642 0.41714
# Poissons Ratio (y) = -0.04403 0.36496
# Poissons Ratio (z) = 0.15723 0.30122
#
# Static dielectric constant tensor:
#      x y z
#    x 1.745960 0.000000 0.000000 
#    y 0.000000 1.733090 0.000000 
#    z 0.000000 0.000000 1.762780 
# 
# From -- ./inp_files/18163.got.cif
#   From: 2010.05.17/outbox.cif.g08.bks.cpg/sg52_10_cif.got.tgz:18163.got - 2010.06.03 12:15:38.
