data_PCOD9410226
_publ_section_title
;
Structure prediction by ZEFSAII (Michael W. Deem and Ramdas Pophale) SiO2 
 PCOD9410226
Probable space group: P N N A
;
_chemical_formula_sum "Si O2"
_cell_formula_units_Z 48
_cell_length_a 8.973867
_cell_length_b 26.596030
_cell_length_c 9.436478
_cell_angle_alpha 90.000000
_cell_angle_beta 90.000000
_cell_angle_gamma 90.000000
_cell_volume 2252.196994
_symmetry_space_group_name_H-M "P N N A"
_symmetry_group_IT_number 52
_symmetry_cell_setting 'orthorhombic'
loop_
_space_group_symop_operation_xyz
x,y,z
1/2-x,-y,z
x,1/2-y,1/2-z
1/2-x,1/2+y,1/2-z
-x,-y,-z
1/2+x,y,-z
-x,1/2+y,1/2+z
1/2+x,1/2-y,1/2+z
loop_
_atom_site_type_symbol
_atom_site_label
_atom_site_fract_x
_atom_site_fract_y
_atom_site_fract_z
Si Si1 0.138627 0.785878 0.593266
Si Si2 0.839375 0.660737 0.314997
Si Si3 0.841810 0.342814 0.821495
Si Si4 0.186514 0.949751 0.185279
Si Si5 0.336217 0.549634 0.620723
Si Si6 0.849247 0.783423 0.906242
O O1 0.215388 0.804858 0.738033
O O2 0.142228 0.834068 0.488852
O O3 0.232067 0.748480 0.495446
O O4 0.986220 0.755096 0.607591
O O5 0.795972 0.602309 0.304755
O O6 0.878032 0.672313 0.479347
O O7 0.994321 0.670840 0.236173
O O8 0.805991 0.399824 0.778826
O O9 0.725391 0.308154 0.732549
O O10 0.014022 0.956335 0.138011
O O11 0.250000 0.000000 0.257381
O O12 0.284702 0.944247 0.042544
O O13 0.250000 0.500000 0.673624
#
# Coordination Sequence:
#
# PCOD9410226 Si02
#       6
#     8   8   8   8   8   8
#     4  12  26  44  65  97 136 174 221 274 328 392
#     4  11  24  45  66  96 136 173 221 275 329 394
#     4  11  24  45  66  97 134 175 222 272 331 395
#     4  10  20  39  65  96 132 167 216 277 328 391
#     4  10  20  39  65  97 130 167 219 276 326 391
#     4  12  24  44  67  93 130 180 221 267 326 393
#
# _framework density 21.312522999999999
#
# number of rings (size 3 to 8) (size 9 to 14) (size 15 to 20)
#    0.000    1.000    5.000    3.000    0.000    2.667 
#    9.000    0.833    0.000    4.000    0.000    0.000 
#    0.000    0.000    0.000    0.000    0.000    0.000 
#
# Total GULP energy -267924.855947 kJ/mol
# GULP energy per Si atom -5581.767832 kJ/mol
# Density = 2.126402 g / cm^3
# Si number density = 21.312523 Si / 1000 Ang^3
#
#
#
# Elastic Constant Matrix: (Units=GPa)
#
#
# Indices 1 2 3 4 5 6 
#
# 1 109.0459 88.4620 46.7432 0.0000 0.0000 0.0000
# 2 88.4620 157.6466 44.4971 0.0000 0.0000 0.0000
# 3 46.7432 44.4971 114.1678 0.0000 0.0000 0.0000
# 4 0.0000 0.0000 0.0000 29.3100 0.0000 0.0000
# 5 0.0000 0.0000 0.0000 0.0000 22.0767 0.0000
# 6 0.0000 0.0000 0.0000 0.0000 0.0000 33.8594
#
#
#
# Elastic Compliance Matrix: (Units=1/GPa)
#
#
# Indices 1 2 3 4 5 6 
#
# 1 0.018268 -0.009146 -0.003915 0.000000 0.000000 0.000000
# 2 -0.009146 0.011706 -0.000818 0.000000 0.000000 0.000000
# 3 -0.003915 -0.000818 0.010681 0.000000 0.000000 0.000000
# 4 0.000000 0.000000 0.000000 0.034118 0.000000 0.000000
# 5 0.000000 0.000000 0.000000 0.000000 0.045297 0.000000
# 6 0.000000 0.000000 0.000000 0.000000 0.000000 0.029534
#
#
# Mechanical properties :
#
#
# Convention : Reuss Voigt Hill
#
# Bulk Modulus (GPa) = 77.53346 82.25165 79.89256
# Shear Modulus (GPa) = 27.52388 30.45976 28.99182
#
# Velocity S-wave (km/s) = 3.59756 3.78457 3.69225
# Velocity P-wave (km/s) = 7.32904 7.60093 7.46623
#
# Compressibility (1/GPa) = 0.01289766
#
# Stress axis : x y z
#
# Youngs Moduli (GPa) = 54.74019 85.42337 93.62739
#
# Poissons Ratio (x) = 0.78128 0.36653
# Poissons Ratio (y) = 0.50066 0.07658
# Poissons Ratio (z) = 0.21429 0.06987
#
# Static dielectric constant tensor:
#      x y z
#    x 1.802320 0.000000 0.000000 
#    y 0.000000 1.873140 0.000000 
#    z 0.000000 0.000000 1.864400 
# 
# From -- ./inp_files/7715.got.cif
#   From: 2010.05.17/outbox.cif.g08.bks.cpg/sg52_4_cif.got.tgz:7715.got - 2010.06.03 12:15:38.
