data_PCOD9410898
_publ_section_title
;
Structure prediction by ZEFSAII (Michael W. Deem and Ramdas Pophale) SiO2 
 PCOD9410898
Probable space group: P N N A
;
_chemical_formula_sum "Si O2"
_cell_formula_units_Z 64
_cell_length_a 18.580708
_cell_length_b 14.020991
_cell_length_c 10.253619
_cell_angle_alpha 90.000000
_cell_angle_beta 90.000000
_cell_angle_gamma 90.000000
_cell_volume 2671.272203
_symmetry_space_group_name_H-M "P N N A"
_symmetry_group_IT_number 52
_symmetry_cell_setting 'orthorhombic'
loop_
_space_group_symop_operation_xyz
x,y,z
1/2-x,-y,z
x,1/2-y,1/2-z
1/2-x,1/2+y,1/2-z
-x,-y,-z
1/2+x,y,-z
-x,1/2+y,1/2+z
1/2+x,1/2-y,1/2+z
loop_
_atom_site_type_symbol
_atom_site_label
_atom_site_fract_x
_atom_site_fract_y
_atom_site_fract_z
Si Si1 0.940566 0.691895 0.116677
Si Si2 0.271026 0.108227 0.308353
Si Si3 0.128186 0.697308 0.882067
Si Si4 0.442405 0.525334 0.329693
Si Si5 0.032049 0.845717 0.996096
Si Si6 0.577838 0.568055 0.913823
Si Si7 0.287812 0.707149 0.951425
Si Si8 0.205641 0.413082 0.470151
O O1 0.945790 0.750000 0.250000
O O2 0.859788 0.657499 0.097051
O O3 0.998910 0.609586 0.108706
O O4 0.967512 0.769864 0.011912
O O5 0.354979 0.119962 0.340727
O O6 0.225742 0.177936 0.398868
O O7 0.253012 0.114011 0.157171
O O8 0.250000 0.000000 0.349180
O O9 0.104656 0.750000 0.750000
O O10 0.102470 0.780267 0.982909
O O11 0.213658 0.683233 0.880418
O O12 0.095453 0.597960 0.936931
O O13 0.460424 0.419495 0.384704
O O14 0.509203 0.589983 0.373248
O O15 0.425164 0.527222 0.175255
O O16 0.371308 0.555429 0.411485
O O17 0.300936 0.820276 0.941925
O O18 0.250000 0.500000 0.533379
#
# Coordination Sequence:
#
# PCOD9410898 Si02
#       8
#     8   8   8   8   8   8   8   8
#     4  11  21  38  61  90 124 168 221 274 332 403
#     4  10  21  39  63  92 132 165 218 285 337 403
#     4  10  23  43  60  86 127 180 221 266 325 407
#     4  11  19  38  63  98 126 160 210 286 340 407
#     4  10  22  38  63  90 135 160 213 272 339 403
#     4  10  21  38  67  91 124 171 214 276 345 399
#     4  11  23  39  60  92 126 178 224 272 331 405
#     4  11  20  35  64  99 129 157 213 282 347 396
#
# _framework density 23.958621999999998
#
# number of rings (size 3 to 8) (size 9 to 14) (size 15 to 20)
#    0.000    1.500    5.000    1.500    0.000    1.000 
#    4.500    3.750    0.000    3.750    0.000    0.000 
#    0.000    0.000    0.000    0.000    0.000    0.000 
#
# Total GULP energy -357242.314986 kJ/mol
# GULP energy per Si atom -5581.911172 kJ/mol
# Density = 2.390409 g / cm^3
# Si number density = 23.958622 Si / 1000 Ang^3
#
#
#
# Elastic Constant Matrix: (Units=GPa)
#
#
# Indices 1 2 3 4 5 6 
#
# 1 146.4679 20.4968 2.1309 0.0000 0.0000 0.0000
# 2 20.4968 73.5675 4.9661 0.0000 0.0000 0.0000
# 3 2.1309 4.9661 54.4426 0.0000 0.0000 0.0000
# 4 0.0000 0.0000 0.0000 27.1696 0.0000 0.0000
# 5 0.0000 0.0000 0.0000 0.0000 22.9554 0.0000
# 6 0.0000 0.0000 0.0000 0.0000 0.0000 21.6263
#
#
#
# Elastic Compliance Matrix: (Units=1/GPa)
#
#
# Indices 1 2 3 4 5 6 
#
# 1 0.007105 -0.001973 -0.000098 0.000000 0.000000 0.000000
# 2 -0.001973 0.014225 -0.001220 0.000000 0.000000 0.000000
# 3 -0.000098 -0.001220 0.018483 0.000000 0.000000 0.000000
# 4 0.000000 0.000000 0.000000 0.036806 0.000000 0.000000
# 5 0.000000 0.000000 0.000000 0.000000 0.043563 0.000000
# 6 0.000000 0.000000 0.000000 0.000000 0.000000 0.046240
#
#
# Mechanical properties :
#
#
# Convention : Reuss Voigt Hill
#
# Bulk Modulus (GPa) = 30.09298 36.62951 33.36125
# Shear Modulus (GPa) = 27.16194 30.80922 28.98558
#
# Velocity S-wave (km/s) = 3.37070 3.58988 3.48202
# Velocity P-wave (km/s) = 5.26655 5.70130 5.48823
#
# Compressibility (1/GPa) = 0.03323034
#
# Stress axis : x y z
#
# Youngs Moduli (GPa) = 140.74694 70.29866 54.10341
#
# Poissons Ratio (x) = 0.13869 0.00531
# Poissons Ratio (y) = 0.27768 0.06603
# Poissons Ratio (z) = 0.01381 0.08579
#
# Static dielectric constant tensor:
#      x y z
#    x 1.911940 0.000000 0.000000 
#    y 0.000000 1.958560 0.000000 
#    z 0.000000 0.000000 1.965550 
# 
# From -- ./inp_files/20880.got.cif
#   From: 2010.05.17/outbox.cif.g08.bks.cpg/sg52_11_cif.got.tgz:20880.got - 2010.06.03 12:15:38.
