data_PCOD9410407
_publ_section_title
;
Structure prediction by ZEFSAII (Michael W. Deem and Ramdas Pophale) SiO2 
 PCOD9410407
Probable space group: P N N A
;
_chemical_formula_sum "Si O2"
_cell_formula_units_Z 40
_cell_length_a 5.494499
_cell_length_b 13.722393
_cell_length_c 26.631242
_cell_angle_alpha 90.000000
_cell_angle_beta 90.000000
_cell_angle_gamma 90.000000
_cell_volume 2007.933719
_symmetry_space_group_name_H-M "P N N A"
_symmetry_group_IT_number 52
_symmetry_cell_setting 'orthorhombic'
loop_
_space_group_symop_operation_xyz
x,y,z
1/2-x,-y,z
x,1/2-y,1/2-z
1/2-x,1/2+y,1/2-z
-x,-y,-z
1/2+x,y,-z
-x,1/2+y,1/2+z
1/2+x,1/2-y,1/2+z
loop_
_atom_site_type_symbol
_atom_site_label
_atom_site_fract_x
_atom_site_fract_y
_atom_site_fract_z
Si Si1 0.484451 0.750000 0.250000
Si Si2 0.615420 0.903870 0.724083
Si Si3 0.589696 0.786702 0.621535
Si Si4 0.022310 0.888088 0.480005
Si Si5 0.750000 0.000000 0.197622
Si Si6 0.603200 0.690903 0.354506
O O1 0.310340 0.842190 0.244975
O O2 0.623128 0.751494 0.301916
O O3 0.566840 0.840751 0.674942
O O4 0.410593 0.935665 0.763562
O O5 0.750000 0.000000 0.705598
O O6 0.579740 0.868508 0.578105
O O7 0.351013 0.718383 0.616348
O O8 0.847430 0.728037 0.621889
O O9 0.256757 0.844802 0.508312
O O10 0.000000 0.000000 0.500000
O O11 0.887333 0.077677 0.162074
#
# Coordination Sequence:
#
# PCOD9410407 Si02
#       6
#     4   8   8   8   4   8
#     4  10  20  42  50  84 126 174 212 264 296 338
#     4  11  23  35  58  84 128 170 218 250 294 363
#     4  11  25  40  60  92 124 164 202 258 316 365
#     4  10  22  41  65  90 122 155 197 250 313 390
#     4  12  22  38  60  90 120 182 218 260 298 346
#     4  11  23  39  60  84 127 162 217 258 298 362
#
# _framework density 19.920977000000001
#
# number of rings (size 3 to 8) (size 9 to 14) (size 15 to 20)
#    0.000    1.200    2.000    4.800    5.600    2.400 
#    0.000    0.000    0.000    0.000    0.000   14.000 
#    0.000    0.000    0.000    0.000    0.000    0.000 
#
# Total GULP energy -222904.359815 kJ/mol
# GULP energy per Si atom -5572.608995 kJ/mol
# Density = 1.987564 g / cm^3
# Si number density = 19.920977 Si / 1000 Ang^3
#
#
#
# Elastic Constant Matrix: (Units=GPa)
#
#
# Indices 1 2 3 4 5 6 
#
# 1 159.9675 52.5497 42.0785 0.0000 0.0000 0.0000
# 2 52.5497 86.6388 22.9445 0.0000 0.0000 0.0000
# 3 42.0785 22.9445 77.3582 0.0000 0.0000 0.0000
# 4 0.0000 0.0000 0.0000 29.7361 0.0000 0.0000
# 5 0.0000 0.0000 0.0000 0.0000 24.2400 0.0000
# 6 0.0000 0.0000 0.0000 0.0000 0.0000 30.5471
#
#
#
# Elastic Compliance Matrix: (Units=1/GPa)
#
#
# Indices 1 2 3 4 5 6 
#
# 1 0.008549 -0.004291 -0.003378 0.000000 0.000000 0.000000
# 2 -0.004291 0.014680 -0.002020 0.000000 0.000000 0.000000
# 3 -0.003378 -0.002020 0.015363 0.000000 0.000000 0.000000
# 4 0.000000 0.000000 0.000000 0.033629 0.000000 0.000000
# 5 0.000000 0.000000 0.000000 0.000000 0.041254 0.000000
# 6 0.000000 0.000000 0.000000 0.000000 0.000000 0.032736
#
#
# Mechanical properties :
#
#
# Convention : Reuss Voigt Hill
#
# Bulk Modulus (GPa) = 52.04229 62.12332 57.08280
# Shear Modulus (GPa) = 29.07074 30.66410 29.86742
#
# Velocity S-wave (km/s) = 3.82423 3.92763 3.87627
# Velocity P-wave (km/s) = 6.75875 7.19868 6.98218
#
# Compressibility (1/GPa) = 0.01921514
#
# Stress axis : x y z
#
# Youngs Moduli (GPa) = 116.96806 68.12090 65.09037
#
# Poissons Ratio (x) = 0.29231 0.21985
# Poissons Ratio (y) = 0.50191 0.13148
# Poissons Ratio (z) = 0.39508 0.13760
#
# Static dielectric constant tensor:
#      x y z
#    x 1.798840 0.000000 0.000000 
#    y 0.000000 1.682110 0.000000 
#    z 0.000000 0.000000 1.708190 
# 
# From -- ./inp_files/41531.got.cif
#   From: 2010.05.17/outbox.cif.g08.bks.cpg/sg52_21_cif.got.tgz:41531.got - 2010.06.03 12:15:38.
