data_PCOD9410330
_publ_section_title
;
Structure prediction by ZEFSAII (Michael W. Deem and Ramdas Pophale) SiO2 
 PCOD9410330
Probable space group: P N N A
;
_chemical_formula_sum "Si O2"
_cell_formula_units_Z 32
_cell_length_a 11.861611
_cell_length_b 9.163047
_cell_length_c 11.887777
_cell_angle_alpha 90.000000
_cell_angle_beta 90.000000
_cell_angle_gamma 90.000000
_cell_volume 1292.064640
_symmetry_space_group_name_H-M "P N N A"
_symmetry_group_IT_number 52
_symmetry_cell_setting 'orthorhombic'
loop_
_space_group_symop_operation_xyz
x,y,z
1/2-x,-y,z
x,1/2-y,1/2-z
1/2-x,1/2+y,1/2-z
-x,-y,-z
1/2+x,y,-z
-x,1/2+y,1/2+z
1/2+x,1/2-y,1/2+z
loop_
_atom_site_type_symbol
_atom_site_label
_atom_site_fract_x
_atom_site_fract_y
_atom_site_fract_z
Si Si1 0.750000 0.500000 0.398871
Si Si2 0.980641 0.471830 0.812107
Si Si3 0.031507 0.168255 0.922837
Si Si4 0.750000 0.000000 0.551066
Si Si5 0.362958 0.227928 0.609588
O O1 0.853102 0.586584 0.457736
O O2 0.702273 0.638345 0.330627
O O3 0.039106 0.334909 0.876362
O O4 0.979843 0.421428 0.682821
O O5 0.053824 0.614788 0.832070
O O6 0.859716 0.503757 0.868569
O O7 0.945193 0.186072 0.023733
O O8 0.777867 0.134409 0.468169
#
# Coordination Sequence:
#
# PCOD9410330 Si02
#       5
#     4   8   8   4   8
#     4  12  24  38  60  90 132 178 214 278 340 388
#     4  10  22  41  65  95 127 169 227 277 331 409
#     4  10  23  40  62  95 127 166 229 278 326 407
#     4  10  20  40  68  88 122 178 216 276 348 392
#     4  11  22  41  64  94 131 174 221 274 339 406
#
# _framework density 24.766563000000001
#
# number of rings (size 3 to 8) (size 9 to 14) (size 15 to 20)
#    0.000    1.500    0.000    6.750    0.000    7.000 
#    0.000    7.500    0.000    0.000    0.000    0.000 
#    0.000    0.000    0.000    0.000    0.000    0.000 
#
# Total GULP energy -178707.288895 kJ/mol
# GULP energy per Si atom -5584.602778 kJ/mol
# Density = 2.471019 g / cm^3
# Si number density = 24.766563 Si / 1000 Ang^3
#
#
#
# Elastic Constant Matrix: (Units=GPa)
#
#
# Indices 1 2 3 4 5 6 
#
# 1 169.2436 98.1197 44.4245 0.0000 0.0000 0.0000
# 2 98.1197 229.0446 35.1688 0.0000 0.0000 0.0000
# 3 44.4245 35.1688 55.3107 0.0000 0.0000 0.0000
# 4 0.0000 0.0000 0.0000 74.7696 0.0000 0.0000
# 5 0.0000 0.0000 0.0000 0.0000 -97.1490 0.0000
# 6 0.0000 0.0000 0.0000 0.0000 0.0000 69.1986
#
#
#
# Elastic Compliance Matrix: (Units=1/GPa)
#
#
# Indices 1 2 3 4 5 6 
#
# 1 0.009096 -0.003075 -0.005350 0.000000 0.000000 0.000000
# 2 -0.003075 0.005878 -0.001268 0.000000 0.000000 0.000000
# 3 -0.005350 -0.001268 0.023183 0.000000 0.000000 0.000000
# 4 0.000000 0.000000 0.000000 0.013374 0.000000 0.000000
# 5 0.000000 0.000000 0.000000 0.000000 -0.010293 0.000000
# 6 0.000000 0.000000 0.000000 0.000000 0.000000 0.014451
#
#
# Mechanical properties :
#
#
# Convention : Reuss Voigt Hill
#
# Bulk Modulus (GPa) = 53.27446 89.89167 71.58306
# Shear Modulus (GPa) = 61.47665 27.75624 44.61644
#
# Velocity S-wave (km/s) = 4.98762 3.35134 4.24899
# Velocity P-wave (km/s) = 7.39769 7.16587 7.28270
#
# Compressibility (1/GPa) = 0.01877072
#
# Stress axis : x y z
#
# Youngs Moduli (GPa) = 109.94089 170.12912 43.13503
#
# Poissons Ratio (x) = 0.52315 0.23079
# Poissons Ratio (y) = 0.33807 0.05468
# Poissons Ratio (z) = 0.58822 0.21566
#
# Static dielectric constant tensor:
#      x y z
#    x 1.966480 0.000000 0.000000 
#    y 0.000000 1.989200 0.000000 
#    z 0.000000 0.000000 2.049920 
# 
# From -- ./inp_files/25539.got.cif
#   From: 2010.05.17/outbox.cif.g08.bks.cpg/sg52_13_cif.got.tgz:25539.got - 2010.06.03 12:15:38.
