data_PCOD9410581
_publ_section_title
;
Structure prediction by ZEFSAII (Michael W. Deem and Ramdas Pophale) SiO2 
 PCOD9410581
Probable space group: P N N A
;
_chemical_formula_sum "Si O2"
_cell_formula_units_Z 56
_cell_length_a 26.689098
_cell_length_b 15.903809
_cell_length_c 6.250234
_cell_angle_alpha 90.000000
_cell_angle_beta 90.000000
_cell_angle_gamma 90.000000
_cell_volume 2652.963804
_symmetry_space_group_name_H-M "P N N A"
_symmetry_group_IT_number 52
_symmetry_cell_setting 'orthorhombic'
loop_
_space_group_symop_operation_xyz
x,y,z
1/2-x,-y,z
x,1/2-y,1/2-z
1/2-x,1/2+y,1/2-z
-x,-y,-z
1/2+x,y,-z
-x,1/2+y,1/2+z
1/2+x,1/2-y,1/2+z
loop_
_atom_site_type_symbol
_atom_site_label
_atom_site_fract_x
_atom_site_fract_y
_atom_site_fract_z
Si Si1 0.874182 0.344503 0.173558
Si Si2 0.059331 0.503691 0.975730
Si Si3 0.209599 0.658940 0.149168
Si Si4 0.595535 0.337677 0.268451
Si Si5 0.624020 0.059918 0.850509
Si Si6 0.315643 0.676234 0.065177
Si Si7 0.297431 0.051783 0.940498
O O1 0.888736 0.250000 0.250000
O O2 0.918179 0.414022 0.146477
O O3 0.827113 0.374093 0.320443
O O4 0.845202 0.349140 0.948130
O O5 0.073209 0.419253 0.845826
O O6 0.084925 0.492968 0.210750
O O7 0.000000 0.500000 0.000000
O O8 0.210320 0.750000 0.250000
O O9 0.258387 0.661692 0.996768
O O10 0.218902 0.590266 0.332150
O O11 0.565864 0.250000 0.250000
O O12 0.601079 0.362828 0.516378
O O13 0.646459 0.318264 0.132889
O O14 0.664582 0.094183 0.685037
O O15 0.656572 0.011397 0.024170
O O16 0.317949 0.750000 0.250000
O O17 0.250000 0.000000 0.848312
#
# Coordination Sequence:
#
# PCOD9410581 Si02
#       7
#     8   8   8   8   8   8   8
#     4  12  26  45  68  99 135 184 240 291 345 429
#     4  11  27  49  70  98 132 177 237 303 361 417
#     4  11  23  39  61  94 137 182 222 269 332 411
#     4  11  23  42  68 100 135 174 225 286 355 414
#     4  11  22  41  65  94 139 177 220 281 347 413
#     4  10  21  35  60  96 139 178 217 268 329 415
#     4  12  24  39  65  99 138 186 222 270 342 418
#
# _framework density 21.108467000000001
#
# number of rings (size 3 to 8) (size 9 to 14) (size 15 to 20)
#    0.000    0.857    7.143    0.000    2.000    1.714 
#    2.571    0.714    0.000    0.000    0.000    0.000 
#    0.000    0.000    0.000    0.000    0.000    0.000 
#
# Total GULP energy -312002.897859 kJ/mol
# GULP energy per Si atom -5571.480319 kJ/mol
# Density = 2.106042 g / cm^3
# Si number density = 21.108467 Si / 1000 Ang^3
#
#
#
# Elastic Constant Matrix: (Units=GPa)
#
#
# Indices 1 2 3 4 5 6 
#
# 1 139.2670 59.6523 24.5013 0.0000 0.0000 0.0000
# 2 59.6523 139.7984 27.2609 0.0000 0.0000 0.0000
# 3 24.5013 27.2609 46.0458 0.0000 0.0000 0.0000
# 4 0.0000 0.0000 0.0000 38.6218 0.0000 0.0000
# 5 0.0000 0.0000 0.0000 0.0000 11.4066 0.0000
# 6 0.0000 0.0000 0.0000 0.0000 0.0000 12.9809
#
#
#
# Elastic Compliance Matrix: (Units=1/GPa)
#
#
# Indices 1 2 3 4 5 6 
#
# 1 0.009112 -0.003327 -0.002879 0.000000 0.000000 0.000000
# 2 -0.003327 0.009301 -0.003737 0.000000 0.000000 0.000000
# 3 -0.002879 -0.003737 0.025462 0.000000 0.000000 0.000000
# 4 0.000000 0.000000 0.000000 0.025892 0.000000 0.000000
# 5 0.000000 0.000000 0.000000 0.000000 0.087669 0.000000
# 6 0.000000 0.000000 0.000000 0.000000 0.000000 0.077036
#
#
# Mechanical properties :
#
#
# Convention : Reuss Voigt Hill
#
# Bulk Modulus (GPa) = 41.68345 60.88225 51.28285
# Shear Modulus (GPa) = 19.05829 26.84831 22.95330
#
# Velocity S-wave (km/s) = 3.00805 3.57027 3.30115
# Velocity P-wave (km/s) = 5.64399 6.77502 6.23520
#
# Compressibility (1/GPa) = 0.02399034
#
# Stress axis : x y z
#
# Youngs Moduli (GPa) = 109.74717 107.51193 39.27481
#
# Poissons Ratio (x) = 0.35765 0.11307
# Poissons Ratio (y) = 0.36509 0.14675
# Poissons Ratio (z) = 0.31596 0.40173
#
# Static dielectric constant tensor:
#      x y z
#    x 1.740450 0.000000 0.000000 
#    y 0.000000 1.853340 0.000000 
#    z 0.000000 0.000000 1.812390 
# 
# From -- ./inp_files/6406.got.cif
#   From: 2010.05.17/outbox.cif.g08.bks.cpg/sg52_4_cif.got.tgz:6406.got - 2010.06.03 12:15:38.
