data_PCOD9410688
_publ_section_title
;
Structure prediction by ZEFSAII (Michael W. Deem and Ramdas Pophale) SiO2 
 PCOD9410688
Probable space group: P N N A
;
_chemical_formula_sum "Si O2"
_cell_formula_units_Z 48
_cell_length_a 8.031744
_cell_length_b 8.214542
_cell_length_c 33.157785
_cell_angle_alpha 90.000000
_cell_angle_beta 90.000000
_cell_angle_gamma 90.000000
_cell_volume 2187.654444
_symmetry_space_group_name_H-M "P N N A"
_symmetry_group_IT_number 52
_symmetry_cell_setting 'orthorhombic'
loop_
_space_group_symop_operation_xyz
x,y,z
1/2-x,-y,z
x,1/2-y,1/2-z
1/2-x,1/2+y,1/2-z
-x,-y,-z
1/2+x,y,-z
-x,1/2+y,1/2+z
1/2+x,1/2-y,1/2+z
loop_
_atom_site_type_symbol
_atom_site_label
_atom_site_fract_x
_atom_site_fract_y
_atom_site_fract_z
Si Si1 0.617139 0.269146 0.368271
Si Si2 0.814846 0.182774 0.055956
Si Si3 0.511927 0.309740 0.008977
Si Si4 0.194612 0.682171 0.085850
Si Si5 0.910848 0.595903 0.644710
Si Si6 0.682545 0.815342 0.205262
O O1 0.773648 0.259828 0.398825
O O2 0.464704 0.164429 0.384277
O O3 0.537729 0.453040 0.370345
O O4 0.681416 0.230467 0.323844
O O5 0.691325 0.286445 0.028251
O O6 0.750000 0.000000 0.052729
O O7 0.986032 0.211618 0.032573
O O8 0.386605 0.249815 0.044561
O O9 0.500000 0.500000 0.000000
O O10 0.250000 0.500000 0.076674
O O11 0.330231 0.791744 0.109626
O O12 0.750000 0.500000 0.661577
O O13 0.011165 0.686087 0.679863
O O14 0.667044 0.750000 0.250000
O O15 0.750000 0.000000 0.207598
#
# Coordination Sequence:
#
# PCOD9410688 Si02
#       6
#     8   8   8   8   8   8
#     4   9  21  39  60  84 113 149 190 242 292 338
#     4  11  22  37  59  83 108 149 202 241 277 341
#     4  11  24  39  54  81 122 158 189 242 304 344
#     4  10  21  37  58  83 114 155 197 235 285 350
#     4   9  19  39  60  81 113 150 186 233 288 338
#     4  10  21  39  62  88 116 147 184 235 294 351
#
# _framework density 21.941309
#
# number of rings (size 3 to 8) (size 9 to 14) (size 15 to 20)
#    0.000    2.000    0.000    3.500    0.000   10.000 
#    0.000   11.667    0.000    0.000    0.000    0.000 
#    0.000    0.000    0.000    0.000    0.000    0.000 
#
# Total GULP energy -268064.549246 kJ/mol
# GULP energy per Si atom -5584.678109 kJ/mol
# Density = 2.189137 g / cm^3
# Si number density = 21.941309 Si / 1000 Ang^3
#
#
#
# Elastic Constant Matrix: (Units=GPa)
#
#
# Indices 1 2 3 4 5 6 
#
# 1 92.4940 -6.6678 59.9913 0.0000 0.0000 0.0000
# 2 -6.6678 19.7584 4.6221 0.0000 0.0000 0.0000
# 3 59.9913 4.6221 165.3826 0.0000 0.0000 0.0000
# 4 0.0000 0.0000 0.0000 30.0979 0.0000 0.0000
# 5 0.0000 0.0000 0.0000 0.0000 34.6874 0.0000
# 6 0.0000 0.0000 0.0000 0.0000 0.0000 34.2858
#
#
#
# Elastic Compliance Matrix: (Units=1/GPa)
#
#
# Indices 1 2 3 4 5 6 
#
# 1 0.014884 0.006327 -0.005576 0.000000 0.000000 0.000000
# 2 0.006327 0.053634 -0.003794 0.000000 0.000000 0.000000
# 3 -0.005576 -0.003794 0.008175 0.000000 0.000000 0.000000
# 4 0.000000 0.000000 0.000000 0.033225 0.000000 0.000000
# 5 0.000000 0.000000 0.000000 0.000000 0.028829 0.000000
# 6 0.000000 0.000000 0.000000 0.000000 0.000000 0.029167
#
#
# Mechanical properties :
#
#
# Convention : Reuss Voigt Hill
#
# Bulk Modulus (GPa) = 14.16267 43.72512 28.94390
# Shear Modulus (GPa) = 25.31187 34.46018 29.88603
#
# Velocity S-wave (km/s) = 3.40018 3.96733 3.69465
# Velocity P-wave (km/s) = 4.67801 6.39983 5.60542
#
# Compressibility (1/GPa) = 0.07060816
#
# Stress axis : x y z
#
# Youngs Moduli (GPa) = 67.18537 18.64479 122.32019
#
# Poissons Ratio (x) = -0.11797 0.68205
# Poissons Ratio (y) = -0.42510 0.46410
# Poissons Ratio (z) = 0.37462 0.07074
#
# Static dielectric constant tensor:
#      x y z
#    x 1.901640 0.000000 0.000000 
#    y 0.000000 1.830310 0.000000 
#    z 0.000000 0.000000 1.796550 
# 
# From -- ./inp_files/44369.got.cif
#   From: 2010.05.17/outbox.cif.g08.bks.cpg/sg52_23_cif.got.tgz:44369.got - 2010.06.03 12:15:38.
