data_PCOD9410064
_publ_section_title
;
Structure prediction by ZEFSAII (Michael W. Deem and Ramdas Pophale) SiO2 
 PCOD9410064
Probable space group: P N N A
;
_chemical_formula_sum "Si O2"
_cell_formula_units_Z 60
_cell_length_a 22.395351
_cell_length_b 15.341003
_cell_length_c 9.320414
_cell_angle_alpha 90.000000
_cell_angle_beta 90.000000
_cell_angle_gamma 90.000000
_cell_volume 3202.188046
_symmetry_space_group_name_H-M "P N N A"
_symmetry_group_IT_number 52
_symmetry_cell_setting 'orthorhombic'
loop_
_space_group_symop_operation_xyz
x,y,z
1/2-x,-y,z
x,1/2-y,1/2-z
1/2-x,1/2+y,1/2-z
-x,-y,-z
1/2+x,y,-z
-x,1/2+y,1/2+z
1/2+x,1/2-y,1/2+z
loop_
_atom_site_type_symbol
_atom_site_label
_atom_site_fract_x
_atom_site_fract_y
_atom_site_fract_z
Si Si1 0.822988 0.750000 0.750000
Si Si2 0.381090 0.107623 0.412213
Si Si3 0.065687 0.569526 0.394093
Si Si4 0.925832 0.569429 0.375677
Si Si5 0.945952 0.240583 0.085401
Si Si6 0.418396 0.748453 0.006105
Si Si7 0.755849 0.596557 0.899390
Si Si8 0.630235 0.435611 0.084497
O O1 0.866187 0.769191 0.882396
O O2 0.784297 0.666847 0.794077
O O3 0.396977 0.097308 0.244802
O O4 0.418146 0.183945 0.486733
O O5 0.310864 0.125282 0.437161
O O6 0.392956 0.014190 0.485671
O O7 0.086320 0.482513 0.476738
O O8 0.066939 0.647361 0.511288
O O9 0.996558 0.554532 0.346254
O O10 0.918630 0.672752 0.394277
O O11 0.882946 0.539147 0.248046
O O12 0.925374 0.250000 0.250000
O O13 0.017333 0.250990 0.080297
O O14 0.405586 0.653197 0.944344
O O15 0.750000 0.500000 0.832992
O O16 0.801753 0.583502 0.032997
#
# Coordination Sequence:
#
# PCOD9410064 Si02
#       8
#     4   8   8   8   8   8   8   8
#     4  10  20  38  62  90 110 158 200 258 302 348
#     4  11  23  39  61  83 124 164 205 252 302 370
#     4  10  23  36  59  93 124 156 203 251 307 376
#     4  10  21  38  59  91 125 154 196 256 311 371
#     4  11  22  38  59  89 126 160 195 250 314 368
#     4  10  21  35  62  89 122 149 200 249 303 371
#     4   9  22  39  61  83 117 158 213 252 293 361
#     4  10  21  39  61  84 118 161 203 249 311 350
#
# _framework density 18.737189999999998
#
# number of rings (size 3 to 8) (size 9 to 14) (size 15 to 20)
#    0.000    1.867    0.667    2.400    7.467    5.333 
#    0.000    2.667    8.800    0.000    0.000    0.000 
#    0.000    0.000    0.000    0.000    0.000    0.000 
#
# Total GULP energy -334813.832489 kJ/mol
# GULP energy per Si atom -5580.230541 kJ/mol
# Density = 1.869454 g / cm^3
# Si number density = 18.737190 Si / 1000 Ang^3
#
#
#
# Elastic Constant Matrix: (Units=GPa)
#
#
# Indices 1 2 3 4 5 6 
#
# 1 46.2294 43.1215 25.0551 0.0000 0.0000 0.0000
# 2 43.1215 97.0108 19.3722 0.0000 0.0000 0.0000
# 3 25.0551 19.3722 74.8696 0.0000 0.0000 0.0000
# 4 0.0000 0.0000 0.0000 21.9284 0.0000 0.0000
# 5 0.0000 0.0000 0.0000 0.0000 16.2543 0.0000
# 6 0.0000 0.0000 0.0000 0.0000 0.0000 27.4588
#
#
#
# Elastic Compliance Matrix: (Units=1/GPa)
#
#
# Indices 1 2 3 4 5 6 
#
# 1 0.043005 -0.017127 -0.009960 0.000000 0.000000 0.000000
# 2 -0.017127 0.017691 0.001154 0.000000 0.000000 0.000000
# 3 -0.009960 0.001154 0.016391 0.000000 0.000000 0.000000
# 4 0.000000 0.000000 0.000000 0.045603 0.000000 0.000000
# 5 0.000000 0.000000 0.000000 0.000000 0.061522 0.000000
# 6 0.000000 0.000000 0.000000 0.000000 0.000000 0.036418
#
#
# Mechanical properties :
#
#
# Convention : Reuss Voigt Hill
#
# Bulk Modulus (GPa) = 39.64961 43.68974 41.66968
# Shear Modulus (GPa) = 17.79981 21.83237 19.81609
#
# Velocity S-wave (km/s) = 3.08551 3.41719 3.25557
# Velocity P-wave (km/s) = 5.82243 6.23998 6.03481
#
# Compressibility (1/GPa) = 0.02522093
#
# Stress axis : x y z
#
# Youngs Moduli (GPa) = 23.25329 56.52740 61.00886
#
# Poissons Ratio (x) = 0.96813 0.60765
# Poissons Ratio (y) = 0.39825 -0.07041
# Poissons Ratio (z) = 0.23160 -0.06524
#
# Static dielectric constant tensor:
#      x y z
#    x 1.643870 0.000000 0.000000 
#    y 0.000000 1.652090 0.000000 
#    z 0.000000 0.000000 1.660780 
# 
# From -- ./inp_files/14436.got.cif
#   From: 2010.05.17/outbox.cif.g08.bks.cpg/sg52_8_cif.got.tgz:14436.got - 2010.06.03 12:15:38.
