data_PCOD9410209
_publ_section_title
;
Structure prediction by ZEFSAII (Michael W. Deem and Ramdas Pophale) SiO2 
 PCOD9410209
Probable space group: P N N A
;
_chemical_formula_sum "Si O2"
_cell_formula_units_Z 48
_cell_length_a 15.742860
_cell_length_b 7.525925
_cell_length_c 18.528960
_cell_angle_alpha 90.000000
_cell_angle_beta 90.000000
_cell_angle_gamma 90.000000
_cell_volume 2195.303466
_symmetry_space_group_name_H-M "P N N A"
_symmetry_group_IT_number 52
_symmetry_cell_setting 'orthorhombic'
loop_
_space_group_symop_operation_xyz
x,y,z
1/2-x,-y,z
x,1/2-y,1/2-z
1/2-x,1/2+y,1/2-z
-x,-y,-z
1/2+x,y,-z
-x,1/2+y,1/2+z
1/2+x,1/2-y,1/2+z
loop_
_atom_site_type_symbol
_atom_site_label
_atom_site_fract_x
_atom_site_fract_y
_atom_site_fract_z
Si Si1 0.528868 0.836339 0.070014
Si Si2 0.826473 0.771895 0.348712
Si Si3 0.367538 0.841054 0.003242
Si Si4 0.250000 0.000000 0.123831
Si Si5 0.083525 0.059800 0.209574
Si Si6 0.024699 0.250000 0.750000
Si Si7 0.646454 0.678624 0.179123
O O1 0.474194 0.917901 0.137061
O O2 0.594119 0.708068 0.107725
O O3 0.587218 0.972961 0.023512
O O4 0.453523 0.741231 0.026594
O O5 0.827715 0.748918 0.433751
O O6 0.733751 0.709598 0.324491
O O7 0.910749 0.692199 0.313775
O O8 0.834785 0.972239 0.320508
O O9 0.297494 0.867817 0.065926
O O10 0.170544 0.971369 0.178429
O O11 0.098227 0.250000 0.250000
O O12 0.035188 0.920374 0.261723
O O13 0.600036 0.750000 0.250000
#
# Coordination Sequence:
#
# PCOD9410209 Si02
#       7
#     8   8   8   4   8   4   8
#     4  10  20  39  64  90 125 169 215 271 339 406
#     4  11  23  38  61  96 129 171 224 268 339 406
#     4  10  21  39  65  89 123 174 223 267 337 416
#     4  10  24  44  68  96 138 180 226 286 344 418
#     4  11  24  43  71 100 133 176 233 289 351 414
#     4  12  22  42  68 100 134 176 220 290 346 406
#     4  11  23  37  60  92 133 168 207 280 334 406
#
# _framework density 21.86486
#
# number of rings (size 3 to 8) (size 9 to 14) (size 15 to 20)
#    0.000    1.333    2.500    3.500    1.167    0.667 
#    0.000    0.000   11.000    0.000    0.000    0.000 
#    0.000    0.000    0.000    0.000    0.000    0.000 
#
# Total GULP energy -267251.528336 kJ/mol
# GULP energy per Si atom -5567.740174 kJ/mol
# Density = 2.181509 g / cm^3
# Si number density = 21.864860 Si / 1000 Ang^3
#
#
#
# Elastic Constant Matrix: (Units=GPa)
#
#
# Indices 1 2 3 4 5 6 
#
# 1 116.0046 23.9602 38.8304 0.0000 0.0000 0.0000
# 2 23.9602 40.2136 -2.5005 0.0000 0.0000 0.0000
# 3 38.8304 -2.5005 79.6527 0.0000 0.0000 0.0000
# 4 0.0000 0.0000 0.0000 28.2257 0.0000 0.0000
# 5 0.0000 0.0000 0.0000 0.0000 9.7850 0.0000
# 6 0.0000 0.0000 0.0000 0.0000 0.0000 19.1645
#
#
#
# Elastic Compliance Matrix: (Units=1/GPa)
#
#
# Indices 1 2 3 4 5 6 
#
# 1 0.012303 -0.007719 -0.006240 0.000000 0.000000 0.000000
# 2 -0.007719 0.029758 0.004697 0.000000 0.000000 0.000000
# 3 -0.006240 0.004697 0.015744 0.000000 0.000000 0.000000
# 4 0.000000 0.000000 0.000000 0.035429 0.000000 0.000000
# 5 0.000000 0.000000 0.000000 0.000000 0.102197 0.000000
# 6 0.000000 0.000000 0.000000 0.000000 0.000000 0.052180
#
#
# Mechanical properties :
#
#
# Convention : Reuss Voigt Hill
#
# Bulk Modulus (GPa) = 25.45699 39.60570 32.53134
# Shear Modulus (GPa) = 17.90647 23.14044 20.52345
#
# Velocity S-wave (km/s) = 2.86485 3.25674 3.06706
# Velocity P-wave (km/s) = 4.75514 5.68287 5.23958
#
# Compressibility (1/GPa) = 0.03928195
#
# Stress axis : x y z
#
# Youngs Moduli (GPa) = 81.27855 33.60415 63.51631
#
# Poissons Ratio (x) = 0.25938 0.39635
# Poissons Ratio (y) = 0.62736 -0.29833
# Poissons Ratio (z) = 0.50719 -0.15784
#
# Static dielectric constant tensor:
#      x y z
#    x 1.896270 0.000000 0.000000 
#    y 0.000000 1.842110 0.000000 
#    z 0.000000 0.000000 1.858890 
# 
# From -- ./inp_files/33092.got.cif
#   From: 2010.05.17/outbox.cif.g08.bks.cpg/sg52_17_cif.got.tgz:33092.got - 2010.06.03 12:15:38.
