data_PCOD9410895
_publ_section_title
;
Structure prediction by ZEFSAII (Michael W. Deem and Ramdas Pophale) SiO2 
 PCOD9410895
Probable space group: P N N A
;
_chemical_formula_sum "Si O2"
_cell_formula_units_Z 32
_cell_length_a 16.810386
_cell_length_b 15.931901
_cell_length_c 4.938558
_cell_angle_alpha 90.000000
_cell_angle_beta 90.000000
_cell_angle_gamma 90.000000
_cell_volume 1322.651545
_symmetry_space_group_name_H-M "P N N A"
_symmetry_group_IT_number 52
_symmetry_cell_setting 'orthorhombic'
loop_
_space_group_symop_operation_xyz
x,y,z
1/2-x,-y,z
x,1/2-y,1/2-z
1/2-x,1/2+y,1/2-z
-x,-y,-z
1/2+x,y,-z
-x,1/2+y,1/2+z
1/2+x,1/2-y,1/2+z
loop_
_atom_site_type_symbol
_atom_site_label
_atom_site_fract_x
_atom_site_fract_y
_atom_site_fract_z
Si Si1 0.734513 0.409079 0.923565
Si Si2 0.934386 0.587993 0.214742
Si Si3 0.522631 0.610276 0.286046
Si Si4 0.810167 0.333649 0.408762
O O1 0.750000 0.500000 0.795794
O O2 0.553684 0.120806 0.981935
O O3 0.647721 0.400082 0.055675
O O4 0.789747 0.404402 0.187894
O O5 0.953712 0.488659 0.255241
O O6 0.735159 0.653061 0.689373
O O7 0.999367 0.631412 0.019559
O O8 0.594831 0.659582 0.423468
O O9 0.785497 0.250000 0.250000
#
# Coordination Sequence:
#
# PCOD9410895 Si02
#       4
#     8   8   8   8
#     4  12  24  42  69 103 136 183 237 293 342 418
#     4  10  21  38  66  99 130 165 231 289 333 392
#     4  10  21  39  64  98 132 173 222 287 341 412
#     4  12  26  44  66  99 143 187 227 286 364 424
#
# _framework density 24.193825
#
# number of rings (size 3 to 8) (size 9 to 14) (size 15 to 20)
#    0.000    1.000    2.500    4.500    7.000    0.000 
#    0.000    5.000    0.000    0.000    0.000    0.000 
#    0.000    0.000    0.000    0.000    0.000    0.000 
#
# Total GULP energy -178659.071528 kJ/mol
# GULP energy per Si atom -5583.095985 kJ/mol
# Density = 2.413876 g / cm^3
# Si number density = 24.193825 Si / 1000 Ang^3
#
#
#
# Elastic Constant Matrix: (Units=GPa)
#
#
# Indices 1 2 3 4 5 6 
#
# 1 119.2882 15.5074 63.7412 0.0000 0.0000 0.0000
# 2 15.5074 43.2543 25.3889 0.0000 0.0000 0.0000
# 3 63.7412 25.3889 184.2998 0.0000 0.0000 0.0000
# 4 0.0000 0.0000 0.0000 25.1041 0.0000 0.0000
# 5 0.0000 0.0000 0.0000 0.0000 11.3602 0.0000
# 6 0.0000 0.0000 0.0000 0.0000 0.0000 -0.1870
#
#
#
# Elastic Compliance Matrix: (Units=1/GPa)
#
#
# Indices 1 2 3 4 5 6 
#
# 1 0.010405 -0.001760 -0.003356 0.000000 0.000000 0.000000
# 2 -0.001760 0.025451 -0.002897 0.000000 0.000000 0.000000
# 3 -0.003356 -0.002897 0.006986 0.000000 0.000000 0.000000
# 4 0.000000 0.000000 0.000000 0.039834 0.000000 0.000000
# 5 0.000000 0.000000 0.000000 0.000000 0.088026 0.000000
# 6 0.000000 0.000000 0.000000 0.000000 0.000000 -5.348253
#
#
# Mechanical properties :
#
#
# Convention : Reuss Voigt Hill
#
# Bulk Modulus (GPa) = 37.29375 61.79079 49.54227
# Shear Modulus (GPa) = -0.97039 23.40247 11.21604
#
# Velocity S-wave (km/s) = -0.63400 3.11350 2.15545
# Velocity P-wave (km/s) = 3.86162 6.20649 5.16878
#
# Compressibility (1/GPa) = 0.02681414
#
# Stress axis : x y z
#
# Youngs Moduli (GPa) = 96.10484 39.29150 143.14711
#
# Poissons Ratio (x) = 0.06917 0.48043
# Poissons Ratio (y) = 0.16919 0.41472
# Poissons Ratio (z) = 0.32255 0.11383
#
# Static dielectric constant tensor:
#      x y z
#    x 1.999510 0.000000 0.000000 
#    y 0.000000 2.078040 0.000000 
#    z 0.000000 0.000000 1.862410 
# 
# From -- ./inp_files/2017.got.cif
#   From: 2010.05.17/outbox.cif.g08.bks.cpg/sg52_2_cif.got.tgz:2017.got - 2010.06.03 12:15:38.
