data_PCOD9410577
_publ_section_title
;
Structure prediction by ZEFSAII (Michael W. Deem and Ramdas Pophale) SiO2 
 PCOD9410577
Probable space group: P N N A
;
_chemical_formula_sum "Si O2"
_cell_formula_units_Z 52
_cell_length_a 9.442488
_cell_length_b 13.257742
_cell_length_c 23.122780
_cell_angle_alpha 90.000000
_cell_angle_beta 90.000000
_cell_angle_gamma 90.000000
_cell_volume 2894.649950
_symmetry_space_group_name_H-M "P N N A"
_symmetry_group_IT_number 52
_symmetry_cell_setting 'orthorhombic'
loop_
_space_group_symop_operation_xyz
x,y,z
1/2-x,-y,z
x,1/2-y,1/2-z
1/2-x,1/2+y,1/2-z
-x,-y,-z
1/2+x,y,-z
-x,1/2+y,1/2+z
1/2+x,1/2-y,1/2+z
loop_
_atom_site_type_symbol
_atom_site_label
_atom_site_fract_x
_atom_site_fract_y
_atom_site_fract_z
Si Si1 0.168760 0.707523 0.846767
Si Si2 0.101861 0.129789 0.803150
Si Si3 0.750000 0.000000 0.296654
Si Si4 0.750000 0.000000 0.103813
Si Si5 0.941353 0.750000 0.750000
Si Si6 0.272057 0.622458 0.438138
Si Si7 0.274084 0.118462 0.193535
Si Si8 0.591646 0.821962 0.039654
O O1 0.302708 0.772869 0.821143
O O2 0.183521 0.588284 0.835674
O O3 0.134386 0.737018 0.913056
O O4 0.040856 0.743181 0.805620
O O5 0.936316 0.149198 0.796384
O O6 0.154474 0.067133 0.747222
O O7 0.133269 0.053090 0.855866
O O8 0.829686 0.080886 0.065989
O O9 0.835008 0.841483 0.759314
O O10 0.250000 0.500000 0.441606
O O11 0.264573 0.653318 0.371161
O O12 0.425736 0.654387 0.461414
O O13 0.155173 0.682022 0.475510
O O14 0.250000 0.000000 0.192777
#
# Coordination Sequence:
#
# PCOD9410577 Si02
#       8
#     8   8   4   4   4   8   8   8
#     4  11  23  39  59  85 117 157 199 242 293 353
#     4  10  21  35  59  89 113 152 197 237 286 358
#     4  11  20  38  64  78 114 156 203 236 292 344
#     4   9  18  32  56  78 124 146 189 232 280 358
#     4  12  22  42  56  86 130 154 188 242 300 352
#     4  11  22  35  57  84 120 152 190 234 298 352
#     4  11  24  37  58  89 124 153 188 238 299 349
#     4  11  22  36  53  87 114 157 192 234 297 353
#
# _framework density 17.964175999999998
#
# number of rings (size 3 to 8) (size 9 to 14) (size 15 to 20)
#    0.000    1.231    3.846    3.231    8.615    0.000 
#    0.000    0.000    0.000    0.923    2.000    0.000 
#    0.000    0.000    0.000    0.000    0.000    0.000 
#
# Total GULP energy -290054.883659 kJ/mol
# GULP energy per Si atom -5577.978532 kJ/mol
# Density = 1.792329 g / cm^3
# Si number density = 17.964176 Si / 1000 Ang^3
#
#
#
# Elastic Constant Matrix: (Units=GPa)
#
#
# Indices 1 2 3 4 5 6 
#
# 1 112.3085 9.5559 0.4365 0.0000 0.0000 0.0000
# 2 9.5559 56.4203 2.8904 0.0000 0.0000 0.0000
# 3 0.4365 2.8904 35.7278 0.0000 0.0000 0.0000
# 4 0.0000 0.0000 0.0000 13.8243 0.0000 0.0000
# 5 0.0000 0.0000 0.0000 0.0000 9.1103 0.0000
# 6 0.0000 0.0000 0.0000 0.0000 0.0000 17.8273
#
#
#
# Elastic Compliance Matrix: (Units=1/GPa)
#
#
# Indices 1 2 3 4 5 6 
#
# 1 0.009034 -0.001531 0.000013 0.000000 0.000000 0.000000
# 2 -0.001531 0.018057 -0.001442 0.000000 0.000000 0.000000
# 3 0.000013 -0.001442 0.028106 0.000000 0.000000 0.000000
# 4 0.000000 0.000000 0.000000 0.072337 0.000000 0.000000
# 5 0.000000 0.000000 0.000000 0.000000 0.109766 0.000000
# 6 0.000000 0.000000 0.000000 0.000000 0.000000 0.056094
#
#
# Mechanical properties :
#
#
# Convention : Reuss Voigt Hill
#
# Bulk Modulus (GPa) = 20.29284 25.58024 22.93654
# Shear Modulus (GPa) = 15.83588 20.92397 18.37992
#
# Velocity S-wave (km/s) = 2.97227 3.41656 3.20213
# Velocity P-wave (km/s) = 4.80625 5.46208 5.14463
#
# Compressibility (1/GPa) = 0.04927846
#
# Stress axis : x y z
#
# Youngs Moduli (GPa) = 110.68992 55.37933 35.57972
#
# Poissons Ratio (x) = 0.08478 -0.00048
# Poissons Ratio (y) = 0.16945 0.05131
# Poissons Ratio (z) = -0.00149 0.07986
#
# Static dielectric constant tensor:
#      x y z
#    x 1.638730 0.000000 0.000000 
#    y 0.000000 1.592380 0.000000 
#    z 0.000000 0.000000 1.655160 
# 
# From -- ./inp_files/35993.got.cif
#   From: 2010.05.17/outbox.cif.g08.bks.cpg/sg52_18_cif.got.tgz:35993.got - 2010.06.03 12:15:38.
