data_PCOD9410241
_publ_section_title
;
Structure prediction by ZEFSAII (Michael W. Deem and Ramdas Pophale) SiO2 
 PCOD9410241
Probable space group: P N N A
;
_chemical_formula_sum "Si O2"
_cell_formula_units_Z 48
_cell_length_a 9.115406
_cell_length_b 16.613376
_cell_length_c 15.131772
_cell_angle_alpha 90.000000
_cell_angle_beta 90.000000
_cell_angle_gamma 90.000000
_cell_volume 2291.520253
_symmetry_space_group_name_H-M "P N N A"
_symmetry_group_IT_number 52
_symmetry_cell_setting 'orthorhombic'
loop_
_space_group_symop_operation_xyz
x,y,z
1/2-x,-y,z
x,1/2-y,1/2-z
1/2-x,1/2+y,1/2-z
-x,-y,-z
1/2+x,y,-z
-x,1/2+y,1/2+z
1/2+x,1/2-y,1/2+z
loop_
_atom_site_type_symbol
_atom_site_label
_atom_site_fract_x
_atom_site_fract_y
_atom_site_fract_z
Si Si1 0.913726 0.508890 0.734447
Si Si2 0.049078 0.435262 0.071829
Si Si3 0.050249 0.228003 0.971374
Si Si4 0.804284 0.166201 0.479880
Si Si5 0.932783 0.168406 0.802443
Si Si6 0.578747 0.181977 0.822186
O O1 0.750000 0.500000 0.694364
O O2 0.900906 0.529988 0.836828
O O3 0.978216 0.418720 0.734953
O O4 0.980889 0.590835 0.692752
O O5 0.184910 0.385591 0.032053
O O6 0.000000 0.500000 0.000000
O O7 0.901313 0.383574 0.088031
O O8 0.930665 0.299096 0.956982
O O9 0.995271 0.164090 0.901969
O O10 0.210293 0.259511 0.944998
O O11 0.052519 0.208045 0.075791
O O12 0.982008 0.250000 0.750000
O O13 0.755368 0.175227 0.807199
O O14 0.529722 0.250000 0.750000
#
# Coordination Sequence:
#
# PCOD9410241 Si02
#       6
#     8   8   8   8   8   8
#     4  10  22  38  63  98 123 169 229 266 311 394
#     4  11  22  37  63  94 131 166 205 276 333 390
#     4  11  21  40  65  94 126 174 213 268 319 386
#     4  10  22  35  63  94 126 166 212 252 341 386
#     4  10  23  39  64  93 129 173 221 268 321 391
#     4  10  20  39  67  94 127 169 222 264 319 397
#
# _framework density 20.946793
#
# number of rings (size 3 to 8) (size 9 to 14) (size 15 to 20)
#    0.000    1.667    1.667    3.500    9.333    0.667 
#    0.000    2.500    0.000    0.000    0.000    0.000 
#    0.000    0.000    0.000    0.000    0.000    0.000 
#
# Total GULP energy -267358.290596 kJ/mol
# GULP energy per Si atom -5569.964387 kJ/mol
# Density = 2.089912 g / cm^3
# Si number density = 20.946793 Si / 1000 Ang^3
#
#
#
# Elastic Constant Matrix: (Units=GPa)
#
#
# Indices 1 2 3 4 5 6 
#
# 1 68.5981 22.9127 7.0859 0.0000 0.0000 0.0000
# 2 22.9127 139.1903 42.3774 0.0000 0.0000 0.0000
# 3 7.0859 42.3774 69.9083 0.0000 0.0000 0.0000
# 4 0.0000 0.0000 0.0000 28.4408 0.0000 0.0000
# 5 0.0000 0.0000 0.0000 0.0000 18.4487 0.0000
# 6 0.0000 0.0000 0.0000 0.0000 0.0000 17.6602
#
#
#
# Elastic Compliance Matrix: (Units=1/GPa)
#
#
# Indices 1 2 3 4 5 6 
#
# 1 0.015426 -0.002530 -0.000030 0.000000 0.000000 0.000000
# 2 -0.002530 0.009225 -0.005336 0.000000 0.000000 0.000000
# 3 -0.000030 -0.005336 0.017542 0.000000 0.000000 0.000000
# 4 0.000000 0.000000 0.000000 0.035161 0.000000 0.000000
# 5 0.000000 0.000000 0.000000 0.000000 0.054204 0.000000
# 6 0.000000 0.000000 0.000000 0.000000 0.000000 0.056625
#
#
# Mechanical properties :
#
#
# Convention : Reuss Voigt Hill
#
# Bulk Modulus (GPa) = 37.87656 46.93875 42.40765
# Shear Modulus (GPa) = 23.49896 26.59797 25.04847
#
# Velocity S-wave (km/s) = 3.35302 3.56727 3.46181
# Velocity P-wave (km/s) = 5.75429 6.27889 6.02231
#
# Compressibility (1/GPa) = 0.02640155
#
# Stress axis : x y z
#
# Youngs Moduli (GPa) = 64.82607 108.39556 57.00606
#
# Poissons Ratio (x) = 0.27427 0.00170
# Poissons Ratio (y) = 0.16403 0.30418
# Poissons Ratio (z) = 0.00193 0.57839
#
# Static dielectric constant tensor:
#      x y z
#    x 1.758690 0.000000 0.000000 
#    y 0.000000 1.937970 0.000000 
#    z 0.000000 0.000000 1.748600 
# 
# From -- ./inp_files/31238.got.cif
#   From: 2010.05.17/outbox.cif.g08.bks.cpg/sg52_16_cif.got.tgz:31238.got - 2010.06.03 12:15:38.
