data_PCOD9410462
_publ_section_title
;
Structure prediction by ZEFSAII (Michael W. Deem and Ramdas Pophale) SiO2 
 PCOD9410462
Probable space group: P N N A
;
_chemical_formula_sum "Si O2"
_cell_formula_units_Z 48
_cell_length_a 25.696382
_cell_length_b 16.540050
_cell_length_c 5.360126
_cell_angle_alpha 90.000000
_cell_angle_beta 90.000000
_cell_angle_gamma 90.000000
_cell_volume 2278.157767
_symmetry_space_group_name_H-M "P N N A"
_symmetry_group_IT_number 52
_symmetry_cell_setting 'orthorhombic'
loop_
_space_group_symop_operation_xyz
x,y,z
1/2-x,-y,z
x,1/2-y,1/2-z
1/2-x,1/2+y,1/2-z
-x,-y,-z
1/2+x,y,-z
-x,1/2+y,1/2+z
1/2+x,1/2-y,1/2+z
loop_
_atom_site_type_symbol
_atom_site_label
_atom_site_fract_x
_atom_site_fract_y
_atom_site_fract_z
Si Si1 0.803407 0.971498 0.032565
Si Si2 0.306958 0.833823 0.600908
Si Si3 0.110991 0.076190 0.341654
Si Si4 0.502106 0.553174 0.252659
Si Si5 0.266635 0.250000 0.250000
Si Si6 0.670468 0.750000 0.250000
Si Si7 0.381556 0.083908 0.672563
O O1 0.784957 0.909915 0.247511
O O2 0.750000 0.000000 0.903739
O O3 0.838945 0.043045 0.145662
O O4 0.846333 0.924258 0.873700
O O5 0.306703 0.750000 0.750000
O O6 0.365497 0.860993 0.537931
O O7 0.270978 0.818775 0.360631
O O8 0.053081 0.098774 0.258958
O O9 0.114053 0.984288 0.453828
O O10 0.500000 0.500000 0.500000
O O11 0.558794 0.593269 0.262904
O O12 0.500000 0.500000 0.000000
O O13 0.297923 0.276250 0.499249
O O14 0.638922 0.825798 0.361575
#
# Coordination Sequence:
#
# PCOD9410462 Si02
#       7
#     8   8   8   8   4   4   8
#     4  11  23  39  65 102 132 176 230 280 336 416
#     4  11  24  43  64  99 136 182 226 280 349 413
#     4  10  23  40  71  99 137 181 234 285 339 409
#     4  10  20  42  72  96 131 178 227 282 344 397
#     4  12  26  46  67  92 143 190 218 280 356 418
#     4  12  28  42  71 100 141 188 228 286 352 412
#     4  10  24  43  65 102 135 183 231 285 339 414
#
# _framework density 21.069656999999999
#
# number of rings (size 3 to 8) (size 9 to 14) (size 15 to 20)
#    0.000    1.333    2.500    2.000    4.667    2.667 
#    0.000    2.500    1.833    0.000    0.000    0.000 
#    0.000    0.000    0.000    0.000    0.000    0.000 
#
# Total GULP energy -267467.539451 kJ/mol
# GULP energy per Si atom -5572.240405 kJ/mol
# Density = 2.102170 g / cm^3
# Si number density = 21.069657 Si / 1000 Ang^3
#
#
#
# Elastic Constant Matrix: (Units=GPa)
#
#
# Indices 1 2 3 4 5 6 
#
# 1 171.4384 41.3946 38.9514 0.0000 0.0000 0.0000
# 2 41.3946 94.7326 21.2083 0.0000 0.0000 0.0000
# 3 38.9514 21.2083 88.3873 0.0000 0.0000 0.0000
# 4 0.0000 0.0000 0.0000 19.8330 0.0000 0.0000
# 5 0.0000 0.0000 0.0000 0.0000 25.7032 0.0000
# 6 0.0000 0.0000 0.0000 0.0000 0.0000 24.3393
#
#
#
# Elastic Compliance Matrix: (Units=1/GPa)
#
#
# Indices 1 2 3 4 5 6 
#
# 1 0.007002 -0.002503 -0.002485 0.000000 0.000000 0.000000
# 2 -0.002503 0.012050 -0.001788 0.000000 0.000000 0.000000
# 3 -0.002485 -0.001788 0.012838 0.000000 0.000000 0.000000
# 4 0.000000 0.000000 0.000000 0.050421 0.000000 0.000000
# 5 0.000000 0.000000 0.000000 0.000000 0.038906 0.000000
# 6 0.000000 0.000000 0.000000 0.000000 0.000000 0.041086
#
#
# Mechanical properties :
#
#
# Convention : Reuss Voigt Hill
#
# Bulk Modulus (GPa) = 54.53420 61.96300 58.24860
# Shear Modulus (GPa) = 27.47729 30.84203 29.15966
#
# Velocity S-wave (km/s) = 3.61517 3.83013 3.72420
# Velocity P-wave (km/s) = 6.58521 7.00231 6.79696
#
# Compressibility (1/GPa) = 0.01833712
#
# Stress axis : x y z
#
# Youngs Moduli (GPa) = 142.81541 82.98613 77.89330
#
# Poissons Ratio (x) = 0.20774 0.19357
# Poissons Ratio (y) = 0.35751 0.13929
# Poissons Ratio (z) = 0.35491 0.14840
#
# Static dielectric constant tensor:
#      x y z
#    x 1.838110 0.000000 0.000000 
#    y 0.000000 1.809740 0.000000 
#    z 0.000000 0.000000 1.840200 
# 
# From -- ./inp_files/5824.got.cif
#   From: 2010.05.17/outbox.cif.g08.bks.cpg/sg52_3_cif.got.tgz:5824.got - 2010.06.03 12:15:38.
