data_PCOD9410874
_publ_section_title
;
Structure prediction by ZEFSAII (Michael W. Deem and Ramdas Pophale) SiO2 
 PCOD9410874
Probable space group: P N N A
;
_chemical_formula_sum "Si O2"
_cell_formula_units_Z 32
_cell_length_a 14.592107
_cell_length_b 6.344808
_cell_length_c 16.489546
_cell_angle_alpha 90.000000
_cell_angle_beta 90.000000
_cell_angle_gamma 90.000000
_cell_volume 1526.670060
_symmetry_space_group_name_H-M "P N N A"
_symmetry_group_IT_number 52
_symmetry_cell_setting 'orthorhombic'
loop_
_space_group_symop_operation_xyz
x,y,z
1/2-x,-y,z
x,1/2-y,1/2-z
1/2-x,1/2+y,1/2-z
-x,-y,-z
1/2+x,y,-z
-x,1/2+y,1/2+z
1/2+x,1/2-y,1/2+z
loop_
_atom_site_type_symbol
_atom_site_label
_atom_site_fract_x
_atom_site_fract_y
_atom_site_fract_z
Si Si1 0.482122 0.105155 0.172240
Si Si2 0.352661 0.436867 0.571535
Si Si3 0.841392 0.855579 0.903807
Si Si4 0.595636 0.575753 0.961819
O O1 0.496688 0.250000 0.250000
O O2 0.436411 0.262716 0.107121
O O3 0.574603 0.996699 0.139671
O O4 0.407028 0.918626 0.170259
O O5 0.250000 0.500000 0.594844
O O6 0.380223 0.572595 0.492011
O O7 0.354646 0.200721 0.535098
O O8 0.844248 0.605686 0.918807
O O9 0.750000 0.000000 0.895950
O O10 0.500000 0.500000 0.000000
#
# Coordination Sequence:
#
# PCOD9410874 Si02
#       4
#     8   8   8   8
#     4  11  23  40  59  94 136 167 206 263 329 390
#     4  10  21  38  65  95 125 164 221 268 314 387
#     4  10  21  40  66  95 120 166 225 269 316 388
#     4  11  19  41  69  87 121 171 219 265 317 378
#
# _framework density 20.960650999999999
#
# number of rings (size 3 to 8) (size 9 to 14) (size 15 to 20)
#    0.000    1.500    5.000    1.500    0.000   10.000 
#    4.500    2.500    0.000    0.000    0.000    0.000 
#    0.000    0.000    0.000    0.000    0.000    0.000 
#
# Total GULP energy -178277.254062 kJ/mol
# GULP energy per Si atom -5571.164189 kJ/mol
# Density = 2.091294 g / cm^3
# Si number density = 20.960651 Si / 1000 Ang^3
#
#
#
# Elastic Constant Matrix: (Units=GPa)
#
#
# Indices 1 2 3 4 5 6 
#
# 1 154.3497 86.2003 52.9648 0.0000 0.0000 0.0000
# 2 86.2003 141.2708 34.4286 0.0000 0.0000 0.0000
# 3 52.9648 34.4286 76.0333 0.0000 0.0000 0.0000
# 4 0.0000 0.0000 0.0000 40.0362 0.0000 0.0000
# 5 0.0000 0.0000 0.0000 0.0000 2.7387 0.0000
# 6 0.0000 0.0000 0.0000 0.0000 0.0000 34.9264
#
#
#
# Elastic Compliance Matrix: (Units=1/GPa)
#
#
# Indices 1 2 3 4 5 6 
#
# 1 0.011540 -0.005713 -0.005452 0.000000 0.000000 0.000000
# 2 -0.005713 0.010785 -0.000904 0.000000 0.000000 0.000000
# 3 -0.005452 -0.000904 0.017359 0.000000 0.000000 0.000000
# 4 0.000000 0.000000 0.000000 0.024977 0.000000 0.000000
# 5 0.000000 0.000000 0.000000 0.000000 0.365132 0.000000
# 6 0.000000 0.000000 0.000000 0.000000 0.000000 0.028632
#
#
# Mechanical properties :
#
#
# Convention : Reuss Voigt Hill
#
# Bulk Modulus (GPa) = 64.32235 79.87123 72.09679
# Shear Modulus (GPa) = 10.25126 28.74427 19.49777
#
# Velocity S-wave (km/s) = 2.21390 3.70718 3.05324
# Velocity P-wave (km/s) = 6.10647 7.51747 6.84840
#
# Compressibility (1/GPa) = 0.01554670
#
# Stress axis : x y z
#
# Youngs Moduli (GPa) = 86.65427 92.72376 57.60602
#
# Poissons Ratio (x) = 0.52971 0.31407
# Poissons Ratio (y) = 0.49504 0.05207
# Poissons Ratio (z) = 0.47244 0.08381
#
# Static dielectric constant tensor:
#      x y z
#    x 1.805040 0.000000 0.000000 
#    y 0.000000 1.925110 0.000000 
#    z 0.000000 0.000000 1.732620 
# 
# From -- ./inp_files/32686.got.cif
#   From: 2010.05.17/outbox.cif.g08.bks.cpg/sg52_17_cif.got.tgz:32686.got - 2010.06.03 12:15:38.
