data_PCOD9410993
_publ_section_title
;
Structure prediction by ZEFSAII (Michael W. Deem and Ramdas Pophale) SiO2 
 PCOD9410993
Probable space group: P N N A
;
_chemical_formula_sum "Si O2"
_cell_formula_units_Z 40
_cell_length_a 27.086236
_cell_length_b 10.937080
_cell_length_c 5.164357
_cell_angle_alpha 90.000000
_cell_angle_beta 90.000000
_cell_angle_gamma 90.000000
_cell_volume 1529.911480
_symmetry_space_group_name_H-M "P N N A"
_symmetry_group_IT_number 52
_symmetry_cell_setting 'orthorhombic'
loop_
_space_group_symop_operation_xyz
x,y,z
1/2-x,-y,z
x,1/2-y,1/2-z
1/2-x,1/2+y,1/2-z
-x,-y,-z
1/2+x,y,-z
-x,1/2+y,1/2+z
1/2+x,1/2-y,1/2+z
loop_
_atom_site_type_symbol
_atom_site_label
_atom_site_fract_x
_atom_site_fract_y
_atom_site_fract_z
Si Si1 0.179317 0.097205 0.902088
Si Si2 0.962211 0.938314 0.299621
Si Si3 0.708776 0.824253 0.009066
Si Si4 0.935886 0.117057 0.869056
Si Si5 0.879735 0.892960 0.615161
O O1 0.186014 0.957832 0.990582
O O2 0.163044 0.101600 0.603053
O O3 0.232630 0.156634 0.946834
O O4 0.140344 0.152022 0.106815
O O5 0.003769 0.877319 0.120039
O O6 0.927067 0.846503 0.455480
O O7 0.000000 0.000000 0.500000
O O8 0.930722 0.042059 0.143997
O O9 0.687877 0.750000 0.250000
O O10 0.701020 0.750000 0.750000
O O11 0.921991 0.250000 0.750000
O O12 0.904344 0.024978 0.688319
#
# Coordination Sequence:
#
# PCOD9410993 Si02
#       5
#     8   8   8   8   8
#     4  11  24  42  68  95 133 169 209 280 327 385
#     4   9  20  39  62  86 133 173 210 269 324 386
#     4  11  24  45  68  95 129 172 217 259 333 409
#     4  10  21  39  64  94 129 176 223 269 325 386
#     4  11  21  40  63  92 132 166 213 267 335 364
#
# _framework density 26.145301
#
# number of rings (size 3 to 8) (size 9 to 14) (size 15 to 20)
#    0.000    1.600    2.000    2.400    0.000    8.800 
#    3.600    3.000    8.800    0.000    0.000    0.000 
#    0.000    0.000    0.000    0.000    0.000    0.000 
#
# Total GULP energy -223176.244359 kJ/mol
# GULP energy per Si atom -5579.406109 kJ/mol
# Density = 2.608579 g / cm^3
# Si number density = 26.145301 Si / 1000 Ang^3
#
#
#
# Elastic Constant Matrix: (Units=GPa)
#
#
# Indices 1 2 3 4 5 6 
#
# 1 119.0974 2.7433 36.2949 0.0000 0.0000 0.0000
# 2 2.7433 109.7664 57.0933 0.0000 0.0000 0.0000
# 3 36.2949 57.0933 203.8417 0.0000 0.0000 0.0000
# 4 0.0000 0.0000 0.0000 42.7769 0.0000 0.0000
# 5 0.0000 0.0000 0.0000 0.0000 84.8265 0.0000
# 6 0.0000 0.0000 0.0000 0.0000 0.0000 28.1253
#
#
#
# Elastic Compliance Matrix: (Units=1/GPa)
#
#
# Indices 1 2 3 4 5 6 
#
# 1 0.008925 0.000706 -0.001787 0.000000 0.000000 0.000000
# 2 0.000706 0.010720 -0.003128 0.000000 0.000000 0.000000
# 3 -0.001787 -0.003128 0.006100 0.000000 0.000000 0.000000
# 4 0.000000 0.000000 0.000000 0.023377 0.000000 0.000000
# 5 0.000000 0.000000 0.000000 0.000000 0.011789 0.000000
# 6 0.000000 0.000000 0.000000 0.000000 0.000000 0.035555
#
#
# Mechanical properties :
#
#
# Convention : Reuss Voigt Hill
#
# Bulk Modulus (GPa) = 57.71315 69.44093 63.57704
# Shear Modulus (GPa) = 45.18393 53.58401 49.38397
#
# Velocity S-wave (km/s) = 4.16166 4.53202 4.35078
# Velocity P-wave (km/s) = 6.72417 7.34866 7.04334
#
# Compressibility (1/GPa) = 0.01732707
#
# Stress axis : x y z
#
# Youngs Moduli (GPa) = 112.04739 93.28621 163.93131
#
# Poissons Ratio (x) = -0.06590 0.29294
# Poissons Ratio (y) = -0.07915 0.51281
# Poissons Ratio (z) = 0.20022 0.29182
#
# Static dielectric constant tensor:
#      x y z
#    x 2.188930 0.000000 0.000000 
#    y 0.000000 2.273050 0.000000 
#    z 0.000000 0.000000 2.171980 
# 
# From -- ./inp_files/6321.got.cif
#   From: 2010.05.17/outbox.cif.g08.bks.cpg/sg52_4_cif.got.tgz:6321.got - 2010.06.03 12:15:38.
