data_PCOD9410897
_publ_section_title
;
Structure prediction by ZEFSAII (Michael W. Deem and Ramdas Pophale) SiO2 
 PCOD9410897
Probable space group: P N N A
;
_chemical_formula_sum "Si O2"
_cell_formula_units_Z 32
_cell_length_a 8.938285
_cell_length_b 9.975903
_cell_length_c 15.185891
_cell_angle_alpha 90.000000
_cell_angle_beta 90.000000
_cell_angle_gamma 90.000000
_cell_volume 1354.087391
_symmetry_space_group_name_H-M "P N N A"
_symmetry_group_IT_number 52
_symmetry_cell_setting 'orthorhombic'
loop_
_space_group_symop_operation_xyz
x,y,z
1/2-x,-y,z
x,1/2-y,1/2-z
1/2-x,1/2+y,1/2-z
-x,-y,-z
1/2+x,y,-z
-x,1/2+y,1/2+z
1/2+x,1/2-y,1/2+z
loop_
_atom_site_type_symbol
_atom_site_label
_atom_site_fract_x
_atom_site_fract_y
_atom_site_fract_z
Si Si1 0.469343 0.394446 0.397878
Si Si2 0.953206 0.428530 0.091589
Si Si3 0.378779 0.668636 0.413759
Si Si4 0.817994 0.681463 0.170692
O O1 0.461816 0.546774 0.363742
O O2 0.298027 0.351587 0.409669
O O3 0.559365 0.367636 0.488694
O O4 0.559452 0.296685 0.336417
O O5 0.909839 0.541702 0.163215
O O6 0.799085 0.341501 0.090114
O O7 0.077320 0.318129 0.112399
O O8 0.000000 0.500000 0.000000
O O9 0.723826 0.750000 0.250000
#
# Coordination Sequence:
#
# PCOD9410897 Si02
#       4
#     8   8   8   8
#     4  10  21  39  65 101 144 187 240 309 382 439
#     4  11  24  43  74 108 140 197 263 312 365 465
#     4  10  21  38  67 103 138 186 251 313 361 440
#     4  11  26  45  68 107 152 192 241 315 396 454
#
# _framework density 23.632154
#
# number of rings (size 3 to 8) (size 9 to 14) (size 15 to 20)
#    0.000    1.500    2.500    1.500    3.500    8.000 
#    0.000    6.250    0.000    0.000    0.000    0.000 
#    0.000    0.000    0.000    0.000    0.000    0.000 
#
# Total GULP energy -178245.368033 kJ/mol
# GULP energy per Si atom -5570.167751 kJ/mol
# Density = 2.357837 g / cm^3
# Si number density = 23.632154 Si / 1000 Ang^3
#
#
#
# Elastic Constant Matrix: (Units=GPa)
#
#
# Indices 1 2 3 4 5 6 
#
# 1 92.1412 35.5985 28.3360 0.0000 0.0000 0.0000
# 2 35.5985 146.3789 43.5375 0.0000 0.0000 0.0000
# 3 28.3360 43.5375 68.0833 0.0000 0.0000 0.0000
# 4 0.0000 0.0000 0.0000 30.0410 0.0000 0.0000
# 5 0.0000 0.0000 0.0000 0.0000 9.7556 0.0000
# 6 0.0000 0.0000 0.0000 0.0000 0.0000 47.6243
#
#
#
# Elastic Compliance Matrix: (Units=1/GPa)
#
#
# Indices 1 2 3 4 5 6 
#
# 1 0.012858 -0.001896 -0.004139 0.000000 0.000000 0.000000
# 2 -0.001896 0.008716 -0.004784 0.000000 0.000000 0.000000
# 3 -0.004139 -0.004784 0.019470 0.000000 0.000000 0.000000
# 4 0.000000 0.000000 0.000000 0.033288 0.000000 0.000000
# 5 0.000000 0.000000 0.000000 0.000000 0.102505 0.000000
# 6 0.000000 0.000000 0.000000 0.000000 0.000000 0.020998
#
#
# Mechanical properties :
#
#
# Convention : Reuss Voigt Hill
#
# Bulk Modulus (GPa) = 51.53284 57.94971 54.74128
# Shear Modulus (GPa) = 22.12958 30.75960 26.44459
#
# Velocity S-wave (km/s) = 3.06341 3.61168 3.34879
# Velocity P-wave (km/s) = 5.86227 6.47820 6.17792
#
# Compressibility (1/GPa) = 0.01940510
#
# Stress axis : x y z
#
# Youngs Moduli (GPa) = 77.77063 114.73562 51.36088
#
# Poissons Ratio (x) = 0.21753 0.21259
# Poissons Ratio (y) = 0.14745 0.24573
# Poissons Ratio (z) = 0.32191 0.54894
#
# Static dielectric constant tensor:
#      x y z
#    x 1.880650 0.000000 0.000000 
#    y 0.000000 1.911690 0.000000 
#    z 0.000000 0.000000 2.654300 
# 
# From -- ./inp_files/30777.got.cif
#   From: 2010.05.17/outbox.cif.g08.bks.cpg/sg52_16_cif.got.tgz:30777.got - 2010.06.03 12:15:38.
