data_PCOD9410385
_publ_section_title
;
Structure prediction by ZEFSAII (Michael W. Deem and Ramdas Pophale) SiO2 
 PCOD9410385
Probable space group: P N N A
;
_chemical_formula_sum "Si O2"
_cell_formula_units_Z 64
_cell_length_a 8.624572
_cell_length_b 14.572780
_cell_length_c 25.868056
_cell_angle_alpha 90.000000
_cell_angle_beta 90.000000
_cell_angle_gamma 90.000000
_cell_volume 3251.200501
_symmetry_space_group_name_H-M "P N N A"
_symmetry_group_IT_number 52
_symmetry_cell_setting 'orthorhombic'
loop_
_space_group_symop_operation_xyz
x,y,z
1/2-x,-y,z
x,1/2-y,1/2-z
1/2-x,1/2+y,1/2-z
-x,-y,-z
1/2+x,y,-z
-x,1/2+y,1/2+z
1/2+x,1/2-y,1/2+z
loop_
_atom_site_type_symbol
_atom_site_label
_atom_site_fract_x
_atom_site_fract_y
_atom_site_fract_z
Si Si1 0.878979 0.837656 0.089568
Si Si2 0.409616 0.865627 0.354594
Si Si3 0.978683 0.169834 0.122013
Si Si4 0.564349 0.013456 0.171923
Si Si5 0.380106 0.926283 0.022167
Si Si6 0.431459 0.972453 0.712098
Si Si7 0.564964 0.007422 0.556248
Si Si8 0.459706 0.343834 0.129534
O O1 0.704712 0.823989 0.110508
O O2 0.984558 0.750570 0.104255
O O3 0.955270 0.920228 0.122838
O O4 0.854172 0.863941 0.029312
O O5 0.472232 0.763303 0.350510
O O6 0.469267 0.944114 0.314650
O O7 0.223195 0.855229 0.357707
O O8 0.468792 0.902351 0.410462
O O9 0.008355 0.084290 0.159437
O O10 0.063540 0.139739 0.068446
O O11 0.516692 0.044139 0.228903
O O12 0.750000 0.000000 0.174594
O O13 0.250000 0.000000 0.039455
O O14 0.500000 0.000000 0.000000
O O15 0.250000 0.000000 0.710301
O O16 0.453097 0.878199 0.680638
O O17 0.501397 0.922144 0.588192
O O18 0.750000 0.000000 0.554402
O O19 0.500000 0.000000 0.500000
#
# Coordination Sequence:
#
# PCOD9410385 Si02
#       8
#     8   8   8   8   8   8   8   8
#     4  11  22  40  61  89 121 163 205 247 297 365
#     4  10  23  40  58  87 123 155 197 251 305 358
#     4  11  23  39  62  90 121 161 207 247 297 363
#     4   9  20  39  63  88 118 156 205 253 298 356
#     4  12  23  41  62  87 127 167 203 250 303 358
#     4  10  20  41  67  87 114 158 203 254 305 356
#     4   9  20  38  55  77 111 151 192 239 289 348
#     4  10  23  40  59  86 124 156 196 250 306 357
#
# _framework density 19.685037000000001
#
# number of rings (size 3 to 8) (size 9 to 14) (size 15 to 20)
#    0.000    1.750    2.500    2.250    3.500    4.000 
#    0.000    8.750    0.000    0.000    0.000    0.000 
#    0.000    0.000    0.000    0.000    0.000    0.000 
#
# Total GULP energy -356632.251837 kJ/mol
# GULP energy per Si atom -5572.378935 kJ/mol
# Density = 1.964023 g / cm^3
# Si number density = 19.685037 Si / 1000 Ang^3
#
#
#
# Elastic Constant Matrix: (Units=GPa)
#
#
# Indices 1 2 3 4 5 6 
#
# 1 38.6086 4.9550 -6.5371 0.0000 0.0000 0.0000
# 2 4.9550 94.3846 11.4257 0.0000 0.0000 0.0000
# 3 -6.5371 11.4257 97.3068 0.0000 0.0000 0.0000
# 4 0.0000 0.0000 0.0000 16.6554 0.0000 0.0000
# 5 0.0000 0.0000 0.0000 0.0000 19.4284 0.0000
# 6 0.0000 0.0000 0.0000 0.0000 0.0000 35.9245
#
#
#
# Elastic Compliance Matrix: (Units=1/GPa)
#
#
# Indices 1 2 3 4 5 6 
#
# 1 0.026443 -0.001626 0.001967 0.000000 0.000000 0.000000
# 2 -0.001626 0.010848 -0.001383 0.000000 0.000000 0.000000
# 3 0.001967 -0.001383 0.010571 0.000000 0.000000 0.000000
# 4 0.000000 0.000000 0.000000 0.060041 0.000000 0.000000
# 5 0.000000 0.000000 0.000000 0.000000 0.051471 0.000000
# 6 0.000000 0.000000 0.000000 0.000000 0.000000 0.027836
#
#
# Mechanical properties :
#
#
# Convention : Reuss Voigt Hill
#
# Bulk Modulus (GPa) = 21.84458 27.77636 24.81047
# Shear Modulus (GPa) = 24.44354 29.09875 26.77114
#
# Velocity S-wave (km/s) = 3.52764 3.84893 3.69178
# Velocity P-wave (km/s) = 5.26436 5.82180 5.55008
#
# Compressibility (1/GPa) = 0.04577795
#
# Stress axis : x y z
#
# Youngs Moduli (GPa) = 37.81751 92.18503 94.59547
#
# Poissons Ratio (x) = 0.14993 -0.18611
# Poissons Ratio (y) = 0.06150 0.13082
# Poissons Ratio (z) = -0.07440 0.12749
#
# Static dielectric constant tensor:
#      x y z
#    x 1.615550 0.000000 0.000000 
#    y 0.000000 1.625450 0.000000 
#    z 0.000000 0.000000 1.723260 
# 
# From -- ./inp_files/39675.got.cif
#   From: 2010.05.17/outbox.cif.g08.bks.cpg/sg52_20_cif.got.tgz:39675.got - 2010.06.03 12:15:38.
