data_PCOD9410436
_publ_section_title
;
Structure prediction by ZEFSAII (Michael W. Deem and Ramdas Pophale) SiO2 
 PCOD9410436
Probable space group: P N N A
;
_chemical_formula_sum "Si O2"
_cell_formula_units_Z 60
_cell_length_a 15.341273
_cell_length_b 12.337480
_cell_length_c 13.703063
_cell_angle_alpha 90.000000
_cell_angle_beta 90.000000
_cell_angle_gamma 90.000000
_cell_volume 2593.615031
_symmetry_space_group_name_H-M "P N N A"
_symmetry_group_IT_number 52
_symmetry_cell_setting 'orthorhombic'
loop_
_space_group_symop_operation_xyz
x,y,z
1/2-x,-y,z
x,1/2-y,1/2-z
1/2-x,1/2+y,1/2-z
-x,-y,-z
1/2+x,y,-z
-x,1/2+y,1/2+z
1/2+x,1/2-y,1/2+z
loop_
_atom_site_type_symbol
_atom_site_label
_atom_site_fract_x
_atom_site_fract_y
_atom_site_fract_z
Si Si1 0.244853 0.195760 0.878245
Si Si2 0.397349 0.600898 0.357998
Si Si3 0.608878 0.198212 0.506770
Si Si4 0.491159 0.171360 0.344265
Si Si5 0.837897 0.545120 0.211547
Si Si6 0.577052 0.840342 0.182176
Si Si7 0.750000 0.000000 0.972978
Si Si8 0.645901 0.012184 0.646606
O O1 0.195957 0.138921 0.786697
O O2 0.343822 0.230745 0.860780
O O3 0.185298 0.286233 0.927064
O O4 0.253604 0.102300 0.957784
O O5 0.372029 0.715369 0.407237
O O6 0.500819 0.600169 0.376173
O O7 0.337228 0.511680 0.410001
O O8 0.379775 0.578509 0.244454
O O9 0.520320 0.225582 0.446870
O O10 0.610404 0.081304 0.555614
O O11 0.490663 0.250000 0.250000
O O12 0.571222 0.086321 0.332684
O O13 0.402676 0.103320 0.349683
O O14 0.750000 0.500000 0.159190
O O15 0.870666 0.439196 0.270248
O O16 0.530675 0.750000 0.250000
O O17 0.750000 0.000000 0.641688
#
# Coordination Sequence:
#
# PCOD9410436 Si02
#       8
#     8   8   8   8   8   8   4   8
#     4  10  21  41  65 106 139 179 232 297 371 426
#     4  11  24  45  71  98 136 187 242 296 348 427
#     4  11  26  45  74 103 149 183 244 307 367 439
#     4  12  26  48  75 109 145 194 243 308 378 446
#     4  10  21  39  70 101 145 176 225 297 369 437
#     4  11  22  38  67 103 139 183 233 291 367 431
#     4  10  20  42  66  94 130 182 238 300 350 412
#     4  12  27  51  71 101 147 203 252 298 358 437
#
# _framework density 23.133735000000001
#
# number of rings (size 3 to 8) (size 9 to 14) (size 15 to 20)
#    0.000    1.067    5.333    1.600    3.733    3.200 
#    2.400    0.000    0.000    0.000    0.000    0.000 
#    0.000    0.000    0.000    0.000    0.000    0.000 
#
# Total GULP energy -334888.262891 kJ/mol
# GULP energy per Si atom -5581.471048 kJ/mol
# Density = 2.308108 g / cm^3
# Si number density = 23.133735 Si / 1000 Ang^3
#
#
#
# Elastic Constant Matrix: (Units=GPa)
#
#
# Indices 1 2 3 4 5 6 
#
# 1 139.2394 22.3971 19.0566 0.0000 0.0000 0.0000
# 2 22.3971 76.5591 26.8836 0.0000 0.0000 0.0000
# 3 19.0566 26.8836 97.8138 0.0000 0.0000 0.0000
# 4 0.0000 0.0000 0.0000 28.6816 0.0000 0.0000
# 5 0.0000 0.0000 0.0000 0.0000 23.0033 0.0000
# 6 0.0000 0.0000 0.0000 0.0000 0.0000 40.6706
#
#
#
# Elastic Compliance Matrix: (Units=1/GPa)
#
#
# Indices 1 2 3 4 5 6 
#
# 1 0.007618 -0.001890 -0.000965 0.000000 0.000000 0.000000
# 2 -0.001890 0.014926 -0.003734 0.000000 0.000000 0.000000
# 3 -0.000965 -0.003734 0.011438 0.000000 0.000000 0.000000
# 4 0.000000 0.000000 0.000000 0.034866 0.000000 0.000000
# 5 0.000000 0.000000 0.000000 0.000000 0.043472 0.000000
# 6 0.000000 0.000000 0.000000 0.000000 0.000000 0.024588
#
#
# Mechanical properties :
#
#
# Convention : Reuss Voigt Hill
#
# Bulk Modulus (GPa) = 48.06728 50.03189 49.04959
# Shear Modulus (GPa) = 31.84326 34.82276 33.33301
#
# Velocity S-wave (km/s) = 3.71413 3.88400 3.80002
# Velocity P-wave (km/s) = 6.26228 6.46438 6.36413
#
# Compressibility (1/GPa) = 0.02080417
#
# Stress axis : x y z
#
# Youngs Moduli (GPa) = 131.26985 66.99767 87.42964
#
# Poissons Ratio (x) = 0.12661 0.08435
# Poissons Ratio (y) = 0.24808 0.32647
# Poissons Ratio (z) = 0.12664 0.25018
#
# Static dielectric constant tensor:
#      x y z
#    x 1.890320 0.000000 0.000000 
#    y 0.000000 1.899660 0.000000 
#    z 0.000000 0.000000 1.978130 
# 
# From -- ./inp_files/27448.got.cif
#   From: 2010.05.17/outbox.cif.g08.bks.cpg/sg52_14_cif.got.tgz:27448.got - 2010.06.03 12:15:38.
