data_PCOD9410979
_publ_section_title
;
Structure prediction by ZEFSAII (Michael W. Deem and Ramdas Pophale) SiO2 
 PCOD9410979
Probable space group: P N N A
;
_chemical_formula_sum "Si O2"
_cell_formula_units_Z 40
_cell_length_a 19.205355
_cell_length_b 12.114287
_cell_length_c 8.270720
_cell_angle_alpha 90.000000
_cell_angle_beta 90.000000
_cell_angle_gamma 90.000000
_cell_volume 1924.258953
_symmetry_space_group_name_H-M "P N N A"
_symmetry_group_IT_number 52
_symmetry_cell_setting 'orthorhombic'
loop_
_space_group_symop_operation_xyz
x,y,z
1/2-x,-y,z
x,1/2-y,1/2-z
1/2-x,1/2+y,1/2-z
-x,-y,-z
1/2+x,y,-z
-x,1/2+y,1/2+z
1/2+x,1/2-y,1/2+z
loop_
_atom_site_type_symbol
_atom_site_label
_atom_site_fract_x
_atom_site_fract_y
_atom_site_fract_z
Si Si1 0.902124 0.409896 0.412187
Si Si2 0.415010 0.185946 0.417051
Si Si3 0.831378 0.495937 0.102153
Si Si4 0.936877 0.912078 0.856088
Si Si5 0.573150 0.320630 0.002805
O O1 0.902298 0.280830 0.449530
O O2 0.848037 0.444013 0.276776
O O3 0.896696 0.482203 0.575711
O O4 0.980512 0.436604 0.351588
O O5 0.400936 0.250000 0.250000
O O6 0.369353 0.082082 0.469856
O O7 0.496646 0.153720 0.425898
O O8 0.750000 0.500000 0.070422
O O9 0.867456 0.616222 0.099599
O O10 0.923915 0.811332 0.981427
O O11 0.920138 0.868594 0.678763
#
# Coordination Sequence:
#
# PCOD9410979 Si02
#       5
#     8   8   8   8   8
#     4  10  21  39  63  96 127 164 211 271 334 374
#     4  11  23  42  69  96 127 171 221 278 325 382
#     4  12  26  43  61  96 138 179 214 265 332 404
#     4   9  19  38  67  97 123 158 218 279 313 378
#     4  10  21  39  67  98 127 162 219 270 321 381
#
# _framework density 20.787223000000001
#
# number of rings (size 3 to 8) (size 9 to 14) (size 15 to 20)
#    0.000    1.600    2.000    2.400    8.400    0.000 
#   10.800    2.000    0.000    0.000    0.000    0.000 
#    0.000    0.000    0.000    0.000    0.000    0.000 
#
# Total GULP energy -223549.770872 kJ/mol
# GULP energy per Si atom -5588.744272 kJ/mol
# Density = 2.073991 g / cm^3
# Si number density = 20.787223 Si / 1000 Ang^3
#
#
#
# Elastic Constant Matrix: (Units=GPa)
#
#
# Indices 1 2 3 4 5 6 
#
# 1 101.1543 44.5522 4.5346 0.0000 0.0000 0.0000
# 2 44.5522 94.0686 0.1389 0.0000 0.0000 0.0000
# 3 4.5346 0.1389 50.8238 0.0000 0.0000 0.0000
# 4 0.0000 0.0000 0.0000 30.4911 0.0000 0.0000
# 5 0.0000 0.0000 0.0000 0.0000 7.3047 0.0000
# 6 0.0000 0.0000 0.0000 0.0000 0.0000 1.2069
#
#
#
# Elastic Compliance Matrix: (Units=1/GPa)
#
#
# Indices 1 2 3 4 5 6 
#
# 1 0.012553 -0.005944 -0.001104 0.000000 0.000000 0.000000
# 2 -0.005944 0.013445 0.000494 0.000000 0.000000 0.000000
# 3 -0.001104 0.000494 0.019773 0.000000 0.000000 0.000000
# 4 0.000000 0.000000 0.000000 0.032797 0.000000 0.000000
# 5 0.000000 0.000000 0.000000 0.000000 0.136898 0.000000
# 6 0.000000 0.000000 0.000000 0.000000 0.000000 0.828554
#
#
# Mechanical properties :
#
#
# Convention : Reuss Voigt Hill
#
# Bulk Modulus (GPa) = 30.61557 38.27755 34.44656
# Shear Modulus (GPa) = 4.68158 20.92194 12.80176
#
# Velocity S-wave (km/s) = 1.50234 3.17595 2.48432
# Velocity P-wave (km/s) = 4.21538 5.64826 4.98359
#
# Compressibility (1/GPa) = 0.03266312
#
# Stress axis : x y z
#
# Youngs Moduli (GPa) = 79.66087 74.37796 50.57411
#
# Poissons Ratio (x) = 0.44208 0.05582
# Poissons Ratio (y) = 0.47348 -0.02496
# Poissons Ratio (z) = 0.08793 -0.03671
#
# Static dielectric constant tensor:
#      x y z
#    x 1.677070 0.000000 0.000000 
#    y 0.000000 1.764720 0.000000 
#    z 0.000000 0.000000 1.813650 
# 
# From -- ./inp_files/11589.got.cif
#   From: 2010.05.17/outbox.cif.g08.bks.cpg/sg52_6_cif.got.tgz:11589.got - 2010.06.03 12:15:38.
