data_PCOD9410366
_publ_section_title
;
Structure prediction by ZEFSAII (Michael W. Deem and Ramdas Pophale) SiO2 
 PCOD9410366
Probable space group: P N N A
;
_chemical_formula_sum "Si O2"
_cell_formula_units_Z 60
_cell_length_a 11.438501
_cell_length_b 11.778047
_cell_length_c 21.200138
_cell_angle_alpha 90.000000
_cell_angle_beta 90.000000
_cell_angle_gamma 90.000000
_cell_volume 2856.150482
_symmetry_space_group_name_H-M "P N N A"
_symmetry_group_IT_number 52
_symmetry_cell_setting 'orthorhombic'
loop_
_space_group_symop_operation_xyz
x,y,z
1/2-x,-y,z
x,1/2-y,1/2-z
1/2-x,1/2+y,1/2-z
-x,-y,-z
1/2+x,y,-z
-x,1/2+y,1/2+z
1/2+x,1/2-y,1/2+z
loop_
_atom_site_type_symbol
_atom_site_label
_atom_site_fract_x
_atom_site_fract_y
_atom_site_fract_z
Si Si1 0.983270 0.175355 0.311067
Si Si2 0.832964 0.660152 0.915764
Si Si3 0.418443 0.411638 0.066947
Si Si4 0.080832 0.109652 0.867930
Si Si5 0.999343 0.707683 0.501183
Si Si6 0.858953 0.135258 0.112446
Si Si7 0.368017 0.550744 0.838468
Si Si8 0.097147 0.250000 0.750000
O O1 0.996259 0.250000 0.250000
O O2 0.901335 0.247851 0.357577
O O3 0.103094 0.163742 0.348901
O O4 0.927877 0.052479 0.300831
O O5 0.695358 0.650717 0.904846
O O6 0.876289 0.539721 0.945378
O O7 0.881384 0.763527 0.958896
O O8 0.445959 0.332733 0.007911
O O9 0.534099 0.413022 0.110719
O O10 0.024010 0.152411 0.933185
O O11 0.220520 0.129391 0.877890
O O12 0.036990 0.179307 0.806821
O O13 0.076869 0.974408 0.858019
O O14 0.092579 0.636544 0.541192
O O15 0.250000 0.500000 0.868029
O O16 0.337862 0.652057 0.790058
#
# Coordination Sequence:
#
# PCOD9410366 Si02
#       8
#     8   8   8   8   8   8   8   4
#     4  10  21  39  61  88 119 167 214 256 319 394
#     4   9  21  38  62  85 124 165 209 261 318 384
#     4  10  20  41  59  90 125 161 205 266 316 381
#     4  11  23  38  59  91 128 169 209 270 326 387
#     4  11  20  39  61  91 121 166 216 264 324 384
#     4  10  23  38  61  88 127 171 213 264 323 387
#     4  11  24  38  63  92 127 162 205 262 325 385
#     4  12  24  40  58  96 128 166 208 268 328 380
#
# _framework density 21.007296
#
# number of rings (size 3 to 8) (size 9 to 14) (size 15 to 20)
#    0.000    1.600    1.333    3.200    5.600    0.000 
#    6.000    0.000    0.000    0.000    0.000    0.000 
#    0.000    0.000    0.000    0.000    0.000    0.000 
#
# Total GULP energy -334689.463243 kJ/mol
# GULP energy per Si atom -5578.157721 kJ/mol
# Density = 2.095948 g / cm^3
# Si number density = 21.007296 Si / 1000 Ang^3
#
#
#
# Elastic Constant Matrix: (Units=GPa)
#
#
# Indices 1 2 3 4 5 6 
#
# 1 94.3592 7.2174 11.9724 0.0000 0.0000 0.0000
# 2 7.2174 73.3713 28.3455 0.0000 0.0000 0.0000
# 3 11.9724 28.3455 73.8481 0.0000 0.0000 0.0000
# 4 0.0000 0.0000 0.0000 38.9880 0.0000 0.0000
# 5 0.0000 0.0000 0.0000 0.0000 6.5543 0.0000
# 6 0.0000 0.0000 0.0000 0.0000 0.0000 14.2928
#
#
#
# Elastic Compliance Matrix: (Units=1/GPa)
#
#
# Indices 1 2 3 4 5 6 
#
# 1 0.010833 -0.000455 -0.001582 0.000000 0.000000 0.000000
# 2 -0.000455 0.016021 -0.006076 0.000000 0.000000 0.000000
# 3 -0.001582 -0.006076 0.016130 0.000000 0.000000 0.000000
# 4 0.000000 0.000000 0.000000 0.025649 0.000000 0.000000
# 5 0.000000 0.000000 0.000000 0.000000 0.152572 0.000000
# 6 0.000000 0.000000 0.000000 0.000000 0.000000 0.069965
#
#
# Mechanical properties :
#
#
# Convention : Reuss Voigt Hill
#
# Bulk Modulus (GPa) = 37.36919 37.40545 37.38732
# Shear Modulus (GPa) = 15.80701 24.90323 20.35512
#
# Velocity S-wave (km/s) = 2.74606 3.44678 3.11618
# Velocity P-wave (km/s) = 5.28032 5.80388 5.54828
#
# Compressibility (1/GPa) = 0.02676001
#
# Stress axis : x y z
#
# Youngs Moduli (GPa) = 92.30816 62.41696 61.99679
#
# Poissons Ratio (x) = 0.02837 0.09807
# Poissons Ratio (y) = 0.04196 0.37668
# Poissons Ratio (z) = 0.14602 0.37923
#
# Static dielectric constant tensor:
#      x y z
#    x 1.768130 0.000000 0.000000 
#    y 0.000000 1.799520 0.000000 
#    z 0.000000 0.000000 1.791060 
# 
# From -- ./inp_files/36872.got.cif
#   From: 2010.05.17/outbox.cif.g08.bks.cpg/sg52_19_cif.got.tgz:36872.got - 2010.06.03 12:15:38.
