data_PCOD9410352
_publ_section_title
;
Structure prediction by ZEFSAII (Michael W. Deem and Ramdas Pophale) SiO2 
 PCOD9410352
Probable space group: P N N A
;
_chemical_formula_sum "Si O2"
_cell_formula_units_Z 20
_cell_length_a 9.078658
_cell_length_b 6.780116
_cell_length_c 12.052844
_cell_angle_alpha 90.000000
_cell_angle_beta 90.000000
_cell_angle_gamma 90.000000
_cell_volume 741.905031
_symmetry_space_group_name_H-M "P N N A"
_symmetry_group_IT_number 52
_symmetry_cell_setting 'orthorhombic'
loop_
_space_group_symop_operation_xyz
x,y,z
1/2-x,-y,z
x,1/2-y,1/2-z
1/2-x,1/2+y,1/2-z
-x,-y,-z
1/2+x,y,-z
-x,1/2+y,1/2+z
1/2+x,1/2-y,1/2+z
loop_
_atom_site_type_symbol
_atom_site_label
_atom_site_fract_x
_atom_site_fract_y
_atom_site_fract_z
Si Si1 0.410660 0.851106 0.638944
Si Si2 0.261112 0.221352 0.414814
Si Si3 0.028258 0.250000 0.250000
O O1 0.358290 0.750000 0.750000
O O2 0.300197 0.801358 0.539022
O O3 0.435043 0.247163 0.401551
O O4 0.443318 0.076531 0.681682
O O5 0.140196 0.337161 0.343584
O O6 0.250000 0.000000 0.367373
#
# Coordination Sequence:
#
# PCOD9410352 Si02
#       3
#     8   8   4
#     4  11  24  45  70 100 137 182 226 280 341 407
#     4  10  21  43  69  95 141 173 221 286 335 395
#     4  10  20  40  70  92 136 178 214 276 348 396
#
# _framework density 26.957632
#
# number of rings (size 3 to 8) (size 9 to 14) (size 15 to 20)
#    0.000    1.600    2.000    4.800    0.000    1.600 
#   14.400    8.000    0.000    0.000    0.000    0.000 
#    0.000    0.000    0.000    0.000    0.000    0.000 
#
# Total GULP energy -111588.150460 kJ/mol
# GULP energy per Si atom -5579.407523 kJ/mol
# Density = 2.689628 g / cm^3
# Si number density = 26.957632 Si / 1000 Ang^3
#
#
#
# Elastic Constant Matrix: (Units=GPa)
#
#
# Indices 1 2 3 4 5 6 
#
# 1 148.4094 42.0837 106.1783 0.0000 0.0000 0.0000
# 2 42.0837 98.4646 45.2204 0.0000 0.0000 0.0000
# 3 106.1783 45.2204 293.1647 0.0000 0.0000 0.0000
# 4 0.0000 0.0000 0.0000 21.2057 0.0000 0.0000
# 5 0.0000 0.0000 0.0000 0.0000 99.7075 0.0000
# 6 0.0000 0.0000 0.0000 0.0000 0.0000 22.2011
#
#
#
# Elastic Compliance Matrix: (Units=1/GPa)
#
#
# Indices 1 2 3 4 5 6 
#
# 1 0.009734 -0.002735 -0.003104 0.000000 0.000000 0.000000
# 2 -0.002735 0.011699 -0.000814 0.000000 0.000000 0.000000
# 3 -0.003104 -0.000814 0.004661 0.000000 0.000000 0.000000
# 4 0.000000 0.000000 0.000000 0.047157 0.000000 0.000000
# 5 0.000000 0.000000 0.000000 0.000000 0.010029 0.000000
# 6 0.000000 0.000000 0.000000 0.000000 0.000000 0.045043
#
#
# Mechanical properties :
#
#
# Convention : Reuss Voigt Hill
#
# Bulk Modulus (GPa) = 78.19630 103.00037 90.59833
# Shear Modulus (GPa) = 34.27223 51.72662 42.99943
#
# Velocity S-wave (km/s) = 3.56945 4.38518 3.99817
# Velocity P-wave (km/s) = 6.78661 7.99568 7.41583
#
# Compressibility (1/GPa) = 0.01278833
#
# Stress axis : x y z
#
# Youngs Moduli (GPa) = 102.73124 85.47969 214.56116
#
# Poissons Ratio (x) = 0.23379 0.66592
# Poissons Ratio (y) = 0.28097 0.17464
# Poissons Ratio (z) = 0.31884 0.06958
#
# Static dielectric constant tensor:
#      x y z
#    x 2.253450 0.000000 0.000000 
#    y 0.000000 2.255980 0.000000 
#    z 0.000000 0.000000 2.053970 
# 
# From -- ./inp_files/7900.got.cif
#   From: 2010.05.17/outbox.cif.g08.bks.cpg/sg52_4_cif.got.tgz:7900.got - 2010.06.03 12:15:38.
