data_PCOD9410484
_publ_section_title
;
Structure prediction by ZEFSAII (Michael W. Deem and Ramdas Pophale) SiO2 
 PCOD9410484
Probable space group: P N N A
;
_chemical_formula_sum "Si O2"
_cell_formula_units_Z 64
_cell_length_a 8.345522
_cell_length_b 30.151513
_cell_length_c 11.297137
_cell_angle_alpha 90.000000
_cell_angle_beta 90.000000
_cell_angle_gamma 90.000000
_cell_volume 2842.699883
_symmetry_space_group_name_H-M "P N N A"
_symmetry_group_IT_number 52
_symmetry_cell_setting 'orthorhombic'
loop_
_space_group_symop_operation_xyz
x,y,z
1/2-x,-y,z
x,1/2-y,1/2-z
1/2-x,1/2+y,1/2-z
-x,-y,-z
1/2+x,y,-z
-x,1/2+y,1/2+z
1/2+x,1/2-y,1/2+z
loop_
_atom_site_type_symbol
_atom_site_label
_atom_site_fract_x
_atom_site_fract_y
_atom_site_fract_z
Si Si1 0.522209 0.534811 0.163604
Si Si2 0.715274 0.808698 0.475501
Si Si3 0.511481 0.392505 0.638865
Si Si4 0.041330 0.800235 0.748066
Si Si5 0.999128 0.357810 0.863114
Si Si6 0.297994 0.273715 0.362811
Si Si7 0.383405 0.369025 0.393086
Si Si8 0.145397 0.053334 0.560869
O O1 0.508307 0.562821 0.283484
O O2 0.671895 0.557474 0.096946
O O3 0.570198 0.482950 0.151951
O O4 0.372961 0.538868 0.075040
O O5 0.558832 0.810360 0.390847
O O6 0.669546 0.840775 0.584687
O O7 0.733617 0.761090 0.534573
O O8 0.862713 0.822088 0.392327
O O9 0.420869 0.348530 0.693054
O O10 0.449907 0.395430 0.504537
O O11 0.701282 0.382885 0.633396
O O12 0.121557 0.750000 0.750000
O O13 0.868201 0.790392 0.805008
O O14 0.983577 0.371242 0.727151
O O15 0.056742 0.400920 0.929281
O O16 0.383386 0.250000 0.250000
O O17 0.385271 0.315994 0.417131
#
# Coordination Sequence:
#
# PCOD9410484 Si02
#       8
#     8   8   8   8   8   8   8   8
#     4  10  23  43  73 104 141 178 219 295 359 417
#     4  12  25  41  72 100 138 182 230 291 360 404
#     4  11  25  46  68  95 140 190 225 281 346 418
#     4  10  21  39  67  92 130 176 222 278 338 397
#     4  12  25  42  68 106 131 179 231 293 348 424
#     4  10  20  44  62  96 138 176 226 283 337 404
#     4  11  27  44  68  96 139 185 241 279 338 424
#     4  10  22  42  72 108 141 168 228 288 360 418
#
# _framework density 22.513808000000001
#
# number of rings (size 3 to 8) (size 9 to 14) (size 15 to 20)
#    0.000    1.250    1.250    4.500    8.750    1.000 
#    2.250    0.625    0.000    0.000    0.000    0.000 
#    0.000    0.000    0.000    0.000    0.000    0.000 
#
# Total GULP energy -357138.374264 kJ/mol
# GULP energy per Si atom -5580.287098 kJ/mol
# Density = 2.246257 g / cm^3
# Si number density = 22.513808 Si / 1000 Ang^3
#
#
#
# Elastic Constant Matrix: (Units=GPa)
#
#
# Indices 1 2 3 4 5 6 
#
# 1 61.9059 4.4729 22.2502 0.0000 0.0000 0.0000
# 2 4.4729 55.0821 16.8440 0.0000 0.0000 0.0000
# 3 22.2502 16.8440 111.5163 0.0000 0.0000 0.0000
# 4 0.0000 0.0000 0.0000 26.4916 0.0000 0.0000
# 5 0.0000 0.0000 0.0000 0.0000 25.7602 0.0000
# 6 0.0000 0.0000 0.0000 0.0000 0.0000 15.1006
#
#
#
# Elastic Compliance Matrix: (Units=1/GPa)
#
#
# Indices 1 2 3 4 5 6 
#
# 1 0.017409 -0.000369 -0.003418 0.000000 0.000000 0.000000
# 2 -0.000369 0.019042 -0.002803 0.000000 0.000000 0.000000
# 3 -0.003418 -0.002803 0.010073 0.000000 0.000000 0.000000
# 4 0.000000 0.000000 0.000000 0.037748 0.000000 0.000000
# 5 0.000000 0.000000 0.000000 0.000000 0.038820 0.000000
# 6 0.000000 0.000000 0.000000 0.000000 0.000000 0.066222
#
#
# Mechanical properties :
#
#
# Convention : Reuss Voigt Hill
#
# Bulk Modulus (GPa) = 29.98951 35.07095 32.53023
# Shear Modulus (GPa) = 23.40764 25.79963 24.60363
#
# Velocity S-wave (km/s) = 3.22794 3.38886 3.30938
# Velocity P-wave (km/s) = 5.21941 5.56092 5.39287
#
# Compressibility (1/GPa) = 0.03334499
#
# Stress axis : x y z
#
# Youngs Moduli (GPa) = 57.44295 52.51636 99.27972
#
# Poissons Ratio (x) = 0.01935 0.33931
# Poissons Ratio (y) = 0.02117 0.27824
# Poissons Ratio (z) = 0.19633 0.14718
#
# Static dielectric constant tensor:
#      x y z
#    x 1.910780 0.000000 0.000000 
#    y 0.000000 1.661790 0.000000 
#    z 0.000000 0.000000 1.850750 
# 
# From -- ./inp_files/17231.got.cif
#   From: 2010.05.17/outbox.cif.g08.bks.cpg/sg52_9_cif.got.tgz:17231.got - 2010.06.03 12:15:38.
