data_PCOD9410423
_publ_section_title
;
Structure prediction by ZEFSAII (Michael W. Deem and Ramdas Pophale) SiO2 
 PCOD9410423
Probable space group: P N N A
;
_chemical_formula_sum "Si O2"
_cell_formula_units_Z 60
_cell_length_a 21.036900
_cell_length_b 20.213051
_cell_length_c 7.120148
_cell_angle_alpha 90.000000
_cell_angle_beta 90.000000
_cell_angle_gamma 90.000000
_cell_volume 3027.628853
_symmetry_space_group_name_H-M "P N N A"
_symmetry_group_IT_number 52
_symmetry_cell_setting 'orthorhombic'
loop_
_space_group_symop_operation_xyz
x,y,z
1/2-x,-y,z
x,1/2-y,1/2-z
1/2-x,1/2+y,1/2-z
-x,-y,-z
1/2+x,y,-z
-x,1/2+y,1/2+z
1/2+x,1/2-y,1/2+z
loop_
_atom_site_type_symbol
_atom_site_label
_atom_site_fract_x
_atom_site_fract_y
_atom_site_fract_z
Si Si1 0.510805 0.178479 0.671949
Si Si2 0.906023 0.542732 0.406069
Si Si3 0.709606 0.250000 0.750000
Si Si4 0.908393 0.180081 0.647868
Si Si5 0.210837 0.693590 0.901412
Si Si6 0.208856 0.066590 0.628541
Si Si7 0.140963 0.385560 0.232173
Si Si8 0.956438 0.401602 0.513393
O O1 0.530670 0.250000 0.750000
O O2 0.470965 0.184068 0.481659
O O3 0.572455 0.132811 0.643785
O O4 0.468806 0.147887 0.840839
O O5 0.856577 0.558445 0.242709
O O6 0.872213 0.567071 0.595150
O O7 0.923691 0.466118 0.427056
O O8 0.974066 0.579839 0.402267
O O9 0.749509 0.229210 0.567286
O O10 0.669330 0.315321 0.702774
O O11 0.897389 0.250000 0.750000
O O12 0.851119 0.165507 0.505787
O O13 0.916522 0.128334 0.816009
O O14 0.194460 0.750000 0.750000
O O15 0.251232 0.632524 0.816445
O O16 0.187932 0.080873 0.415061
O O17 0.250000 0.000000 0.648504
#
# Coordination Sequence:
#
# PCOD9410423 Si02
#       8
#     8   8   4   8   8   8   8   8
#     4  11  21  39  65  97 129 164 212 272 320 381
#     4  10  23  45  65  93 129 170 216 260 330 385
#     4  10  20  42  64  92 124 166 218 266 310 384
#     4  12  24  38  63  97 130 166 213 261 326 386
#     4  11  25  42  63  89 131 174 216 264 321 383
#     4  11  26  43  64  97 127 173 223 267 318 386
#     4  10  22  41  68  94 127 167 217 268 322 372
#     4  10  24  42  67  95 129 167 209 271 327 387
#
# _framework density 19.817488999999998
#
# number of rings (size 3 to 8) (size 9 to 14) (size 15 to 20)
#    0.000    1.333    2.667    2.000    3.733    0.533 
#    2.400    4.667    0.000    0.000    0.000    0.000 
#    0.000    0.000    0.000    0.000    0.000    0.000 
#
# Total GULP energy -335207.652553 kJ/mol
# GULP energy per Si atom -5586.794209 kJ/mol
# Density = 1.977238 g / cm^3
# Si number density = 19.817489 Si / 1000 Ang^3
#
#
#
# Elastic Constant Matrix: (Units=GPa)
#
#
# Indices 1 2 3 4 5 6 
#
# 1 45.5047 6.4956 19.9095 0.0000 0.0000 0.0000
# 2 6.4956 73.1061 36.0107 0.0000 0.0000 0.0000
# 3 19.9095 36.0107 42.1809 0.0000 0.0000 0.0000
# 4 0.0000 0.0000 0.0000 23.2154 0.0000 0.0000
# 5 0.0000 0.0000 0.0000 0.0000 12.5547 0.0000
# 6 0.0000 0.0000 0.0000 0.0000 0.0000 28.5376
#
#
#
# Elastic Compliance Matrix: (Units=1/GPa)
#
#
# Indices 1 2 3 4 5 6 
#
# 1 0.029847 0.007399 -0.020405 0.000000 0.000000 0.000000
# 2 0.007399 0.025440 -0.025211 0.000000 0.000000 0.000000
# 3 -0.020405 -0.025211 0.054861 0.000000 0.000000 0.000000
# 4 0.000000 0.000000 0.000000 0.043075 0.000000 0.000000
# 5 0.000000 0.000000 0.000000 0.000000 0.079651 0.000000
# 6 0.000000 0.000000 0.000000 0.000000 0.000000 0.035041
#
#
# Mechanical properties :
#
#
# Convention : Reuss Voigt Hill
#
# Bulk Modulus (GPa) = 29.65995 31.73592 30.69793
# Shear Modulus (GPa) = 14.06126 19.41994 16.74060
#
# Velocity S-wave (km/s) = 2.66660 3.13379 2.90959
# Velocity P-wave (km/s) = 4.94774 5.39843 5.17799
#
# Compressibility (1/GPa) = 0.03371549
#
# Stress axis : x y z
#
# Youngs Moduli (GPa) = 33.50398 39.30871 18.22778
#
# Poissons Ratio (x) = -0.29084 0.37193
# Poissons Ratio (y) = -0.24790 0.45953
# Poissons Ratio (z) = 0.68364 0.99100
#
# Static dielectric constant tensor:
#      x y z
#    x 1.717590 0.000000 0.000000 
#    y 0.000000 1.714910 0.000000 
#    z 0.000000 0.000000 1.667520 
# 
# From -- ./inp_files/4581.got.cif
#   From: 2010.05.17/outbox.cif.g08.bks.cpg/sg52_3_cif.got.tgz:4581.got - 2010.06.03 12:15:38.
