data_PCOD9410609
_publ_section_title
;
Structure prediction by ZEFSAII (Michael W. Deem and Ramdas Pophale) SiO2 
 PCOD9410609
Probable space group: P N N A
;
_chemical_formula_sum "Si O2"
_cell_formula_units_Z 32
_cell_length_a 27.123747
_cell_length_b 9.099214
_cell_length_c 5.285726
_cell_angle_alpha 90.000000
_cell_angle_beta 90.000000
_cell_angle_gamma 90.000000
_cell_volume 1304.542434
_symmetry_space_group_name_H-M "P N N A"
_symmetry_group_IT_number 52
_symmetry_cell_setting 'orthorhombic'
loop_
_space_group_symop_operation_xyz
x,y,z
1/2-x,-y,z
x,1/2-y,1/2-z
1/2-x,1/2+y,1/2-z
-x,-y,-z
1/2+x,y,-z
-x,1/2+y,1/2+z
1/2+x,1/2-y,1/2+z
loop_
_atom_site_type_symbol
_atom_site_label
_atom_site_fract_x
_atom_site_fract_y
_atom_site_fract_z
Si Si1 0.000249 0.324201 0.001203
Si Si2 0.609909 0.307187 0.506812
Si Si3 0.300903 0.075264 0.737612
Si Si4 0.358841 0.424165 0.265790
O O1 0.978867 0.250000 0.750000
O O2 0.977202 0.250000 0.250000
O O3 0.057604 0.275689 0.000851
O O4 0.000000 0.500000 0.000000
O O5 0.639469 0.250000 0.750000
O O6 0.599899 0.475550 0.593728
O O7 0.634425 0.250000 0.250000
O O8 0.294881 0.250000 0.750000
O O9 0.341791 0.040715 0.520804
O O10 0.250000 0.000000 0.668145
O O11 0.316828 0.038605 0.024859
O O12 0.368036 0.250000 0.250000
#
# Coordination Sequence:
#
# PCOD9410609 Si02
#       4
#     8   8   8   8
#     4  10  21  40  64  93 127 163 207 259 313 379
#     4  10  21  38  59  88 118 157 206 253 312 375
#     4  10  21  36  56  85 117 157 203 254 312 370
#     4  10  21  38  58  82 119 159 205 258 311 372
#
# _framework density 24.529675000000001
#
# number of rings (size 3 to 8) (size 9 to 14) (size 15 to 20)
#    0.000    2.000    0.000    3.000    0.000    3.000 
#    0.000   15.000    0.000    0.000    0.000    0.000 
#    0.000    0.000    0.000    0.000    0.000    0.000 
#
# Total GULP energy -178366.343384 kJ/mol
# GULP energy per Si atom -5573.948231 kJ/mol
# Density = 2.447384 g / cm^3
# Si number density = 24.529675 Si / 1000 Ang^3
#
#
#
# Elastic Constant Matrix: (Units=GPa)
#
#
# Indices 1 2 3 4 5 6 
#
# 1 48.1146 37.8680 6.1110 0.0000 0.0000 0.0000
# 2 37.8680 189.7813 89.2622 0.0000 0.0000 0.0000
# 3 6.1110 89.2622 242.8695 0.0000 0.0000 0.0000
# 4 0.0000 0.0000 0.0000 43.1104 0.0000 0.0000
# 5 0.0000 0.0000 0.0000 0.0000 -0.7022 0.0000
# 6 0.0000 0.0000 0.0000 0.0000 0.0000 35.7100
#
#
#
# Elastic Compliance Matrix: (Units=1/GPa)
#
#
# Indices 1 2 3 4 5 6 
#
# 1 0.025077 -0.005691 0.001461 0.000000 0.000000 0.000000
# 2 -0.005691 0.007662 -0.002673 0.000000 0.000000 0.000000
# 3 0.001461 -0.002673 0.005063 0.000000 0.000000 0.000000
# 4 0.000000 0.000000 0.000000 0.023196 0.000000 0.000000
# 5 0.000000 0.000000 0.000000 0.000000 -1.424058 0.000000
# 6 0.000000 0.000000 0.000000 0.000000 0.000000 0.028003
#
#
# Mechanical properties :
#
#
# Convention : Reuss Voigt Hill
#
# Bulk Modulus (GPa) = 41.67364 83.02751 62.35057
# Shear Modulus (GPa) = -3.80734 38.79192 17.49229
#
# Velocity S-wave (km/s) = -1.24720 3.98103 2.67330
# Velocity P-wave (km/s) = 3.86677 7.41975 5.91628
#
# Compressibility (1/GPa) = 0.02399599
#
# Stress axis : x y z
#
# Youngs Moduli (GPa) = 39.87718 130.51702 197.51058
#
# Poissons Ratio (x) = 0.74273 -0.28847
# Poissons Ratio (y) = 0.22693 0.52790
# Poissons Ratio (z) = -0.05824 0.34884
#
# Static dielectric constant tensor:
#      x y z
#    x 2.043230 0.000000 0.000000 
#    y 0.000000 2.748600 0.000000 
#    z 0.000000 0.000000 2.117780 
# 
# From -- ./inp_files/6215.got.cif
#   From: 2010.05.17/outbox.cif.g08.bks.cpg/sg52_4_cif.got.tgz:6215.got - 2010.06.03 12:15:38.
