data_PCOD9410909
_publ_section_title
;
Structure prediction by ZEFSAII (Michael W. Deem and Ramdas Pophale) SiO2 
 PCOD9410909
Probable space group: P N N A
;
_chemical_formula_sum "Si O2"
_cell_formula_units_Z 40
_cell_length_a 23.633481
_cell_length_b 13.876786
_cell_length_c 6.185145
_cell_angle_alpha 90.000000
_cell_angle_beta 90.000000
_cell_angle_gamma 90.000000
_cell_volume 2028.460104
_symmetry_space_group_name_H-M "P N N A"
_symmetry_group_IT_number 52
_symmetry_cell_setting 'orthorhombic'
loop_
_space_group_symop_operation_xyz
x,y,z
1/2-x,-y,z
x,1/2-y,1/2-z
1/2-x,1/2+y,1/2-z
-x,-y,-z
1/2+x,y,-z
-x,1/2+y,1/2+z
1/2+x,1/2-y,1/2+z
loop_
_atom_site_type_symbol
_atom_site_label
_atom_site_fract_x
_atom_site_fract_y
_atom_site_fract_z
Si Si1 0.750000 0.500000 0.082328
Si Si2 0.420451 0.378550 0.007778
Si Si3 0.304455 0.353608 0.245318
Si Si4 0.000626 0.250000 0.250000
Si Si5 0.049570 0.458501 0.346720
Si Si6 0.850132 0.026536 0.125993
O O1 0.804183 0.527435 0.227400
O O2 0.729510 0.582628 0.922751
O O3 0.367504 0.344737 0.148089
O O4 0.446970 0.468986 0.139964
O O5 0.461241 0.290108 0.945771
O O6 0.393300 0.417479 0.784195
O O7 0.277132 0.250000 0.250000
O O8 0.313269 0.401586 0.477861
O O9 0.035465 0.346897 0.302118
O O10 0.109951 0.466470 0.466595
O O11 0.000000 0.500000 0.500000
#
# Coordination Sequence:
#
# PCOD9410909 Si02
#       6
#     4   8   8   4   8   8
#     4  10  22  40  70  88 128 166 214 274 330 388
#     4  10  22  39  62  98 126 167 221 268 317 392
#     4  10  21  38  69  95 119 162 223 271 328 384
#     4  12  22  38  66  96 130 176 212 256 330 386
#     4  11  24  40  63  95 138 171 213 270 324 397
#     4  10  21  43  66  89 131 167 208 279 323 378
#
# _framework density 19.719391999999999
#
# number of rings (size 3 to 8) (size 9 to 14) (size 15 to 20)
#    0.000    1.600    2.000    2.400    2.800    2.400 
#    0.000    0.000   52.800    0.000    0.000    0.000 
#    0.000    0.000    0.000    0.000    0.000    0.000 
#
# Total GULP energy -223221.865206 kJ/mol
# GULP energy per Si atom -5580.546630 kJ/mol
# Density = 1.967451 g / cm^3
# Si number density = 19.719392 Si / 1000 Ang^3
#
#
#
# Elastic Constant Matrix: (Units=GPa)
#
#
# Indices 1 2 3 4 5 6 
#
# 1 79.7426 58.4564 40.2882 0.0000 0.0000 0.0000
# 2 58.4564 152.2773 58.8323 0.0000 0.0000 0.0000
# 3 40.2882 58.8323 111.4732 0.0000 0.0000 0.0000
# 4 0.0000 0.0000 0.0000 11.8080 0.0000 0.0000
# 5 0.0000 0.0000 0.0000 0.0000 24.0002 0.0000
# 6 0.0000 0.0000 0.0000 0.0000 0.0000 13.4071
#
#
#
# Elastic Compliance Matrix: (Units=1/GPa)
#
#
# Indices 1 2 3 4 5 6 
#
# 1 0.018598 -0.005706 -0.003710 0.000000 0.000000 0.000000
# 2 -0.005706 0.010000 -0.003215 0.000000 0.000000 0.000000
# 3 -0.003710 -0.003215 0.012009 0.000000 0.000000 0.000000
# 4 0.000000 0.000000 0.000000 0.084688 0.000000 0.000000
# 5 0.000000 0.000000 0.000000 0.000000 0.041666 0.000000
# 6 0.000000 0.000000 0.000000 0.000000 0.000000 0.074587
#
#
# Mechanical properties :
#
#
# Convention : Reuss Voigt Hill
#
# Bulk Modulus (GPa) = 65.17521 73.18299 69.17910
# Shear Modulus (GPa) = 18.38745 22.23747 20.31246
#
# Velocity S-wave (km/s) = 3.05693 3.36176 3.21296
# Velocity P-wave (km/s) = 6.75150 7.22920 6.99443
#
# Compressibility (1/GPa) = 0.01534326
#
# Stress axis : x y z
#
# Youngs Moduli (GPa) = 53.77055 100.00428 83.27384
#
# Poissons Ratio (x) = 0.57061 0.30895
# Poissons Ratio (y) = 0.30681 0.26775
# Poissons Ratio (z) = 0.19949 0.32154
#
# Static dielectric constant tensor:
#      x y z
#    x 1.711140 0.000000 0.000000 
#    y 0.000000 0.872830 0.000000 
#    z 0.000000 0.000000 1.725600 
# 
# From -- ./inp_files/5621.got.cif
#   From: 2010.05.17/outbox.cif.g08.bks.cpg/sg52_3_cif.got.tgz:5621.got - 2010.06.03 12:15:38.
