data_PCOD9410555
_publ_section_title
;
Structure prediction by ZEFSAII (Michael W. Deem and Ramdas Pophale) SiO2 
 PCOD9410555
Probable space group: P N N A
;
_chemical_formula_sum "Si O2"
_cell_formula_units_Z 48
_cell_length_a 9.516081
_cell_length_b 8.919799
_cell_length_c 28.536528
_cell_angle_alpha 90.000000
_cell_angle_beta 90.000000
_cell_angle_gamma 90.000000
_cell_volume 2422.224151
_symmetry_space_group_name_H-M "P N N A"
_symmetry_group_IT_number 52
_symmetry_cell_setting 'orthorhombic'
loop_
_space_group_symop_operation_xyz
x,y,z
1/2-x,-y,z
x,1/2-y,1/2-z
1/2-x,1/2+y,1/2-z
-x,-y,-z
1/2+x,y,-z
-x,1/2+y,1/2+z
1/2+x,1/2-y,1/2+z
loop_
_atom_site_type_symbol
_atom_site_label
_atom_site_fract_x
_atom_site_fract_y
_atom_site_fract_z
Si Si1 0.121674 0.615003 0.984157
Si Si2 0.283974 0.326091 0.702989
Si Si3 0.612633 0.248992 0.802812
Si Si4 0.917555 0.251374 0.578586
Si Si5 0.234045 0.174837 0.605167
Si Si6 0.250000 0.500000 0.368782
Si Si7 0.750000 0.000000 0.637986
O O1 0.250000 0.500000 0.984732
O O2 0.138862 0.692155 0.932970
O O3 0.127268 0.737867 0.024606
O O4 0.000000 0.500000 0.000000
O O5 0.250000 0.500000 0.706194
O O6 0.223208 0.250000 0.750000
O O7 0.449030 0.288150 0.701713
O O8 0.233603 0.265285 0.653194
O O9 0.672928 0.250000 0.750000
O O10 0.678272 0.121248 0.835211
O O11 0.645758 0.404578 0.829016
O O12 0.863273 0.406719 0.600708
O O13 0.083892 0.218048 0.582385
O O14 0.837491 0.116422 0.606156
O O15 0.250000 0.000000 0.618202
#
# Coordination Sequence:
#
# PCOD9410555 Si02
#       7
#     8   8   8   8   8   4   4
#     4  11  21  37  63  93 122 164 216 267 319 392
#     4  11  24  42  64  93 129 170 214 268 331 399
#     4  10  21  39  60  89 121 163 214 264 325 390
#     4  11  21  39  58  92 123 169 209 268 320 395
#     4  11  22  39  65  91 127 162 222 267 328 383
#     4  10  23  38  60  88 132 158 207 266 332 390
#     4  10  21  34  64  84 122 166 211 262 322 378
#
# _framework density 19.816496000000001
#
# number of rings (size 3 to 8) (size 9 to 14) (size 15 to 20)
#    0.000    1.333    4.167    3.000    0.000    1.333 
#    1.500    5.000    0.000    0.000    0.000    0.000 
#    0.000    0.000    0.000    0.000    0.000    0.000 
#
# Total GULP energy -267695.363319 kJ/mol
# GULP energy per Si atom -5576.986736 kJ/mol
# Density = 1.977139 g / cm^3
# Si number density = 19.816496 Si / 1000 Ang^3
#
#
#
# Elastic Constant Matrix: (Units=GPa)
#
#
# Indices 1 2 3 4 5 6 
#
# 1 51.8207 10.2450 7.1977 0.0000 0.0000 0.0000
# 2 10.2450 115.1756 59.8219 0.0000 0.0000 0.0000
# 3 7.1977 59.8219 164.3967 0.0000 0.0000 0.0000
# 4 0.0000 0.0000 0.0000 38.0472 0.0000 0.0000
# 5 0.0000 0.0000 0.0000 0.0000 25.5035 0.0000
# 6 0.0000 0.0000 0.0000 0.0000 0.0000 26.1988
#
#
#
# Elastic Compliance Matrix: (Units=1/GPa)
#
#
# Indices 1 2 3 4 5 6 
#
# 1 0.019653 -0.001604 -0.000277 0.000000 0.000000 0.000000
# 2 -0.001604 0.010837 -0.003873 0.000000 0.000000 0.000000
# 3 -0.000277 -0.003873 0.007504 0.000000 0.000000 0.000000
# 4 0.000000 0.000000 0.000000 0.026283 0.000000 0.000000
# 5 0.000000 0.000000 0.000000 0.000000 0.039210 0.000000
# 6 0.000000 0.000000 0.000000 0.000000 0.000000 0.038170
#
#
# Mechanical properties :
#
#
# Convention : Reuss Voigt Hill
#
# Bulk Modulus (GPa) = 37.75630 53.99135 45.87383
# Shear Modulus (GPa) = 30.86531 34.89180 32.87856
#
# Velocity S-wave (km/s) = 3.95087 4.20068 4.07769
# Velocity P-wave (km/s) = 6.31719 7.12968 6.73570
#
# Compressibility (1/GPa) = 0.02648564
#
# Stress axis : x y z
#
# Youngs Moduli (GPa) = 50.88304 92.27813 133.25627
#
# Poissons Ratio (x) = 0.14806 0.03686
# Poissons Ratio (y) = 0.08164 0.51612
# Poissons Ratio (z) = 0.01407 0.35740
#
# Static dielectric constant tensor:
#      x y z
#    x 1.788180 0.000000 0.000000 
#    y 0.000000 3.219750 0.000000 
#    z 0.000000 0.000000 1.790090 
# 
# From -- ./inp_files/44437.got.cif
#   From: 2010.05.17/outbox.cif.g08.bks.cpg/sg52_23_cif.got.tgz:44437.got - 2010.06.03 12:15:38.
