data_PCOD9410689
_publ_section_title
;
Structure prediction by ZEFSAII (Michael W. Deem and Ramdas Pophale) SiO2 
 PCOD9410689
Probable space group: P N N A
;
_chemical_formula_sum "Si O2"
_cell_formula_units_Z 64
_cell_length_a 22.910493
_cell_length_b 16.695206
_cell_length_c 8.179709
_cell_angle_alpha 90.000000
_cell_angle_beta 90.000000
_cell_angle_gamma 90.000000
_cell_volume 3128.701067
_symmetry_space_group_name_H-M "P N N A"
_symmetry_group_IT_number 52
_symmetry_cell_setting 'orthorhombic'
loop_
_space_group_symop_operation_xyz
x,y,z
1/2-x,-y,z
x,1/2-y,1/2-z
1/2-x,1/2+y,1/2-z
-x,-y,-z
1/2+x,y,-z
-x,1/2+y,1/2+z
1/2+x,1/2-y,1/2+z
loop_
_atom_site_type_symbol
_atom_site_label
_atom_site_fract_x
_atom_site_fract_y
_atom_site_fract_z
Si Si1 0.116167 0.756084 0.428987
Si Si2 0.083623 0.455166 0.430079
Si Si3 0.465317 0.377267 0.551837
Si Si4 0.419023 0.555004 0.039648
Si Si5 0.539156 0.886440 0.429018
Si Si6 0.261180 0.251131 0.561220
Si Si7 0.213610 0.078704 0.955714
Si Si8 0.785774 0.920253 0.440947
O O1 0.142772 0.750000 0.250000
O O2 0.066371 0.689964 0.448920
O O3 0.083962 0.838871 0.460425
O O4 0.169016 0.744228 0.552503
O O5 0.065810 0.538736 0.512367
O O6 0.079840 0.464099 0.233635
O O7 0.147566 0.430733 0.485246
O O8 0.033725 0.391437 0.479243
O O9 0.457335 0.357382 0.742873
O O10 0.471665 0.618338 0.015434
O O11 0.440271 0.478264 0.937428
O O12 0.353530 0.576671 0.991690
O O13 0.241873 0.250000 0.750000
O O14 0.237420 0.334457 0.487506
O O15 0.241382 0.163872 0.496067
O O16 0.216620 0.078625 0.757407
O O17 0.250000 0.000000 0.011146
O O18 0.750000 0.000000 0.496078
#
# Coordination Sequence:
#
# PCOD9410689 Si02
#       8
#     8   8   8   8   8   8   8   8
#     4  12  24  37  58  87 115 146 190 240 287 336
#     4  10  21  37  59  86 113 146 191 239 286 337
#     4  10  21  38  59  83 115 152 187 230 288 349
#     4  10  21  37  59  86 113 146 191 239 286 337
#     4  10  21  38  59  83 115 152 187 230 288 349
#     4  10  22  39  58  83 115 154 198 238 287 354
#     4  10  21  37  58  83 115 157 196 235 290 351
#     4  10  21  37  58  83 115 157 196 235 290 351
#
# _framework density 20.455772
#
# number of rings (size 3 to 8) (size 9 to 14) (size 15 to 20)
#    0.000    1.750    0.000    4.125    0.000    7.500 
#    0.000    2.500    0.000    0.000    0.000    0.000 
#    0.000    0.000    0.000    0.000    0.000    0.000 
#
# Total GULP energy -357280.145082 kJ/mol
# GULP energy per Si atom -5582.502267 kJ/mol
# Density = 2.040921 g / cm^3
# Si number density = 20.455772 Si / 1000 Ang^3
#
#
#
# Elastic Constant Matrix: (Units=GPa)
#
#
# Indices 1 2 3 4 5 6 
#
# 1 110.3154 35.8355 -3.9536 0.0000 0.0000 0.0000
# 2 35.8355 82.6436 6.3380 0.0000 0.0000 0.0000
# 3 -3.9536 6.3380 18.3199 0.0000 0.0000 0.0000
# 4 0.0000 0.0000 0.0000 15.3395 0.0000 0.0000
# 5 0.0000 0.0000 0.0000 0.0000 32.4920 0.0000
# 6 0.0000 0.0000 0.0000 0.0000 0.0000 24.9590
#
#
#
# Elastic Compliance Matrix: (Units=1/GPa)
#
#
# Indices 1 2 3 4 5 6 
#
# 1 0.010839 -0.005012 0.004073 0.000000 0.000000 0.000000
# 2 -0.005012 0.014748 -0.006184 0.000000 0.000000 0.000000
# 3 0.004073 -0.006184 0.057604 0.000000 0.000000 0.000000
# 4 0.000000 0.000000 0.000000 0.065191 0.000000 0.000000
# 5 0.000000 0.000000 0.000000 0.000000 0.030777 0.000000
# 6 0.000000 0.000000 0.000000 0.000000 0.000000 0.040066
#
#
# Mechanical properties :
#
#
# Convention : Reuss Voigt Hill
#
# Bulk Modulus (GPa) = 14.50435 31.96875 23.23655
# Shear Modulus (GPa) = 19.49679 26.09537 22.79608
#
# Velocity S-wave (km/s) = 3.09061 3.57556 3.34190
# Velocity P-wave (km/s) = 4.45442 5.71912 5.12592
#
# Compressibility (1/GPa) = 0.06894484
#
# Stress axis : x y z
#
# Youngs Moduli (GPa) = 92.25805 67.80649 17.35992
#
# Poissons Ratio (x) = 0.33987 -0.07071
# Poissons Ratio (y) = 0.46243 0.10735
# Poissons Ratio (z) = -0.37580 0.41931
#
# Static dielectric constant tensor:
#      x y z
#    x 1.689210 0.000000 0.000000 
#    y 0.000000 1.750540 0.000000 
#    z 0.000000 0.000000 1.723490 
# 
# From -- ./inp_files/13586.got.cif
#   From: 2010.05.17/outbox.cif.g08.bks.cpg/sg52_7_cif.got.tgz:13586.got - 2010.06.03 12:15:38.
