data_PCOD9410598
_publ_section_title
;
Structure prediction by ZEFSAII (Michael W. Deem and Ramdas Pophale) SiO2 
 PCOD9410598
Probable space group: P N N A
;
_chemical_formula_sum "Si O2"
_cell_formula_units_Z 40
_cell_length_a 23.132140
_cell_length_b 7.330495
_cell_length_c 11.444104
_cell_angle_alpha 90.000000
_cell_angle_beta 90.000000
_cell_angle_gamma 90.000000
_cell_volume 1940.577134
_symmetry_space_group_name_H-M "P N N A"
_symmetry_group_IT_number 52
_symmetry_cell_setting 'orthorhombic'
loop_
_space_group_symop_operation_xyz
x,y,z
1/2-x,-y,z
x,1/2-y,1/2-z
1/2-x,1/2+y,1/2-z
-x,-y,-z
1/2+x,y,-z
-x,1/2+y,1/2+z
1/2+x,1/2-y,1/2+z
loop_
_atom_site_type_symbol
_atom_site_label
_atom_site_fract_x
_atom_site_fract_y
_atom_site_fract_z
Si Si1 0.314342 0.034479 0.116445
Si Si2 0.317620 0.031252 0.382246
Si Si3 0.943343 0.077505 0.565490
Si Si4 0.577233 0.000913 0.008990
Si Si5 0.499396 0.555665 0.297827
O O1 0.321761 0.960061 0.248366
O O2 0.357123 0.959825 0.019432
O O3 0.250000 0.000000 0.079476
O O4 0.457374 0.900239 0.093929
O O5 0.322432 0.249488 0.375498
O O6 0.250000 0.000000 0.421768
O O7 0.379155 0.983820 0.445364
O O8 0.963466 0.053566 0.700718
O O9 0.934562 0.285763 0.521383
O O10 0.000000 0.000000 0.500000
O O11 0.552295 0.043392 0.136295
O O12 0.519902 0.750000 0.250000
#
# Coordination Sequence:
#
# PCOD9410598 Si02
#       5
#     8   8   8   8   8
#     4   9  17  32  52  73 104 142 176 223 279 321
#     4   9  18  32  50  76 107 140 177 223 273 329
#     4  11  20  36  56  80 117 149 175 227 282 326
#     4  10  21  36  54  80 115 144 178 233 275 332
#     4  11  21  34  53  83 108 145 186 221 277 330
#
# _framework density 20.612425000000002
#
# number of rings (size 3 to 8) (size 9 to 14) (size 15 to 20)
#    0.000    2.000    4.000    0.600    0.000    1.600 
#    0.000    0.000    0.000    1.200    0.000    0.000 
#    0.000    0.000    0.000    0.000    0.000    0.000 
#
# Total GULP energy -222712.749220 kJ/mol
# GULP energy per Si atom -5567.818730 kJ/mol
# Density = 2.056551 g / cm^3
# Si number density = 20.612425 Si / 1000 Ang^3
#
#
#
# Elastic Constant Matrix: (Units=GPa)
#
#
# Indices 1 2 3 4 5 6 
#
# 1 201.0735 3.4328 42.0167 0.0000 0.0000 0.0000
# 2 3.4328 42.4764 9.1242 0.0000 0.0000 0.0000
# 3 42.0167 9.1242 57.9670 0.0000 0.0000 0.0000
# 4 0.0000 0.0000 0.0000 20.2684 0.0000 0.0000
# 5 0.0000 0.0000 0.0000 0.0000 25.6119 0.0000
# 6 0.0000 0.0000 0.0000 0.0000 0.0000 22.7136
#
#
#
# Elastic Compliance Matrix: (Units=1/GPa)
#
#
# Indices 1 2 3 4 5 6 
#
# 1 0.005870 0.000455 -0.004326 0.000000 0.000000 0.000000
# 2 0.000455 0.024402 -0.004171 0.000000 0.000000 0.000000
# 3 -0.004326 -0.004171 0.021043 0.000000 0.000000 0.000000
# 4 0.000000 0.000000 0.000000 0.049338 0.000000 0.000000
# 5 0.000000 0.000000 0.000000 0.000000 0.039044 0.000000
# 6 0.000000 0.000000 0.000000 0.000000 0.000000 0.044027
#
#
# Mechanical properties :
#
#
# Convention : Reuss Voigt Hill
#
# Bulk Modulus (GPa) = 28.38419 45.62938 37.00678
# Shear Modulus (GPa) = 23.63503 30.18166 26.90835
#
# Velocity S-wave (km/s) = 3.38988 3.83070 3.61701
# Velocity P-wave (km/s) = 5.39648 6.46147 5.95284
#
# Compressibility (1/GPa) = 0.03523088
#
# Stress axis : x y z
#
# Youngs Moduli (GPa) = 170.37169 40.98096 47.52094
#
# Poissons Ratio (x) = -0.01864 0.20558
# Poissons Ratio (y) = -0.07751 0.19819
# Poissons Ratio (z) = 0.73704 0.17092
#
# Static dielectric constant tensor:
#      x y z
#    x 1.828690 0.000000 0.000000 
#    y 0.000000 1.886820 0.000000 
#    z 0.000000 0.000000 1.748700 
# 
# From -- ./inp_files/27016.got.cif
#   From: 2010.05.17/outbox.cif.g08.bks.cpg/sg52_14_cif.got.tgz:27016.got - 2010.06.03 12:15:38.
