data_PCOD9410281
_publ_section_title
;
Structure prediction by ZEFSAII (Michael W. Deem and Ramdas Pophale) SiO2 
 PCOD9410281
Probable space group: P N N A
;
_chemical_formula_sum "Si O2"
_cell_formula_units_Z 32
_cell_length_a 16.851682
_cell_length_b 6.737997
_cell_length_c 11.461552
_cell_angle_alpha 90.000000
_cell_angle_beta 90.000000
_cell_angle_gamma 90.000000
_cell_volume 1301.420063
_symmetry_space_group_name_H-M "P N N A"
_symmetry_group_IT_number 52
_symmetry_cell_setting 'orthorhombic'
loop_
_space_group_symop_operation_xyz
x,y,z
1/2-x,-y,z
x,1/2-y,1/2-z
1/2-x,1/2+y,1/2-z
-x,-y,-z
1/2+x,y,-z
-x,1/2+y,1/2+z
1/2+x,1/2-y,1/2+z
loop_
_atom_site_type_symbol
_atom_site_label
_atom_site_fract_x
_atom_site_fract_y
_atom_site_fract_z
Si Si1 0.327179 0.873116 0.514001
Si Si2 0.401934 0.275886 0.494334
Si Si3 0.250000 0.500000 0.490568
Si Si4 0.409014 0.750000 0.750000
Si Si5 0.528659 0.071957 0.824201
O O1 0.296223 0.689758 0.434979
O O2 0.360015 0.773808 0.631537
O O3 0.250000 0.000000 0.543417
O O4 0.387380 0.043733 0.471712
O O5 0.323043 0.378666 0.550409
O O6 0.479043 0.320944 0.571716
O O7 0.415692 0.402338 0.377362
O O8 0.462803 0.553553 0.745097
O O9 0.564140 0.250000 0.750000
#
# Coordination Sequence:
#
# PCOD9410281 Si02
#       5
#     8   8   4   4   8
#     4  10  22  34  57  91 126 166 217 275 347 419
#     4  10  22  40  62  88 129 171 220 277 342 415
#     4  10  20  40  62  90 120 172 212 278 338 408
#     4  12  22  34  56  90 128 164 216 268 350 412
#     4  11  23  39  60  93 128 172 220 277 341 415
#
# _framework density 24.588526999999999
#
# number of rings (size 3 to 8) (size 9 to 14) (size 15 to 20)
#    0.000    1.500    5.000    0.000    1.750    3.000 
#    0.000    0.000    2.750    0.000    0.000    0.000 
#    0.000    0.000    0.000    0.000    0.000    0.000 
#
# Total GULP energy -178386.333221 kJ/mol
# GULP energy per Si atom -5574.572913 kJ/mol
# Density = 2.453256 g / cm^3
# Si number density = 24.588527 Si / 1000 Ang^3
#
#
#
# Elastic Constant Matrix: (Units=GPa)
#
#
# Indices 1 2 3 4 5 6 
#
# 1 57.7045 52.1083 26.1113 0.0000 0.0000 0.0000
# 2 52.1083 252.9814 49.8348 0.0000 0.0000 0.0000
# 3 26.1113 49.8348 44.4785 0.0000 0.0000 0.0000
# 4 0.0000 0.0000 0.0000 41.7991 0.0000 0.0000
# 5 0.0000 0.0000 0.0000 0.0000 -5.4272 0.0000
# 6 0.0000 0.0000 0.0000 0.0000 0.0000 70.3435
#
#
#
# Elastic Compliance Matrix: (Units=1/GPa)
#
#
# Indices 1 2 3 4 5 6 
#
# 1 0.025172 -0.002918 -0.011508 0.000000 0.000000 0.000000
# 2 -0.002918 0.005411 -0.004349 0.000000 0.000000 0.000000
# 3 -0.011508 -0.004349 0.034112 0.000000 0.000000 0.000000
# 4 0.000000 0.000000 0.000000 0.023924 0.000000 0.000000
# 5 0.000000 0.000000 0.000000 0.000000 -0.184258 0.000000
# 6 0.000000 0.000000 0.000000 0.000000 0.000000 0.014216
#
#
# Mechanical properties :
#
#
# Convention : Reuss Voigt Hill
#
# Bulk Modulus (GPa) = 36.84070 67.91923 52.37997
# Shear Modulus (GPa) = -143.57387 36.48376 -53.54506
#
# Velocity S-wave (km/s) = -7.64966 3.85615 -4.67159
# Velocity P-wave (km/s) = 7.93774 6.89267 2.78378
#
# Compressibility (1/GPa) = 0.02714389
#
# Stress axis : x y z
#
# Youngs Moduli (GPa) = 39.72672 184.82113 29.31551
#
# Poissons Ratio (x) = 0.53928 0.33736
# Poissons Ratio (y) = 0.11592 0.12750
# Poissons Ratio (z) = 0.45718 0.80384
#
# Static dielectric constant tensor:
#      x y z
#    x 2.044200 0.000000 0.000000 
#    y 0.000000 1.957920 0.000000 
#    z 0.000000 0.000000 2.017910 
# 
# From -- ./inp_files/21211.got.cif
#   From: 2010.05.17/outbox.cif.g08.bks.cpg/sg52_11_cif.got.tgz:21211.got - 2010.06.03 12:15:38.
