data_PCOD9410306
_publ_section_title
;
Structure prediction by ZEFSAII (Michael W. Deem and Ramdas Pophale) SiO2 
 PCOD9410306
Probable space group: P N N A
;
_chemical_formula_sum "Si O2"
_cell_formula_units_Z 32
_cell_length_a 14.929868
_cell_length_b 13.945199
_cell_length_c 7.616865
_cell_angle_alpha 90.000000
_cell_angle_beta 90.000000
_cell_angle_gamma 90.000000
_cell_volume 1585.831143
_symmetry_space_group_name_H-M "P N N A"
_symmetry_group_IT_number 52
_symmetry_cell_setting 'orthorhombic'
loop_
_space_group_symop_operation_xyz
x,y,z
1/2-x,-y,z
x,1/2-y,1/2-z
1/2-x,1/2+y,1/2-z
-x,-y,-z
1/2+x,y,-z
-x,1/2+y,1/2+z
1/2+x,1/2-y,1/2+z
loop_
_atom_site_type_symbol
_atom_site_label
_atom_site_fract_x
_atom_site_fract_y
_atom_site_fract_z
Si Si1 0.106414 0.013371 0.500701
Si Si2 0.370732 0.363784 0.252109
Si Si3 0.574178 0.360951 0.318365
Si Si4 0.322391 0.859257 0.180221
O O1 0.857519 0.091033 0.556835
O O2 0.124686 0.069203 0.680509
O O3 0.137697 0.077752 0.337496
O O4 0.000000 0.000000 0.500000
O O5 0.373868 0.250000 0.250000
O O6 0.468892 0.391723 0.323170
O O7 0.280622 0.389565 0.355355
O O8 0.578196 0.250000 0.250000
O O9 0.618181 0.366527 0.507740
O O10 0.322058 0.750000 0.250000
#
# Coordination Sequence:
#
# PCOD9410306 Si02
#       4
#     8   8   8   8
#     4  10  21  39  64  90 124 167 210 263 317 375
#     4   9  21  39  61  90 128 169 212 264 319 379
#     4  10  20  40  65  91 123 167 215 258 321 393
#     4  11  21  39  66  93 129 168 207 269 327 377
#
# _framework density 20.178694
#
# number of rings (size 3 to 8) (size 9 to 14) (size 15 to 20)
#    0.000    2.000    2.500    0.750    0.000    4.000 
#    0.000   13.750    0.000    0.000    0.000    0.000 
#    0.000    0.000    0.000    0.000    0.000    0.000 
#
# Total GULP energy -178330.571751 kJ/mol
# GULP energy per Si atom -5572.830367 kJ/mol
# Density = 2.013277 g / cm^3
# Si number density = 20.178694 Si / 1000 Ang^3
#
#
#
# Elastic Constant Matrix: (Units=GPa)
#
#
# Indices 1 2 3 4 5 6 
#
# 1 136.4070 18.6157 74.4136 0.0000 0.0000 0.0000
# 2 18.6157 107.0323 39.5312 0.0000 0.0000 0.0000
# 3 74.4136 39.5312 141.5771 0.0000 0.0000 0.0000
# 4 0.0000 0.0000 0.0000 36.5267 0.0000 0.0000
# 5 0.0000 0.0000 0.0000 0.0000 16.1822 0.0000
# 6 0.0000 0.0000 0.0000 0.0000 0.0000 172.7593
#
#
#
# Elastic Compliance Matrix: (Units=1/GPa)
#
#
# Indices 1 2 3 4 5 6 
#
# 1 0.010283 0.000232 -0.005470 0.000000 0.000000 0.000000
# 2 0.000232 0.010422 -0.003032 0.000000 0.000000 0.000000
# 3 -0.005470 -0.003032 0.010785 0.000000 0.000000 0.000000
# 4 0.000000 0.000000 0.000000 0.027377 0.000000 0.000000
# 5 0.000000 0.000000 0.000000 0.000000 0.061796 0.000000
# 6 0.000000 0.000000 0.000000 0.000000 0.000000 0.005788
#
#
# Mechanical properties :
#
#
# Convention : Reuss Voigt Hill
#
# Bulk Modulus (GPa) = 66.88675 72.23750 69.56212
# Shear Modulus (GPa) = 33.78939 61.92403 47.85671
#
# Velocity S-wave (km/s) = 4.09651 5.54567 4.87524
# Velocity P-wave (km/s) = 7.45617 8.76827 8.13870
#
# Compressibility (1/GPa) = 0.01495064
#
# Stress axis : x y z
#
# Youngs Moduli (GPa) = 97.24614 95.94629 92.72401
#
# Poissons Ratio (x) = -0.02222 0.50716
# Poissons Ratio (y) = -0.02252 0.28113
# Poissons Ratio (z) = 0.53189 0.29090
#
# Static dielectric constant tensor:
#      x y z
#    x 1.740470 0.000000 0.000000 
#    y 0.000000 1.803810 0.000000 
#    z 0.000000 0.000000 1.712220 
# 
# From -- ./inp_files/2021.got.cif
#   From: 2010.05.17/outbox.cif.g08.bks.cpg/sg52_2_cif.got.tgz:2021.got - 2010.06.03 12:15:38.
