data_PCOD9410107
_publ_section_title
;
Structure prediction by ZEFSAII (Michael W. Deem and Ramdas Pophale) SiO2 
 PCOD9410107
Probable space group: P N N A
;
_chemical_formula_sum "Si O2"
_cell_formula_units_Z 64
_cell_length_a 31.129098
_cell_length_b 18.369123
_cell_length_c 5.151330
_cell_angle_alpha 90.000000
_cell_angle_beta 90.000000
_cell_angle_gamma 90.000000
_cell_volume 2945.603798
_symmetry_space_group_name_H-M "P N N A"
_symmetry_group_IT_number 52
_symmetry_cell_setting 'orthorhombic'
loop_
_space_group_symop_operation_xyz
x,y,z
1/2-x,-y,z
x,1/2-y,1/2-z
1/2-x,1/2+y,1/2-z
-x,-y,-z
1/2+x,y,-z
-x,1/2+y,1/2+z
1/2+x,1/2-y,1/2+z
loop_
_atom_site_type_symbol
_atom_site_label
_atom_site_fract_x
_atom_site_fract_y
_atom_site_fract_z
Si Si1 0.407697 0.496150 0.363342
Si Si2 0.652292 0.127150 0.851781
Si Si3 0.103061 0.327376 0.841795
Si Si4 0.030237 0.070648 0.474530
Si Si5 0.532835 0.795097 0.486828
Si Si6 0.895320 0.100807 0.351182
Si Si7 0.697244 0.662522 0.267658
Si Si8 0.248229 0.162874 0.268002
O O1 0.365489 0.545434 0.377301
O O2 0.446227 0.552070 0.297449
O O3 0.414259 0.445428 0.611290
O O4 0.402147 0.445807 0.110386
O O5 0.625815 0.168488 0.623199
O O6 0.702215 0.128635 0.788219
O O7 0.639903 0.161992 0.126801
O O8 0.082341 0.250000 0.750000
O O9 0.070102 0.396260 0.853648
O O10 0.996899 0.135177 0.507360
O O11 0.000000 0.000000 0.500000
O O12 0.535626 0.750000 0.750000
O O13 0.578897 0.824984 0.396364
O O14 0.513700 0.750000 0.250000
O O15 0.846320 0.119711 0.289505
O O16 0.689191 0.750000 0.250000
O O17 0.716828 0.644719 0.547805
O O18 0.732421 0.645223 0.047977
O O19 0.241686 0.250000 0.250000
#
# Coordination Sequence:
#
# PCOD9410107 Si02
#       8
#     8   8   8   8   8   8   8   8
#     4  11  25  43  68  96 131 186 221 272 333 435
#     4  11  23  41  67  98 136 174 227 266 345 410
#     4  11  23  41  66  98 137 176 222 283 337 398
#     4  11  25  47  69  99 138 180 229 281 348 413
#     4  12  28  46  72 103 134 176 234 294 340 402
#     4  12  24  46  67  95 136 176 232 273 349 398
#     4  10  22  39  64  94 128 169 219 282 338 395
#     4  10  20  38  64  95 128 169 219 275 340 402
#
# _framework density 21.727294000000001
#
# number of rings (size 3 to 8) (size 9 to 14) (size 15 to 20)
#    0.000    1.000    1.250    5.625    0.000    8.000 
#    0.000    3.750    0.000    0.000    0.000    0.000 
#    0.000    0.000    0.000    0.000    0.000    0.000 
#
# Total GULP energy -357641.152462 kJ/mol
# GULP energy per Si atom -5588.143007 kJ/mol
# Density = 2.167784 g / cm^3
# Si number density = 21.727294 Si / 1000 Ang^3
#
#
#
# Elastic Constant Matrix: (Units=GPa)
#
#
# Indices 1 2 3 4 5 6 
#
# 1 87.0371 22.5180 -1.1506 0.0000 0.0000 0.0000
# 2 22.5180 104.1235 45.6467 0.0000 0.0000 0.0000
# 3 -1.1506 45.6467 123.3188 0.0000 0.0000 0.0000
# 4 0.0000 0.0000 0.0000 27.7920 0.0000 0.0000
# 5 0.0000 0.0000 0.0000 0.0000 17.3344 0.0000
# 6 0.0000 0.0000 0.0000 0.0000 0.0000 47.1747
#
#
#
# Elastic Compliance Matrix: (Units=1/GPa)
#
#
# Indices 1 2 3 4 5 6 
#
# 1 0.012347 -0.003248 0.001317 0.000000 0.000000 0.000000
# 2 -0.003248 0.012319 -0.004590 0.000000 0.000000 0.000000
# 3 0.001317 -0.004590 0.009820 0.000000 0.000000 0.000000
# 4 0.000000 0.000000 0.000000 0.035982 0.000000 0.000000
# 5 0.000000 0.000000 0.000000 0.000000 0.057689 0.000000
# 6 0.000000 0.000000 0.000000 0.000000 0.000000 0.021198
#
#
# Mechanical properties :
#
#
# Convention : Reuss Voigt Hill
#
# Bulk Modulus (GPa) = 46.63060 49.83416 48.23238
# Shear Modulus (GPa) = 29.49098 34.95790 32.22444
#
# Velocity S-wave (km/s) = 3.68818 4.01551 3.85532
# Velocity P-wave (km/s) = 6.29645 6.66971 6.48577
#
# Compressibility (1/GPa) = 0.02144514
#
# Stress axis : x y z
#
# Youngs Moduli (GPa) = 80.99128 81.17828 101.82916
#
# Poissons Ratio (x) = 0.26364 -0.13414
# Poissons Ratio (y) = 0.26304 0.46740
# Poissons Ratio (z) = -0.10669 0.37261
#
# Static dielectric constant tensor:
#      x y z
#    x 1.790960 0.000000 0.000000 
#    y 0.000000 1.794100 0.000000 
#    z 0.000000 0.000000 1.766410 
# 
# From -- ./inp_files/6524.got.cif
#   From: 2010.05.17/outbox.cif.g08.bks.cpg/sg52_4_cif.got.tgz:6524.got - 2010.06.03 12:15:38.
