data_PCOD9410504
_publ_section_title
;
Structure prediction by ZEFSAII (Michael W. Deem and Ramdas Pophale) SiO2 
 PCOD9410504
Probable space group: P N N A
;
_chemical_formula_sum "Si O2"
_cell_formula_units_Z 32
_cell_length_a 8.326073
_cell_length_b 15.702214
_cell_length_c 8.780461
_cell_angle_alpha 90.000000
_cell_angle_beta 90.000000
_cell_angle_gamma 90.000000
_cell_volume 1147.937979
_symmetry_space_group_name_H-M "P N N A"
_symmetry_group_IT_number 52
_symmetry_cell_setting 'orthorhombic'
loop_
_space_group_symop_operation_xyz
x,y,z
1/2-x,-y,z
x,1/2-y,1/2-z
1/2-x,1/2+y,1/2-z
-x,-y,-z
1/2+x,y,-z
-x,1/2+y,1/2+z
1/2+x,1/2-y,1/2+z
loop_
_atom_site_type_symbol
_atom_site_label
_atom_site_fract_x
_atom_site_fract_y
_atom_site_fract_z
Si Si1 0.688505 0.358822 0.898479
Si Si2 0.728419 0.314280 0.466125
Si Si3 0.250000 0.500000 0.577105
Si Si4 0.996521 0.750000 0.750000
Si Si5 0.463693 0.900235 0.718477
O O1 0.545546 0.355158 0.780017
O O2 0.854773 0.393923 0.838652
O O3 0.682715 0.252424 0.901647
O O4 0.639968 0.391142 0.063497
O O5 0.772227 0.411000 0.509980
O O6 0.588579 0.327265 0.340137
O O7 0.874533 0.265662 0.390497
O O8 0.401102 0.519288 0.686841
#
# Coordination Sequence:
#
# PCOD9410504 Si02
#       5
#     8   8   4   4   8
#     4  12  22  37  69  94 127 174 220 265 315 400
#     4  10  20  45  61  93 130 168 215 278 320 383
#     4   8  22  40  70  90 136 166 214 272 352 360
#     4  12  24  36  64  98 124 170 228 258 320 400
#     4  10  21  40  65  94 126 171 217 266 326 384
#
# _framework density 27.876071
#
# number of rings (size 3 to 8) (size 9 to 14) (size 15 to 20)
#    1.500    0.000    5.000    0.000    3.500    1.000 
#    0.000    1.250    0.000    0.000    0.000    0.000 
#    0.000    0.000    0.000    0.000    0.000    0.000 
#
# Total GULP energy -178694.142847 kJ/mol
# GULP energy per Si atom -5584.191964 kJ/mol
# Density = 2.781262 g / cm^3
# Si number density = 27.876071 Si / 1000 Ang^3
#
#
#
# Elastic Constant Matrix: (Units=GPa)
#
#
# Indices 1 2 3 4 5 6 
#
# 1 145.1129 23.5720 44.1079 0.0000 0.0000 0.0000
# 2 23.5720 142.9476 12.1807 0.0000 0.0000 0.0000
# 3 44.1079 12.1807 146.1768 0.0000 0.0000 0.0000
# 4 0.0000 0.0000 0.0000 40.1005 0.0000 0.0000
# 5 0.0000 0.0000 0.0000 0.0000 -46.9993 0.0000
# 6 0.0000 0.0000 0.0000 0.0000 0.0000 46.6987
#
#
#
# Elastic Compliance Matrix: (Units=1/GPa)
#
#
# Indices 1 2 3 4 5 6 
#
# 1 0.007751 -0.001087 -0.002248 0.000000 0.000000 0.000000
# 2 -0.001087 0.007198 -0.000272 0.000000 0.000000 0.000000
# 3 -0.002248 -0.000272 0.007542 0.000000 0.000000 0.000000
# 4 0.000000 0.000000 0.000000 0.024937 0.000000 0.000000
# 5 0.000000 0.000000 0.000000 0.000000 -0.021277 0.000000
# 6 0.000000 0.000000 0.000000 0.000000 0.000000 0.021414
#
#
# Mechanical properties :
#
#
# Convention : Reuss Voigt Hill
#
# Bulk Modulus (GPa) = 65.45572 65.99541 65.72557
# Shear Modulus (GPa) = 83.51226 31.58510 57.54868
#
# Velocity S-wave (km/s) = 5.47937 3.36974 4.54855
# Velocity P-wave (km/s) = 7.97265 6.23427 7.15644
#
# Compressibility (1/GPa) = 0.01527750
#
# Stress axis : x y z
#
# Youngs Moduli (GPa) = 129.01449 138.92911 132.58915
#
# Poissons Ratio (x) = 0.15096 0.29810
# Poissons Ratio (y) = 0.14018 0.03605
# Poissons Ratio (z) = 0.29006 0.03778
#
# Static dielectric constant tensor:
#      x y z
#    x 2.185470 0.000000 0.000000 
#    y 0.000000 2.311950 0.000000 
#    z 0.000000 0.000000 2.282370 
# 
# From -- ./inp_files/7236.got.cif
#   From: 2010.05.17/outbox.cif.g08.bks.cpg/sg52_4_cif.got.tgz:7236.got - 2010.06.03 12:15:38.
