data_PCOD9410075
_publ_section_title
;
Structure prediction by ZEFSAII (Michael W. Deem and Ramdas Pophale) SiO2 
 PCOD9410075
Probable space group: P N N A
;
_chemical_formula_sum "Si O2"
_cell_formula_units_Z 36
_cell_length_a 5.446201
_cell_length_b 11.285898
_cell_length_c 24.946088
_cell_angle_alpha 90.000000
_cell_angle_beta 90.000000
_cell_angle_gamma 90.000000
_cell_volume 1533.318009
_symmetry_space_group_name_H-M "P N N A"
_symmetry_group_IT_number 52
_symmetry_cell_setting 'orthorhombic'
loop_
_space_group_symop_operation_xyz
x,y,z
1/2-x,-y,z
x,1/2-y,1/2-z
1/2-x,1/2+y,1/2-z
-x,-y,-z
1/2+x,y,-z
-x,1/2+y,1/2+z
1/2+x,1/2-y,1/2+z
loop_
_atom_site_type_symbol
_atom_site_label
_atom_site_fract_x
_atom_site_fract_y
_atom_site_fract_z
Si Si1 0.250000 0.500000 0.540177
Si Si2 0.698166 0.736192 0.024682
Si Si3 0.250000 0.000000 0.105853
Si Si4 0.851430 0.250000 0.250000
Si Si5 0.588683 0.245400 0.633509
Si Si6 0.250000 0.500000 0.778863
Si Si7 0.750000 0.000000 0.651892
O O1 0.269748 0.375600 0.509273
O O2 0.491400 0.506113 0.575679
O O3 0.623240 0.739352 0.087538
O O4 0.461933 0.685297 0.992828
O O5 0.229950 0.130001 0.132115
O O6 0.723301 0.378150 0.254223
O O7 0.995133 0.239549 0.305696
O O8 0.744195 0.126402 0.622216
O O9 0.497650 0.500624 0.814207
#
# Coordination Sequence:
#
# PCOD9410075 Si02
#       7
#     4   8   4   4   8   4   4
#     4  10  20  38  62  95 132 167 206 268 330 378
#     4  11  22  38  62  92 128 169 214 264 320 382
#     4  10  22  38  66  97 128 163 218 266 314 384
#     4  10  24  44  70  98 134 168 216 266 322 384
#     4  10  24  44  66  98 130 171 215 267 321 383
#     4  10  24  43  66  98 130 172 210 263 324 386
#     4  10  24  45  66  90 134 174 212 261 330 384
#
# _framework density 23.478496
#
# number of rings (size 3 to 8) (size 9 to 14) (size 15 to 20)
#    0.000    1.778    0.000    3.333    0.000   24.000 
#    0.000    1.111    0.000    0.000    0.000    0.000 
#    0.000    0.000    0.000    0.000    0.000    0.000 
#
# Total GULP energy -200641.208392 kJ/mol
# GULP energy per Si atom -5573.366900 kJ/mol
# Density = 2.342506 g / cm^3
# Si number density = 23.478496 Si / 1000 Ang^3
#
#
#
# Elastic Constant Matrix: (Units=GPa)
#
#
# Indices 1 2 3 4 5 6 
#
# 1 159.8074 30.6688 47.3687 0.0000 0.0000 0.0000
# 2 30.6688 183.3824 13.5056 0.0000 0.0000 0.0000
# 3 47.3687 13.5056 107.1540 0.0000 0.0000 0.0000
# 4 0.0000 0.0000 0.0000 30.6188 0.0000 0.0000
# 5 0.0000 0.0000 0.0000 0.0000 30.7762 0.0000
# 6 0.0000 0.0000 0.0000 0.0000 0.0000 23.2099
#
#
#
# Elastic Compliance Matrix: (Units=1/GPa)
#
#
# Indices 1 2 3 4 5 6 
#
# 1 0.007380 -0.001003 -0.003136 0.000000 0.000000 0.000000
# 2 -0.001003 0.005641 -0.000267 0.000000 0.000000 0.000000
# 3 -0.003136 -0.000267 0.010752 0.000000 0.000000 0.000000
# 4 0.000000 0.000000 0.000000 0.032660 0.000000 0.000000
# 5 0.000000 0.000000 0.000000 0.000000 0.032493 0.000000
# 6 0.000000 0.000000 0.000000 0.000000 0.000000 0.043085
#
#
# Mechanical properties :
#
#
# Convention : Reuss Voigt Hill
#
# Bulk Modulus (GPa) = 66.84710 70.38112 68.61411
# Shear Modulus (GPa) = 34.29140 40.84101 37.56620
#
# Velocity S-wave (km/s) = 3.82585 4.17526 4.00437
# Velocity P-wave (km/s) = 6.93179 7.29971 7.11812
#
# Compressibility (1/GPa) = 0.01495951
#
# Stress axis : x y z
#
# Youngs Moduli (GPa) = 135.50988 177.28734 93.00362
#
# Poissons Ratio (x) = 0.17786 0.29164
# Poissons Ratio (y) = 0.13595 0.02487
# Poissons Ratio (z) = 0.42493 0.04742
#
# Static dielectric constant tensor:
#      x y z
#    x 1.894270 0.000000 0.000000 
#    y 0.000000 1.985390 0.000000 
#    z 0.000000 0.000000 2.069680 
# 
# From -- ./inp_files/38606.got.cif
#   From: 2010.05.17/outbox.cif.g08.bks.cpg/sg52_20_cif.got.tgz:38606.got - 2010.06.03 12:15:38.
