data_PCOD9410578
_publ_section_title
;
Structure prediction by ZEFSAII (Michael W. Deem and Ramdas Pophale) SiO2 
 PCOD9410578
Probable space group: P N N A
;
_chemical_formula_sum "Si O2"
_cell_formula_units_Z 56
_cell_length_a 31.623952
_cell_length_b 15.853212
_cell_length_c 5.292106
_cell_angle_alpha 90.000000
_cell_angle_beta 90.000000
_cell_angle_gamma 90.000000
_cell_volume 2653.150854
_symmetry_space_group_name_H-M "P N N A"
_symmetry_group_IT_number 52
_symmetry_cell_setting 'orthorhombic'
loop_
_space_group_symop_operation_xyz
x,y,z
1/2-x,-y,z
x,1/2-y,1/2-z
1/2-x,1/2+y,1/2-z
-x,-y,-z
1/2+x,y,-z
-x,1/2+y,1/2+z
1/2+x,1/2-y,1/2+z
loop_
_atom_site_type_symbol
_atom_site_label
_atom_site_fract_x
_atom_site_fract_y
_atom_site_fract_z
Si Si1 0.059288 0.474633 0.605766
Si Si2 0.171467 0.605360 0.840361
Si Si3 0.575994 0.658663 0.142960
Si Si4 0.143317 0.084327 0.676537
Si Si5 0.974008 0.443161 0.802078
Si Si6 0.682681 0.152892 0.829797
Si Si7 0.720382 0.652081 0.667238
O O1 0.063111 0.572237 0.707056
O O2 0.094043 0.421843 0.750920
O O3 0.062459 0.495700 0.309188
O O4 0.013813 0.428335 0.618673
O O5 0.126677 0.652670 0.880202
O O6 0.160725 0.509438 0.772295
O O7 0.198111 0.642358 0.605384
O O8 0.195821 0.606714 0.105681
O O9 0.565109 0.750000 0.250000
O O10 0.549376 0.640142 0.890847
O O11 0.155738 0.108137 0.391608
O O12 0.164169 0.142784 0.890118
O O13 0.000000 0.500000 0.000000
O O14 0.683660 0.250000 0.750000
O O15 0.731170 0.121672 0.838475
O O16 0.720076 0.750000 0.750000
#
# Coordination Sequence:
#
# PCOD9410578 Si02
#       7
#     8   8   8   8   8   8   8
#     4   9  21  38  63  89 119 169 208 255 319 377
#     4  11  24  38  62  97 126 168 212 254 319 383
#     4  10  21  35  59  92 127 163 203 256 312 382
#     4  11  24  40  68  93 125 161 215 273 312 382
#     4   9  19  38  63  84 120 165 206 249 314 392
#     4  11  25  44  66  89 122 170 214 267 329 373
#     4  11  23  41  61  89 133 172 208 257 317 381
#
# _framework density 21.106978000000002
#
# number of rings (size 3 to 8) (size 9 to 14) (size 15 to 20)
#    0.000    1.714    0.000    3.429   10.000    6.286 
#    0.000    0.714    9.429    0.000    0.000    0.000 
#    0.000    0.000    0.000    0.000    0.000    0.000 
#
# Total GULP energy -312076.113375 kJ/mol
# GULP energy per Si atom -5572.787739 kJ/mol
# Density = 2.105894 g / cm^3
# Si number density = 21.106978 Si / 1000 Ang^3
#
#
#
# Elastic Constant Matrix: (Units=GPa)
#
#
# Indices 1 2 3 4 5 6 
#
# 1 138.4421 24.7765 39.2558 0.0000 0.0000 0.0000
# 2 24.7765 47.9056 1.7625 0.0000 0.0000 0.0000
# 3 39.2558 1.7625 68.9005 0.0000 0.0000 0.0000
# 4 0.0000 0.0000 0.0000 38.0533 0.0000 0.0000
# 5 0.0000 0.0000 0.0000 0.0000 1.2140 0.0000
# 6 0.0000 0.0000 0.0000 0.0000 0.0000 10.6047
#
#
#
# Elastic Compliance Matrix: (Units=1/GPa)
#
#
# Indices 1 2 3 4 5 6 
#
# 1 0.009591 -0.004764 -0.005342 0.000000 0.000000 0.000000
# 2 -0.004764 0.023260 0.002119 0.000000 0.000000 0.000000
# 3 -0.005342 0.002119 0.017503 0.000000 0.000000 0.000000
# 4 0.000000 0.000000 0.000000 0.026279 0.000000 0.000000
# 5 0.000000 0.000000 0.000000 0.000000 0.823720 0.000000
# 6 0.000000 0.000000 0.000000 0.000000 0.000000 0.094298
#
#
# Mechanical properties :
#
#
# Convention : Reuss Voigt Hill
#
# Bulk Modulus (GPa) = 29.08655 42.98197 36.03426
# Shear Modulus (GPa) = 4.89196 22.60462 13.74829
#
# Velocity S-wave (km/s) = 1.52405 3.27609 2.55495
# Velocity P-wave (km/s) = 4.11186 5.89224 5.08064
#
# Compressibility (1/GPa) = 0.03438015
#
# Stress axis : x y z
#
# Youngs Moduli (GPa) = 104.26853 42.99196 57.13224
#
# Poissons Ratio (x) = 0.20480 0.30522
# Poissons Ratio (y) = 0.49670 -0.12107
# Poissons Ratio (z) = 0.55704 -0.09110
#
# Static dielectric constant tensor:
#      x y z
#    x 1.849290 0.000000 0.000000 
#    y 0.000000 1.761430 0.000000 
#    z 0.000000 0.000000 1.970190 
# 
# From -- ./inp_files/6414.got.cif
#   From: 2010.05.17/outbox.cif.g08.bks.cpg/sg52_4_cif.got.tgz:6414.got - 2010.06.03 12:15:38.
