data_PCOD9410860
_publ_section_title
;
Structure prediction by ZEFSAII (Michael W. Deem and Ramdas Pophale) SiO2 
 PCOD9410860
Probable space group: P N N A
;
_chemical_formula_sum "Si O2"
_cell_formula_units_Z 48
_cell_length_a 15.130746
_cell_length_b 17.336827
_cell_length_c 9.744797
_cell_angle_alpha 90.000000
_cell_angle_beta 90.000000
_cell_angle_gamma 90.000000
_cell_volume 2556.246630
_symmetry_space_group_name_H-M "P N N A"
_symmetry_group_IT_number 52
_symmetry_cell_setting 'orthorhombic'
loop_
_space_group_symop_operation_xyz
x,y,z
1/2-x,-y,z
x,1/2-y,1/2-z
1/2-x,1/2+y,1/2-z
-x,-y,-z
1/2+x,y,-z
-x,1/2+y,1/2+z
1/2+x,1/2-y,1/2+z
loop_
_atom_site_type_symbol
_atom_site_label
_atom_site_fract_x
_atom_site_fract_y
_atom_site_fract_z
Si Si1 0.536748 0.761828 0.087987
Si Si2 0.841582 0.841453 0.235327
Si Si3 0.552105 0.079859 0.003201
Si Si4 0.360478 0.673825 0.036732
Si Si5 0.788110 0.581025 0.706804
Si Si6 0.779785 0.306321 0.504973
O O1 0.546666 0.750000 0.250000
O O2 0.502750 0.848448 0.057831
O O3 0.461964 0.701955 0.038148
O O4 0.631945 0.757749 0.016580
O O5 0.866203 0.750000 0.250000
O O6 0.835208 0.866355 0.392960
O O7 0.912880 0.890496 0.150914
O O8 0.752650 0.841806 0.141625
O O9 0.638152 0.068854 0.909382
O O10 0.500000 0.000000 0.000000
O O11 0.333767 0.624701 0.167871
O O12 0.301605 0.751301 0.045261
O O13 0.750000 0.500000 0.752900
O O14 0.714511 0.631718 0.626529
#
# Coordination Sequence:
#
# PCOD9410860 Si02
#       6
#     8   8   8   8   8   8
#     4  12  20  37  67  93 124 168 215 266 311 381
#     4   9  18  39  63  87 127 160 215 266 310 378
#     4  11  22  39  62  93 127 170 213 263 324 385
#     4  11  20  42  63  92 127 161 217 271 317 369
#     4  11  22  42  60  89 133 167 206 269 327 385
#     4  10  21  38  64  94 118 163 217 258 313 388
#
# _framework density 18.777532000000001
#
# number of rings (size 3 to 8) (size 9 to 14) (size 15 to 20)
#    0.000    1.333    6.667    3.000    0.000    0.000 
#    9.000    7.500    0.000    0.000    0.000    0.000 
#    0.000    0.000    0.000    0.000    0.000    0.000 
#
# Total GULP energy -267779.941069 kJ/mol
# GULP energy per Si atom -5578.748772 kJ/mol
# Density = 1.873479 g / cm^3
# Si number density = 18.777532 Si / 1000 Ang^3
#
#
#
# Elastic Constant Matrix: (Units=GPa)
#
#
# Indices 1 2 3 4 5 6 
#
# 1 81.2790 16.5002 29.4076 0.0000 0.0000 0.0000
# 2 16.5002 64.0518 45.3959 0.0000 0.0000 0.0000
# 3 29.4076 45.3959 111.7407 0.0000 0.0000 0.0000
# 4 0.0000 0.0000 0.0000 14.0409 0.0000 0.0000
# 5 0.0000 0.0000 0.0000 0.0000 20.3161 0.0000
# 6 0.0000 0.0000 0.0000 0.0000 0.0000 28.2831
#
#
#
# Elastic Compliance Matrix: (Units=1/GPa)
#
#
# Indices 1 2 3 4 5 6 
#
# 1 0.013683 -0.001366 -0.003046 0.000000 0.000000 0.000000
# 2 -0.001366 0.022062 -0.008603 0.000000 0.000000 0.000000
# 3 -0.003046 -0.008603 0.013246 0.000000 0.000000 0.000000
# 4 0.000000 0.000000 0.000000 0.071220 0.000000 0.000000
# 5 0.000000 0.000000 0.000000 0.000000 0.049222 0.000000
# 6 0.000000 0.000000 0.000000 0.000000 0.000000 0.035357
#
#
# Mechanical properties :
#
#
# Convention : Reuss Voigt Hill
#
# Bulk Modulus (GPa) = 43.55408 48.85321 46.20365
# Shear Modulus (GPa) = 20.96666 23.57920 22.27293
#
# Velocity S-wave (km/s) = 3.34516 3.54745 3.44779
# Velocity P-wave (km/s) = 6.17780 6.54618 6.36466
#
# Compressibility (1/GPa) = 0.02295996
#
# Stress axis : x y z
#
# Youngs Moduli (GPa) = 73.08503 45.32729 75.49363
#
# Poissons Ratio (x) = 0.06191 0.22996
# Poissons Ratio (y) = 0.09983 0.64950
# Poissons Ratio (z) = 0.22262 0.38997
#
# Static dielectric constant tensor:
#      x y z
#    x 1.670520 0.000000 0.000000 
#    y 0.000000 1.661330 0.000000 
#    z 0.000000 0.000000 1.675530 
# 
# From -- ./inp_files/10494.got.cif
#   From: 2010.05.17/outbox.cif.g08.bks.cpg/sg52_6_cif.got.tgz:10494.got - 2010.06.03 12:15:38.
