data_PCOD9410033
_publ_section_title
;
Structure prediction by ZEFSAII (Michael W. Deem and Ramdas Pophale) SiO2 
 PCOD9410033
Probable space group: P N N A
;
_chemical_formula_sum "Si O2"
_cell_formula_units_Z 64
_cell_length_a 8.937030
_cell_length_b 12.805271
_cell_length_c 28.301380
_cell_angle_alpha 90.000000
_cell_angle_beta 90.000000
_cell_angle_gamma 90.000000
_cell_volume 3238.840806
_symmetry_space_group_name_H-M "P N N A"
_symmetry_group_IT_number 52
_symmetry_cell_setting 'orthorhombic'
loop_
_space_group_symop_operation_xyz
x,y,z
1/2-x,-y,z
x,1/2-y,1/2-z
1/2-x,1/2+y,1/2-z
-x,-y,-z
1/2+x,y,-z
-x,1/2+y,1/2+z
1/2+x,1/2-y,1/2+z
loop_
_atom_site_type_symbol
_atom_site_label
_atom_site_fract_x
_atom_site_fract_y
_atom_site_fract_z
Si Si1 0.422284 0.595238 0.469739
Si Si2 0.568018 0.902668 0.128078
Si Si3 0.092517 0.130777 0.877419
Si Si4 0.053214 0.785592 0.699105
Si Si5 0.567452 0.996693 0.353157
Si Si6 0.910847 0.698841 0.202110
Si Si7 0.085903 0.547779 0.046203
Si Si8 0.606656 0.795729 0.964525
O O1 0.500000 0.500000 0.500000
O O2 0.455472 0.585345 0.414921
O O3 0.510684 0.695607 0.488173
O O4 0.250808 0.630635 0.473687
O O5 0.732890 0.874423 0.107613
O O6 0.533373 0.813682 0.165172
O O7 0.571593 0.019607 0.148350
O O8 0.066406 0.221643 0.840606
O O9 0.988613 0.152783 0.922029
O O10 0.989515 0.750000 0.750000
O O11 0.007941 0.888761 0.669806
O O12 0.230368 0.808333 0.707639
O O13 0.750000 0.000000 0.357727
O O14 0.529872 0.088129 0.315646
O O15 0.501143 0.019249 0.405135
O O16 0.971613 0.750000 0.250000
O O17 0.250000 0.500000 0.047328
O O18 0.115952 0.672840 0.045050
O O19 0.000000 0.500000 0.000000
#
# Coordination Sequence:
#
# PCOD9410033 Si02
#       8
#     8   8   8   8   8   8   8   8
#     4  12  25  40  63  92 123 169 208 261 317 389
#     4  10  22  36  60  90 129 160 209 256 319 380
#     4  10  20  38  60  92 122 165 204 263 313 380
#     4   9  20  35  59  95 129 163 207 267 325 379
#     4  10  21  39  65  93 128 169 216 268 325 390
#     4   9  18  35  61  92 125 161 210 264 322 377
#     4  12  27  45  65  93 125 172 219 270 323 387
#     4  12  25  42  64  86 129 163 215 261 319 382
#
# _framework density 19.760157
#
# number of rings (size 3 to 8) (size 9 to 14) (size 15 to 20)
#    0.000    1.500    2.500    2.250    7.000    0.000 
#    0.000    0.000    0.000    3.000    0.000    0.000 
#    0.000    0.000    0.000    0.000    0.000    0.000 
#
# Total GULP energy -356568.193313 kJ/mol
# GULP energy per Si atom -5571.378021 kJ/mol
# Density = 1.971518 g / cm^3
# Si number density = 19.760157 Si / 1000 Ang^3
#
#
#
# Elastic Constant Matrix: (Units=GPa)
#
#
# Indices 1 2 3 4 5 6 
#
# 1 63.7589 30.6021 32.1997 0.0000 0.0000 0.0000
# 2 30.6021 140.0397 19.6757 0.0000 0.0000 0.0000
# 3 32.1997 19.6757 57.0097 0.0000 0.0000 0.0000
# 4 0.0000 0.0000 0.0000 -620.9199 0.0000 0.0000
# 5 0.0000 0.0000 0.0000 0.0000 25.2994 0.0000
# 6 0.0000 0.0000 0.0000 0.0000 0.0000 10.8946
#
#
#
# Elastic Compliance Matrix: (Units=1/GPa)
#
#
# Indices 1 2 3 4 5 6 
#
# 1 0.023407 -0.003424 -0.012039 0.000000 0.000000 0.000000
# 2 -0.003424 0.008005 -0.000829 0.000000 0.000000 0.000000
# 3 -0.012039 -0.000829 0.024627 0.000000 0.000000 0.000000
# 4 0.000000 0.000000 0.000000 -0.001611 0.000000 0.000000
# 5 0.000000 0.000000 0.000000 0.000000 0.039527 0.000000
# 6 0.000000 0.000000 0.000000 0.000000 0.000000 0.091789
#
#
# Mechanical properties :
#
#
# Convention : Reuss Voigt Hill
#
# Bulk Modulus (GPa) = 42.63339 47.30703 44.97021
# Shear Modulus (GPa) = 22.10949 -105.05647 -41.47349
#
# Velocity S-wave (km/s) = 3.34861 -7.29940 -4.58628
# Velocity P-wave (km/s) = 6.04758 6.85923 2.28865
#
# Compressibility (1/GPa) = 0.02345579
#
# Stress axis : x y z
#
# Youngs Moduli (GPa) = 42.72167 124.91450 40.60603
#
# Poissons Ratio (x) = 0.42765 0.48886
# Poissons Ratio (y) = 0.14626 0.03367
# Poissons Ratio (z) = 0.51433 0.10359
#
# Static dielectric constant tensor:
#      x y z
#    x 1.687740 0.000000 0.000000 
#    y 0.000000 1.744200 0.000000 
#    z 0.000000 0.000000 1.716900 
# 
# From -- ./inp_files/44625.got.cif
#   From: 2010.05.17/outbox.cif.g08.bks.cpg/sg52_23_cif.got.tgz:44625.got - 2010.06.03 12:15:38.
