data_PCOD9410600
_publ_section_title
;
Structure prediction by ZEFSAII (Michael W. Deem and Ramdas Pophale) SiO2 
 PCOD9410600
Probable space group: P N N A
;
_chemical_formula_sum "Si O2"
_cell_formula_units_Z 64
_cell_length_a 8.571246
_cell_length_b 21.949857
_cell_length_c 14.135179
_cell_angle_alpha 90.000000
_cell_angle_beta 90.000000
_cell_angle_gamma 90.000000
_cell_volume 2659.358992
_symmetry_space_group_name_H-M "P N N A"
_symmetry_group_IT_number 52
_symmetry_cell_setting 'orthorhombic'
loop_
_space_group_symop_operation_xyz
x,y,z
1/2-x,-y,z
x,1/2-y,1/2-z
1/2-x,1/2+y,1/2-z
-x,-y,-z
1/2+x,y,-z
-x,1/2+y,1/2+z
1/2+x,1/2-y,1/2+z
loop_
_atom_site_type_symbol
_atom_site_label
_atom_site_fract_x
_atom_site_fract_y
_atom_site_fract_z
Si Si1 0.360050 0.456139 0.503827
Si Si2 0.174799 0.932513 0.557209
Si Si3 0.184245 0.068241 0.369874
Si Si4 0.320006 0.929620 0.746077
Si Si5 0.822308 0.339897 0.400808
Si Si6 0.336687 0.100952 0.186498
Si Si7 0.883652 0.241057 0.860162
Si Si8 0.410168 0.734940 0.470281
O O1 0.250000 0.500000 0.564236
O O2 0.500000 0.500000 0.500000
O O3 0.412651 0.394515 0.549226
O O4 0.287698 0.438842 0.403315
O O5 0.207133 0.905159 0.454025
O O6 0.280213 0.906109 0.640791
O O7 0.994992 0.933585 0.592427
O O8 0.250000 0.000000 0.544938
O O9 0.211026 0.102522 0.270662
O O10 0.250000 0.000000 0.350021
O O11 0.246365 0.876643 0.812482
O O12 0.503034 0.927786 0.771528
O O13 0.250000 0.000000 0.746448
O O14 0.686644 0.316760 0.471038
O O15 0.949904 0.286876 0.401365
O O16 0.371134 0.167266 0.143019
O O17 0.920393 0.250000 0.750000
O O18 0.717810 0.264017 0.901126
O O19 0.006396 0.265019 0.938290
#
# Coordination Sequence:
#
# PCOD9410600 Si02
#       8
#     8   8   8   8   8   8   8   8
#     4  12  23  32  53  95 142 180 214 246 307 407
#     4  10  21  36  55  78 122 175 224 276 325 384
#     4  11  21  37  57  84 122 174 227 275 338 399
#     4  11  21  34  55  93 134 180 225 265 326 408
#     4  11  19  35  59  92 135 178 212 260 332 405
#     4  12  23  39  61  94 136 179 223 284 332 407
#     4  11  25  48  75  99 130 179 231 294 366 417
#     4  10  21  43  71  96 130 171 219 283 354 413
#
# _framework density 24.065949
#
# number of rings (size 3 to 8) (size 9 to 14) (size 15 to 20)
#    0.000    1.000    3.750    6.750    1.750    0.000 
#    0.000    5.000    0.000    0.000    0.000    0.000 
#    0.000    0.000    0.000    0.000    0.000    0.000 
#
# Total GULP energy -356638.018808 kJ/mol
# GULP energy per Si atom -5572.469044 kJ/mol
# Density = 2.401117 g / cm^3
# Si number density = 24.065949 Si / 1000 Ang^3
#
#
#
# Elastic Constant Matrix: (Units=GPa)
#
#
# Indices 1 2 3 4 5 6 
#
# 1 107.7725 -4.0528 1.7741 0.0000 0.0000 0.0000
# 2 -4.0528 34.2863 1.2609 0.0000 0.0000 0.0000
# 3 1.7741 1.2609 128.2893 0.0000 0.0000 0.0000
# 4 0.0000 0.0000 0.0000 19.8836 0.0000 0.0000
# 5 0.0000 0.0000 0.0000 0.0000 40.8382 0.0000
# 6 0.0000 0.0000 0.0000 0.0000 0.0000 4.1867
#
#
#
# Elastic Compliance Matrix: (Units=1/GPa)
#
#
# Indices 1 2 3 4 5 6 
#
# 1 0.009323 0.001107 -0.000140 0.000000 0.000000 0.000000
# 2 0.001107 0.029308 -0.000303 0.000000 0.000000 0.000000
# 3 -0.000140 -0.000303 0.007800 0.000000 0.000000 0.000000
# 4 0.000000 0.000000 0.000000 0.050293 0.000000 0.000000
# 5 0.000000 0.000000 0.000000 0.000000 0.024487 0.000000
# 6 0.000000 0.000000 0.000000 0.000000 0.000000 0.238852
#
#
# Mechanical properties :
#
#
# Convention : Reuss Voigt Hill
#
# Bulk Modulus (GPa) = 20.93859 29.81248 25.37554
# Shear Modulus (GPa) = 13.34567 31.07277 22.20922
#
# Velocity S-wave (km/s) = 2.35743 3.59716 3.04114
# Velocity P-wave (km/s) = 4.01614 5.44678 4.78523
#
# Compressibility (1/GPa) = 0.04775870
#
# Stress axis : x y z
#
# Youngs Moduli (GPa) = 107.26457 34.12013 128.20849
#
# Poissons Ratio (x) = -0.03778 0.01792
# Poissons Ratio (y) = -0.11876 0.03889
# Poissons Ratio (z) = 0.01500 0.01035
#
# Static dielectric constant tensor:
#      x y z
#    x 1.927170 0.000000 0.000000 
#    y 0.000000 1.985400 0.000000 
#    z 0.000000 0.000000 2.010890 
# 
# From -- ./inp_files/25108.got.cif
#   From: 2010.05.17/outbox.cif.g08.bks.cpg/sg52_13_cif.got.tgz:25108.got - 2010.06.03 12:15:38.
