data_PCOD9410221
_publ_section_title
;
Structure prediction by ZEFSAII (Michael W. Deem and Ramdas Pophale) SiO2 
 PCOD9410221
Probable space group: P N N A
;
_chemical_formula_sum "Si O2"
_cell_formula_units_Z 48
_cell_length_a 10.861740
_cell_length_b 22.329914
_cell_length_c 9.151145
_cell_angle_alpha 90.000000
_cell_angle_beta 90.000000
_cell_angle_gamma 90.000000
_cell_volume 2219.534449
_symmetry_space_group_name_H-M "P N N A"
_symmetry_group_IT_number 52
_symmetry_cell_setting 'orthorhombic'
loop_
_space_group_symop_operation_xyz
x,y,z
1/2-x,-y,z
x,1/2-y,1/2-z
1/2-x,1/2+y,1/2-z
-x,-y,-z
1/2+x,y,-z
-x,1/2+y,1/2+z
1/2+x,1/2-y,1/2+z
loop_
_atom_site_type_symbol
_atom_site_label
_atom_site_fract_x
_atom_site_fract_y
_atom_site_fract_z
Si Si1 0.798755 0.727330 0.608478
Si Si2 0.402691 0.358870 0.246671
Si Si3 0.326737 0.816948 0.801222
Si Si4 0.118457 0.468963 0.071855
Si Si5 0.885354 0.486980 0.603638
Si Si6 0.750976 0.142424 0.474219
O O1 0.877394 0.750000 0.750000
O O2 0.686006 0.691528 0.683027
O O3 0.836544 0.683229 0.476592
O O4 0.771368 0.789400 0.526023
O O5 0.538506 0.333348 0.245490
O O6 0.392686 0.418466 0.342717
O O7 0.360692 0.375325 0.082780
O O8 0.296776 0.750000 0.750000
O O9 0.236819 0.858067 0.701709
O O10 0.250000 0.500000 0.031037
O O11 0.107548 0.474179 0.247033
O O12 0.140222 0.401126 0.021045
O O13 0.000000 0.500000 0.000000
O O14 0.750000 0.500000 0.537581
O O15 0.000000 0.500000 0.500000
#
# Coordination Sequence:
#
# PCOD9410221 Si02
#       6
#     8   8   8   8   8   8
#     4   9  21  39  65  98 134 173 224 288 368 434
#     4  11  21  42  65  91 137 180 231 304 362 432
#     4  10  21  38  64  97 127 175 228 280 361 437
#     4  11  23  44  66  98 134 185 244 299 371 432
#     4  11  25  44  67  96 139 185 241 301 367 439
#     4  10  20  39  65  91 133 175 232 294 350 434
#
# _framework density 21.626156999999999
#
# number of rings (size 3 to 8) (size 9 to 14) (size 15 to 20)
#    0.000    1.667    3.333    2.500    2.333    0.667 
#    3.000    7.500    0.000    0.000    0.000    0.000 
#    0.000    0.000    0.000    0.000    0.000    0.000 
#
# Total GULP energy -267389.871251 kJ/mol
# GULP energy per Si atom -5570.622318 kJ/mol
# Density = 2.157693 g / cm^3
# Si number density = 21.626157 Si / 1000 Ang^3
#
#
#
# Elastic Constant Matrix: (Units=GPa)
#
#
# Indices 1 2 3 4 5 6 
#
# 1 107.6074 19.6324 65.4251 0.0000 0.0000 0.0000
# 2 19.6324 101.6266 36.7610 0.0000 0.0000 0.0000
# 3 65.4251 36.7610 156.0542 0.0000 0.0000 0.0000
# 4 0.0000 0.0000 0.0000 36.1386 0.0000 0.0000
# 5 0.0000 0.0000 0.0000 0.0000 40.3149 0.0000
# 6 0.0000 0.0000 0.0000 0.0000 0.0000 29.6419
#
#
#
# Elastic Compliance Matrix: (Units=1/GPa)
#
#
# Indices 1 2 3 4 5 6 
#
# 1 0.012502 -0.000568 -0.005108 0.000000 0.000000 0.000000
# 2 -0.000568 0.010782 -0.002302 0.000000 0.000000 0.000000
# 3 -0.005108 -0.002302 0.009092 0.000000 0.000000 0.000000
# 4 0.000000 0.000000 0.000000 0.027671 0.000000 0.000000
# 5 0.000000 0.000000 0.000000 0.000000 0.024805 0.000000
# 6 0.000000 0.000000 0.000000 0.000000 0.000000 0.033736
#
#
# Mechanical properties :
#
#
# Convention : Reuss Voigt Hill
#
# Bulk Modulus (GPa) = 60.89591 67.65835 64.27713
# Shear Modulus (GPa) = 35.71009 37.45040 36.58024
#
# Velocity S-wave (km/s) = 4.06796 4.16591 4.11722
# Velocity P-wave (km/s) = 7.09112 7.38194 7.23799
#
# Compressibility (1/GPa) = 0.01642146
#
# Stress axis : x y z
#
# Youngs Moduli (GPa) = 79.98665 92.74485 109.99041
#
# Poissons Ratio (x) = 0.05264 0.56180
# Poissons Ratio (y) = 0.04540 0.25320
# Poissons Ratio (z) = 0.40855 0.21350
#
# Static dielectric constant tensor:
#      x y z
#    x 1.775850 0.000000 0.000000 
#    y 0.000000 1.833680 0.000000 
#    z 0.000000 0.000000 1.883170 
# 
# From -- ./inp_files/8851.got.cif
#   From: 2010.05.17/outbox.cif.g08.bks.cpg/sg52_5_cif.got.tgz:8851.got - 2010.06.03 12:15:38.
