data_PCOD9410168
_publ_section_title
;
Structure prediction by ZEFSAII (Michael W. Deem and Ramdas Pophale) SiO2 
 PCOD9410168
Probable space group: P N N A
;
_chemical_formula_sum "Si O2"
_cell_formula_units_Z 60
_cell_length_a 15.196997
_cell_length_b 9.042275
_cell_length_c 21.288125
_cell_angle_alpha 90.000000
_cell_angle_beta 90.000000
_cell_angle_gamma 90.000000
_cell_volume 2925.316767
_symmetry_space_group_name_H-M "P N N A"
_symmetry_group_IT_number 52
_symmetry_cell_setting 'orthorhombic'
loop_
_space_group_symop_operation_xyz
x,y,z
1/2-x,-y,z
x,1/2-y,1/2-z
1/2-x,1/2+y,1/2-z
-x,-y,-z
1/2+x,y,-z
-x,1/2+y,1/2+z
1/2+x,1/2-y,1/2+z
loop_
_atom_site_type_symbol
_atom_site_label
_atom_site_fract_x
_atom_site_fract_y
_atom_site_fract_z
Si Si1 0.665283 0.082006 0.722573
Si Si2 0.620865 0.273251 0.087467
Si Si3 0.941954 0.404531 0.874545
Si Si4 0.821016 0.323328 0.129341
Si Si5 0.107519 0.500523 0.657630
Si Si6 0.073225 0.867507 0.195224
Si Si7 0.353709 0.495276 0.998698
Si Si8 0.750000 0.000000 0.256577
O O1 0.671028 0.250000 0.750000
O O2 0.750000 0.000000 0.691985
O O3 0.587073 0.036250 0.673050
O O4 0.647852 0.975867 0.781731
O O5 0.544572 0.355218 0.127515
O O6 0.718582 0.309312 0.110512
O O7 0.611864 0.099532 0.095525
O O8 0.615555 0.339665 0.018606
O O9 0.896887 0.246997 0.857674
O O10 0.912145 0.440823 0.944476
O O11 0.861559 0.403894 0.067521
O O12 0.810935 0.404757 0.196445
O O13 0.866742 0.167485 0.142938
O O14 0.178077 0.434316 0.707896
O O15 0.010268 0.470018 0.682195
O O16 0.049914 0.750000 0.250000
O O17 0.250000 0.500000 0.015109
#
# Coordination Sequence:
#
# PCOD9410168 Si02
#       8
#     8   8   8   8   8   8   8   4
#     4  11  23  41  65  94 125 152 198 264 325 378
#     4  10  20  39  54  85 122 158 209 258 305 358
#     4  10  21  39  65  85 114 168 205 249 318 379
#     4  11  22  37  54  86 122 160 209 264 298 377
#     4  11  23  34  59  86 125 167 205 245 323 368
#     4   9  22  39  60  92 128 160 203 266 310 381
#     4  10  21  38  60  80 116 158 212 259 303 369
#     4  12  22  32  58  84 124 168 202 248 308 378
#
# _framework density 20.510598000000002
#
# number of rings (size 3 to 8) (size 9 to 14) (size 15 to 20)
#    0.000    1.600    3.333    2.400    5.600    2.133 
#    0.000    4.000    0.000    3.200    0.000    0.000 
#    0.000    0.000    0.000    0.000    0.000    0.000 
#
# Total GULP energy -334041.795405 kJ/mol
# GULP energy per Si atom -5567.363257 kJ/mol
# Density = 2.046391 g / cm^3
# Si number density = 20.510598 Si / 1000 Ang^3
#
#
#
# Elastic Constant Matrix: (Units=GPa)
#
#
# Indices 1 2 3 4 5 6 
#
# 1 46.9766 35.2299 10.4093 0.0000 0.0000 0.0000
# 2 35.2299 144.8891 61.2105 0.0000 0.0000 0.0000
# 3 10.4093 61.2105 85.2728 0.0000 0.0000 0.0000
# 4 0.0000 0.0000 0.0000 28.2476 0.0000 0.0000
# 5 0.0000 0.0000 0.0000 0.0000 18.1647 0.0000
# 6 0.0000 0.0000 0.0000 0.0000 0.0000 29.4480
#
#
#
# Elastic Compliance Matrix: (Units=1/GPa)
#
#
# Indices 1 2 3 4 5 6 
#
# 1 0.026265 -0.007222 0.001978 0.000000 0.000000 0.000000
# 2 -0.007222 0.011892 -0.007654 0.000000 0.000000 0.000000
# 3 0.001978 -0.007654 0.016980 0.000000 0.000000 0.000000
# 4 0.000000 0.000000 0.000000 0.035401 0.000000 0.000000
# 5 0.000000 0.000000 0.000000 0.000000 0.055052 0.000000
# 6 0.000000 0.000000 0.000000 0.000000 0.000000 0.033958
#
#
# Mechanical properties :
#
#
# Convention : Reuss Voigt Hill
#
# Bulk Modulus (GPa) = 34.08351 54.53755 44.31053
# Shear Modulus (GPa) = 23.24233 26.52464 24.88348
#
# Velocity S-wave (km/s) = 3.36993 3.60003 3.48688
# Velocity P-wave (km/s) = 5.63875 6.62782 6.15319
#
# Compressibility (1/GPa) = 0.02933970
#
# Stress axis : x y z
#
# Youngs Moduli (GPa) = 38.07346 84.09322 58.89244
#
# Poissons Ratio (x) = 0.60732 -0.11648
# Poissons Ratio (y) = 0.27496 0.45079
# Poissons Ratio (z) = -0.07530 0.64368
#
# Static dielectric constant tensor:
#      x y z
#    x 1.839560 0.000000 0.000000 
#    y 0.000000 1.783940 0.000000 
#    z 0.000000 0.000000 1.769580 
# 
# From -- ./inp_files/40629.got.cif
#   From: 2010.05.17/outbox.cif.g08.bks.cpg/sg52_21_cif.got.tgz:40629.got - 2010.06.03 12:15:38.
