data_PCOD9410709
_publ_section_title
;
Structure prediction by ZEFSAII (Michael W. Deem and Ramdas Pophale) SiO2 
 PCOD9410709
Probable space group: P N N A
;
_chemical_formula_sum "Si O2"
_cell_formula_units_Z 48
_cell_length_a 20.339417
_cell_length_b 17.450671
_cell_length_c 5.646184
_cell_angle_alpha 90.000000
_cell_angle_beta 90.000000
_cell_angle_gamma 90.000000
_cell_volume 2004.036643
_symmetry_space_group_name_H-M "P N N A"
_symmetry_group_IT_number 52
_symmetry_cell_setting 'orthorhombic'
loop_
_space_group_symop_operation_xyz
x,y,z
1/2-x,-y,z
x,1/2-y,1/2-z
1/2-x,1/2+y,1/2-z
-x,-y,-z
1/2+x,y,-z
-x,1/2+y,1/2+z
1/2+x,1/2-y,1/2+z
loop_
_atom_site_type_symbol
_atom_site_label
_atom_site_fract_x
_atom_site_fract_y
_atom_site_fract_z
Si Si1 0.700067 0.051261 0.627851
Si Si2 0.266376 0.658893 0.746388
Si Si3 0.642806 0.569042 0.225292
Si Si4 0.913095 0.212374 0.501157
Si Si5 0.559823 0.271969 0.498129
Si Si6 0.106717 0.073676 0.990780
O O1 0.727580 0.129053 0.518584
O O2 0.750000 0.000000 0.785598
O O3 0.685024 0.991434 0.421501
O O4 0.629897 0.064422 0.742329
O O5 0.263825 0.750000 0.750000
O O6 0.198389 0.621725 0.649535
O O7 0.329017 0.619975 0.615550
O O8 0.599471 0.510891 0.382743
O O9 0.604645 0.624104 0.043570
O O10 0.888738 0.250000 0.750000
O O11 0.991414 0.226467 0.503313
O O12 0.891488 0.250000 0.250000
O O13 0.593538 0.250000 0.250000
O O14 0.549668 0.363572 0.481328
O O15 0.592640 0.250000 0.750000
#
# Coordination Sequence:
#
# PCOD9410709 Si02
#       6
#     8   8   8   8   8   8
#     4   9  20  37  57  94 133 173 219 272 336 418
#     4  10  21  37  59  96 133 174 225 273 340 417
#     4  10  22  40  64  93 134 177 224 280 347 415
#     4  10  23  46  69  94 130 175 230 287 334 396
#     4  10  24  44  69  95 130 175 230 287 337 396
#     4  11  22  37  66  92 135 176 221 279 347 415
#
# _framework density 23.951657999999998
#
# number of rings (size 3 to 8) (size 9 to 14) (size 15 to 20)
#    0.000    2.000    0.000    3.500    9.333    0.000 
#    6.000    6.667    0.000    0.000    0.000    0.000 
#    0.000    0.000    0.000    0.000    0.000    0.000 
#
# Total GULP energy -267339.120906 kJ/mol
# GULP energy per Si atom -5569.565019 kJ/mol
# Density = 2.389714 g / cm^3
# Si number density = 23.951658 Si / 1000 Ang^3
#
#
#
# Elastic Constant Matrix: (Units=GPa)
#
#
# Indices 1 2 3 4 5 6 
#
# 1 48.1275 30.8946 -3.2963 0.0000 0.0000 0.0000
# 2 30.8946 200.3915 56.3212 0.0000 0.0000 0.0000
# 3 -3.2963 56.3212 120.5837 0.0000 0.0000 0.0000
# 4 0.0000 0.0000 0.0000 35.7640 0.0000 0.0000
# 5 0.0000 0.0000 0.0000 0.0000 10.5825 0.0000
# 6 0.0000 0.0000 0.0000 0.0000 0.0000 29.6312
#
#
#
# Elastic Compliance Matrix: (Units=1/GPa)
#
#
# Indices 1 2 3 4 5 6 
#
# 1 0.023813 -0.004437 0.002723 0.000000 0.000000 0.000000
# 2 -0.004437 0.006571 -0.003190 0.000000 0.000000 0.000000
# 3 0.002723 -0.003190 0.009858 0.000000 0.000000 0.000000
# 4 0.000000 0.000000 0.000000 0.027961 0.000000 0.000000
# 5 0.000000 0.000000 0.000000 0.000000 0.094495 0.000000
# 6 0.000000 0.000000 0.000000 0.000000 0.000000 0.033748
#
#
# Mechanical properties :
#
#
# Convention : Reuss Voigt Hill
#
# Bulk Modulus (GPa) = 32.85852 59.66019 46.25936
# Shear Modulus (GPa) = 23.10559 34.20777 28.65668
#
# Velocity S-wave (km/s) = 3.10929 3.78325 3.46271
# Velocity P-wave (km/s) = 5.16127 6.63677 5.94497
#
# Compressibility (1/GPa) = 0.03043351
#
# Stress axis : x y z
#
# Youngs Moduli (GPa) = 41.99452 152.18629 101.44500
#
# Poissons Ratio (x) = 0.67519 -0.27625
# Poissons Ratio (y) = 0.18631 0.32365
# Poissons Ratio (z) = -0.11436 0.48553
#
# Static dielectric constant tensor:
#      x y z
#    x 2.022160 0.000000 0.000000 
#    y 0.000000 1.926220 0.000000 
#    z 0.000000 0.000000 2.096840 
# 
# From -- ./inp_files/5806.got.cif
#   From: 2010.05.17/outbox.cif.g08.bks.cpg/sg52_3_cif.got.tgz:5806.got - 2010.06.03 12:15:38.
