data_PCOD9410213
_publ_section_title
;
Structure prediction by ZEFSAII (Michael W. Deem and Ramdas Pophale) SiO2 
 PCOD9410213
Probable space group: P N N A
;
_chemical_formula_sum "Si O2"
_cell_formula_units_Z 64
_cell_length_a 7.421595
_cell_length_b 12.713928
_cell_length_c 29.842535
_cell_angle_alpha 90.000000
_cell_angle_beta 90.000000
_cell_angle_gamma 90.000000
_cell_volume 2815.870711
_symmetry_space_group_name_H-M "P N N A"
_symmetry_group_IT_number 52
_symmetry_cell_setting 'orthorhombic'
loop_
_space_group_symop_operation_xyz
x,y,z
1/2-x,-y,z
x,1/2-y,1/2-z
1/2-x,1/2+y,1/2-z
-x,-y,-z
1/2+x,y,-z
-x,1/2+y,1/2+z
1/2+x,1/2-y,1/2+z
loop_
_atom_site_type_symbol
_atom_site_label
_atom_site_fract_x
_atom_site_fract_y
_atom_site_fract_z
Si Si1 0.634133 0.393820 0.722230
Si Si2 0.527838 0.893462 0.128773
Si Si3 0.451502 0.872127 0.881784
Si Si4 0.531432 0.499557 0.087367
Si Si5 0.967584 0.495619 0.192226
Si Si6 0.957262 0.236083 0.704341
Si Si7 0.000527 0.777967 0.557410
Si Si8 0.930318 0.779810 0.455044
O O1 0.750000 0.500000 0.714563
O O2 0.493380 0.377497 0.681990
O O3 0.542270 0.414223 0.770655
O O4 0.774956 0.300564 0.713751
O O5 0.737842 0.890819 0.116777
O O6 0.444483 0.802887 0.096856
O O7 0.461943 0.013021 0.121637
O O8 0.473473 0.792577 0.840060
O O9 0.515793 0.812021 0.925597
O O10 0.750000 0.500000 0.085179
O O11 0.489680 0.519074 0.139863
O O12 0.446139 0.600998 0.064428
O O13 0.486398 0.390290 0.062403
O O14 0.750000 0.500000 0.196824
O O15 0.052218 0.611059 0.200438
O O16 0.072672 0.250000 0.750000
O O17 0.218719 0.782025 0.557156
O O18 0.944125 0.752648 0.507049
#
# Coordination Sequence:
#
# PCOD9410213 Si02
#       8
#     8   8   8   8   8   8   8   8
#     4  12  25  43  64  99 144 179 217 297 352 406
#     4  10  23  41  63  94 130 178 237 275 342 435
#     4  10  21  41  68  91 126 182 235 285 336 419
#     4   9  19  40  65  94 129 167 229 286 329 409
#     4  11  25  46  72 102 134 191 248 278 339 437
#     4  12  24  43  65  98 140 177 225 290 354 403
#     4  10  22  39  62  96 126 170 225 282 354 414
#     4  10  20  39  64  92 130 168 223 292 345 411
#
# _framework density 22.728314000000001
#
# number of rings (size 3 to 8) (size 9 to 14) (size 15 to 20)
#    0.000    1.500    3.750    0.375    5.250    2.500 
#    0.000    0.000    0.000    0.000    0.000    0.000 
#    0.000    0.000    0.000    0.000    0.000    0.000 
#
# Total GULP energy -357104.347794 kJ/mol
# GULP energy per Si atom -5579.755434 kJ/mol
# Density = 2.267658 g / cm^3
# Si number density = 22.728314 Si / 1000 Ang^3
#
#
#
# Elastic Constant Matrix: (Units=GPa)
#
#
# Indices 1 2 3 4 5 6 
#
# 1 57.0225 3.7468 -19.2218 0.0000 0.0000 0.0000
# 2 3.7468 96.3061 21.1195 0.0000 0.0000 0.0000
# 3 -19.2218 21.1195 104.5277 0.0000 0.0000 0.0000
# 4 0.0000 0.0000 0.0000 37.5130 0.0000 0.0000
# 5 0.0000 0.0000 0.0000 0.0000 34.0375 0.0000
# 6 0.0000 0.0000 0.0000 0.0000 0.0000 12.3157
#
#
#
# Elastic Compliance Matrix: (Units=1/GPa)
#
#
# Indices 1 2 3 4 5 6 
#
# 1 0.018920 -0.001569 0.003796 0.000000 0.000000 0.000000
# 2 -0.001569 0.010995 -0.002510 0.000000 0.000000 0.000000
# 3 0.003796 -0.002510 0.010772 0.000000 0.000000 0.000000
# 4 0.000000 0.000000 0.000000 0.026657 0.000000 0.000000
# 5 0.000000 0.000000 0.000000 0.000000 0.029379 0.000000
# 6 0.000000 0.000000 0.000000 0.000000 0.000000 0.081197
#
#
# Mechanical properties :
#
#
# Convention : Reuss Voigt Hill
#
# Bulk Modulus (GPa) = 24.92407 29.90504 27.41455
# Shear Modulus (GPa) = 26.06078 33.58738 29.82408
#
# Velocity S-wave (km/s) = 3.38985 3.84836 3.62636
# Velocity P-wave (km/s) = 5.12946 5.73870 5.44261
#
# Compressibility (1/GPa) = 0.04012186
#
# Stress axis : x y z
#
# Youngs Moduli (GPa) = 52.85519 90.95046 92.83297
#
# Poissons Ratio (x) = 0.14266 -0.35240
# Poissons Ratio (y) = 0.08291 0.23301
# Poissons Ratio (z) = -0.20064 0.22828
#
# Static dielectric constant tensor:
#      x y z
#    x 1.891950 0.000000 0.000000 
#    y 0.000000 1.981340 0.000000 
#    z 0.000000 0.000000 1.936870 
# 
# From -- ./inp_files/44611.got.cif
#   From: 2010.05.17/outbox.cif.g08.bks.cpg/sg52_23_cif.got.tgz:44611.got - 2010.06.03 12:15:38.
