data_PCOD9410005
_publ_section_title
;
Structure prediction by ZEFSAII (Michael W. Deem and Ramdas Pophale) SiO2 
 PCOD9410005
Probable space group: P N N A
;
_chemical_formula_sum "Si O2"
_cell_formula_units_Z 40
_cell_length_a 22.099296
_cell_length_b 5.852834
_cell_length_c 15.163890
_cell_angle_alpha 90.000000
_cell_angle_beta 90.000000
_cell_angle_gamma 90.000000
_cell_volume 1961.350773
_symmetry_space_group_name_H-M "P N N A"
_symmetry_group_IT_number 52
_symmetry_cell_setting 'orthorhombic'
loop_
_space_group_symop_operation_xyz
x,y,z
1/2-x,-y,z
x,1/2-y,1/2-z
1/2-x,1/2+y,1/2-z
-x,-y,-z
1/2+x,y,-z
-x,1/2+y,1/2+z
1/2+x,1/2-y,1/2+z
loop_
_atom_site_type_symbol
_atom_site_label
_atom_site_fract_x
_atom_site_fract_y
_atom_site_fract_z
Si Si1 0.806628 0.136481 0.664814
Si Si2 0.715099 0.750000 0.250000
Si Si3 0.971441 0.813849 0.065482
Si Si4 0.413859 0.428612 0.055442
Si Si5 0.358868 0.074849 0.913649
Si Si6 0.750000 0.500000 0.528912
O O1 0.835986 0.250000 0.750000
O O2 0.858842 0.996216 0.616816
O O3 0.776612 0.304951 0.592598
O O4 0.750000 0.000000 0.701653
O O5 0.750000 0.500000 0.241404
O O6 0.673763 0.787876 0.163863
O O7 0.029811 0.688887 0.106911
O O8 0.916147 0.925702 0.118996
O O9 0.939981 0.631788 0.001655
O O10 0.000000 0.000000 0.000000
O O11 0.386445 0.245861 0.986475
O O12 0.305904 0.933463 0.964448
#
# Coordination Sequence:
#
# PCOD9410005 Si02
#       6
#     8   4   8   8   8   4
#     4  11  21  35  57  89 125 160 207 266 325 390
#     4  12  28  44  64 102 140 174 226 290 342 408
#     4   9  18  38  60  88 116 164 222 265 325 403
#     4   9  20  36  62  87 121 166 217 269 326 405
#     4  10  21  38  64  88 125 167 215 273 332 400
#     4  10  20  38  58  90 118 170 206 256 334 398
#
# _framework density 20.394109
#
# number of rings (size 3 to 8) (size 9 to 14) (size 15 to 20)
#    0.000    2.000    2.000    1.200    2.800    3.200 
#    0.000    6.000    0.000    0.000    0.000    0.000 
#    0.000    0.000    0.000    0.000    0.000    0.000 
#
# Total GULP energy -222697.057633 kJ/mol
# GULP energy per Si atom -5567.426441 kJ/mol
# Density = 2.034769 g / cm^3
# Si number density = 20.394109 Si / 1000 Ang^3
#
#
#
# Elastic Constant Matrix: (Units=GPa)
#
#
# Indices 1 2 3 4 5 6 
#
# 1 135.6703 39.6191 34.1907 0.0000 0.0000 0.0000
# 2 39.6191 53.0277 -1.6952 0.0000 0.0000 0.0000
# 3 34.1907 -1.6952 54.1995 0.0000 0.0000 0.0000
# 4 0.0000 0.0000 0.0000 17.2877 0.0000 0.0000
# 5 0.0000 0.0000 0.0000 0.0000 -26.3026 0.0000
# 6 0.0000 0.0000 0.0000 0.0000 0.0000 27.9827
#
#
#
# Elastic Compliance Matrix: (Units=1/GPa)
#
#
# Indices 1 2 3 4 5 6 
#
# 1 0.012070 -0.009271 -0.007904 0.000000 0.000000 0.000000
# 2 -0.009271 0.025998 0.006661 0.000000 0.000000 0.000000
# 3 -0.007904 0.006661 0.023645 0.000000 0.000000 0.000000
# 4 0.000000 0.000000 0.000000 0.057845 0.000000 0.000000
# 5 0.000000 0.000000 0.000000 0.000000 -0.038019 0.000000
# 6 0.000000 0.000000 0.000000 0.000000 0.000000 0.035736
#
#
# Mechanical properties :
#
#
# Convention : Reuss Voigt Hill
#
# Bulk Modulus (GPa) = 24.57877 43.01408 33.79643
# Shear Modulus (GPa) = 32.92443 15.17909 24.05176
#
# Velocity S-wave (km/s) = 4.02233 2.73112 3.43789
# Velocity P-wave (km/s) = 5.80088 5.57518 5.68915
#
# Compressibility (1/GPa) = 0.04068552
#
# Stress axis : x y z
#
# Youngs Moduli (GPa) = 82.84998 38.46521 42.29254
#
# Poissons Ratio (x) = 0.35660 0.33428
# Poissons Ratio (y) = 0.76807 -0.28172
# Poissons Ratio (z) = 0.65485 -0.25623
#
# Static dielectric constant tensor:
#      x y z
#    x 1.789920 0.000000 0.000000 
#    y 0.000000 1.782760 0.000000 
#    z 0.000000 0.000000 1.679650 
# 
# From -- ./inp_files/29081.got.cif
#   From: 2010.05.17/outbox.cif.g08.bks.cpg/sg52_15_cif.got.tgz:29081.got - 2010.06.03 12:15:38.
