data_PCOD9410797
_publ_section_title
;
Structure prediction by ZEFSAII (Michael W. Deem and Ramdas Pophale) SiO2 
 PCOD9410797
Probable space group: P N N A
;
_chemical_formula_sum "Si O2"
_cell_formula_units_Z 64
_cell_length_a 9.325729
_cell_length_b 17.169710
_cell_length_c 19.681562
_cell_angle_alpha 90.000000
_cell_angle_beta 90.000000
_cell_angle_gamma 90.000000
_cell_volume 3151.412937
_symmetry_space_group_name_H-M "P N N A"
_symmetry_group_IT_number 52
_symmetry_cell_setting 'orthorhombic'
loop_
_space_group_symop_operation_xyz
x,y,z
1/2-x,-y,z
x,1/2-y,1/2-z
1/2-x,1/2+y,1/2-z
-x,-y,-z
1/2+x,y,-z
-x,1/2+y,1/2+z
1/2+x,1/2-y,1/2+z
loop_
_atom_site_type_symbol
_atom_site_label
_atom_site_fract_x
_atom_site_fract_y
_atom_site_fract_z
Si Si1 0.833293 0.081501 0.827065
Si Si2 0.327648 0.341636 0.557598
Si Si3 0.024854 0.421059 0.956308
Si Si4 0.833293 0.081501 0.672935
Si Si5 0.043921 0.157342 0.173281
Si Si6 0.475146 0.578941 0.543692
Si Si7 0.672352 0.841636 0.442402
Si Si8 0.956079 0.657342 0.826719
O O1 0.878662 0.102406 0.750000
O O2 0.705399 0.138891 0.850456
O O3 0.959307 0.073681 0.880997
O O4 0.750000 0.000000 0.824660
O O5 0.420352 0.369645 0.622663
O O6 0.188675 0.394434 0.546766
O O7 0.434174 0.354870 0.494930
O O8 0.290822 0.250000 0.564826
O O9 0.188675 0.394434 0.953234
O O10 0.959307 0.426319 0.880997
O O11 0.000000 0.500000 0.000000
O O12 0.934174 0.354870 0.994930
O O13 0.705399 0.138891 0.649544
O O14 0.750000 0.000000 0.675340
O O15 0.029637 0.250000 0.176244
O O16 0.030007 0.125282 0.250000
O O17 0.500000 0.500000 0.500000
O O18 0.579649 0.869645 0.377337
#
# Coordination Sequence:
#
# PCOD9410797 Si02
#       8
#     8   8   8   8   8   8   8   8
#     4  10  21  38  60  84 112 148 189 234 286 344
#     4  11  23  38  59  85 116 154 194 238 287 342
#     4  12  24  39  59  86 118 153 194 241 290 340
#     4  10  21  38  60  84 112 148 189 234 286 344
#     4   9  19  37  60  86 117 152 189 233 288 345
#     4  12  24  39  59  86 118 153 194 241 290 340
#     4  11  23  38  59  85 116 154 194 238 287 342
#     4   9  19  37  60  86 117 152 189 233 288 345
#
# _framework density 20.308350000000001
#
# number of rings (size 3 to 8) (size 9 to 14) (size 15 to 20)
#    0.000    1.500    0.000    6.000    0.000    5.000 
#    0.000    0.000    0.000    7.500    0.000    0.000 
#    0.000    0.000    0.000    0.000    0.000    0.000 
#
# Total GULP energy -357471.655554 kJ/mol
# GULP energy per Si atom -5585.494618 kJ/mol
# Density = 2.026213 g / cm^3
# Si number density = 20.308350 Si / 1000 Ang^3
#
#
#
# Elastic Constant Matrix: (Units=GPa)
#
#
# Indices 1 2 3 4 5 6 
#
# 1 114.7311 24.0438 67.1300 0.0000 0.0000 0.0000
# 2 24.0438 50.7065 21.6734 0.0000 0.0000 0.0000
# 3 67.1300 21.6734 98.3489 0.0000 0.0000 0.0000
# 4 0.0000 0.0000 0.0000 17.6956 0.0000 0.0000
# 5 0.0000 0.0000 0.0000 0.0000 37.9006 0.0000
# 6 0.0000 0.0000 0.0000 0.0000 0.0000 35.7395
#
#
#
# Elastic Compliance Matrix: (Units=1/GPa)
#
#
# Indices 1 2 3 4 5 6 
#
# 1 0.014915 -0.003004 -0.009518 0.000000 0.000000 0.000000
# 2 -0.003004 0.022377 -0.002881 0.000000 0.000000 0.000000
# 3 -0.009518 -0.002881 0.017300 0.000000 0.000000 0.000000
# 4 0.000000 0.000000 0.000000 0.056511 0.000000 0.000000
# 5 0.000000 0.000000 0.000000 0.000000 0.026385 0.000000
# 6 0.000000 0.000000 0.000000 0.000000 0.000000 0.027980
#
#
# Mechanical properties :
#
#
# Convention : Reuss Voigt Hill
#
# Bulk Modulus (GPa) = 42.04296 54.38677 48.21487
# Shear Modulus (GPa) = 24.48546 28.32976 26.40761
#
# Velocity S-wave (km/s) = 3.47606 3.73900 3.60992
# Velocity P-wave (km/s) = 6.07107 6.74379 6.41626
#
# Compressibility (1/GPa) = 0.02378520
#
# Stress axis : x y z
#
# Youngs Moduli (GPa) = 67.04727 44.68855 57.80420
#
# Poissons Ratio (x) = 0.13424 0.55021
# Poissons Ratio (y) = 0.20140 0.16653
# Poissons Ratio (z) = 0.63819 0.12875
#
# Static dielectric constant tensor:
#      x y z
#    x 1.699130 0.000000 0.000000 
#    y 0.000000 1.767350 0.000000 
#    z 0.000000 0.000000 1.780340 
# 
# From -- ./inp_files/36172.got.cif
#   From: 2010.05.17/outbox.cif.g08.bks.cpg/sg52_19_cif.got.tgz:36172.got - 2010.06.03 12:15:38.
