data_PCOD9410345
_publ_section_title
;
Structure prediction by ZEFSAII (Michael W. Deem and Ramdas Pophale) SiO2 
 PCOD9410345
Probable space group: P N N A
;
_chemical_formula_sum "Si O2"
_cell_formula_units_Z 36
_cell_length_a 15.340049
_cell_length_b 13.567646
_cell_length_c 8.347400
_cell_angle_alpha 90.000000
_cell_angle_beta 90.000000
_cell_angle_gamma 90.000000
_cell_volume 1737.330626
_symmetry_space_group_name_H-M "P N N A"
_symmetry_group_IT_number 52
_symmetry_cell_setting 'orthorhombic'
loop_
_space_group_symop_operation_xyz
x,y,z
1/2-x,-y,z
x,1/2-y,1/2-z
1/2-x,1/2+y,1/2-z
-x,-y,-z
1/2+x,y,-z
-x,1/2+y,1/2+z
1/2+x,1/2-y,1/2+z
loop_
_atom_site_type_symbol
_atom_site_label
_atom_site_fract_x
_atom_site_fract_y
_atom_site_fract_z
Si Si1 0.472116 0.885293 0.505140
Si Si2 0.249202 0.388282 0.458433
Si Si3 0.632119 0.762250 0.437936
Si Si4 0.289555 0.895074 0.665329
Si Si5 0.875584 0.750000 0.750000
O O1 0.560530 0.824108 0.532519
O O2 0.389988 0.879891 0.623625
O O3 0.432355 0.829322 0.349536
O O4 0.500000 0.000000 0.500000
O O5 0.250000 0.500000 0.396270
O O6 0.344912 0.339465 0.474183
O O7 0.218804 0.390675 0.643491
O O8 0.185969 0.318496 0.358816
O O9 0.606219 0.750000 0.250000
O O10 0.724530 0.818679 0.419615
O O11 0.250000 0.000000 0.614094
#
# Coordination Sequence:
#
# PCOD9410345 Si02
#       5
#     8   8   8   8   4
#     4  12  24  40  72 106 136 181 229 284 348 415
#     4  10  24  44  70  95 137 184 228 284 349 409
#     4  10  20  40  69  96 134 178 220 274 342 412
#     4  10  20  41  72  99 136 180 220 269 349 421
#     4  12  26  44  66 100 140 176 240 296 330 410
#
# _framework density 20.721444000000002
#
# number of rings (size 3 to 8) (size 9 to 14) (size 15 to 20)
#    0.000    1.333    5.556    0.000    0.000    2.667 
#    0.000    8.889    0.000    0.000    0.000    0.000 
#    0.000    0.000    0.000    0.000    0.000    0.000 
#
# Total GULP energy -200807.884507 kJ/mol
# GULP energy per Si atom -5577.996792 kJ/mol
# Density = 2.067428 g / cm^3
# Si number density = 20.721444 Si / 1000 Ang^3
#
#
#
# Elastic Constant Matrix: (Units=GPa)
#
#
# Indices 1 2 3 4 5 6 
#
# 1 140.1909 68.6056 32.8368 0.0000 0.0000 0.0000
# 2 68.6056 166.7484 41.6793 0.0000 0.0000 0.0000
# 3 32.8368 41.6793 31.8793 0.0000 0.0000 0.0000
# 4 0.0000 0.0000 0.0000 26.1309 0.0000 0.0000
# 5 0.0000 0.0000 0.0000 0.0000 14.9696 0.0000
# 6 0.0000 0.0000 0.0000 0.0000 0.0000 14.5725
#
#
#
# Elastic Compliance Matrix: (Units=1/GPa)
#
#
# Indices 1 2 3 4 5 6 
#
# 1 0.009951 -0.002276 -0.007274 0.000000 0.000000 0.000000
# 2 -0.002276 0.009429 -0.009983 0.000000 0.000000 0.000000
# 3 -0.007274 -0.009983 0.051913 0.000000 0.000000 0.000000
# 4 0.000000 0.000000 0.000000 0.038269 0.000000 0.000000
# 5 0.000000 0.000000 0.000000 0.000000 0.066802 0.000000
# 6 0.000000 0.000000 0.000000 0.000000 0.000000 0.068623
#
#
# Mechanical properties :
#
#
# Convention : Reuss Voigt Hill
#
# Bulk Modulus (GPa) = 31.03053 69.45132 50.24093
# Shear Modulus (GPa) = 16.96104 24.18106 20.57105
#
# Velocity S-wave (km/s) = 2.86409 3.41978 3.15420
# Velocity P-wave (km/s) = 5.09362 7.01303 6.12893
#
# Compressibility (1/GPa) = 0.03222632
#
# Stress axis : x y z
#
# Youngs Moduli (GPa) = 100.49579 106.05926 19.26308
#
# Poissons Ratio (x) = 0.24137 0.14012
# Poissons Ratio (y) = 0.22871 0.19230
# Poissons Ratio (z) = 0.73101 1.05879
#
# Static dielectric constant tensor:
#      x y z
#    x 1.752120 0.000000 0.000000 
#    y 0.000000 1.832870 0.000000 
#    z 0.000000 0.000000 1.750160 
# 
# From -- ./inp_files/9911.got.cif
#   From: 2010.05.17/outbox.cif.g08.bks.cpg/sg52_5_cif.got.tgz:9911.got - 2010.06.03 12:15:38.
