data_PCOD9410831
_publ_section_title
;
Structure prediction by ZEFSAII (Michael W. Deem and Ramdas Pophale) SiO2 
 PCOD9410831
Probable space group: P N N A
;
_chemical_formula_sum "Si O2"
_cell_formula_units_Z 56
_cell_length_a 5.555537
_cell_length_b 18.938320
_cell_length_c 23.756043
_cell_angle_alpha 90.000000
_cell_angle_beta 90.000000
_cell_angle_gamma 90.000000
_cell_volume 2499.433564
_symmetry_space_group_name_H-M "P N N A"
_symmetry_group_IT_number 52
_symmetry_cell_setting 'orthorhombic'
loop_
_space_group_symop_operation_xyz
x,y,z
1/2-x,-y,z
x,1/2-y,1/2-z
1/2-x,1/2+y,1/2-z
-x,-y,-z
1/2+x,y,-z
-x,1/2+y,1/2+z
1/2+x,1/2-y,1/2+z
loop_
_atom_site_type_symbol
_atom_site_label
_atom_site_fract_x
_atom_site_fract_y
_atom_site_fract_z
Si Si1 0.905370 0.931722 0.814301
Si Si2 0.842374 0.173288 0.251451
Si Si3 0.529712 0.718879 0.467752
Si Si4 0.521327 0.671966 0.644271
Si Si5 0.741317 0.084247 0.470312
Si Si6 0.805939 0.074240 0.072853
Si Si7 0.200573 0.305158 0.877684
O O1 0.759911 0.862847 0.833942
O O2 0.031732 0.901279 0.759358
O O3 0.062737 0.948404 0.869071
O O4 0.750000 0.000000 0.802037
O O5 0.976879 0.250000 0.250000
O O6 0.657557 0.174849 0.198413
O O7 0.735891 0.173898 0.313404
O O8 0.272633 0.736546 0.495805
O O9 0.537662 0.633657 0.458650
O O10 0.590777 0.757615 0.408340
O O11 0.419717 0.619782 0.596044
O O12 0.522722 0.750832 0.621118
O O13 0.511993 0.103604 0.509657
O O14 0.681906 0.125148 0.413729
O O15 0.750000 0.000000 0.464151
O O16 0.750000 0.000000 0.042840
#
# Coordination Sequence:
#
# PCOD9410831 Si02
#       7
#     8   8   8   8   8   8   8
#     4  11  21  38  68  95 132 178 216 267 333 409
#     4   9  21  41  58  94 131 165 216 270 328 393
#     4  11  26  43  64  96 130 169 227 281 331 387
#     4   9  20  39  60  93 127 170 210 262 319 394
#     4  10  22  45  70  96 130 170 217 279 344 398
#     4  10  21  38  62  88 131 174 217 262 328 392
#     4  10  21  43  66  91 129 170 216 274 334 401
#
# _framework density 22.405075
#
# number of rings (size 3 to 8) (size 9 to 14) (size 15 to 20)
#    0.000    2.000    1.429    1.714    4.000    2.286 
#   15.429    0.714    0.000    0.000    0.000    0.000 
#    0.000    0.000    0.000    0.000    0.000    0.000 
#
# Total GULP energy -312477.635318 kJ/mol
# GULP energy per Si atom -5579.957774 kJ/mol
# Density = 2.235408 g / cm^3
# Si number density = 22.405075 Si / 1000 Ang^3
#
#
#
# Elastic Constant Matrix: (Units=GPa)
#
#
# Indices 1 2 3 4 5 6 
#
# 1 71.9066 30.5426 17.5997 0.0000 0.0000 0.0000
# 2 30.5426 60.9825 22.8751 0.0000 0.0000 0.0000
# 3 17.5997 22.8751 74.3878 0.0000 0.0000 0.0000
# 4 0.0000 0.0000 0.0000 34.2340 0.0000 0.0000
# 5 0.0000 0.0000 0.0000 0.0000 10.4685 0.0000
# 6 0.0000 0.0000 0.0000 0.0000 0.0000 27.7176
#
#
#
# Elastic Compliance Matrix: (Units=1/GPa)
#
#
# Indices 1 2 3 4 5 6 
#
# 1 0.017846 -0.008313 -0.001666 0.000000 0.000000 0.000000
# 2 -0.008313 0.022409 -0.004924 0.000000 0.000000 0.000000
# 3 -0.001666 -0.004924 0.015351 0.000000 0.000000 0.000000
# 4 0.000000 0.000000 0.000000 0.029211 0.000000 0.000000
# 5 0.000000 0.000000 0.000000 0.000000 0.095525 0.000000
# 6 0.000000 0.000000 0.000000 0.000000 0.000000 0.036078
#
#
# Mechanical properties :
#
#
# Convention : Reuss Voigt Hill
#
# Bulk Modulus (GPa) = 38.75986 38.81240 38.78613
# Shear Modulus (GPa) = 19.62127 23.56798 21.59463
#
# Velocity S-wave (km/s) = 2.96252 3.24682 3.10793
# Velocity P-wave (km/s) = 5.38880 5.60504 5.49798
#
# Compressibility (1/GPa) = 0.02579989
#
# Stress axis : x y z
#
# Youngs Moduli (GPa) = 56.03618 44.62546 65.14059
#
# Poissons Ratio (x) = 0.37097 0.10851
# Poissons Ratio (y) = 0.46583 0.32076
# Poissons Ratio (z) = 0.09335 0.21974
#
# Static dielectric constant tensor:
#      x y z
#    x 1.895790 0.000000 0.000000 
#    y 0.000000 1.857460 0.000000 
#    z 0.000000 0.000000 1.823840 
# 
# From -- ./inp_files/38852.got.cif
#   From: 2010.05.17/outbox.cif.g08.bks.cpg/sg52_20_cif.got.tgz:38852.got - 2010.06.03 12:15:38.
