data_PCOD9410753
_publ_section_title
;
Structure prediction by ZEFSAII (Michael W. Deem and Ramdas Pophale) SiO2 
 PCOD9410753
Probable space group: P N N A
;
_chemical_formula_sum "Si O2"
_cell_formula_units_Z 48
_cell_length_a 15.811625
_cell_length_b 7.424289
_cell_length_c 16.309096
_cell_angle_alpha 90.000000
_cell_angle_beta 90.000000
_cell_angle_gamma 90.000000
_cell_volume 1914.525979
_symmetry_space_group_name_H-M "P N N A"
_symmetry_group_IT_number 52
_symmetry_cell_setting 'orthorhombic'
loop_
_space_group_symop_operation_xyz
x,y,z
1/2-x,-y,z
x,1/2-y,1/2-z
1/2-x,1/2+y,1/2-z
-x,-y,-z
1/2+x,y,-z
-x,1/2+y,1/2+z
1/2+x,1/2-y,1/2+z
loop_
_atom_site_type_symbol
_atom_site_label
_atom_site_fract_x
_atom_site_fract_y
_atom_site_fract_z
Si Si1 0.850877 0.015246 0.320235
Si Si2 0.992053 0.882835 0.417089
Si Si3 0.637240 0.671967 0.528966
Si Si4 0.152512 0.561547 0.644067
Si Si5 0.250000 0.000000 0.167874
Si Si6 0.750000 0.000000 0.559908
Si Si7 0.114918 0.107456 0.305115
O O1 0.865906 0.225046 0.342009
O O2 0.882454 0.974569 0.227519
O O3 0.750000 0.000000 0.322218
O O4 0.897513 0.885563 0.384161
O O5 0.042628 0.705750 0.440122
O O6 0.047268 0.973500 0.344438
O O7 0.000000 0.000000 0.500000
O O8 0.631741 0.541320 0.451610
O O9 0.690779 0.606146 0.605570
O O10 0.690544 0.858508 0.511227
O O11 0.250000 0.500000 0.646946
O O12 0.320269 0.934311 0.231697
O O13 0.817163 0.887669 0.617834
O O14 0.061636 0.250000 0.250000
#
# Coordination Sequence:
#
# PCOD9410753 Si02
#       7
#     8   8   8   8   4   4   8
#     4  10  23  44  69  92 135 190 238 284 351 418
#     4  11  24  40  66 101 136 181 237 292 344 425
#     4  11  21  38  67  99 142 174 230 292 348 429
#     4  10  21  39  66  98 128 182 233 288 342 417
#     4  11  22  42  66 105 144 180 215 296 372 422
#     4   9  20  34  58  97 132 174 221 272 346 430
#     4  10  21  37  64  94 137 178 222 277 361 425
#
# _framework density 25.071479
#
# number of rings (size 3 to 8) (size 9 to 14) (size 15 to 20)
#    0.000    1.667    4.167    0.000    3.500    0.000 
#    1.500    6.667    0.000    3.000    0.000    0.000 
#    0.000    0.000    0.000    0.000    0.000    0.000 
#
# Total GULP energy -267340.412595 kJ/mol
# GULP energy per Si atom -5569.591929 kJ/mol
# Density = 2.501442 g / cm^3
# Si number density = 25.071479 Si / 1000 Ang^3
#
#
#
# Elastic Constant Matrix: (Units=GPa)
#
#
# Indices 1 2 3 4 5 6 
#
# 1 125.9815 17.9058 52.5179 0.0000 0.0000 0.0000
# 2 17.9058 26.2655 29.4375 0.0000 0.0000 0.0000
# 3 52.5179 29.4375 168.6646 0.0000 0.0000 0.0000
# 4 0.0000 0.0000 0.0000 18.5178 0.0000 0.0000
# 5 0.0000 0.0000 0.0000 0.0000 31.4485 0.0000
# 6 0.0000 0.0000 0.0000 0.0000 0.0000 18.6756
#
#
#
# Elastic Compliance Matrix: (Units=1/GPa)
#
#
# Indices 1 2 3 4 5 6 
#
# 1 0.009433 -0.003902 -0.002256 0.000000 0.000000 0.000000
# 2 -0.003902 0.048945 -0.007328 0.000000 0.000000 0.000000
# 3 -0.002256 -0.007328 0.007910 0.000000 0.000000 0.000000
# 4 0.000000 0.000000 0.000000 0.054002 0.000000 0.000000
# 5 0.000000 0.000000 0.000000 0.000000 0.031798 0.000000
# 6 0.000000 0.000000 0.000000 0.000000 0.000000 0.053546
#
#
# Mechanical properties :
#
#
# Convention : Reuss Voigt Hill
#
# Bulk Modulus (GPa) = 25.43420 57.84821 41.64121
# Shear Modulus (GPa) = 20.34906 28.46508 24.40707
#
# Velocity S-wave (km/s) = 2.85202 3.37316 3.12348
# Velocity P-wave (km/s) = 4.58389 6.18824 5.44548
#
# Compressibility (1/GPa) = 0.03931714
#
# Stress axis : x y z
#
# Youngs Moduli (GPa) = 106.01345 20.43092 126.41716
#
# Poissons Ratio (x) = 0.07972 0.28521
# Poissons Ratio (y) = 0.41366 0.92633
# Poissons Ratio (z) = 0.23918 0.14971
#
# Static dielectric constant tensor:
#      x y z
#    x 2.050050 0.000000 0.000000 
#    y 0.000000 2.025540 0.000000 
#    z 0.000000 0.000000 0.955350 
# 
# From -- ./inp_files/28104.got.cif
#   From: 2010.05.17/outbox.cif.g08.bks.cpg/sg52_15_cif.got.tgz:28104.got - 2010.06.03 12:15:38.
