data_PCOD9410450
_publ_section_title
;
Structure prediction by ZEFSAII (Michael W. Deem and Ramdas Pophale) SiO2 
 PCOD9410450
Probable space group: P N N A
;
_chemical_formula_sum "Si O2"
_cell_formula_units_Z 56
_cell_length_a 31.225684
_cell_length_b 15.300702
_cell_length_c 6.176907
_cell_angle_alpha 90.000000
_cell_angle_beta 90.000000
_cell_angle_gamma 90.000000
_cell_volume 2951.171035
_symmetry_space_group_name_H-M "P N N A"
_symmetry_group_IT_number 52
_symmetry_cell_setting 'orthorhombic'
loop_
_space_group_symop_operation_xyz
x,y,z
1/2-x,-y,z
x,1/2-y,1/2-z
1/2-x,1/2+y,1/2-z
-x,-y,-z
1/2+x,y,-z
-x,1/2+y,1/2+z
1/2+x,1/2-y,1/2+z
loop_
_atom_site_type_symbol
_atom_site_label
_atom_site_fract_x
_atom_site_fract_y
_atom_site_fract_z
Si Si1 0.989547 0.037300 0.246614
Si Si2 0.899559 0.519946 0.136225
Si Si3 0.725467 0.174038 0.080080
Si Si4 0.649050 0.072494 0.961268
Si Si5 0.829340 0.432384 0.867417
Si Si6 0.705526 0.750000 0.750000
Si Si7 0.750000 0.500000 0.154342
Si Si8 0.569117 0.351528 0.791987
O O1 0.938221 0.032810 0.253617
O O2 0.020175 0.121549 0.246411
O O3 0.000000 0.000000 0.500000
O O4 0.000000 0.000000 0.000000
O O5 0.862802 0.552879 0.294395
O O6 0.874791 0.456381 0.973330
O O7 0.918933 0.606891 0.024462
O O8 0.714853 0.250000 0.250000
O O9 0.738518 0.084695 0.202122
O O10 0.683776 0.148832 0.940789
O O11 0.763745 0.208891 0.932240
O O12 0.603877 0.099064 0.856635
O O13 0.668909 0.985917 0.855931
O O14 0.821965 0.330048 0.840572
O O15 0.789950 0.471836 0.004546
O O16 0.574987 0.250000 0.750000
#
# Coordination Sequence:
#
# PCOD9410450 Si02
#       8
#     8   8   8   8   8   4   4   8
#     4  10  20  42  68  95 133 180 218 268 344 421
#     4  10  22  42  67  94 130 178 222 272 340 415
#     4  12  26  39  64  93 127 172 225 287 338 409
#     4  11  23  39  64  94 130 172 212 275 348 401
#     4  11  24  42  64  92 130 179 229 277 340 411
#     4  12  26  44  62  92 130 180 234 286 336 406
#     4  12  22  46  62  88 132 172 224 274 350 400
#     4  10  23  38  66 100 132 168 215 279 341 412
#
# _framework density 18.975518999999998
#
# number of rings (size 3 to 8) (size 9 to 14) (size 15 to 20)
#    0.000    1.143    4.286    1.714    3.000    0.000 
#    0.000    1.429    0.000    0.000    0.000    0.000 
#    0.000    0.000    0.000    0.000    0.000    0.000 
#
# Total GULP energy -311852.884437 kJ/mol
# GULP energy per Si atom -5568.801508 kJ/mol
# Density = 1.893233 g / cm^3
# Si number density = 18.975519 Si / 1000 Ang^3
#
#
#
# Elastic Constant Matrix: (Units=GPa)
#
#
# Indices 1 2 3 4 5 6 
#
# 1 96.4569 52.0834 19.3732 0.0000 0.0000 0.0000
# 2 52.0834 141.7155 38.1074 0.0000 0.0000 0.0000
# 3 19.3732 38.1074 66.7997 0.0000 0.0000 0.0000
# 4 0.0000 0.0000 0.0000 27.0150 0.0000 0.0000
# 5 0.0000 0.0000 0.0000 0.0000 67.1088 0.0000
# 6 0.0000 0.0000 0.0000 0.0000 0.0000 26.1036
#
#
#
# Elastic Compliance Matrix: (Units=1/GPa)
#
#
# Indices 1 2 3 4 5 6 
#
# 1 0.013020 -0.004453 -0.001236 0.000000 0.000000 0.000000
# 2 -0.004453 0.009858 -0.004332 0.000000 0.000000 0.000000
# 3 -0.001236 -0.004332 0.017800 0.000000 0.000000 0.000000
# 4 0.000000 0.000000 0.000000 0.037016 0.000000 0.000000
# 5 0.000000 0.000000 0.000000 0.000000 0.014901 0.000000
# 6 0.000000 0.000000 0.000000 0.000000 0.000000 0.038309
#
#
# Mechanical properties :
#
#
# Convention : Reuss Voigt Hill
#
# Bulk Modulus (GPa) = 48.45900 58.23336 53.34618
# Shear Modulus (GPa) = 31.68077 37.07270 34.37673
#
# Velocity S-wave (km/s) = 4.09046 4.42488 4.26095
# Velocity P-wave (km/s) = 6.92114 7.54065 7.23753
#
# Compressibility (1/GPa) = 0.02063600
#
# Stress axis : x y z
#
# Youngs Moduli (GPa) = 76.80567 101.44243 56.17991
#
# Poissons Ratio (x) = 0.45170 0.06943
# Poissons Ratio (y) = 0.34200 0.24338
# Poissons Ratio (z) = 0.09492 0.43947
#
# Static dielectric constant tensor:
#      x y z
#    x 1.668330 0.000000 0.000000 
#    y 0.000000 1.620520 0.000000 
#    z 0.000000 0.000000 1.760120 
# 
# From -- ./inp_files/6459.got.cif
#   From: 2010.05.17/outbox.cif.g08.bks.cpg/sg52_4_cif.got.tgz:6459.got - 2010.06.03 12:15:38.
