data_PCOD9410837
_publ_section_title
;
Structure prediction by ZEFSAII (Michael W. Deem and Ramdas Pophale) SiO2 
 PCOD9410837
Probable space group: P N N A
;
_chemical_formula_sum "Si O2"
_cell_formula_units_Z 48
_cell_length_a 14.607330
_cell_length_b 15.514685
_cell_length_c 8.923629
_cell_angle_alpha 90.000000
_cell_angle_beta 90.000000
_cell_angle_gamma 90.000000
_cell_volume 2022.345296
_symmetry_space_group_name_H-M "P N N A"
_symmetry_group_IT_number 52
_symmetry_cell_setting 'orthorhombic'
loop_
_space_group_symop_operation_xyz
x,y,z
1/2-x,-y,z
x,1/2-y,1/2-z
1/2-x,1/2+y,1/2-z
-x,-y,-z
1/2+x,y,-z
-x,1/2+y,1/2+z
1/2+x,1/2-y,1/2+z
loop_
_atom_site_type_symbol
_atom_site_label
_atom_site_fract_x
_atom_site_fract_y
_atom_site_fract_z
Si Si1 0.904378 0.401045 0.099658
Si Si2 0.133907 0.274485 0.911656
Si Si3 0.127855 0.571037 0.554724
Si Si4 0.876002 0.564676 0.909612
Si Si5 0.923206 0.256581 0.586759
Si Si6 0.669835 0.399833 0.572181
O O1 0.872094 0.418091 0.267577
O O2 0.014882 0.415816 0.107279
O O3 0.867472 0.470576 0.980650
O O4 0.881501 0.305908 0.038858
O O5 0.174118 0.250000 0.750000
O O6 0.024396 0.282091 0.889923
O O7 0.164935 0.365157 0.976615
O O8 0.144686 0.197464 0.030076
O O9 0.070743 0.646657 0.474639
O O10 0.228841 0.588619 0.491241
O O11 0.107553 0.472607 0.508647
O O12 0.834360 0.578972 0.746827
O O13 0.876274 0.250000 0.750000
#
# Coordination Sequence:
#
# PCOD9410837 Si02
#       6
#     8   8   8   8   8   8
#     4  10  21  40  67  94 120 155 203 259 310 358
#     4  10  21  38  62  92 121 153 199 251 302 357
#     4  11  24  40  57  86 124 164 204 243 301 367
#     4  10  21  40  67  94 120 155 203 259 310 358
#     4  10  21  38  62  92 121 153 199 251 302 357
#     4  11  24  40  57  86 124 164 204 243 301 367
#
# _framework density 23.734819000000002
#
# number of rings (size 3 to 8) (size 9 to 14) (size 15 to 20)
#    0.000    1.667    0.000    4.000    0.000   10.667 
#    0.000   10.000    0.000    0.000    0.000    0.000 
#    0.000    0.000    0.000    0.000    0.000    0.000 
#
# Total GULP energy -268636.362204 kJ/mol
# GULP energy per Si atom -5596.590879 kJ/mol
# Density = 2.368080 g / cm^3
# Si number density = 23.734819 Si / 1000 Ang^3
#
#
#
# Elastic Constant Matrix: (Units=GPa)
#
#
# Indices 1 2 3 4 5 6 
#
# 1 48.7773 3.7677 16.2334 0.0000 0.0000 0.0000
# 2 3.7677 107.1323 25.4993 0.0000 0.0000 0.0000
# 3 16.2334 25.4993 167.5848 0.0000 0.0000 0.0000
# 4 0.0000 0.0000 0.0000 34.3722 0.0000 0.0000
# 5 0.0000 0.0000 0.0000 0.0000 30.6892 0.0000
# 6 0.0000 0.0000 0.0000 0.0000 0.0000 -2.0081
#
#
#
# Elastic Compliance Matrix: (Units=1/GPa)
#
#
# Indices 1 2 3 4 5 6 
#
# 1 0.021192 -0.000266 -0.002012 0.000000 0.000000 0.000000
# 2 -0.000266 0.009688 -0.001448 0.000000 0.000000 0.000000
# 3 -0.002012 -0.001448 0.006382 0.000000 0.000000 0.000000
# 4 0.000000 0.000000 0.000000 0.029093 0.000000 0.000000
# 5 0.000000 0.000000 0.000000 0.000000 0.032585 0.000000
# 6 0.000000 0.000000 0.000000 0.000000 0.000000 -0.497975
#
#
# Mechanical properties :
#
#
# Convention : Reuss Voigt Hill
#
# Bulk Modulus (GPa) = 33.54749 46.05503 39.80126
# Shear Modulus (GPa) = -13.10121 31.14359 9.02119
#
# Velocity S-wave (km/s) = -2.35198 3.62629 1.95169
# Velocity P-wave (km/s) = 2.60562 6.08107 4.67807
#
# Compressibility (1/GPa) = 0.02980849
#
# Stress axis : x y z
#
# Youngs Moduli (GPa) = 47.18855 103.21677 156.68025
#
# Poissons Ratio (x) = 0.02749 0.31528
# Poissons Ratio (y) = 0.01257 0.22693
# Poissons Ratio (z) = 0.09495 0.14949
#
# Static dielectric constant tensor:
#      x y z
#    x 2.011880 0.000000 0.000000 
#    y 0.000000 1.902320 0.000000 
#    z 0.000000 0.000000 1.848280 
# 
# From -- ./inp_files/12082.got.cif
#   From: 2010.05.17/outbox.cif.g08.bks.cpg/sg52_7_cif.got.tgz:12082.got - 2010.06.03 12:15:38.
