data_PCOD9410950
_publ_section_title
;
Structure prediction by ZEFSAII (Michael W. Deem and Ramdas Pophale) SiO2 
 PCOD9410950
Probable space group: P N N A
;
_chemical_formula_sum "Si O2"
_cell_formula_units_Z 48
_cell_length_a 13.531451
_cell_length_b 13.818423
_cell_length_c 12.692192
_cell_angle_alpha 90.000000
_cell_angle_beta 90.000000
_cell_angle_gamma 90.000000
_cell_volume 2373.228119
_symmetry_space_group_name_H-M "P N N A"
_symmetry_group_IT_number 52
_symmetry_cell_setting 'orthorhombic'
loop_
_space_group_symop_operation_xyz
x,y,z
1/2-x,-y,z
x,1/2-y,1/2-z
1/2-x,1/2+y,1/2-z
-x,-y,-z
1/2+x,y,-z
-x,1/2+y,1/2+z
1/2+x,1/2-y,1/2+z
loop_
_atom_site_type_symbol
_atom_site_label
_atom_site_fract_x
_atom_site_fract_y
_atom_site_fract_z
Si Si1 0.136085 0.508240 0.077294
Si Si2 0.159671 0.794300 0.547047
Si Si3 0.874034 0.645137 0.102544
Si Si4 0.987796 0.316344 0.569959
Si Si5 0.525804 0.477682 0.259483
Si Si6 0.002657 0.190510 0.163333
O O1 0.250000 0.500000 0.113227
O O2 0.061306 0.520288 0.172616
O O3 0.133991 0.601679 0.001739
O O4 0.109992 0.415906 0.004888
O O5 0.270610 0.800624 0.587365
O O6 0.124583 0.714804 0.460094
O O7 0.085970 0.765535 0.639850
O O8 0.959170 0.723565 0.120569
O O9 0.880952 0.568719 0.198014
O O10 0.998143 0.408045 0.643687
O O11 0.041948 0.326723 0.455620
O O12 0.534867 0.586795 0.298948
O O13 0.065885 0.250000 0.250000
#
# Coordination Sequence:
#
# PCOD9410950 Si02
#       6
#     8   8   8   8   8   8
#     4  10  21  39  65  95 123 165 222 274 316 397
#     4   9  22  40  59  91 130 161 216 267 321 377
#     4  11  21  39  67  90 121 173 219 265 322 390
#     4  10  23  40  61  90 133 167 208 268 330 397
#     4  12  21  38  67  95 126 171 217 267 339 388
#     4  10  21  39  62  87 129 166 209 265 322 388
#
# _framework density 20.225615000000001
#
# number of rings (size 3 to 8) (size 9 to 14) (size 15 to 20)
#    1.000    0.667    1.667    3.500    0.000    1.333 
#    3.000    2.500    0.000    0.000    0.000    0.000 
#    0.000    0.000    0.000    0.000    0.000    0.000 
#
# Total GULP energy -267531.380010 kJ/mol
# GULP energy per Si atom -5573.570417 kJ/mol
# Density = 2.017958 g / cm^3
# Si number density = 20.225615 Si / 1000 Ang^3
#
#
#
# Elastic Constant Matrix: (Units=GPa)
#
#
# Indices 1 2 3 4 5 6 
#
# 1 54.4023 -1.3190 1.8565 0.0000 0.0000 0.0000
# 2 -1.3190 93.0072 30.0232 0.0000 0.0000 0.0000
# 3 1.8565 30.0232 91.3841 0.0000 0.0000 0.0000
# 4 0.0000 0.0000 0.0000 28.6632 0.0000 0.0000
# 5 0.0000 0.0000 0.0000 0.0000 5.5440 0.0000
# 6 0.0000 0.0000 0.0000 0.0000 0.0000 14.0400
#
#
#
# Elastic Compliance Matrix: (Units=1/GPa)
#
#
# Indices 1 2 3 4 5 6 
#
# 1 0.018409 0.000427 -0.000514 0.000000 0.000000 0.000000
# 2 0.000427 0.012037 -0.003963 0.000000 0.000000 0.000000
# 3 -0.000514 -0.003963 0.012255 0.000000 0.000000 0.000000
# 4 0.000000 0.000000 0.000000 0.034888 0.000000 0.000000
# 5 0.000000 0.000000 0.000000 0.000000 0.180374 0.000000
# 6 0.000000 0.000000 0.000000 0.000000 0.000000 0.071225
#
#
# Mechanical properties :
#
#
# Convention : Reuss Voigt Hill
#
# Bulk Modulus (GPa) = 28.90092 33.32389 31.11241
# Shear Modulus (GPa) = 14.33386 23.53163 18.93274
#
# Velocity S-wave (km/s) = 2.66503 3.41465 3.06286
# Velocity P-wave (km/s) = 4.87751 5.66200 5.28434
#
# Compressibility (1/GPa) = 0.03460097
#
# Stress axis : x y z
#
# Youngs Moduli (GPa) = 54.31982 83.07495 81.59667
#
# Poissons Ratio (x) = -0.03548 0.04197
# Poissons Ratio (y) = -0.02320 0.32340
# Poissons Ratio (z) = 0.02794 0.32926
#
# Static dielectric constant tensor:
#      x y z
#    x 1.735940 0.000000 0.000000 
#    y 0.000000 1.705760 0.000000 
#    z 0.000000 0.000000 1.781770 
# 
# From -- ./inp_files/19517.got.cif
#   From: 2010.05.17/outbox.cif.g08.bks.cpg/sg52_10_cif.got.tgz:19517.got - 2010.06.03 12:15:38.
