data_PCOD9410903
_publ_section_title
;
Structure prediction by ZEFSAII (Michael W. Deem and Ramdas Pophale) SiO2 
 PCOD9410903
Probable space group: P N N A
;
_chemical_formula_sum "Si O2"
_cell_formula_units_Z 36
_cell_length_a 9.809091
_cell_length_b 12.535448
_cell_length_c 10.768062
_cell_angle_alpha 90.000000
_cell_angle_beta 90.000000
_cell_angle_gamma 90.000000
_cell_volume 1324.055442
_symmetry_space_group_name_H-M "P N N A"
_symmetry_group_IT_number 52
_symmetry_cell_setting 'orthorhombic'
loop_
_space_group_symop_operation_xyz
x,y,z
1/2-x,-y,z
x,1/2-y,1/2-z
1/2-x,1/2+y,1/2-z
-x,-y,-z
1/2+x,y,-z
-x,1/2+y,1/2+z
1/2+x,1/2-y,1/2+z
loop_
_atom_site_type_symbol
_atom_site_label
_atom_site_fract_x
_atom_site_fract_y
_atom_site_fract_z
Si Si1 0.750000 0.500000 0.372163
Si Si2 0.594696 0.144604 0.788346
Si Si3 0.979689 0.909994 0.254989
Si Si4 0.073477 0.824707 0.003233
Si Si5 0.308527 0.115821 0.437940
O O1 0.823453 0.583082 0.279929
O O2 0.847696 0.430555 0.459082
O O3 0.511877 0.250000 0.750000
O O4 0.574883 0.164436 0.935927
O O5 0.719956 0.142657 0.688472
O O6 0.531863 0.030285 0.767451
O O7 0.033747 0.892535 0.392168
O O8 0.047477 0.836801 0.149794
O O9 0.169355 0.721238 0.980135
O O10 0.250000 0.000000 0.480413
#
# Coordination Sequence:
#
# PCOD9410903 Si02
#       5
#     4   8   8   8   8
#     4  10  22  38  68  98 134 170 232 302 334 402
#     4  10  21  38  67  96 133 175 225 287 342 405
#     4  10  22  38  64  98 128 178 227 281 347 410
#     4  11  23  39  71 103 130 179 238 283 344 418
#     4  10  23  42  71  98 138 187 228 282 355 426
#
# _framework density 27.189193
#
# number of rings (size 3 to 8) (size 9 to 14) (size 15 to 20)
#    0.000    1.778    0.000    4.667   14.000    0.000 
#    0.000   13.333   14.667    0.000    0.000    0.000 
#    0.000    0.000    0.000    0.000    0.000    0.000 
#
# Total GULP energy -200497.847344 kJ/mol
# GULP energy per Si atom -5569.384648 kJ/mol
# Density = 2.712731 g / cm^3
# Si number density = 27.189193 Si / 1000 Ang^3
#
#
#
# Elastic Constant Matrix: (Units=GPa)
#
#
# Indices 1 2 3 4 5 6 
#
# 1 72.9612 9.8390 19.2992 0.0000 0.0000 0.0000
# 2 9.8390 170.2472 10.9441 0.0000 0.0000 0.0000
# 3 19.2992 10.9441 47.9960 0.0000 0.0000 0.0000
# 4 0.0000 0.0000 0.0000 24.7631 0.0000 0.0000
# 5 0.0000 0.0000 0.0000 0.0000 43.8254 0.0000
# 6 0.0000 0.0000 0.0000 0.0000 0.0000 13.4181
#
#
#
# Elastic Compliance Matrix: (Units=1/GPa)
#
#
# Indices 1 2 3 4 5 6 
#
# 1 0.015379 -0.000499 -0.006070 0.000000 0.000000 0.000000
# 2 -0.000499 0.005977 -0.001162 0.000000 0.000000 0.000000
# 3 -0.006070 -0.001162 0.023541 0.000000 0.000000 0.000000
# 4 0.000000 0.000000 0.000000 0.040383 0.000000 0.000000
# 5 0.000000 0.000000 0.000000 0.000000 0.022818 0.000000
# 6 0.000000 0.000000 0.000000 0.000000 0.000000 0.074526
#
#
# Mechanical properties :
#
#
# Convention : Reuss Voigt Hill
#
# Bulk Modulus (GPa) = 33.97349 41.26322 37.61835
# Shear Modulus (GPa) = 24.05027 33.14278 28.59653
#
# Velocity S-wave (km/s) = 2.97737 3.49516 3.24660
# Velocity P-wave (km/s) = 4.93376 5.61226 5.28391
#
# Compressibility (1/GPa) = 0.02943472
#
# Stress axis : x y z
#
# Youngs Moduli (GPa) = 65.02462 167.29805 42.47914
#
# Poissons Ratio (x) = 0.08341 0.25785
# Poissons Ratio (y) = 0.03242 0.04938
# Poissons Ratio (z) = 0.39471 0.19448
#
# Static dielectric constant tensor:
#      x y z
#    x 2.258210 0.000000 0.000000 
#    y 0.000000 2.245080 0.000000 
#    z 0.000000 0.000000 2.304060 
# 
# From -- ./inp_files/17785.got.cif
#   From: 2010.05.17/outbox.cif.g08.bks.cpg/sg52_9_cif.got.tgz:17785.got - 2010.06.03 12:15:38.
