data_PCOD9410869
_publ_section_title
;
Structure prediction by ZEFSAII (Michael W. Deem and Ramdas Pophale) SiO2 
 PCOD9410869
Probable space group: P N N A
;
_chemical_formula_sum "Si O2"
_cell_formula_units_Z 56
_cell_length_a 18.475520
_cell_length_b 9.155551
_cell_length_c 13.441330
_cell_angle_alpha 90.000000
_cell_angle_beta 90.000000
_cell_angle_gamma 90.000000
_cell_volume 2273.648896
_symmetry_space_group_name_H-M "P N N A"
_symmetry_group_IT_number 52
_symmetry_cell_setting 'orthorhombic'
loop_
_space_group_symop_operation_xyz
x,y,z
1/2-x,-y,z
x,1/2-y,1/2-z
1/2-x,1/2+y,1/2-z
-x,-y,-z
1/2+x,y,-z
-x,1/2+y,1/2+z
1/2+x,1/2-y,1/2+z
loop_
_atom_site_type_symbol
_atom_site_label
_atom_site_fract_x
_atom_site_fract_y
_atom_site_fract_z
Si Si1 0.885810 0.124235 0.668196
Si Si2 0.584910 0.807331 0.357684
Si Si3 0.979656 0.588089 0.595772
Si Si4 0.541760 0.089397 0.285607
Si Si5 0.818848 0.594687 0.674221
Si Si6 0.742482 0.825535 0.145368
Si Si7 0.246373 0.826527 0.448164
O O1 0.887627 0.250000 0.750000
O O2 0.969202 0.093598 0.647262
O O3 0.839121 0.185849 0.577663
O O4 0.845345 0.991242 0.725291
O O5 0.559467 0.750000 0.250000
O O6 0.517750 0.745768 0.419063
O O7 0.658879 0.720491 0.371316
O O8 0.595558 0.980396 0.343683
O O9 0.014053 0.492639 0.685942
O O10 0.894367 0.596244 0.614720
O O11 0.000000 0.500000 0.500000
O O12 0.565485 0.250000 0.250000
O O13 0.750000 0.500000 0.637839
O O14 0.785927 0.755014 0.647896
O O15 0.764117 0.750000 0.250000
O O16 0.750000 0.000000 0.150742
O O17 0.776076 0.756837 0.045241
O O18 0.250000 0.000000 0.462607
#
# Coordination Sequence:
#
# PCOD9410869 Si02
#       7
#     8   8   8   8   8   8   8
#     4  10  21  38  65 102 150 191 249 298 366 448
#     4   9  21  44  68 101 136 185 241 299 370 445
#     4  10  23  40  66  99 137 185 250 295 373 435
#     4   9  20  42  67  99 141 191 235 302 364 446
#     4  11  23  42  65  99 142 199 239 309 370 444
#     4  11  26  51  80 103 141 190 251 324 382 440
#     4  12  27  41  66 107 147 191 254 305 375 447
#
# _framework density 24.630012000000001
#
# number of rings (size 3 to 8) (size 9 to 14) (size 15 to 20)
#    0.000    1.714    1.429    1.286    6.000    0.000 
#    7.714    7.857    0.000    0.000    0.000    0.000 
#    0.000    0.000    0.000    0.000    0.000    0.000 
#
# Total GULP energy -312290.862264 kJ/mol
# GULP energy per Si atom -5576.622540 kJ/mol
# Density = 2.457395 g / cm^3
# Si number density = 24.630012 Si / 1000 Ang^3
#
#
#
# Elastic Constant Matrix: (Units=GPa)
#
#
# Indices 1 2 3 4 5 6 
#
# 1 100.9118 52.2584 0.7035 0.0000 0.0000 0.0000
# 2 52.2584 210.2424 29.1440 0.0000 0.0000 0.0000
# 3 0.7035 29.1440 89.7732 0.0000 0.0000 0.0000
# 4 0.0000 0.0000 0.0000 24.3403 0.0000 0.0000
# 5 0.0000 0.0000 0.0000 0.0000 -322.0398 0.0000
# 6 0.0000 0.0000 0.0000 0.0000 0.0000 45.0128
#
#
#
# Elastic Compliance Matrix: (Units=1/GPa)
#
#
# Indices 1 2 3 4 5 6 
#
# 1 0.011439 -0.002964 0.000873 0.000000 0.000000 0.000000
# 2 -0.002964 0.005749 -0.001843 0.000000 0.000000 0.000000
# 3 0.000873 -0.001843 0.011731 0.000000 0.000000 0.000000
# 4 0.000000 0.000000 0.000000 0.041084 0.000000 0.000000
# 5 0.000000 0.000000 0.000000 0.000000 -0.003105 0.000000
# 6 0.000000 0.000000 0.000000 0.000000 0.000000 0.022216
#
#
# Mechanical properties :
#
#
# Convention : Reuss Voigt Hill
#
# Bulk Modulus (GPa) = 47.50858 62.79325 55.15091
# Shear Modulus (GPa) = 48.07779 -29.28257 9.39761
#
# Velocity S-wave (km/s) = 4.42294 -3.45178 1.95545
# Velocity P-wave (km/s) = 6.73899 3.10863 5.24774
#
# Compressibility (1/GPa) = 0.02104883
#
# Stress axis : x y z
#
# Youngs Moduli (GPa) = 87.42336 173.95300 85.24672
#
# Poissons Ratio (x) = 0.51563 -0.07439
# Poissons Ratio (y) = 0.25914 0.15711
# Poissons Ratio (z) = -0.07629 0.32060
#
# Static dielectric constant tensor:
#      x y z
#    x 1.998610 0.000000 0.000000 
#    y 0.000000 2.136740 0.000000 
#    z 0.000000 0.000000 2.932820 
# 
# From -- ./inp_files/28749.got.cif
#   From: 2010.05.17/outbox.cif.g08.bks.cpg/sg52_15_cif.got.tgz:28749.got - 2010.06.03 12:15:38.
