data_PCOD9410531
_publ_section_title
;
Structure prediction by ZEFSAII (Michael W. Deem and Ramdas Pophale) SiO2 
 PCOD9410531
Probable space group: P N N A
;
_chemical_formula_sum "Si O2"
_cell_formula_units_Z 40
_cell_length_a 5.689267
_cell_length_b 14.336465
_cell_length_c 21.747528
_cell_angle_alpha 90.000000
_cell_angle_beta 90.000000
_cell_angle_gamma 90.000000
_cell_volume 1773.814878
_symmetry_space_group_name_H-M "P N N A"
_symmetry_group_IT_number 52
_symmetry_cell_setting 'orthorhombic'
loop_
_space_group_symop_operation_xyz
x,y,z
1/2-x,-y,z
x,1/2-y,1/2-z
1/2-x,1/2+y,1/2-z
-x,-y,-z
1/2+x,y,-z
-x,1/2+y,1/2+z
1/2+x,1/2-y,1/2+z
loop_
_atom_site_type_symbol
_atom_site_label
_atom_site_fract_x
_atom_site_fract_y
_atom_site_fract_z
Si Si1 0.696605 0.310061 0.665266
Si Si2 0.424073 0.750000 0.750000
Si Si3 0.155036 0.628515 0.028794
Si Si4 0.250000 0.500000 0.137716
Si Si5 0.204645 0.647259 0.470346
Si Si6 0.533714 0.871063 0.287275
O O1 0.724463 0.363715 0.601656
O O2 0.520497 0.220637 0.669355
O O3 0.627623 0.367957 0.726085
O O4 0.938076 0.264399 0.686947
O O5 0.283201 0.845189 0.739505
O O6 0.164066 0.584933 0.095996
O O7 0.173421 0.740344 0.025214
O O8 0.404797 0.598088 0.999294
O O9 0.466760 0.538144 0.176652
O O10 0.440081 0.614698 0.508480
#
# Coordination Sequence:
#
# PCOD9410531 Si02
#       6
#     8   4   8   4   8   8
#     4   9  18  38  50  77 107 140 189 241 275 322
#     4   8  18  34  58  68 104 148 180 234 282 318
#     4  10  22  38  50  77 118 161 184 224 262 326
#     4  12  20  36  52  82 110 154 192 222 274 342
#     4  10  21  33  58  83 107 147 192 228 278 333
#     4   9  20  33  54  76 106 150 185 230 283 319
#
# _framework density 22.550266000000001
#
# number of rings (size 3 to 8) (size 9 to 14) (size 15 to 20)
#    0.000    2.800    2.000    0.600    5.600    1.600 
#    7.200    0.000    0.000    0.000    0.000    1.400 
#    0.000    0.000    0.000    0.000    0.000    0.000 
#
# Total GULP energy -222695.936243 kJ/mol
# GULP energy per Si atom -5567.398406 kJ/mol
# Density = 2.249894 g / cm^3
# Si number density = 22.550266 Si / 1000 Ang^3
#
#
#
# Elastic Constant Matrix: (Units=GPa)
#
#
# Indices 1 2 3 4 5 6 
#
# 1 103.1966 13.4515 23.1637 0.0000 0.0000 0.0000
# 2 13.4515 32.3139 2.4859 0.0000 0.0000 0.0000
# 3 23.1637 2.4859 98.8714 0.0000 0.0000 0.0000
# 4 0.0000 0.0000 0.0000 4.5318 0.0000 0.0000
# 5 0.0000 0.0000 0.0000 0.0000 13.3763 0.0000
# 6 0.0000 0.0000 0.0000 0.0000 0.0000 5.2990
#
#
#
# Elastic Compliance Matrix: (Units=1/GPa)
#
#
# Indices 1 2 3 4 5 6 
#
# 1 0.010795 -0.004308 -0.002421 0.000000 0.000000 0.000000
# 2 -0.004308 0.032725 0.000186 0.000000 0.000000 0.000000
# 3 -0.002421 0.000186 0.010677 0.000000 0.000000 0.000000
# 4 0.000000 0.000000 0.000000 0.220664 0.000000 0.000000
# 5 0.000000 0.000000 0.000000 0.000000 0.074759 0.000000
# 6 0.000000 0.000000 0.000000 0.000000 0.000000 0.188716
#
#
# Mechanical properties :
#
#
# Convention : Reuss Voigt Hill
#
# Bulk Modulus (GPa) = 24.32318 34.73158 29.52738
# Shear Modulus (GPa) = 8.84761 17.66013 13.25387
#
# Velocity S-wave (km/s) = 1.98293 2.80151 2.42698
# Velocity P-wave (km/s) = 4.00653 5.08919 4.57997
#
# Compressibility (1/GPa) = 0.04111305
#
# Stress axis : x y z
#
# Youngs Moduli (GPa) = 92.63471 30.55748 93.66275
#
# Poissons Ratio (x) = 0.13163 0.22674
# Poissons Ratio (y) = 0.39902 -0.01746
# Poissons Ratio (z) = 0.22425 -0.00570
#
# Static dielectric constant tensor:
#      x y z
#    x 2.035160 0.000000 0.000000 
#    y 0.000000 1.862070 0.000000 
#    z 0.000000 0.000000 1.841750 
# 
# From -- ./inp_files/30217.got.cif
#   From: 2010.05.17/outbox.cif.g08.bks.cpg/sg52_16_cif.got.tgz:30217.got - 2010.06.03 12:15:38.
