data_PCOD9410767
_publ_section_title
;
Structure prediction by ZEFSAII (Michael W. Deem and Ramdas Pophale) SiO2 
 PCOD9410767
Probable space group: P N N A
;
_chemical_formula_sum "Si O2"
_cell_formula_units_Z 60
_cell_length_a 5.397128
_cell_length_b 25.997338
_cell_length_c 22.886231
_cell_angle_alpha 90.000000
_cell_angle_beta 90.000000
_cell_angle_gamma 90.000000
_cell_volume 3211.189062
_symmetry_space_group_name_H-M "P N N A"
_symmetry_group_IT_number 52
_symmetry_cell_setting 'orthorhombic'
loop_
_space_group_symop_operation_xyz
x,y,z
1/2-x,-y,z
x,1/2-y,1/2-z
1/2-x,1/2+y,1/2-z
-x,-y,-z
1/2+x,y,-z
-x,1/2+y,1/2+z
1/2+x,1/2-y,1/2+z
loop_
_atom_site_type_symbol
_atom_site_label
_atom_site_fract_x
_atom_site_fract_y
_atom_site_fract_z
Si Si1 0.782375 0.228614 0.354282
Si Si2 0.148928 0.871972 0.707666
Si Si3 0.750000 0.000000 0.743262
Si Si4 0.762829 0.919323 0.530488
Si Si5 0.645654 0.889753 0.770957
Si Si6 0.258418 0.197441 0.516954
Si Si7 0.443187 0.460456 0.864969
Si Si8 0.219697 0.721739 0.314454
O O1 0.799281 0.187211 0.302802
O O2 0.787112 0.195323 0.413660
O O3 0.523831 0.257502 0.347100
O O4 0.026693 0.262968 0.346985
O O5 0.356652 0.888268 0.753836
O O6 0.198276 0.908214 0.652179
O O7 0.857173 0.878819 0.721148
O O8 0.800713 0.050186 0.782134
O O9 0.534647 0.014182 0.696142
O O10 0.496204 0.936557 0.508559
O O11 0.757710 0.856811 0.519444
O O12 0.833514 0.941425 0.593772
O O13 0.696430 0.840007 0.810352
O O14 0.501553 0.225174 0.494531
O O15 0.250000 0.500000 0.892167
O O16 0.221703 0.750000 0.250000
#
# Coordination Sequence:
#
# PCOD9410767 Si02
#       8
#     8   8   4   8   8   8   8   8
#     4  12  22  36  61  80 113 149 183 239 303 344
#     4  11  20  34  53  78 103 143 178 237 284 345
#     4  10  24  40  56  80 110 156 194 238 298 338
#     4  10  23  38  53  70 102 137 190 253 292 319
#     4  11  22  36  55  76 114 139 187 235 284 343
#     4  10  21  38  55  79 108 146 191 226 284 351
#     4  11  23  37  56  74 104 144 206 242 285 335
#     4  12  22  37  56  89 112 142 187 243 296 354
#
# _framework density 18.684667999999999
#
# number of rings (size 3 to 8) (size 9 to 14) (size 15 to 20)
#    0.000    1.067    4.000    3.600    1.867    5.867 
#    0.000    0.000    0.000    0.000    0.000    0.000 
#    0.000    0.000    0.000   12.000    0.000    0.000 
#
# Total GULP energy -334352.651694 kJ/mol
# GULP energy per Si atom -5572.544195 kJ/mol
# Density = 1.864214 g / cm^3
# Si number density = 18.684668 Si / 1000 Ang^3
#
#
#
# Elastic Constant Matrix: (Units=GPa)
#
#
# Indices 1 2 3 4 5 6 
#
# 1 102.1524 4.9516 10.6867 0.0000 0.0000 0.0000
# 2 4.9516 105.2509 13.5824 0.0000 0.0000 0.0000
# 3 10.6867 13.5824 24.5230 0.0000 0.0000 0.0000
# 4 0.0000 0.0000 0.0000 15.5841 0.0000 0.0000
# 5 0.0000 0.0000 0.0000 0.0000 24.9788 0.0000
# 6 0.0000 0.0000 0.0000 0.0000 0.0000 19.6891
#
#
#
# Elastic Compliance Matrix: (Units=1/GPa)
#
#
# Indices 1 2 3 4 5 6 
#
# 1 0.010258 0.000102 -0.004526 0.000000 0.000000 0.000000
# 2 0.000102 0.010233 -0.005712 0.000000 0.000000 0.000000
# 3 -0.004526 -0.005712 0.045914 0.000000 0.000000 0.000000
# 4 0.000000 0.000000 0.000000 0.064168 0.000000 0.000000
# 5 0.000000 0.000000 0.000000 0.000000 0.040034 0.000000
# 6 0.000000 0.000000 0.000000 0.000000 0.000000 0.050790
#
#
# Mechanical properties :
#
#
# Convention : Reuss Voigt Hill
#
# Bulk Modulus (GPa) = 21.67714 32.26307 26.97011
# Shear Modulus (GPa) = 19.45157 25.56411 22.50784
#
# Velocity S-wave (km/s) = 3.23002 3.70291 3.47452
# Velocity P-wave (km/s) = 5.05346 5.96546 5.52830
#
# Compressibility (1/GPa) = 0.04613154
#
# Stress axis : x y z
#
# Youngs Moduli (GPa) = 97.48567 97.71844 21.77963
#
# Poissons Ratio (x) = -0.00992 0.09859
# Poissons Ratio (y) = -0.00990 0.12441
# Poissons Ratio (z) = 0.44127 0.55819
#
# Static dielectric constant tensor:
#      x y z
#    x 1.730140 0.000000 0.000000 
#    y 0.000000 1.703830 0.000000 
#    z 0.000000 0.000000 1.683550 
# 
# From -- ./inp_files/35284.got.cif
#   From: 2010.05.17/outbox.cif.g08.bks.cpg/sg52_18_cif.got.tgz:35284.got - 2010.06.03 12:15:38.
