data_PCOD9410847
_publ_section_title
;
Structure prediction by ZEFSAII (Michael W. Deem and Ramdas Pophale) SiO2 
 PCOD9410847
Probable space group: P N N A
;
_chemical_formula_sum "Si O2"
_cell_formula_units_Z 64
_cell_length_a 11.542946
_cell_length_b 31.620824
_cell_length_c 7.863037
_cell_angle_alpha 90.000000
_cell_angle_beta 90.000000
_cell_angle_gamma 90.000000
_cell_volume 2869.988564
_symmetry_space_group_name_H-M "P N N A"
_symmetry_group_IT_number 52
_symmetry_cell_setting 'orthorhombic'
loop_
_space_group_symop_operation_xyz
x,y,z
1/2-x,-y,z
x,1/2-y,1/2-z
1/2-x,1/2+y,1/2-z
-x,-y,-z
1/2+x,y,-z
-x,1/2+y,1/2+z
1/2+x,1/2-y,1/2+z
loop_
_atom_site_type_symbol
_atom_site_label
_atom_site_fract_x
_atom_site_fract_y
_atom_site_fract_z
Si Si1 0.311510 0.642363 0.337987
Si Si2 0.338188 0.537742 0.974558
Si Si3 0.116636 0.997458 0.849302
Si Si4 0.932677 0.941486 0.845423
Si Si5 0.220259 0.875887 0.514397
Si Si6 0.864975 0.793599 0.414854
Si Si7 0.741852 0.712746 0.414292
Si Si8 0.962979 0.316335 0.171559
O O1 0.373318 0.600713 0.412412
O O2 0.225191 0.625867 0.190652
O O3 0.244348 0.674075 0.458782
O O4 0.421478 0.669260 0.268933
O O5 0.250000 0.500000 0.022251
O O6 0.424553 0.523031 0.821276
O O7 0.399803 0.551954 0.149127
O O8 0.262652 0.578779 0.923291
O O9 0.250000 0.000000 0.814044
O O10 0.102923 0.020243 0.030303
O O11 0.069816 0.949761 0.854313
O O12 0.317392 0.840763 0.556507
O O13 0.103543 0.857187 0.594844
O O14 0.770450 0.759412 0.486770
O O15 0.854086 0.790869 0.211392
O O16 0.985644 0.789381 0.513243
O O17 0.628735 0.706337 0.296174
#
# Coordination Sequence:
#
# PCOD9410847 Si02
#       8
#     8   8   8   8   8   8   8   8
#     4  10  23  38  63  95 129 163 223 267 330 400
#     4  10  21  38  63  88 125 172 219 265 335 401
#     4  10  22  37  62  84 119 170 215 269 333 390
#     4  10  22  40  56  93 126 161 216 280 321 391
#     4   9  21  39  59  91 124 170 214 275 321 395
#     4   9  21  41  62  93 126 165 216 259 325 404
#     4  10  22  40  66  96 127 171 216 269 334 393
#     4  10  22  41  65  88 135 168 209 265 327 393
#
# _framework density 22.299738999999999
#
# number of rings (size 3 to 8) (size 9 to 14) (size 15 to 20)
#    0.000    2.250    0.000    0.750    7.000    7.000 
#    2.250    6.250    0.000    0.000    0.000    0.000 
#    0.000    0.000    0.000    0.000    0.000    0.000 
#
# Total GULP energy -356337.122618 kJ/mol
# GULP energy per Si atom -5567.767541 kJ/mol
# Density = 2.224898 g / cm^3
# Si number density = 22.299739 Si / 1000 Ang^3
#
#
#
# Elastic Constant Matrix: (Units=GPa)
#
#
# Indices 1 2 3 4 5 6 
#
# 1 60.5636 -6.3315 -0.2630 0.0000 0.0000 0.0000
# 2 -6.3315 357.4458 90.1497 0.0000 0.0000 0.0000
# 3 -0.2630 90.1497 83.3422 0.0000 0.0000 0.0000
# 4 0.0000 0.0000 0.0000 29.0325 0.0000 0.0000
# 5 0.0000 0.0000 0.0000 0.0000 30.2072 0.0000
# 6 0.0000 0.0000 0.0000 0.0000 0.0000 12.9371
#
#
#
# Elastic Compliance Matrix: (Units=1/GPa)
#
#
# Indices 1 2 3 4 5 6 
#
# 1 0.016550 0.000385 -0.000364 0.000000 0.000000 0.000000
# 2 0.000385 0.003856 -0.004170 0.000000 0.000000 0.000000
# 3 -0.000364 -0.004170 0.016508 0.000000 0.000000 0.000000
# 4 0.000000 0.000000 0.000000 0.034444 0.000000 0.000000
# 5 0.000000 0.000000 0.000000 0.000000 0.033105 0.000000
# 6 0.000000 0.000000 0.000000 0.000000 0.000000 0.077297
#
#
# Mechanical properties :
#
#
# Convention : Reuss Voigt Hill
#
# Bulk Modulus (GPa) = 34.94524 74.27356 54.60940
# Shear Modulus (GPa) = 25.05043 42.28844 33.66944
#
# Velocity S-wave (km/s) = 3.35528 4.35945 3.88990
# Velocity P-wave (km/s) = 5.54213 7.66283 6.68709
#
# Compressibility (1/GPa) = 0.02861620
#
# Stress axis : x y z
#
# Youngs Moduli (GPa) = 60.42205 259.32888 60.57655
#
# Poissons Ratio (x) = -0.09985 0.02207
# Poissons Ratio (y) = -0.02326 0.25260
# Poissons Ratio (z) = 0.02201 1.08137
#
# Static dielectric constant tensor:
#      x y z
#    x 1.919870 0.000000 0.000000 
#    y 0.000000 1.898850 0.000000 
#    z 0.000000 0.000000 2.050940 
# 
# From -- ./inp_files/9146.got.cif
#   From: 2010.05.17/outbox.cif.g08.bks.cpg/sg52_5_cif.got.tgz:9146.got - 2010.06.03 12:15:38.
