data_PCOD9410199
_publ_section_title
;
Structure prediction by ZEFSAII (Michael W. Deem and Ramdas Pophale) SiO2 
 PCOD9410199
Probable space group: P N N A
;
_chemical_formula_sum "Si O2"
_cell_formula_units_Z 48
_cell_length_a 25.060630
_cell_length_b 17.363314
_cell_length_c 5.491089
_cell_angle_alpha 90.000000
_cell_angle_beta 90.000000
_cell_angle_gamma 90.000000
_cell_volume 2389.368239
_symmetry_space_group_name_H-M "P N N A"
_symmetry_group_IT_number 52
_symmetry_cell_setting 'orthorhombic'
loop_
_space_group_symop_operation_xyz
x,y,z
1/2-x,-y,z
x,1/2-y,1/2-z
1/2-x,1/2+y,1/2-z
-x,-y,-z
1/2+x,y,-z
-x,1/2+y,1/2+z
1/2+x,1/2-y,1/2+z
loop_
_atom_site_type_symbol
_atom_site_label
_atom_site_fract_x
_atom_site_fract_y
_atom_site_fract_z
Si Si1 0.997331 0.449930 0.748543
Si Si2 0.879951 0.434819 0.834721
Si Si3 0.195151 0.470200 0.476394
Si Si4 0.888895 0.591648 0.147469
Si Si5 0.300416 0.669743 0.110706
Si Si6 0.686253 0.703484 0.011225
O O1 0.938931 0.411692 0.746537
O O2 0.000000 0.500000 0.500000
O O3 0.050724 0.398243 0.762696
O O4 0.000000 0.500000 0.000000
O O5 0.837425 0.457230 0.628052
O O6 0.852607 0.368872 0.988948
O O7 0.887445 0.514803 0.980663
O O8 0.250000 0.500000 0.593456
O O9 0.152407 0.427198 0.640161
O O10 0.209712 0.407141 0.270945
O O11 0.858567 0.658779 0.006387
O O12 0.301588 0.750000 0.250000
O O13 0.247539 0.676413 0.946453
O O14 0.684104 0.750000 0.750000
O O15 0.670354 0.750000 0.250000
#
# Coordination Sequence:
#
# PCOD9410199 Si02
#       6
#     8   8   8   8   8   8
#     4  10  20  39  63  93 123 163 208 263 323 372
#     4  10  22  40  61  91 127 160 214 269 311 381
#     4  11  21  35  62  96 123 156 216 269 323 382
#     4  10  23  35  64  93 121 165 210 263 320 385
#     4  10  24  39  56  88 131 169 206 258 332 391
#     4  11  26  41  62  89 128 175 210 255 326 385
#
# _framework density 20.088991
#
# number of rings (size 3 to 8) (size 9 to 14) (size 15 to 20)
#    0.000    1.667    3.333    0.000    9.333    0.000 
#    0.000    0.833    3.667    0.000    0.000    0.000 
#    0.000    0.000    0.000    0.000    0.000    0.000 
#
# Total GULP energy -267615.693938 kJ/mol
# GULP energy per Si atom -5575.326957 kJ/mol
# Density = 2.004327 g / cm^3
# Si number density = 20.088991 Si / 1000 Ang^3
#
#
#
# Elastic Constant Matrix: (Units=GPa)
#
#
# Indices 1 2 3 4 5 6 
#
# 1 182.0643 55.8062 19.8865 0.0000 0.0000 0.0000
# 2 55.8062 52.7860 9.2640 0.0000 0.0000 0.0000
# 3 19.8865 9.2640 58.8371 0.0000 0.0000 0.0000
# 4 0.0000 0.0000 0.0000 25.0997 0.0000 0.0000
# 5 0.0000 0.0000 0.0000 0.0000 62.6987 0.0000
# 6 0.0000 0.0000 0.0000 0.0000 0.0000 3.9209
#
#
#
# Elastic Compliance Matrix: (Units=1/GPa)
#
#
# Indices 1 2 3 4 5 6 
#
# 1 0.008245 -0.008462 -0.001454 0.000000 0.000000 0.000000
# 2 -0.008462 0.028167 -0.001575 0.000000 0.000000 0.000000
# 3 -0.001454 -0.001575 0.017736 0.000000 0.000000 0.000000
# 4 0.000000 0.000000 0.000000 0.039841 0.000000 0.000000
# 5 0.000000 0.000000 0.000000 0.000000 0.015949 0.000000
# 6 0.000000 0.000000 0.000000 0.000000 0.000000 0.255040
#
#
# Mechanical properties :
#
#
# Convention : Reuss Voigt Hill
#
# Bulk Modulus (GPa) = 32.08694 51.51118 41.79906
# Shear Modulus (GPa) = 12.55183 32.25925 22.40554
#
# Velocity S-wave (km/s) = 2.50233 4.01161 3.34326
# Velocity P-wave (km/s) = 4.93518 6.86692 5.97957
#
# Compressibility (1/GPa) = 0.03116533
#
# Stress axis : x y z
#
# Youngs Moduli (GPa) = 121.28472 35.50317 56.38356
#
# Poissons Ratio (x) = 0.30041 0.08201
# Poissons Ratio (y) = 1.02626 0.08880
# Poissons Ratio (z) = 0.17641 0.05591
#
# Static dielectric constant tensor:
#      x y z
#    x 1.726770 0.000000 0.000000 
#    y 0.000000 1.716860 0.000000 
#    z 0.000000 0.000000 1.778750 
# 
# From -- ./inp_files/5141.got.cif
#   From: 2010.05.17/outbox.cif.g08.bks.cpg/sg52_3_cif.got.tgz:5141.got - 2010.06.03 12:15:38.
