data_PCOD9410215
_publ_section_title
;
Structure prediction by ZEFSAII (Michael W. Deem and Ramdas Pophale) SiO2 
 PCOD9410215
Probable space group: P N N A
;
_chemical_formula_sum "Si O2"
_cell_formula_units_Z 48
_cell_length_a 21.634421
_cell_length_b 8.221083
_cell_length_c 11.994420
_cell_angle_alpha 90.000000
_cell_angle_beta 90.000000
_cell_angle_gamma 90.000000
_cell_volume 2133.307999
_symmetry_space_group_name_H-M "P N N A"
_symmetry_group_IT_number 52
_symmetry_cell_setting 'orthorhombic'
loop_
_space_group_symop_operation_xyz
x,y,z
1/2-x,-y,z
x,1/2-y,1/2-z
1/2-x,1/2+y,1/2-z
-x,-y,-z
1/2+x,y,-z
-x,1/2+y,1/2+z
1/2+x,1/2-y,1/2+z
loop_
_atom_site_type_symbol
_atom_site_label
_atom_site_fract_x
_atom_site_fract_y
_atom_site_fract_z
Si Si1 0.885925 0.412372 0.689665
Si Si2 0.399670 0.921550 0.602016
Si Si3 0.505269 0.250000 0.250000
Si Si4 0.145762 0.745586 0.962749
Si Si5 0.677133 0.250000 0.750000
Si Si6 0.185360 0.482806 0.691964
Si Si7 0.284530 0.729744 0.005654
O O1 0.859609 0.250000 0.750000
O O2 0.870871 0.371364 0.561306
O O3 0.861474 0.581186 0.739161
O O4 0.959201 0.393848 0.711362
O O5 0.457636 0.814973 0.641287
O O6 0.361846 0.919751 0.717982
O O7 0.351473 0.853372 0.511781
O O8 0.405250 0.107762 0.560722
O O9 0.214396 0.668516 0.983440
O O10 0.156524 0.854206 0.854882
O O11 0.716626 0.238261 0.862804
O O12 0.250000 0.500000 0.755621
O O13 0.205113 0.372790 0.586100
#
# Coordination Sequence:
#
# PCOD9410215 Si02
#       7
#     8   8   4   8   4   8   8
#     4  10  25  48  66 100 143 190 250 293 357 424
#     4  12  22  44  68 102 139 190 239 294 377 431
#     4  10  26  47  68  96 145 198 246 310 346 430
#     4  11  23  41  68 109 141 181 238 304 370 445
#     4  12  24  47  74 100 145 192 248 296 370 440
#     4  10  20  39  65 101 146 173 223 297 364 445
#     4  11  23  40  71 105 140 183 231 299 377 442
#
# _framework density 22.500267999999998
#
# number of rings (size 3 to 8) (size 9 to 14) (size 15 to 20)
#    0.500    0.667    3.333    3.000    1.167    3.333 
#    3.000    1.667    0.000    0.000    0.000    0.000 
#    0.000    0.000    0.000    0.000    0.000    0.000 
#
# Total GULP energy -267327.201994 kJ/mol
# GULP energy per Si atom -5569.316708 kJ/mol
# Density = 2.244906 g / cm^3
# Si number density = 22.500268 Si / 1000 Ang^3
#
#
#
# Elastic Constant Matrix: (Units=GPa)
#
#
# Indices 1 2 3 4 5 6 
#
# 1 60.8324 16.5129 19.5254 0.0000 0.0000 0.0000
# 2 16.5129 92.1627 11.4761 0.0000 0.0000 0.0000
# 3 19.5254 11.4761 116.5072 0.0000 0.0000 0.0000
# 4 0.0000 0.0000 0.0000 25.1667 0.0000 0.0000
# 5 0.0000 0.0000 0.0000 0.0000 24.5026 0.0000
# 6 0.0000 0.0000 0.0000 0.0000 0.0000 9.8424
#
#
#
# Elastic Compliance Matrix: (Units=1/GPa)
#
#
# Indices 1 2 3 4 5 6 
#
# 1 0.018109 -0.002902 -0.002749 0.000000 0.000000 0.000000
# 2 -0.002902 0.011450 -0.000641 0.000000 0.000000 0.000000
# 3 -0.002749 -0.000641 0.009107 0.000000 0.000000 0.000000
# 4 0.000000 0.000000 0.000000 0.039735 0.000000 0.000000
# 5 0.000000 0.000000 0.000000 0.000000 0.040812 0.000000
# 6 0.000000 0.000000 0.000000 0.000000 0.000000 0.101601
#
#
# Mechanical properties :
#
#
# Convention : Reuss Voigt Hill
#
# Bulk Modulus (GPa) = 38.34260 40.50344 39.42302
# Shear Modulus (GPa) = 20.65318 26.70153 23.67735
#
# Velocity S-wave (km/s) = 3.03299 3.44862 3.24746
# Velocity P-wave (km/s) = 5.41694 5.82217 5.62321
#
# Compressibility (1/GPa) = 0.02608065
#
# Stress axis : x y z
#
# Youngs Moduli (GPa) = 55.22186 87.33422 109.80507
#
# Poissons Ratio (x) = 0.25347 0.30185
# Poissons Ratio (y) = 0.16027 0.07044
# Poissons Ratio (z) = 0.15180 0.05602
#
# Static dielectric constant tensor:
#      x y z
#    x 1.862560 0.000000 0.000000 
#    y 0.000000 2.182000 0.000000 
#    z 0.000000 0.000000 1.883340 
# 
# From -- ./inp_files/22333.got.cif
#   From: 2010.05.17/outbox.cif.g08.bks.cpg/sg52_12_cif.got.tgz:22333.got - 2010.06.03 12:15:38.
