data_PCOD9410304
_publ_section_title
;
Structure prediction by ZEFSAII (Michael W. Deem and Ramdas Pophale) SiO2 
 PCOD9410304
Probable space group: P N N A
;
_chemical_formula_sum "Si O2"
_cell_formula_units_Z 32
_cell_length_a 10.096834
_cell_length_b 8.834670
_cell_length_c 16.029027
_cell_angle_alpha 90.000000
_cell_angle_beta 90.000000
_cell_angle_gamma 90.000000
_cell_volume 1429.824415
_symmetry_space_group_name_H-M "P N N A"
_symmetry_group_IT_number 52
_symmetry_cell_setting 'orthorhombic'
loop_
_space_group_symop_operation_xyz
x,y,z
1/2-x,-y,z
x,1/2-y,1/2-z
1/2-x,1/2+y,1/2-z
-x,-y,-z
1/2+x,y,-z
-x,1/2+y,1/2+z
1/2+x,1/2-y,1/2+z
loop_
_atom_site_type_symbol
_atom_site_label
_atom_site_fract_x
_atom_site_fract_y
_atom_site_fract_z
Si Si1 0.463912 0.691624 0.162639
Si Si2 0.723205 0.176711 0.977984
Si Si3 0.104402 0.567664 0.063934
Si Si4 0.238000 0.182098 0.834464
O O1 0.408638 0.750000 0.250000
O O2 0.387262 0.774510 0.088066
O O3 0.439634 0.512092 0.149888
O O4 0.616911 0.739446 0.160315
O O5 0.859999 0.258570 0.949117
O O6 0.750000 0.000000 0.976905
O O7 0.681495 0.216327 0.073429
O O8 0.250000 0.500000 0.044272
O O9 0.000000 0.500000 0.000000
O O10 0.174536 0.250000 0.750000
O O11 0.250000 0.000000 0.825421
#
# Coordination Sequence:
#
# PCOD9410304 Si02
#       4
#     8   8   8   8
#     4  10  22  42  62  92 137 175 232 291 348 428
#     4  10  22  39  65  95 132 174 228 288 352 422
#     4  10  20  40  64  96 129 179 221 275 347 419
#     4  10  22  41  62  92 130 173 231 296 363 423
#
# _framework density 22.380369000000002
#
# number of rings (size 3 to 8) (size 9 to 14) (size 15 to 20)
#    0.000    2.000    2.500    0.000    0.000   10.000 
#    0.000    0.000    0.000    1.500    0.000    0.000 
#    0.000    0.000    0.000    0.000    0.000    0.000 
#
# Total GULP energy -178548.237465 kJ/mol
# GULP energy per Si atom -5579.632421 kJ/mol
# Density = 2.232943 g / cm^3
# Si number density = 22.380369 Si / 1000 Ang^3
#
#
#
# Elastic Constant Matrix: (Units=GPa)
#
#
# Indices 1 2 3 4 5 6 
#
# 1 79.5949 12.7975 9.0389 0.0000 0.0000 0.0000
# 2 12.7975 134.8182 50.2437 0.0000 0.0000 0.0000
# 3 9.0389 50.2437 190.2416 0.0000 0.0000 0.0000
# 4 0.0000 0.0000 0.0000 41.5665 0.0000 0.0000
# 5 0.0000 0.0000 0.0000 0.0000 28.6820 0.0000
# 6 0.0000 0.0000 0.0000 0.0000 0.0000 26.7036
#
#
#
# Elastic Compliance Matrix: (Units=1/GPa)
#
#
# Indices 1 2 3 4 5 6 
#
# 1 0.012776 -0.001094 -0.000318 0.000000 0.000000 0.000000
# 2 -0.001094 0.008321 -0.002146 0.000000 0.000000 0.000000
# 3 -0.000318 -0.002146 0.005838 0.000000 0.000000 0.000000
# 4 0.000000 0.000000 0.000000 0.024058 0.000000 0.000000
# 5 0.000000 0.000000 0.000000 0.000000 0.034865 0.000000
# 6 0.000000 0.000000 0.000000 0.000000 0.000000 0.037448
#
#
# Mechanical properties :
#
#
# Convention : Reuss Voigt Hill
#
# Bulk Modulus (GPa) = 50.45622 60.97941 55.71782
# Shear Modulus (GPa) = 36.48894 41.56206 39.02550
#
# Velocity S-wave (km/s) = 4.04220 4.31406 4.18034
# Velocity P-wave (km/s) = 6.66181 7.21947 6.94624
#
# Compressibility (1/GPa) = 0.01981916
#
# Stress axis : x y z
#
# Youngs Moduli (GPa) = 78.27379 120.17960 171.28432
#
# Poissons Ratio (x) = 0.13150 0.05447
# Poissons Ratio (y) = 0.08565 0.36751
# Poissons Ratio (z) = 0.02489 0.25786
#
# Static dielectric constant tensor:
#      x y z
#    x 1.824950 0.000000 0.000000 
#    y 0.000000 1.975300 0.000000 
#    z 0.000000 0.000000 1.879720 
# 
# From -- ./inp_files/25520.got.cif
#   From: 2010.05.17/outbox.cif.g08.bks.cpg/sg52_13_cif.got.tgz:25520.got - 2010.06.03 12:15:38.
