data_PCOD9410575
_publ_section_title
;
Structure prediction by ZEFSAII (Michael W. Deem and Ramdas Pophale) SiO2 
 PCOD9410575
Probable space group: P N N A
;
_chemical_formula_sum "Si O2"
_cell_formula_units_Z 44
_cell_length_a 11.212646
_cell_length_b 14.731682
_cell_length_c 12.396255
_cell_angle_alpha 90.000000
_cell_angle_beta 90.000000
_cell_angle_gamma 90.000000
_cell_volume 2047.627474
_symmetry_space_group_name_H-M "P N N A"
_symmetry_group_IT_number 52
_symmetry_cell_setting 'orthorhombic'
loop_
_space_group_symop_operation_xyz
x,y,z
1/2-x,-y,z
x,1/2-y,1/2-z
1/2-x,1/2+y,1/2-z
-x,-y,-z
1/2+x,y,-z
-x,1/2+y,1/2+z
1/2+x,1/2-y,1/2+z
loop_
_atom_site_type_symbol
_atom_site_label
_atom_site_fract_x
_atom_site_fract_y
_atom_site_fract_z
Si Si1 0.416669 0.067551 0.747219
Si Si2 0.250000 0.500000 0.588847
Si Si3 0.801480 0.350613 0.776565
Si Si4 0.019063 0.426358 0.906637
Si Si5 0.126504 0.093997 0.102718
Si Si6 0.439036 0.697168 0.094931
O O1 0.533595 0.045362 0.818993
O O2 0.455656 0.150464 0.667551
O O3 0.312401 0.074615 0.834404
O O4 0.394272 0.977895 0.675166
O O5 0.154137 0.452751 0.510159
O O6 0.849107 0.250000 0.750000
O O7 0.897429 0.405212 0.844103
O O8 0.751785 0.393971 0.666467
O O9 0.682469 0.336501 0.848244
O O10 0.000000 0.500000 0.000000
O O11 0.058038 0.338648 0.973006
O O12 0.068377 0.194591 0.094496
#
# Coordination Sequence:
#
# PCOD9410575 Si02
#       6
#     8   4   8   8   8   8
#     4  10  22  39  57  86 123 156 197 252 305 359
#     4  12  24  36  60  92 124 160 202 256 310 356
#     4   9  19  37  59  82 113 158 204 248 302 368
#     4  10  21  35  58  88 118 155 200 254 309 364
#     4  10  21  41  63  85 119 167 207 240 301 379
#     4   9  21  40  63  87 116 157 206 254 304 363
#
# _framework density 21.488282999999999
#
# number of rings (size 3 to 8) (size 9 to 14) (size 15 to 20)
#    0.000    2.182    0.000    3.273    0.000   13.091 
#    0.000    1.818    0.000    0.000    0.000    0.000 
#    0.000    0.000    0.000    0.000    0.000    0.000 
#
# Total GULP energy -245477.843076 kJ/mol
# GULP energy per Si atom -5579.041888 kJ/mol
# Density = 2.143937 g / cm^3
# Si number density = 21.488283 Si / 1000 Ang^3
#
#
#
# Elastic Constant Matrix: (Units=GPa)
#
#
# Indices 1 2 3 4 5 6 
#
# 1 28.4363 24.6869 24.7996 0.0000 0.0000 0.0000
# 2 24.6869 83.7095 54.7641 0.0000 0.0000 0.0000
# 3 24.7996 54.7641 117.5648 0.0000 0.0000 0.0000
# 4 0.0000 0.0000 0.0000 33.9891 0.0000 0.0000
# 5 0.0000 0.0000 0.0000 0.0000 24.0310 0.0000
# 6 0.0000 0.0000 0.0000 0.0000 0.0000 25.1721
#
#
#
# Elastic Compliance Matrix: (Units=1/GPa)
#
#
# Indices 1 2 3 4 5 6 
#
# 1 0.049405 -0.011150 -0.005228 0.000000 0.000000 0.000000
# 2 -0.011150 0.019699 -0.006824 0.000000 0.000000 0.000000
# 3 -0.005228 -0.006824 0.012788 0.000000 0.000000 0.000000
# 4 0.000000 0.000000 0.000000 0.029421 0.000000 0.000000
# 5 0.000000 0.000000 0.000000 0.000000 0.041613 0.000000
# 6 0.000000 0.000000 0.000000 0.000000 0.000000 0.039726
#
#
# Mechanical properties :
#
#
# Convention : Reuss Voigt Hill
#
# Bulk Modulus (GPa) = 28.17874 48.69022 38.43448
# Shear Modulus (GPa) = 19.92941 25.00245 22.46593
#
# Velocity S-wave (km/s) = 3.04872 3.41477 3.23692
# Velocity P-wave (km/s) = 5.05321 6.18512 5.64759
#
# Compressibility (1/GPa) = 0.03548775
#
# Stress axis : x y z
#
# Youngs Moduli (GPa) = 20.24068 50.76458 78.20135
#
# Poissons Ratio (x) = 0.56603 0.40882
# Poissons Ratio (y) = 0.22569 0.53365
# Poissons Ratio (z) = 0.10581 0.34642
#
# Static dielectric constant tensor:
#      x y z
#    x 1.782390 0.000000 0.000000 
#    y 0.000000 1.819220 0.000000 
#    z 0.000000 0.000000 1.814280 
# 
# From -- ./inp_files/18149.got.cif
#   From: 2010.05.17/outbox.cif.g08.bks.cpg/sg52_10_cif.got.tgz:18149.got - 2010.06.03 12:15:38.
