data_PCOD9410072
_publ_section_title
;
Structure prediction by ZEFSAII (Michael W. Deem and Ramdas Pophale) SiO2 
 PCOD9410072
Probable space group: P N N A
;
_chemical_formula_sum "Si O2"
_cell_formula_units_Z 60
_cell_length_a 29.154465
_cell_length_b 9.625098
_cell_length_c 11.426945
_cell_angle_alpha 90.000000
_cell_angle_beta 90.000000
_cell_angle_gamma 90.000000
_cell_volume 3206.567403
_symmetry_space_group_name_H-M "P N N A"
_symmetry_group_IT_number 52
_symmetry_cell_setting 'orthorhombic'
loop_
_space_group_symop_operation_xyz
x,y,z
1/2-x,-y,z
x,1/2-y,1/2-z
1/2-x,1/2+y,1/2-z
-x,-y,-z
1/2+x,y,-z
-x,1/2+y,1/2+z
1/2+x,1/2-y,1/2+z
loop_
_atom_site_type_symbol
_atom_site_label
_atom_site_fract_x
_atom_site_fract_y
_atom_site_fract_z
Si Si1 0.323097 0.750000 0.250000
Si Si2 0.859904 0.523673 0.561456
Si Si3 0.699725 0.050958 0.540285
Si Si4 0.458193 0.688675 0.011639
Si Si5 0.042481 0.602968 0.140728
Si Si6 0.534248 0.028742 0.892919
Si Si7 0.138858 0.248068 0.611795
Si Si8 0.354708 0.220223 0.380632
O O1 0.349179 0.630554 0.329159
O O2 0.297883 0.844146 0.347505
O O3 0.914192 0.498890 0.567013
O O4 0.846150 0.606724 0.446157
O O5 0.841937 0.366451 0.559683
O O6 0.672933 0.133112 0.439674
O O7 0.750000 0.000000 0.508027
O O8 0.669794 0.915837 0.571544
O O9 0.501193 0.682218 0.923601
O O10 0.411931 0.722696 0.941182
O O11 0.451487 0.540224 0.070550
O O12 0.466868 0.803290 0.111913
O O13 0.028466 0.555241 0.272121
O O14 0.090735 0.683889 0.129719
O O15 0.500000 0.000000 0.000000
O O16 0.137553 0.250000 0.750000
O O17 0.338536 0.250000 0.250000
#
# Coordination Sequence:
#
# PCOD9410072 Si02
#       8
#     4   8   8   8   8   8   8   8
#     4  10  20  38  62  94 122 158 196 254 318 384
#     4  10  22  36  63  89 123 164 204 251 314 371
#     4  11  24  41  66  97 127 157 207 259 324 382
#     4  10  23  37  60  84 121 167 214 257 301 367
#     4  11  22  38  57  88 125 165 207 258 310 368
#     4  11  22  32  53  85 121 164 208 244 302 372
#     4  10  23  45  66  88 124 173 217 257 309 382
#     4  12  21  38  63  94 129 160 199 260 321 370
#
# _framework density 18.711597000000001
#
# number of rings (size 3 to 8) (size 9 to 14) (size 15 to 20)
#    0.000    1.333    4.000    1.200    8.400    0.000 
#    0.000    4.000    0.000    0.000    0.000    0.000 
#    0.000    0.000    0.000    0.000    0.000    0.000 
#
# Total GULP energy -334530.611842 kJ/mol
# GULP energy per Si atom -5575.510197 kJ/mol
# Density = 1.866901 g / cm^3
# Si number density = 18.711597 Si / 1000 Ang^3
#
#
#
# Elastic Constant Matrix: (Units=GPa)
#
#
# Indices 1 2 3 4 5 6 
#
# 1 50.3053 29.5602 6.4294 0.0000 0.0000 0.0000
# 2 29.5602 150.0223 44.5871 0.0000 0.0000 0.0000
# 3 6.4294 44.5871 99.4531 0.0000 0.0000 0.0000
# 4 0.0000 0.0000 0.0000 21.1321 0.0000 0.0000
# 5 0.0000 0.0000 0.0000 0.0000 0.8614 0.0000
# 6 0.0000 0.0000 0.0000 0.0000 0.0000 0.5019
#
#
#
# Elastic Compliance Matrix: (Units=1/GPa)
#
#
# Indices 1 2 3 4 5 6 
#
# 1 0.022514 -0.004619 0.000615 0.000000 0.000000 0.000000
# 2 -0.004619 0.008638 -0.003574 0.000000 0.000000 0.000000
# 3 0.000615 -0.003574 0.011618 0.000000 0.000000 0.000000
# 4 0.000000 0.000000 0.000000 0.047321 0.000000 0.000000
# 5 0.000000 0.000000 0.000000 0.000000 1.160865 0.000000
# 6 0.000000 0.000000 0.000000 0.000000 0.000000 1.992537
#
#
# Mechanical properties :
#
#
# Convention : Reuss Voigt Hill
#
# Bulk Modulus (GPa) = 36.21312 51.21488 43.71400
# Shear Modulus (GPa) = 1.53006 19.11267 10.32137
#
# Velocity S-wave (km/s) = 0.90525 3.19946 2.35117
# Velocity P-wave (km/s) = 4.52636 6.40927 5.54828
#
# Compressibility (1/GPa) = 0.02761430
#
# Stress axis : x y z
#
# Youngs Moduli (GPa) = 44.41638 115.76738 86.07692
#
# Poissons Ratio (x) = 0.53473 -0.05297
# Poissons Ratio (y) = 0.20516 0.30764
# Poissons Ratio (z) = -0.02733 0.41375
#
# Static dielectric constant tensor:
#      x y z
#    x 1.645860 0.000000 0.000000 
#    y 0.000000 1.670170 0.000000 
#    z 0.000000 0.000000 1.626590 
# 
# From -- ./inp_files/23147.got.cif
#   From: 2010.05.17/outbox.cif.g08.bks.cpg/sg52_12_cif.got.tgz:23147.got - 2010.06.03 12:15:38.
