data_PCOD9410085
_publ_section_title
;
Structure prediction by ZEFSAII (Michael W. Deem and Ramdas Pophale) SiO2 
 PCOD9410085
Probable space group: P N N A
;
_chemical_formula_sum "Si O2"
_cell_formula_units_Z 48
_cell_length_a 15.401025
_cell_length_b 16.389063
_cell_length_c 9.007959
_cell_angle_alpha 90.000000
_cell_angle_beta 90.000000
_cell_angle_gamma 90.000000
_cell_volume 2273.684239
_symmetry_space_group_name_H-M "P N N A"
_symmetry_group_IT_number 52
_symmetry_cell_setting 'orthorhombic'
loop_
_space_group_symop_operation_xyz
x,y,z
1/2-x,-y,z
x,1/2-y,1/2-z
1/2-x,1/2+y,1/2-z
-x,-y,-z
1/2+x,y,-z
-x,1/2+y,1/2+z
1/2+x,1/2-y,1/2+z
loop_
_atom_site_type_symbol
_atom_site_label
_atom_site_fract_x
_atom_site_fract_y
_atom_site_fract_z
Si Si1 0.031369 0.158055 0.688596
Si Si2 0.710482 0.410601 0.828458
Si Si3 0.219574 0.405674 0.835614
Si Si4 0.881957 0.336800 0.313732
Si Si5 0.637144 0.664400 0.663309
Si Si6 0.487082 0.579660 0.107147
O O1 0.044622 0.250000 0.750000
O O2 0.120054 0.107935 0.710237
O O3 0.012229 0.153467 0.512994
O O4 0.946072 0.118975 0.764471
O O5 0.750000 0.500000 0.834785
O O6 0.767304 0.367979 0.702556
O O7 0.607217 0.417571 0.816521
O O8 0.728166 0.375047 0.993488
O O9 0.250000 0.500000 0.830055
O O10 0.283753 0.354172 0.735611
O O11 0.910746 0.250000 0.250000
O O12 0.882372 0.334253 0.490343
O O13 0.939999 0.404770 0.229889
O O14 0.633757 0.750000 0.750000
O O15 0.500000 0.500000 0.000000
#
# Coordination Sequence:
#
# PCOD9410085 Si02
#       6
#     8   8   8   8   8   8
#     4  10  20  38  63  90 125 167 212 271 329 386
#     4  10  21  40  66  91 124 164 207 262 322 385
#     4  10  21  39  64  92 123 166 214 263 321 389
#     4  12  24  40  65  94 126 170 221 272 330 399
#     4  11  24  40  61  91 131 170 210 268 329 387
#     4  11  23  43  70  96 127 173 224 272 329 398
#
# _framework density 21.111111000000001
#
# number of rings (size 3 to 8) (size 9 to 14) (size 15 to 20)
#    0.000    1.333    0.000    8.500    0.000    4.000 
#    0.000    5.833    0.000    0.000    0.000    0.000 
#    0.000    0.000    0.000    0.000    0.000    0.000 
#
# Total GULP energy -267922.527069 kJ/mol
# GULP energy per Si atom -5581.719314 kJ/mol
# Density = 2.106306 g / cm^3
# Si number density = 21.111111 Si / 1000 Ang^3
#
#
#
# Elastic Constant Matrix: (Units=GPa)
#
#
# Indices 1 2 3 4 5 6 
#
# 1 164.0326 26.5918 73.0274 0.0000 0.0000 0.0000
# 2 26.5918 66.8402 43.8882 0.0000 0.0000 0.0000
# 3 73.0274 43.8882 130.8429 0.0000 0.0000 0.0000
# 4 0.0000 0.0000 0.0000 19.8736 0.0000 0.0000
# 5 0.0000 0.0000 0.0000 0.0000 38.5612 0.0000
# 6 0.0000 0.0000 0.0000 0.0000 0.0000 30.8664
#
#
#
# Elastic Compliance Matrix: (Units=1/GPa)
#
#
# Indices 1 2 3 4 5 6 
#
# 1 0.008118 -0.000327 -0.004421 0.000000 0.000000 0.000000
# 2 -0.000327 0.019200 -0.006258 0.000000 0.000000 0.000000
# 3 -0.004421 -0.006258 0.012209 0.000000 0.000000 0.000000
# 4 0.000000 0.000000 0.000000 0.050318 0.000000 0.000000
# 5 0.000000 0.000000 0.000000 0.000000 0.025933 0.000000
# 6 0.000000 0.000000 0.000000 0.000000 0.000000 0.032398
#
#
# Mechanical properties :
#
#
# Convention : Reuss Voigt Hill
#
# Bulk Modulus (GPa) = 57.09143 72.08117 64.58630
# Shear Modulus (GPa) = 28.40500 32.40746 30.40623
#
# Velocity S-wave (km/s) = 3.67209 3.92227 3.79924
# Velocity P-wave (km/s) = 6.71424 7.39798 7.06439
#
# Compressibility (1/GPa) = 0.01751576
#
# Stress axis : x y z
#
# Youngs Moduli (GPa) = 123.18936 52.08328 81.90395
#
# Poissons Ratio (x) = 0.01701 0.36211
# Poissons Ratio (y) = 0.04022 0.51255
# Poissons Ratio (z) = 0.54464 0.32594
#
# Static dielectric constant tensor:
#      x y z
#    x 1.841970 0.000000 0.000000 
#    y 0.000000 1.788380 0.000000 
#    z 0.000000 0.000000 1.770430 
# 
# From -- ./inp_files/10490.got.cif
#   From: 2010.05.17/outbox.cif.g08.bks.cpg/sg52_6_cif.got.tgz:10490.got - 2010.06.03 12:15:38.
