data_PCOD9410888
_publ_section_title
;
Structure prediction by ZEFSAII (Michael W. Deem and Ramdas Pophale) SiO2 
 PCOD9410888
Probable space group: P N N A
;
_chemical_formula_sum "Si O2"
_cell_formula_units_Z 56
_cell_length_a 20.415229
_cell_length_b 9.514898
_cell_length_c 12.481555
_cell_angle_alpha 90.000000
_cell_angle_beta 90.000000
_cell_angle_gamma 90.000000
_cell_volume 2424.527350
_symmetry_space_group_name_H-M "P N N A"
_symmetry_group_IT_number 52
_symmetry_cell_setting 'orthorhombic'
loop_
_space_group_symop_operation_xyz
x,y,z
1/2-x,-y,z
x,1/2-y,1/2-z
1/2-x,1/2+y,1/2-z
-x,-y,-z
1/2+x,y,-z
-x,1/2+y,1/2+z
1/2+x,1/2-y,1/2+z
loop_
_atom_site_type_symbol
_atom_site_label
_atom_site_fract_x
_atom_site_fract_y
_atom_site_fract_z
Si Si1 0.750000 0.000000 0.368242
Si Si2 0.387197 0.983970 0.289460
Si Si3 0.580000 0.624344 0.583159
Si Si4 0.312979 0.324646 0.052440
Si Si5 0.464048 0.411252 0.764972
Si Si6 0.879469 0.638399 0.159943
Si Si7 0.717587 0.250000 0.750000
Si Si8 0.062140 0.374750 0.564606
O O1 0.778413 0.116764 0.448197
O O2 0.690603 0.075780 0.308091
O O3 0.458968 0.914459 0.294181
O O4 0.331053 0.882678 0.243298
O O5 0.399548 0.109315 0.205555
O O6 0.357562 0.051686 0.396250
O O7 0.637944 0.700479 0.523034
O O8 0.509641 0.696249 0.568345
O O9 0.571054 0.466667 0.540597
O O10 0.262729 0.275465 0.145375
O O11 0.443698 0.250000 0.750000
O O12 0.425642 0.504170 0.852459
O O13 0.444712 0.504361 0.658469
O O14 0.904124 0.750000 0.250000
O O15 0.884074 0.751027 0.064668
#
# Coordination Sequence:
#
# PCOD9410888 Si02
#       8
#     4   8   8   8   8   8   4   8
#     4  12  28  44  64  98 132 166 226 274 322 406
#     4  11  21  39  63  94 134 177 211 261 321 393
#     4  10  21  38  66  93 131 170 222 263 323 376
#     4  12  24  40  60  95 136 183 218 259 321 396
#     4  10  21  40  71  97 124 164 220 277 336 387
#     4  10  24  49  69  89 125 167 213 281 342 387
#     4  12  22  38  58  92 142 176 216 246 318 394
#     4   9  21  42  66  98 124 166 224 275 322 387
#
# _framework density 23.097283999999998
#
# number of rings (size 3 to 8) (size 9 to 14) (size 15 to 20)
#    0.000    1.429    3.571    0.857    4.000    2.857 
#    5.143    1.429    0.000    0.000    0.000    0.000 
#    0.000    0.000    0.000    0.000    0.000    0.000 
#
# Total GULP energy -312582.431928 kJ/mol
# GULP energy per Si atom -5581.829142 kJ/mol
# Density = 2.304471 g / cm^3
# Si number density = 23.097284 Si / 1000 Ang^3
#
#
#
# Elastic Constant Matrix: (Units=GPa)
#
#
# Indices 1 2 3 4 5 6 
#
# 1 99.5901 60.3199 -3.7827 0.0000 0.0000 0.0000
# 2 60.3199 129.9255 8.1233 0.0000 0.0000 0.0000
# 3 -3.7827 8.1233 16.5815 0.0000 0.0000 0.0000
# 4 0.0000 0.0000 0.0000 13.0519 0.0000 0.0000
# 5 0.0000 0.0000 0.0000 0.0000 23.6091 0.0000
# 6 0.0000 0.0000 0.0000 0.0000 0.0000 36.6521
#
#
#
# Elastic Compliance Matrix: (Units=1/GPa)
#
#
# Indices 1 2 3 4 5 6 
#
# 1 0.014698 -0.007256 0.006908 0.000000 0.000000 0.000000
# 2 -0.007256 0.011522 -0.007300 0.000000 0.000000 0.000000
# 3 0.006908 -0.007300 0.065460 0.000000 0.000000 0.000000
# 4 0.000000 0.000000 0.000000 0.076617 0.000000 0.000000
# 5 0.000000 0.000000 0.000000 0.000000 0.042357 0.000000
# 6 0.000000 0.000000 0.000000 0.000000 0.000000 0.027284
#
#
# Mechanical properties :
#
#
# Convention : Reuss Voigt Hill
#
# Bulk Modulus (GPa) = 13.09164 41.71313 27.40239
# Shear Modulus (GPa) = 17.94077 26.75839 22.34958
#
# Velocity S-wave (km/s) = 2.79004 3.40738 3.11405
# Velocity P-wave (km/s) = 4.00743 5.79476 4.98190
#
# Compressibility (1/GPa) = 0.07638460
#
# Stress axis : x y z
#
# Youngs Moduli (GPa) = 68.03552 86.79263 15.27642
#
# Poissons Ratio (x) = 0.62975 -0.10552
# Poissons Ratio (y) = 0.49365 0.11151
# Poissons Ratio (z) = -0.46997 0.63357
#
# Static dielectric constant tensor:
#      x y z
#    x 1.909230 0.000000 0.000000 
#    y 0.000000 1.930200 0.000000 
#    z 0.000000 0.000000 2.106370 
# 
# From -- ./inp_files/28836.got.cif
#   From: 2010.05.17/outbox.cif.g08.bks.cpg/sg52_15_cif.got.tgz:28836.got - 2010.06.03 12:15:38.
