data_PCOD9410356
_publ_section_title
;
Structure prediction by ZEFSAII (Michael W. Deem and Ramdas Pophale) SiO2 
 PCOD9410356
Probable space group: P N N A
;
_chemical_formula_sum "Si O2"
_cell_formula_units_Z 28
_cell_length_a 14.261097
_cell_length_b 5.617405
_cell_length_c 15.233138
_cell_angle_alpha 90.000000
_cell_angle_beta 90.000000
_cell_angle_gamma 90.000000
_cell_volume 1220.332132
_symmetry_space_group_name_H-M "P N N A"
_symmetry_group_IT_number 52
_symmetry_cell_setting 'orthorhombic'
loop_
_space_group_symop_operation_xyz
x,y,z
1/2-x,-y,z
x,1/2-y,1/2-z
1/2-x,1/2+y,1/2-z
-x,-y,-z
1/2+x,y,-z
-x,1/2+y,1/2+z
1/2+x,1/2-y,1/2+z
loop_
_atom_site_type_symbol
_atom_site_label
_atom_site_fract_x
_atom_site_fract_y
_atom_site_fract_z
Si Si1 0.700695 0.247194 0.856319
Si Si2 0.024639 0.250000 0.750000
Si Si3 0.163662 0.623198 0.662999
Si Si4 0.992996 0.912278 0.598093
O O1 0.750000 0.500000 0.884063
O O2 0.698222 0.250000 0.750000
O O3 0.594352 0.235873 0.892074
O O4 0.750000 0.000000 0.882731
O O5 0.090650 0.428266 0.696810
O O6 0.970835 0.396592 0.824584
O O7 0.250000 0.500000 0.614194
O O8 0.204994 0.750000 0.750000
O O9 0.096450 0.810569 0.616980
O O10 0.000000 0.000000 0.500000
#
# Coordination Sequence:
#
# PCOD9410356 Si02
#       4
#     8   4   8   8
#     4  10  23  45  76 104 143 198 254 309 368 441
#     4  10  22  42  76  94 144 184 244 298 376 440
#     4  10  20  40  71 102 140 186 239 297 372 449
#     4  11  26  45  70 109 146 191 246 312 379 459
#
# _framework density 22.944575
#
# number of rings (size 3 to 8) (size 9 to 14) (size 15 to 20)
#    0.000    1.714    1.429    2.571   10.000    1.143 
#    5.143    0.000    0.000    0.000    0.000    0.000 
#    0.000    0.000    0.000    0.000    0.000    0.000 
#
# Total GULP energy -156455.837884 kJ/mol
# GULP energy per Si atom -5587.708496 kJ/mol
# Density = 2.289235 g / cm^3
# Si number density = 22.944575 Si / 1000 Ang^3
#
#
#
# Elastic Constant Matrix: (Units=GPa)
#
#
# Indices 1 2 3 4 5 6 
#
# 1 121.4843 44.0962 53.4664 0.0000 0.0000 0.0000
# 2 44.0962 108.0359 46.6878 0.0000 0.0000 0.0000
# 3 53.4664 46.6878 98.5624 0.0000 0.0000 0.0000
# 4 0.0000 0.0000 0.0000 7.3139 0.0000 0.0000
# 5 0.0000 0.0000 0.0000 0.0000 1.8873 0.0000
# 6 0.0000 0.0000 0.0000 0.0000 0.0000 53.5347
#
#
#
# Elastic Compliance Matrix: (Units=1/GPa)
#
#
# Indices 1 2 3 4 5 6 
#
# 1 0.011315 -0.002472 -0.004967 0.000000 0.000000 0.000000
# 2 -0.002472 0.012179 -0.004428 0.000000 0.000000 0.000000
# 3 -0.004967 -0.004428 0.014938 0.000000 0.000000 0.000000
# 4 0.000000 0.000000 0.000000 0.136726 0.000000 0.000000
# 5 0.000000 0.000000 0.000000 0.000000 0.529846 0.000000
# 6 0.000000 0.000000 0.000000 0.000000 0.000000 0.018679
#
#
# Mechanical properties :
#
#
# Convention : Reuss Voigt Hill
#
# Bulk Modulus (GPa) = 68.03838 68.50927 68.27383
# Shear Modulus (GPa) = 6.64615 24.80268 15.72441
#
# Velocity S-wave (km/s) = 1.70379 3.29140 2.62070
# Velocity P-wave (km/s) = 5.79554 6.66092 6.24324
#
# Compressibility (1/GPa) = 0.01469759
#
# Stress axis : x y z
#
# Youngs Moduli (GPa) = 88.38043 82.11099 66.94448
#
# Poissons Ratio (x) = 0.20296 0.33251
# Poissons Ratio (y) = 0.21846 0.29643
# Poissons Ratio (z) = 0.43898 0.36359
#
# Static dielectric constant tensor:
#      x y z
#    x 1.849320 0.000000 0.000000 
#    y 0.000000 1.961640 0.000000 
#    z 0.000000 0.000000 1.687460 
# 
# From -- ./inp_files/32530.got.cif
#   From: 2010.05.17/outbox.cif.g08.bks.cpg/sg52_17_cif.got.tgz:32530.got - 2010.06.03 12:15:38.
