data_PCOD9410048
_publ_section_title
;
Structure prediction by ZEFSAII (Michael W. Deem and Ramdas Pophale) SiO2 
 PCOD9410048
Probable space group: P N N A
;
_chemical_formula_sum "Si O2"
_cell_formula_units_Z 64
_cell_length_a 15.938017
_cell_length_b 21.159010
_cell_length_c 8.749761
_cell_angle_alpha 90.000000
_cell_angle_beta 90.000000
_cell_angle_gamma 90.000000
_cell_volume 2950.705186
_symmetry_space_group_name_H-M "P N N A"
_symmetry_group_IT_number 52
_symmetry_cell_setting 'orthorhombic'
loop_
_space_group_symop_operation_xyz
x,y,z
1/2-x,-y,z
x,1/2-y,1/2-z
1/2-x,1/2+y,1/2-z
-x,-y,-z
1/2+x,y,-z
-x,1/2+y,1/2+z
1/2+x,1/2-y,1/2+z
loop_
_atom_site_type_symbol
_atom_site_label
_atom_site_fract_x
_atom_site_fract_y
_atom_site_fract_z
Si Si1 0.466848 0.384534 0.695603
Si Si2 0.023541 0.328289 0.869530
Si Si3 0.423618 0.383364 0.386564
Si Si4 0.568988 0.448147 0.960144
Si Si5 0.185884 0.956432 0.344613
Si Si6 0.346197 0.159575 0.544076
Si Si7 0.091008 0.280183 0.418431
Si Si8 0.723460 0.781874 0.919912
O O1 0.444273 0.420483 0.541264
O O2 0.535793 0.416987 0.803109
O O3 0.385663 0.366252 0.797662
O O4 0.511493 0.323690 0.620126
O O5 0.997203 0.342199 0.695323
O O6 0.070994 0.391023 0.923041
O O7 0.071926 0.270095 0.946983
O O8 0.932343 0.326305 0.951269
O O9 0.389045 0.432435 0.262239
O O10 0.347482 0.335181 0.423095
O O11 0.652895 0.487950 0.953716
O O12 0.500000 0.500000 0.000000
O O13 0.203177 0.894259 0.447327
O O14 0.250000 0.000000 0.249017
O O15 0.295782 0.224880 0.538211
O O16 0.103397 0.250000 0.250000
O O17 0.183306 0.309014 0.448214
O O18 0.717897 0.750000 0.750000
#
# Coordination Sequence:
#
# PCOD9410048 Si02
#       8
#     8   8   8   8   8   8   8   8
#     4  11  24  39  67  89 127 163 214 256 318 374
#     4  10  20  38  61  89 124 161 211 252 307 370
#     4  11  24  41  62  93 126 173 203 257 319 387
#     4  11  20  41  64  89 115 156 214 261 298 377
#     4  11  24  39  66  87 120 161 210 255 318 374
#     4  10  20  40  59  93 116 169 200 250 310 383
#     4  11  22  36  64 100 123 162 211 274 307 368
#     4  11  22  36  64  93 132 154 211 257 322 372
#
# _framework density 21.689730000000001
#
# number of rings (size 3 to 8) (size 9 to 14) (size 15 to 20)
#    0.000    1.250    8.750    0.750    3.500    0.500 
#    0.000    3.125    0.000    0.000    0.000    0.000 
#    0.000    0.000    0.000    0.000    0.000    0.000 
#
# Total GULP energy -356502.004049 kJ/mol
# GULP energy per Si atom -5570.343813 kJ/mol
# Density = 2.164036 g / cm^3
# Si number density = 21.689730 Si / 1000 Ang^3
#
#
#
# Elastic Constant Matrix: (Units=GPa)
#
#
# Indices 1 2 3 4 5 6 
#
# 1 31.0420 9.7147 -0.6732 0.0000 0.0000 0.0000
# 2 9.7147 76.7610 8.5686 0.0000 0.0000 0.0000
# 3 -0.6732 8.5686 99.3994 0.0000 0.0000 0.0000
# 4 0.0000 0.0000 0.0000 15.6640 0.0000 0.0000
# 5 0.0000 0.0000 0.0000 0.0000 8.2017 0.0000
# 6 0.0000 0.0000 0.0000 0.0000 0.0000 39.8553
#
#
#
# Elastic Compliance Matrix: (Units=1/GPa)
#
#
# Indices 1 2 3 4 5 6 
#
# 1 0.033578 -0.004317 0.000600 0.000000 0.000000 0.000000
# 2 -0.004317 0.013709 -0.001211 0.000000 0.000000 0.000000
# 3 0.000600 -0.001211 0.010169 0.000000 0.000000 0.000000
# 4 0.000000 0.000000 0.000000 0.063841 0.000000 0.000000
# 5 0.000000 0.000000 0.000000 0.000000 0.121925 0.000000
# 6 0.000000 0.000000 0.000000 0.000000 0.000000 0.025091
#
#
# Mechanical properties :
#
#
# Convention : Reuss Voigt Hill
#
# Bulk Modulus (GPa) = 21.00836 26.93585 23.97211
# Shear Modulus (GPa) = 17.00475 25.38369 21.19422
#
# Velocity S-wave (km/s) = 2.80304 3.42469 3.12934
# Velocity P-wave (km/s) = 4.49254 5.29940 4.91256
#
# Compressibility (1/GPa) = 0.04760010
#
# Stress axis : x y z
#
# Youngs Moduli (GPa) = 29.78113 72.94528 98.33929
#
# Poissons Ratio (x) = 0.31487 -0.05896
# Poissons Ratio (y) = 0.12855 0.11909
# Poissons Ratio (z) = -0.01785 0.08834
#
# Static dielectric constant tensor:
#      x y z
#    x -3.821550 0.000000 0.000000 
#    y 0.000000 1.799640 0.000000 
#    z 0.000000 0.000000 1.925800 
# 
# From -- ./inp_files/12589.got.cif
#   From: 2010.05.17/outbox.cif.g08.bks.cpg/sg52_7_cif.got.tgz:12589.got - 2010.06.03 12:15:38.
