data_PCOD9410149
_publ_section_title
;
Structure prediction by ZEFSAII (Michael W. Deem and Ramdas Pophale) SiO2 
 PCOD9410149
Probable space group: P N N A
;
_chemical_formula_sum "Si O2"
_cell_formula_units_Z 52
_cell_length_a 27.186044
_cell_length_b 11.662136
_cell_length_c 8.489482
_cell_angle_alpha 90.000000
_cell_angle_beta 90.000000
_cell_angle_gamma 90.000000
_cell_volume 2691.567707
_symmetry_space_group_name_H-M "P N N A"
_symmetry_group_IT_number 52
_symmetry_cell_setting 'orthorhombic'
loop_
_space_group_symop_operation_xyz
x,y,z
1/2-x,-y,z
x,1/2-y,1/2-z
1/2-x,1/2+y,1/2-z
-x,-y,-z
1/2+x,y,-z
-x,1/2+y,1/2+z
1/2+x,1/2-y,1/2+z
loop_
_atom_site_type_symbol
_atom_site_label
_atom_site_fract_x
_atom_site_fract_y
_atom_site_fract_z
Si Si1 0.322586 0.250000 0.250000
Si Si2 0.970345 0.041291 0.845371
Si Si3 0.443862 0.632448 0.846189
Si Si4 0.093820 0.721115 0.497969
Si Si5 0.884032 0.419459 0.188233
Si Si6 0.304657 0.037997 0.447171
Si Si7 0.894143 0.624802 0.821435
O O1 0.358564 0.285080 0.390430
O O2 0.296715 0.138387 0.318188
O O3 0.007011 0.063532 0.700747
O O4 0.926314 0.955487 0.796365
O O5 0.948760 0.162905 0.900097
O O6 0.000000 0.000000 0.000000
O O7 0.443801 0.750000 0.750000
O O8 0.400690 0.548278 0.786532
O O9 0.430093 0.647363 0.028690
O O10 0.106290 0.648198 0.652656
O O11 0.084307 0.850872 0.554929
O O12 0.830795 0.416742 0.107184
O O13 0.250000 0.000000 0.486006
O O14 0.345199 0.946409 0.377831
O O15 0.881937 0.750000 0.750000
#
# Coordination Sequence:
#
# PCOD9410149 Si02
#       7
#     4   8   8   8   8   8   8
#     4  10  20  38  68  90 120 154 202 260 312 364
#     4  12  23  38  61  92 125 167 214 249 304 371
#     4  11  24  39  59  89 129 172 214 249 305 373
#     4  10  20  39  63  88 121 158 208 256 311 362
#     4   9  21  41  63  85 125 164 203 262 313 368
#     4  10  22  41  68  92 120 156 209 261 316 378
#     4  11  25  43  61  92 134 168 202 266 318 374
#
# _framework density 19.319596000000001
#
# number of rings (size 3 to 8) (size 9 to 14) (size 15 to 20)
#    0.000    1.538    3.077    1.385    2.154    2.462 
#    0.000    0.769   27.077    0.000    0.000    0.000 
#    0.000    0.000    0.000    0.000    0.000    0.000 
#
# Total GULP energy -289928.592326 kJ/mol
# GULP energy per Si atom -5575.549852 kJ/mol
# Density = 1.927562 g / cm^3
# Si number density = 19.319596 Si / 1000 Ang^3
#
#
#
# Elastic Constant Matrix: (Units=GPa)
#
#
# Indices 1 2 3 4 5 6 
#
# 1 86.4439 23.6468 24.6641 0.0000 0.0000 0.0000
# 2 23.6468 80.5794 13.9511 0.0000 0.0000 0.0000
# 3 24.6641 13.9511 69.4532 0.0000 0.0000 0.0000
# 4 0.0000 0.0000 0.0000 26.8676 0.0000 0.0000
# 5 0.0000 0.0000 0.0000 0.0000 19.9717 0.0000
# 6 0.0000 0.0000 0.0000 0.0000 0.0000 19.7320
#
#
#
# Elastic Compliance Matrix: (Units=1/GPa)
#
#
# Indices 1 2 3 4 5 6 
#
# 1 0.013663 -0.003284 -0.004192 0.000000 0.000000 0.000000
# 2 -0.003284 0.013646 -0.001575 0.000000 0.000000 0.000000
# 3 -0.004192 -0.001575 0.016203 0.000000 0.000000 0.000000
# 4 0.000000 0.000000 0.000000 0.037220 0.000000 0.000000
# 5 0.000000 0.000000 0.000000 0.000000 0.050071 0.000000
# 6 0.000000 0.000000 0.000000 0.000000 0.000000 0.050679
#
#
# Mechanical properties :
#
#
# Convention : Reuss Voigt Hill
#
# Bulk Modulus (GPa) = 39.35394 40.11118 39.73256
# Shear Modulus (GPa) = 24.03224 24.92855 24.48040
#
# Velocity S-wave (km/s) = 3.53077 3.59601 3.56354
# Velocity P-wave (km/s) = 6.08572 6.16836 6.12718
#
# Compressibility (1/GPa) = 0.02541042
#
# Stress axis : x y z
#
# Youngs Moduli (GPa) = 73.19273 73.27926 61.71570
#
# Poissons Ratio (x) = 0.24062 0.25873
# Poissons Ratio (y) = 0.24033 0.09721
# Poissons Ratio (z) = 0.30684 0.11542
#
# Static dielectric constant tensor:
#      x y z
#    x 1.658430 0.000000 0.000000 
#    y 0.000000 1.731990 0.000000 
#    z 0.000000 0.000000 1.687990 
# 
# From -- ./inp_files/14993.got.cif
#   From: 2010.05.17/outbox.cif.g08.bks.cpg/sg52_8_cif.got.tgz:14993.got - 2010.06.03 12:15:38.
