data_PCOD9410341
_publ_section_title
;
Structure prediction by ZEFSAII (Michael W. Deem and Ramdas Pophale) SiO2 
 PCOD9410341
Probable space group: P N N A
;
_chemical_formula_sum "Si O2"
_cell_formula_units_Z 48
_cell_length_a 8.660945
_cell_length_b 23.037562
_cell_length_c 11.326088
_cell_angle_alpha 90.000000
_cell_angle_beta 90.000000
_cell_angle_gamma 90.000000
_cell_volume 2259.861011
_symmetry_space_group_name_H-M "P N N A"
_symmetry_group_IT_number 52
_symmetry_cell_setting 'orthorhombic'
loop_
_space_group_symop_operation_xyz
x,y,z
1/2-x,-y,z
x,1/2-y,1/2-z
1/2-x,1/2+y,1/2-z
-x,-y,-z
1/2+x,y,-z
-x,1/2+y,1/2+z
1/2+x,1/2-y,1/2+z
loop_
_atom_site_type_symbol
_atom_site_label
_atom_site_fract_x
_atom_site_fract_y
_atom_site_fract_z
Si Si1 0.980125 0.553554 0.849604
Si Si2 0.135530 0.250000 0.750000
Si Si3 0.430725 0.812516 0.336758
Si Si4 0.612987 0.766380 0.554476
Si Si5 0.750000 0.500000 0.035245
Si Si6 0.879359 0.329776 0.381411
Si Si7 0.084230 0.530211 0.609670
O O1 0.923249 0.618254 0.837479
O O2 0.977847 0.520945 0.725028
O O3 0.875092 0.527382 0.950116
O O4 0.159434 0.547474 0.887853
O O5 0.025522 0.226468 0.646512
O O6 0.235783 0.302084 0.691679
O O7 0.565686 0.797794 0.431948
O O8 0.270247 0.787520 0.385590
O O9 0.479510 0.804069 0.199042
O O10 0.623922 0.699901 0.509652
O O11 0.890293 0.399326 0.393824
O O12 0.250000 0.500000 0.623232
O O13 0.000000 0.500000 0.500000
#
# Coordination Sequence:
#
# PCOD9410341 Si02
#       7
#     8   4   8   8   4   8   8
#     4  10  22  42  68 100 133 183 230 303 349 427
#     4  12  26  42  70 108 140 194 232 298 378 422
#     4  11  22  42  69  98 141 182 235 293 366 429
#     4  12  24  42  67 105 140 187 237 290 368 444
#     4  10  20  40  68  96 138 176 236 288 360 406
#     4  11  25  49  71 100 149 182 240 307 354 443
#     4  11  27  49  70 103 141 193 243 296 360 433
#
# _framework density 21.240243
#
# number of rings (size 3 to 8) (size 9 to 14) (size 15 to 20)
#    0.000    1.000    4.167    1.000    5.833    1.333 
#    6.000    0.000    0.000    0.000    0.000    0.000 
#    0.000    0.000    0.000    0.000    0.000    0.000 
#
# Total GULP energy -267864.666013 kJ/mol
# GULP energy per Si atom -5580.513875 kJ/mol
# Density = 2.119190 g / cm^3
# Si number density = 21.240243 Si / 1000 Ang^3
#
#
#
# Elastic Constant Matrix: (Units=GPa)
#
#
# Indices 1 2 3 4 5 6 
#
# 1 113.2011 34.0661 46.8912 0.0000 0.0000 0.0000
# 2 34.0661 76.5848 34.3748 0.0000 0.0000 0.0000
# 3 46.8912 34.3748 121.1557 0.0000 0.0000 0.0000
# 4 0.0000 0.0000 0.0000 47.0907 0.0000 0.0000
# 5 0.0000 0.0000 0.0000 0.0000 64.1360 0.0000
# 6 0.0000 0.0000 0.0000 0.0000 0.0000 18.1675
#
#
#
# Elastic Compliance Matrix: (Units=1/GPa)
#
#
# Indices 1 2 3 4 5 6 
#
# 1 0.011286 -0.003506 -0.003373 0.000000 0.000000 0.000000
# 2 -0.003506 0.016052 -0.003197 0.000000 0.000000 0.000000
# 3 -0.003373 -0.003197 0.010467 0.000000 0.000000 0.000000
# 4 0.000000 0.000000 0.000000 0.021236 0.000000 0.000000
# 5 0.000000 0.000000 0.000000 0.000000 0.015592 0.000000
# 6 0.000000 0.000000 0.000000 0.000000 0.000000 0.055043
#
#
# Mechanical properties :
#
#
# Convention : Reuss Voigt Hill
#
# Bulk Modulus (GPa) = 56.65337 60.17841 58.41589
# Shear Modulus (GPa) = 32.11023 38.91947 35.51485
#
# Velocity S-wave (km/s) = 3.89236 4.28523 4.09351
# Velocity P-wave (km/s) = 6.85063 7.27173 7.06432
#
# Compressibility (1/GPa) = 0.01765120
#
# Stress axis : x y z
#
# Youngs Moduli (GPa) = 88.60275 62.29687 95.54179
#
# Poissons Ratio (x) = 0.21843 0.32230
# Poissons Ratio (y) = 0.31066 0.30548
# Poissons Ratio (z) = 0.29889 0.19919
#
# Static dielectric constant tensor:
#      x y z
#    x 1.803710 0.000000 0.000000 
#    y 0.000000 1.814710 0.000000 
#    z 0.000000 0.000000 1.817280 
# 
# From -- ./inp_files/16997.got.cif
#   From: 2010.05.17/outbox.cif.g08.bks.cpg/sg52_9_cif.got.tgz:16997.got - 2010.06.03 12:15:38.
