data_PCOD9410641
_publ_section_title
;
Structure prediction by ZEFSAII (Michael W. Deem and Ramdas Pophale) SiO2 
 PCOD9410641
Probable space group: P N N A
;
_chemical_formula_sum "Si O2"
_cell_formula_units_Z 20
_cell_length_a 9.889707
_cell_length_b 11.270736
_cell_length_c 7.090717
_cell_angle_alpha 90.000000
_cell_angle_beta 90.000000
_cell_angle_gamma 90.000000
_cell_volume 790.361642
_symmetry_space_group_name_H-M "P N N A"
_symmetry_group_IT_number 52
_symmetry_cell_setting 'orthorhombic'
loop_
_space_group_symop_operation_xyz
x,y,z
1/2-x,-y,z
x,1/2-y,1/2-z
1/2-x,1/2+y,1/2-z
-x,-y,-z
1/2+x,y,-z
-x,1/2+y,1/2+z
1/2+x,1/2-y,1/2+z
loop_
_atom_site_type_symbol
_atom_site_label
_atom_site_fract_x
_atom_site_fract_y
_atom_site_fract_z
Si Si1 0.658568 0.748731 0.478854
Si Si2 0.750000 0.000000 0.069803
Si Si3 0.585163 0.105473 0.409377
O O1 0.642180 0.750000 0.250000
O O2 0.696347 0.615041 0.537854
O O3 0.779396 0.843382 0.509261
O O4 0.520236 0.788458 0.569734
O O5 0.863593 0.944591 0.209226
O O6 0.500000 0.000000 0.500000
#
# Coordination Sequence:
#
# PCOD9410641 Si02
#       3
#     8   4   8
#     4  10  21  36  61  90 121 162 201 248 307 353
#     4  10  22  40  64  88 128 162 200 252 308 356
#     4  11  18  36  64  85 117 164 201 246 303 360
#
# _framework density 25.304873000000001
#
# number of rings (size 3 to 8) (size 9 to 14) (size 15 to 20)
#    0.000    1.600    8.000    0.000    0.000    1.600 
#    0.000    6.000    0.000    0.000    0.000    0.000 
#    0.000    0.000    0.000    0.000    0.000    0.000 
#
# Total GULP energy -111913.235317 kJ/mol
# GULP energy per Si atom -5595.661766 kJ/mol
# Density = 2.524728 g / cm^3
# Si number density = 25.304873 Si / 1000 Ang^3
#
#
#
# Elastic Constant Matrix: (Units=GPa)
#
#
# Indices 1 2 3 4 5 6 
#
# 1 174.7120 40.4662 37.2382 0.0000 0.0000 0.0000
# 2 40.4662 146.3163 17.1760 0.0000 0.0000 0.0000
# 3 37.2382 17.1760 75.9784 0.0000 0.0000 0.0000
# 4 0.0000 0.0000 0.0000 27.0230 0.0000 0.0000
# 5 0.0000 0.0000 0.0000 0.0000 16.3734 0.0000
# 6 0.0000 0.0000 0.0000 0.0000 0.0000 71.5404
#
#
#
# Elastic Compliance Matrix: (Units=1/GPa)
#
#
# Indices 1 2 3 4 5 6 
#
# 1 0.006700 -0.001508 -0.002943 0.000000 0.000000 0.000000
# 2 -0.001508 0.007360 -0.000925 0.000000 0.000000 0.000000
# 3 -0.002943 -0.000925 0.014813 0.000000 0.000000 0.000000
# 4 0.000000 0.000000 0.000000 0.037005 0.000000 0.000000
# 5 0.000000 0.000000 0.000000 0.000000 0.061075 0.000000
# 6 0.000000 0.000000 0.000000 0.000000 0.000000 0.013978
#
#
# Mechanical properties :
#
#
# Convention : Reuss Voigt Hill
#
# Bulk Modulus (GPa) = 55.18088 65.19639 60.18863
# Shear Modulus (GPa) = 31.70103 43.12911 37.41507
#
# Velocity S-wave (km/s) = 3.54328 4.13289 3.84939
# Velocity P-wave (km/s) = 6.21237 6.97099 6.60258
#
# Compressibility (1/GPa) = 0.01812222
#
# Stress axis : x y z
#
# Youngs Moduli (GPa) = 149.25009 135.86901 67.50752
#
# Poissons Ratio (x) = 0.20483 0.19868
# Poissons Ratio (y) = 0.22500 0.06244
# Poissons Ratio (z) = 0.43925 0.12567
#
# Static dielectric constant tensor:
#      x y z
#    x 1.941310 0.000000 0.000000 
#    y 0.000000 2.151220 0.000000 
#    z 0.000000 0.000000 1.997240 
# 
# From -- ./inp_files/6827.got.cif
#   From: 2010.05.17/outbox.cif.g08.bks.cpg/sg52_4_cif.got.tgz:6827.got - 2010.06.03 12:15:38.
