data_PCOD9410878
_publ_section_title
;
Structure prediction by ZEFSAII (Michael W. Deem and Ramdas Pophale) SiO2 
 PCOD9410878
Probable space group: P N N A
;
_chemical_formula_sum "Si O2"
_cell_formula_units_Z 60
_cell_length_a 30.033900
_cell_length_b 8.782446
_cell_length_c 10.861884
_cell_angle_alpha 90.000000
_cell_angle_beta 90.000000
_cell_angle_gamma 90.000000
_cell_volume 2865.051144
_symmetry_space_group_name_H-M "P N N A"
_symmetry_group_IT_number 52
_symmetry_cell_setting 'orthorhombic'
loop_
_space_group_symop_operation_xyz
x,y,z
1/2-x,-y,z
x,1/2-y,1/2-z
1/2-x,1/2+y,1/2-z
-x,-y,-z
1/2+x,y,-z
-x,1/2+y,1/2+z
1/2+x,1/2-y,1/2+z
loop_
_atom_site_type_symbol
_atom_site_label
_atom_site_fract_x
_atom_site_fract_y
_atom_site_fract_z
Si Si1 0.002543 0.138401 0.097695
Si Si2 0.916919 0.194476 0.487681
Si Si3 0.551796 0.432456 0.831765
Si Si4 0.731065 0.805173 0.379125
Si Si5 0.153579 0.927465 0.948789
Si Si6 0.130436 0.250000 0.250000
Si Si7 0.351020 0.987458 0.672593
Si Si8 0.180803 0.246038 0.493011
O O1 0.038473 0.280795 0.086858
O O2 0.012997 0.062512 0.229855
O O3 0.956167 0.226231 0.087432
O O4 0.000000 0.000000 0.000000
O O5 0.883943 0.334295 0.522466
O O6 0.885502 0.088407 0.404451
O O7 0.938514 0.083477 0.590338
O O8 0.595387 0.390233 0.751124
O O9 0.752299 0.750000 0.250000
O O10 0.694081 0.684221 0.419101
O O11 0.699688 0.948470 0.347186
O O12 0.768775 0.803471 0.481870
O O13 0.137072 0.986118 0.814500
O O14 0.174174 0.074164 0.010762
O O15 0.160823 0.199973 0.363382
O O16 0.348074 0.825537 0.605092
#
# Coordination Sequence:
#
# PCOD9410878 Si02
#       8
#     8   8   8   8   8   4   8   8
#     4  10  24  42  69  97 119 165 224 266 317 402
#     4  11  22  42  67  94 135 163 209 265 342 402
#     4  10  24  47  67  90 138 173 204 277 344 381
#     4   9  19  38  62  95 133 168 213 273 340 381
#     4  10  23  36  66 100 131 165 218 283 326 390
#     4  10  24  42  60  88 130 178 220 258 322 382
#     4  10  21  38  65  99 128 173 211 277 339 388
#     4  12  21  39  63  90 130 181 223 265 319 395
#
# _framework density 20.942035000000001
#
# number of rings (size 3 to 8) (size 9 to 14) (size 15 to 20)
#    0.000    1.867    1.333    3.600    7.467    2.667 
#    0.000    2.667    0.000    0.000    0.000    0.000 
#    0.000    0.000    0.000    0.000    0.000    0.000 
#
# Total GULP energy -334203.459498 kJ/mol
# GULP energy per Si atom -5570.057658 kJ/mol
# Density = 2.089437 g / cm^3
# Si number density = 20.942035 Si / 1000 Ang^3
#
#
#
# Elastic Constant Matrix: (Units=GPa)
#
#
# Indices 1 2 3 4 5 6 
#
# 1 90.8502 29.2749 46.3923 0.0000 0.0000 0.0000
# 2 29.2749 104.2784 30.8949 0.0000 0.0000 0.0000
# 3 46.3923 30.8949 72.7325 0.0000 0.0000 0.0000
# 4 0.0000 0.0000 0.0000 27.1475 0.0000 0.0000
# 5 0.0000 0.0000 0.0000 0.0000 15.7008 0.0000
# 6 0.0000 0.0000 0.0000 0.0000 0.0000 1.1294
#
#
#
# Elastic Compliance Matrix: (Units=1/GPa)
#
#
# Indices 1 2 3 4 5 6 
#
# 1 0.016596 -0.001742 -0.009846 0.000000 0.000000 0.000000
# 2 -0.001742 0.011153 -0.003626 0.000000 0.000000 0.000000
# 3 -0.009846 -0.003626 0.021570 0.000000 0.000000 0.000000
# 4 0.000000 0.000000 0.000000 0.036836 0.000000 0.000000
# 5 0.000000 0.000000 0.000000 0.000000 0.063691 0.000000
# 6 0.000000 0.000000 0.000000 0.000000 0.000000 0.885427
#
#
# Mechanical properties :
#
#
# Convention : Reuss Voigt Hill
#
# Bulk Modulus (GPa) = 52.93732 53.44280 53.19006
# Shear Modulus (GPa) = 4.66419 19.54880 12.10650
#
# Velocity S-wave (km/s) = 1.49400 3.05859 2.40697
# Velocity P-wave (km/s) = 5.32061 6.16831 5.76008
#
# Compressibility (1/GPa) = 0.01889027
#
# Stress axis : x y z
#
# Youngs Moduli (GPa) = 60.25457 89.66037 46.36156
#
# Poissons Ratio (x) = 0.15620 0.45647
# Poissons Ratio (y) = 0.10497 0.16812
# Poissons Ratio (z) = 0.59326 0.32514
#
# Static dielectric constant tensor:
#      x y z
#    x 1.756690 0.000000 0.000000 
#    y 0.000000 1.853940 0.000000 
#    z 0.000000 0.000000 2.104650 
# 
# From -- ./inp_files/22899.got.cif
#   From: 2010.05.17/outbox.cif.g08.bks.cpg/sg52_12_cif.got.tgz:22899.got - 2010.06.03 12:15:38.
