data_PCOD9410923
_publ_section_title
;
Structure prediction by ZEFSAII (Michael W. Deem and Ramdas Pophale) SiO2 
 PCOD9410923
Probable space group: P N N A
;
_chemical_formula_sum "Si O2"
_cell_formula_units_Z 52
_cell_length_a 9.479100
_cell_length_b 17.873401
_cell_length_c 14.597764
_cell_angle_alpha 90.000000
_cell_angle_beta 90.000000
_cell_angle_gamma 90.000000
_cell_volume 2473.207998
_symmetry_space_group_name_H-M "P N N A"
_symmetry_group_IT_number 52
_symmetry_cell_setting 'orthorhombic'
loop_
_space_group_symop_operation_xyz
x,y,z
1/2-x,-y,z
x,1/2-y,1/2-z
1/2-x,1/2+y,1/2-z
-x,-y,-z
1/2+x,y,-z
-x,1/2+y,1/2+z
1/2+x,1/2-y,1/2+z
loop_
_atom_site_type_symbol
_atom_site_label
_atom_site_fract_x
_atom_site_fract_y
_atom_site_fract_z
Si Si1 0.948805 0.328703 0.787278
Si Si2 0.251691 0.359143 0.848220
Si Si3 0.737398 0.683486 0.953867
Si Si4 0.987938 0.746454 0.846137
Si Si5 0.750000 0.000000 0.213229
Si Si6 0.954605 0.913894 0.107620
Si Si7 0.343281 0.346436 0.534397
O O1 0.898722 0.250000 0.750000
O O2 0.103313 0.318873 0.831180
O O3 0.974199 0.379434 0.698738
O O4 0.847294 0.352227 0.869567
O O5 0.377640 0.304294 0.825055
O O6 0.258094 0.429661 0.781294
O O7 0.262547 0.369398 0.957499
O O8 0.892994 0.704597 0.920287
O O9 0.674445 0.765705 0.982106
O O10 0.908093 0.750000 0.750000
O O11 0.047812 0.823944 0.885208
O O12 0.884797 0.989993 0.146461
O O13 0.811615 0.870763 0.071287
O O14 0.075641 0.905058 0.031205
#
# Coordination Sequence:
#
# PCOD9410923 Si02
#       7
#     8   8   8   8   4   8   8
#     4  11  19  35  59  89 124 161 196 253 325 382
#     4  10  21  39  59  82 122 166 213 249 305 382
#     4  11  21  34  59  98 124 153 199 264 332 375
#     4  11  21  34  58  96 126 152 194 267 329 373
#     4  10  24  44  62  86 120 182 224 250 302 388
#     4  11  23  39  63  87 124 167 215 261 313 384
#     4  11  21  39  61  94 124 160 203 270 333 378
#
# _framework density 21.025324999999999
#
# number of rings (size 3 to 8) (size 9 to 14) (size 15 to 20)
#    0.000    1.231    3.077    6.462    0.000    0.615 
#    0.000    6.923    0.000    3.692    0.000    0.000 
#    0.000    0.000    0.000    0.000    0.000    0.000 
#
# Total GULP energy -290091.447492 kJ/mol
# GULP energy per Si atom -5578.681683 kJ/mol
# Density = 2.097747 g / cm^3
# Si number density = 21.025325 Si / 1000 Ang^3
#
#
#
# Elastic Constant Matrix: (Units=GPa)
#
#
# Indices 1 2 3 4 5 6 
#
# 1 104.9691 18.9387 42.8140 0.0000 0.0000 0.0000
# 2 18.9387 36.0197 30.4592 0.0000 0.0000 0.0000
# 3 42.8140 30.4592 157.8827 0.0000 0.0000 0.0000
# 4 0.0000 0.0000 0.0000 33.7722 0.0000 0.0000
# 5 0.0000 0.0000 0.0000 0.0000 42.9801 0.0000
# 6 0.0000 0.0000 0.0000 0.0000 0.0000 -107.0530
#
#
#
# Elastic Compliance Matrix: (Units=1/GPa)
#
#
# Indices 1 2 3 4 5 6 
#
# 1 0.011164 -0.003955 -0.002264 0.000000 0.000000 0.000000
# 2 -0.003955 0.034576 -0.005598 0.000000 0.000000 0.000000
# 3 -0.002264 -0.005598 0.008028 0.000000 0.000000 0.000000
# 4 0.000000 0.000000 0.000000 0.029610 0.000000 0.000000
# 5 0.000000 0.000000 0.000000 0.000000 0.023267 0.000000
# 6 0.000000 0.000000 0.000000 0.000000 0.000000 -0.009341
#
#
# Mechanical properties :
#
#
# Convention : Reuss Voigt Hill
#
# Bulk Modulus (GPa) = 33.18636 53.69947 43.44291
# Shear Modulus (GPa) = 38.17320 7.71717 22.94518
#
# Velocity S-wave (km/s) = 4.26559 1.91791 3.30708
# Velocity P-wave (km/s) = 6.33076 5.52271 5.94049
#
# Compressibility (1/GPa) = 0.03013287
#
# Stress axis : x y z
#
# Youngs Moduli (GPa) = 89.57573 28.92187 124.56672
#
# Poissons Ratio (x) = 0.11439 0.28206
# Poissons Ratio (y) = 0.35427 0.69732
# Poissons Ratio (z) = 0.20283 0.16190
#
# Static dielectric constant tensor:
#      x y z
#    x 1.748120 0.000000 0.000000 
#    y 0.000000 1.741720 0.000000 
#    z 0.000000 0.000000 1.878730 
# 
# From -- ./inp_files/24909.got.cif
#   From: 2010.05.17/outbox.cif.g08.bks.cpg/sg52_13_cif.got.tgz:24909.got - 2010.06.03 12:15:38.
