data_PCOD9410154
_publ_section_title
;
Structure prediction by ZEFSAII (Michael W. Deem and Ramdas Pophale) SiO2 
 PCOD9410154
Probable space group: P N N A
;
_chemical_formula_sum "Si O2"
_cell_formula_units_Z 60
_cell_length_a 9.671299
_cell_length_b 11.698746
_cell_length_c 21.020696
_cell_angle_alpha 90.000000
_cell_angle_beta 90.000000
_cell_angle_gamma 90.000000
_cell_volume 2378.325069
_symmetry_space_group_name_H-M "P N N A"
_symmetry_group_IT_number 52
_symmetry_cell_setting 'orthorhombic'
loop_
_space_group_symop_operation_xyz
x,y,z
1/2-x,-y,z
x,1/2-y,1/2-z
1/2-x,1/2+y,1/2-z
-x,-y,-z
1/2+x,y,-z
-x,1/2+y,1/2+z
1/2+x,1/2-y,1/2+z
loop_
_atom_site_type_symbol
_atom_site_label
_atom_site_fract_x
_atom_site_fract_y
_atom_site_fract_z
Si Si1 0.197861 0.378831 0.527483
Si Si2 0.315360 0.674636 0.386217
Si Si3 0.173657 0.645971 0.718422
Si Si4 0.985640 0.247474 0.887568
Si Si5 0.250000 0.500000 0.273519
Si Si6 0.034556 0.088985 0.766631
Si Si7 0.099225 0.484257 0.940105
Si Si8 0.883191 0.228080 0.398332
O O1 0.250000 0.500000 0.553839
O O2 0.175905 0.393916 0.452482
O O3 0.312735 0.278365 0.538098
O O4 0.057261 0.337958 0.561562
O O5 0.179904 0.753392 0.392749
O O6 0.298047 0.598111 0.323320
O O7 0.460443 0.737179 0.386608
O O8 0.090470 0.750000 0.750000
O O9 0.088067 0.532738 0.706289
O O10 0.313229 0.625223 0.759495
O O11 0.209275 0.700737 0.650986
O O12 0.003286 0.186693 0.818641
O O13 0.057481 0.369176 0.902954
O O14 0.385008 0.447366 0.237446
O O15 0.250000 0.500000 0.970231
O O16 0.109058 0.592392 0.892870
O O17 0.000000 0.500000 0.000000
#
# Coordination Sequence:
#
# PCOD9410154 Si02
#       8
#     8   8   8   8   4   8   8   8
#     4  12  22  35  59  95 137 176 227 274 331 407
#     4  11  23  36  59 100 134 179 223 270 340 411
#     4  11  23  45  72 101 126 173 230 293 358 415
#     4  11  24  40  61  90 131 183 226 272 346 400
#     4  10  20  38  68  98 144 178 206 266 350 402
#     4  10  21  45  69  98 133 168 217 285 343 419
#     4  12  25  43  62  92 137 190 236 281 334 416
#     4  12  25  41  66  93 136 181 231 289 340 413
#
# _framework density 25.227837000000001
#
# number of rings (size 3 to 8) (size 9 to 14) (size 15 to 20)
#    0.000    0.800    4.667    3.200    3.733    1.067 
#    7.200    0.667    0.000    0.000    0.000    0.000 
#    0.000    0.000    0.000    0.000    0.000    0.000 
#
# Total GULP energy -334750.175214 kJ/mol
# GULP energy per Si atom -5579.169587 kJ/mol
# Density = 2.517042 g / cm^3
# Si number density = 25.227837 Si / 1000 Ang^3
#
#
#
# Elastic Constant Matrix: (Units=GPa)
#
#
# Indices 1 2 3 4 5 6 
#
# 1 195.5828 25.7888 4.5592 0.0000 0.0000 0.0000
# 2 25.7888 143.3971 3.9010 0.0000 0.0000 0.0000
# 3 4.5592 3.9010 38.3925 0.0000 0.0000 0.0000
# 4 0.0000 0.0000 0.0000 19.3039 0.0000 0.0000
# 5 0.0000 0.0000 0.0000 0.0000 25.1363 0.0000
# 6 0.0000 0.0000 0.0000 0.0000 0.0000 32.8144
#
#
#
# Elastic Compliance Matrix: (Units=1/GPa)
#
#
# Indices 1 2 3 4 5 6 
#
# 1 0.005248 -0.000929 -0.000529 0.000000 0.000000 0.000000
# 2 -0.000929 0.007158 -0.000617 0.000000 0.000000 0.000000
# 3 -0.000529 -0.000617 0.026172 0.000000 0.000000 0.000000
# 4 0.000000 0.000000 0.000000 0.051803 0.000000 0.000000
# 5 0.000000 0.000000 0.000000 0.000000 0.039783 0.000000
# 6 0.000000 0.000000 0.000000 0.000000 0.000000 0.030474
#
#
# Mechanical properties :
#
#
# Convention : Reuss Voigt Hill
#
# Bulk Modulus (GPa) = 29.04657 49.54116 39.29387
# Shear Modulus (GPa) = 28.36652 38.32581 33.34616
#
# Velocity S-wave (km/s) = 3.35687 3.90190 3.63960
# Velocity P-wave (km/s) = 5.15397 6.32297 5.76816
#
# Compressibility (1/GPa) = 0.03442747
#
# Stress axis : x y z
#
# Youngs Moduli (GPa) = 190.55623 139.71228 38.20848
#
# Poissons Ratio (x) = 0.12985 0.02020
# Poissons Ratio (y) = 0.17710 0.02357
# Poissons Ratio (z) = 0.10076 0.08619
#
# Static dielectric constant tensor:
#      x y z
#    x 2.047960 0.000000 0.000000 
#    y 0.000000 2.069230 0.000000 
#    z 0.000000 0.000000 2.133570 
# 
# From -- ./inp_files/42339.got.cif
#   From: 2010.05.17/outbox.cif.g08.bks.cpg/sg52_22_cif.got.tgz:42339.got - 2010.06.03 12:15:38.
