data_PCOD9410291
_publ_section_title
;
Structure prediction by ZEFSAII (Michael W. Deem and Ramdas Pophale) SiO2 
 PCOD9410291
Probable space group: P N N A
;
_chemical_formula_sum "Si O2"
_cell_formula_units_Z 36
_cell_length_a 12.611203
_cell_length_b 19.097134
_cell_length_c 7.308494
_cell_angle_alpha 90.000000
_cell_angle_beta 90.000000
_cell_angle_gamma 90.000000
_cell_volume 1760.161862
_symmetry_space_group_name_H-M "P N N A"
_symmetry_group_IT_number 52
_symmetry_cell_setting 'orthorhombic'
loop_
_space_group_symop_operation_xyz
x,y,z
1/2-x,-y,z
x,1/2-y,1/2-z
1/2-x,1/2+y,1/2-z
-x,-y,-z
1/2+x,y,-z
-x,1/2+y,1/2+z
1/2+x,1/2-y,1/2+z
loop_
_atom_site_type_symbol
_atom_site_label
_atom_site_fract_x
_atom_site_fract_y
_atom_site_fract_z
Si Si1 0.176427 0.750000 0.750000
Si Si2 0.836808 0.867710 0.124472
Si Si3 0.857026 0.433492 0.518136
Si Si4 0.022064 0.014508 0.711080
Si Si5 0.530632 0.787176 0.942927
O O1 0.253467 0.816417 0.777357
O O2 0.095171 0.760937 0.582427
O O3 0.911002 0.913585 0.258232
O O4 0.915372 0.818678 0.006147
O O5 0.767843 0.923769 0.010965
O O6 0.910384 0.457131 0.325593
O O7 0.895823 0.355404 0.567722
O O8 0.912174 0.478181 0.677245
O O9 0.000000 0.000000 0.500000
O O10 0.517025 0.750000 0.750000
#
# Coordination Sequence:
#
# PCOD9410291 Si02
#       5
#     4   8   8   8   8
#     4  10  22  42  60  88 128 170 214 270 330 390
#     4  10  20  40  63  89 132 170 210 273 332 390
#     4   9  21  40  60  90 133 167 211 277 335 382
#     4  10  21  41  67  96 129 170 226 276 324 407
#     4  10  21  40  61  88 127 167 220 267 316 398
#
# _framework density 20.452663999999999
#
# number of rings (size 3 to 8) (size 9 to 14) (size 15 to 20)
#    0.000    2.222    1.111    0.667    0.000    7.111 
#    8.000   26.667    0.000    0.000    0.000    0.000 
#    0.000    0.000    0.000    0.000    0.000    0.000 
#
# Total GULP energy -200593.190135 kJ/mol
# GULP energy per Si atom -5572.033059 kJ/mol
# Density = 2.040611 g / cm^3
# Si number density = 20.452664 Si / 1000 Ang^3
#
#
#
# Elastic Constant Matrix: (Units=GPa)
#
#
# Indices 1 2 3 4 5 6 
#
# 1 162.3729 45.2691 78.0847 0.0000 0.0000 0.0000
# 2 45.2691 74.5480 29.9164 0.0000 0.0000 0.0000
# 3 78.0847 29.9164 109.2519 0.0000 0.0000 0.0000
# 4 0.0000 0.0000 0.0000 21.9336 0.0000 0.0000
# 5 0.0000 0.0000 0.0000 0.0000 9.9864 0.0000
# 6 0.0000 0.0000 0.0000 0.0000 0.0000 48.9664
#
#
#
# Elastic Compliance Matrix: (Units=1/GPa)
#
#
# Indices 1 2 3 4 5 6 
#
# 1 0.010208 -0.003675 -0.006289 0.000000 0.000000 0.000000
# 2 -0.003675 0.016393 -0.001863 0.000000 0.000000 0.000000
# 3 -0.006289 -0.001863 0.014158 0.000000 0.000000 0.000000
# 4 0.000000 0.000000 0.000000 0.045592 0.000000 0.000000
# 5 0.000000 0.000000 0.000000 0.000000 0.100136 0.000000
# 6 0.000000 0.000000 0.000000 0.000000 0.000000 0.020422
#
#
# Mechanical properties :
#
#
# Convention : Reuss Voigt Hill
#
# Bulk Modulus (GPa) = 58.45950 72.52368 65.49159
# Shear Modulus (GPa) = 21.16272 29.03746 25.10009
#
# Velocity S-wave (km/s) = 3.22019 3.77203 3.50698
# Velocity P-wave (km/s) = 6.51698 7.38290 6.96341
#
# Compressibility (1/GPa) = 0.01710586
#
# Stress axis : x y z
#
# Youngs Moduli (GPa) = 97.96505 61.00148 70.62951
#
# Poissons Ratio (x) = 0.22416 0.44422
# Poissons Ratio (y) = 0.35999 0.13155
# Poissons Ratio (z) = 0.61615 0.11362
#
# Static dielectric constant tensor:
#      x y z
#    x 1.787260 0.000000 0.000000 
#    y 0.000000 1.805700 0.000000 
#    z 0.000000 0.000000 1.692500 
# 
# From -- ./inp_files/1231.got.cif
#   From: 2010.05.17/outbox.cif.g08.bks.cpg/sg52_1_cif.got.tgz:1231.got - 2010.06.03 12:15:38.
