data_PCOD9410115
_publ_section_title
;
Structure prediction by ZEFSAII (Michael W. Deem and Ramdas Pophale) SiO2 
 PCOD9410115
Probable space group: P N N A
;
_chemical_formula_sum "Si O2"
_cell_formula_units_Z 40
_cell_length_a 18.591082
_cell_length_b 8.226710
_cell_length_c 12.585994
_cell_angle_alpha 90.000000
_cell_angle_beta 90.000000
_cell_angle_gamma 90.000000
_cell_volume 1924.945221
_symmetry_space_group_name_H-M "P N N A"
_symmetry_group_IT_number 52
_symmetry_cell_setting 'orthorhombic'
loop_
_space_group_symop_operation_xyz
x,y,z
1/2-x,-y,z
x,1/2-y,1/2-z
1/2-x,1/2+y,1/2-z
-x,-y,-z
1/2+x,y,-z
-x,1/2+y,1/2+z
1/2+x,1/2-y,1/2+z
loop_
_atom_site_type_symbol
_atom_site_label
_atom_site_fract_x
_atom_site_fract_y
_atom_site_fract_z
Si Si1 0.451620 0.905497 0.824217
Si Si2 0.538272 0.422543 0.845314
Si Si3 0.668492 0.538275 0.474641
Si Si4 0.328727 0.446700 0.272542
Si Si5 0.952606 0.258549 0.989550
O O1 0.439700 0.750000 0.750000
O O2 0.475517 0.040523 0.739662
O O3 0.384418 0.934711 0.900321
O O4 0.518251 0.869236 0.903122
O O5 0.612520 0.438471 0.782990
O O6 0.511450 0.274735 0.917228
O O7 0.547076 0.573282 0.926628
O O8 0.750000 0.500000 0.440259
O O9 0.668857 0.515000 0.601849
O O10 0.626216 0.711936 0.467939
O O11 0.250000 0.500000 0.233037
O O12 0.340539 0.250000 0.250000
#
# Coordination Sequence:
#
# PCOD9410115 Si02
#       5
#     8   8   8   8   8
#     4  10  21  42  61  86 126 165 216 270 321 381
#     4  10  20  38  65  92 124 167 211 268 317 396
#     4  11  23  40  63  91 132 169 213 274 328 398
#     4  11  22  40  64  98 138 172 212 278 346 398
#     4  10  20  38  66  91 122 162 216 263 324 388
#
# _framework density 20.779812
#
# number of rings (size 3 to 8) (size 9 to 14) (size 15 to 20)
#    0.000    1.600    4.000    1.200    0.000    4.000 
#    3.600    0.000    0.000    0.000    0.000    0.000 
#    0.000    0.000    0.000    0.000    0.000    0.000 
#
# Total GULP energy -222907.674619 kJ/mol
# GULP energy per Si atom -5572.691865 kJ/mol
# Density = 2.073252 g / cm^3
# Si number density = 20.779812 Si / 1000 Ang^3
#
#
#
# Elastic Constant Matrix: (Units=GPa)
#
#
# Indices 1 2 3 4 5 6 
#
# 1 167.3005 16.3821 45.0810 0.0000 0.0000 0.0000
# 2 16.3821 57.5453 41.0599 0.0000 0.0000 0.0000
# 3 45.0810 41.0599 90.9414 0.0000 0.0000 0.0000
# 4 0.0000 0.0000 0.0000 40.9846 0.0000 0.0000
# 5 0.0000 0.0000 0.0000 0.0000 138.4662 0.0000
# 6 0.0000 0.0000 0.0000 0.0000 0.0000 24.9818
#
#
#
# Elastic Compliance Matrix: (Units=1/GPa)
#
#
# Indices 1 2 3 4 5 6 
#
# 1 0.006918 0.000704 -0.003747 0.000000 0.000000 0.000000
# 2 0.000704 0.025708 -0.011956 0.000000 0.000000 0.000000
# 3 -0.003747 -0.011956 0.018252 0.000000 0.000000 0.000000
# 4 0.000000 0.000000 0.000000 0.024399 0.000000 0.000000
# 5 0.000000 0.000000 0.000000 0.000000 0.007222 0.000000
# 6 0.000000 0.000000 0.000000 0.000000 0.000000 0.040029
#
#
# Mechanical properties :
#
#
# Convention : Reuss Voigt Hill
#
# Bulk Modulus (GPa) = 47.89380 57.87033 52.88207
# Shear Modulus (GPa) = 31.35038 55.10413 43.22726
#
# Velocity S-wave (km/s) = 3.88841 5.15516 4.56593
# Velocity P-wave (km/s) = 6.57707 7.95889 7.30075
#
# Compressibility (1/GPa) = 0.02087953
#
# Stress axis : x y z
#
# Youngs Moduli (GPa) = 144.54874 38.89798 54.78828
#
# Poissons Ratio (x) = -0.02740 0.20532
# Poissons Ratio (y) = -0.10183 0.65507
# Poissons Ratio (z) = 0.54169 0.46508
#
# Static dielectric constant tensor:
#      x y z
#    x 1.755340 0.000000 0.000000 
#    y 0.000000 1.798660 0.000000 
#    z 0.000000 0.000000 1.757550 
# 
# From -- ./inp_files/20271.got.cif
#   From: 2010.05.17/outbox.cif.g08.bks.cpg/sg52_11_cif.got.tgz:20271.got - 2010.06.03 12:15:38.
