data_PCOD9410260
_publ_section_title
;
Structure prediction by ZEFSAII (Michael W. Deem and Ramdas Pophale) SiO2 
 PCOD9410260
Probable space group: P N N A
;
_chemical_formula_sum "Si O2"
_cell_formula_units_Z 64
_cell_length_a 8.594598
_cell_length_b 29.521185
_cell_length_c 11.634928
_cell_angle_alpha 90.000000
_cell_angle_beta 90.000000
_cell_angle_gamma 90.000000
_cell_volume 2952.045551
_symmetry_space_group_name_H-M "P N N A"
_symmetry_group_IT_number 52
_symmetry_cell_setting 'orthorhombic'
loop_
_space_group_symop_operation_xyz
x,y,z
1/2-x,-y,z
x,1/2-y,1/2-z
1/2-x,1/2+y,1/2-z
-x,-y,-z
1/2+x,y,-z
-x,1/2+y,1/2+z
1/2+x,1/2-y,1/2+z
loop_
_atom_site_type_symbol
_atom_site_label
_atom_site_fract_x
_atom_site_fract_y
_atom_site_fract_z
Si Si1 0.171317 0.085099 0.115096
Si Si2 0.447896 0.250157 0.383607
Si Si3 0.854465 0.196503 0.242622
Si Si4 0.374781 0.659563 0.933053
Si Si5 0.695529 0.309895 0.832399
Si Si6 0.620727 0.968854 0.071205
Si Si7 0.422927 0.378854 0.246886
Si Si8 0.622786 0.161023 0.059338
O O1 0.284720 0.086890 0.224904
O O2 0.000453 0.064133 0.135877
O O3 0.272647 0.058370 0.019401
O O4 0.151424 0.134553 0.057618
O O5 0.499523 0.250000 0.250000
O O6 0.522338 0.205593 0.440885
O O7 0.264010 0.237838 0.380063
O O8 0.513975 0.294530 0.444050
O O9 0.824806 0.250000 0.250000
O O10 0.764979 0.171852 0.347276
O O11 0.777912 0.176608 0.127112
O O12 0.036534 0.191670 0.264952
O O13 0.475787 0.621295 0.868980
O O14 0.320341 0.654526 0.062558
O O15 0.834451 0.330453 0.757357
O O16 0.750000 0.000000 0.135306
O O17 0.500000 0.000000 0.000000
O O18 0.537642 0.375058 0.355581
#
# Coordination Sequence:
#
# PCOD9410260 Si02
#       8
#     8   8   8   8   8   8   8   8
#     4  11  21  38  60  95 121 159 185 234 302 349
#     4  11  18  39  50  68 109 155 205 260 307 337
#     4  11  20  35  49  74 100 145 208 250 295 348
#     4  10  20  40  52  68 107 156 200 258 303 334
#     4  11  23  34  56  73 101 157 211 258 297 347
#     4   9  20  39  64  89 128 161 182 213 282 394
#     4  10  22  38  55  77 118 149 191 257 286 347
#     4  11  21  36  53  77 122 150 188 254 303 338
#
# _framework density 21.679881999999999
#
# number of rings (size 3 to 8) (size 9 to 14) (size 15 to 20)
#    0.000    1.500    6.250    1.875    1.750    1.000 
#    4.500    0.000    0.000    0.000    0.000    0.000 
#    0.000   13.000    0.000    0.125    0.000    0.000 
#
# Total GULP energy -357267.459784 kJ/mol
# GULP energy per Si atom -5582.304059 kJ/mol
# Density = 2.163054 g / cm^3
# Si number density = 21.679882 Si / 1000 Ang^3
#
#
#
# Elastic Constant Matrix: (Units=GPa)
#
#
# Indices 1 2 3 4 5 6 
#
# 1 133.9719 16.5514 24.1188 0.0000 0.0000 0.0000
# 2 16.5514 38.2291 11.3438 0.0000 0.0000 0.0000
# 3 24.1188 11.3438 61.9507 0.0000 0.0000 0.0000
# 4 0.0000 0.0000 0.0000 5.0254 0.0000 0.0000
# 5 0.0000 0.0000 0.0000 0.0000 19.1295 0.0000
# 6 0.0000 0.0000 0.0000 0.0000 0.0000 39.2219
#
#
#
# Elastic Compliance Matrix: (Units=1/GPa)
#
#
# Indices 1 2 3 4 5 6 
#
# 1 0.008298 -0.002785 -0.002721 0.000000 0.000000 0.000000
# 2 -0.002785 0.028596 -0.004152 0.000000 0.000000 0.000000
# 3 -0.002721 -0.004152 0.017961 0.000000 0.000000 0.000000
# 4 0.000000 0.000000 0.000000 0.198990 0.000000 0.000000
# 5 0.000000 0.000000 0.000000 0.000000 0.052275 0.000000
# 6 0.000000 0.000000 0.000000 0.000000 0.000000 0.025496
#
#
# Mechanical properties :
#
#
# Convention : Reuss Voigt Hill
#
# Bulk Modulus (GPa) = 28.13746 37.57551 32.85649
# Shear Modulus (GPa) = 13.78250 24.81787 19.30019
#
# Velocity S-wave (km/s) = 2.52410 3.38707 2.98692
# Velocity P-wave (km/s) = 4.63698 5.71541 5.20421
#
# Compressibility (1/GPa) = 0.03553981
#
# Stress axis : x y z
#
# Youngs Moduli (GPa) = 120.50857 34.96994 55.67526
#
# Poissons Ratio (x) = 0.09741 0.15147
# Poissons Ratio (y) = 0.33567 0.23115
# Poissons Ratio (z) = 0.32786 0.14519
#
# Static dielectric constant tensor:
#      x y z
#    x 1.875310 0.000000 0.000000 
#    y 0.000000 1.863440 0.000000 
#    z 0.000000 0.000000 1.826410 
# 
# From -- ./inp_files/17244.got.cif
#   From: 2010.05.17/outbox.cif.g08.bks.cpg/sg52_9_cif.got.tgz:17244.got - 2010.06.03 12:15:38.
