data_PCOD9410957
_publ_section_title
;
Structure prediction by ZEFSAII (Michael W. Deem and Ramdas Pophale) SiO2 
 PCOD9410957
Probable space group: P N N A
;
_chemical_formula_sum "Si O2"
_cell_formula_units_Z 48
_cell_length_a 14.281323
_cell_length_b 9.125732
_cell_length_c 17.569515
_cell_angle_alpha 90.000000
_cell_angle_beta 90.000000
_cell_angle_gamma 90.000000
_cell_volume 2289.791428
_symmetry_space_group_name_H-M "P N N A"
_symmetry_group_IT_number 52
_symmetry_cell_setting 'orthorhombic'
loop_
_space_group_symop_operation_xyz
x,y,z
1/2-x,-y,z
x,1/2-y,1/2-z
1/2-x,1/2+y,1/2-z
-x,-y,-z
1/2+x,y,-z
-x,1/2+y,1/2+z
1/2+x,1/2-y,1/2+z
loop_
_atom_site_type_symbol
_atom_site_label
_atom_site_fract_x
_atom_site_fract_y
_atom_site_fract_z
Si Si1 0.844231 0.433068 0.004724
Si Si2 0.871986 0.861475 0.347362
Si Si3 0.559374 0.912421 0.216890
Si Si4 0.575957 0.688952 0.863071
Si Si5 0.788857 0.348187 0.404824
Si Si6 0.141341 0.541411 0.294261
O O1 0.750000 0.500000 0.969164
O O2 0.864956 0.535327 0.077539
O O3 0.822992 0.271415 0.035408
O O4 0.916650 0.412776 0.936724
O O5 0.785107 0.748260 0.352809
O O6 0.967811 0.770839 0.351015
O O7 0.892546 0.971600 0.276539
O O8 0.565252 0.750000 0.250000
O O9 0.624973 0.905372 0.144298
O O10 0.449794 0.937922 0.196999
O O11 0.615697 0.607367 0.788933
O O12 0.632225 0.839271 0.861459
O O13 0.750000 0.500000 0.438450
O O14 0.250000 0.500000 0.291784
#
# Coordination Sequence:
#
# PCOD9410957 Si02
#       6
#     8   8   8   8   8   8
#     4  10  21  39  62  90 123 169 212 251 309 377
#     4  10  22  41  63  92 126 168 207 250 309 381
#     4  11  23  38  64  94 126 166 211 255 320 381
#     4  10  21  41  63  86 119 164 210 260 311 369
#     4  11  24  38  62  96 133 165 204 257 311 381
#     4  10  23  41  62  89 122 158 212 268 316 370
#
# _framework density 20.962607999999999
#
# number of rings (size 3 to 8) (size 9 to 14) (size 15 to 20)
#    0.000    1.667    1.667    2.000    4.667    2.000 
#    0.000    5.000    0.000    0.000    0.000    0.000 
#    0.000    0.000    0.000    0.000    0.000    0.000 
#
# Total GULP energy -267474.339772 kJ/mol
# GULP energy per Si atom -5572.382079 kJ/mol
# Density = 2.091490 g / cm^3
# Si number density = 20.962608 Si / 1000 Ang^3
#
#
#
# Elastic Constant Matrix: (Units=GPa)
#
#
# Indices 1 2 3 4 5 6 
#
# 1 121.7127 15.7420 20.3137 0.0000 0.0000 0.0000
# 2 15.7420 72.3585 16.9389 0.0000 0.0000 0.0000
# 3 20.3137 16.9389 52.9530 0.0000 0.0000 0.0000
# 4 0.0000 0.0000 0.0000 16.4609 0.0000 0.0000
# 5 0.0000 0.0000 0.0000 0.0000 19.9901 0.0000
# 6 0.0000 0.0000 0.0000 0.0000 0.0000 11.2618
#
#
#
# Elastic Compliance Matrix: (Units=1/GPa)
#
#
# Indices 1 2 3 4 5 6 
#
# 1 0.008878 -0.001226 -0.003013 0.000000 0.000000 0.000000
# 2 -0.001226 0.015108 -0.004363 0.000000 0.000000 0.000000
# 3 -0.003013 -0.004363 0.021436 0.000000 0.000000 0.000000
# 4 0.000000 0.000000 0.000000 0.060750 0.000000 0.000000
# 5 0.000000 0.000000 0.000000 0.000000 0.050025 0.000000
# 6 0.000000 0.000000 0.000000 0.000000 0.000000 0.088796
#
#
# Mechanical properties :
#
#
# Convention : Reuss Voigt Hill
#
# Bulk Modulus (GPa) = 35.43841 39.22371 37.33106
# Shear Modulus (GPa) = 18.40926 22.47785 20.44356
#
# Velocity S-wave (km/s) = 2.96665 3.27813 3.12627
# Velocity P-wave (km/s) = 5.35508 5.75153 5.55684
#
# Compressibility (1/GPa) = 0.02821797
#
# Stress axis : x y z
#
# Youngs Moduli (GPa) = 112.64344 66.18990 46.65004
#
# Poissons Ratio (x) = 0.08114 0.14058
# Poissons Ratio (y) = 0.13809 0.20351
# Poissons Ratio (z) = 0.33944 0.28876
#
# Static dielectric constant tensor:
#      x y z
#    x 1.755540 0.000000 0.000000 
#    y 0.000000 1.812480 0.000000 
#    z 0.000000 0.000000 1.770960 
# 
# From -- ./inp_files/33072.got.cif
#   From: 2010.05.17/outbox.cif.g08.bks.cpg/sg52_17_cif.got.tgz:33072.got - 2010.06.03 12:15:38.
