data_PCOD9410562
_publ_section_title
;
Structure prediction by ZEFSAII (Michael W. Deem and Ramdas Pophale) SiO2 
 PCOD9410562
Probable space group: P N N A
;
_chemical_formula_sum "Si O2"
_cell_formula_units_Z 40
_cell_length_a 8.723783
_cell_length_b 8.567107
_cell_length_c 25.172156
_cell_angle_alpha 90.000000
_cell_angle_beta 90.000000
_cell_angle_gamma 90.000000
_cell_volume 1881.306083
_symmetry_space_group_name_H-M "P N N A"
_symmetry_group_IT_number 52
_symmetry_cell_setting 'orthorhombic'
loop_
_space_group_symop_operation_xyz
x,y,z
1/2-x,-y,z
x,1/2-y,1/2-z
1/2-x,1/2+y,1/2-z
-x,-y,-z
1/2+x,y,-z
-x,1/2+y,1/2+z
1/2+x,1/2-y,1/2+z
loop_
_atom_site_type_symbol
_atom_site_label
_atom_site_fract_x
_atom_site_fract_y
_atom_site_fract_z
Si Si1 0.623789 0.388995 0.715555
Si Si2 0.424096 0.940698 0.696167
Si Si3 0.646734 0.143827 0.140690
Si Si4 0.955380 0.294480 0.121895
Si Si5 0.570725 0.033974 0.942716
O O1 0.750000 0.500000 0.689847
O O2 0.697902 0.250000 0.750000
O O3 0.527660 0.492063 0.757010
O O4 0.517705 0.303388 0.672975
O O5 0.424389 0.756704 0.684934
O O6 0.250000 0.000000 0.705898
O O7 0.474834 0.029024 0.641424
O O8 0.776407 0.253707 0.113749
O O9 0.525281 0.071334 0.099761
O O10 0.750000 0.000000 0.161710
O O11 0.043416 0.214878 0.073628
O O12 0.750000 0.000000 0.941805
O O13 0.500000 0.000000 0.000000
#
# Coordination Sequence:
#
# PCOD9410562 Si02
#       5
#     8   8   8   8   8
#     4  10  21  35  53  82 117 153 192 233 281 338
#     4   9  19  36  58  83 116 152 188 236 284 339
#     4   9  19  36  58  83 109 144 187 232 284 336
#     4   9  19  37  56  81 114 149 191 232 281 340
#     4  11  22  38  59  83 111 146 188 235 286 345
#
# _framework density 21.261825000000002
#
# number of rings (size 3 to 8) (size 9 to 14) (size 15 to 20)
#    0.000    2.400    0.000    2.400    0.000    8.800 
#    0.000    8.000    0.000    2.400    0.000    0.000 
#    0.000    0.000    0.000    0.000    0.000    0.000 
#
# Total GULP energy -223299.771024 kJ/mol
# GULP energy per Si atom -5582.494276 kJ/mol
# Density = 2.121343 g / cm^3
# Si number density = 21.261825 Si / 1000 Ang^3
#
#
#
# Elastic Constant Matrix: (Units=GPa)
#
#
# Indices 1 2 3 4 5 6 
#
# 1 104.0344 35.3643 32.4535 0.0000 0.0000 0.0000
# 2 35.3643 124.7615 47.9346 0.0000 0.0000 0.0000
# 3 32.4535 47.9346 85.8947 0.0000 0.0000 0.0000
# 4 0.0000 0.0000 0.0000 25.6872 0.0000 0.0000
# 5 0.0000 0.0000 0.0000 0.0000 28.1397 0.0000
# 6 0.0000 0.0000 0.0000 0.0000 0.0000 32.3182
#
#
#
# Elastic Compliance Matrix: (Units=1/GPa)
#
#
# Indices 1 2 3 4 5 6 
#
# 1 0.011269 -0.001984 -0.003151 0.000000 0.000000 0.000000
# 2 -0.001984 0.010552 -0.005139 0.000000 0.000000 0.000000
# 3 -0.003151 -0.005139 0.015701 0.000000 0.000000 0.000000
# 4 0.000000 0.000000 0.000000 0.038930 0.000000 0.000000
# 5 0.000000 0.000000 0.000000 0.000000 0.035537 0.000000
# 6 0.000000 0.000000 0.000000 0.000000 0.000000 0.030942
#
#
# Mechanical properties :
#
#
# Convention : Reuss Voigt Hill
#
# Bulk Modulus (GPa) = 58.91182 60.68839 59.80011
# Shear Modulus (GPa) = 29.56178 30.49158 30.02668
#
# Velocity S-wave (km/s) = 3.73281 3.79106 3.76205
# Velocity P-wave (km/s) = 6.80782 6.91145 6.85983
#
# Compressibility (1/GPa) = 0.01697452
#
# Stress axis : x y z
#
# Youngs Moduli (GPa) = 88.73541 94.76737 63.69165
#
# Poissons Ratio (x) = 0.18800 0.20068
# Poissons Ratio (y) = 0.17603 0.32733
# Poissons Ratio (z) = 0.27959 0.48703
#
# Static dielectric constant tensor:
#      x y z
#    x 1.791560 0.000000 0.000000 
#    y 0.000000 1.871440 0.000000 
#    z 0.000000 0.000000 1.781890 
# 
# From -- ./inp_files/42097.got.cif
#   From: 2010.05.17/outbox.cif.g08.bks.cpg/sg52_22_cif.got.tgz:42097.got - 2010.06.03 12:15:38.
