data_PCOD9410910
_publ_section_title
;
Structure prediction by ZEFSAII (Michael W. Deem and Ramdas Pophale) SiO2 
 PCOD9410910
Probable space group: P N N A
;
_chemical_formula_sum "Si O2"
_cell_formula_units_Z 32
_cell_length_a 17.348322
_cell_length_b 10.356961
_cell_length_c 9.059413
_cell_angle_alpha 90.000000
_cell_angle_beta 90.000000
_cell_angle_gamma 90.000000
_cell_volume 1627.758133
_symmetry_space_group_name_H-M "P N N A"
_symmetry_group_IT_number 52
_symmetry_cell_setting 'orthorhombic'
loop_
_space_group_symop_operation_xyz
x,y,z
1/2-x,-y,z
x,1/2-y,1/2-z
1/2-x,1/2+y,1/2-z
-x,-y,-z
1/2+x,y,-z
-x,1/2+y,1/2+z
1/2+x,1/2-y,1/2+z
loop_
_atom_site_type_symbol
_atom_site_label
_atom_site_fract_x
_atom_site_fract_y
_atom_site_fract_z
Si Si1 0.250000 0.500000 0.848283
Si Si2 0.979104 0.459261 0.742730
Si Si3 0.900282 0.564170 0.004150
Si Si4 0.013338 0.701897 0.541999
Si Si5 0.655549 0.750000 0.250000
O O1 0.187540 0.428970 0.951410
O O2 0.293171 0.381553 0.762578
O O3 0.977372 0.343837 0.626326
O O4 0.056029 0.466807 0.842229
O O5 0.980621 0.584395 0.638884
O O6 0.914362 0.464959 0.869716
O O7 0.948112 0.688875 0.952636
O O8 0.095565 0.740235 0.612560
#
# Coordination Sequence:
#
# PCOD9410910 Si02
#       5
#     4   8   8   8   4
#     4  12  28  40  66  98 150 178 216 306 362 396
#     4  10  21  38  69  95 125 176 234 279 327 427
#     4  11  21  42  62  98 134 176 227 282 351 402
#     4  11  21  41  70  96 127 183 239 279 325 433
#     4  12  24  46  66 104 144 182 236 284 352 420
#
# _framework density 19.658940000000001
#
# number of rings (size 3 to 8) (size 9 to 14) (size 15 to 20)
#    0.000    1.000    5.000    2.250    3.500    0.000 
#    0.000    6.250    0.000    0.000    0.000    0.000 
#    0.000    0.000    0.000    0.000    0.000    0.000 
#
# Total GULP energy -178417.881341 kJ/mol
# GULP energy per Si atom -5575.558792 kJ/mol
# Density = 1.961420 g / cm^3
# Si number density = 19.658940 Si / 1000 Ang^3
#
#
#
# Elastic Constant Matrix: (Units=GPa)
#
#
# Indices 1 2 3 4 5 6 
#
# 1 117.7060 40.8906 40.0139 0.0000 0.0000 0.0000
# 2 40.8906 95.8425 45.1328 0.0000 0.0000 0.0000
# 3 40.0139 45.1328 160.5253 0.0000 0.0000 0.0000
# 4 0.0000 0.0000 0.0000 46.9015 0.0000 0.0000
# 5 0.0000 0.0000 0.0000 0.0000 17.6371 0.0000
# 6 0.0000 0.0000 0.0000 0.0000 0.0000 24.5108
#
#
#
# Elastic Compliance Matrix: (Units=1/GPa)
#
#
# Indices 1 2 3 4 5 6 
#
# 1 0.010292 -0.003669 -0.001534 0.000000 0.000000 0.000000
# 2 -0.003669 0.013334 -0.002834 0.000000 0.000000 0.000000
# 3 -0.001534 -0.002834 0.007409 0.000000 0.000000 0.000000
# 4 0.000000 0.000000 0.000000 0.021321 0.000000 0.000000
# 5 0.000000 0.000000 0.000000 0.000000 0.056699 0.000000
# 6 0.000000 0.000000 0.000000 0.000000 0.000000 0.040798
#
#
# Mechanical properties :
#
#
# Convention : Reuss Voigt Hill
#
# Bulk Modulus (GPa) = 66.84321 69.57204 68.20762
# Shear Modulus (GPa) = 29.25464 34.34565 31.80015
#
# Velocity S-wave (km/s) = 3.86179 4.18434 4.02629
# Velocity P-wave (km/s) = 7.34573 7.66885 7.50903
#
# Compressibility (1/GPa) = 0.01496038
#
# Stress axis : x y z
#
# Youngs Moduli (GPa) = 97.16631 74.99815 134.97412
#
# Poissons Ratio (x) = 0.27513 0.20704
# Poissons Ratio (y) = 0.35646 0.38257
# Poissons Ratio (z) = 0.14905 0.21258
#
# Static dielectric constant tensor:
#      x y z
#    x 1.667730 0.000000 0.000000 
#    y 0.000000 1.822140 0.000000 
#    z 0.000000 0.000000 1.709550 
# 
# From -- ./inp_files/9621.got.cif
#   From: 2010.05.17/outbox.cif.g08.bks.cpg/sg52_5_cif.got.tgz:9621.got - 2010.06.03 12:15:38.
