data_PCOD9410701
_publ_section_title
;
Structure prediction by ZEFSAII (Michael W. Deem and Ramdas Pophale) SiO2 
 PCOD9410701
Probable space group: P N N A
;
_chemical_formula_sum "Si O2"
_cell_formula_units_Z 32
_cell_length_a 9.341032
_cell_length_b 26.757507
_cell_length_c 5.293026
_cell_angle_alpha 90.000000
_cell_angle_beta 90.000000
_cell_angle_gamma 90.000000
_cell_volume 1322.953364
_symmetry_space_group_name_H-M "P N N A"
_symmetry_group_IT_number 52
_symmetry_cell_setting 'orthorhombic'
loop_
_space_group_symop_operation_xyz
x,y,z
1/2-x,-y,z
x,1/2-y,1/2-z
1/2-x,1/2+y,1/2-z
-x,-y,-z
1/2+x,y,-z
-x,1/2+y,1/2+z
1/2+x,1/2-y,1/2+z
loop_
_atom_site_type_symbol
_atom_site_label
_atom_site_fract_x
_atom_site_fract_y
_atom_site_fract_z
Si Si1 0.553620 0.190182 0.269444
Si Si2 0.387813 0.536012 0.140268
Si Si3 0.115373 0.653782 0.726998
Si Si4 0.214488 0.059294 0.838057
O O1 0.543272 0.250000 0.250000
O O2 0.474514 0.170209 0.524969
O O3 0.722975 0.176406 0.249392
O O4 0.468144 0.170584 0.023657
O O5 0.250000 0.500000 0.168952
O O6 0.379663 0.562037 0.411650
O O7 0.500000 0.500000 0.000000
O O8 0.366463 0.574788 0.916175
O O9 0.149271 0.594629 0.682765
O O10 0.250000 0.000000 0.821063
#
# Coordination Sequence:
#
# PCOD9410701 Si02
#       4
#     8   8   8   8
#     4  12  26  49  74 104 141 185 243 312 373 438
#     4  10  21  37  59  86 125 178 224 268 327 392
#     4  12  27  46  76 110 144 192 244 299 378 451
#     4  10  23  42  65  98 141 183 229 285 346 431
#
# _framework density 24.188307999999999
#
# number of rings (size 3 to 8) (size 9 to 14) (size 15 to 20)
#    0.000    1.000    0.000    6.000    0.000   12.000 
#    0.000    0.000    0.000    0.000    0.000    0.000 
#    0.000    0.000    0.000    0.000    0.000    0.000 
#
# Total GULP energy -178453.546555 kJ/mol
# GULP energy per Si atom -5576.673330 kJ/mol
# Density = 2.413325 g / cm^3
# Si number density = 24.188308 Si / 1000 Ang^3
#
#
#
# Elastic Constant Matrix: (Units=GPa)
#
#
# Indices 1 2 3 4 5 6 
#
# 1 185.1045 30.6569 92.9016 0.0000 0.0000 0.0000
# 2 30.6569 211.2528 1.6392 0.0000 0.0000 0.0000
# 3 92.9016 1.6392 306.9075 0.0000 0.0000 0.0000
# 4 0.0000 0.0000 0.0000 132.3011 0.0000 0.0000
# 5 0.0000 0.0000 0.0000 0.0000 104.9729 0.0000
# 6 0.0000 0.0000 0.0000 0.0000 0.0000 140.2681
#
#
#
# Elastic Compliance Matrix: (Units=1/GPa)
#
#
# Indices 1 2 3 4 5 6 
#
# 1 0.006550 -0.000935 -0.001978 0.000000 0.000000 0.000000
# 2 -0.000935 0.004867 0.000257 0.000000 0.000000 0.000000
# 3 -0.001978 0.000257 0.003856 0.000000 0.000000 0.000000
# 4 0.000000 0.000000 0.000000 0.007559 0.000000 0.000000
# 5 0.000000 0.000000 0.000000 0.000000 0.009526 0.000000
# 6 0.000000 0.000000 0.000000 0.000000 0.000000 0.007129
#
#
# Mechanical properties :
#
#
# Convention : Reuss Voigt Hill
#
# Bulk Modulus (GPa) = 100.38849 105.96223 103.17536
# Shear Modulus (GPa) = 103.90991 114.04621 108.97806
#
# Velocity S-wave (km/s) = 6.56140 6.87399 6.71951
# Velocity P-wave (km/s) = 9.94966 10.33947 10.14643
#
# Compressibility (1/GPa) = 0.00996130
#
# Stress axis : x y z
#
# Youngs Moduli (GPa) = 152.67677 205.44930 259.36479
#
# Poissons Ratio (x) = 0.19213 0.51293
# Poissons Ratio (y) = 0.14278 -0.06668
# Poissons Ratio (z) = 0.30194 -0.05282
#
# Static dielectric constant tensor:
#      x y z
#    x 2.026380 0.000000 0.000000 
#    y 0.000000 2.002370 0.000000 
#    z 0.000000 0.000000 1.979310 
# 
# From -- ./inp_files/411.got.cif
#   From: 2010.05.17/outbox.cif.g08.bks.cpg/sg52_1_cif.got.tgz:411.got - 2010.06.03 12:15:38.
