data_PCOD9410738
_publ_section_title
;
Structure prediction by ZEFSAII (Michael W. Deem and Ramdas Pophale) SiO2 
 PCOD9410738
Probable space group: P N N A
;
_chemical_formula_sum "Si O2"
_cell_formula_units_Z 36
_cell_length_a 4.912763
_cell_length_b 11.614784
_cell_length_c 29.351476
_cell_angle_alpha 90.000000
_cell_angle_beta 90.000000
_cell_angle_gamma 90.000000
_cell_volume 1674.815212
_symmetry_space_group_name_H-M "P N N A"
_symmetry_group_IT_number 52
_symmetry_cell_setting 'orthorhombic'
loop_
_space_group_symop_operation_xyz
x,y,z
1/2-x,-y,z
x,1/2-y,1/2-z
1/2-x,1/2+y,1/2-z
-x,-y,-z
1/2+x,y,-z
-x,1/2+y,1/2+z
1/2+x,1/2-y,1/2+z
loop_
_atom_site_type_symbol
_atom_site_label
_atom_site_fract_x
_atom_site_fract_y
_atom_site_fract_z
Si Si1 0.891814 0.733025 0.883188
Si Si2 0.799594 0.750000 0.250000
Si Si3 0.405183 0.621027 0.840068
Si Si4 0.506417 0.075094 0.812976
Si Si5 0.711613 0.632042 0.530464
O O1 0.692467 0.632871 0.865255
O O2 0.810378 0.775134 0.933057
O O3 0.197535 0.693203 0.872205
O O4 0.861670 0.846400 0.851851
O O5 0.947197 0.684975 0.208551
O O6 0.614319 0.844153 0.225651
O O7 0.250000 0.500000 0.832974
O O8 0.250000 0.000000 0.830189
O O9 0.750000 0.000000 0.793525
O O10 0.750000 0.500000 0.547272
O O11 0.401941 0.643858 0.514225
#
# Coordination Sequence:
#
# PCOD9410738 Si02
#       5
#     8   4   8   8   8
#     4  11  23  40  62  88 119 158 197 241 303 360
#     4  10  24  38  58  86 116 158 202 246 296 340
#     4  11  24  41  62  86 120 161 205 250 293 350
#     4  11  23  37  57  84 119 157 197 244 293 356
#     4  10  21  37  62  93 122 151 188 241 303 363
#
# _framework density 21.494910999999998
#
# number of rings (size 3 to 8) (size 9 to 14) (size 15 to 20)
#    0.000    1.333    0.000    6.000    0.000   14.222 
#    0.000    0.000    0.000   13.333    0.000    0.000 
#    0.000    0.000    0.000    0.000    0.000    0.000 
#
# Total GULP energy -201201.975667 kJ/mol
# GULP energy per Si atom -5588.943769 kJ/mol
# Density = 2.144599 g / cm^3
# Si number density = 21.494911 Si / 1000 Ang^3
#
#
#
# Elastic Constant Matrix: (Units=GPa)
#
#
# Indices 1 2 3 4 5 6 
#
# 1 74.7232 5.7763 1.5347 0.0000 0.0000 0.0000
# 2 5.7763 85.9055 26.9978 0.0000 0.0000 0.0000
# 3 1.5347 26.9978 58.6439 0.0000 0.0000 0.0000
# 4 0.0000 0.0000 0.0000 16.2325 0.0000 0.0000
# 5 0.0000 0.0000 0.0000 0.0000 11.5339 0.0000
# 6 0.0000 0.0000 0.0000 0.0000 0.0000 31.5102
#
#
#
# Elastic Compliance Matrix: (Units=1/GPa)
#
#
# Indices 1 2 3 4 5 6 
#
# 1 0.013453 -0.000928 0.000075 0.000000 0.000000 0.000000
# 2 -0.000928 0.013674 -0.006271 0.000000 0.000000 0.000000
# 3 0.000075 -0.006271 0.019937 0.000000 0.000000 0.000000
# 4 0.000000 0.000000 0.000000 0.061605 0.000000 0.000000
# 5 0.000000 0.000000 0.000000 0.000000 0.086701 0.000000
# 6 0.000000 0.000000 0.000000 0.000000 0.000000 0.031736
#
#
# Mechanical properties :
#
#
# Convention : Reuss Voigt Hill
#
# Bulk Modulus (GPa) = 30.47261 31.98780 31.23021
# Shear Modulus (GPa) = 19.81838 24.18625 22.00231
#
# Velocity S-wave (km/s) = 3.03974 3.35805 3.20285
# Velocity P-wave (km/s) = 5.15049 5.47259 5.31398
#
# Compressibility (1/GPa) = 0.03281635
#
# Stress axis : x y z
#
# Youngs Moduli (GPa) = 74.33324 73.13242 50.15818
#
# Poissons Ratio (x) = 0.06788 -0.00378
# Poissons Ratio (y) = 0.06900 0.31453
# Poissons Ratio (z) = -0.00560 0.45859
#
# Static dielectric constant tensor:
#      x y z
#    x 1.754820 0.000000 0.000000 
#    y 0.000000 1.856280 0.000000 
#    z 0.000000 0.000000 1.758240 
# 
# From -- ./inp_files/43641.got.cif
#   From: 2010.05.17/outbox.cif.g08.bks.cpg/sg52_22_cif.got.tgz:43641.got - 2010.06.03 12:15:38.
