data_PCOD9410110
_publ_section_title
;
Structure prediction by ZEFSAII (Michael W. Deem and Ramdas Pophale) SiO2 
 PCOD9410110
Probable space group: P N N A
;
_chemical_formula_sum "Si O2"
_cell_formula_units_Z 32
_cell_length_a 7.704466
_cell_length_b 12.859886
_cell_length_c 12.064814
_cell_angle_alpha 90.000000
_cell_angle_beta 90.000000
_cell_angle_gamma 90.000000
_cell_volume 1195.364331
_symmetry_space_group_name_H-M "P N N A"
_symmetry_group_IT_number 52
_symmetry_cell_setting 'orthorhombic'
loop_
_space_group_symop_operation_xyz
x,y,z
1/2-x,-y,z
x,1/2-y,1/2-z
1/2-x,1/2+y,1/2-z
-x,-y,-z
1/2+x,y,-z
-x,1/2+y,1/2+z
1/2+x,1/2-y,1/2+z
loop_
_atom_site_type_symbol
_atom_site_label
_atom_site_fract_x
_atom_site_fract_y
_atom_site_fract_z
Si Si1 0.009839 0.375953 0.493903
Si Si2 0.660523 0.387185 0.917402
Si Si3 0.795701 0.124176 0.810179
Si Si4 0.796617 0.213470 0.372957
O O1 0.974774 0.353828 0.625006
O O2 0.847536 0.320215 0.435011
O O3 0.000000 0.500000 0.500000
O O4 0.146293 0.346857 0.397770
O O5 0.750000 0.500000 0.932386
O O6 0.775215 0.338855 0.816327
O O7 0.463179 0.366615 0.875471
O O8 0.663436 0.338328 0.040632
O O9 0.750000 0.000000 0.798154
O O10 0.758938 0.250000 0.250000
#
# Coordination Sequence:
#
# PCOD9410110 Si02
#       4
#     8   8   8   8
#     4  10  20  38  65 100 135 175 222 284 345 402
#     4  11  25  49  70 100 142 189 232 290 350 419
#     4   9  19  39  67  93 134 179 222 274 341 404
#     4  12  25  45  71 102 138 182 237 289 349 422
#
# _framework density 26.770081999999999
#
# number of rings (size 3 to 8) (size 9 to 14) (size 15 to 20)
#    0.000    1.500    2.500    2.250    0.000    0.000 
#    9.000    1.250    0.000    0.000    0.000    0.000 
#    0.000    0.000    0.000    0.000    0.000    0.000 
#
# Total GULP energy -178260.983161 kJ/mol
# GULP energy per Si atom -5570.655724 kJ/mol
# Density = 2.670915 g / cm^3
# Si number density = 26.770082 Si / 1000 Ang^3
#
#
#
# Elastic Constant Matrix: (Units=GPa)
#
#
# Indices 1 2 3 4 5 6 
#
# 1 64.6516 11.3119 69.8558 0.0000 0.0000 0.0000
# 2 11.3119 96.5946 75.6093 0.0000 0.0000 0.0000
# 3 69.8558 75.6093 248.3729 0.0000 0.0000 0.0000
# 4 0.0000 0.0000 0.0000 49.0544 0.0000 0.0000
# 5 0.0000 0.0000 0.0000 0.0000 40.1476 0.0000
# 6 0.0000 0.0000 0.0000 0.0000 0.0000 6.8896
#
#
#
# Elastic Compliance Matrix: (Units=1/GPa)
#
#
# Indices 1 2 3 4 5 6 
#
# 1 0.022905 0.003099 -0.007386 0.000000 0.000000 0.000000
# 2 0.003099 0.014010 -0.005136 0.000000 0.000000 0.000000
# 3 -0.007386 -0.005136 0.007667 0.000000 0.000000 0.000000
# 4 0.000000 0.000000 0.000000 0.020386 0.000000 0.000000
# 5 0.000000 0.000000 0.000000 0.000000 0.024908 0.000000
# 6 0.000000 0.000000 0.000000 0.000000 0.000000 0.145146
#
#
# Mechanical properties :
#
#
# Convention : Reuss Voigt Hill
#
# Bulk Modulus (GPa) = 38.85616 80.35257 59.60437
# Shear Modulus (GPa) = 19.05139 36.07444 27.56292
#
# Velocity S-wave (km/s) = 2.67060 3.67490 3.21224
# Velocity P-wave (km/s) = 4.90467 6.93452 6.00597
#
# Compressibility (1/GPa) = 0.02573594
#
# Stress axis : x y z
#
# Youngs Moduli (GPa) = 43.65784 71.37631 130.42833
#
# Poissons Ratio (x) = -0.22117 0.96328
# Poissons Ratio (y) = -0.13528 0.66994
# Poissons Ratio (z) = 0.32244 0.36662
#
# Static dielectric constant tensor:
#      x y z
#    x 1241.287330 0.000000 0.000000 
#    y 0.000000 2.354730 0.000000 
#    z 0.000000 0.000000 2.038290 
# 
# From -- ./inp_files/8215.got.cif
#   From: 2010.05.17/outbox.cif.g08.bks.cpg/sg52_5_cif.got.tgz:8215.got - 2010.06.03 12:15:38.
