data_PCOD9410733
_publ_section_title
;
Structure prediction by ZEFSAII (Michael W. Deem and Ramdas Pophale) SiO2 
 PCOD9410733
Probable space group: P N N A
;
_chemical_formula_sum "Si O2"
_cell_formula_units_Z 52
_cell_length_a 13.694103
_cell_length_b 19.850590
_cell_length_c 9.425112
_cell_angle_alpha 90.000000
_cell_angle_beta 90.000000
_cell_angle_gamma 90.000000
_cell_volume 2562.084973
_symmetry_space_group_name_H-M "P N N A"
_symmetry_group_IT_number 52
_symmetry_cell_setting 'orthorhombic'
loop_
_space_group_symop_operation_xyz
x,y,z
1/2-x,-y,z
x,1/2-y,1/2-z
1/2-x,1/2+y,1/2-z
-x,-y,-z
1/2+x,y,-z
-x,1/2+y,1/2+z
1/2+x,1/2-y,1/2+z
loop_
_atom_site_type_symbol
_atom_site_label
_atom_site_fract_x
_atom_site_fract_y
_atom_site_fract_z
Si Si1 0.054395 0.191546 0.452296
Si Si2 0.361540 0.388940 0.963065
Si Si3 0.363711 0.328737 0.280393
Si Si4 0.810193 0.673266 0.219401
Si Si5 0.835123 0.620355 0.717534
Si Si6 0.454148 0.846786 0.970073
Si Si7 0.750000 0.500000 0.904898
O O1 0.104368 0.173074 0.601281
O O2 0.131677 0.176278 0.330693
O O3 0.030767 0.270508 0.468473
O O4 0.965430 0.141123 0.418207
O O5 0.354312 0.358248 0.122143
O O6 0.332825 0.465969 0.996005
O O7 0.280557 0.364155 0.851493
O O8 0.381326 0.250000 0.250000
O O9 0.261197 0.347072 0.353629
O O10 0.450044 0.359197 0.375762
O O11 0.779739 0.750000 0.250000
O O12 0.863014 0.649298 0.361767
O O13 0.921081 0.609449 0.604382
O O14 0.803371 0.554262 0.804156
#
# Coordination Sequence:
#
# PCOD9410733 Si02
#       7
#     8   8   8   8   8   8   4
#     4  11  20  39  64  96 124 165 217 268 335 396
#     4  11  22  40  66  94 129 174 222 262 315 398
#     4  11  19  37  62  90 129 170 202 271 351 386
#     4  10  21  37  61  96 129 158 210 275 333 390
#     4  11  25  40  64  91 134 176 224 268 313 397
#     4  11  22  37  63 101 129 156 211 281 354 379
#     4  10  24  46  62  90 132 190 228 244 318 402
#
# _framework density 20.295970000000001
#
# number of rings (size 3 to 8) (size 9 to 14) (size 15 to 20)
#    0.000    1.231    6.154    1.846    2.154    3.077 
#    0.000    3.846    0.000    0.000    0.000    0.000 
#    0.000    0.000    0.000    0.000    0.000    0.000 
#
# Total GULP energy -289892.424826 kJ/mol
# GULP energy per Si atom -5574.854324 kJ/mol
# Density = 2.024978 g / cm^3
# Si number density = 20.295970 Si / 1000 Ang^3
#
#
#
# Elastic Constant Matrix: (Units=GPa)
#
#
# Indices 1 2 3 4 5 6 
#
# 1 102.4767 30.8862 46.4127 0.0000 0.0000 0.0000
# 2 30.8862 49.9238 30.2485 0.0000 0.0000 0.0000
# 3 46.4127 30.2485 68.5708 0.0000 0.0000 0.0000
# 4 0.0000 0.0000 0.0000 19.9963 0.0000 0.0000
# 5 0.0000 0.0000 0.0000 0.0000 40.8477 0.0000
# 6 0.0000 0.0000 0.0000 0.0000 0.0000 8.7103
#
#
#
# Elastic Compliance Matrix: (Units=1/GPa)
#
#
# Indices 1 2 3 4 5 6 
#
# 1 0.014685 -0.004180 -0.008096 0.000000 0.000000 0.000000
# 2 -0.004180 0.028527 -0.009755 0.000000 0.000000 0.000000
# 3 -0.008096 -0.009755 0.024366 0.000000 0.000000 0.000000
# 4 0.000000 0.000000 0.000000 0.050009 0.000000 0.000000
# 5 0.000000 0.000000 0.000000 0.000000 0.024481 0.000000
# 6 0.000000 0.000000 0.000000 0.000000 0.000000 0.114806
#
#
# Mechanical properties :
#
#
# Convention : Reuss Voigt Hill
#
# Bulk Modulus (GPa) = 42.52218 48.45180 45.48699
# Shear Modulus (GPa) = 16.19308 21.47246 18.83277
#
# Velocity S-wave (km/s) = 2.82768 3.25617 3.04946
# Velocity P-wave (km/s) = 5.62651 6.16938 5.90419
#
# Compressibility (1/GPa) = 0.02351714
#
# Stress axis : x y z
#
# Youngs Moduli (GPa) = 68.09813 35.05473 41.04051
#
# Poissons Ratio (x) = 0.14652 0.33225
# Poissons Ratio (y) = 0.28464 0.40034
# Poissons Ratio (z) = 0.55130 0.34195
#
# Static dielectric constant tensor:
#      x y z
#    x 1.821110 0.000000 0.000000 
#    y 0.000000 1.744890 0.000000 
#    z 0.000000 0.000000 1.726640 
# 
# From -- ./inp_files/10720.got.cif
#   From: 2010.05.17/outbox.cif.g08.bks.cpg/sg52_6_cif.got.tgz:10720.got - 2010.06.03 12:15:38.
