data_PCOD9410702
_publ_section_title
;
Structure prediction by ZEFSAII (Michael W. Deem and Ramdas Pophale) SiO2 
 PCOD9410702
Probable space group: P N N A
;
_chemical_formula_sum "Si O2"
_cell_formula_units_Z 48
_cell_length_a 19.332250
_cell_length_b 11.579294
_cell_length_c 11.456999
_cell_angle_alpha 90.000000
_cell_angle_beta 90.000000
_cell_angle_gamma 90.000000
_cell_volume 2564.692836
_symmetry_space_group_name_H-M "P N N A"
_symmetry_group_IT_number 52
_symmetry_cell_setting 'orthorhombic'
loop_
_space_group_symop_operation_xyz
x,y,z
1/2-x,-y,z
x,1/2-y,1/2-z
1/2-x,1/2+y,1/2-z
-x,-y,-z
1/2+x,y,-z
-x,1/2+y,1/2+z
1/2+x,1/2-y,1/2+z
loop_
_atom_site_type_symbol
_atom_site_label
_atom_site_fract_x
_atom_site_fract_y
_atom_site_fract_z
Si Si1 0.189818 0.229363 0.110867
Si Si2 0.576702 0.408493 0.903690
Si Si3 0.703832 0.616644 0.275677
Si Si4 0.167389 0.797710 0.024265
Si Si5 0.327468 0.493777 0.296425
Si Si6 0.919664 0.108198 0.410221
O O1 0.197511 0.250000 0.250000
O O2 0.123233 0.297546 0.070752
O O3 0.259506 0.266763 0.046736
O O4 0.177984 0.092604 0.104102
O O5 0.615278 0.473016 0.797259
O O6 0.498651 0.375001 0.871191
O O7 0.579289 0.491044 0.015331
O O8 0.750000 0.500000 0.258208
O O9 0.732324 0.750000 0.250000
O O10 0.680003 0.624418 0.410090
O O11 0.636637 0.606312 0.192488
O O12 0.158062 0.874303 0.139497
O O13 0.106509 0.709868 0.995670
O O14 0.250000 0.500000 0.241925
#
# Coordination Sequence:
#
# PCOD9410702 Si02
#       6
#     8   8   8   8   8   8
#     4   9  19  33  60  92 111 142 190 252 297 343
#     4  10  22  39  57  87 117 151 198 241 291 352
#     4  10  22  39  60  88 121 163 204 243 288 358
#     4  10  21  37  59  87 118 151 194 245 296 346
#     4   9  19  35  61  90 112 141 187 255 303 336
#     4  10  24  38  57  83 120 161 195 233 288 355
#
# _framework density 18.715691
#
# number of rings (size 3 to 8) (size 9 to 14) (size 15 to 20)
#    0.000    2.333    0.000    1.500   11.667    6.000 
#    0.000    5.000    0.000    0.000    0.000    0.000 
#    0.000    0.000    0.000    0.000    0.000    0.000 
#
# Total GULP energy -267505.380965 kJ/mol
# GULP energy per Si atom -5573.028770 kJ/mol
# Density = 1.867309 g / cm^3
# Si number density = 18.715691 Si / 1000 Ang^3
#
#
#
# Elastic Constant Matrix: (Units=GPa)
#
#
# Indices 1 2 3 4 5 6 
#
# 1 156.3555 57.0059 31.7822 0.0000 0.0000 0.0000
# 2 57.0059 78.8117 2.3522 0.0000 0.0000 0.0000
# 3 31.7822 2.3522 35.2824 0.0000 0.0000 0.0000
# 4 0.0000 0.0000 0.0000 18.2847 0.0000 0.0000
# 5 0.0000 0.0000 0.0000 0.0000 10.5549 0.0000
# 6 0.0000 0.0000 0.0000 0.0000 0.0000 17.8471
#
#
#
# Elastic Compliance Matrix: (Units=1/GPa)
#
#
# Indices 1 2 3 4 5 6 
#
# 1 0.011183 -0.007803 -0.009553 0.000000 0.000000 0.000000
# 2 -0.007803 0.018159 0.005819 0.000000 0.000000 0.000000
# 3 -0.009553 0.005819 0.036560 0.000000 0.000000 0.000000
# 4 0.000000 0.000000 0.000000 0.054690 0.000000 0.000000
# 5 0.000000 0.000000 0.000000 0.000000 0.094743 0.000000
# 6 0.000000 0.000000 0.000000 0.000000 0.000000 0.056031
#
#
# Mechanical properties :
#
#
# Convention : Reuss Voigt Hill
#
# Bulk Modulus (GPa) = 23.35014 50.30336 36.82675
# Shear Modulus (GPa) = 16.19604 21.29130 18.74367
#
# Velocity S-wave (km/s) = 2.94491 3.37652 3.16807
# Velocity P-wave (km/s) = 4.90578 6.49131 5.75343
#
# Compressibility (1/GPa) = 0.04282630
#
# Stress axis : x y z
#
# Youngs Moduli (GPa) = 89.42497 55.06860 27.35228
#
# Poissons Ratio (x) = 0.42972 0.26129
# Poissons Ratio (y) = 0.69782 -0.15915
# Poissons Ratio (z) = 0.85427 -0.32042
#
# Static dielectric constant tensor:
#      x y z
#    x 1.643890 0.000000 0.000000 
#    y 0.000000 1.720620 0.000000 
#    z 0.000000 0.000000 1.644960 
# 
# From -- ./inp_files/21621.got.cif
#   From: 2010.05.17/outbox.cif.g08.bks.cpg/sg52_11_cif.got.tgz:21621.got - 2010.06.03 12:15:38.
