data_PCOD9410524
_publ_section_title
;
Structure prediction by ZEFSAII (Michael W. Deem and Ramdas Pophale) SiO2 
 PCOD9410524
Probable space group: P N N A
;
_chemical_formula_sum "Si O2"
_cell_formula_units_Z 48
_cell_length_a 8.112127
_cell_length_b 20.894940
_cell_length_c 15.481772
_cell_angle_alpha 90.000000
_cell_angle_beta 90.000000
_cell_angle_gamma 90.000000
_cell_volume 2624.197618
_symmetry_space_group_name_H-M "P N N A"
_symmetry_group_IT_number 52
_symmetry_cell_setting 'orthorhombic'
loop_
_space_group_symop_operation_xyz
x,y,z
1/2-x,-y,z
x,1/2-y,1/2-z
1/2-x,1/2+y,1/2-z
-x,-y,-z
1/2+x,y,-z
-x,1/2+y,1/2+z
1/2+x,1/2-y,1/2+z
loop_
_atom_site_type_symbol
_atom_site_label
_atom_site_fract_x
_atom_site_fract_y
_atom_site_fract_z
Si Si1 0.787831 0.925694 0.062265
Si Si2 0.552950 0.709098 0.122205
Si Si3 0.443060 0.175990 0.268503
Si Si4 0.133279 0.863420 0.096928
Si Si5 0.176390 0.783663 0.438118
Si Si6 0.177244 0.660210 0.710251
O O1 0.675361 0.895208 0.138532
O O2 0.973646 0.907698 0.086266
O O3 0.750000 0.000000 0.054475
O O4 0.761033 0.890674 0.970955
O O5 0.365484 0.718810 0.092313
O O6 0.572066 0.659489 0.201495
O O7 0.624257 0.775488 0.160080
O O8 0.655452 0.693972 0.036071
O O9 0.401485 0.250000 0.250000
O O10 0.332005 0.138066 0.199348
O O11 0.413425 0.169912 0.369782
O O12 0.632888 0.166110 0.242099
O O13 0.103243 0.788878 0.069891
#
# Coordination Sequence:
#
# PCOD9410524 Si02
#       6
#     8   8   8   8   8   8
#     4  11  22  37  54  76 109 155 192 225 264 310
#     4  11  21  31  52  79 109 139 173 220 283 336
#     4   9  18  32  50  70 106 137 175 216 272 319
#     4  10  21  33  51  76 106 143 182 223 259 325
#     4  11  21  33  54  81 109 147 170 219 285 337
#     4  10  21  34  50  77 108 144 182 228 265 331
#
# _framework density 18.291305999999999
#
# number of rings (size 3 to 8) (size 9 to 14) (size 15 to 20)
#    0.000    1.667    3.333    2.500    9.333    0.000 
#    0.000    0.000    0.000    0.000    0.000   11.667 
#    0.000    0.000    0.000    0.000    0.000    0.000 
#
# Total GULP energy -267615.481288 kJ/mol
# GULP energy per Si atom -5575.322527 kJ/mol
# Density = 1.824967 g / cm^3
# Si number density = 18.291306 Si / 1000 Ang^3
#
#
#
# Elastic Constant Matrix: (Units=GPa)
#
#
# Indices 1 2 3 4 5 6 
#
# 1 45.0579 1.1408 33.3989 0.0000 0.0000 0.0000
# 2 1.1408 42.8226 23.5044 0.0000 0.0000 0.0000
# 3 33.3989 23.5044 149.8189 0.0000 0.0000 0.0000
# 4 0.0000 0.0000 0.0000 9.2108 0.0000 0.0000
# 5 0.0000 0.0000 0.0000 0.0000 34.2913 0.0000
# 6 0.0000 0.0000 0.0000 0.0000 0.0000 13.9481
#
#
#
# Elastic Compliance Matrix: (Units=1/GPa)
#
#
# Indices 1 2 3 4 5 6 
#
# 1 0.026894 0.002817 -0.006437 0.000000 0.000000 0.000000
# 2 0.002817 0.025848 -0.004683 0.000000 0.000000 0.000000
# 3 -0.006437 -0.004683 0.008845 0.000000 0.000000 0.000000
# 4 0.000000 0.000000 0.000000 0.108568 0.000000 0.000000
# 5 0.000000 0.000000 0.000000 0.000000 0.029162 0.000000
# 6 0.000000 0.000000 0.000000 0.000000 0.000000 0.071694
#
#
# Mechanical properties :
#
#
# Convention : Reuss Voigt Hill
#
# Bulk Modulus (GPa) = 22.23259 39.30973 30.77116
# Shear Modulus (GPa) = 16.52290 23.46708 19.99499
#
# Velocity S-wave (km/s) = 3.00879 3.58573 3.30986
# Velocity P-wave (km/s) = 4.92458 6.21940 5.60948
#
# Compressibility (1/GPa) = 0.04497901
#
# Stress axis : x y z
#
# Youngs Moduli (GPa) = 37.18297 38.68836 113.06454
#
# Poissons Ratio (x) = -0.10898 0.72784
# Poissons Ratio (y) = -0.10474 0.52949
# Poissons Ratio (z) = 0.23936 0.18118
#
# Static dielectric constant tensor:
#      x y z
#    x 1.685790 0.000000 0.000000 
#    y 0.000000 1.592990 0.000000 
#    z 0.000000 0.000000 1.710770 
# 
# From -- ./inp_files/24843.got.cif
#   From: 2010.05.17/outbox.cif.g08.bks.cpg/sg52_13_cif.got.tgz:24843.got - 2010.06.03 12:15:38.
