data_PCOD9410083
_publ_section_title
;
Structure prediction by ZEFSAII (Michael W. Deem and Ramdas Pophale) SiO2 
 PCOD9410083
Probable space group: P N N A
;
_chemical_formula_sum "Si O2"
_cell_formula_units_Z 28
_cell_length_a 32.332181
_cell_length_b 5.191666
_cell_length_c 8.790864
_cell_angle_alpha 90.000000
_cell_angle_beta 90.000000
_cell_angle_gamma 90.000000
_cell_volume 1475.615837
_symmetry_space_group_name_H-M "P N N A"
_symmetry_group_IT_number 52
_symmetry_cell_setting 'orthorhombic'
loop_
_space_group_symop_operation_xyz
x,y,z
1/2-x,-y,z
x,1/2-y,1/2-z
1/2-x,1/2+y,1/2-z
-x,-y,-z
1/2+x,y,-z
-x,1/2+y,1/2+z
1/2+x,1/2-y,1/2+z
loop_
_atom_site_type_symbol
_atom_site_label
_atom_site_fract_x
_atom_site_fract_y
_atom_site_fract_z
Si Si1 0.250000 0.500000 0.350735
Si Si2 0.530995 0.501976 0.141666
Si Si3 0.124298 0.997174 0.644063
Si Si4 0.791311 0.831584 0.426544
O O1 0.259814 0.250000 0.250000
O O2 0.213439 0.411348 0.462964
O O3 0.527022 0.250000 0.250000
O O4 0.578196 0.518586 0.077881
O O5 0.524700 0.750000 0.250000
O O6 0.500000 0.500000 0.000000
O O7 0.130639 0.750000 0.750000
O O8 0.123112 0.250000 0.750000
O O9 0.165287 0.028225 0.543086
O O10 0.790562 0.750000 0.250000
O O11 0.750000 0.000000 0.448659
#
# Coordination Sequence:
#
# PCOD9410083 Si02
#       4
#     4   8   8   8
#     4  12  26  40  56  84 124 160 186 242 308 350
#     4  10  20  38  63  89 121 156 194 245 300 353
#     4   9  20  34  58  92 118 146 198 256 290 330
#     4  11  21  37  66  87 111 155 213 240 278 344
#
# _framework density 18.975128000000002
#
# number of rings (size 3 to 8) (size 9 to 14) (size 15 to 20)
#    0.000    1.714    2.857    1.714    4.000    0.000 
#    0.000    1.429    6.286    0.000    0.000    0.000 
#    0.000    0.000    0.000    0.000    0.000    0.000 
#
# Total GULP energy -156102.937158 kJ/mol
# GULP energy per Si atom -5575.104898 kJ/mol
# Density = 1.893194 g / cm^3
# Si number density = 18.975128 Si / 1000 Ang^3
#
#
#
# Elastic Constant Matrix: (Units=GPa)
#
#
# Indices 1 2 3 4 5 6 
#
# 1 197.7721 53.0446 64.7777 0.0000 0.0000 0.0000
# 2 53.0446 145.0870 48.8812 0.0000 0.0000 0.0000
# 3 64.7777 48.8812 98.0886 0.0000 0.0000 0.0000
# 4 0.0000 0.0000 0.0000 23.0050 0.0000 0.0000
# 5 0.0000 0.0000 0.0000 0.0000 3.6306 0.0000
# 6 0.0000 0.0000 0.0000 0.0000 0.0000 26.9995
#
#
#
# Elastic Compliance Matrix: (Units=1/GPa)
#
#
# Indices 1 2 3 4 5 6 
#
# 1 0.006604 -0.001136 -0.003795 0.000000 0.000000 0.000000
# 2 -0.001136 0.008478 -0.003475 0.000000 0.000000 0.000000
# 3 -0.003795 -0.003475 0.014433 0.000000 0.000000 0.000000
# 4 0.000000 0.000000 0.000000 0.043469 0.000000 0.000000
# 5 0.000000 0.000000 0.000000 0.000000 0.275437 0.000000
# 6 0.000000 0.000000 0.000000 0.000000 0.000000 0.037038
#
#
# Mechanical properties :
#
#
# Convention : Reuss Voigt Hill
#
# Bulk Modulus (GPa) = 78.72013 86.03940 82.37977
# Shear Modulus (GPa) = 12.29994 29.00998 20.65496
#
# Velocity S-wave (km/s) = 2.54877 3.91428 3.30286
# Velocity P-wave (km/s) = 7.08785 8.11606 7.61932
#
# Compressibility (1/GPa) = 0.01270323
#
# Stress axis : x y z
#
# Youngs Moduli (GPa) = 151.42188 117.94622 69.28555
#
# Poissons Ratio (x) = 0.13396 0.26296
# Poissons Ratio (y) = 0.17199 0.24077
# Poissons Ratio (z) = 0.57469 0.40987
#
# Static dielectric constant tensor:
#      x y z
#    x 1.714110 0.000000 0.000000 
#    y 0.000000 1.697260 0.000000 
#    z 0.000000 0.000000 1.661740 
# 
# From -- ./inp_files/14623.got.cif
#   From: 2010.05.17/outbox.cif.g08.bks.cpg/sg52_8_cif.got.tgz:14623.got - 2010.06.03 12:15:38.
