data_PCOD9410400
_publ_section_title
;
Structure prediction by ZEFSAII (Michael W. Deem and Ramdas Pophale) SiO2 
 PCOD9410400
Probable space group: P N N A
;
_chemical_formula_sum "Si O2"
_cell_formula_units_Z 32
_cell_length_a 10.065430
_cell_length_b 13.302393
_cell_length_c 9.891115
_cell_angle_alpha 90.000000
_cell_angle_beta 90.000000
_cell_angle_gamma 90.000000
_cell_volume 1324.363974
_symmetry_space_group_name_H-M "P N N A"
_symmetry_group_IT_number 52
_symmetry_cell_setting 'orthorhombic'
loop_
_space_group_symop_operation_xyz
x,y,z
1/2-x,-y,z
x,1/2-y,1/2-z
1/2-x,1/2+y,1/2-z
-x,-y,-z
1/2+x,y,-z
-x,1/2+y,1/2+z
1/2+x,1/2-y,1/2+z
loop_
_atom_site_type_symbol
_atom_site_label
_atom_site_fract_x
_atom_site_fract_y
_atom_site_fract_z
Si Si1 0.656717 0.125395 0.309013
Si Si2 0.568729 0.567577 0.114720
Si Si3 0.048034 0.238596 0.033698
Si Si4 0.216761 0.882867 0.978494
O O1 0.779530 0.102709 0.412097
O O2 0.562832 0.200522 0.390008
O O3 0.734045 0.149706 0.172321
O O4 0.584738 0.019354 0.273454
O O5 0.500000 0.500000 0.000000
O O6 0.491230 0.670525 0.133576
O O7 0.184515 0.183897 0.069123
O O8 0.933402 0.155793 0.013319
O O9 0.250000 0.000000 0.000027
#
# Coordination Sequence:
#
# PCOD9410400 Si02
#       4
#     8   8   8   8
#     4  10  20  41  70  99 128 175 228 272 335 406
#     4   9  18  36  67 100 125 170 230 282 323 392
#     4  11  23  38  68 100 132 177 227 277 339 398
#     4  12  24  42  68  96 139 182 220 276 340 403
#
# _framework density 24.162541000000001
#
# number of rings (size 3 to 8) (size 9 to 14) (size 15 to 20)
#    0.000    1.500    5.000    1.500    0.000    0.000 
#    0.000    0.000   11.000    3.000    0.000    0.000 
#    0.000    0.000    0.000    0.000    0.000    0.000 
#
# Total GULP energy -178357.457901 kJ/mol
# GULP energy per Si atom -5573.670559 kJ/mol
# Density = 2.410755 g / cm^3
# Si number density = 24.162541 Si / 1000 Ang^3
#
#
#
# Elastic Constant Matrix: (Units=GPa)
#
#
# Indices 1 2 3 4 5 6 
#
# 1 74.7622 26.7756 9.4784 0.0000 0.0000 0.0000
# 2 26.7756 143.5853 13.7370 0.0000 0.0000 0.0000
# 3 9.4784 13.7370 36.6633 0.0000 0.0000 0.0000
# 4 0.0000 0.0000 0.0000 32.6985 0.0000 0.0000
# 5 0.0000 0.0000 0.0000 0.0000 22.4043 0.0000
# 6 0.0000 0.0000 0.0000 0.0000 0.0000 68.9326
#
#
#
# Elastic Compliance Matrix: (Units=1/GPa)
#
#
# Indices 1 2 3 4 5 6 
#
# 1 0.014617 -0.002452 -0.002860 0.000000 0.000000 0.000000
# 2 -0.002452 0.007635 -0.002227 0.000000 0.000000 0.000000
# 3 -0.002860 -0.002227 0.028849 0.000000 0.000000 0.000000
# 4 0.000000 0.000000 0.000000 0.030582 0.000000 0.000000
# 5 0.000000 0.000000 0.000000 0.000000 0.044634 0.000000
# 6 0.000000 0.000000 0.000000 0.000000 0.000000 0.014507
#
#
# Mechanical properties :
#
#
# Convention : Reuss Voigt Hill
#
# Bulk Modulus (GPa) = 27.76024 39.44364 33.60194
# Shear Modulus (GPa) = 29.77806 38.47506 34.12656
#
# Velocity S-wave (km/s) = 3.51437 3.99475 3.76223
# Velocity P-wave (km/s) = 5.28977 6.13491 5.72795
#
# Compressibility (1/GPa) = 0.03602274
#
# Stress axis : x y z
#
# Youngs Moduli (GPa) = 68.41578 130.97940 34.66334
#
# Poissons Ratio (x) = 0.32117 0.09914
# Poissons Ratio (y) = 0.16776 0.07718
# Poissons Ratio (z) = 0.19567 0.29165
#
# Static dielectric constant tensor:
#      x y z
#    x 1.976990 0.000000 0.000000 
#    y 0.000000 3.055520 0.000000 
#    z 0.000000 0.000000 2.052310 
# 
# From -- ./inp_files/16436.got.cif
#   From: 2010.05.17/outbox.cif.g08.bks.cpg/sg52_9_cif.got.tgz:16436.got - 2010.06.03 12:15:38.
