data_PCOD9410394
_publ_section_title
;
Structure prediction by ZEFSAII (Michael W. Deem and Ramdas Pophale) SiO2 
 PCOD9410394
Probable space group: P N N A
;
_chemical_formula_sum "Si O2"
_cell_formula_units_Z 52
_cell_length_a 8.621222
_cell_length_b 15.919453
_cell_length_c 18.550383
_cell_angle_alpha 90.000000
_cell_angle_beta 90.000000
_cell_angle_gamma 90.000000
_cell_volume 2545.949883
_symmetry_space_group_name_H-M "P N N A"
_symmetry_group_IT_number 52
_symmetry_cell_setting 'orthorhombic'
loop_
_space_group_symop_operation_xyz
x,y,z
1/2-x,-y,z
x,1/2-y,1/2-z
1/2-x,1/2+y,1/2-z
-x,-y,-z
1/2+x,y,-z
-x,1/2+y,1/2+z
1/2+x,1/2-y,1/2+z
loop_
_atom_site_type_symbol
_atom_site_label
_atom_site_fract_x
_atom_site_fract_y
_atom_site_fract_z
Si Si1 0.994279 0.750000 0.750000
Si Si2 0.237332 0.896538 0.249459
Si Si3 0.177654 0.907416 0.090749
Si Si4 0.573726 0.319807 0.492898
Si Si5 0.167408 0.737763 0.900116
Si Si6 0.169047 0.590825 0.095218
Si Si7 0.819632 0.592091 0.041864
O O1 0.096521 0.758210 0.822622
O O2 0.889157 0.835642 0.748304
O O3 0.154760 0.879035 0.173340
O O4 0.156371 0.872826 0.324838
O O5 0.250000 0.000000 0.248775
O O6 0.024965 0.895030 0.042997
O O7 0.250000 0.000000 0.090285
O O8 0.306906 0.850855 0.052667
O O9 0.453098 0.261789 0.536453
O O10 0.671599 0.279884 0.427348
O O11 0.214585 0.640758 0.901257
O O12 0.250000 0.500000 0.105235
O O13 0.998998 0.587910 0.061003
O O14 0.281967 0.633422 0.036381
O O15 0.750000 0.500000 0.037980
#
# Coordination Sequence:
#
# PCOD9410394 Si02
#       7
#     4   8   8   8   8   8   8
#     4  12  26  44  70  94 136 180 214 280 342 392
#     4  10  24  41  67  97 135 173 221 267 337 403
#     4  10  20  41  69  96 129 169 221 270 332 391
#     4  10  22  41  65  99 128 170 216 278 319 398
#     4  11  25  41  65  94 132 169 220 270 333 390
#     4  10  22  38  62  93 133 172 218 267 321 386
#     4  11  23  38  63  95 131 174 222 264 316 386
#
# _framework density 20.424596000000001
#
# number of rings (size 3 to 8) (size 9 to 14) (size 15 to 20)
#    0.000    1.538    1.538    3.231    8.615    2.462 
#    0.000    0.000    0.000    0.000    0.000    0.000 
#    0.000    0.000    0.000    0.000    0.000    0.000 
#
# Total GULP energy -289768.425658 kJ/mol
# GULP energy per Si atom -5572.469724 kJ/mol
# Density = 2.037811 g / cm^3
# Si number density = 20.424596 Si / 1000 Ang^3
#
#
#
# Elastic Constant Matrix: (Units=GPa)
#
#
# Indices 1 2 3 4 5 6 
#
# 1 93.4172 28.1221 70.6463 0.0000 0.0000 0.0000
# 2 28.1221 73.5337 26.9646 0.0000 0.0000 0.0000
# 3 70.6463 26.9646 164.4695 0.0000 0.0000 0.0000
# 4 0.0000 0.0000 0.0000 36.2625 0.0000 0.0000
# 5 0.0000 0.0000 0.0000 0.0000 16.4680 0.0000
# 6 0.0000 0.0000 0.0000 0.0000 0.0000 37.2767
#
#
#
# Elastic Compliance Matrix: (Units=1/GPa)
#
#
# Indices 1 2 3 4 5 6 
#
# 1 0.016917 -0.004048 -0.006603 0.000000 0.000000 0.000000
# 2 -0.004048 0.015438 -0.000792 0.000000 0.000000 0.000000
# 3 -0.006603 -0.000792 0.009046 0.000000 0.000000 0.000000
# 4 0.000000 0.000000 0.000000 0.027577 0.000000 0.000000
# 5 0.000000 0.000000 0.000000 0.000000 0.060724 0.000000
# 6 0.000000 0.000000 0.000000 0.000000 0.000000 0.026826
#
#
# Mechanical properties :
#
#
# Convention : Reuss Voigt Hill
#
# Bulk Modulus (GPa) = 54.01195 64.76515 59.38855
# Shear Modulus (GPa) = 26.94181 31.71395 29.32788
#
# Velocity S-wave (km/s) = 3.63586 3.94475 3.79345
# Velocity P-wave (km/s) = 6.64289 7.24750 6.95177
#
# Compressibility (1/GPa) = 0.01851442
#
# Stress axis : x y z
#
# Youngs Moduli (GPa) = 59.11356 64.77550 110.54479
#
# Poissons Ratio (x) = 0.26224 0.72989
# Poissons Ratio (y) = 0.23932 0.08756
# Poissons Ratio (z) = 0.39030 0.05131
#
# Static dielectric constant tensor:
#      x y z
#    x 1.707630 0.000000 0.000000 
#    y 0.000000 1.865240 0.000000 
#    z 0.000000 0.000000 1.762360 
# 
# From -- ./inp_files/31416.got.cif
#   From: 2010.05.17/outbox.cif.g08.bks.cpg/sg52_16_cif.got.tgz:31416.got - 2010.06.03 12:15:38.
