data_PCOD9410810
_publ_section_title
;
Structure prediction by ZEFSAII (Michael W. Deem and Ramdas Pophale) SiO2 
 PCOD9410810
Probable space group: P N N A
;
_chemical_formula_sum "Si O2"
_cell_formula_units_Z 52
_cell_length_a 9.130514
_cell_length_b 20.920119
_cell_length_c 14.943798
_cell_angle_alpha 90.000000
_cell_angle_beta 90.000000
_cell_angle_gamma 90.000000
_cell_volume 2854.436366
_symmetry_space_group_name_H-M "P N N A"
_symmetry_group_IT_number 52
_symmetry_cell_setting 'orthorhombic'
loop_
_space_group_symop_operation_xyz
x,y,z
1/2-x,-y,z
x,1/2-y,1/2-z
1/2-x,1/2+y,1/2-z
-x,-y,-z
1/2+x,y,-z
-x,1/2+y,1/2+z
1/2+x,1/2-y,1/2+z
loop_
_atom_site_type_symbol
_atom_site_label
_atom_site_fract_x
_atom_site_fract_y
_atom_site_fract_z
Si Si1 0.914478 0.250000 0.750000
Si Si2 0.995376 0.145655 0.023703
Si Si3 0.547817 0.070299 0.471520
Si Si4 0.757894 0.232534 0.930422
Si Si5 0.226300 0.425653 0.603886
Si Si6 0.387204 0.628059 0.787619
Si Si7 0.190320 0.853172 0.554051
O O1 0.810239 0.256390 0.835123
O O2 0.018128 0.312419 0.752775
O O3 0.101945 0.197466 0.069537
O O4 0.883550 0.108547 0.088473
O O5 0.106015 0.101816 0.965992
O O6 0.884017 0.182629 0.958835
O O7 0.526951 0.088185 0.365683
O O8 0.471942 0.125387 0.531300
O O9 0.719314 0.085285 0.482746
O O10 0.500000 0.000000 0.500000
O O11 0.764452 0.289457 0.002334
O O12 0.250000 0.500000 0.588369
O O13 0.165617 0.412336 0.703232
O O14 0.245726 0.652458 0.844315
#
# Coordination Sequence:
#
# PCOD9410810 Si02
#       7
#     4   8   8   8   8   8   8
#     4  12  20  42  58  90 132 156 212 266 318 368
#     4  10  23  40  65  90 117 167 208 263 320 373
#     4  10  21  38  61  87 126 165 204 247 309 387
#     4  11  20  41  62  90 125 160 209 260 321 372
#     4  11  23  43  66  90 126 166 214 263 317 385
#     4  10  24  37  65  92 120 170 207 262 314 375
#     4  10  21  38  61  88 121 166 198 252 318 369
#
# _framework density 18.217257
#
# number of rings (size 3 to 8) (size 9 to 14) (size 15 to 20)
#    0.923    0.615    3.077    2.769    4.308    0.000 
#    5.538    0.000    0.000    0.000    0.000    0.000 
#    0.000    0.000    0.000    0.000    0.000    0.000 
#
# Total GULP energy -289560.911623 kJ/mol
# GULP energy per Si atom -5568.479070 kJ/mol
# Density = 1.817579 g / cm^3
# Si number density = 18.217257 Si / 1000 Ang^3
#
#
#
# Elastic Constant Matrix: (Units=GPa)
#
#
# Indices 1 2 3 4 5 6 
#
# 1 59.9703 -1.4886 -12.7177 0.0000 0.0000 0.0000
# 2 -1.4886 73.2444 -7.1472 0.0000 0.0000 0.0000
# 3 -12.7177 -7.1472 38.5878 0.0000 0.0000 0.0000
# 4 0.0000 0.0000 0.0000 27.8873 0.0000 0.0000
# 5 0.0000 0.0000 0.0000 0.0000 26.1249 0.0000
# 6 0.0000 0.0000 0.0000 0.0000 0.0000 28.7961
#
#
#
# Elastic Compliance Matrix: (Units=1/GPa)
#
#
# Indices 1 2 3 4 5 6 
#
# 1 0.017994 0.000962 0.006109 0.000000 0.000000 0.000000
# 2 0.000962 0.013956 0.002902 0.000000 0.000000 0.000000
# 3 0.006109 0.002902 0.028466 0.000000 0.000000 0.000000
# 4 0.000000 0.000000 0.000000 0.035859 0.000000 0.000000
# 5 0.000000 0.000000 0.000000 0.000000 0.038278 0.000000
# 6 0.000000 0.000000 0.000000 0.000000 0.000000 0.034727
#
#
# Mechanical properties :
#
#
# Convention : Reuss Voigt Hill
#
# Bulk Modulus (GPa) = 12.44397 14.34393 13.39395
# Shear Modulus (GPa) = 28.38960 29.43874 28.91417
#
# Velocity S-wave (km/s) = 3.95193 4.02429 3.98827
# Velocity P-wave (km/s) = 5.26017 5.42993 5.34572
#
# Compressibility (1/GPa) = 0.08036022
#
# Stress axis : x y z
#
# Youngs Moduli (GPa) = 55.57334 71.65566 35.12999
#
# Poissons Ratio (x) = -0.06892 -0.21460
# Poissons Ratio (y) = -0.05345 -0.10194
# Poissons Ratio (z) = -0.33948 -0.20793
#
# Static dielectric constant tensor:
#      x y z
#    x 1.620150 0.000000 0.000000 
#    y 0.000000 1.626360 0.000000 
#    z 0.000000 0.000000 1.620480 
# 
# From -- ./inp_files/31434.got.cif
#   From: 2010.05.17/outbox.cif.g08.bks.cpg/sg52_16_cif.got.tgz:31434.got - 2010.06.03 12:15:38.
