data_PCOD9410128
_publ_section_title
;
Structure prediction by ZEFSAII (Michael W. Deem and Ramdas Pophale) SiO2 
 PCOD9410128
Probable space group: P N N A
;
_chemical_formula_sum "Si O2"
_cell_formula_units_Z 48
_cell_length_a 21.857782
_cell_length_b 11.698839
_cell_length_c 7.540309
_cell_angle_alpha 90.000000
_cell_angle_beta 90.000000
_cell_angle_gamma 90.000000
_cell_volume 1928.137485
_symmetry_space_group_name_H-M "P N N A"
_symmetry_group_IT_number 52
_symmetry_cell_setting 'orthorhombic'
loop_
_space_group_symop_operation_xyz
x,y,z
1/2-x,-y,z
x,1/2-y,1/2-z
1/2-x,1/2+y,1/2-z
-x,-y,-z
1/2+x,y,-z
-x,1/2+y,1/2+z
1/2+x,1/2-y,1/2+z
loop_
_atom_site_type_symbol
_atom_site_label
_atom_site_fract_x
_atom_site_fract_y
_atom_site_fract_z
Si Si1 0.358200 0.598930 0.092391
Si Si2 0.527297 0.369723 0.149591
Si Si3 0.185109 0.327503 0.478485
Si Si4 0.609287 0.876313 0.716486
Si Si5 0.717844 0.882399 0.205361
Si Si6 0.900293 0.483980 0.393737
O O1 0.343871 0.639898 0.290944
O O2 0.318969 0.692406 0.988268
O O3 0.348477 0.463514 0.107124
O O4 0.426788 0.618379 0.016585
O O5 0.539179 0.250000 0.250000
O O6 0.455139 0.366364 0.112288
O O7 0.541753 0.475843 0.282041
O O8 0.252645 0.376731 0.505862
O O9 0.140672 0.399949 0.604398
O O10 0.634193 0.750000 0.750000
O O11 0.592894 0.933200 0.908690
O O12 0.729305 0.750000 0.250000
O O13 0.750000 0.000000 0.280203
O O14 0.645483 0.899391 0.205862
#
# Coordination Sequence:
#
# PCOD9410128 Si02
#       6
#     8   8   8   8   8   8
#     4  10  20  38  66  93 124 171 227 269 330 400
#     4  11  21  37  70  97 129 174 223 275 338 412
#     4   9  20  39  64  93 120 170 228 272 320 402
#     4  10  23  41  59  95 140 175 218 275 337 403
#     4  10  23  41  69  98 135 175 224 284 340 406
#     4  10  21  40  64  91 136 168 213 278 338 396
#
# _framework density 24.894490000000001
#
# number of rings (size 3 to 8) (size 9 to 14) (size 15 to 20)
#    0.000    2.000    1.667    1.000    4.667    1.333 
#    3.000    0.000   18.333    0.000    0.000    0.000 
#    0.000    0.000    0.000    0.000    0.000    0.000 
#
# Total GULP energy -267385.785630 kJ/mol
# GULP energy per Si atom -5570.537201 kJ/mol
# Density = 2.483783 g / cm^3
# Si number density = 24.894490 Si / 1000 Ang^3
#
#
#
# Elastic Constant Matrix: (Units=GPa)
#
#
# Indices 1 2 3 4 5 6 
#
# 1 35.6023 37.9782 13.0666 0.0000 0.0000 0.0000
# 2 37.9782 225.3164 31.5770 0.0000 0.0000 0.0000
# 3 13.0666 31.5770 76.9901 0.0000 0.0000 0.0000
# 4 0.0000 0.0000 0.0000 28.8252 0.0000 0.0000
# 5 0.0000 0.0000 0.0000 0.0000 28.9494 0.0000
# 6 0.0000 0.0000 0.0000 0.0000 0.0000 139.5333
#
#
#
# Elastic Compliance Matrix: (Units=1/GPa)
#
#
# Indices 1 2 3 4 5 6 
#
# 1 0.035243 -0.005413 -0.003761 0.000000 0.000000 0.000000
# 2 -0.005413 0.005540 -0.001354 0.000000 0.000000 0.000000
# 3 -0.003761 -0.001354 0.014182 0.000000 0.000000 0.000000
# 4 0.000000 0.000000 0.000000 0.034692 0.000000 0.000000
# 5 0.000000 0.000000 0.000000 0.000000 0.034543 0.000000
# 6 0.000000 0.000000 0.000000 0.000000 0.000000 0.007167
#
#
# Mechanical properties :
#
#
# Convention : Reuss Voigt Hill
#
# Bulk Modulus (GPa) = 29.49028 55.90582 42.69805
# Shear Modulus (GPa) = 30.53876 56.48073 43.50974
#
# Velocity S-wave (km/s) = 3.50627 4.76836 4.18516
# Velocity P-wave (km/s) = 5.31636 7.26789 6.36734
#
# Compressibility (1/GPa) = 0.03390947
#
# Stress axis : x y z
#
# Youngs Moduli (GPa) = 28.37442 180.49436 70.51094
#
# Poissons Ratio (x) = 0.97707 0.26520
# Poissons Ratio (y) = 0.15360 0.09544
# Poissons Ratio (z) = 0.10672 0.24432
#
# Static dielectric constant tensor:
#      x y z
#    x 1.949030 0.000000 0.000000 
#    y 0.000000 2.034060 0.000000 
#    z 0.000000 0.000000 1.978050 
# 
# From -- ./inp_files/14262.got.cif
#   From: 2010.05.17/outbox.cif.g08.bks.cpg/sg52_8_cif.got.tgz:14262.got - 2010.06.03 12:15:38.
