data_PCOD9410059
_publ_section_title
;
Structure prediction by ZEFSAII (Michael W. Deem and Ramdas Pophale) SiO2 
 PCOD9410059
Probable space group: P N N A
;
_chemical_formula_sum "Si O2"
_cell_formula_units_Z 32
_cell_length_a 16.531679
_cell_length_b 9.636191
_cell_length_c 7.010983
_cell_angle_alpha 90.000000
_cell_angle_beta 90.000000
_cell_angle_gamma 90.000000
_cell_volume 1116.866533
_symmetry_space_group_name_H-M "P N N A"
_symmetry_group_IT_number 52
_symmetry_cell_setting 'orthorhombic'
loop_
_space_group_symop_operation_xyz
x,y,z
1/2-x,-y,z
x,1/2-y,1/2-z
1/2-x,1/2+y,1/2-z
-x,-y,-z
1/2+x,y,-z
-x,1/2+y,1/2+z
1/2+x,1/2-y,1/2+z
loop_
_atom_site_type_symbol
_atom_site_label
_atom_site_fract_x
_atom_site_fract_y
_atom_site_fract_z
Si Si1 0.020021 0.716643 0.447316
Si Si2 0.875736 0.526817 0.530587
Si Si3 0.370553 0.050041 0.581900
Si Si4 0.290593 0.716191 0.975422
O O1 0.976856 0.750000 0.250000
O O2 0.095561 0.618062 0.381986
O O3 0.052448 0.853945 0.546569
O O4 0.955371 0.623147 0.555582
O O5 0.864001 0.478379 0.308924
O O6 0.804059 0.635416 0.575860
O O7 0.294721 0.140449 0.509318
O O8 0.359037 0.900331 0.484050
O O9 0.295369 0.750000 0.750000
#
# Coordination Sequence:
#
# PCOD9410059 Si02
#       4
#     8   8   8   8
#     4  11  23  38  57  86 122 155 190 239 303 359
#     4  10  22  39  61  87 117 156 201 248 292 347
#     4  10  20  38  62  85 115 156 201 249 296 346
#     4   9  18  35  62  89 110 149 210 256 285 338
#
# _framework density 28.651588
#
# number of rings (size 3 to 8) (size 9 to 14) (size 15 to 20)
#    0.000    2.000    0.000    4.500    0.000    7.000 
#    0.000    8.750    0.000    0.000    0.000    0.000 
#    0.000    0.000    0.000    0.000    0.000    0.000 
#
# Total GULP energy -179205.053971 kJ/mol
# GULP energy per Si atom -5600.157937 kJ/mol
# Density = 2.858638 g / cm^3
# Si number density = 28.651588 Si / 1000 Ang^3
#
#
#
# Elastic Constant Matrix: (Units=GPa)
#
#
# Indices 1 2 3 4 5 6 
#
# 1 117.6466 54.7263 16.7111 0.0000 0.0000 0.0000
# 2 54.7263 194.6268 28.5976 0.0000 0.0000 0.0000
# 3 16.7111 28.5976 77.2243 0.0000 0.0000 0.0000
# 4 0.0000 0.0000 0.0000 32.2822 0.0000 0.0000
# 5 0.0000 0.0000 0.0000 0.0000 31.2123 0.0000
# 6 0.0000 0.0000 0.0000 0.0000 0.0000 74.3633
#
#
#
# Elastic Compliance Matrix: (Units=1/GPa)
#
#
# Indices 1 2 3 4 5 6 
#
# 1 0.009879 -0.002605 -0.001173 0.000000 0.000000 0.000000
# 2 -0.002605 0.006121 -0.001703 0.000000 0.000000 0.000000
# 3 -0.001173 -0.001703 0.013834 0.000000 0.000000 0.000000
# 4 0.000000 0.000000 0.000000 0.030977 0.000000 0.000000
# 5 0.000000 0.000000 0.000000 0.000000 0.032039 0.000000
# 6 0.000000 0.000000 0.000000 0.000000 0.000000 0.013447
#
#
# Mechanical properties :
#
#
# Convention : Reuss Voigt Hill
#
# Bulk Modulus (GPa) = 52.99169 65.50754 59.24961
# Shear Modulus (GPa) = 40.46990 46.86908 43.66949
#
# Velocity S-wave (km/s) = 3.76238 4.04893 3.90828
# Velocity P-wave (km/s) = 6.11632 6.69115 6.41018
#
# Compressibility (1/GPa) = 0.01887088
#
# Stress axis : x y z
#
# Youngs Moduli (GPa) = 101.22895 163.37610 72.28725
#
# Poissons Ratio (x) = 0.42566 0.08478
# Poissons Ratio (y) = 0.26374 0.12310
# Poissons Ratio (z) = 0.11873 0.27821
#
# Static dielectric constant tensor:
#      x y z
#    x 2.266170 0.000000 0.000000 
#    y 0.000000 2.236030 0.000000 
#    z 0.000000 0.000000 2.288430 
# 
# From -- ./inp_files/12783.got.cif
#   From: 2010.05.17/outbox.cif.g08.bks.cpg/sg52_7_cif.got.tgz:12783.got - 2010.06.03 12:15:38.
