data_PCOD9410166
_publ_section_title
;
Structure prediction by ZEFSAII (Michael W. Deem and Ramdas Pophale) SiO2 
 PCOD9410166
Probable space group: P N N A
;
_chemical_formula_sum "Si O2"
_cell_formula_units_Z 60
_cell_length_a 17.958594
_cell_length_b 27.357779
_cell_length_c 5.671327
_cell_angle_alpha 90.000000
_cell_angle_beta 90.000000
_cell_angle_gamma 90.000000
_cell_volume 2786.364048
_symmetry_space_group_name_H-M "P N N A"
_symmetry_group_IT_number 52
_symmetry_cell_setting 'orthorhombic'
loop_
_space_group_symop_operation_xyz
x,y,z
1/2-x,-y,z
x,1/2-y,1/2-z
1/2-x,1/2+y,1/2-z
-x,-y,-z
1/2+x,y,-z
-x,1/2+y,1/2+z
1/2+x,1/2-y,1/2+z
loop_
_atom_site_type_symbol
_atom_site_label
_atom_site_fract_x
_atom_site_fract_y
_atom_site_fract_z
Si Si1 0.384488 0.914346 0.504809
Si Si2 0.488478 0.750000 0.250000
Si Si3 0.495416 0.343963 0.029641
Si Si4 0.611256 0.300045 0.389230
Si Si5 0.762255 0.865535 0.191885
Si Si6 0.761633 0.947897 0.803440
Si Si7 0.045441 0.999772 0.751574
Si Si8 0.864177 0.089729 0.445866
O O1 0.450186 0.882253 0.390287
O O2 0.318401 0.879493 0.596074
O O3 0.341833 0.948576 0.321893
O O4 0.411503 0.948682 0.719218
O O5 0.527278 0.790797 0.419339
O O6 0.432504 0.713708 0.379824
O O7 0.551058 0.332280 0.245108
O O8 0.425771 0.378735 0.085213
O O9 0.619579 0.250000 0.250000
O O10 0.693725 0.320739 0.421215
O O11 0.680186 0.868944 0.296801
O O12 0.762348 0.906686 0.995915
O O13 0.695853 0.936724 0.615130
O O14 0.750000 0.000000 0.919464
O O15 0.097950 0.951841 0.719137
O O16 0.000000 0.000000 0.500000
O O17 0.000000 0.000000 0.000000
#
# Coordination Sequence:
#
# PCOD9410166 Si02
#       8
#     8   4   8   8   8   8   8   8
#     4  10  22  40  61  92 129 177 233 282 337 411
#     4  10  20  38  74  96 120 168 224 292 356 430
#     4  10  21  41  65  94 131 167 228 286 356 415
#     4   9  20  42  70  96 124 165 229 286 349 433
#     4  10  24  38  64  93 129 180 223 288 344 419
#     4  11  23  38  61  88 138 181 233 271 346 412
#     4  12  27  42  66 100 138 188 237 291 340 415
#     4  11  25  41  60  96 139 181 228 288 350 417
#
# _framework density 21.533438
#
# number of rings (size 3 to 8) (size 9 to 14) (size 15 to 20)
#    0.000    1.600    2.667    0.800    5.600    4.267 
#    1.200    0.000    0.000    0.000    0.000    0.000 
#    0.000    0.000    0.000    0.000    0.000    0.000 
#
# Total GULP energy -334109.067355 kJ/mol
# GULP energy per Si atom -5568.484456 kJ/mol
# Density = 2.148443 g / cm^3
# Si number density = 21.533438 Si / 1000 Ang^3
#
#
#
# Elastic Constant Matrix: (Units=GPa)
#
#
# Indices 1 2 3 4 5 6 
#
# 1 91.1643 37.2503 18.3744 0.0000 0.0000 0.0000
# 2 37.2503 86.1433 2.8021 0.0000 0.0000 0.0000
# 3 18.3744 2.8021 44.3467 0.0000 0.0000 0.0000
# 4 0.0000 0.0000 0.0000 28.3302 0.0000 0.0000
# 5 0.0000 0.0000 0.0000 0.0000 51.9307 0.0000
# 6 0.0000 0.0000 0.0000 0.0000 0.0000 37.5534
#
#
#
# Elastic Compliance Matrix: (Units=1/GPa)
#
#
# Indices 1 2 3 4 5 6 
#
# 1 0.014620 -0.006137 -0.005670 0.000000 0.000000 0.000000
# 2 -0.006137 0.014209 0.001645 0.000000 0.000000 0.000000
# 3 -0.005670 0.001645 0.024795 0.000000 0.000000 0.000000
# 4 0.000000 0.000000 0.000000 0.035298 0.000000 0.000000
# 5 0.000000 0.000000 0.000000 0.000000 0.019256 0.000000
# 6 0.000000 0.000000 0.000000 0.000000 0.000000 0.026629
#
#
# Mechanical properties :
#
#
# Convention : Reuss Voigt Hill
#
# Bulk Modulus (GPa) = 30.03042 37.61200 33.82121
# Shear Modulus (GPa) = 30.07867 34.44468 32.26168
#
# Velocity S-wave (km/s) = 3.74148 4.00383 3.87487
# Velocity P-wave (km/s) = 5.71324 6.23529 5.97997
#
# Compressibility (1/GPa) = 0.03329957
#
# Stress axis : x y z
#
# Youngs Moduli (GPa) = 68.40054 70.37769 40.33105
#
# Poissons Ratio (x) = 0.43194 0.22866
# Poissons Ratio (y) = 0.41981 -0.06635
# Poissons Ratio (z) = 0.38781 -0.11578
#
# Static dielectric constant tensor:
#      x y z
#    x 1.748590 0.000000 0.000000 
#    y 0.000000 1.872450 0.000000 
#    z 0.000000 0.000000 1.597930 
# 
# From -- ./inp_files/3598.got.cif
#   From: 2010.05.17/outbox.cif.g08.bks.cpg/sg52_2_cif.got.tgz:3598.got - 2010.06.03 12:15:38.
