data_PCOD9410285
_publ_section_title
;
Structure prediction by ZEFSAII (Michael W. Deem and Ramdas Pophale) SiO2 
 PCOD9410285
Probable space group: P N N A
;
_chemical_formula_sum "Si O2"
_cell_formula_units_Z 52
_cell_length_a 14.529018
_cell_length_b 10.808792
_cell_length_c 15.923925
_cell_angle_alpha 90.000000
_cell_angle_beta 90.000000
_cell_angle_gamma 90.000000
_cell_volume 2500.711232
_symmetry_space_group_name_H-M "P N N A"
_symmetry_group_IT_number 52
_symmetry_cell_setting 'orthorhombic'
loop_
_space_group_symop_operation_xyz
x,y,z
1/2-x,-y,z
x,1/2-y,1/2-z
1/2-x,1/2+y,1/2-z
-x,-y,-z
1/2+x,y,-z
-x,1/2+y,1/2+z
1/2+x,1/2-y,1/2+z
loop_
_atom_site_type_symbol
_atom_site_label
_atom_site_fract_x
_atom_site_fract_y
_atom_site_fract_z
Si Si1 0.689207 0.616729 0.798869
Si Si2 0.979579 0.957676 0.632472
Si Si3 0.954878 0.165631 0.962741
Si Si4 0.105595 0.084987 0.098198
Si Si5 0.052711 0.250000 0.250000
Si Si6 0.758745 0.257075 0.970008
Si Si7 0.402675 0.867535 0.548746
O O1 0.750000 0.500000 0.762977
O O2 0.681953 0.750000 0.750000
O O3 0.592083 0.552951 0.823848
O O4 0.736842 0.658358 0.886438
O O5 0.933450 0.906795 0.546202
O O6 0.999702 0.844461 0.692281
O O7 0.074014 0.020468 0.607526
O O8 0.863106 0.231993 0.994159
O O9 0.911237 0.062168 0.900189
O O10 0.016066 0.119258 0.041205
O O11 0.027073 0.259759 0.922211
O O12 0.196898 0.135206 0.051432
O O13 0.105623 0.161554 0.184350
O O14 0.700575 0.324469 0.041074
#
# Coordination Sequence:
#
# PCOD9410285 Si02
#       7
#     8   8   8   8   4   8   8
#     4  12  26  38  57  95 137 171 210 260 343 409
#     4  11  23  40  58  87 132 172 211 266 318 397
#     4  10  20  40  62  93 122 173 219 264 322 380
#     4  10  23  38  60  95 132 166 216 264 331 399
#     4  12  22  40  62  94 134 174 206 274 334 398
#     4  11  21  38  61  93 124 165 217 269 312 387
#     4  10  21  41  61  90 125 163 232 260 306 398
#
# _framework density 20.794084000000002
#
# number of rings (size 3 to 8) (size 9 to 14) (size 15 to 20)
#    0.000    1.231    6.154    0.462    6.462    0.000 
#    0.000    0.000    0.000    0.000   26.000    0.000 
#    0.000    0.000    0.000    0.000    0.000    0.000 
#
# Total GULP energy -289944.096915 kJ/mol
# GULP energy per Si atom -5575.848018 kJ/mol
# Density = 2.074676 g / cm^3
# Si number density = 20.794084 Si / 1000 Ang^3
#
#
#
# Elastic Constant Matrix: (Units=GPa)
#
#
# Indices 1 2 3 4 5 6 
#
# 1 79.4729 35.3648 10.7375 0.0000 0.0000 0.0000
# 2 35.3648 124.2928 40.8998 0.0000 0.0000 0.0000
# 3 10.7375 40.8998 47.6610 0.0000 0.0000 0.0000
# 4 0.0000 0.0000 0.0000 52.9157 0.0000 0.0000
# 5 0.0000 0.0000 0.0000 0.0000 10.4139 0.0000
# 6 0.0000 0.0000 0.0000 0.0000 0.0000 31.0805
#
#
#
# Elastic Compliance Matrix: (Units=1/GPa)
#
#
# Indices 1 2 3 4 5 6 
#
# 1 0.014412 -0.004225 0.000379 0.000000 0.000000 0.000000
# 2 -0.004225 0.012450 -0.009732 0.000000 0.000000 0.000000
# 3 0.000379 -0.009732 0.029248 0.000000 0.000000 0.000000
# 4 0.000000 0.000000 0.000000 0.018898 0.000000 0.000000
# 5 0.000000 0.000000 0.000000 0.000000 0.096026 0.000000
# 6 0.000000 0.000000 0.000000 0.000000 0.000000 0.032175
#
#
# Mechanical properties :
#
#
# Convention : Reuss Voigt Hill
#
# Bulk Modulus (GPa) = 34.53868 47.27010 40.90439
# Shear Modulus (GPa) = 20.83197 29.84365 25.33781
#
# Velocity S-wave (km/s) = 3.16859 3.79251 3.49450
# Velocity P-wave (km/s) = 5.48020 6.47760 5.99966
#
# Compressibility (1/GPa) = 0.02895305
#
# Stress axis : x y z
#
# Youngs Moduli (GPa) = 69.38702 80.32015 34.19084
#
# Poissons Ratio (x) = 0.33938 -0.01296
# Poissons Ratio (y) = 0.29318 0.33275
# Poissons Ratio (z) = -0.02630 0.78168
#
# Static dielectric constant tensor:
#      x y z
#    x 1.719960 0.000000 0.000000 
#    y 0.000000 1.901180 0.000000 
#    z 0.000000 0.000000 1.755610 
# 
# From -- ./inp_files/33211.got.cif
#   From: 2010.05.17/outbox.cif.g08.bks.cpg/sg52_17_cif.got.tgz:33211.got - 2010.06.03 12:15:38.
