data_PCOD9410862
_publ_section_title
;
Structure prediction by ZEFSAII (Michael W. Deem and Ramdas Pophale) SiO2 
 PCOD9410862
Probable space group: P N N A
;
_chemical_formula_sum "Si O2"
_cell_formula_units_Z 40
_cell_length_a 16.817654
_cell_length_b 7.958342
_cell_length_c 11.855764
_cell_angle_alpha 90.000000
_cell_angle_beta 90.000000
_cell_angle_gamma 90.000000
_cell_volume 1586.783067
_symmetry_space_group_name_H-M "P N N A"
_symmetry_group_IT_number 52
_symmetry_cell_setting 'orthorhombic'
loop_
_space_group_symop_operation_xyz
x,y,z
1/2-x,-y,z
x,1/2-y,1/2-z
1/2-x,1/2+y,1/2-z
-x,-y,-z
1/2+x,y,-z
-x,1/2+y,1/2+z
1/2+x,1/2-y,1/2+z
loop_
_atom_site_type_symbol
_atom_site_label
_atom_site_fract_x
_atom_site_fract_y
_atom_site_fract_z
Si Si1 0.682757 0.883286 0.532856
Si Si2 0.554199 0.975958 0.691539
Si Si3 0.869633 0.576596 0.194218
Si Si4 0.369520 0.427345 0.572093
Si Si5 0.447681 0.836501 0.079360
O O1 0.694006 0.694978 0.485156
O O2 0.750000 0.000000 0.586979
O O3 0.616823 0.860701 0.629517
O O4 0.660301 0.994607 0.421645
O O5 0.566856 0.030482 0.820027
O O6 0.563547 0.150431 0.623608
O O7 0.465036 0.908934 0.679373
O O8 0.838880 0.750000 0.250000
O O9 0.855846 0.444594 0.295586
O O10 0.387384 0.609759 0.518408
O O11 0.458145 0.347985 0.553887
#
# Coordination Sequence:
#
# PCOD9410862 Si02
#       5
#     8   8   8   8   8
#     4  12  26  41  60  93 139 180 215 266 339 418
#     4  10  21  39  63  95 126 163 223 276 332 388
#     4  11  23  39  67  97 124 169 229 284 335 383
#     4  10  21  38  64  96 125 165 217 275 335 376
#     4   9  19  38  66  93 124 159 217 286 324 378
#
# _framework density 25.208234999999998
#
# number of rings (size 3 to 8) (size 9 to 14) (size 15 to 20)
#    0.000    1.600    2.000    2.400    8.400    1.600 
#    0.000    7.000    0.000    0.000    0.000    0.000 
#    0.000    0.000    0.000    0.000    0.000    0.000 
#
# Total GULP energy -223750.250937 kJ/mol
# GULP energy per Si atom -5593.756273 kJ/mol
# Density = 2.515086 g / cm^3
# Si number density = 25.208235 Si / 1000 Ang^3
#
#
#
# Elastic Constant Matrix: (Units=GPa)
#
#
# Indices 1 2 3 4 5 6 
#
# 1 56.6592 6.7136 10.5792 0.0000 0.0000 0.0000
# 2 6.7136 99.8238 5.3909 0.0000 0.0000 0.0000
# 3 10.5792 5.3909 81.2997 0.0000 0.0000 0.0000
# 4 0.0000 0.0000 0.0000 29.7328 0.0000 0.0000
# 5 0.0000 0.0000 0.0000 0.0000 2.7057 0.0000
# 6 0.0000 0.0000 0.0000 0.0000 0.0000 24.6595
#
#
#
# Elastic Compliance Matrix: (Units=1/GPa)
#
#
# Indices 1 2 3 4 5 6 
#
# 1 0.018209 -0.001101 -0.002296 0.000000 0.000000 0.000000
# 2 -0.001101 0.010120 -0.000528 0.000000 0.000000 0.000000
# 3 -0.002296 -0.000528 0.012634 0.000000 0.000000 0.000000
# 4 0.000000 0.000000 0.000000 0.033633 0.000000 0.000000
# 5 0.000000 0.000000 0.000000 0.000000 0.369594 0.000000
# 6 0.000000 0.000000 0.000000 0.000000 0.000000 0.040552
#
#
# Mechanical properties :
#
#
# Convention : Reuss Voigt Hill
#
# Bulk Modulus (GPa) = 30.19959 31.46111 30.83035
# Shear Modulus (GPa) = 9.92793 25.75952 17.84373
#
# Velocity S-wave (km/s) = 1.98668 3.20014 2.66344
# Velocity P-wave (km/s) = 4.15555 5.11489 4.65997
#
# Compressibility (1/GPa) = 0.03311303
#
# Stress axis : x y z
#
# Youngs Moduli (GPa) = 54.91917 98.81255 79.15158
#
# Poissons Ratio (x) = 0.10875 0.18177
# Poissons Ratio (y) = 0.06044 0.04178
# Poissons Ratio (z) = 0.12612 0.05216
#
# Static dielectric constant tensor:
#      x y z
#    x 2.007200 0.000000 0.000000 
#    y 0.000000 -2.445140 0.000000 
#    z 0.000000 0.000000 1.963350 
# 
# From -- ./inp_files/20328.got.cif
#   From: 2010.05.17/outbox.cif.g08.bks.cpg/sg52_11_cif.got.tgz:20328.got - 2010.06.03 12:15:38.
