data_PCOD9410930
_publ_section_title
;
Structure prediction by ZEFSAII (Michael W. Deem and Ramdas Pophale) SiO2 
 PCOD9410930
Probable space group: P N N A
;
_chemical_formula_sum "Si O2"
_cell_formula_units_Z 52
_cell_length_a 5.460956
_cell_length_b 16.509321
_cell_length_c 26.653397
_cell_angle_alpha 90.000000
_cell_angle_beta 90.000000
_cell_angle_gamma 90.000000
_cell_volume 2402.981666
_symmetry_space_group_name_H-M "P N N A"
_symmetry_group_IT_number 52
_symmetry_cell_setting 'orthorhombic'
loop_
_space_group_symop_operation_xyz
x,y,z
1/2-x,-y,z
x,1/2-y,1/2-z
1/2-x,1/2+y,1/2-z
-x,-y,-z
1/2+x,y,-z
-x,1/2+y,1/2+z
1/2+x,1/2-y,1/2+z
loop_
_atom_site_type_symbol
_atom_site_label
_atom_site_fract_x
_atom_site_fract_y
_atom_site_fract_z
Si Si1 0.247849 0.405005 0.716660
Si Si2 0.229059 0.710794 0.620490
Si Si3 0.750000 0.000000 0.471371
Si Si4 0.770912 0.185919 0.619117
Si Si5 0.253581 0.654583 0.232540
Si Si6 0.707083 0.089700 0.030279
Si Si7 0.257066 0.331119 0.006916
O O1 0.250000 0.500000 0.704029
O O2 0.259409 0.346833 0.668726
O O3 0.492662 0.383830 0.748148
O O4 0.993656 0.383780 0.744763
O O5 0.469525 0.767563 0.621002
O O6 0.247422 0.655552 0.572063
O O7 0.969924 0.757244 0.620003
O O8 0.753584 0.099074 0.463080
O O9 0.500000 0.000000 0.500000
O O10 0.756577 0.141531 0.672481
O O11 0.759318 0.139971 0.565303
O O12 0.254976 0.750000 0.250000
O O13 0.750000 0.000000 0.052604
O O14 0.427775 0.095107 0.010381
O O15 0.506858 0.284130 0.999615
#
# Coordination Sequence:
#
# PCOD9410930 Si02
#       7
#     8   8   4   8   8   8   8
#     4  12  25  44  70  97 127 168 221 269 315 385
#     4  12  23  40  63  92 122 169 211 254 316 381
#     4   8  16  34  58  76 108 158 194 238 304 360
#     4  12  25  38  66  93 124 166 207 254 322 382
#     4  12  23  46  69  93 134 171 208 269 328 390
#     4  10  22  39  58  85 126 167 207 259 310 360
#     4  10  21  39  60  87 122 158 204 254 304 373
#
# _framework density 21.639779999999998
#
# number of rings (size 3 to 8) (size 9 to 14) (size 15 to 20)
#    0.000    0.923    3.077    4.154    0.000    3.692 
#    2.769    4.615    3.385    0.000    0.000    0.000 
#    0.000    0.000    0.000    0.000    0.000    0.000 
#
# Total GULP energy -289602.575287 kJ/mol
# GULP energy per Si atom -5569.280294 kJ/mol
# Density = 2.159053 g / cm^3
# Si number density = 21.639780 Si / 1000 Ang^3
#
#
#
# Elastic Constant Matrix: (Units=GPa)
#
#
# Indices 1 2 3 4 5 6 
#
# 1 174.3304 24.3979 12.7905 0.0000 0.0000 0.0000
# 2 24.3979 73.5933 6.2671 0.0000 0.0000 0.0000
# 3 12.7905 6.2671 96.3423 0.0000 0.0000 0.0000
# 4 0.0000 0.0000 0.0000 20.6516 0.0000 0.0000
# 5 0.0000 0.0000 0.0000 0.0000 36.4381 0.0000
# 6 0.0000 0.0000 0.0000 0.0000 0.0000 16.5011
#
#
#
# Elastic Compliance Matrix: (Units=1/GPa)
#
#
# Indices 1 2 3 4 5 6 
#
# 1 0.006059 -0.001951 -0.000677 0.000000 0.000000 0.000000
# 2 -0.001951 0.014292 -0.000671 0.000000 0.000000 0.000000
# 3 -0.000677 -0.000671 0.010513 0.000000 0.000000 0.000000
# 4 0.000000 0.000000 0.000000 0.048422 0.000000 0.000000
# 5 0.000000 0.000000 0.000000 0.000000 0.027444 0.000000
# 6 0.000000 0.000000 0.000000 0.000000 0.000000 0.060602
#
#
# Mechanical properties :
#
#
# Convention : Reuss Voigt Hill
#
# Bulk Modulus (GPa) = 41.20997 47.90856 44.55926
# Shear Modulus (GPa) = 27.46959 34.77219 31.12089
#
# Velocity S-wave (km/s) = 3.56673 4.01292 3.79639
# Velocity P-wave (km/s) = 6.00392 6.60746 6.31291
#
# Compressibility (1/GPa) = 0.02426597
#
# Stress axis : x y z
#
# Youngs Moduli (GPa) = 165.04411 69.96864 95.11822
#
# Poissons Ratio (x) = 0.13651 0.06444
# Poissons Ratio (y) = 0.32200 0.06380
# Poissons Ratio (z) = 0.11181 0.04693
#
# Static dielectric constant tensor:
#      x y z
#    x 1.775440 0.000000 0.000000 
#    y 0.000000 1.884180 0.000000 
#    z 0.000000 0.000000 1.835550 
# 
# From -- ./inp_files/41782.got.cif
#   From: 2010.05.17/outbox.cif.g08.bks.cpg/sg52_21_cif.got.tgz:41782.got - 2010.06.03 12:15:38.
