data_PCOD9410944
_publ_section_title
;
Structure prediction by ZEFSAII (Michael W. Deem and Ramdas Pophale) SiO2 
 PCOD9410944
Probable space group: P N N A
;
_chemical_formula_sum "Si O2"
_cell_formula_units_Z 40
_cell_length_a 10.978607
_cell_length_b 7.884710
_cell_length_c 20.895136
_cell_angle_alpha 90.000000
_cell_angle_beta 90.000000
_cell_angle_gamma 90.000000
_cell_volume 1808.748424
_symmetry_space_group_name_H-M "P N N A"
_symmetry_group_IT_number 52
_symmetry_cell_setting 'orthorhombic'
loop_
_space_group_symop_operation_xyz
x,y,z
1/2-x,-y,z
x,1/2-y,1/2-z
1/2-x,1/2+y,1/2-z
-x,-y,-z
1/2+x,y,-z
-x,1/2+y,1/2+z
1/2+x,1/2-y,1/2+z
loop_
_atom_site_type_symbol
_atom_site_label
_atom_site_fract_x
_atom_site_fract_y
_atom_site_fract_z
Si Si1 0.565067 0.387293 0.602506
Si Si2 0.956844 0.901991 0.345297
Si Si3 0.590692 0.876682 0.462556
Si Si4 0.107563 0.034508 0.798236
Si Si5 0.183690 0.755926 0.414210
O O1 0.484252 0.295193 0.549738
O O2 0.473674 0.405915 0.661480
O O3 0.683511 0.272154 0.614841
O O4 0.618213 0.571485 0.584619
O O5 0.949398 0.962870 0.272487
O O6 0.901828 0.712949 0.336818
O O7 0.093238 0.872635 0.372688
O O8 0.889542 0.026620 0.395317
O O9 0.694561 0.825945 0.513205
O O10 0.500000 0.000000 0.500000
O O11 0.250000 0.000000 0.792350
#
# Coordination Sequence:
#
# PCOD9410944 Si02
#       5
#     8   8   8   8   8
#     4  10  21  41  64  93 130 173 214 266 337 388
#     4   9  21  41  65  93 125 171 218 270 333 387
#     4  10  21  39  61  94 128 163 214 269 325 391
#     4  10  22  44  64  90 133 174 223 271 327 412
#     4   9  20  43  66  92 133 166 217 268 326 406
#
# _framework density 22.114737999999999
#
# number of rings (size 3 to 8) (size 9 to 14) (size 15 to 20)
#    0.000    2.400    0.000    0.600    0.000    7.200 
#   25.200   16.000    0.000    0.000    0.000    0.000 
#    0.000    0.000    0.000    0.000    0.000    0.000 
#
# Total GULP energy -223275.852138 kJ/mol
# GULP energy per Si atom -5581.896303 kJ/mol
# Density = 2.206440 g / cm^3
# Si number density = 22.114738 Si / 1000 Ang^3
#
#
#
# Elastic Constant Matrix: (Units=GPa)
#
#
# Indices 1 2 3 4 5 6 
#
# 1 124.8849 37.3735 68.9699 0.0000 0.0000 0.0000
# 2 37.3735 76.6415 46.1397 0.0000 0.0000 0.0000
# 3 68.9699 46.1397 99.7774 0.0000 0.0000 0.0000
# 4 0.0000 0.0000 0.0000 44.7587 0.0000 0.0000
# 5 0.0000 0.0000 0.0000 0.0000 -1.4775 0.0000
# 6 0.0000 0.0000 0.0000 0.0000 0.0000 27.5058
#
#
#
# Elastic Compliance Matrix: (Units=1/GPa)
#
#
# Indices 1 2 3 4 5 6 
#
# 1 0.013043 -0.001292 -0.008418 0.000000 0.000000 0.000000
# 2 -0.001292 0.018210 -0.007527 0.000000 0.000000 0.000000
# 3 -0.008418 -0.007527 0.019322 0.000000 0.000000 0.000000
# 4 0.000000 0.000000 0.000000 0.022342 0.000000 0.000000
# 5 0.000000 0.000000 0.000000 0.000000 -0.676811 0.000000
# 6 0.000000 0.000000 0.000000 0.000000 0.000000 0.036356
#
#
# Mechanical properties :
#
#
# Convention : Reuss Voigt Hill
#
# Bulk Modulus (GPa) = 62.11555 67.36336 64.73945
# Shear Modulus (GPa) = -9.47515 24.07878 7.30181
#
# Velocity S-wave (km/s) = -2.07216 3.30329 1.81905
# Velocity P-wave (km/s) = 4.73537 6.71386 5.80946
#
# Compressibility (1/GPa) = 0.01609903
#
# Stress axis : x y z
#
# Youngs Moduli (GPa) = 76.66733 54.91637 51.75391
#
# Poissons Ratio (x) = 0.07097 0.43569
# Poissons Ratio (y) = 0.09909 0.38956
# Poissons Ratio (z) = 0.64542 0.41337
#
# Static dielectric constant tensor:
#      x y z
#    x 1.870360 0.000000 0.000000 
#    y 0.000000 1.878940 0.000000 
#    z 0.000000 0.000000 1.785830 
# 
# From -- ./inp_files/36655.got.cif
#   From: 2010.05.17/outbox.cif.g08.bks.cpg/sg52_19_cif.got.tgz:36655.got - 2010.06.03 12:15:38.
