data_PCOD9410572
_publ_section_title
;
Structure prediction by ZEFSAII (Michael W. Deem and Ramdas Pophale) SiO2 
 PCOD9410572
Probable space group: P N N A
;
_chemical_formula_sum "Si O2"
_cell_formula_units_Z 40
_cell_length_a 20.469412
_cell_length_b 7.855008
_cell_length_c 11.966511
_cell_angle_alpha 90.000000
_cell_angle_beta 90.000000
_cell_angle_gamma 90.000000
_cell_volume 1924.064131
_symmetry_space_group_name_H-M "P N N A"
_symmetry_group_IT_number 52
_symmetry_cell_setting 'orthorhombic'
loop_
_space_group_symop_operation_xyz
x,y,z
1/2-x,-y,z
x,1/2-y,1/2-z
1/2-x,1/2+y,1/2-z
-x,-y,-z
1/2+x,y,-z
-x,1/2+y,1/2+z
1/2+x,1/2-y,1/2+z
loop_
_atom_site_type_symbol
_atom_site_label
_atom_site_fract_x
_atom_site_fract_y
_atom_site_fract_z
Si Si1 0.172690 0.465390 0.149849
Si Si2 0.425086 0.480334 0.956126
Si Si3 0.482906 0.169919 0.855291
Si Si4 0.176224 0.061519 0.104764
Si Si5 0.578019 0.357863 0.431677
O O1 0.250000 0.500000 0.137013
O O2 0.169774 0.263033 0.128264
O O3 0.153064 0.516599 0.276542
O O4 0.124708 0.546559 0.058834
O O5 0.428184 0.313113 0.879885
O O6 0.406696 0.662884 0.901167
O O7 0.500000 0.500000 0.000000
O O8 0.520188 0.250000 0.750000
O O9 0.454889 0.980771 0.841395
O O10 0.528487 0.159176 0.963218
O O11 0.250000 0.000000 0.090817
O O12 0.136587 0.038647 0.990852
#
# Coordination Sequence:
#
# PCOD9410572 Si02
#       5
#     8   8   8   8   8
#     4   9  18  31  51  82 114 142 176 225 279 339
#     4   9  19  34  54  79 111 144 184 224 275 328
#     4  10  21  35  57  78 108 145 186 230 274 327
#     4   9  18  31  53  79 112 143 172 219 285 339
#     4   9  20  36  53  82 109 142 181 225 280 327
#
# _framework density 20.789328000000001
#
# number of rings (size 3 to 8) (size 9 to 14) (size 15 to 20)
#    0.000    2.800    0.000    0.000   11.200    0.800 
#    0.000    0.000    0.000    1.200    0.000    0.000 
#    0.000    0.000    0.000    0.000    0.000    0.000 
#
# Total GULP energy -222760.722573 kJ/mol
# GULP energy per Si atom -5569.018064 kJ/mol
# Density = 2.074201 g / cm^3
# Si number density = 20.789328 Si / 1000 Ang^3
#
#
#
# Elastic Constant Matrix: (Units=GPa)
#
#
# Indices 1 2 3 4 5 6 
#
# 1 59.8777 7.8651 14.5043 0.0000 0.0000 0.0000
# 2 7.8651 70.9370 17.1263 0.0000 0.0000 0.0000
# 3 14.5043 17.1263 41.6306 0.0000 0.0000 0.0000
# 4 0.0000 0.0000 0.0000 28.0423 0.0000 0.0000
# 5 0.0000 0.0000 0.0000 0.0000 20.7256 0.0000
# 6 0.0000 0.0000 0.0000 0.0000 0.0000 29.9452
#
#
#
# Elastic Compliance Matrix: (Units=1/GPa)
#
#
# Indices 1 2 3 4 5 6 
#
# 1 0.018259 -0.000542 -0.006138 0.000000 0.000000 0.000000
# 2 -0.000542 0.015668 -0.006256 0.000000 0.000000 0.000000
# 3 -0.006138 -0.006256 0.028733 0.000000 0.000000 0.000000
# 4 0.000000 0.000000 0.000000 0.035660 0.000000 0.000000
# 5 0.000000 0.000000 0.000000 0.000000 0.048249 0.000000
# 6 0.000000 0.000000 0.000000 0.000000 0.000000 0.033394
#
#
# Mechanical properties :
#
#
# Convention : Reuss Voigt Hill
#
# Bulk Modulus (GPa) = 27.18478 27.93739 27.56108
# Shear Modulus (GPa) = 22.92525 24.60594 23.76559
#
# Velocity S-wave (km/s) = 3.32436 3.44406 3.38474
# Velocity P-wave (km/s) = 5.27635 5.41137 5.34428
#
# Compressibility (1/GPa) = 0.03678529
#
# Stress axis : x y z
#
# Youngs Moduli (GPa) = 54.76792 63.82576 34.80289
#
# Poissons Ratio (x) = 0.03462 0.21363
# Poissons Ratio (y) = 0.02971 0.21774
# Poissons Ratio (z) = 0.33618 0.39932
#
# Static dielectric constant tensor:
#      x y z
#    x 1.830510 0.000000 0.000000 
#    y 0.000000 1.764990 0.000000 
#    z 0.000000 0.000000 1.818150 
# 
# From -- ./inp_files/21452.got.cif
#   From: 2010.05.17/outbox.cif.g08.bks.cpg/sg52_11_cif.got.tgz:21452.got - 2010.06.03 12:15:38.
