data_PCOD9410432
_publ_section_title
;
Structure prediction by ZEFSAII (Michael W. Deem and Ramdas Pophale) SiO2 
 PCOD9410432
Probable space group: P N N A
;
_chemical_formula_sum "Si O2"
_cell_formula_units_Z 48
_cell_length_a 9.122712
_cell_length_b 18.024314
_cell_length_c 12.160840
_cell_angle_alpha 90.000000
_cell_angle_beta 90.000000
_cell_angle_gamma 90.000000
_cell_volume 1999.614529
_symmetry_space_group_name_H-M "P N N A"
_symmetry_group_IT_number 52
_symmetry_cell_setting 'orthorhombic'
loop_
_space_group_symop_operation_xyz
x,y,z
1/2-x,-y,z
x,1/2-y,1/2-z
1/2-x,1/2+y,1/2-z
-x,-y,-z
1/2+x,y,-z
-x,1/2+y,1/2+z
1/2+x,1/2-y,1/2+z
loop_
_atom_site_type_symbol
_atom_site_label
_atom_site_fract_x
_atom_site_fract_y
_atom_site_fract_z
Si Si1 0.572781 0.678852 0.425604
Si Si2 0.983721 0.137985 0.840289
Si Si3 0.789161 0.750000 0.250000
Si Si4 0.093707 0.982601 0.840719
Si Si5 0.982775 0.576522 0.873854
Si Si6 0.308244 0.829104 0.235094
Si Si7 0.750000 0.000000 0.469889
O O1 0.555274 0.690341 0.555384
O O2 0.681331 0.732008 0.354601
O O3 0.621102 0.592458 0.408363
O O4 0.412798 0.676784 0.370056
O O5 0.100927 0.178819 0.760546
O O6 0.831356 0.118935 0.779627
O O7 0.045211 0.060819 0.890059
O O8 0.980606 0.964054 0.744311
O O9 0.250000 0.000000 0.787500
O O10 0.916569 0.654750 0.836892
O O11 0.148613 0.563630 0.912981
O O12 0.870569 0.542448 0.958844
O O13 0.235121 0.750000 0.250000
#
# Coordination Sequence:
#
# PCOD9410432 Si02
#       7
#     8   8   4   8   8   8   4
#     4  11  25  47  73 108 148 192 248 307 380 444
#     4  12  25  46  75 110 144 196 254 298 381 453
#     4  12  24  46  78 104 158 194 238 318 374 450
#     4  11  22  42  74 103 147 189 241 315 376 431
#     4  10  22  41  67  99 137 186 232 309 352 431
#     4  11  24  46  65  98 146 185 232 294 368 432
#     4  10  20  42  66 102 132 178 258 288 360 430
#
# _framework density 24.004626999999999
#
# number of rings (size 3 to 8) (size 9 to 14) (size 15 to 20)
#    0.000    1.000    4.167    2.500    0.000    2.000 
#    3.000    5.000    0.000    0.000    0.000    0.000 
#    0.000    0.000    0.000    0.000    0.000    0.000 
#
# Total GULP energy -267419.527227 kJ/mol
# GULP energy per Si atom -5571.240151 kJ/mol
# Density = 2.394999 g / cm^3
# Si number density = 24.004627 Si / 1000 Ang^3
#
#
#
# Elastic Constant Matrix: (Units=GPa)
#
#
# Indices 1 2 3 4 5 6 
#
# 1 149.0505 31.8596 33.7027 0.0000 0.0000 0.0000
# 2 31.8596 89.1077 29.0582 0.0000 0.0000 0.0000
# 3 33.7027 29.0582 72.5925 0.0000 0.0000 0.0000
# 4 0.0000 0.0000 0.0000 -770.5456 0.0000 0.0000
# 5 0.0000 0.0000 0.0000 0.0000 35.8370 0.0000
# 6 0.0000 0.0000 0.0000 0.0000 0.0000 42.0111
#
#
#
# Elastic Compliance Matrix: (Units=1/GPa)
#
#
# Indices 1 2 3 4 5 6 
#
# 1 0.007749 -0.001837 -0.002862 0.000000 0.000000 0.000000
# 2 -0.001837 0.013343 -0.004488 0.000000 0.000000 0.000000
# 3 -0.002862 -0.004488 0.016901 0.000000 0.000000 0.000000
# 4 0.000000 0.000000 0.000000 -0.001298 0.000000 0.000000
# 5 0.000000 0.000000 0.000000 0.000000 0.027904 0.000000
# 6 0.000000 0.000000 0.000000 0.000000 0.000000 0.023803
#
#
# Mechanical properties :
#
#
# Convention : Reuss Voigt Hill
#
# Bulk Modulus (GPa) = 50.97424 55.55463 53.26443
# Shear Modulus (GPa) = 44.12414 -124.13083 -40.00334
#
# Velocity S-wave (km/s) = 4.29202 -7.19885 -4.08669
# Velocity P-wave (km/s) = 6.77076 6.77528 0.17500
#
# Compressibility (1/GPa) = 0.01961775
#
# Stress axis : x y z
#
# Youngs Moduli (GPa) = 129.04826 74.94664 59.16838
#
# Poissons Ratio (x) = 0.13769 0.16935
# Poissons Ratio (y) = 0.23709 0.26555
# Poissons Ratio (z) = 0.36937 0.33637
#
# Static dielectric constant tensor:
#      x y z
#    x 1.936080 0.000000 0.000000 
#    y 0.000000 2.019880 0.000000 
#    z 0.000000 0.000000 1.947630 
# 
# From -- ./inp_files/24772.got.cif
#   From: 2010.05.17/outbox.cif.g08.bks.cpg/sg52_13_cif.got.tgz:24772.got - 2010.06.03 12:15:38.
