data_PCOD9410175
_publ_section_title
;
Structure prediction by ZEFSAII (Michael W. Deem and Ramdas Pophale) SiO2 
 PCOD9410175
Probable space group: P N N A
;
_chemical_formula_sum "Si O2"
_cell_formula_units_Z 48
_cell_length_a 8.614603
_cell_length_b 7.804065
_cell_length_c 30.284823
_cell_angle_alpha 90.000000
_cell_angle_beta 90.000000
_cell_angle_gamma 90.000000
_cell_volume 2036.015996
_symmetry_space_group_name_H-M "P N N A"
_symmetry_group_IT_number 52
_symmetry_cell_setting 'orthorhombic'
loop_
_space_group_symop_operation_xyz
x,y,z
1/2-x,-y,z
x,1/2-y,1/2-z
1/2-x,1/2+y,1/2-z
-x,-y,-z
1/2+x,y,-z
-x,1/2+y,1/2+z
1/2+x,1/2-y,1/2+z
loop_
_atom_site_type_symbol
_atom_site_label
_atom_site_fract_x
_atom_site_fract_y
_atom_site_fract_z
Si Si1 0.068185 0.026199 0.324219
Si Si2 0.853212 0.327081 0.104450
Si Si3 0.411333 0.174403 0.052648
Si Si4 0.416472 0.775534 0.028326
Si Si5 0.928017 0.950480 0.238228
Si Si6 0.563237 0.334981 0.355681
O O1 0.032497 0.056677 0.272478
O O2 0.979040 0.850598 0.335847
O O3 0.250000 0.000000 0.331440
O O4 0.986102 0.154034 0.358134
O O5 0.750000 0.500000 0.100298
O O6 0.732688 0.185652 0.122299
O O7 0.943573 0.285675 0.059451
O O8 0.253652 0.278714 0.044283
O O9 0.447651 0.146953 0.103577
O O10 0.405007 0.980993 0.034490
O O11 0.544652 0.261870 0.022735
O O12 0.949492 0.750000 0.250000
O O13 0.954143 0.962204 0.185644
O O14 0.750000 0.000000 0.247118
#
# Coordination Sequence:
#
# PCOD9410175 Si02
#       6
#     8   8   8   8   8   8
#     4  10  20  39  59  82 120 155 189 245 297 346
#     4  10  21  38  62  88 117 157 198 239 302 360
#     4  10  21  38  59  87 117 151 197 242 296 346
#     4  10  21  38  60  85 119 154 191 245 295 352
#     4  10  21  39  59  86 117 156 201 246 300 359
#     4  10  21  37  59  85 116 153 198 242 287 358
#
# _framework density 23.575455000000002
#
# number of rings (size 3 to 8) (size 9 to 14) (size 15 to 20)
#    0.000    2.000    0.000    4.500    2.333    1.333 
#    3.000   15.833    0.000    0.000    0.000    0.000 
#    0.000    0.000    0.000    0.000    0.000    0.000 
#
# Total GULP energy -268064.763105 kJ/mol
# GULP energy per Si atom -5584.682565 kJ/mol
# Density = 2.352180 g / cm^3
# Si number density = 23.575455 Si / 1000 Ang^3
#
#
#
# Elastic Constant Matrix: (Units=GPa)
#
#
# Indices 1 2 3 4 5 6 
#
# 1 124.1378 1.4162 39.1727 0.0000 0.0000 0.0000
# 2 1.4162 45.0271 3.4224 0.0000 0.0000 0.0000
# 3 39.1727 3.4224 127.4929 0.0000 0.0000 0.0000
# 4 0.0000 0.0000 0.0000 28.1072 0.0000 0.0000
# 5 0.0000 0.0000 0.0000 0.0000 22.6518 0.0000
# 6 0.0000 0.0000 0.0000 0.0000 0.0000 13.0294
#
#
#
# Elastic Compliance Matrix: (Units=1/GPa)
#
#
# Indices 1 2 3 4 5 6 
#
# 1 0.008921 -0.000072 -0.002739 0.000000 0.000000 0.000000
# 2 -0.000072 0.022255 -0.000575 0.000000 0.000000 0.000000
# 3 -0.002739 -0.000575 0.008701 0.000000 0.000000 0.000000
# 4 0.000000 0.000000 0.000000 0.035578 0.000000 0.000000
# 5 0.000000 0.000000 0.000000 0.000000 0.044147 0.000000
# 6 0.000000 0.000000 0.000000 0.000000 0.000000 0.076750
#
#
# Mechanical properties :
#
#
# Convention : Reuss Voigt Hill
#
# Bulk Modulus (GPa) = 30.20868 42.74226 36.47547
# Shear Modulus (GPa) = 23.34726 29.60077 26.47401
#
# Velocity S-wave (km/s) = 3.15035 3.54725 3.35468
# Velocity P-wave (km/s) = 5.10631 5.91157 5.52363
#
# Compressibility (1/GPa) = 0.03310306
#
# Stress axis : x y z
#
# Youngs Moduli (GPa) = 112.09885 44.93402 114.93494
#
# Poissons Ratio (x) = 0.00325 0.31480
# Poissons Ratio (y) = 0.00811 0.06611
# Poissons Ratio (z) = 0.30704 0.02584
#
# Static dielectric constant tensor:
#      x y z
#    x 1.908510 0.000000 0.000000 
#    y 0.000000 1.934760 0.000000 
#    z 0.000000 0.000000 1.952470 
# 
# From -- ./inp_files/44414.got.cif
#   From: 2010.05.17/outbox.cif.g08.bks.cpg/sg52_23_cif.got.tgz:44414.got - 2010.06.03 12:15:38.
