data_PCOD9410680
_publ_section_title
;
Structure prediction by ZEFSAII (Michael W. Deem and Ramdas Pophale) SiO2 
 PCOD9410680
Probable space group: P N N A
;
_chemical_formula_sum "Si O2"
_cell_formula_units_Z 40
_cell_length_a 29.439133
_cell_length_b 4.950387
_cell_length_c 11.992067
_cell_angle_alpha 90.000000
_cell_angle_beta 90.000000
_cell_angle_gamma 90.000000
_cell_volume 1747.665099
_symmetry_space_group_name_H-M "P N N A"
_symmetry_group_IT_number 52
_symmetry_cell_setting 'orthorhombic'
loop_
_space_group_symop_operation_xyz
x,y,z
1/2-x,-y,z
x,1/2-y,1/2-z
1/2-x,1/2+y,1/2-z
-x,-y,-z
1/2+x,y,-z
-x,1/2+y,1/2+z
1/2+x,1/2-y,1/2+z
loop_
_atom_site_type_symbol
_atom_site_label
_atom_site_fract_x
_atom_site_fract_y
_atom_site_fract_z
Si Si1 0.702257 0.953516 0.148261
Si Si2 0.461614 0.273061 0.121699
Si Si3 0.802705 0.502226 0.831201
Si Si4 0.150540 0.040747 0.565771
Si Si5 0.442877 0.786976 0.980022
O O1 0.717702 0.750000 0.250000
O O2 0.662477 0.762725 0.101017
O O3 0.750000 0.000000 0.084131
O O4 0.681249 0.253104 0.137814
O O5 0.448549 0.250000 0.250000
O O6 0.457027 0.576352 0.077073
O O7 0.433858 0.071292 0.040811
O O8 0.514125 0.186336 0.101823
O O9 0.750000 0.500000 0.870668
O O10 0.808132 0.750000 0.750000
O O11 0.811281 0.250000 0.750000
O O12 0.834819 0.543282 0.936692
O O13 0.099886 0.149423 0.578142
#
# Coordination Sequence:
#
# PCOD9410680 Si02
#       5
#     8   8   8   8   8
#     4  12  25  43  65  92 127 171 219 263 321 388
#     4  10  21  41  65  87 127 170 202 261 330 390
#     4  10  21  37  57  85 121 164 210 254 316 386
#     4  12  24  41  65  93 129 165 211 277 324 371
#     4  10  23  40  61  97 124 158 221 261 316 405
#
# _framework density 22.88768
#
# number of rings (size 3 to 8) (size 9 to 14) (size 15 to 20)
#    0.000    1.200    0.000    6.600    0.000    5.600 
#    0.000    0.000    0.000    0.000    0.000    0.000 
#    0.000    0.000    0.000    0.000    0.000    0.000 
#
# Total GULP energy -223278.778299 kJ/mol
# GULP energy per Si atom -5581.969457 kJ/mol
# Density = 2.283559 g / cm^3
# Si number density = 22.887680 Si / 1000 Ang^3
#
#
#
# Elastic Constant Matrix: (Units=GPa)
#
#
# Indices 1 2 3 4 5 6 
#
# 1 66.2345 -10.6353 -3.4513 0.0000 0.0000 0.0000
# 2 -10.6353 131.2417 1.5146 0.0000 0.0000 0.0000
# 3 -3.4513 1.5146 36.0528 0.0000 0.0000 0.0000
# 4 0.0000 0.0000 0.0000 19.9233 0.0000 0.0000
# 5 0.0000 0.0000 0.0000 0.0000 14.2613 0.0000
# 6 0.0000 0.0000 0.0000 0.0000 0.0000 33.9172
#
#
#
# Elastic Compliance Matrix: (Units=1/GPa)
#
#
# Indices 1 2 3 4 5 6 
#
# 1 0.015369 0.001229 0.001420 0.000000 0.000000 0.000000
# 2 0.001229 0.007722 -0.000207 0.000000 0.000000 0.000000
# 3 0.001420 -0.000207 0.027882 0.000000 0.000000 0.000000
# 4 0.000000 0.000000 0.000000 0.050193 0.000000 0.000000
# 5 0.000000 0.000000 0.000000 0.000000 0.070120 0.000000
# 6 0.000000 0.000000 0.000000 0.000000 0.000000 0.029484
#
#
# Mechanical properties :
#
#
# Convention : Reuss Voigt Hill
#
# Bulk Modulus (GPa) = 17.90305 23.15389 20.52847
# Shear Modulus (GPa) = 23.30968 30.02708 26.66838
#
# Velocity S-wave (km/s) = 3.19476 3.62599 3.41718
# Velocity P-wave (km/s) = 4.63117 5.26010 4.95563
#
# Compressibility (1/GPa) = 0.05585639
#
# Stress axis : x y z
#
# Youngs Moduli (GPa) = 65.06517 129.50824 35.86582
#
# Poissons Ratio (x) = -0.15918 -0.05092
# Poissons Ratio (y) = -0.07997 0.00741
# Poissons Ratio (z) = -0.09237 0.02677
#
# Static dielectric constant tensor:
#      x y z
#    x 1.909140 0.000000 0.000000 
#    y 0.000000 1.811390 0.000000 
#    z 0.000000 0.000000 1.850380 
# 
# From -- ./inp_files/23046.got.cif
#   From: 2010.05.17/outbox.cif.g08.bks.cpg/sg52_12_cif.got.tgz:23046.got - 2010.06.03 12:15:38.
