data_PCOD9410196
_publ_section_title
;
Structure prediction by ZEFSAII (Michael W. Deem and Ramdas Pophale) SiO2 
 PCOD9410196
Probable space group: P N N A
;
_chemical_formula_sum "Si O2"
_cell_formula_units_Z 44
_cell_length_a 5.070083
_cell_length_b 14.477464
_cell_length_c 27.971015
_cell_angle_alpha 90.000000
_cell_angle_beta 90.000000
_cell_angle_gamma 90.000000
_cell_volume 2053.126880
_symmetry_space_group_name_H-M "P N N A"
_symmetry_group_IT_number 52
_symmetry_cell_setting 'orthorhombic'
loop_
_space_group_symop_operation_xyz
x,y,z
1/2-x,-y,z
x,1/2-y,1/2-z
1/2-x,1/2+y,1/2-z
-x,-y,-z
1/2+x,y,-z
-x,1/2+y,1/2+z
1/2+x,1/2-y,1/2+z
loop_
_atom_site_type_symbol
_atom_site_label
_atom_site_fract_x
_atom_site_fract_y
_atom_site_fract_z
Si Si1 0.953258 0.162214 0.840573
Si Si2 0.750000 0.000000 0.034391
Si Si3 0.025806 0.758522 0.627406
Si Si4 0.892996 0.095095 0.293328
Si Si5 0.514826 0.250000 0.250000
Si Si6 0.250000 0.000000 0.214406
Si Si7 0.741803 0.795397 0.033817
O O1 0.744481 0.199558 0.879286
O O2 0.929178 0.058566 0.822261
O O3 0.251087 0.195045 0.847196
O O4 0.847063 0.219860 0.794884
O O5 0.758343 0.100875 0.058180
O O6 0.500000 0.000000 0.000000
O O7 0.000826 0.850228 0.660029
O O8 0.158518 0.774190 0.575623
O O9 0.689057 0.164179 0.267512
O O10 0.750000 0.000000 0.308259
O O11 0.092408 0.064454 0.251523
O O12 0.520145 0.788016 0.992694
#
# Coordination Sequence:
#
# PCOD9410196 Si02
#       7
#     8   4   8   8   4   4   8
#     4  11  23  37  58  86 128 158 207 255 305 366
#     4   8  16  30  55  82 106 140 186 232 293 378
#     4  11  25  40  60  93 123 164 209 267 309 369
#     4  11  23  39  62  88 125 169 219 254 303 374
#     4  10  20  42  56  84 124 168 208 260 308 366
#     4  12  22  38  61  92 124 180 208 252 313 374
#     4  10  20  39  63  87 120 160 201 253 325 379
#
# _framework density 21.430727999999998
#
# number of rings (size 3 to 8) (size 9 to 14) (size 15 to 20)
#    0.000    1.455    1.818    4.364    2.545    2.182 
#    0.000    1.818    0.000    1.091    0.000    0.000 
#    0.000    0.000    0.000    0.000    0.000    0.000 
#
# Total GULP energy -245394.987684 kJ/mol
# GULP energy per Si atom -5577.158811 kJ/mol
# Density = 2.138195 g / cm^3
# Si number density = 21.430728 Si / 1000 Ang^3
#
#
#
# Elastic Constant Matrix: (Units=GPa)
#
#
# Indices 1 2 3 4 5 6 
#
# 1 79.2996 22.9076 -8.6944 0.0000 0.0000 0.0000
# 2 22.9076 102.1686 27.0468 0.0000 0.0000 0.0000
# 3 -8.6944 27.0468 59.8057 0.0000 0.0000 0.0000
# 4 0.0000 0.0000 0.0000 30.3874 0.0000 0.0000
# 5 0.0000 0.0000 0.0000 0.0000 22.7691 0.0000
# 6 0.0000 0.0000 0.0000 0.0000 0.0000 34.8511
#
#
#
# Elastic Compliance Matrix: (Units=1/GPa)
#
#
# Indices 1 2 3 4 5 6 
#
# 1 0.014280 -0.004262 0.004003 0.000000 0.000000 0.000000
# 2 -0.004262 0.012391 -0.006223 0.000000 0.000000 0.000000
# 3 0.004003 -0.006223 0.020117 0.000000 0.000000 0.000000
# 4 0.000000 0.000000 0.000000 0.032908 0.000000 0.000000
# 5 0.000000 0.000000 0.000000 0.000000 0.043919 0.000000
# 6 0.000000 0.000000 0.000000 0.000000 0.000000 0.028694
#
#
# Mechanical properties :
#
#
# Convention : Reuss Voigt Hill
#
# Bulk Modulus (GPa) = 29.56359 35.97710 32.77034
# Shear Modulus (GPa) = 28.32100 30.93578 29.62839
#
# Velocity S-wave (km/s) = 3.63921 3.80350 3.72226
# Velocity P-wave (km/s) = 5.61100 6.00940 5.81361
#
# Compressibility (1/GPa) = 0.03382540
#
# Stress axis : x y z
#
# Youngs Moduli (GPa) = 70.02592 80.70560 49.70864
#
# Poissons Ratio (x) = 0.34394 -0.19900
# Poissons Ratio (y) = 0.29843 0.30935
# Poissons Ratio (z) = -0.28034 0.50225
#
# Static dielectric constant tensor:
#      x y z
#    x 1.809740 0.000000 0.000000 
#    y 0.000000 1.836780 0.000000 
#    z 0.000000 0.000000 1.819600 
# 
# From -- ./inp_files/41655.got.cif
#   From: 2010.05.17/outbox.cif.g08.bks.cpg/sg52_21_cif.got.tgz:41655.got - 2010.06.03 12:15:38.
