data_PCOD9410039
_publ_section_title
;
Structure prediction by ZEFSAII (Michael W. Deem and Ramdas Pophale) SiO2 
 PCOD9410039
Probable space group: P N N A
;
_chemical_formula_sum "Si O2"
_cell_formula_units_Z 40
_cell_length_a 14.962490
_cell_length_b 10.013446
_cell_length_c 13.447320
_cell_angle_alpha 90.000000
_cell_angle_beta 90.000000
_cell_angle_gamma 90.000000
_cell_volume 2014.759318
_symmetry_space_group_name_H-M "P N N A"
_symmetry_group_IT_number 52
_symmetry_cell_setting 'orthorhombic'
loop_
_space_group_symop_operation_xyz
x,y,z
1/2-x,-y,z
x,1/2-y,1/2-z
1/2-x,1/2+y,1/2-z
-x,-y,-z
1/2+x,y,-z
-x,1/2+y,1/2+z
1/2+x,1/2-y,1/2+z
loop_
_atom_site_type_symbol
_atom_site_label
_atom_site_fract_x
_atom_site_fract_y
_atom_site_fract_z
Si Si1 0.143158 0.498913 0.533662
Si Si2 0.940328 0.990401 0.596641
Si Si3 0.140171 0.776347 0.103214
Si Si4 0.651797 0.279605 0.635168
Si Si5 0.972571 0.892990 0.215894
O O1 0.250000 0.500000 0.551714
O O2 0.122837 0.650210 0.501204
O O3 0.121953 0.400998 0.438346
O O4 0.087201 0.453659 0.628592
O O5 0.882031 0.857563 0.587618
O O6 0.877852 0.120334 0.600605
O O7 0.004690 0.007957 0.693271
O O8 0.000000 0.000000 0.500000
O O9 0.241401 0.799890 0.136290
O O10 0.068831 0.848428 0.173311
O O11 0.623807 0.250000 0.750000
O O12 0.931508 0.750000 0.250000
#
# Coordination Sequence:
#
# PCOD9410039 Si02
#       5
#     8   8   8   8   8
#     4  10  22  40  61  86 119 160 200 243 298 370
#     4  11  23  37  56  85 117 152 194 247 299 354
#     4  10  21  37  60  85 116 152 190 243 307 361
#     4  11  21  36  60  90 116 146 196 253 302 352
#     4  10  20  38  61  84 117 160 200 244 301 361
#
# _framework density 19.853487000000001
#
# number of rings (size 3 to 8) (size 9 to 14) (size 15 to 20)
#    0.000    1.600    0.000    6.600    0.000    4.800 
#    0.000    6.000    0.000    0.000    0.000    0.000 
#    0.000    0.000    0.000    0.000    0.000    0.000 
#
# Total GULP energy -223057.570296 kJ/mol
# GULP energy per Si atom -5576.439257 kJ/mol
# Density = 1.980830 g / cm^3
# Si number density = 19.853487 Si / 1000 Ang^3
#
#
#
# Elastic Constant Matrix: (Units=GPa)
#
#
# Indices 1 2 3 4 5 6 
#
# 1 54.6475 22.1429 34.0148 0.0000 0.0000 0.0000
# 2 22.1429 94.6452 21.3084 0.0000 0.0000 0.0000
# 3 34.0148 21.3084 76.0444 0.0000 0.0000 0.0000
# 4 0.0000 0.0000 0.0000 29.7498 0.0000 0.0000
# 5 0.0000 0.0000 0.0000 0.0000 10.6468 0.0000
# 6 0.0000 0.0000 0.0000 0.0000 0.0000 24.2250
#
#
#
# Elastic Compliance Matrix: (Units=1/GPa)
#
#
# Indices 1 2 3 4 5 6 
#
# 1 0.026568 -0.003779 -0.010825 0.000000 0.000000 0.000000
# 2 -0.003779 0.011815 -0.001620 0.000000 0.000000 0.000000
# 3 -0.010825 -0.001620 0.018446 0.000000 0.000000 0.000000
# 4 0.000000 0.000000 0.000000 0.033614 0.000000 0.000000
# 5 0.000000 0.000000 0.000000 0.000000 0.093925 0.000000
# 6 0.000000 0.000000 0.000000 0.000000 0.000000 0.041280
#
#
# Mechanical properties :
#
#
# Convention : Reuss Voigt Hill
#
# Bulk Modulus (GPa) = 41.01591 42.25216 41.63403
# Shear Modulus (GPa) = 18.78126 22.78238 20.78182
#
# Velocity S-wave (km/s) = 3.07904 3.39119 3.23888
# Velocity P-wave (km/s) = 5.77449 6.05489 5.91635
#
# Compressibility (1/GPa) = 0.02438078
#
# Stress axis : x y z
#
# Youngs Moduli (GPa) = 37.63896 84.64082 54.21119
#
# Poissons Ratio (x) = 0.31983 0.58685
# Poissons Ratio (y) = 0.14222 0.08784
# Poissons Ratio (z) = 0.40745 0.13715
#
# Static dielectric constant tensor:
#      x y z
#    x 1.750020 0.000000 0.000000 
#    y 0.000000 1.730800 0.000000 
#    z 0.000000 0.000000 1.750070 
# 
# From -- ./inp_files/19238.got.cif
#   From: 2010.05.17/outbox.cif.g08.bks.cpg/sg52_10_cif.got.tgz:19238.got - 2010.06.03 12:15:38.
