data_PCOD9410405
_publ_section_title
;
Structure prediction by ZEFSAII (Michael W. Deem and Ramdas Pophale) SiO2 
 PCOD9410405
Probable space group: P N N A
;
_chemical_formula_sum "Si O2"
_cell_formula_units_Z 36
_cell_length_a 10.553701
_cell_length_b 12.020204
_cell_length_c 13.382044
_cell_angle_alpha 90.000000
_cell_angle_beta 90.000000
_cell_angle_gamma 90.000000
_cell_volume 1697.614506
_symmetry_space_group_name_H-M "P N N A"
_symmetry_group_IT_number 52
_symmetry_cell_setting 'orthorhombic'
loop_
_space_group_symop_operation_xyz
x,y,z
1/2-x,-y,z
x,1/2-y,1/2-z
1/2-x,1/2+y,1/2-z
-x,-y,-z
1/2+x,y,-z
-x,1/2+y,1/2+z
1/2+x,1/2-y,1/2+z
loop_
_atom_site_type_symbol
_atom_site_label
_atom_site_fract_x
_atom_site_fract_y
_atom_site_fract_z
Si Si1 0.750000 0.500000 0.468574
Si Si2 0.870471 0.629090 0.766958
Si Si3 0.370849 0.927210 0.497974
Si Si4 0.894413 0.081015 0.843579
Si Si5 0.358474 0.715003 0.641837
O O1 0.859649 0.460905 0.545683
O O2 0.711545 0.391970 0.405385
O O3 0.928148 0.750000 0.750000
O O4 0.943885 0.525061 0.719399
O O5 0.735305 0.622233 0.709049
O O6 0.851766 0.609937 0.883469
O O7 0.367136 0.819094 0.567549
O O8 0.250000 0.000000 0.527799
O O9 0.500000 0.000000 0.500000
O O10 0.997739 0.174761 0.843779
O O11 0.305785 0.750000 0.750000
#
# Coordination Sequence:
#
# PCOD9410405 Si02
#       5
#     4   8   8   8   8
#     4  10  24  44  66 102 138 182 244 294 378 416
#     4  10  20  41  75 102 131 177 249 298 348 431
#     4  12  27  47  73 112 145 186 242 309 370 424
#     4  10  21  43  71  98 131 184 247 289 360 433
#     4  12  27  43  68  96 147 192 235 295 359 446
#
# _framework density 21.206227999999999
#
# number of rings (size 3 to 8) (size 9 to 14) (size 15 to 20)
#    0.000    1.333    2.222    5.333    7.778    0.000 
#    0.000    0.000    0.000    0.000    0.000    0.000 
#    0.000    0.000    0.000    0.000    0.000    0.000 
#
# Total GULP energy -201299.905021 kJ/mol
# GULP energy per Si atom -5591.664028 kJ/mol
# Density = 2.115796 g / cm^3
# Si number density = 21.206228 Si / 1000 Ang^3
#
#
#
# Elastic Constant Matrix: (Units=GPa)
#
#
# Indices 1 2 3 4 5 6 
#
# 1 68.6812 59.4509 34.2722 0.0000 0.0000 0.0000
# 2 59.4509 186.8972 101.8726 0.0000 0.0000 0.0000
# 3 34.2722 101.8726 175.1120 0.0000 0.0000 0.0000
# 4 0.0000 0.0000 0.0000 57.6140 0.0000 0.0000
# 5 0.0000 0.0000 0.0000 0.0000 48.1880 0.0000
# 6 0.0000 0.0000 0.0000 0.0000 0.0000 37.6561
#
#
#
# Elastic Compliance Matrix: (Units=1/GPa)
#
#
# Indices 1 2 3 4 5 6 
#
# 1 0.020104 -0.006224 -0.000314 0.000000 0.000000 0.000000
# 2 -0.006224 0.009762 -0.004461 0.000000 0.000000 0.000000
# 3 -0.000314 -0.004461 0.008367 0.000000 0.000000 0.000000
# 4 0.000000 0.000000 0.000000 0.017357 0.000000 0.000000
# 5 0.000000 0.000000 0.000000 0.000000 0.020752 0.000000
# 6 0.000000 0.000000 0.000000 0.000000 0.000000 0.026556
#
#
# Mechanical properties :
#
#
# Convention : Reuss Voigt Hill
#
# Bulk Modulus (GPa) = 61.59237 91.32020 76.45629
# Shear Modulus (GPa) = 38.37077 44.36461 41.36769
#
# Velocity S-wave (km/s) = 4.25833 4.57886 4.42150
# Velocity P-wave (km/s) = 7.29968 8.43274 7.88658
#
# Compressibility (1/GPa) = 0.01623578
#
# Stress axis : x y z
#
# Youngs Moduli (GPa) = 49.74108 102.43978 119.51387
#
# Poissons Ratio (x) = 0.63757 0.03752
# Poissons Ratio (y) = 0.30958 0.53314
# Poissons Ratio (z) = 0.01561 0.45697
#
# Static dielectric constant tensor:
#      x y z
#    x 1.809970 0.000000 0.000000 
#    y 0.000000 1.815180 0.000000 
#    z 0.000000 0.000000 1.751680 
# 
# From -- ./inp_files/17759.got.cif
#   From: 2010.05.17/outbox.cif.g08.bks.cpg/sg52_9_cif.got.tgz:17759.got - 2010.06.03 12:15:38.
