data_PCOD9410799
_publ_section_title
;
Structure prediction by ZEFSAII (Michael W. Deem and Ramdas Pophale) SiO2 
 PCOD9410799
Probable space group: P N N A
;
_chemical_formula_sum "Si O2"
_cell_formula_units_Z 32
_cell_length_a 9.574621
_cell_length_b 14.738285
_cell_length_c 7.849402
_cell_angle_alpha 90.000000
_cell_angle_beta 90.000000
_cell_angle_gamma 90.000000
_cell_volume 1107.656535
_symmetry_space_group_name_H-M "P N N A"
_symmetry_group_IT_number 52
_symmetry_cell_setting 'orthorhombic'
loop_
_space_group_symop_operation_xyz
x,y,z
1/2-x,-y,z
x,1/2-y,1/2-z
1/2-x,1/2+y,1/2-z
-x,-y,-z
1/2+x,y,-z
-x,1/2+y,1/2+z
1/2+x,1/2-y,1/2+z
loop_
_atom_site_type_symbol
_atom_site_label
_atom_site_fract_x
_atom_site_fract_y
_atom_site_fract_z
Si Si1 0.057556 0.131009 0.462201
Si Si2 0.877286 0.359830 0.716495
Si Si3 0.382591 0.658331 0.478381
Si Si4 0.208985 0.596624 0.775357
O O1 0.073938 0.238889 0.440071
O O2 0.205230 0.103095 0.545732
O O3 0.957040 0.102628 0.620956
O O4 0.955045 0.103835 0.308336
O O5 0.878039 0.250000 0.750000
O O6 0.717890 0.382331 0.668426
O O7 0.979305 0.384854 0.560012
O O8 0.275133 0.665840 0.640286
O O9 0.250000 0.500000 0.699276
#
# Coordination Sequence:
#
# PCOD9410799 Si02
#       4
#     8   8   8   8
#     4  10  21  39  62  91 124 164 217 260 310 389
#     4   9  19  34  55  86 115 146 199 256 299 357
#     4  10  21  38  60  88 120 158 207 260 310 370
#     4  11  23  41  62  91 128 166 208 266 325 374
#
# _framework density 28.889821000000001
#
# number of rings (size 3 to 8) (size 9 to 14) (size 15 to 20)
#    0.000    2.000    0.000    6.000    0.000    4.000 
#    0.000    6.250    0.000    0.000    0.000    0.000 
#    0.000    0.000    0.000    0.000    0.000    0.000 
#
# Total GULP energy -179075.238980 kJ/mol
# GULP energy per Si atom -5596.101218 kJ/mol
# Density = 2.882407 g / cm^3
# Si number density = 28.889821 Si / 1000 Ang^3
#
#
#
# Elastic Constant Matrix: (Units=GPa)
#
#
# Indices 1 2 3 4 5 6 
#
# 1 259.6705 -1.6873 23.9007 0.0000 0.0000 0.0000
# 2 -1.6873 64.5155 -2.4086 0.0000 0.0000 0.0000
# 3 23.9007 -2.4086 110.4634 0.0000 0.0000 0.0000
# 4 0.0000 0.0000 0.0000 16.3172 0.0000 0.0000
# 5 0.0000 0.0000 0.0000 0.0000 57.5753 0.0000
# 6 0.0000 0.0000 0.0000 0.0000 0.0000 19.2274
#
#
#
# Elastic Compliance Matrix: (Units=1/GPa)
#
#
# Indices 1 2 3 4 5 6 
#
# 1 0.003930 0.000071 -0.000849 0.000000 0.000000 0.000000
# 2 0.000071 0.015514 0.000323 0.000000 0.000000 0.000000
# 3 -0.000849 0.000323 0.009243 0.000000 0.000000 0.000000
# 4 0.000000 0.000000 0.000000 0.061285 0.000000 0.000000
# 5 0.000000 0.000000 0.000000 0.000000 0.017369 0.000000
# 6 0.000000 0.000000 0.000000 0.000000 0.000000 0.052009
#
#
# Mechanical properties :
#
#
# Convention : Reuss Voigt Hill
#
# Bulk Modulus (GPa) = 36.00010 52.69545 44.34777
# Shear Modulus (GPa) = 29.49532 46.28030 37.88781
#
# Velocity S-wave (km/s) = 3.19871 4.00679 3.62534
# Velocity P-wave (km/s) = 5.11181 6.29965 5.73655
#
# Compressibility (1/GPa) = 0.02777770
#
# Stress axis : x y z
#
# Youngs Moduli (GPa) = 254.47809 64.45765 108.18484
#
# Poissons Ratio (x) = -0.00458 0.09182
# Poissons Ratio (y) = -0.01809 -0.03493
# Poissons Ratio (z) = 0.21597 -0.02081
#
# Static dielectric constant tensor:
#      x y z
#    x 2.173150 0.000000 0.000000 
#    y 0.000000 2.243630 0.000000 
#    z 0.000000 0.000000 2.428420 
# 
# From -- ./inp_files/16580.got.cif
#   From: 2010.05.17/outbox.cif.g08.bks.cpg/sg52_9_cif.got.tgz:16580.got - 2010.06.03 12:15:38.
