data_PCOD9410227
_publ_section_title
;
Structure prediction by ZEFSAII (Michael W. Deem and Ramdas Pophale) SiO2 
 PCOD9410227
Probable space group: P N N A
;
_chemical_formula_sum "Si O2"
_cell_formula_units_Z 48
_cell_length_a 19.405043
_cell_length_b 14.895546
_cell_length_c 8.149825
_cell_angle_alpha 90.000000
_cell_angle_beta 90.000000
_cell_angle_gamma 90.000000
_cell_volume 2355.696408
_symmetry_space_group_name_H-M "P N N A"
_symmetry_group_IT_number 52
_symmetry_cell_setting 'orthorhombic'
loop_
_space_group_symop_operation_xyz
x,y,z
1/2-x,-y,z
x,1/2-y,1/2-z
1/2-x,1/2+y,1/2-z
-x,-y,-z
1/2+x,y,-z
-x,1/2+y,1/2+z
1/2+x,1/2-y,1/2+z
loop_
_atom_site_type_symbol
_atom_site_label
_atom_site_fract_x
_atom_site_fract_y
_atom_site_fract_z
Si Si1 0.186337 0.750000 0.250000
Si Si2 0.135721 0.408134 0.903001
Si Si3 0.037431 0.457764 0.160281
Si Si4 0.727298 0.810673 0.404877
Si Si5 0.099566 0.598154 0.748643
Si Si6 0.926266 0.374591 0.623551
Si Si7 0.043238 0.250000 0.750000
O O1 0.227360 0.761900 0.419305
O O2 0.134705 0.665480 0.264902
O O3 0.216381 0.388813 0.905179
O O4 0.117642 0.494733 0.792156
O O5 0.091497 0.323204 0.838269
O O6 0.109025 0.424885 0.087788
O O7 0.048311 0.531611 0.300276
O O8 0.981063 0.385897 0.214997
O O9 0.000000 0.500000 0.000000
O O10 0.747499 0.750000 0.250000
O O11 0.650669 0.844441 0.360426
O O12 0.105656 0.616088 0.556406
O O13 0.990743 0.305926 0.633340
#
# Coordination Sequence:
#
# PCOD9410227 Si02
#       7
#     4   8   8   8   8   8   4
#     4  11  24  44  70  96 135 178 226 280 341 412
#     4  11  24  44  66  93 142 178 228 286 348 405
#     4  10  20  39  65  97 129 171 228 282 337 399
#     4  12  25  47  67  99 138 183 230 279 345 414
#     4  11  23  42  71 100 132 185 230 282 341 424
#     4  11  22  40  69 101 132 174 236 280 346 412
#     4  11  22  38  66  96 139 178 216 300 343 394
#
# _framework density 20.376138999999998
#
# number of rings (size 3 to 8) (size 9 to 14) (size 15 to 20)
#    0.000    1.000    5.833    3.000    2.333    0.000 
#    6.000    0.000    0.000    0.000    0.000    0.000 
#    0.000    0.000    0.000    0.000    0.000    0.000 
#
# Total GULP energy -267907.043061 kJ/mol
# GULP energy per Si atom -5581.396730 kJ/mol
# Density = 2.032976 g / cm^3
# Si number density = 20.376139 Si / 1000 Ang^3
#
#
#
# Elastic Constant Matrix: (Units=GPa)
#
#
# Indices 1 2 3 4 5 6 
#
# 1 59.3149 18.6680 28.6018 0.0000 0.0000 0.0000
# 2 18.6680 57.4155 21.3346 0.0000 0.0000 0.0000
# 3 28.6018 21.3346 120.5919 0.0000 0.0000 0.0000
# 4 0.0000 0.0000 0.0000 27.3284 0.0000 0.0000
# 5 0.0000 0.0000 0.0000 0.0000 -3.1018 0.0000
# 6 0.0000 0.0000 0.0000 0.0000 0.0000 34.2849
#
#
#
# Elastic Compliance Matrix: (Units=1/GPa)
#
#
# Indices 1 2 3 4 5 6 
#
# 1 0.020375 -0.005169 -0.003918 0.000000 0.000000 0.000000
# 2 -0.005169 0.019954 -0.002304 0.000000 0.000000 0.000000
# 3 -0.003918 -0.002304 0.009629 0.000000 0.000000 0.000000
# 4 0.000000 0.000000 0.000000 0.036592 0.000000 0.000000
# 5 0.000000 0.000000 0.000000 0.000000 -0.322393 0.000000
# 6 0.000000 0.000000 0.000000 0.000000 0.000000 0.029167
#
#
# Mechanical properties :
#
#
# Convention : Reuss Voigt Hill
#
# Bulk Modulus (GPa) = 36.79717 41.61455 39.20586
# Shear Modulus (GPa) = -28.59852 22.95017 -2.82418
#
# Velocity S-wave (km/s) = -3.75044 3.35972 -1.17857
# Velocity P-wave (km/s) = 0.81006 5.95968 4.17502
#
# Compressibility (1/GPa) = 0.02717600
#
# Stress axis : x y z
#
# Youngs Moduli (GPa) = 49.07908 50.11604 103.84892
#
# Poissons Ratio (x) = 0.25904 0.40689
# Poissons Ratio (y) = 0.25368 0.23929
# Poissons Ratio (z) = 0.19230 0.11548
#
# Static dielectric constant tensor:
#      x y z
#    x 1.752010 0.000000 0.000000 
#    y 0.000000 1.754400 0.000000 
#    z 0.000000 0.000000 1.750650 
# 
# From -- ./inp_files/13315.got.cif
#   From: 2010.05.17/outbox.cif.g08.bks.cpg/sg52_7_cif.got.tgz:13315.got - 2010.06.03 12:15:38.
