data_PCOD9410268
_publ_section_title
;
Structure prediction by ZEFSAII (Michael W. Deem and Ramdas Pophale) SiO2 
 PCOD9410268
Probable space group: P N N A
;
_chemical_formula_sum "Si O2"
_cell_formula_units_Z 48
_cell_length_a 13.118668
_cell_length_b 16.017071
_cell_length_c 11.314040
_cell_angle_alpha 90.000000
_cell_angle_beta 90.000000
_cell_angle_gamma 90.000000
_cell_volume 2377.335917
_symmetry_space_group_name_H-M "P N N A"
_symmetry_group_IT_number 52
_symmetry_cell_setting 'orthorhombic'
loop_
_space_group_symop_operation_xyz
x,y,z
1/2-x,-y,z
x,1/2-y,1/2-z
1/2-x,1/2+y,1/2-z
-x,-y,-z
1/2+x,y,-z
-x,1/2+y,1/2+z
1/2+x,1/2-y,1/2+z
loop_
_atom_site_type_symbol
_atom_site_label
_atom_site_fract_x
_atom_site_fract_y
_atom_site_fract_z
Si Si1 0.159950 0.750000 0.250000
Si Si2 0.204884 0.408700 0.641194
Si Si3 0.488980 0.401633 0.218925
Si Si4 0.649896 0.443582 0.818921
Si Si5 0.769732 0.750000 0.250000
Si Si6 0.170622 0.179153 0.102502
Si Si7 0.395646 0.822355 0.523465
O O1 0.090924 0.667661 0.263489
O O2 0.235211 0.759645 0.137377
O O3 0.250000 0.500000 0.656469
O O4 0.274785 0.337106 0.703099
O O5 0.195514 0.383405 0.504199
O O6 0.092388 0.403254 0.702603
O O7 0.442448 0.492848 0.204000
O O8 0.511982 0.365598 0.089216
O O9 0.750000 0.500000 0.807309
O O10 0.647497 0.373880 0.717592
O O11 0.651102 0.395840 0.943917
O O12 0.831544 0.781516 0.367419
O O13 0.083688 0.242873 0.059317
#
# Coordination Sequence:
#
# PCOD9410268 Si02
#       7
#     4   8   8   8   4   8   8
#     4  12  21  42  66  97 128 178 223 280 334 395
#     4  10  22  42  66  97 137 180 224 279 340 404
#     4  11  24  41  66  98 133 181 228 271 339 409
#     4  12  22  39  64 101 133 172 226 280 332 395
#     4   8  19  38  64  87 124 174 221 264 328 393
#     4  11  21  40  66  94 131 172 222 277 337 394
#     4  10  20  40  60  90 128 171 213 274 322 396
#
# _framework density 20.190667000000001
#
# number of rings (size 3 to 8) (size 9 to 14) (size 15 to 20)
#    0.000    1.333    3.333    4.000    0.000    3.333 
#    3.000    5.000    0.000    0.000    0.000    0.000 
#    0.000    0.000    0.000    0.000    0.000    0.000 
#
# Total GULP energy -267285.782658 kJ/mol
# GULP energy per Si atom -5568.453805 kJ/mol
# Density = 2.014471 g / cm^3
# Si number density = 20.190667 Si / 1000 Ang^3
#
#
#
# Elastic Constant Matrix: (Units=GPa)
#
#
# Indices 1 2 3 4 5 6 
#
# 1 48.1857 30.1978 24.2134 0.0000 0.0000 0.0000
# 2 30.1978 133.3441 43.6375 0.0000 0.0000 0.0000
# 3 24.2134 43.6375 96.1453 0.0000 0.0000 0.0000
# 4 0.0000 0.0000 0.0000 44.4062 0.0000 0.0000
# 5 0.0000 0.0000 0.0000 0.0000 3.8932 0.0000
# 6 0.0000 0.0000 0.0000 0.0000 0.0000 28.6191
#
#
#
# Elastic Compliance Matrix: (Units=1/GPa)
#
#
# Indices 1 2 3 4 5 6 
#
# 1 0.025748 -0.004356 -0.004507 0.000000 0.000000 0.000000
# 2 -0.004356 0.009545 -0.003235 0.000000 0.000000 0.000000
# 3 -0.004507 -0.003235 0.013004 0.000000 0.000000 0.000000
# 4 0.000000 0.000000 0.000000 0.022519 0.000000 0.000000
# 5 0.000000 0.000000 0.000000 0.000000 0.256855 0.000000
# 6 0.000000 0.000000 0.000000 0.000000 0.000000 0.034942
#
#
# Mechanical properties :
#
#
# Convention : Reuss Voigt Hill
#
# Bulk Modulus (GPa) = 41.49348 52.64138 47.06743
# Shear Modulus (GPa) = 12.66326 27.35881 20.01104
#
# Velocity S-wave (km/s) = 2.50708 3.68506 3.15159
# Velocity P-wave (km/s) = 5.38294 6.65093 6.05025
#
# Compressibility (1/GPa) = 0.02410017
#
# Stress axis : x y z
#
# Youngs Moduli (GPa) = 38.83823 104.77222 76.89759
#
# Poissons Ratio (x) = 0.45638 0.34660
# Poissons Ratio (y) = 0.16918 0.24876
# Poissons Ratio (z) = 0.17506 0.33893
#
# Static dielectric constant tensor:
#      x y z
#    x 1.753400 0.000000 0.000000 
#    y 0.000000 1.832940 0.000000 
#    z 0.000000 0.000000 1.742390 
# 
# From -- ./inp_files/19570.got.cif
#   From: 2010.05.17/outbox.cif.g08.bks.cpg/sg52_10_cif.got.tgz:19570.got - 2010.06.03 12:15:38.
