data_PCOD9410387
_publ_section_title
;
Structure prediction by ZEFSAII (Michael W. Deem and Ramdas Pophale) SiO2 
 PCOD9410387
Probable space group: P N N A
;
_chemical_formula_sum "Si O2"
_cell_formula_units_Z 48
_cell_length_a 25.630915
_cell_length_b 14.816415
_cell_length_c 5.885021
_cell_angle_alpha 90.000000
_cell_angle_beta 90.000000
_cell_angle_gamma 90.000000
_cell_volume 2234.885414
_symmetry_space_group_name_H-M "P N N A"
_symmetry_group_IT_number 52
_symmetry_cell_setting 'orthorhombic'
loop_
_space_group_symop_operation_xyz
x,y,z
1/2-x,-y,z
x,1/2-y,1/2-z
1/2-x,1/2+y,1/2-z
-x,-y,-z
1/2+x,y,-z
-x,1/2+y,1/2+z
1/2+x,1/2-y,1/2+z
loop_
_atom_site_type_symbol
_atom_site_label
_atom_site_fract_x
_atom_site_fract_y
_atom_site_fract_z
Si Si1 0.317216 0.843410 0.357603
Si Si2 0.540691 0.955805 0.670853
Si Si3 0.750000 0.000000 0.509994
Si Si4 0.102506 0.750000 0.750000
Si Si5 0.861849 0.444240 0.163774
Si Si6 0.619756 0.250000 0.250000
Si Si7 0.406327 0.913068 0.021159
Si Si8 0.045184 0.750000 0.250000
O O1 0.299846 0.750000 0.250000
O O2 0.343248 0.814036 0.596842
O O3 0.363102 0.886702 0.208367
O O4 0.270000 0.912589 0.358612
O O5 0.598012 0.948294 0.550137
O O6 0.524106 0.854195 0.738881
O O7 0.500000 0.000000 0.500000
O O8 0.547619 0.031827 0.863010
O O9 0.697576 0.970927 0.381977
O O10 0.134975 0.657866 0.750543
O O11 0.072096 0.747764 0.505613
O O12 0.883573 0.515635 0.343298
O O13 0.585185 0.316390 0.402445
#
# Coordination Sequence:
#
# PCOD9410387 Si02
#       8
#     8   8   4   4   8   4   8   4
#     4  10  23  41  64  96 143 186 242 296 363 438
#     4  11  24  46  76 104 147 193 243 315 379 451
#     4  12  22  44  66 102 142 188 246 298 370 436
#     4  10  22  45  74 103 150 193 244 305 382 446
#     4  11  24  44  69 101 145 187 244 306 367 447
#     4  10  20  41  67  94 148 182 244 298 358 446
#     4  11  20  44  70 101 141 191 238 305 363 447
#     4  10  22  46  75 107 148 193 254 309 376 470
#
# _framework density 21.477613000000002
#
# number of rings (size 3 to 8) (size 9 to 14) (size 15 to 20)
#    0.000    1.333    5.000    0.000    0.000    2.000 
#    9.000    6.667   12.833    0.000    0.000    0.000 
#    0.000    0.000    0.000    0.000    0.000    0.000 
#
# Total GULP energy -267639.965290 kJ/mol
# GULP energy per Si atom -5575.832610 kJ/mol
# Density = 2.142873 g / cm^3
# Si number density = 21.477613 Si / 1000 Ang^3
#
#
#
# Elastic Constant Matrix: (Units=GPa)
#
#
# Indices 1 2 3 4 5 6 
#
# 1 95.7390 43.5819 38.1695 0.0000 0.0000 0.0000
# 2 43.5819 211.2316 41.3113 0.0000 0.0000 0.0000
# 3 38.1695 41.3113 79.0773 0.0000 0.0000 0.0000
# 4 0.0000 0.0000 0.0000 54.2261 0.0000 0.0000
# 5 0.0000 0.0000 0.0000 0.0000 6.5869 0.0000
# 6 0.0000 0.0000 0.0000 0.0000 0.0000 6.2335
#
#
#
# Elastic Compliance Matrix: (Units=1/GPa)
#
#
# Indices 1 2 3 4 5 6 
#
# 1 0.013447 -0.001676 -0.005615 0.000000 0.000000 0.000000
# 2 -0.001676 0.005482 -0.002055 0.000000 0.000000 0.000000
# 3 -0.005615 -0.002055 0.016429 0.000000 0.000000 0.000000
# 4 0.000000 0.000000 0.000000 0.018441 0.000000 0.000000
# 5 0.000000 0.000000 0.000000 0.000000 0.151817 0.000000
# 6 0.000000 0.000000 0.000000 0.000000 0.000000 0.160424
#
#
# Mechanical properties :
#
#
# Convention : Reuss Voigt Hill
#
# Bulk Modulus (GPa) = 60.00087 70.24147 65.12117
# Shear Modulus (GPa) = 12.81108 30.94163 21.87636
#
# Velocity S-wave (km/s) = 2.44495 3.79970 3.19496
# Velocity P-wave (km/s) = 5.99729 7.21289 6.63300
#
# Compressibility (1/GPa) = 0.01666643
#
# Stress axis : x y z
#
# Youngs Moduli (GPa) = 74.36798 182.42070 60.86633
#
# Poissons Ratio (x) = 0.30578 0.34175
# Poissons Ratio (y) = 0.12466 0.12506
# Poissons Ratio (z) = 0.41756 0.37482
#
# Static dielectric constant tensor:
#      x y z
#    x 1.792200 0.000000 0.000000 
#    y 0.000000 1.802620 0.000000 
#    z 0.000000 0.000000 1.895820 
# 
# From -- ./inp_files/5868.got.cif
#   From: 2010.05.17/outbox.cif.g08.bks.cpg/sg52_3_cif.got.tgz:5868.got - 2010.06.03 12:15:38.
