data_PCOD9410255
_publ_section_title
;
Structure prediction by ZEFSAII (Michael W. Deem and Ramdas Pophale) SiO2 
 PCOD9410255
Probable space group: P N N A
;
_chemical_formula_sum "Si O2"
_cell_formula_units_Z 56
_cell_length_a 14.240374
_cell_length_b 14.669577
_cell_length_c 10.546166
_cell_angle_alpha 90.000000
_cell_angle_beta 90.000000
_cell_angle_gamma 90.000000
_cell_volume 2203.096850
_symmetry_space_group_name_H-M "P N N A"
_symmetry_group_IT_number 52
_symmetry_cell_setting 'orthorhombic'
loop_
_space_group_symop_operation_xyz
x,y,z
1/2-x,-y,z
x,1/2-y,1/2-z
1/2-x,1/2+y,1/2-z
-x,-y,-z
1/2+x,y,-z
-x,1/2+y,1/2+z
1/2+x,1/2-y,1/2+z
loop_
_atom_site_type_symbol
_atom_site_label
_atom_site_fract_x
_atom_site_fract_y
_atom_site_fract_z
Si Si1 0.425148 0.279409 0.437781
Si Si2 0.142742 0.972628 0.023248
Si Si3 0.972758 0.154407 0.332499
Si Si4 0.223078 0.220182 0.422226
Si Si5 0.267727 0.351203 0.805834
Si Si6 0.111236 0.141767 0.896328
Si Si7 0.843484 0.949806 0.697441
O O1 0.389657 0.371627 0.508287
O O2 0.458236 0.200109 0.530763
O O3 0.326641 0.249149 0.383722
O O4 0.516014 0.307718 0.359451
O O5 0.250000 0.000000 0.985951
O O6 0.142905 0.993989 0.173037
O O7 0.081186 0.046759 0.953998
O O8 0.992505 0.250000 0.250000
O O9 0.049567 0.073915 0.343729
O O10 0.872061 0.109072 0.297395
O O11 0.235166 0.156720 0.548942
O O12 0.161744 0.301515 0.487482
O O13 0.186604 0.157048 0.308716
O O14 0.284736 0.250000 0.750000
O O15 0.181747 0.378930 0.717674
O O16 0.750000 0.000000 0.639384
#
# Coordination Sequence:
#
# PCOD9410255 Si02
#       7
#     8   8   8   8   8   8   8
#     4  11  22  41  70 105 141 191 246 306 374 466
#     4  11  24  40  63 107 145 180 238 312 371 431
#     4  10  20  39  73 101 133 198 244 297 387 457
#     4  10  21  43  70  96 138 194 242 295 372 458
#     4   8  19  38  67  99 131 174 242 304 357 445
#     4  11  20  40  72 101 145 182 241 312 383 443
#     4  11  25  43  67  97 141 190 247 305 361 452
#
# _framework density 25.418765
#
# number of rings (size 3 to 8) (size 9 to 14) (size 15 to 20)
#    0.000    1.714    2.857    2.143    0.000    0.000 
#    0.000   12.143    3.143    0.000    0.000    0.000 
#    0.000    0.000    0.000    0.000    0.000    0.000 
#
# Total GULP energy -312095.517808 kJ/mol
# GULP energy per Si atom -5573.134247 kJ/mol
# Density = 2.536091 g / cm^3
# Si number density = 25.418765 Si / 1000 Ang^3
#
#
#
# Elastic Constant Matrix: (Units=GPa)
#
#
# Indices 1 2 3 4 5 6 
#
# 1 173.8592 27.2344 28.4519 0.0000 0.0000 0.0000
# 2 27.2344 54.3953 30.1594 0.0000 0.0000 0.0000
# 3 28.4519 30.1594 65.8225 0.0000 0.0000 0.0000
# 4 0.0000 0.0000 0.0000 29.4724 0.0000 0.0000
# 5 0.0000 0.0000 0.0000 0.0000 6.3408 0.0000
# 6 0.0000 0.0000 0.0000 0.0000 0.0000 59.3625
#
#
#
# Elastic Compliance Matrix: (Units=1/GPa)
#
#
# Indices 1 2 3 4 5 6 
#
# 1 0.006386 -0.002234 -0.001737 0.000000 0.000000 0.000000
# 2 -0.002234 0.025427 -0.010684 0.000000 0.000000 0.000000
# 3 -0.001737 -0.010684 0.020838 0.000000 0.000000 0.000000
# 4 0.000000 0.000000 0.000000 0.033930 0.000000 0.000000
# 5 0.000000 0.000000 0.000000 0.000000 0.157709 0.000000
# 6 0.000000 0.000000 0.000000 0.000000 0.000000 0.016846
#
#
# Mechanical properties :
#
#
# Convention : Reuss Voigt Hill
#
# Bulk Modulus (GPa) = 42.84444 51.75202 47.29823
# Shear Modulus (GPa) = 16.76577 32.91722 24.84150
#
# Velocity S-wave (km/s) = 2.57102 3.60251 3.12955
# Velocity P-wave (km/s) = 5.07006 6.14069 5.63088
#
# Compressibility (1/GPa) = 0.02334025
#
# Stress axis : x y z
#
# Youngs Moduli (GPa) = 156.59288 39.32883 47.98811
#
# Poissons Ratio (x) = 0.08788 0.08333
# Poissons Ratio (y) = 0.34991 0.51273
# Poissons Ratio (z) = 0.27193 0.42021
#
# Static dielectric constant tensor:
#      x y z
#    x 2.188730 0.000000 0.000000 
#    y 0.000000 2.104640 0.000000 
#    z 0.000000 0.000000 2.081220 
# 
# From -- ./inp_files/19640.got.cif
#   From: 2010.05.17/outbox.cif.g08.bks.cpg/sg52_10_cif.got.tgz:19640.got - 2010.06.03 12:15:38.
