data_PCOD9410157
_publ_section_title
;
Structure prediction by ZEFSAII (Michael W. Deem and Ramdas Pophale) SiO2 
 PCOD9410157
Probable space group: P N N A
;
_chemical_formula_sum "Si O2"
_cell_formula_units_Z 60
_cell_length_a 16.753005
_cell_length_b 11.459594
_cell_length_c 13.368071
_cell_angle_alpha 90.000000
_cell_angle_beta 90.000000
_cell_angle_gamma 90.000000
_cell_volume 2566.437503
_symmetry_space_group_name_H-M "P N N A"
_symmetry_group_IT_number 52
_symmetry_cell_setting 'orthorhombic'
loop_
_space_group_symop_operation_xyz
x,y,z
1/2-x,-y,z
x,1/2-y,1/2-z
1/2-x,1/2+y,1/2-z
-x,-y,-z
1/2+x,y,-z
-x,1/2+y,1/2+z
1/2+x,1/2-y,1/2+z
loop_
_atom_site_type_symbol
_atom_site_label
_atom_site_fract_x
_atom_site_fract_y
_atom_site_fract_z
Si Si1 0.562693 0.399182 0.537339
Si Si2 0.016796 0.670813 0.963965
Si Si3 0.185432 0.838816 0.829695
Si Si4 0.750000 0.000000 0.475103
Si Si5 0.320932 0.227702 0.452996
Si Si6 0.712789 0.126237 0.811850
Si Si7 0.414826 0.952253 0.622762
Si Si8 0.631948 0.099699 0.175641
O O1 0.500000 0.500000 0.500000
O O2 0.508286 0.294601 0.577684
O O3 0.636756 0.410713 0.616368
O O4 0.601453 0.359335 0.431411
O O5 0.041390 0.576582 0.881558
O O6 0.087209 0.687381 0.046736
O O7 0.945439 0.614907 0.026080
O O8 0.151367 0.750000 0.750000
O O9 0.278508 0.858317 0.805776
O O10 0.140544 0.960203 0.831533
O O11 0.184709 0.784220 0.938319
O O12 0.767439 0.111910 0.542938
O O13 0.676541 0.020694 0.401442
O O14 0.286245 0.320242 0.376448
O O15 0.690899 0.250000 0.750000
O O16 0.750000 0.000000 0.771142
O O17 0.421044 0.882820 0.725776
#
# Coordination Sequence:
#
# PCOD9410157 Si02
#       8
#     8   8   8   4   8   8   8   8
#     4  12  26  46  71 100 143 189 244 310 387 445
#     4  10  23  42  65 100 146 198 234 302 373 462
#     4  11  21  36  66 102 134 176 228 293 366 439
#     4  10  20  38  70 104 140 196 234 308 364 456
#     4  11  22  44  72 100 150 190 253 305 377 448
#     4  12  28  52  78 109 144 201 269 324 384 466
#     4  10  21  40  63 103 144 185 247 293 383 449
#     4  11  23  37  63  98 135 172 228 297 362 432
#
# _framework density 23.378710999999999
#
# number of rings (size 3 to 8) (size 9 to 14) (size 15 to 20)
#    0.000    1.067    1.333    6.400    2.800    1.067 
#    4.800    0.667    0.000    0.000    0.000    0.000 
#    0.000    0.000    0.000    0.000    0.000    0.000 
#
# Total GULP energy -334924.106664 kJ/mol
# GULP energy per Si atom -5582.068444 kJ/mol
# Density = 2.332550 g / cm^3
# Si number density = 23.378711 Si / 1000 Ang^3
#
#
#
# Elastic Constant Matrix: (Units=GPa)
#
#
# Indices 1 2 3 4 5 6 
#
# 1 44.9760 23.6054 32.7259 0.0000 0.0000 0.0000
# 2 23.6054 128.3869 19.0859 0.0000 0.0000 0.0000
# 3 32.7259 19.0859 75.5557 0.0000 0.0000 0.0000
# 4 0.0000 0.0000 0.0000 33.9585 0.0000 0.0000
# 5 0.0000 0.0000 0.0000 0.0000 16.4402 0.0000
# 6 0.0000 0.0000 0.0000 0.0000 0.0000 20.6367
#
#
#
# Elastic Compliance Matrix: (Units=1/GPa)
#
#
# Indices 1 2 3 4 5 6 
#
# 1 0.034605 -0.004296 -0.013904 0.000000 0.000000 0.000000
# 2 -0.004296 0.008626 -0.000318 0.000000 0.000000 0.000000
# 3 -0.013904 -0.000318 0.019338 0.000000 0.000000 0.000000
# 4 0.000000 0.000000 0.000000 0.029448 0.000000 0.000000
# 5 0.000000 0.000000 0.000000 0.000000 0.060826 0.000000
# 6 0.000000 0.000000 0.000000 0.000000 0.000000 0.048457
#
#
# Mechanical properties :
#
#
# Convention : Reuss Voigt Hill
#
# Bulk Modulus (GPa) = 39.16375 44.41697 41.79036
# Shear Modulus (GPa) = 20.25540 25.77386 23.01463
#
# Velocity S-wave (km/s) = 2.94667 3.32392 3.14096
# Velocity P-wave (km/s) = 5.32592 5.81132 5.57390
#
# Compressibility (1/GPa) = 0.02553382
#
# Stress axis : x y z
#
# Youngs Moduli (GPa) = 28.89721 115.92729 51.71196
#
# Poissons Ratio (x) = 0.49799 0.71899
# Poissons Ratio (y) = 0.12413 0.01647
# Poissons Ratio (z) = 0.40178 0.03691
#
# Static dielectric constant tensor:
#      x y z
#    x 1.888430 0.000000 0.000000 
#    y 0.000000 1.950610 0.000000 
#    z 0.000000 0.000000 1.922100 
# 
# From -- ./inp_files/28261.got.cif
#   From: 2010.05.17/outbox.cif.g08.bks.cpg/sg52_15_cif.got.tgz:28261.got - 2010.06.03 12:15:38.
