data_PCOD9410651
_publ_section_title
;
Structure prediction by ZEFSAII (Michael W. Deem and Ramdas Pophale) SiO2 
 PCOD9410651
Probable space group: P N N A
;
_chemical_formula_sum "Si O2"
_cell_formula_units_Z 48
_cell_length_a 18.244505
_cell_length_b 12.136136
_cell_length_c 10.813920
_cell_angle_alpha 90.000000
_cell_angle_beta 90.000000
_cell_angle_gamma 90.000000
_cell_volume 2394.394310
_symmetry_space_group_name_H-M "P N N A"
_symmetry_group_IT_number 52
_symmetry_cell_setting 'orthorhombic'
loop_
_space_group_symop_operation_xyz
x,y,z
1/2-x,-y,z
x,1/2-y,1/2-z
1/2-x,1/2+y,1/2-z
-x,-y,-z
1/2+x,y,-z
-x,1/2+y,1/2+z
1/2+x,1/2-y,1/2+z
loop_
_atom_site_type_symbol
_atom_site_label
_atom_site_fract_x
_atom_site_fract_y
_atom_site_fract_z
Si Si1 0.457916 0.084461 0.591324
Si Si2 0.668105 0.455263 0.997570
Si Si3 0.873467 0.284143 0.396767
Si Si4 0.208368 0.264909 0.605976
Si Si5 0.092572 0.116724 0.249779
Si Si6 0.336537 0.516143 0.492415
O O1 0.437860 0.208335 0.545989
O O2 0.507832 0.097539 0.712007
O O3 0.500000 0.000000 0.500000
O O4 0.378321 0.029021 0.593059
O O5 0.750000 0.500000 0.996333
O O6 0.636811 0.445903 0.859026
O O7 0.662774 0.331153 0.045015
O O8 0.875957 0.250000 0.250000
O O9 0.791538 0.254045 0.444197
O O10 0.872923 0.411762 0.438360
O O11 0.214486 0.250000 0.750000
O O12 0.172556 0.382096 0.584182
O O13 0.106242 0.250000 0.250000
O O14 0.116913 0.060167 0.123126
O O15 0.250000 0.500000 0.453441
#
# Coordination Sequence:
#
# PCOD9410651 Si02
#       6
#     8   8   8   8   8   8
#     4  10  23  40  61  91 128 175 218 257 321 404
#     4  11  21  39  67  94 128 170 219 274 333 385
#     4  10  21  40  66  92 128 171 212 276 335 380
#     4  10  21  36  65 101 125 160 216 282 328 390
#     4  11  22  42  64  93 135 176 214 265 335 406
#     4  10  22  41  67 104 132 163 226 278 333 402
#
# _framework density 20.046824000000001
#
# number of rings (size 3 to 8) (size 9 to 14) (size 15 to 20)
#    0.000    1.667    3.333    1.000    2.333    0.667 
#    0.000   10.000    0.000    0.000    0.000    0.000 
#    0.000    0.000    0.000    0.000    0.000    0.000 
#
# Total GULP energy -267308.069938 kJ/mol
# GULP energy per Si atom -5568.918124 kJ/mol
# Density = 2.000120 g / cm^3
# Si number density = 20.046824 Si / 1000 Ang^3
#
#
#
# Elastic Constant Matrix: (Units=GPa)
#
#
# Indices 1 2 3 4 5 6 
#
# 1 107.0028 60.5605 43.3126 0.0000 0.0000 0.0000
# 2 60.5605 170.0700 52.0949 0.0000 0.0000 0.0000
# 3 43.3126 52.0949 70.4041 0.0000 0.0000 0.0000
# 4 0.0000 0.0000 0.0000 30.0600 0.0000 0.0000
# 5 0.0000 0.0000 0.0000 0.0000 -181.1531 0.0000
# 6 0.0000 0.0000 0.0000 0.0000 0.0000 36.6690
#
#
#
# Elastic Compliance Matrix: (Units=1/GPa)
#
#
# Indices 1 2 3 4 5 6 
#
# 1 0.013481 -0.002923 -0.006131 0.000000 0.000000 0.000000
# 2 -0.002923 0.008237 -0.004297 0.000000 0.000000 0.000000
# 3 -0.006131 -0.004297 0.021155 0.000000 0.000000 0.000000
# 4 0.000000 0.000000 0.000000 0.033267 0.000000 0.000000
# 5 0.000000 0.000000 0.000000 0.000000 -0.005520 0.000000
# 6 0.000000 0.000000 0.000000 0.000000 0.000000 0.027271
#
#
# Mechanical properties :
#
#
# Convention : Reuss Voigt Hill
#
# Bulk Modulus (GPa) = 61.83502 73.26809 67.55156
# Shear Modulus (GPa) = 38.46662 -10.11757 14.17453
#
# Velocity S-wave (km/s) = 4.38521 -2.24898 2.66197
# Velocity P-wave (km/s) = 7.52013 5.46662 6.57405
#
# Compressibility (1/GPa) = 0.01617206
#
# Stress axis : x y z
#
# Youngs Moduli (GPa) = 74.17604 121.40653 47.27001
#
# Poissons Ratio (x) = 0.35481 0.28983
# Poissons Ratio (y) = 0.21678 0.20311
# Poissons Ratio (z) = 0.45480 0.52166
#
# Static dielectric constant tensor:
#      x y z
#    x 1.777000 0.000000 0.000000 
#    y 0.000000 1.809990 0.000000 
#    z 0.000000 0.000000 1.778100 
# 
# From -- ./inp_files/20645.got.cif
#   From: 2010.05.17/outbox.cif.g08.bks.cpg/sg52_11_cif.got.tgz:20645.got - 2010.06.03 12:15:38.
