data_PCOD9410145
_publ_section_title
;
Structure prediction by ZEFSAII (Michael W. Deem and Ramdas Pophale) SiO2 
 PCOD9410145
Probable space group: P N N A
;
_chemical_formula_sum "Si O2"
_cell_formula_units_Z 20
_cell_length_a 22.966051
_cell_length_b 4.917164
_cell_length_c 8.069500
_cell_angle_alpha 90.000000
_cell_angle_beta 90.000000
_cell_angle_gamma 90.000000
_cell_volume 911.271198
_symmetry_space_group_name_H-M "P N N A"
_symmetry_group_IT_number 52
_symmetry_cell_setting 'orthorhombic'
loop_
_space_group_symop_operation_xyz
x,y,z
1/2-x,-y,z
x,1/2-y,1/2-z
1/2-x,1/2+y,1/2-z
-x,-y,-z
1/2+x,y,-z
-x,1/2+y,1/2+z
1/2+x,1/2-y,1/2+z
loop_
_atom_site_type_symbol
_atom_site_label
_atom_site_fract_x
_atom_site_fract_y
_atom_site_fract_z
Si Si1 0.558603 0.862230 0.566421
Si Si2 0.874871 0.648007 0.440051
Si Si3 0.750000 0.500000 0.372538
O O1 0.549748 0.750000 0.750000
O O2 0.582060 0.606371 0.461978
O O3 0.500000 0.000000 0.500000
O O4 0.605722 0.102538 0.554216
O O5 0.877249 0.750000 0.250000
O O6 0.808474 0.561137 0.472580
O O7 0.736612 0.750000 0.250000
#
# Coordination Sequence:
#
# PCOD9410145 Si02
#       3
#     8   8   4
#     4  12  26  44  65  97 136 177 220 273 334 394
#     4  11  23  43  70  99 129 172 222 272 325 394
#     4  10  20  38  68 102 130 166 218 272 326 392
#
# _framework density 21.947362999999999
#
# number of rings (size 3 to 8) (size 9 to 14) (size 15 to 20)
#    0.000    0.800    0.000    9.600    0.000    3.200 
#    0.000    4.000    0.000    2.400    0.000    0.000 
#    0.000    0.000    0.000    0.000    0.000    0.000 
#
# Total GULP energy -112047.608760 kJ/mol
# GULP energy per Si atom -5602.380438 kJ/mol
# Density = 2.189741 g / cm^3
# Si number density = 21.947363 Si / 1000 Ang^3
#
#
#
# Elastic Constant Matrix: (Units=GPa)
#
#
# Indices 1 2 3 4 5 6 
#
# 1 166.9244 79.5569 79.2069 0.0000 0.0000 0.0000
# 2 79.5569 177.5546 54.3402 0.0000 0.0000 0.0000
# 3 79.2069 54.3402 95.7947 0.0000 0.0000 0.0000
# 4 0.0000 0.0000 0.0000 53.3462 0.0000 0.0000
# 5 0.0000 0.0000 0.0000 0.0000 39.1153 0.0000
# 6 0.0000 0.0000 0.0000 0.0000 0.0000 52.0249
#
#
#
# Elastic Compliance Matrix: (Units=1/GPa)
#
#
# Indices 1 2 3 4 5 6 
#
# 1 0.010723 -0.002530 -0.007430 0.000000 0.000000 0.000000
# 2 -0.002530 0.007412 -0.002113 0.000000 0.000000 0.000000
# 3 -0.007430 -0.002113 0.017781 0.000000 0.000000 0.000000
# 4 0.000000 0.000000 0.000000 0.018745 0.000000 0.000000
# 5 0.000000 0.000000 0.000000 0.000000 0.025565 0.000000
# 6 0.000000 0.000000 0.000000 0.000000 0.000000 0.019222
#
#
# Mechanical properties :
#
#
# Convention : Reuss Voigt Hill
#
# Bulk Modulus (GPa) = 84.96630 96.27575 90.62103
# Shear Modulus (GPa) = 39.21005 44.04192 41.62598
#
# Velocity S-wave (km/s) = 4.23134 4.48449 4.35975
# Velocity P-wave (km/s) = 7.91644 8.41285 8.16842
#
# Compressibility (1/GPa) = 0.01176937
#
# Stress axis : x y z
#
# Youngs Moduli (GPa) = 93.26166 134.90938 56.23940
#
# Poissons Ratio (x) = 0.34137 0.41788
# Poissons Ratio (y) = 0.23599 0.11881
# Poissons Ratio (z) = 0.69298 0.28500
#
# Static dielectric constant tensor:
#      x y z
#    x 1.827050 0.000000 0.000000 
#    y 0.000000 1.765910 0.000000 
#    z 0.000000 0.000000 1.795200 
# 
# From -- ./inp_files/13705.got.cif
#   From: 2010.05.17/outbox.cif.g08.bks.cpg/sg52_7_cif.got.tgz:13705.got - 2010.06.03 12:15:38.
