data_PCOD9410408
_publ_section_title
;
Structure prediction by ZEFSAII (Michael W. Deem and Ramdas Pophale) SiO2 
 PCOD9410408
Probable space group: P N N A
;
_chemical_formula_sum "Si O2"
_cell_formula_units_Z 60
_cell_length_a 4.994666
_cell_length_b 29.849820
_cell_length_c 18.958460
_cell_angle_alpha 90.000000
_cell_angle_beta 90.000000
_cell_angle_gamma 90.000000
_cell_volume 2826.514546
_symmetry_space_group_name_H-M "P N N A"
_symmetry_group_IT_number 52
_symmetry_cell_setting 'orthorhombic'
loop_
_space_group_symop_operation_xyz
x,y,z
1/2-x,-y,z
x,1/2-y,1/2-z
1/2-x,1/2+y,1/2-z
-x,-y,-z
1/2+x,y,-z
-x,1/2+y,1/2+z
1/2+x,1/2-y,1/2+z
loop_
_atom_site_type_symbol
_atom_site_label
_atom_site_fract_x
_atom_site_fract_y
_atom_site_fract_z
Si Si1 0.744312 0.446170 0.545686
Si Si2 0.863000 0.176844 0.354063
Si Si3 0.846355 0.381977 0.829567
Si Si4 0.369307 0.881385 0.170191
Si Si5 0.128726 0.247013 0.538856
Si Si6 0.258194 0.446183 0.045573
Si Si7 0.265707 0.250000 0.750000
Si Si8 0.380889 0.678041 0.642997
O O1 0.750000 0.500000 0.552921
O O2 0.533576 0.432958 0.484537
O O3 0.657249 0.424015 0.619071
O O4 0.633912 0.142322 0.327596
O O5 0.733572 0.204935 0.416884
O O6 0.929704 0.214854 0.296091
O O7 0.133555 0.150656 0.367692
O O8 0.730323 0.389648 0.750576
O O9 0.844340 0.425022 0.880173
O O10 0.659106 0.858179 0.165990
O O11 0.161948 0.845987 0.137267
O O12 0.310373 0.245097 0.469162
O O13 0.202674 0.294332 0.574323
O O14 0.250000 0.500000 0.051870
O O15 0.470068 0.432612 0.985006
O O16 0.094772 0.282005 0.699978
#
# Coordination Sequence:
#
# PCOD9410408 Si02
#       8
#     8   8   8   8   8   8   4   8
#     4  10  23  43  66  92 126 167 205 251 317 380
#     4  11  24  38  62  85 121 163 200 257 303 362
#     4  12  23  40  63  97 123 158 211 257 310 368
#     4  12  23  40  63  97 123 158 211 257 310 368
#     4  11  24  41  56  85 120 159 208 252 306 365
#     4  10  23  43  66  92 126 167 205 251 317 380
#     4  10  20  42  56  82 118 160 204 236 296 360
#     4  11  24  38  62  85 121 163 200 257 303 362
#
# _framework density 21.227558999999999
#
# number of rings (size 3 to 8) (size 9 to 14) (size 15 to 20)
#    0.000    1.067    2.667    3.200    0.000   11.200 
#    0.000    0.000    0.000    8.000    0.000    0.000 
#    0.000    0.000    0.000    0.000    0.000    0.000 
#
# Total GULP energy -335228.609367 kJ/mol
# GULP energy per Si atom -5587.143489 kJ/mol
# Density = 2.117924 g / cm^3
# Si number density = 21.227559 Si / 1000 Ang^3
#
#
#
# Elastic Constant Matrix: (Units=GPa)
#
#
# Indices 1 2 3 4 5 6 
#
# 1 82.5896 11.6716 -7.9190 0.0000 0.0000 0.0000
# 2 11.6716 57.0883 29.7791 0.0000 0.0000 0.0000
# 3 -7.9190 29.7791 71.5875 0.0000 0.0000 0.0000
# 4 0.0000 0.0000 0.0000 25.6069 0.0000 0.0000
# 5 0.0000 0.0000 0.0000 0.0000 24.1939 0.0000
# 6 0.0000 0.0000 0.0000 0.0000 0.0000 18.2471
#
#
#
# Elastic Compliance Matrix: (Units=1/GPa)
#
#
# Indices 1 2 3 4 5 6 
#
# 1 0.013037 -0.004365 0.003258 0.000000 0.000000 0.000000
# 2 -0.004365 0.023832 -0.010397 0.000000 0.000000 0.000000
# 3 0.003258 -0.010397 0.018654 0.000000 0.000000 0.000000
# 4 0.000000 0.000000 0.000000 0.039052 0.000000 0.000000
# 5 0.000000 0.000000 0.000000 0.000000 0.041333 0.000000
# 6 0.000000 0.000000 0.000000 0.000000 0.000000 0.054803
#
#
# Mechanical properties :
#
#
# Convention : Reuss Voigt Hill
#
# Bulk Modulus (GPa) = 30.75363 30.92541 30.83952
# Shear Modulus (GPa) = 22.26597 25.45848 23.86223
#
# Velocity S-wave (km/s) = 3.24221 3.46687 3.35642
# Velocity P-wave (km/s) = 5.34181 5.53405 5.43878
#
# Compressibility (1/GPa) = 0.03251649
#
# Stress axis : x y z
#
# Youngs Moduli (GPa) = 76.70304 41.95981 53.60744
#
# Poissons Ratio (x) = 0.18315 -0.17465
# Poissons Ratio (y) = 0.33480 0.55734
# Poissons Ratio (z) = -0.24989 0.43624
#
# Static dielectric constant tensor:
#      x y z
#    x 1.736760 0.000000 0.000000 
#    y 0.000000 1.754150 0.000000 
#    z 0.000000 0.000000 1.821160 
# 
# From -- ./inp_files/30354.got.cif
#   From: 2010.05.17/outbox.cif.g08.bks.cpg/sg52_16_cif.got.tgz:30354.got - 2010.06.03 12:15:38.
