data_PCOD9410645
_publ_section_title
;
Structure prediction by ZEFSAII (Michael W. Deem and Ramdas Pophale) SiO2 
 PCOD9410645
Probable space group: P N N A
;
_chemical_formula_sum "Si O2"
_cell_formula_units_Z 48
_cell_length_a 17.576072
_cell_length_b 11.926408
_cell_length_c 12.234865
_cell_angle_alpha 90.000000
_cell_angle_beta 90.000000
_cell_angle_gamma 90.000000
_cell_volume 2564.665130
_symmetry_space_group_name_H-M "P N N A"
_symmetry_group_IT_number 52
_symmetry_cell_setting 'orthorhombic'
loop_
_space_group_symop_operation_xyz
x,y,z
1/2-x,-y,z
x,1/2-y,1/2-z
1/2-x,1/2+y,1/2-z
-x,-y,-z
1/2+x,y,-z
-x,1/2+y,1/2+z
1/2+x,1/2-y,1/2+z
loop_
_atom_site_type_symbol
_atom_site_label
_atom_site_fract_x
_atom_site_fract_y
_atom_site_fract_z
Si Si1 0.400273 0.982527 0.155637
Si Si2 0.946367 0.372840 0.292632
Si Si3 0.429460 0.069850 0.548805
Si Si4 0.784011 0.778917 0.872781
Si Si5 0.369549 0.189858 0.000177
Si Si6 0.834127 0.960999 0.617507
O O1 0.482550 0.926628 0.144957
O O2 0.332931 0.893198 0.127154
O O3 0.387745 0.003392 0.284939
O O4 0.394885 0.094244 0.085005
O O5 0.970269 0.250000 0.250000
O O6 0.928847 0.434946 0.179526
O O7 0.877349 0.359698 0.377700
O O8 0.422449 0.198991 0.507300
O O9 0.500000 0.000000 0.500000
O O10 0.355745 0.013504 0.496746
O O11 0.753498 0.750000 0.750000
O O12 0.715076 0.779827 0.958239
O O13 0.838664 0.672801 0.891661
O O14 0.750000 0.000000 0.648398
#
# Coordination Sequence:
#
# PCOD9410645 Si02
#       6
#     8   8   8   8   8   8
#     4  11  21  37  63  94 122 153 204 263 324 363
#     4  10  22  41  60  85 123 170 200 246 311 385
#     4  11  23  40  63  87 121 165 211 254 305 372
#     4  10  21  36  63  93 123 158 202 261 319 371
#     4  11  23  38  61  90 125 159 204 253 320 372
#     4  11  20  37  62  92 122 155 209 263 309 368
#
# _framework density 18.715893000000001
#
# number of rings (size 3 to 8) (size 9 to 14) (size 15 to 20)
#    0.000    1.333    3.333    4.500    2.333    0.000 
#    0.000    1.667    0.000    0.000    0.000    0.000 
#    0.000    0.000    0.000    0.000    0.000    0.000 
#
# Total GULP energy -267671.995700 kJ/mol
# GULP energy per Si atom -5576.499910 kJ/mol
# Density = 1.867329 g / cm^3
# Si number density = 18.715893 Si / 1000 Ang^3
#
#
#
# Elastic Constant Matrix: (Units=GPa)
#
#
# Indices 1 2 3 4 5 6 
#
# 1 44.8363 24.4169 43.8848 0.0000 0.0000 0.0000
# 2 24.4169 80.1379 56.3874 0.0000 0.0000 0.0000
# 3 43.8848 56.3874 118.3673 0.0000 0.0000 0.0000
# 4 0.0000 0.0000 0.0000 31.4353 0.0000 0.0000
# 5 0.0000 0.0000 0.0000 0.0000 23.8679 0.0000
# 6 0.0000 0.0000 0.0000 0.0000 0.0000 23.6969
#
#
#
# Elastic Compliance Matrix: (Units=1/GPa)
#
#
# Indices 1 2 3 4 5 6 
#
# 1 0.035293 -0.002326 -0.011977 0.000000 0.000000 0.000000
# 2 -0.002326 0.018923 -0.008152 0.000000 0.000000 0.000000
# 3 -0.011977 -0.008152 0.016772 0.000000 0.000000 0.000000
# 4 0.000000 0.000000 0.000000 0.031811 0.000000 0.000000
# 5 0.000000 0.000000 0.000000 0.000000 0.041897 0.000000
# 6 0.000000 0.000000 0.000000 0.000000 0.000000 0.042200
#
#
# Mechanical properties :
#
#
# Convention : Reuss Voigt Hill
#
# Bulk Modulus (GPa) = 38.34617 54.74664 46.54641
# Shear Modulus (GPa) = 20.79007 23.71017 22.25012
#
# Velocity S-wave (km/s) = 3.33652 3.56314 3.45169
# Velocity P-wave (km/s) = 5.94779 6.80021 6.38823
#
# Compressibility (1/GPa) = 0.02607822
#
# Stress axis : x y z
#
# Youngs Moduli (GPa) = 28.33452 52.84466 59.62233
#
# Poissons Ratio (x) = 0.12292 0.71408
# Poissons Ratio (y) = 0.06591 0.48606
# Poissons Ratio (z) = 0.33936 0.43081
#
# Static dielectric constant tensor:
#      x y z
#    x 1.673560 0.000000 0.000000 
#    y 0.000000 1.706860 0.000000 
#    z 0.000000 0.000000 1.657890 
# 
# From -- ./inp_files/20605.got.cif
#   From: 2010.05.17/outbox.cif.g08.bks.cpg/sg52_11_cif.got.tgz:20605.got - 2010.06.03 12:15:38.
