data_PCOD9410699
_publ_section_title
;
Structure prediction by ZEFSAII (Michael W. Deem and Ramdas Pophale) SiO2 
 PCOD9410699
Probable space group: P N N A
;
_chemical_formula_sum "Si O2"
_cell_formula_units_Z 40
_cell_length_a 4.982604
_cell_length_b 12.868089
_cell_length_c 26.046115
_cell_angle_alpha 90.000000
_cell_angle_beta 90.000000
_cell_angle_gamma 90.000000
_cell_volume 1669.988121
_symmetry_space_group_name_H-M "P N N A"
_symmetry_group_IT_number 52
_symmetry_cell_setting 'orthorhombic'
loop_
_space_group_symop_operation_xyz
x,y,z
1/2-x,-y,z
x,1/2-y,1/2-z
1/2-x,1/2+y,1/2-z
-x,-y,-z
1/2+x,y,-z
-x,1/2+y,1/2+z
1/2+x,1/2-y,1/2+z
loop_
_atom_site_type_symbol
_atom_site_label
_atom_site_fract_x
_atom_site_fract_y
_atom_site_fract_z
Si Si1 0.246592 0.875211 0.595793
Si Si2 0.725858 0.186964 0.030352
Si Si3 0.255080 0.874343 0.339157
Si Si4 0.507323 0.574015 0.373165
Si Si5 0.994613 0.577914 0.735864
O O1 0.294069 0.808679 0.544889
O O2 0.460467 0.843843 0.640662
O O3 0.955054 0.844201 0.615781
O O4 0.250000 0.000000 0.588567
O O5 0.869508 0.133721 0.078644
O O6 0.422396 0.158337 0.016545
O O7 0.394305 0.854807 0.284228
O O8 0.250000 0.000000 0.339216
O O9 0.750000 0.500000 0.357776
O O10 0.489828 0.636368 0.319254
O O11 0.250000 0.500000 0.384141
O O12 0.750000 0.500000 0.727017
O O13 0.250000 0.500000 0.748565
#
# Coordination Sequence:
#
# PCOD9410699 Si02
#       5
#     8   8   8   8   8
#     4  10  21  37  59  86 118 154 195 241 293 356
#     4  12  26  42  61  85 117 158 208 262 306 350
#     4   9  16  31  57  86 115 151 188 229 289 359
#     4  10  22  40  63  89 119 155 198 251 309 369
#     4   9  16  30  56  88 118 150 187 232 294 364
#
# _framework density 23.952268
#
# number of rings (size 3 to 8) (size 9 to 14) (size 15 to 20)
#    0.000    2.000    0.000    5.400    0.000    3.200 
#    0.000    1.000    0.000   12.000    0.000    0.000 
#    0.000    0.000    0.000    0.000    0.000    0.000 
#
# Total GULP energy -222794.695669 kJ/mol
# GULP energy per Si atom -5569.867392 kJ/mol
# Density = 2.389775 g / cm^3
# Si number density = 23.952268 Si / 1000 Ang^3
#
#
#
# Elastic Constant Matrix: (Units=GPa)
#
#
# Indices 1 2 3 4 5 6 
#
# 1 120.1058 6.5129 14.6160 0.0000 0.0000 0.0000
# 2 6.5129 52.0245 18.8190 0.0000 0.0000 0.0000
# 3 14.6160 18.8190 67.4384 0.0000 0.0000 0.0000
# 4 0.0000 0.0000 0.0000 35.4777 0.0000 0.0000
# 5 0.0000 0.0000 0.0000 0.0000 -156.3811 0.0000
# 6 0.0000 0.0000 0.0000 0.0000 0.0000 7.6387
#
#
#
# Elastic Compliance Matrix: (Units=1/GPa)
#
#
# Indices 1 2 3 4 5 6 
#
# 1 0.008561 -0.000446 -0.001731 0.000000 0.000000 0.000000
# 2 -0.000446 0.021403 -0.005876 0.000000 0.000000 0.000000
# 3 -0.001731 -0.005876 0.016843 0.000000 0.000000 0.000000
# 4 0.000000 0.000000 0.000000 0.028187 0.000000 0.000000
# 5 0.000000 0.000000 0.000000 0.000000 -0.006395 0.000000
# 6 0.000000 0.000000 0.000000 0.000000 0.000000 0.130912
#
#
# Mechanical properties :
#
#
# Convention : Reuss Voigt Hill
#
# Bulk Modulus (GPa) = 32.57138 35.49606 34.03372
# Shear Modulus (GPa) = 22.13853 -9.34489 6.39682
#
# Velocity S-wave (km/s) = 3.04349 -1.97736 1.63599
# Velocity P-wave (km/s) = 5.09690 3.10458 4.22000
#
# Compressibility (1/GPa) = 0.03070180
#
# Stress axis : x y z
#
# Youngs Moduli (GPa) = 116.81139 46.72227 59.37084
#
# Poissons Ratio (x) = 0.02082 0.10277
# Poissons Ratio (y) = 0.05204 0.34887
# Poissons Ratio (z) = 0.20221 0.27454
#
# Static dielectric constant tensor:
#      x y z
#    x 1.877420 0.000000 0.000000 
#    y 0.000000 1.967750 0.000000 
#    z 0.000000 0.000000 2.042410 
# 
# From -- ./inp_files/41490.got.cif
#   From: 2010.05.17/outbox.cif.g08.bks.cpg/sg52_21_cif.got.tgz:41490.got - 2010.06.03 12:15:38.
