data_PCOD9410554
_publ_section_title
;
Structure prediction by ZEFSAII (Michael W. Deem and Ramdas Pophale) SiO2 
 PCOD9410554
Probable space group: P N N A
;
_chemical_formula_sum "Si O2"
_cell_formula_units_Z 48
_cell_length_a 13.745528
_cell_length_b 12.851868
_cell_length_c 14.632061
_cell_angle_alpha 90.000000
_cell_angle_beta 90.000000
_cell_angle_gamma 90.000000
_cell_volume 2584.837146
_symmetry_space_group_name_H-M "P N N A"
_symmetry_group_IT_number 52
_symmetry_cell_setting 'orthorhombic'
loop_
_space_group_symop_operation_xyz
x,y,z
1/2-x,-y,z
x,1/2-y,1/2-z
1/2-x,1/2+y,1/2-z
-x,-y,-z
1/2+x,y,-z
-x,1/2+y,1/2+z
1/2+x,1/2-y,1/2+z
loop_
_atom_site_type_symbol
_atom_site_label
_atom_site_fract_x
_atom_site_fract_y
_atom_site_fract_z
Si Si1 0.250000 0.500000 0.943955
Si Si2 0.536815 0.515055 0.104333
Si Si3 0.216325 0.776672 0.479971
Si Si4 0.628342 0.177715 0.842870
Si Si5 0.921468 0.248973 0.355145
Si Si6 0.750000 0.000000 0.764973
Si Si7 0.401793 0.156766 0.318658
O O1 0.248203 0.604659 0.002363
O O2 0.348647 0.503756 0.888253
O O3 0.527451 0.636082 0.128347
O O4 0.481446 0.431425 0.164939
O O5 0.500000 0.500000 0.000000
O O6 0.303447 0.721219 0.425046
O O7 0.168307 0.736727 0.574804
O O8 0.124949 0.785609 0.412260
O O9 0.637844 0.250000 0.750000
O O10 0.513938 0.175228 0.866215
O O11 0.670064 0.064004 0.821012
O O12 0.887818 0.250000 0.250000
O O13 0.692966 0.909970 0.710715
O O14 0.424845 0.250000 0.250000
#
# Coordination Sequence:
#
# PCOD9410554 Si02
#       7
#     4   8   8   8   8   4   8
#     4  10  21  34  62  89 114 152 201 244 298 349
#     4  11  21  36  61  89 117 156 201 250 296 356
#     4  11  20  36  59  90 121 149 199 242 307 350
#     4  11  21  36  60  89 119 154 196 251 307 355
#     4  10  22  38  61  87 119 162 201 247 305 361
#     4  12  21  36  60  91 120 148 197 250 312 355
#     4  12  22  35  58  95 121 148 194 264 305 349
#
# _framework density 18.569835000000001
#
# number of rings (size 3 to 8) (size 9 to 14) (size 15 to 20)
#    0.000    1.000    6.667    3.500    0.000    0.000 
#    0.000    4.167    0.000    1.000    0.000    0.000 
#    0.000    0.000    0.000    0.000    0.000    0.000 
#
# Total GULP energy -267591.678139 kJ/mol
# GULP energy per Si atom -5574.826628 kJ/mol
# Density = 1.852757 g / cm^3
# Si number density = 18.569835 Si / 1000 Ang^3
#
#
#
# Elastic Constant Matrix: (Units=GPa)
#
#
# Indices 1 2 3 4 5 6 
#
# 1 88.0151 3.4866 26.2035 0.0000 0.0000 0.0000
# 2 3.4866 41.9728 20.7965 0.0000 0.0000 0.0000
# 3 26.2035 20.7965 92.5106 0.0000 0.0000 0.0000
# 4 0.0000 0.0000 0.0000 -1.2935 0.0000 0.0000
# 5 0.0000 0.0000 0.0000 0.0000 30.7650 0.0000
# 6 0.0000 0.0000 0.0000 0.0000 0.0000 30.1358
#
#
#
# Elastic Compliance Matrix: (Units=1/GPa)
#
#
# Indices 1 2 3 4 5 6 
#
# 1 0.012432 0.000801 -0.003701 0.000000 0.000000 0.000000
# 2 0.000801 0.026863 -0.006266 0.000000 0.000000 0.000000
# 3 -0.003701 -0.006266 0.013267 0.000000 0.000000 0.000000
# 4 0.000000 0.000000 0.000000 -0.773099 0.000000 0.000000
# 5 0.000000 0.000000 0.000000 0.000000 0.032505 0.000000
# 6 0.000000 0.000000 0.000000 0.000000 0.000000 0.033183
#
#
# Mechanical properties :
#
#
# Convention : Reuss Voigt Hill
#
# Bulk Modulus (GPa) = 29.21457 35.94131 32.57794
# Shear Modulus (GPa) = -7.99861 23.38891 7.69515
#
# Velocity S-wave (km/s) = -2.07766 3.55281 2.03786
# Velocity P-wave (km/s) = 3.16400 6.01886 4.80820
#
# Compressibility (1/GPa) = 0.03422950
#
# Stress axis : x y z
#
# Youngs Moduli (GPa) = 80.43806 37.22600 75.37751
#
# Poissons Ratio (x) = -0.02983 0.27901
# Poissons Ratio (y) = -0.06445 0.47230
# Poissons Ratio (z) = 0.29774 0.23325
#
# Static dielectric constant tensor:
#      x y z
#    x 1.688220 0.000000 0.000000 
#    y 0.000000 1.646170 0.000000 
#    z 0.000000 0.000000 1.710810 
# 
# From -- ./inp_files/27368.got.cif
#   From: 2010.05.17/outbox.cif.g08.bks.cpg/sg52_14_cif.got.tgz:27368.got - 2010.06.03 12:15:38.
