data_PCOD9410671
_publ_section_title
;
Structure prediction by ZEFSAII (Michael W. Deem and Ramdas Pophale) SiO2 
 PCOD9410671
Probable space group: P N N A
;
_chemical_formula_sum "Si O2"
_cell_formula_units_Z 48
_cell_length_a 9.426865
_cell_length_b 19.551498
_cell_length_c 11.970460
_cell_angle_alpha 90.000000
_cell_angle_beta 90.000000
_cell_angle_gamma 90.000000
_cell_volume 2206.267489
_symmetry_space_group_name_H-M "P N N A"
_symmetry_group_IT_number 52
_symmetry_cell_setting 'orthorhombic'
loop_
_space_group_symop_operation_xyz
x,y,z
1/2-x,-y,z
x,1/2-y,1/2-z
1/2-x,1/2+y,1/2-z
-x,-y,-z
1/2+x,y,-z
-x,1/2+y,1/2+z
1/2+x,1/2-y,1/2+z
loop_
_atom_site_type_symbol
_atom_site_label
_atom_site_fract_x
_atom_site_fract_y
_atom_site_fract_z
Si Si1 0.676353 0.896428 0.534848
Si Si2 0.409911 0.484307 0.225034
Si Si3 0.586280 0.144798 0.208012
Si Si4 0.463598 0.772046 0.572842
Si Si5 0.872042 0.393808 0.219767
Si Si6 0.875452 0.697467 0.839221
O O1 0.604389 0.961115 0.594429
O O2 0.586067 0.826106 0.542617
O O3 0.694723 0.909559 0.403851
O O4 0.804423 0.873872 0.617300
O O5 0.250000 0.500000 0.264492
O O6 0.477312 0.416388 0.277234
O O7 0.521937 0.544148 0.245289
O O8 0.606371 0.187625 0.323687
O O9 0.517695 0.197122 0.121206
O O10 0.745610 0.116936 0.192216
O O11 0.383967 0.763637 0.456518
O O12 0.973233 0.327185 0.209117
O O13 0.807203 0.750000 0.750000
#
# Coordination Sequence:
#
# PCOD9410671 Si02
#       6
#     8   8   8   8   8   8
#     4  10  21  37  56  90 125 165 194 253 317 363
#     4  11  22  36  58  91 128 163 200 251 312 373
#     4  10  21  38  63  85 124 166 198 246 306 371
#     4   9  21  38  59  86 123 161 200 246 303 366
#     4  11  22  38  59  90 126 158 208 250 305 378
#     4  11  23  36  61  93 123 155 206 256 308 358
#
# _framework density 21.7562
#
# number of rings (size 3 to 8) (size 9 to 14) (size 15 to 20)
#    0.000    1.667    3.333    1.000    7.000    1.333 
#    0.000    0.000    0.000    1.000    4.333    0.000 
#    0.000    0.000    0.000    0.000    0.000    0.000 
#
# Total GULP energy -267429.237481 kJ/mol
# GULP energy per Si atom -5571.442448 kJ/mol
# Density = 2.170668 g / cm^3
# Si number density = 21.756200 Si / 1000 Ang^3
#
#
#
# Elastic Constant Matrix: (Units=GPa)
#
#
# Indices 1 2 3 4 5 6 
#
# 1 80.7831 29.9418 0.8630 0.0000 0.0000 0.0000
# 2 29.9418 115.1561 25.0615 0.0000 0.0000 0.0000
# 3 0.8630 25.0615 44.0138 0.0000 0.0000 0.0000
# 4 0.0000 0.0000 0.0000 13.3230 0.0000 0.0000
# 5 0.0000 0.0000 0.0000 0.0000 5.3289 0.0000
# 6 0.0000 0.0000 0.0000 0.0000 0.0000 10.7828
#
#
#
# Elastic Compliance Matrix: (Units=1/GPa)
#
#
# Indices 1 2 3 4 5 6 
#
# 1 0.013856 -0.004045 0.002031 0.000000 0.000000 0.000000
# 2 -0.004045 0.011093 -0.006237 0.000000 0.000000 0.000000
# 3 0.002031 -0.006237 0.026232 0.000000 0.000000 0.000000
# 4 0.000000 0.000000 0.000000 0.075058 0.000000 0.000000
# 5 0.000000 0.000000 0.000000 0.000000 0.187657 0.000000
# 6 0.000000 0.000000 0.000000 0.000000 0.000000 0.092741
#
#
# Mechanical properties :
#
#
# Convention : Reuss Voigt Hill
#
# Bulk Modulus (GPa) = 28.83501 39.07620 33.95560
# Shear Modulus (GPa) = 11.50224 18.15936 14.83080
#
# Velocity S-wave (km/s) = 2.30182 2.89221 2.61374
# Velocity P-wave (km/s) = 4.51076 5.39936 4.97494
#
# Compressibility (1/GPa) = 0.03468007
#
# Stress axis : x y z
#
# Youngs Moduli (GPa) = 72.16903 90.14733 38.12184
#
# Poissons Ratio (x) = 0.36464 -0.07744
# Poissons Ratio (y) = 0.29192 0.23777
# Poissons Ratio (z) = -0.14661 0.56225
#
# Static dielectric constant tensor:
#      x y z
#    x 1.960270 0.000000 0.000000 
#    y 0.000000 1.843820 0.000000 
#    z 0.000000 0.000000 1.807850 
# 
# From -- ./inp_files/24750.got.cif
#   From: 2010.05.17/outbox.cif.g08.bks.cpg/sg52_13_cif.got.tgz:24750.got - 2010.06.03 12:15:38.
