data_PCOD9410729
_publ_section_title
;
Structure prediction by ZEFSAII (Michael W. Deem and Ramdas Pophale) SiO2 
 PCOD9410729
Probable space group: P N N A
;
_chemical_formula_sum "Si O2"
_cell_formula_units_Z 56
_cell_length_a 13.370292
_cell_length_b 17.416915
_cell_length_c 12.164112
_cell_angle_alpha 90.000000
_cell_angle_beta 90.000000
_cell_angle_gamma 90.000000
_cell_volume 2832.647508
_symmetry_space_group_name_H-M "P N N A"
_symmetry_group_IT_number 52
_symmetry_cell_setting 'orthorhombic'
loop_
_space_group_symop_operation_xyz
x,y,z
1/2-x,-y,z
x,1/2-y,1/2-z
1/2-x,1/2+y,1/2-z
-x,-y,-z
1/2+x,y,-z
-x,1/2+y,1/2+z
1/2+x,1/2-y,1/2+z
loop_
_atom_site_type_symbol
_atom_site_label
_atom_site_fract_x
_atom_site_fract_y
_atom_site_fract_z
Si Si1 0.206865 0.412906 0.333655
Si Si2 0.268173 0.856061 0.849036
Si Si3 0.437516 0.575627 0.523517
Si Si4 0.330303 0.681135 0.887633
Si Si5 0.435065 0.190664 0.354255
Si Si6 0.624747 0.670328 0.531116
Si Si7 0.248656 0.590021 0.096156
O O1 0.250000 0.500000 0.346927
O O2 0.110140 0.401708 0.407574
O O3 0.289580 0.356756 0.385267
O O4 0.186458 0.399495 0.206539
O O5 0.311781 0.773078 0.889302
O O6 0.270861 0.851600 0.718292
O O7 0.163008 0.859442 0.912904
O O8 0.343242 0.921446 0.894263
O O9 0.500000 0.500000 0.500000
O O10 0.520336 0.633705 0.565946
O O11 0.448717 0.669717 0.865879
O O12 0.292106 0.640071 0.997117
O O13 0.424171 0.250000 0.250000
O O14 0.396104 0.240176 0.458475
O O15 0.360484 0.118283 0.359591
O O16 0.250000 0.500000 0.066985
#
# Coordination Sequence:
#
# PCOD9410729 Si02
#       7
#     8   8   8   8   8   8   8
#     4  10  21  37  61  92 129 164 207 259 318 380
#     4  10  22  37  65  92 121 163 214 262 309 379
#     4  11  21  37  62  97 128 159 204 267 325 373
#     4  11  22  44  64  90 122 170 221 254 304 392
#     4  12  21  39  72  90 119 173 215 259 318 383
#     4  11  20  37  60  95 122 158 207 263 320 364
#     4  11  26  44  63  94 133 169 213 265 316 387
#
# _framework density 19.769490999999999
#
# number of rings (size 3 to 8) (size 9 to 14) (size 15 to 20)
#    0.000    1.143    7.143    0.000    0.000    0.571 
#    5.143    0.000    0.000    0.000    0.000    0.000 
#    0.000    0.000    0.000    0.000    0.000    0.000 
#
# Total GULP energy -312351.151378 kJ/mol
# GULP energy per Si atom -5577.699132 kJ/mol
# Density = 1.972449 g / cm^3
# Si number density = 19.769491 Si / 1000 Ang^3
#
#
#
# Elastic Constant Matrix: (Units=GPa)
#
#
# Indices 1 2 3 4 5 6 
#
# 1 60.7989 -7.8725 13.5174 0.0000 0.0000 0.0000
# 2 -7.8725 37.4525 10.8459 0.0000 0.0000 0.0000
# 3 13.5174 10.8459 108.0230 0.0000 0.0000 0.0000
# 4 0.0000 0.0000 0.0000 27.2123 0.0000 0.0000
# 5 0.0000 0.0000 0.0000 0.0000 14.1013 0.0000
# 6 0.0000 0.0000 0.0000 0.0000 0.0000 16.0349
#
#
#
# Elastic Compliance Matrix: (Units=1/GPa)
#
#
# Indices 1 2 3 4 5 6 
#
# 1 0.017617 0.004471 -0.002653 0.000000 0.000000 0.000000
# 2 0.004471 0.028635 -0.003435 0.000000 0.000000 0.000000
# 3 -0.002653 -0.003435 0.009934 0.000000 0.000000 0.000000
# 4 0.000000 0.000000 0.000000 0.036748 0.000000 0.000000
# 5 0.000000 0.000000 0.000000 0.000000 0.070915 0.000000
# 6 0.000000 0.000000 0.000000 0.000000 0.000000 0.062364
#
#
# Mechanical properties :
#
#
# Convention : Reuss Voigt Hill
#
# Bulk Modulus (GPa) = 18.88483 26.58401 22.73442
# Shear Modulus (GPa) = 20.23494 24.12194 22.17844
#
# Velocity S-wave (km/s) = 3.20276 3.49687 3.35304
# Velocity P-wave (km/s) = 4.82184 5.45713 5.14929
#
# Compressibility (1/GPa) = 0.05295255
#
# Stress axis : x y z
#
# Youngs Moduli (GPa) = 56.76471 34.92233 100.66275
#
# Poissons Ratio (x) = -0.15615 0.26710
# Poissons Ratio (y) = -0.25382 0.34573
# Poissons Ratio (z) = 0.15062 0.11994
#
# Static dielectric constant tensor:
#      x y z
#    x 1.683270 0.000000 0.000000 
#    y 0.000000 1.759000 0.000000 
#    z 0.000000 0.000000 2.044050 
# 
# From -- ./inp_files/18361.got.cif
#   From: 2010.05.17/outbox.cif.g08.bks.cpg/sg52_10_cif.got.tgz:18361.got - 2010.06.03 12:15:38.
