data_PCOD9410866
_publ_section_title
;
Structure prediction by ZEFSAII (Michael W. Deem and Ramdas Pophale) SiO2 
 PCOD9410866
Probable space group: P N N A
;
_chemical_formula_sum "Si O2"
_cell_formula_units_Z 48
_cell_length_a 26.667519
_cell_length_b 13.965465
_cell_length_c 5.597542
_cell_angle_alpha 90.000000
_cell_angle_beta 90.000000
_cell_angle_gamma 90.000000
_cell_volume 2084.660679
_symmetry_space_group_name_H-M "P N N A"
_symmetry_group_IT_number 52
_symmetry_cell_setting 'orthorhombic'
loop_
_space_group_symop_operation_xyz
x,y,z
1/2-x,-y,z
x,1/2-y,1/2-z
1/2-x,1/2+y,1/2-z
-x,-y,-z
1/2+x,y,-z
-x,1/2+y,1/2+z
1/2+x,1/2-y,1/2+z
loop_
_atom_site_type_symbol
_atom_site_label
_atom_site_fract_x
_atom_site_fract_y
_atom_site_fract_z
Si Si1 0.048631 0.354468 0.629998
Si Si2 0.894818 0.504631 0.019207
Si Si3 0.831662 0.305358 0.495686
Si Si4 0.149652 0.351391 0.340213
Si Si5 0.696348 0.991617 0.169719
Si Si6 0.061155 0.854362 0.139558
O O1 0.047121 0.250000 0.750000
O O2 0.093304 0.342550 0.443682
O O3 0.993219 0.379202 0.531766
O O4 0.066416 0.437922 0.812343
O O5 0.861205 0.582561 0.883549
O O6 0.922237 0.433026 0.836666
O O7 0.849850 0.458048 0.167988
O O8 0.817490 0.250000 0.250000
O O9 0.800508 0.403806 0.516390
O O10 0.890531 0.335540 0.479088
O O11 0.826847 0.250000 0.750000
O O12 0.169871 0.250000 0.250000
O O13 0.180535 0.410573 0.537087
O O14 0.750000 0.000000 0.292370
O O15 0.053493 0.750000 0.250000
#
# Coordination Sequence:
#
# PCOD9410866 Si02
#       6
#     8   8   8   8   8   8
#     4  10  21  38  64  99 136 181 233 274 351 428
#     4  11  22  44  66  93 142 181 230 295 352 415
#     4  11  24  47  71 101 144 181 227 292 358 420
#     4  11  23  42  68  96 138 177 224 296 354 423
#     4  11  26  46  69  99 129 179 237 298 360 427
#     4  10  21  40  65  99 135 184 227 283 344 428
#
# _framework density 23.025327999999998
#
# number of rings (size 3 to 8) (size 9 to 14) (size 15 to 20)
#    0.000    1.333    3.333    2.500    0.000    2.667 
#    9.000    0.000    0.000    0.000    0.000    0.000 
#    0.000    0.000    0.000    0.000    0.000    0.000 
#
# Total GULP energy -267839.169263 kJ/mol
# GULP energy per Si atom -5579.982693 kJ/mol
# Density = 2.297292 g / cm^3
# Si number density = 23.025328 Si / 1000 Ang^3
#
#
#
# Elastic Constant Matrix: (Units=GPa)
#
#
# Indices 1 2 3 4 5 6 
#
# 1 62.3318 11.9749 -5.0482 0.0000 0.0000 0.0000
# 2 11.9749 116.2688 24.5214 0.0000 0.0000 0.0000
# 3 -5.0482 24.5214 60.3831 0.0000 0.0000 0.0000
# 4 0.0000 0.0000 0.0000 42.9788 0.0000 0.0000
# 5 0.0000 0.0000 0.0000 0.0000 -20.5181 0.0000
# 6 0.0000 0.0000 0.0000 0.0000 0.0000 32.4831
#
#
#
# Elastic Compliance Matrix: (Units=1/GPa)
#
#
# Indices 1 2 3 4 5 6 
#
# 1 0.016650 -0.002197 0.002284 0.000000 0.000000 0.000000
# 2 -0.002197 0.009696 -0.004121 0.000000 0.000000 0.000000
# 3 0.002284 -0.004121 0.018426 0.000000 0.000000 0.000000
# 4 0.000000 0.000000 0.000000 0.023267 0.000000 0.000000
# 5 0.000000 0.000000 0.000000 0.000000 -0.048737 0.000000
# 6 0.000000 0.000000 0.000000 0.000000 0.000000 0.030785
#
#
# Mechanical properties :
#
#
# Convention : Reuss Voigt Hill
#
# Bulk Modulus (GPa) = 27.24479 33.54221 30.39350
# Shear Modulus (GPa) = 71.03366 24.82446 47.92906
#
# Velocity S-wave (km/s) = 5.56032 3.28706 4.56738
# Velocity P-wave (km/s) = 7.28568 5.38568 6.40651
#
# Compressibility (1/GPa) = 0.03670427
#
# Stress axis : x y z
#
# Youngs Moduli (GPa) = 60.05957 103.13350 54.27261
#
# Poissons Ratio (x) = 0.22654 -0.12396
# Poissons Ratio (y) = 0.13192 0.22367
# Poissons Ratio (z) = -0.13718 0.42504
#
# Static dielectric constant tensor:
#      x y z
#    x 1.871060 0.000000 0.000000 
#    y 0.000000 1.795360 0.000000 
#    z 0.000000 0.000000 1.844570 
# 
# From -- ./inp_files/5792.got.cif
#   From: 2010.05.17/outbox.cif.g08.bks.cpg/sg52_3_cif.got.tgz:5792.got - 2010.06.03 12:15:38.
