data_PCOD9410187
_publ_section_title
;
Structure prediction by ZEFSAII (Michael W. Deem and Ramdas Pophale) SiO2 
 PCOD9410187
Probable space group: P N N A
;
_chemical_formula_sum "Si O2"
_cell_formula_units_Z 56
_cell_length_a 21.117011
_cell_length_b 14.723328
_cell_length_c 8.957395
_cell_angle_alpha 90.000000
_cell_angle_beta 90.000000
_cell_angle_gamma 90.000000
_cell_volume 2784.967679
_symmetry_space_group_name_H-M "P N N A"
_symmetry_group_IT_number 52
_symmetry_cell_setting 'orthorhombic'
loop_
_space_group_symop_operation_xyz
x,y,z
1/2-x,-y,z
x,1/2-y,1/2-z
1/2-x,1/2+y,1/2-z
-x,-y,-z
1/2+x,y,-z
-x,1/2+y,1/2+z
1/2+x,1/2-y,1/2+z
loop_
_atom_site_type_symbol
_atom_site_label
_atom_site_fract_x
_atom_site_fract_y
_atom_site_fract_z
Si Si1 0.833555 0.330775 0.646656
Si Si2 0.897047 0.499215 0.794568
Si Si3 0.362243 0.644977 0.699131
Si Si4 0.293403 0.591341 0.392601
Si Si5 0.029356 0.003807 0.835978
Si Si6 0.681709 0.988279 0.416497
Si Si7 0.366062 0.152394 0.807114
O O1 0.856623 0.250000 0.750000
O O2 0.877309 0.414159 0.693241
O O3 0.759964 0.347117 0.681980
O O4 0.836638 0.326133 0.468300
O O5 0.851816 0.575006 0.719763
O O6 0.971666 0.510903 0.778248
O O7 0.872793 0.480969 0.960722
O O8 0.363918 0.750000 0.750000
O O9 0.323538 0.629143 0.545241
O O10 0.431568 0.597644 0.681759
O O11 0.330064 0.578629 0.820317
O O12 0.250000 0.500000 0.424208
O O13 0.078599 0.921356 0.822961
O O14 0.000000 0.000000 0.000000
O O15 0.680086 0.900346 0.308188
O O16 0.750000 0.000000 0.492224
O O17 0.388027 0.250000 0.750000
#
# Coordination Sequence:
#
# PCOD9410187 Si02
#       7
#     8   8   8   8   8   8   8
#     4  11  22  37  62  94 127 167 213 266 322 387
#     4  11  22  40  65  89 124 167 216 262 322 388
#     4  11  24  40  64  94 125 171 217 262 328 391
#     4  10  20  39  62  87 123 170 212 260 327 389
#     4  11  21  47  68  87 127 174 213 269 321 380
#     4  11  23  42  66  97 134 169 211 272 334 395
#     4  11  24  42  66  96 127 171 219 267 325 387
#
# _framework density 20.107953999999999
#
# number of rings (size 3 to 8) (size 9 to 14) (size 15 to 20)
#    0.000    1.143    2.857    6.000    0.000    7.429 
#    5.143    0.714    0.000    0.000    0.000    0.000 
#    0.000    0.000    0.000    0.000    0.000    0.000 
#
# Total GULP energy -312550.096243 kJ/mol
# GULP energy per Si atom -5581.251719 kJ/mol
# Density = 2.006219 g / cm^3
# Si number density = 20.107954 Si / 1000 Ang^3
#
#
#
# Elastic Constant Matrix: (Units=GPa)
#
#
# Indices 1 2 3 4 5 6 
#
# 1 96.7526 9.0210 -1.1195 0.0000 0.0000 0.0000
# 2 9.0210 96.7510 18.7042 0.0000 0.0000 0.0000
# 3 -1.1195 18.7042 68.6687 0.0000 0.0000 0.0000
# 4 0.0000 0.0000 0.0000 25.0251 0.0000 0.0000
# 5 0.0000 0.0000 0.0000 0.0000 32.4248 0.0000
# 6 0.0000 0.0000 0.0000 0.0000 0.0000 -3.3419
#
#
#
# Elastic Compliance Matrix: (Units=1/GPa)
#
#
# Indices 1 2 3 4 5 6 
#
# 1 0.010440 -0.001062 0.000460 0.000000 0.000000 0.000000
# 2 -0.001062 0.011018 -0.003019 0.000000 0.000000 0.000000
# 3 0.000460 -0.003019 0.015392 0.000000 0.000000 0.000000
# 4 0.000000 0.000000 0.000000 0.039960 0.000000 0.000000
# 5 0.000000 0.000000 0.000000 0.000000 0.030841 0.000000
# 6 0.000000 0.000000 0.000000 0.000000 0.000000 -0.299229
#
#
# Mechanical properties :
#
#
# Convention : Reuss Voigt Hill
#
# Bulk Modulus (GPa) = 33.77438 35.04264 34.40851
# Shear Modulus (GPa) = -28.65888 26.52604 -1.06642
#
# Velocity S-wave (km/s) = -3.77935 3.63599 -0.72904
# Velocity P-wave (km/s) = 1.48715 5.92388 4.05467
#
# Compressibility (1/GPa) = 0.02960825
#
# Stress axis : x y z
#
# Youngs Moduli (GPa) = 95.78546 90.75721 64.96728
#
# Poissons Ratio (x) = 0.09641 -0.02985
# Poissons Ratio (y) = 0.10175 0.19611
# Poissons Ratio (z) = -0.04402 0.27395
#
# Static dielectric constant tensor:
#      x y z
#    x 1.752440 0.000000 0.000000 
#    y 0.000000 1.806500 0.000000 
#    z 0.000000 0.000000 1.738490 
# 
# From -- ./inp_files/13461.got.cif
#   From: 2010.05.17/outbox.cif.g08.bks.cpg/sg52_7_cif.got.tgz:13461.got - 2010.06.03 12:15:38.
