data_PCOD9410971
_publ_section_title
;
Structure prediction by ZEFSAII (Michael W. Deem and Ramdas Pophale) SiO2 
 PCOD9410971
Probable space group: P N N A
;
_chemical_formula_sum "Si O2"
_cell_formula_units_Z 40
_cell_length_a 22.795924
_cell_length_b 9.410555
_cell_length_c 8.963054
_cell_angle_alpha 90.000000
_cell_angle_beta 90.000000
_cell_angle_gamma 90.000000
_cell_volume 1922.774928
_symmetry_space_group_name_H-M "P N N A"
_symmetry_group_IT_number 52
_symmetry_cell_setting 'orthorhombic'
loop_
_space_group_symop_operation_xyz
x,y,z
1/2-x,-y,z
x,1/2-y,1/2-z
1/2-x,1/2+y,1/2-z
-x,-y,-z
1/2+x,y,-z
-x,1/2+y,1/2+z
1/2+x,1/2-y,1/2+z
loop_
_atom_site_type_symbol
_atom_site_label
_atom_site_fract_x
_atom_site_fract_y
_atom_site_fract_z
Si Si1 0.396179 0.953725 0.428305
Si Si2 0.161421 0.726572 0.924510
Si Si3 0.085062 0.945584 0.089658
Si Si4 0.771080 0.657846 0.895755
Si Si5 0.537024 0.217186 0.080131
O O1 0.339631 0.849853 0.431957
O O2 0.450235 0.860348 0.487410
O O3 0.376535 0.089080 0.525690
O O4 0.405921 0.007771 0.260217
O O5 0.153916 0.750000 0.750000
O O6 0.138808 0.859636 0.020588
O O7 0.229039 0.703098 0.969515
O O8 0.029798 0.838122 0.080308
O O9 0.071511 0.085505 0.993095
O O10 0.750000 0.500000 0.856927
O O11 0.760867 0.750000 0.750000
O O12 0.554598 0.250000 0.250000
#
# Coordination Sequence:
#
# PCOD9410971 Si02
#       5
#     8   8   8   8   8
#     4  11  23  43  64  90 128 169 214 260 319 390
#     4  11  23  40  64  93 126 163 210 269 325 378
#     4  11  24  42  66  93 127 174 216 259 319 387
#     4  10  21  39  63  89 120 163 210 259 318 389
#     4  11  24  40  63  95 127 164 212 265 315 367
#
# _framework density 20.803266000000001
#
# number of rings (size 3 to 8) (size 9 to 14) (size 15 to 20)
#    0.000    1.200    0.000    7.200    0.000    7.200 
#    0.000   11.000    0.000    0.000    0.000    0.000 
#    0.000    0.000    0.000    0.000    0.000    0.000 
#
# Total GULP energy -223752.888201 kJ/mol
# GULP energy per Si atom -5593.822205 kJ/mol
# Density = 2.075592 g / cm^3
# Si number density = 20.803266 Si / 1000 Ang^3
#
#
#
# Elastic Constant Matrix: (Units=GPa)
#
#
# Indices 1 2 3 4 5 6 
#
# 1 92.4542 56.5252 47.0561 0.0000 0.0000 0.0000
# 2 56.5252 74.6869 83.1236 0.0000 0.0000 0.0000
# 3 47.0561 83.1236 179.9585 0.0000 0.0000 0.0000
# 4 0.0000 0.0000 0.0000 41.3684 0.0000 0.0000
# 5 0.0000 0.0000 0.0000 0.0000 32.5442 0.0000
# 6 0.0000 0.0000 0.0000 0.0000 0.0000 22.6597
#
#
#
# Elastic Compliance Matrix: (Units=1/GPa)
#
#
# Indices 1 2 3 4 5 6 
#
# 1 0.021368 -0.020483 0.003874 0.000000 0.000000 0.000000
# 2 -0.020483 0.047190 -0.016441 0.000000 0.000000 0.000000
# 3 0.003874 -0.016441 0.012138 0.000000 0.000000 0.000000
# 4 0.000000 0.000000 0.000000 0.024173 0.000000 0.000000
# 5 0.000000 0.000000 0.000000 0.000000 0.030727 0.000000
# 6 0.000000 0.000000 0.000000 0.000000 0.000000 0.044131
#
#
# Mechanical properties :
#
#
# Convention : Reuss Voigt Hill
#
# Bulk Modulus (GPa) = 68.51760 80.05660 74.28710
# Shear Modulus (GPa) = 19.94471 30.00744 24.97607
#
# Velocity S-wave (km/s) = 3.09970 3.80207 3.46870
# Velocity P-wave (km/s) = 6.76892 7.60530 7.19926
#
# Compressibility (1/GPa) = 0.01459479
#
# Stress axis : x y z
#
# Youngs Moduli (GPa) = 46.79985 21.19097 82.38528
#
# Poissons Ratio (x) = 0.43406 -0.31916
# Poissons Ratio (y) = 0.95861 1.35451
# Poissons Ratio (z) = -0.18130 0.34840
#
# Static dielectric constant tensor:
#      x y z
#    x 1.811870 0.000000 0.000000 
#    y 0.000000 1.735860 0.000000 
#    z 0.000000 0.000000 1.693100 
# 
# From -- ./inp_files/13953.got.cif
#   From: 2010.05.17/outbox.cif.g08.bks.cpg/sg52_7_cif.got.tgz:13953.got - 2010.06.03 12:15:38.
