data_PCOD9410817
_publ_section_title
;
Structure prediction by ZEFSAII (Michael W. Deem and Ramdas Pophale) SiO2 
 PCOD9410817
Probable space group: P N N A
;
_chemical_formula_sum "Si O2"
_cell_formula_units_Z 56
_cell_length_a 10.759765
_cell_length_b 11.490738
_cell_length_c 21.191261
_cell_angle_alpha 90.000000
_cell_angle_beta 90.000000
_cell_angle_gamma 90.000000
_cell_volume 2620.037510
_symmetry_space_group_name_H-M "P N N A"
_symmetry_group_IT_number 52
_symmetry_cell_setting 'orthorhombic'
loop_
_space_group_symop_operation_xyz
x,y,z
1/2-x,-y,z
x,1/2-y,1/2-z
1/2-x,1/2+y,1/2-z
-x,-y,-z
1/2+x,y,-z
-x,1/2+y,1/2+z
1/2+x,1/2-y,1/2+z
loop_
_atom_site_type_symbol
_atom_site_label
_atom_site_fract_x
_atom_site_fract_y
_atom_site_fract_z
Si Si1 0.778901 0.310706 0.818685
Si Si2 0.758200 0.374586 0.568272
Si Si3 0.020360 0.310405 0.511438
Si Si4 0.083385 0.612684 0.926306
Si Si5 0.488870 0.626758 0.212983
Si Si6 0.361256 0.861902 0.589967
Si Si7 0.542382 0.375462 0.215860
O O1 0.789022 0.250000 0.750000
O O2 0.758390 0.224428 0.877820
O O3 0.655147 0.385286 0.808673
O O4 0.913919 0.367709 0.824367
O O5 0.750000 0.500000 0.601448
O O6 0.635570 0.371296 0.523820
O O7 0.886214 0.365201 0.527526
O O8 0.072889 0.259145 0.576522
O O9 0.996953 0.198269 0.467663
O O10 0.227166 0.637743 0.941820
O O11 0.065622 0.475183 0.934271
O O12 0.060910 0.638506 0.852813
O O13 0.500454 0.750000 0.250000
O O14 0.530844 0.504963 0.246789
O O15 0.348957 0.880706 0.664531
O O16 0.554875 0.250000 0.250000
#
# Coordination Sequence:
#
# PCOD9410817 Si02
#       7
#     8   8   8   8   8   8   8
#     4  10  21  39  61  90 124 165 212 266 324 390
#     4  12  26  43  68  96 135 177 221 278 332 398
#     4  12  22  44  64  92 130 168 222 260 336 392
#     4  10  21  38  62  91 124 162 212 270 324 389
#     4  10  21  38  61  92 125 166 213 269 329 392
#     4  10  21  38  62  91 124 162 212 270 324 389
#     4  10  21  38  61  92 125 166 213 269 329 392
#
# _framework density 21.373740000000002
#
# number of rings (size 3 to 8) (size 9 to 14) (size 15 to 20)
#    0.000    1.429    4.286    1.286    0.000    5.143 
#    0.000    0.000    0.000    0.000    0.000    0.000 
#    0.000    0.000    0.000    0.000    0.000    0.000 
#
# Total GULP energy -311772.152579 kJ/mol
# GULP energy per Si atom -5567.359867 kJ/mol
# Density = 2.132509 g / cm^3
# Si number density = 21.373740 Si / 1000 Ang^3
#
#
#
# Elastic Constant Matrix: (Units=GPa)
#
#
# Indices 1 2 3 4 5 6 
#
# 1 69.0703 9.1028 16.4456 0.0000 0.0000 0.0000
# 2 9.1028 118.0184 23.3207 0.0000 0.0000 0.0000
# 3 16.4456 23.3207 48.9438 0.0000 0.0000 0.0000
# 4 0.0000 0.0000 0.0000 28.6397 0.0000 0.0000
# 5 0.0000 0.0000 0.0000 0.0000 27.3389 0.0000
# 6 0.0000 0.0000 0.0000 0.0000 0.0000 -2.3814
#
#
#
# Elastic Compliance Matrix: (Units=1/GPa)
#
#
# Indices 1 2 3 4 5 6 
#
# 1 0.015741 -0.000187 -0.005200 0.000000 0.000000 0.000000
# 2 -0.000187 0.009356 -0.004395 0.000000 0.000000 0.000000
# 3 -0.005200 -0.004395 0.024273 0.000000 0.000000 0.000000
# 4 0.000000 0.000000 0.000000 0.034917 0.000000 0.000000
# 5 0.000000 0.000000 0.000000 0.000000 0.036578 0.000000
# 6 0.000000 0.000000 0.000000 0.000000 0.000000 -0.419925
#
#
# Mechanical properties :
#
#
# Convention : Reuss Voigt Hill
#
# Bulk Modulus (GPa) = 33.55027 37.08563 35.31795
# Shear Modulus (GPa) = -18.54867 23.19700 2.32417
#
# Velocity S-wave (km/s) = -2.94908 3.29797 1.04391
# Velocity P-wave (km/s) = 2.03345 5.64720 4.24416
#
# Compressibility (1/GPa) = 0.02980602
#
# Stress axis : x y z
#
# Youngs Moduli (GPa) = 63.52940 106.88131 41.19775
#
# Poissons Ratio (x) = 0.01994 0.21424
# Poissons Ratio (y) = 0.01185 0.18108
# Poissons Ratio (z) = 0.33036 0.46978
#
# Static dielectric constant tensor:
#      x y z
#    x 1.855020 0.000000 0.000000 
#    y 0.000000 1.705680 0.000000 
#    z 0.000000 0.000000 1.787560 
# 
# From -- ./inp_files/36829.got.cif
#   From: 2010.05.17/outbox.cif.g08.bks.cpg/sg52_19_cif.got.tgz:36829.got - 2010.06.03 12:15:38.
