data_PCOD9410036
_publ_section_title
;
Structure prediction by ZEFSAII (Michael W. Deem and Ramdas Pophale) SiO2 
 PCOD9410036
Probable space group: P N N A
;
_chemical_formula_sum "Si O2"
_cell_formula_units_Z 52
_cell_length_a 9.000864
_cell_length_b 10.349499
_cell_length_c 28.362931
_cell_angle_alpha 90.000000
_cell_angle_beta 90.000000
_cell_angle_gamma 90.000000
_cell_volume 2642.132755
_symmetry_space_group_name_H-M "P N N A"
_symmetry_group_IT_number 52
_symmetry_cell_setting 'orthorhombic'
loop_
_space_group_symop_operation_xyz
x,y,z
1/2-x,-y,z
x,1/2-y,1/2-z
1/2-x,1/2+y,1/2-z
-x,-y,-z
1/2+x,y,-z
-x,1/2+y,1/2+z
1/2+x,1/2-y,1/2+z
loop_
_atom_site_type_symbol
_atom_site_label
_atom_site_fract_x
_atom_site_fract_y
_atom_site_fract_z
Si Si1 0.768246 0.153146 0.862321
Si Si2 0.469287 0.727041 0.702203
Si Si3 0.250000 0.500000 0.700228
Si Si4 0.686253 0.142930 0.057817
Si Si5 0.479611 0.279819 0.693796
Si Si6 0.833441 0.361103 0.536970
Si Si7 0.740803 0.358328 0.137145
O O1 0.924703 0.174619 0.837753
O O2 0.640756 0.207621 0.828949
O O3 0.771967 0.206280 0.915726
O O4 0.750000 0.000000 0.866235
O O5 0.558498 0.750000 0.750000
O O6 0.346492 0.878342 0.781226
O O7 0.385357 0.845167 0.677344
O O8 0.387298 0.411578 0.681417
O O9 0.511936 0.128713 0.043384
O O10 0.707860 0.244095 0.100075
O O11 0.750000 0.000000 0.070861
O O12 0.782144 0.194100 0.013194
O O13 0.480887 0.250000 0.750000
O O14 0.390981 0.170758 0.665528
O O15 0.750000 0.500000 0.535278
O O16 0.750000 0.500000 0.115623
#
# Coordination Sequence:
#
# PCOD9410036 Si02
#       7
#     8   8   4   8   8   8   8
#     4  11  22  40  63  97 127 159 216 272 320 370
#     4  11  23  38  65  86 132 165 213 261 318 371
#     4  10  20  38  60  96 108 172 216 274 290 370
#     4  11  23  41  69  98 124 164 210 268 326 374
#     4  11  25  38  65  89 130 171 214 257 321 367
#     4  10  22  37  67  99 128 152 210 275 322 369
#     4  11  26  42  64  95 130 168 215 259 315 388
#
# _framework density 19.681070999999999
#
# number of rings (size 3 to 8) (size 9 to 14) (size 15 to 20)
#    0.000    1.231    3.077    4.154   15.077    0.000 
#    0.000    1.538    0.000    0.000    0.000    0.000 
#    0.000    0.000    0.000    0.000    0.000    0.000 
#
# Total GULP energy -289491.494639 kJ/mol
# GULP energy per Si atom -5567.144128 kJ/mol
# Density = 1.963628 g / cm^3
# Si number density = 19.681071 Si / 1000 Ang^3
#
#
#
# Elastic Constant Matrix: (Units=GPa)
#
#
# Indices 1 2 3 4 5 6 
#
# 1 111.4335 25.6229 43.2023 0.0000 0.0000 0.0000
# 2 25.6229 77.6608 32.5011 0.0000 0.0000 0.0000
# 3 43.2023 32.5011 140.4791 0.0000 0.0000 0.0000
# 4 0.0000 0.0000 0.0000 3.3468 0.0000 0.0000
# 5 0.0000 0.0000 0.0000 0.0000 30.6963 0.0000
# 6 0.0000 0.0000 0.0000 0.0000 0.0000 2.2272
#
#
#
# Elastic Compliance Matrix: (Units=1/GPa)
#
#
# Indices 1 2 3 4 5 6 
#
# 1 0.010564 -0.002354 -0.002704 0.000000 0.000000 0.000000
# 2 -0.002354 0.014781 -0.002696 0.000000 0.000000 0.000000
# 3 -0.002704 -0.002696 0.008574 0.000000 0.000000 0.000000
# 4 0.000000 0.000000 0.000000 0.298795 0.000000 0.000000
# 5 0.000000 0.000000 0.000000 0.000000 0.032577 0.000000
# 6 0.000000 0.000000 0.000000 0.000000 0.000000 0.449004
#
#
# Mechanical properties :
#
#
# Convention : Reuss Voigt Hill
#
# Bulk Modulus (GPa) = 54.31450 59.13623 56.72536
# Shear Modulus (GPa) = 5.98130 22.47052 14.22591
#
# Velocity S-wave (km/s) = 1.74520 3.38262 2.69145
# Velocity P-wave (km/s) = 5.63189 6.73562 6.20833
#
# Compressibility (1/GPa) = 0.01841129
#
# Stress axis : x y z
#
# Youngs Moduli (GPa) = 94.66535 67.65303 116.63368
#
# Poissons Ratio (x) = 0.15923 0.31539
# Poissons Ratio (y) = 0.22280 0.31444
# Poissons Ratio (z) = 0.25599 0.18239
#
# Static dielectric constant tensor:
#      x y z
#    x 1.773980 0.000000 0.000000 
#    y 0.000000 1.699830 0.000000 
#    z 0.000000 0.000000 1.735800 
# 
# From -- ./inp_files/42293.got.cif
#   From: 2010.05.17/outbox.cif.g08.bks.cpg/sg52_22_cif.got.tgz:42293.got - 2010.06.03 12:15:38.
