data_PCOD9410347
_publ_section_title
;
Structure prediction by ZEFSAII (Michael W. Deem and Ramdas Pophale) SiO2 
 PCOD9410347
Probable space group: P N N A
;
_chemical_formula_sum "Si O2"
_cell_formula_units_Z 32
_cell_length_a 16.655147
_cell_length_b 5.703485
_cell_length_c 13.486790
_cell_angle_alpha 90.000000
_cell_angle_beta 90.000000
_cell_angle_gamma 90.000000
_cell_volume 1281.142295
_symmetry_space_group_name_H-M "P N N A"
_symmetry_group_IT_number 52
_symmetry_cell_setting 'orthorhombic'
loop_
_space_group_symop_operation_xyz
x,y,z
1/2-x,-y,z
x,1/2-y,1/2-z
1/2-x,1/2+y,1/2-z
-x,-y,-z
1/2+x,y,-z
-x,1/2+y,1/2+z
1/2+x,1/2-y,1/2+z
loop_
_atom_site_type_symbol
_atom_site_label
_atom_site_fract_x
_atom_site_fract_y
_atom_site_fract_z
Si Si1 0.824357 0.140621 0.081555
Si Si2 0.873807 0.882451 0.894360
Si Si3 0.979479 0.091624 0.388586
Si Si4 0.750000 0.500000 0.924096
Si Si5 0.921182 0.250000 0.750000
O O1 0.890050 0.310901 0.131149
O O2 0.750000 0.000000 0.133140
O O3 0.788249 0.311644 0.998429
O O4 0.866539 0.947604 0.010458
O O5 0.817837 0.658155 0.871535
O O6 0.964980 0.816917 0.875173
O O7 0.862883 0.101852 0.822396
O O8 0.000000 0.000000 0.500000
O O9 0.018235 0.900591 0.317332
#
# Coordination Sequence:
#
# PCOD9410347 Si02
#       5
#     8   8   8   4   4
#     4  10  22  39  72 103 135 186 239 306 378 445
#     4  11  22  42  69 105 141 189 241 305 369 457
#     4  12  23  43  71 103 141 189 255 308 370 461
#     4  10  20  40  70 102 146 178 232 292 382 454
#     4  12  26  38  70 106 144 194 258 306 382 450
#
# _framework density 24.977708
#
# number of rings (size 3 to 8) (size 9 to 14) (size 15 to 20)
#    0.000    1.000    5.000    1.500    0.000    0.000 
#    0.000    0.000  123.750    0.000   32.500    0.000 
#    0.000    0.000    0.000    0.000    0.000    0.000 
#
# Total GULP energy -178715.892940 kJ/mol
# GULP energy per Si atom -5584.871654 kJ/mol
# Density = 2.492086 g / cm^3
# Si number density = 24.977708 Si / 1000 Ang^3
#
#
#
# Elastic Constant Matrix: (Units=GPa)
#
#
# Indices 1 2 3 4 5 6 
#
# 1 131.3652 26.7936 0.7012 0.0000 0.0000 0.0000
# 2 26.7936 81.9091 1.3879 0.0000 0.0000 0.0000
# 3 0.7012 1.3879 50.4519 0.0000 0.0000 0.0000
# 4 0.0000 0.0000 0.0000 32.4318 0.0000 0.0000
# 5 0.0000 0.0000 0.0000 0.0000 4.8270 0.0000
# 6 0.0000 0.0000 0.0000 0.0000 0.0000 63.6363
#
#
#
# Elastic Compliance Matrix: (Units=1/GPa)
#
#
# Indices 1 2 3 4 5 6 
#
# 1 0.008157 -0.002667 -0.000040 0.000000 0.000000 0.000000
# 2 -0.002667 0.013087 -0.000323 0.000000 0.000000 0.000000
# 3 -0.000040 -0.000323 0.019830 0.000000 0.000000 0.000000
# 4 0.000000 0.000000 0.000000 0.030834 0.000000 0.000000
# 5 0.000000 0.000000 0.000000 0.000000 0.207169 0.000000
# 6 0.000000 0.000000 0.000000 0.000000 0.000000 0.015714
#
#
# Mechanical properties :
#
#
# Convention : Reuss Voigt Hill
#
# Bulk Modulus (GPa) = 28.56093 35.72128 32.14111
# Shear Modulus (GPa) = 15.99884 35.83525 25.91704
#
# Velocity S-wave (km/s) = 2.53360 3.79184 3.22469
# Velocity P-wave (km/s) = 4.47418 5.78818 5.17307
#
# Compressibility (1/GPa) = 0.03501286
#
# Stress axis : x y z
#
# Youngs Moduli (GPa) = 122.59943 76.41344 50.42791
#
# Poissons Ratio (x) = 0.20383 0.00202
# Poissons Ratio (y) = 0.32703 0.01628
# Poissons Ratio (z) = 0.00490 0.02468
#
# Static dielectric constant tensor:
#      x y z
#    x 2.028690 0.000000 0.000000 
#    y 0.000000 2.098550 0.000000 
#    z 0.000000 0.000000 2.006000 
# 
# From -- ./inp_files/27640.got.cif
#   From: 2010.05.17/outbox.cif.g08.bks.cpg/sg52_14_cif.got.tgz:27640.got - 2010.06.03 12:15:38.
