data_PCOD9410764
_publ_section_title
;
Structure prediction by ZEFSAII (Michael W. Deem and Ramdas Pophale) SiO2 
 PCOD9410764
Probable space group: P N N A
;
_chemical_formula_sum "Si O2"
_cell_formula_units_Z 32
_cell_length_a 17.433423
_cell_length_b 7.735119
_cell_length_c 9.049572
_cell_angle_alpha 90.000000
_cell_angle_beta 90.000000
_cell_angle_gamma 90.000000
_cell_volume 1220.331178
_symmetry_space_group_name_H-M "P N N A"
_symmetry_group_IT_number 52
_symmetry_cell_setting 'orthorhombic'
loop_
_space_group_symop_operation_xyz
x,y,z
1/2-x,-y,z
x,1/2-y,1/2-z
1/2-x,1/2+y,1/2-z
-x,-y,-z
1/2+x,y,-z
-x,1/2+y,1/2+z
1/2+x,1/2-y,1/2+z
loop_
_atom_site_type_symbol
_atom_site_label
_atom_site_fract_x
_atom_site_fract_y
_atom_site_fract_z
Si Si1 0.866316 0.654745 0.089062
Si Si2 0.474257 0.652539 0.385389
Si Si3 0.665381 0.564866 0.674839
Si Si4 0.697791 0.775145 0.420276
O O1 0.872983 0.750000 0.250000
O O2 0.784842 0.715572 0.017610
O O3 0.851354 0.449662 0.075733
O O4 0.940041 0.707591 0.997633
O O5 0.519593 0.750000 0.250000
O O6 0.500000 0.500000 0.500000
O O7 0.403008 0.564875 0.297584
O O8 0.750000 0.500000 0.715254
O O9 0.652669 0.750000 0.750000
O O10 0.661850 0.612564 0.500701
O O11 0.710928 0.750000 0.250000
#
# Coordination Sequence:
#
# PCOD9410764 Si02
#       4
#     8   8   8   8
#     4  10  21  40  70 106 148 187 243 302 371 445
#     4  12  28  50  73 105 150 204 253 305 378 464
#     4  12  25  43  73 107 143 186 246 315 378 439
#     4  10  21  37  70 112 145 182 232 308 376 437
#
# _framework density 26.222390000000001
#
# number of rings (size 3 to 8) (size 9 to 14) (size 15 to 20)
#    0.000    1.000    2.500    3.750    7.000    4.000 
#    0.000    3.750    0.000    0.000    0.000    0.000 
#    0.000    0.000    0.000    0.000    0.000    0.000 
#
# Total GULP energy -178839.080667 kJ/mol
# GULP energy per Si atom -5588.721271 kJ/mol
# Density = 2.616271 g / cm^3
# Si number density = 26.222390 Si / 1000 Ang^3
#
#
#
# Elastic Constant Matrix: (Units=GPa)
#
#
# Indices 1 2 3 4 5 6 
#
# 1 61.5529 22.0560 16.1704 0.0000 0.0000 0.0000
# 2 22.0560 110.5450 25.8239 0.0000 0.0000 0.0000
# 3 16.1704 25.8239 130.0471 0.0000 0.0000 0.0000
# 4 0.0000 0.0000 0.0000 66.0548 0.0000 0.0000
# 5 0.0000 0.0000 0.0000 0.0000 22.9218 0.0000
# 6 0.0000 0.0000 0.0000 0.0000 0.0000 -148.0736
#
#
#
# Elastic Compliance Matrix: (Units=1/GPa)
#
#
# Indices 1 2 3 4 5 6 
#
# 1 0.017802 -0.003182 -0.001582 0.000000 0.000000 0.000000
# 2 -0.003182 0.010055 -0.001601 0.000000 0.000000 0.000000
# 3 -0.001582 -0.001601 0.008204 0.000000 0.000000 0.000000
# 4 0.000000 0.000000 0.000000 0.015139 0.000000 0.000000
# 5 0.000000 0.000000 0.000000 0.000000 0.043627 0.000000
# 6 0.000000 0.000000 0.000000 0.000000 0.000000 -0.006753
#
#
# Mechanical properties :
#
#
# Convention : Reuss Voigt Hill
#
# Bulk Modulus (GPa) = 42.86100 47.80505 45.33303
# Shear Modulus (GPa) = 46.04885 4.05357 25.05121
#
# Velocity S-wave (km/s) = 4.19512 1.24467 3.09421
# Velocity P-wave (km/s) = 6.31237 4.50952 5.48552
#
# Compressibility (1/GPa) = 0.02333123
#
# Stress axis : x y z
#
# Youngs Moduli (GPa) = 56.17339 99.45272 121.89040
#
# Poissons Ratio (x) = 0.31650 0.19278
# Poissons Ratio (y) = 0.17877 0.19514
# Poissons Ratio (z) = 0.08884 0.15922
#
# Static dielectric constant tensor:
#      x y z
#    x 2.086130 0.000000 0.000000 
#    y 0.000000 2.055180 0.000000 
#    z 0.000000 0.000000 2.152960 
# 
# From -- ./inp_files/12777.got.cif
#   From: 2010.05.17/outbox.cif.g08.bks.cpg/sg52_7_cif.got.tgz:12777.got - 2010.06.03 12:15:38.
