data_PCOD9410457
_publ_section_title
;
Structure prediction by ZEFSAII (Michael W. Deem and Ramdas Pophale) SiO2 
 PCOD9410457
Probable space group: P N N A
;
_chemical_formula_sum "Si O2"
_cell_formula_units_Z 48
_cell_length_a 24.103956
_cell_length_b 11.099675
_cell_length_c 8.780458
_cell_angle_alpha 90.000000
_cell_angle_beta 90.000000
_cell_angle_gamma 90.000000
_cell_volume 2349.177099
_symmetry_space_group_name_H-M "P N N A"
_symmetry_group_IT_number 52
_symmetry_cell_setting 'orthorhombic'
loop_
_space_group_symop_operation_xyz
x,y,z
1/2-x,-y,z
x,1/2-y,1/2-z
1/2-x,1/2+y,1/2-z
-x,-y,-z
1/2+x,y,-z
-x,1/2+y,1/2+z
1/2+x,1/2-y,1/2+z
loop_
_atom_site_type_symbol
_atom_site_label
_atom_site_fract_x
_atom_site_fract_y
_atom_site_fract_z
Si Si1 0.188414 0.750000 0.250000
Si Si2 0.144116 0.100671 0.024745
Si Si3 0.501229 0.422656 0.229739
Si Si4 0.593539 0.650833 0.528920
Si Si5 0.922327 0.750000 0.750000
Si Si6 0.103973 0.250000 0.750000
Si Si7 0.476632 0.157381 0.596211
Si Si8 0.250000 0.500000 0.313710
O O1 0.145433 0.712822 0.384355
O O2 0.223332 0.621800 0.229607
O O3 0.115212 0.145338 0.181516
O O4 0.112897 0.979520 0.973355
O O5 0.204416 0.060416 0.077200
O O6 0.139163 0.202806 0.894770
O O7 0.459468 0.375029 0.358276
O O8 0.559536 0.355378 0.219855
O O9 0.517129 0.561820 0.231266
O O10 0.470581 0.404780 0.068082
O O11 0.571068 0.745092 0.407932
O O12 0.963169 0.781075 0.610867
#
# Coordination Sequence:
#
# PCOD9410457 Si02
#       8
#     4   8   8   8   4   4   8   4
#     4  10  20  42  70  94 128 162 218 284 330 386
#     4  11  25  41  68  88 128 172 222 273 329 374
#     4  11  20  35  56  94 133 170 199 248 308 406
#     4  11  20  40  63  92 134 176 204 253 331 387
#     4  12  21  36  60 104 132 168 211 260 316 396
#     4  12  23  42  60  88 130 174 211 260 322 386
#     4  11  22  32  56  95 137 168 204 245 308 404
#     4  10  24  44  70  94 120 162 234 286 334 382
#
# _framework density 20.432687000000001
#
# number of rings (size 3 to 8) (size 9 to 14) (size 15 to 20)
#    0.000    1.000    6.667    0.500    2.333    1.333 
#    3.000    0.000    7.333    1.000    0.000    0.000 
#    0.000    0.000    0.000    0.000    0.000    0.000 
#
# Total GULP energy -267325.655770 kJ/mol
# GULP energy per Si atom -5569.284495 kJ/mol
# Density = 2.038618 g / cm^3
# Si number density = 20.432687 Si / 1000 Ang^3
#
#
#
# Elastic Constant Matrix: (Units=GPa)
#
#
# Indices 1 2 3 4 5 6 
#
# 1 108.2553 56.5602 31.3030 0.0000 0.0000 0.0000
# 2 56.5602 133.7498 30.4829 0.0000 0.0000 0.0000
# 3 31.3030 30.4829 68.7064 0.0000 0.0000 0.0000
# 4 0.0000 0.0000 0.0000 41.8067 0.0000 0.0000
# 5 0.0000 0.0000 0.0000 0.0000 18.5617 0.0000
# 6 0.0000 0.0000 0.0000 0.0000 0.0000 63.6842
#
#
#
# Elastic Compliance Matrix: (Units=1/GPa)
#
#
# Indices 1 2 3 4 5 6 
#
# 1 0.012683 -0.004501 -0.003781 0.000000 0.000000 0.000000
# 2 -0.004501 0.009915 -0.002348 0.000000 0.000000 0.000000
# 3 -0.003781 -0.002348 0.017319 0.000000 0.000000 0.000000
# 4 0.000000 0.000000 0.000000 0.023920 0.000000 0.000000
# 5 0.000000 0.000000 0.000000 0.000000 0.053874 0.000000
# 6 0.000000 0.000000 0.000000 0.000000 0.000000 0.015702
#
#
# Mechanical properties :
#
#
# Convention : Reuss Voigt Hill
#
# Bulk Modulus (GPa) = 53.60328 60.82262 57.21295
# Shear Modulus (GPa) = 31.07635 37.63489 34.35562
#
# Velocity S-wave (km/s) = 3.90412 4.29639 4.10494
# Velocity P-wave (km/s) = 6.82744 7.37861 7.10837
#
# Compressibility (1/GPa) = 0.01865558
#
# Stress axis : x y z
#
# Youngs Moduli (GPa) = 78.84776 100.85286 57.73933
#
# Poissons Ratio (x) = 0.45399 0.21832
# Poissons Ratio (y) = 0.35493 0.13559
# Poissons Ratio (z) = 0.29813 0.23683
#
# Static dielectric constant tensor:
#      x y z
#    x 1.721970 0.000000 0.000000 
#    y 0.000000 1.938450 0.000000 
#    z 0.000000 0.000000 1.762430 
# 
# From -- ./inp_files/14349.got.cif
#   From: 2010.05.17/outbox.cif.g08.bks.cpg/sg52_8_cif.got.tgz:14349.got - 2010.06.03 12:15:38.
