data_PCOD9410006
_publ_section_title
;
Structure prediction by ZEFSAII (Michael W. Deem and Ramdas Pophale) SiO2 
 PCOD9410006
Probable space group: P N N A
;
_chemical_formula_sum "Si O2"
_cell_formula_units_Z 44
_cell_length_a 14.149529
_cell_length_b 7.224923
_cell_length_c 15.861663
_cell_angle_alpha 90.000000
_cell_angle_beta 90.000000
_cell_angle_gamma 90.000000
_cell_volume 1621.526031
_symmetry_space_group_name_H-M "P N N A"
_symmetry_group_IT_number 52
_symmetry_cell_setting 'orthorhombic'
loop_
_space_group_symop_operation_xyz
x,y,z
1/2-x,-y,z
x,1/2-y,1/2-z
1/2-x,1/2+y,1/2-z
-x,-y,-z
1/2+x,y,-z
-x,1/2+y,1/2+z
1/2+x,1/2-y,1/2+z
loop_
_atom_site_type_symbol
_atom_site_label
_atom_site_fract_x
_atom_site_fract_y
_atom_site_fract_z
Si Si1 0.512477 0.683550 0.606847
Si Si2 0.464248 0.260260 0.649366
Si Si3 0.249237 0.199350 0.901324
Si Si4 0.615974 0.172477 0.535507
Si Si5 0.115660 0.250000 0.750000
Si Si6 0.218816 0.789032 0.151636
O O1 0.505336 0.468755 0.635170
O O2 0.452574 0.695330 0.522045
O O3 0.460104 0.804981 0.678680
O O4 0.621879 0.738061 0.600114
O O5 0.466986 0.250000 0.750000
O O6 0.355656 0.246667 0.620183
O O7 0.526530 0.116020 0.594835
O O8 0.189975 0.159389 0.815392
O O9 0.250000 0.000000 0.948197
O O10 0.191870 0.343853 0.958363
O O11 0.692805 0.186700 0.610632
O O12 0.201937 0.750000 0.250000
O O13 0.250000 0.000000 0.146037
#
# Coordination Sequence:
#
# PCOD9410006 Si02
#       6
#     8   8   8   8   4   8
#     4  11  23  39  65  91 128 170 213 262 324 385
#     4  12  23  36  60  96 125 158 206 275 315 370
#     4  11  21  35  61  89 118 156 209 260 311 364
#     4  11  23  37  61  97 123 157 220 277 302 378
#     4  10  20  38  58  90 120 160 208 254 308 392
#     4  12  25  41  67  97 132 173 213 273 329 394
#
# _framework density 27.134930000000001
#
# number of rings (size 3 to 8) (size 9 to 14) (size 15 to 20)
#    0.000    0.727    7.273    2.727    0.000    0.000 
#    0.000    0.000    0.000   18.545    0.000    0.000 
#    0.000    0.000    0.000    0.000    0.000    0.000 
#
# Total GULP energy -245001.423830 kJ/mol
# GULP energy per Si atom -5568.214178 kJ/mol
# Density = 2.707317 g / cm^3
# Si number density = 27.134930 Si / 1000 Ang^3
#
#
#
# Elastic Constant Matrix: (Units=GPa)
#
#
# Indices 1 2 3 4 5 6 
#
# 1 242.0014 40.8041 43.4167 0.0000 0.0000 0.0000
# 2 40.8041 67.2472 36.5182 0.0000 0.0000 0.0000
# 3 43.4167 36.5182 156.7892 0.0000 0.0000 0.0000
# 4 0.0000 0.0000 0.0000 8.5751 0.0000 0.0000
# 5 0.0000 0.0000 0.0000 0.0000 -13.1097 0.0000
# 6 0.0000 0.0000 0.0000 0.0000 0.0000 9.9920
#
#
#
# Elastic Compliance Matrix: (Units=1/GPa)
#
#
# Indices 1 2 3 4 5 6 
#
# 1 0.004674 -0.002442 -0.000726 0.000000 0.000000 0.000000
# 2 -0.002442 0.018300 -0.003586 0.000000 0.000000 0.000000
# 3 -0.000726 -0.003586 0.007414 0.000000 0.000000 0.000000
# 4 0.000000 0.000000 0.000000 0.116617 0.000000 0.000000
# 5 0.000000 0.000000 0.000000 0.000000 -0.076279 0.000000
# 6 0.000000 0.000000 0.000000 0.000000 0.000000 0.100080
#
#
# Mechanical properties :
#
#
# Convention : Reuss Voigt Hill
#
# Bulk Modulus (GPa) = 59.23944 78.61287 68.92616
# Shear Modulus (GPa) = 26.32423 24.11141 25.21782
#
# Velocity S-wave (km/s) = 3.11806 2.98413 3.05183
# Velocity P-wave (km/s) = 5.90270 6.39589 6.15424
#
# Compressibility (1/GPa) = 0.01688064
#
# Stress axis : x y z
#
# Youngs Moduli (GPa) = 213.94276 54.64567 134.87793
#
# Poissons Ratio (x) = 0.13345 0.09786
# Poissons Ratio (y) = 0.52249 0.48367
# Poissons Ratio (z) = 0.15522 0.19596
#
# Static dielectric constant tensor:
#      x y z
#    x 2.058250 0.000000 0.000000 
#    y 0.000000 2.333240 0.000000 
#    z 0.000000 0.000000 2.128230 
# 
# From -- ./inp_files/27119.got.cif
#   From: 2010.05.17/outbox.cif.g08.bks.cpg/sg52_14_cif.got.tgz:27119.got - 2010.06.03 12:15:38.
