data_PCOD9410143
_publ_section_title
;
Structure prediction by ZEFSAII (Michael W. Deem and Ramdas Pophale) SiO2 
 PCOD9410143
Probable space group: P N N A
;
_chemical_formula_sum "Si O2"
_cell_formula_units_Z 40
_cell_length_a 20.277386
_cell_length_b 11.106967
_cell_length_c 7.491136
_cell_angle_alpha 90.000000
_cell_angle_beta 90.000000
_cell_angle_gamma 90.000000
_cell_volume 1687.155576
_symmetry_space_group_name_H-M "P N N A"
_symmetry_group_IT_number 52
_symmetry_cell_setting 'orthorhombic'
loop_
_space_group_symop_operation_xyz
x,y,z
1/2-x,-y,z
x,1/2-y,1/2-z
1/2-x,1/2+y,1/2-z
-x,-y,-z
1/2+x,y,-z
-x,1/2+y,1/2+z
1/2+x,1/2-y,1/2+z
loop_
_atom_site_type_symbol
_atom_site_label
_atom_site_fract_x
_atom_site_fract_y
_atom_site_fract_z
Si Si1 0.039552 0.342008 0.982370
Si Si2 0.104025 0.912801 0.451879
Si Si3 0.182390 0.565546 0.685869
Si Si4 0.716506 0.867300 0.827271
Si Si5 0.439360 0.582281 0.568142
O O1 0.960717 0.335979 0.997386
O O2 0.048711 0.379837 0.774671
O O3 0.065666 0.210616 0.028299
O O4 0.074441 0.452767 0.081796
O O5 0.146812 0.907261 0.630826
O O6 0.149209 0.876478 0.287103
O O7 0.250000 0.500000 0.733692
O O8 0.203206 0.660503 0.535531
O O9 0.129923 0.485457 0.574454
O O10 0.753727 0.750000 0.750000
O O11 0.750000 0.000000 0.813547
O O12 0.500000 0.500000 0.500000
#
# Coordination Sequence:
#
# PCOD9410143 Si02
#       5
#     8   8   8   8   8
#     4   9  21  39  64  99 136 176 232 281 352 411
#     4  10  21  42  68  98 134 177 226 292 340 416
#     4  10  23  43  66 101 136 182 231 280 356 415
#     4  11  26  45  68  97 136 181 231 284 346 422
#     4  10  20  38  67  97 139 181 229 295 343 415
#
# _framework density 23.708542999999999
#
# number of rings (size 3 to 8) (size 9 to 14) (size 15 to 20)
#    0.000    2.000    0.000    1.800    5.600    4.000 
#    3.600   17.000    0.000    0.000    0.000    0.000 
#    0.000    0.000    0.000    0.000    0.000    0.000 
#
# Total GULP energy -223528.999860 kJ/mol
# GULP energy per Si atom -5588.224996 kJ/mol
# Density = 2.365458 g / cm^3
# Si number density = 23.708543 Si / 1000 Ang^3
#
#
#
# Elastic Constant Matrix: (Units=GPa)
#
#
# Indices 1 2 3 4 5 6 
#
# 1 90.9709 11.7784 10.4350 0.0000 0.0000 0.0000
# 2 11.7784 107.8704 -9.8019 0.0000 0.0000 0.0000
# 3 10.4350 -9.8019 82.7580 0.0000 0.0000 0.0000
# 4 0.0000 0.0000 0.0000 27.4776 0.0000 0.0000
# 5 0.0000 0.0000 0.0000 0.0000 33.3014 0.0000
# 6 0.0000 0.0000 0.0000 0.0000 0.0000 10.8810
#
#
#
# Elastic Compliance Matrix: (Units=1/GPa)
#
#
# Indices 1 2 3 4 5 6 
#
# 1 0.011355 -0.001385 -0.001596 0.000000 0.000000 0.000000
# 2 -0.001385 0.009540 0.001305 0.000000 0.000000 0.000000
# 3 -0.001596 0.001305 0.012439 0.000000 0.000000 0.000000
# 4 0.000000 0.000000 0.000000 0.036393 0.000000 0.000000
# 5 0.000000 0.000000 0.000000 0.000000 0.030029 0.000000
# 6 0.000000 0.000000 0.000000 0.000000 0.000000 0.091903
#
#
# Mechanical properties :
#
#
# Convention : Reuss Voigt Hill
#
# Bulk Modulus (GPa) = 33.35329 34.04692 33.70010
# Shear Modulus (GPa) = 24.38962 32.27789 28.33375
#
# Velocity S-wave (km/s) = 3.21086 3.69378 3.46075
# Velocity P-wave (km/s) = 5.27681 5.70822 5.49675
#
# Compressibility (1/GPa) = 0.02998205
#
# Stress axis : x y z
#
# Youngs Moduli (GPa) = 88.06796 104.82031 80.39139
#
# Poissons Ratio (x) = 0.14516 0.12829
# Poissons Ratio (y) = 0.12196 -0.10488
# Poissons Ratio (z) = 0.14054 -0.13674
#
# Static dielectric constant tensor:
#      x y z
#    x 1.848700 0.000000 0.000000 
#    y 0.000000 2.002870 0.000000 
#    z 0.000000 0.000000 1.922950 
# 
# From -- ./inp_files/11645.got.cif
#   From: 2010.05.17/outbox.cif.g08.bks.cpg/sg52_6_cif.got.tgz:11645.got - 2010.06.03 12:15:38.
