data_PCOD9410855
_publ_section_title
;
Structure prediction by ZEFSAII (Michael W. Deem and Ramdas Pophale) SiO2 
 PCOD9410855
Probable space group: P N N A
;
_chemical_formula_sum "Si O2"
_cell_formula_units_Z 36
_cell_length_a 8.899977
_cell_length_b 8.751803
_cell_length_c 20.170991
_cell_angle_alpha 90.000000
_cell_angle_beta 90.000000
_cell_angle_gamma 90.000000
_cell_volume 1571.135542
_symmetry_space_group_name_H-M "P N N A"
_symmetry_group_IT_number 52
_symmetry_cell_setting 'orthorhombic'
loop_
_space_group_symop_operation_xyz
x,y,z
1/2-x,-y,z
x,1/2-y,1/2-z
1/2-x,1/2+y,1/2-z
-x,-y,-z
1/2+x,y,-z
-x,1/2+y,1/2+z
1/2+x,1/2-y,1/2+z
loop_
_atom_site_type_symbol
_atom_site_label
_atom_site_fract_x
_atom_site_fract_y
_atom_site_fract_z
Si Si1 0.856376 0.134001 0.627726
Si Si2 0.847766 0.762299 0.118442
Si Si3 0.802162 0.666850 0.528118
Si Si4 0.463015 0.106882 0.856275
Si Si5 0.669612 0.250000 0.750000
O O1 0.829358 0.265260 0.573405
O O2 0.775231 0.173579 0.695929
O O3 0.034486 0.131485 0.639957
O O4 0.750000 0.000000 0.600115
O O5 0.680392 0.780451 0.147135
O O6 0.916662 0.929866 0.136732
O O7 0.832056 0.744616 0.039163
O O8 0.750000 0.500000 0.505691
O O9 0.942518 0.651795 0.577933
O O10 0.566627 0.134934 0.792363
#
# Coordination Sequence:
#
# PCOD9410855 Si02
#       5
#     8   8   8   8   4
#     4  11  26  41  63  96 135 185 219 281 358 417
#     4  11  21  38  70 100 125 172 231 279 346 404
#     4  11  19  39  69 100 135 167 224 280 340 422
#     4  10  21  38  64 102 125 171 223 293 330 400
#     4  10  26  44  58  86 134 174 236 276 340 422
#
# _framework density 22.913361999999999
#
# number of rings (size 3 to 8) (size 9 to 14) (size 15 to 20)
#    0.000    1.333    4.444    2.000    3.111    1.778 
#    4.000    3.333    0.000    0.000    0.000    0.000 
#    0.000    0.000    0.000    0.000    0.000    0.000 
#
# Total GULP energy -201129.159076 kJ/mol
# GULP energy per Si atom -5586.921085 kJ/mol
# Density = 2.286121 g / cm^3
# Si number density = 22.913362 Si / 1000 Ang^3
#
#
#
# Elastic Constant Matrix: (Units=GPa)
#
#
# Indices 1 2 3 4 5 6 
#
# 1 137.8915 9.6322 22.7822 0.0000 0.0000 0.0000
# 2 9.6322 21.9343 -2.1358 0.0000 0.0000 0.0000
# 3 22.7822 -2.1358 113.8494 0.0000 0.0000 0.0000
# 4 0.0000 0.0000 0.0000 15.7549 0.0000 0.0000
# 5 0.0000 0.0000 0.0000 0.0000 11.0064 0.0000
# 6 0.0000 0.0000 0.0000 0.0000 0.0000 29.1379
#
#
#
# Elastic Compliance Matrix: (Units=1/GPa)
#
#
# Indices 1 2 3 4 5 6 
#
# 1 0.007769 -0.003570 -0.001622 0.000000 0.000000 0.000000
# 2 -0.003570 0.047314 0.001602 0.000000 0.000000 0.000000
# 3 -0.001622 0.001602 0.009138 0.000000 0.000000 0.000000
# 4 0.000000 0.000000 0.000000 0.063472 0.000000 0.000000
# 5 0.000000 0.000000 0.000000 0.000000 0.090856 0.000000
# 6 0.000000 0.000000 0.000000 0.000000 0.000000 0.034320
#
#
# Mechanical properties :
#
#
# Convention : Reuss Voigt Hill
#
# Bulk Modulus (GPa) = 17.53069 37.13693 27.33381
# Shear Modulus (GPa) = 17.91710 27.40629 22.66169
#
# Velocity S-wave (km/s) = 2.79937 3.46220 3.14827
# Velocity P-wave (km/s) = 4.25630 5.67672 5.01703
#
# Compressibility (1/GPa) = 0.05704282
#
# Stress axis : x y z
#
# Youngs Moduli (GPa) = 128.71059 21.13526 109.43201
#
# Poissons Ratio (x) = 0.07545 0.17746
# Poissons Ratio (y) = 0.45946 -0.17530
# Poissons Ratio (z) = 0.20873 -0.03386
#
# Static dielectric constant tensor:
#      x y z
#    x 1.906480 0.000000 0.000000 
#    y 0.000000 2.146720 0.000000 
#    z 0.000000 0.000000 1.802800 
# 
# From -- ./inp_files/35540.got.cif
#   From: 2010.05.17/outbox.cif.g08.bks.cpg/sg52_18_cif.got.tgz:35540.got - 2010.06.03 12:15:38.
