data_PCOD9410367
_publ_section_title
;
Structure prediction by ZEFSAII (Michael W. Deem and Ramdas Pophale) SiO2 
 PCOD9410367
Probable space group: P N N A
;
_chemical_formula_sum "Si O2"
_cell_formula_units_Z 48
_cell_length_a 8.568459
_cell_length_b 9.700636
_cell_length_c 31.363466
_cell_angle_alpha 90.000000
_cell_angle_beta 90.000000
_cell_angle_gamma 90.000000
_cell_volume 2606.915670
_symmetry_space_group_name_H-M "P N N A"
_symmetry_group_IT_number 52
_symmetry_cell_setting 'orthorhombic'
loop_
_space_group_symop_operation_xyz
x,y,z
1/2-x,-y,z
x,1/2-y,1/2-z
1/2-x,1/2+y,1/2-z
-x,-y,-z
1/2+x,y,-z
-x,1/2+y,1/2+z
1/2+x,1/2-y,1/2+z
loop_
_atom_site_type_symbol
_atom_site_label
_atom_site_fract_x
_atom_site_fract_y
_atom_site_fract_z
Si Si1 0.566287 0.991631 0.352259
Si Si2 0.437568 0.494686 0.452415
Si Si3 0.572549 0.782027 0.880200
Si Si4 0.946115 0.771743 0.886831
Si Si5 0.407667 0.588504 0.237180
Si Si6 0.433449 0.012738 0.820936
O O1 0.526465 0.875696 0.387224
O O2 0.474047 0.941731 0.309932
O O3 0.750000 0.000000 0.343414
O O4 0.506531 0.138012 0.369218
O O5 0.250000 0.500000 0.453382
O O6 0.500000 0.500000 0.500000
O O7 0.480425 0.361408 0.423459
O O8 0.489254 0.629422 0.426060
O O9 0.758798 0.761970 0.883456
O O10 0.527541 0.886858 0.842194
O O11 0.005586 0.852631 0.845278
O O12 0.250000 0.500000 0.241861
O O13 0.383541 0.750000 0.250000
O O14 0.529173 0.528614 0.271499
O O15 0.250000 0.000000 0.828621
#
# Coordination Sequence:
#
# PCOD9410367 Si02
#       6
#     8   8   8   8   8   8
#     4  12  25  40  60  90 121 157 202 261 308 345
#     4   9  20  38  65  94 120 152 195 243 294 361
#     4  10  22  39  64  86 120 162 200 238 300 365
#     4  10  20  41  60  87 120 161 200 240 296 374
#     4  12  26  42  61  85 119 163 210 249 302 361
#     4  11  22  38  60  86 117 154 202 255 297 343
#
# _framework density 18.412562999999999
#
# number of rings (size 3 to 8) (size 9 to 14) (size 15 to 20)
#    0.000    1.333    1.667    5.500    2.333    4.000 
#    0.000    0.833    0.000    0.000    0.000    0.000 
#    0.000    0.000    0.000    0.000    0.000    0.000 
#
# Total GULP energy -268079.679515 kJ/mol
# GULP energy per Si atom -5584.993323 kJ/mol
# Density = 1.837066 g / cm^3
# Si number density = 18.412563 Si / 1000 Ang^3
#
#
#
# Elastic Constant Matrix: (Units=GPa)
#
#
# Indices 1 2 3 4 5 6 
#
# 1 63.4018 34.2148 9.6062 0.0000 0.0000 0.0000
# 2 34.2148 162.3002 48.7867 0.0000 0.0000 0.0000
# 3 9.6062 48.7867 110.4521 0.0000 0.0000 0.0000
# 4 0.0000 0.0000 0.0000 37.4589 0.0000 0.0000
# 5 0.0000 0.0000 0.0000 0.0000 52.9757 0.0000
# 6 0.0000 0.0000 0.0000 0.0000 0.0000 17.5142
#
#
#
# Elastic Compliance Matrix: (Units=1/GPa)
#
#
# Indices 1 2 3 4 5 6 
#
# 1 0.017799 -0.003790 0.000126 0.000000 0.000000 0.000000
# 2 -0.003790 0.007912 -0.003165 0.000000 0.000000 0.000000
# 3 0.000126 -0.003165 0.010441 0.000000 0.000000 0.000000
# 4 0.000000 0.000000 0.000000 0.026696 0.000000 0.000000
# 5 0.000000 0.000000 0.000000 0.000000 0.018877 0.000000
# 6 0.000000 0.000000 0.000000 0.000000 0.000000 0.057096
#
#
# Mechanical properties :
#
#
# Convention : Reuss Voigt Hill
#
# Bulk Modulus (GPa) = 44.45791 57.92995 51.19393
# Shear Modulus (GPa) = 31.25473 37.82619 34.54046
#
# Velocity S-wave (km/s) = 4.12450 4.53743 4.33589
# Velocity P-wave (km/s) = 6.84689 7.67994 7.27535
#
# Compressibility (1/GPa) = 0.02249318
#
# Stress axis : x y z
#
# Youngs Moduli (GPa) = 56.18412 126.39343 95.77882
#
# Poissons Ratio (x) = 0.47904 -0.01208
# Poissons Ratio (y) = 0.21294 0.30314
# Poissons Ratio (z) = -0.00709 0.40004
#
# Static dielectric constant tensor:
#      x y z
#    x 1.612240 0.000000 0.000000 
#    y 0.000000 1.655380 0.000000 
#    z 0.000000 0.000000 1.622350 
# 
# From -- ./inp_files/44371.got.cif
#   From: 2010.05.17/outbox.cif.g08.bks.cpg/sg52_23_cif.got.tgz:44371.got - 2010.06.03 12:15:38.
