data_PCOD9410809
_publ_section_title
;
Structure prediction by ZEFSAII (Michael W. Deem and Ramdas Pophale) SiO2 
 PCOD9410809
Probable space group: P N N A
;
_chemical_formula_sum "Si O2"
_cell_formula_units_Z 40
_cell_length_a 11.458238
_cell_length_b 9.905943
_cell_length_c 18.984807
_cell_angle_alpha 90.000000
_cell_angle_beta 90.000000
_cell_angle_gamma 90.000000
_cell_volume 2154.863921
_symmetry_space_group_name_H-M "P N N A"
_symmetry_group_IT_number 52
_symmetry_cell_setting 'orthorhombic'
loop_
_space_group_symop_operation_xyz
x,y,z
1/2-x,-y,z
x,1/2-y,1/2-z
1/2-x,1/2+y,1/2-z
-x,-y,-z
1/2+x,y,-z
-x,1/2+y,1/2+z
1/2+x,1/2-y,1/2+z
loop_
_atom_site_type_symbol
_atom_site_label
_atom_site_fract_x
_atom_site_fract_y
_atom_site_fract_z
Si Si1 0.329487 0.805858 0.676128
Si Si2 0.347846 0.606786 0.274028
Si Si3 0.931714 0.409855 0.170663
Si Si4 0.531721 0.160576 0.913939
Si Si5 0.360752 0.917318 0.942270
O O1 0.377678 0.750000 0.750000
O O2 0.196383 0.853817 0.690724
O O3 0.329004 0.688071 0.618550
O O4 0.404175 0.935229 0.650483
O O5 0.250000 0.500000 0.256118
O O6 0.300515 0.750000 0.250000
O O7 0.471797 0.588977 0.233042
O O8 0.372106 0.618380 0.356761
O O9 0.979783 0.303812 0.112499
O O10 0.441169 0.036626 0.911899
O O11 0.578935 0.160414 0.993220
O O12 0.250000 0.000000 0.970237
#
# Coordination Sequence:
#
# PCOD9410809 Si02
#       5
#     8   8   8   8   8
#     4  11  22  36  63  92 122 156 205 255 308 363
#     4  10  21  38  61  84 118 155 198 248 302 365
#     4  10  22  39  61  90 121 161 199 257 306 360
#     4  10  21  39  59  87 122 155 203 248 303 365
#     4  11  22  36  61  89 121 162 202 251 303 368
#
# _framework density 18.562657999999999
#
# number of rings (size 3 to 8) (size 9 to 14) (size 15 to 20)
#    0.000    1.600    2.000    3.600    2.800    3.200 
#    0.000    2.000   17.600    0.000    0.000    0.000 
#    0.000    0.000    0.000    0.000    0.000    0.000 
#
# Total GULP energy -223039.343276 kJ/mol
# GULP energy per Si atom -5575.983582 kJ/mol
# Density = 1.852041 g / cm^3
# Si number density = 18.562658 Si / 1000 Ang^3
#
#
#
# Elastic Constant Matrix: (Units=GPa)
#
#
# Indices 1 2 3 4 5 6 
#
# 1 62.6602 60.2826 27.5300 0.0000 0.0000 0.0000
# 2 60.2826 119.0554 53.4673 0.0000 0.0000 0.0000
# 3 27.5300 53.4673 69.4399 0.0000 0.0000 0.0000
# 4 0.0000 0.0000 0.0000 20.3346 0.0000 0.0000
# 5 0.0000 0.0000 0.0000 0.0000 -52.4208 0.0000
# 6 0.0000 0.0000 0.0000 0.0000 0.0000 92.0467
#
#
#
# Elastic Compliance Matrix: (Units=1/GPa)
#
#
# Indices 1 2 3 4 5 6 
#
# 1 0.031122 -0.015617 -0.000313 0.000000 0.000000 0.000000
# 2 -0.015617 0.020676 -0.009729 0.000000 0.000000 0.000000
# 3 -0.000313 -0.009729 0.022016 0.000000 0.000000 0.000000
# 4 0.000000 0.000000 0.000000 0.049177 0.000000 0.000000
# 5 0.000000 0.000000 0.000000 0.000000 -0.019076 0.000000
# 6 0.000000 0.000000 0.000000 0.000000 0.000000 0.010864
#
#
# Mechanical properties :
#
#
# Convention : Reuss Voigt Hill
#
# Bulk Modulus (GPa) = 44.45414 59.30171 51.87793
# Shear Modulus (GPa) = 28.80250 19.31714 24.05982
#
# Velocity S-wave (km/s) = 3.94336 3.22940 3.60410
# Velocity P-wave (km/s) = 6.68831 6.77654 6.73257
#
# Compressibility (1/GPa) = 0.02249509
#
# Stress axis : x y z
#
# Youngs Moduli (GPa) = 32.13204 48.36456 45.42146
#
# Poissons Ratio (x) = 0.75533 0.01423
# Poissons Ratio (y) = 0.50182 0.44189
# Poissons Ratio (z) = 0.01007 0.47052
#
# Static dielectric constant tensor:
#      x y z
#    x 1.677670 0.000000 0.000000 
#    y 0.000000 1.680190 0.000000 
#    z 0.000000 0.000000 1.619710 
# 
# From -- ./inp_files/31933.got.cif
#   From: 2010.05.17/outbox.cif.g08.bks.cpg/sg52_16_cif.got.tgz:31933.got - 2010.06.03 12:15:38.
