data_PCOD9410934
_publ_section_title
;
Structure prediction by ZEFSAII (Michael W. Deem and Ramdas Pophale) SiO2 
 PCOD9410934
Probable space group: P N N A
;
_chemical_formula_sum "Si O2"
_cell_formula_units_Z 56
_cell_length_a 14.897279
_cell_length_b 8.335418
_cell_length_c 20.990706
_cell_angle_alpha 90.000000
_cell_angle_beta 90.000000
_cell_angle_gamma 90.000000
_cell_volume 2606.521915
_symmetry_space_group_name_H-M "P N N A"
_symmetry_group_IT_number 52
_symmetry_cell_setting 'orthorhombic'
loop_
_space_group_symop_operation_xyz
x,y,z
1/2-x,-y,z
x,1/2-y,1/2-z
1/2-x,1/2+y,1/2-z
-x,-y,-z
1/2+x,y,-z
-x,1/2+y,1/2+z
1/2+x,1/2-y,1/2+z
loop_
_atom_site_type_symbol
_atom_site_label
_atom_site_fract_x
_atom_site_fract_y
_atom_site_fract_z
Si Si1 0.516647 0.540691 0.601807
Si Si2 0.149881 0.040136 0.334615
Si Si3 0.640819 0.695646 0.943009
Si Si4 0.165217 0.624517 0.570390
Si Si5 0.811351 0.143924 0.309460
Si Si6 0.506399 0.556511 0.251874
Si Si7 0.308866 0.864857 0.124598
O O1 0.550859 0.715402 0.581733
O O2 0.426604 0.478731 0.569109
O O3 0.499779 0.514950 0.677305
O O4 0.607597 0.438987 0.586733
O O5 0.071735 0.976874 0.290039
O O6 0.147431 0.230946 0.332854
O O7 0.250000 0.000000 0.313462
O O8 0.138888 0.975421 0.407276
O O9 0.731213 0.778316 0.915171
O O10 0.653220 0.737061 0.016806
O O11 0.250000 0.500000 0.562983
O O12 0.169842 0.723695 0.636383
O O13 0.774874 0.250000 0.250000
O O14 0.897533 0.047489 0.282206
O O15 0.750000 0.000000 0.333933
O O16 0.497065 0.750000 0.250000
O O17 0.250000 0.000000 0.159488
#
# Coordination Sequence:
#
# PCOD9410934 Si02
#       7
#     8   8   8   8   8   8   8
#     4  11  21  40  65  90 129 172 215 266 328 394
#     4  10  21  39  60  95 134 167 211 268 327 394
#     4  10  24  39  60  96 131 169 219 269 324 400
#     4  12  24  43  67  94 127 175 225 275 334 398
#     4  11  24  44  68  96 130 171 223 285 341 388
#     4  11  21  41  65  92 131 169 215 273 333 388
#     4   9  18  37  62  86 123 168 206 258 321 382
#
# _framework density 21.484567999999999
#
# number of rings (size 3 to 8) (size 9 to 14) (size 15 to 20)
#    0.000    1.429    4.286    2.143    0.000    5.143 
#    0.000    2.857    0.000    0.000    0.000    3.000 
#    0.000    0.000    0.000    0.000    0.000    0.000 
#
# Total GULP energy -311987.404785 kJ/mol
# GULP energy per Si atom -5571.203657 kJ/mol
# Density = 2.143567 g / cm^3
# Si number density = 21.484568 Si / 1000 Ang^3
#
#
#
# Elastic Constant Matrix: (Units=GPa)
#
#
# Indices 1 2 3 4 5 6 
#
# 1 106.9139 22.6225 1.2451 0.0000 0.0000 0.0000
# 2 22.6225 52.7972 7.6557 0.0000 0.0000 0.0000
# 3 1.2451 7.6557 105.8568 0.0000 0.0000 0.0000
# 4 0.0000 0.0000 0.0000 -8.8655 0.0000 0.0000
# 5 0.0000 0.0000 0.0000 0.0000 -17.1621 0.0000
# 6 0.0000 0.0000 0.0000 0.0000 0.0000 26.2733
#
#
#
# Elastic Compliance Matrix: (Units=1/GPa)
#
#
# Indices 1 2 3 4 5 6 
#
# 1 0.010290 -0.004438 0.000200 0.000000 0.000000 0.000000
# 2 -0.004438 0.021055 -0.001471 0.000000 0.000000 0.000000
# 3 0.000200 -0.001471 0.009551 0.000000 0.000000 0.000000
# 4 0.000000 0.000000 0.000000 -0.112797 0.000000 0.000000
# 5 0.000000 0.000000 0.000000 0.000000 -0.058268 0.000000
# 6 0.000000 0.000000 0.000000 0.000000 0.000000 0.038061
#
#
# Mechanical properties :
#
#
# Convention : Reuss Voigt Hill
#
# Bulk Modulus (GPa) = 33.92280 36.51271 35.21775
# Shear Modulus (GPa) = -70.55760 15.65213 -27.45273
#
# Velocity S-wave (km/s) = -5.73693 2.70206 -3.57849
# Velocity P-wave (km/s) = 5.29712 5.17364 0.80403
#
# Compressibility (1/GPa) = 0.02947870
#
# Stress axis : x y z
#
# Youngs Moduli (GPa) = 97.18109 47.49408 104.70407
#
# Poissons Ratio (x) = 0.21078 -0.02093
# Poissons Ratio (y) = 0.43130 0.15397
# Poissons Ratio (z) = -0.01943 0.06984
#
# Static dielectric constant tensor:
#      x y z
#    x 1.839320 0.000000 0.000000 
#    y 0.000000 2.351400 0.000000 
#    z 0.000000 0.000000 1.824230 
# 
# From -- ./inp_files/37338.got.cif
#   From: 2010.05.17/outbox.cif.g08.bks.cpg/sg52_19_cif.got.tgz:37338.got - 2010.06.03 12:15:38.
