data_PCOD9410369
_publ_section_title
;
Structure prediction by ZEFSAII (Michael W. Deem and Ramdas Pophale) SiO2 
 PCOD9410369
Probable space group: P N N A
;
_chemical_formula_sum "Si O2"
_cell_formula_units_Z 40
_cell_length_a 13.426158
_cell_length_b 10.783675
_cell_length_c 12.291569
_cell_angle_alpha 90.000000
_cell_angle_beta 90.000000
_cell_angle_gamma 90.000000
_cell_volume 1779.614222
_symmetry_space_group_name_H-M "P N N A"
_symmetry_group_IT_number 52
_symmetry_cell_setting 'orthorhombic'
loop_
_space_group_symop_operation_xyz
x,y,z
1/2-x,-y,z
x,1/2-y,1/2-z
1/2-x,1/2+y,1/2-z
-x,-y,-z
1/2+x,y,-z
-x,1/2+y,1/2+z
1/2+x,1/2-y,1/2+z
loop_
_atom_site_type_symbol
_atom_site_label
_atom_site_fract_x
_atom_site_fract_y
_atom_site_fract_z
Si Si1 0.499897 0.348727 0.845007
Si Si2 0.602818 0.179770 0.014696
Si Si3 0.319282 0.270591 0.956149
Si Si4 0.852592 0.426521 0.824368
Si Si5 0.908636 0.426666 0.592685
O O1 0.523050 0.250000 0.750000
O O2 0.547696 0.292089 0.954428
O O3 0.552441 0.480369 0.829188
O O4 0.380991 0.343182 0.864466
O O5 0.704164 0.237303 0.060637
O O6 0.618036 0.070972 0.924279
O O7 0.525105 0.111307 0.094793
O O8 0.341574 0.344173 0.068221
O O9 0.369008 0.137997 0.982962
O O10 0.750000 0.500000 0.824639
O O11 0.860671 0.374817 0.702117
#
# Coordination Sequence:
#
# PCOD9410369 Si02
#       5
#     8   8   8   8   8
#     4  11  23  41  63  89 128 172 215 264 329 392
#     4  10  20  41  61  90 129 165 207 269 324 383
#     4  11  23  39  63  91 130 169 212 267 329 390
#     4  12  22  38  67  96 129 168 219 274 329 384
#     4  10  22  35  64  96 123 160 218 267 314 387
#
# _framework density 22.476782
#
# number of rings (size 3 to 8) (size 9 to 14) (size 15 to 20)
#    0.000    1.200    4.000    3.000    0.000    0.000 
#    0.000    4.000    0.000    0.000    0.000    0.000 
#    0.000    0.000    0.000    0.000    0.000    0.000 
#
# Total GULP energy -223091.123829 kJ/mol
# GULP energy per Si atom -5577.278096 kJ/mol
# Density = 2.242562 g / cm^3
# Si number density = 22.476782 Si / 1000 Ang^3
#
#
#
# Elastic Constant Matrix: (Units=GPa)
#
#
# Indices 1 2 3 4 5 6 
#
# 1 141.3563 16.4115 2.2465 0.0000 0.0000 0.0000
# 2 16.4115 33.0735 7.7251 0.0000 0.0000 0.0000
# 3 2.2465 7.7251 24.2606 0.0000 0.0000 0.0000
# 4 0.0000 0.0000 0.0000 16.2775 0.0000 0.0000
# 5 0.0000 0.0000 0.0000 0.0000 26.2944 0.0000
# 6 0.0000 0.0000 0.0000 0.0000 0.0000 29.3475
#
#
#
# Elastic Compliance Matrix: (Units=1/GPa)
#
#
# Indices 1 2 3 4 5 6 
#
# 1 0.007513 -0.003852 0.000531 0.000000 0.000000 0.000000
# 2 -0.003852 0.034640 -0.010673 0.000000 0.000000 0.000000
# 3 0.000531 -0.010673 0.044569 0.000000 0.000000 0.000000
# 4 0.000000 0.000000 0.000000 0.061434 0.000000 0.000000
# 5 0.000000 0.000000 0.000000 0.000000 0.038031 0.000000
# 6 0.000000 0.000000 0.000000 0.000000 0.000000 0.034074
#
#
# Mechanical properties :
#
#
# Convention : Reuss Voigt Hill
#
# Bulk Modulus (GPa) = 17.02635 27.93963 22.48299
# Shear Modulus (GPa) = 18.66866 25.87104 22.26985
#
# Velocity S-wave (km/s) = 2.88510 3.39634 3.15110
# Velocity P-wave (km/s) = 4.32318 5.27613 4.82325
#
# Compressibility (1/GPa) = 0.05873251
#
# Stress axis : x y z
#
# Youngs Moduli (GPa) = 133.10054 28.86823 22.43734
#
# Poissons Ratio (x) = 0.11120 -0.01191
# Poissons Ratio (y) = 0.51272 0.23948
# Poissons Ratio (z) = -0.07066 0.30812
#
# Static dielectric constant tensor:
#      x y z
#    x 1.899250 0.000000 0.000000 
#    y 0.000000 2.539360 0.000000 
#    z 0.000000 0.000000 1.824520 
# 
# From -- ./inp_files/25813.got.cif
#   From: 2010.05.17/outbox.cif.g08.bks.cpg/sg52_13_cif.got.tgz:25813.got - 2010.06.03 12:15:38.
