data_PCOD9410785
_publ_section_title
;
Structure prediction by ZEFSAII (Michael W. Deem and Ramdas Pophale) SiO2 
 PCOD9410785
Probable space group: P N N A
;
_chemical_formula_sum "Si O2"
_cell_formula_units_Z 32
_cell_length_a 12.559393
_cell_length_b 7.693488
_cell_length_c 12.745211
_cell_angle_alpha 90.000000
_cell_angle_beta 90.000000
_cell_angle_gamma 90.000000
_cell_volume 1231.512887
_symmetry_space_group_name_H-M "P N N A"
_symmetry_group_IT_number 52
_symmetry_cell_setting 'orthorhombic'
loop_
_space_group_symop_operation_xyz
x,y,z
1/2-x,-y,z
x,1/2-y,1/2-z
1/2-x,1/2+y,1/2-z
-x,-y,-z
1/2+x,y,-z
-x,1/2+y,1/2+z
1/2+x,1/2-y,1/2+z
loop_
_atom_site_type_symbol
_atom_site_label
_atom_site_fract_x
_atom_site_fract_y
_atom_site_fract_z
Si Si1 0.048631 0.179965 0.366683
Si Si2 0.628927 0.702775 0.859331
Si Si3 0.175815 0.730345 0.587596
Si Si4 0.399943 0.839617 0.910158
O O1 0.063832 0.250000 0.250000
O O2 0.111682 0.001064 0.374657
O O3 0.079188 0.302365 0.465355
O O4 0.868312 0.461858 0.386416
O O5 0.682400 0.750000 0.750000
O O6 0.511636 0.789900 0.859551
O O7 0.686406 0.770854 0.961866
O O8 0.294683 0.764540 0.626117
O O9 0.078665 0.854129 0.618908
#
# Coordination Sequence:
#
# PCOD9410785 Si02
#       4
#     8   8   8   8
#     4  11  22  37  58  82 112 147 184 227 272 324
#     4  11  22  37  58  82 112 147 184 227 272 324
#     4  10  21  38  59  83 112 144 181 227 276 327
#     4  10  21  38  59  83 112 144 181 227 276 327
#
# _framework density 25.984302
#
# number of rings (size 3 to 8) (size 9 to 14) (size 15 to 20)
#    0.000    1.500    0.000    9.000    0.000    6.000 
#    0.000    0.000    0.000    0.000    0.000    0.000 
#    0.000    0.000    0.000    0.000    0.000    0.000 
#
# Total GULP energy -179303.596619 kJ/mol
# GULP energy per Si atom -5603.237394 kJ/mol
# Density = 2.592516 g / cm^3
# Si number density = 25.984302 Si / 1000 Ang^3
#
#
#
# Elastic Constant Matrix: (Units=GPa)
#
#
# Indices 1 2 3 4 5 6 
#
# 1 142.6636 -13.4431 -1.3275 0.0000 0.0000 0.0000
# 2 -13.4431 49.4850 -5.8883 0.0000 0.0000 0.0000
# 3 -1.3275 -5.8883 140.1327 0.0000 0.0000 0.0000
# 4 0.0000 0.0000 0.0000 25.9821 0.0000 0.0000
# 5 0.0000 0.0000 0.0000 0.0000 -33.7969 0.0000
# 6 0.0000 0.0000 0.0000 0.0000 0.0000 19.9427
#
#
#
# Elastic Compliance Matrix: (Units=1/GPa)
#
#
# Indices 1 2 3 4 5 6 
#
# 1 0.007197 0.001973 0.000151 0.000000 0.000000 0.000000
# 2 0.001973 0.020851 0.000895 0.000000 0.000000 0.000000
# 3 0.000151 0.000895 0.007175 0.000000 0.000000 0.000000
# 4 0.000000 0.000000 0.000000 0.038488 0.000000 0.000000
# 5 0.000000 0.000000 0.000000 0.000000 -0.029589 0.000000
# 6 0.000000 0.000000 0.000000 0.000000 0.000000 0.050144
#
#
# Mechanical properties :
#
#
# Convention : Reuss Voigt Hill
#
# Bulk Modulus (GPa) = 24.23623 32.32927 28.28275
# Shear Modulus (GPa) = 49.02858 25.95493 37.49176
#
# Velocity S-wave (km/s) = 4.34851 3.16392 3.80262
# Velocity P-wave (km/s) = 5.87879 5.08095 5.49437
#
# Compressibility (1/GPa) = 0.04126054
#
# Stress axis : x y z
#
# Youngs Moduli (GPa) = 138.95023 47.96018 139.37042
#
# Poissons Ratio (x) = -0.09463 -0.02106
# Poissons Ratio (y) = -0.27416 -0.12471
# Poissons Ratio (z) = -0.02099 -0.04292
#
# Static dielectric constant tensor:
#      x y z
#    x 2.089450 0.000000 0.000000 
#    y 0.000000 2.026320 0.000000 
#    z 0.000000 0.000000 2.011350 
# 
# From -- ./inp_files/8327.got.cif
#   From: 2010.05.17/outbox.cif.g08.bks.cpg/sg52_5_cif.got.tgz:8327.got - 2010.06.03 12:15:38.
