data_PCOD9410659
_publ_section_title
;
Structure prediction by ZEFSAII (Michael W. Deem and Ramdas Pophale) SiO2 
 PCOD9410659
Probable space group: P N N A
;
_chemical_formula_sum "Si O2"
_cell_formula_units_Z 48
_cell_length_a 23.705873
_cell_length_b 7.770461
_cell_length_c 14.030663
_cell_angle_alpha 90.000000
_cell_angle_beta 90.000000
_cell_angle_gamma 90.000000
_cell_volume 2584.526158
_symmetry_space_group_name_H-M "P N N A"
_symmetry_group_IT_number 52
_symmetry_cell_setting 'orthorhombic'
loop_
_space_group_symop_operation_xyz
x,y,z
1/2-x,-y,z
x,1/2-y,1/2-z
1/2-x,1/2+y,1/2-z
-x,-y,-z
1/2+x,y,-z
-x,1/2+y,1/2+z
1/2+x,1/2-y,1/2+z
loop_
_atom_site_type_symbol
_atom_site_label
_atom_site_fract_x
_atom_site_fract_y
_atom_site_fract_z
Si Si1 0.313184 0.558455 0.789791
Si Si2 0.421418 0.777481 0.139252
Si Si3 0.964884 0.145022 0.840470
Si Si4 0.460106 0.189449 0.545342
Si Si5 0.119059 0.361734 0.958884
Si Si6 0.412601 0.989488 0.846888
O O1 0.250000 0.500000 0.770957
O O2 0.315933 0.750000 0.750000
O O3 0.328049 0.563268 0.901385
O O4 0.365241 0.472609 0.732392
O O5 0.412181 0.750000 0.250000
O O6 0.481622 0.700418 0.104094
O O7 0.427434 0.982657 0.127892
O O8 0.376804 0.687861 0.069458
O O9 0.942609 0.250000 0.750000
O O10 0.025423 0.064387 0.808495
O O11 0.971340 0.259882 0.935127
O O12 0.422156 0.342548 0.589299
O O13 0.428758 0.008111 0.552507
O O14 0.104033 0.180336 0.907568
#
# Coordination Sequence:
#
# PCOD9410659 Si02
#       6
#     8   8   8   8   8   8
#     4  10  24  40  62  86 118 154 201 253 303 345
#     4  11  22  33  51  84 118 155 197 231 280 351
#     4  11  20  35  54  81 120 160 196 236 285 358
#     4  11  22  33  57  79 120 160 198 228 288 365
#     4  11  21  37  55  81 115 155 194 245 292 341
#     4  10  21  37  53  82 117 152 192 246 287 347
#
# _framework density 18.572068999999999
#
# number of rings (size 3 to 8) (size 9 to 14) (size 15 to 20)
#    0.000    1.333    3.333    4.000    9.333    0.000 
#    0.000    0.000    0.000    0.000    0.000    8.167 
#    0.000    0.000    0.000    0.000    0.000    0.000 
#
# Total GULP energy -267848.621864 kJ/mol
# GULP energy per Si atom -5580.179622 kJ/mol
# Density = 1.852980 g / cm^3
# Si number density = 18.572069 Si / 1000 Ang^3
#
#
#
# Elastic Constant Matrix: (Units=GPa)
#
#
# Indices 1 2 3 4 5 6 
#
# 1 58.3875 18.7961 42.2326 0.0000 0.0000 0.0000
# 2 18.7961 91.8063 32.5309 0.0000 0.0000 0.0000
# 3 42.2326 32.5309 141.1016 0.0000 0.0000 0.0000
# 4 0.0000 0.0000 0.0000 27.2316 0.0000 0.0000
# 5 0.0000 0.0000 0.0000 0.0000 17.9039 0.0000
# 6 0.0000 0.0000 0.0000 0.0000 0.0000 22.2866
#
#
#
# Elastic Compliance Matrix: (Units=1/GPa)
#
#
# Indices 1 2 3 4 5 6 
#
# 1 0.022335 -0.002400 -0.006132 0.000000 0.000000 0.000000
# 2 -0.002400 0.012119 -0.002076 0.000000 0.000000 0.000000
# 3 -0.006132 -0.002076 0.009401 0.000000 0.000000 0.000000
# 4 0.000000 0.000000 0.000000 0.036722 0.000000 0.000000
# 5 0.000000 0.000000 0.000000 0.000000 0.055854 0.000000
# 6 0.000000 0.000000 0.000000 0.000000 0.000000 0.044870
#
#
# Mechanical properties :
#
#
# Convention : Reuss Voigt Hill
#
# Bulk Modulus (GPa) = 44.16932 53.15719 48.66325
# Shear Modulus (GPa) = 23.80248 26.66681 25.23465
#
# Velocity S-wave (km/s) = 3.58387 3.79338 3.69011
# Velocity P-wave (km/s) = 6.39998 6.91885 6.66447
#
# Compressibility (1/GPa) = 0.02264015
#
# Stress axis : x y z
#
# Youngs Moduli (GPa) = 44.77348 82.51225 106.37301
#
# Poissons Ratio (x) = 0.19803 0.65223
# Poissons Ratio (y) = 0.10746 0.22081
# Poissons Ratio (z) = 0.27453 0.17128
#
# Static dielectric constant tensor:
#      x y z
#    x 1.693330 0.000000 0.000000 
#    y 0.000000 1.682460 0.000000 
#    z 0.000000 0.000000 1.683190 
# 
# From -- ./inp_files/28629.got.cif
#   From: 2010.05.17/outbox.cif.g08.bks.cpg/sg52_15_cif.got.tgz:28629.got - 2010.06.03 12:15:38.
