data_PCOD9410231
_publ_section_title
;
Structure prediction by ZEFSAII (Michael W. Deem and Ramdas Pophale) SiO2 
 PCOD9410231
Probable space group: P N N A
;
_chemical_formula_sum "Si O2"
_cell_formula_units_Z 32
_cell_length_a 7.041791
_cell_length_b 11.576541
_cell_length_c 17.608103
_cell_angle_alpha 90.000000
_cell_angle_beta 90.000000
_cell_angle_gamma 90.000000
_cell_volume 1435.405200
_symmetry_space_group_name_H-M "P N N A"
_symmetry_group_IT_number 52
_symmetry_cell_setting 'orthorhombic'
loop_
_space_group_symop_operation_xyz
x,y,z
1/2-x,-y,z
x,1/2-y,1/2-z
1/2-x,1/2+y,1/2-z
-x,-y,-z
1/2+x,y,-z
-x,1/2+y,1/2+z
1/2+x,1/2-y,1/2+z
loop_
_atom_site_type_symbol
_atom_site_label
_atom_site_fract_x
_atom_site_fract_y
_atom_site_fract_z
Si Si1 0.315479 0.171476 0.413857
Si Si2 0.099669 0.599523 0.923818
Si Si3 0.919482 0.072291 0.927734
Si Si4 0.351520 0.734473 0.664944
O O1 0.316462 0.304136 0.445281
O O2 0.459288 0.185217 0.344306
O O3 0.115928 0.113111 0.395651
O O4 0.407767 0.104862 0.484634
O O5 0.250000 0.500000 0.901095
O O6 0.199596 0.714700 0.892623
O O7 0.080397 0.111366 0.867944
O O8 0.750000 0.000000 0.891350
O O9 0.000000 0.000000 0.000000
O O10 0.282857 0.750000 0.750000
#
# Coordination Sequence:
#
# PCOD9410231 Si02
#       4
#     8   8   8   8
#     4  10  22  38  67  96 129 169 229 276 327 407
#     4  12  22  40  67  98 125 176 222 270 336 416
#     4  10  20  39  66  92 125 174 228 269 334 403
#     4  10  25  44  62  97 143 163 223 294 337 391
#
# _framework density 22.293358000000001
#
# number of rings (size 3 to 8) (size 9 to 14) (size 15 to 20)
#    1.500    0.000    2.500    3.750    0.000    1.000 
#    4.500    3.750    0.000    0.000    0.000    0.000 
#    0.000    0.000    0.000    0.000    0.000    0.000 
#
# Total GULP energy -178227.520748 kJ/mol
# GULP energy per Si atom -5569.610023 kJ/mol
# Density = 2.224262 g / cm^3
# Si number density = 22.293358 Si / 1000 Ang^3
#
#
#
# Elastic Constant Matrix: (Units=GPa)
#
#
# Indices 1 2 3 4 5 6 
#
# 1 79.6331 13.1796 -18.5562 0.0000 0.0000 0.0000
# 2 13.1796 100.9135 9.8459 0.0000 0.0000 0.0000
# 3 -18.5562 9.8459 53.4217 0.0000 0.0000 0.0000
# 4 0.0000 0.0000 0.0000 17.3635 0.0000 0.0000
# 5 0.0000 0.0000 0.0000 0.0000 18.0817 0.0000
# 6 0.0000 0.0000 0.0000 0.0000 0.0000 40.7644
#
#
#
# Elastic Compliance Matrix: (Units=1/GPa)
#
#
# Indices 1 2 3 4 5 6 
#
# 1 0.014203 -0.002379 0.005372 0.000000 0.000000 0.000000
# 2 -0.002379 0.010489 -0.002760 0.000000 0.000000 0.000000
# 3 0.005372 -0.002760 0.021094 0.000000 0.000000 0.000000
# 4 0.000000 0.000000 0.000000 0.057592 0.000000 0.000000
# 5 0.000000 0.000000 0.000000 0.000000 0.055305 0.000000
# 6 0.000000 0.000000 0.000000 0.000000 0.000000 0.024531
#
#
# Mechanical properties :
#
#
# Convention : Reuss Voigt Hill
#
# Bulk Modulus (GPa) = 21.62040 26.98966 24.30503
# Shear Modulus (GPa) = 25.23150 30.54186 27.88668
#
# Velocity S-wave (km/s) = 3.36787 3.70536 3.54064
# Velocity P-wave (km/s) = 4.98423 5.51717 5.25746
#
# Compressibility (1/GPa) = 0.04625261
#
# Stress axis : x y z
#
# Youngs Moduli (GPa) = 70.40705 95.33395 47.40780
#
# Poissons Ratio (x) = 0.22681 -0.25467
# Poissons Ratio (y) = 0.16751 0.13083
# Poissons Ratio (z) = -0.37823 0.26309
#
# Static dielectric constant tensor:
#      x y z
#    x 1.836900 0.000000 0.000000 
#    y 0.000000 1.964970 0.000000 
#    z 0.000000 0.000000 1.720820 
# 
# From -- ./inp_files/41457.got.cif
#   From: 2010.05.17/outbox.cif.g08.bks.cpg/sg52_21_cif.got.tgz:41457.got - 2010.06.03 12:15:38.
