data_PCOD9410371
_publ_section_title
;
Structure prediction by ZEFSAII (Michael W. Deem and Ramdas Pophale) SiO2 
 PCOD9410371
Probable space group: P N N A
;
_chemical_formula_sum "Si O2"
_cell_formula_units_Z 60
_cell_length_a 8.459305
_cell_length_b 12.833238
_cell_length_c 27.956376
_cell_angle_alpha 90.000000
_cell_angle_beta 90.000000
_cell_angle_gamma 90.000000
_cell_volume 3034.951849
_symmetry_space_group_name_H-M "P N N A"
_symmetry_group_IT_number 52
_symmetry_cell_setting 'orthorhombic'
loop_
_space_group_symop_operation_xyz
x,y,z
1/2-x,-y,z
x,1/2-y,1/2-z
1/2-x,1/2+y,1/2-z
-x,-y,-z
1/2+x,y,-z
-x,1/2+y,1/2+z
1/2+x,1/2-y,1/2+z
loop_
_atom_site_type_symbol
_atom_site_label
_atom_site_fract_x
_atom_site_fract_y
_atom_site_fract_z
Si Si1 0.750000 0.000000 0.089644
Si Si2 0.365883 0.409483 0.911102
Si Si3 0.083589 0.559162 0.360621
Si Si4 0.675286 0.331078 0.178377
Si Si5 0.261651 0.781836 0.965425
Si Si6 0.114567 0.938195 0.374544
Si Si7 0.350555 0.896507 0.788214
Si Si8 0.119894 0.754620 0.065479
O O1 0.578601 0.008656 0.116871
O O2 0.760226 0.105491 0.058609
O O3 0.250000 0.500000 0.930557
O O4 0.303661 0.377696 0.857912
O O5 0.352289 0.306250 0.942611
O O6 0.525824 0.470975 0.903360
O O7 0.250000 0.500000 0.361906
O O8 0.113323 0.661213 0.392372
O O9 0.028611 0.582643 0.306256
O O10 0.510813 0.373789 0.156898
O O11 0.694494 0.205894 0.180598
O O12 0.676692 0.368500 0.232994
O O13 0.439469 0.745250 0.953330
O O14 0.227314 0.789320 0.021445
O O15 0.174616 0.853658 0.412294
O O16 0.250000 0.000000 0.346490
O O17 0.250000 0.000000 0.796886
#
# Coordination Sequence:
#
# PCOD9410371 Si02
#       8
#     4   8   8   8   8   8   8   8
#     4  10  24  44  64  94 132 184 216 280 344 394
#     4  10  20  41  62  88 123 169 211 271 323 395
#     4  11  24  41  66  95 139 171 221 277 338 404
#     4  10  21  43  68  97 132 169 219 273 336 407
#     4  11  24  40  66  89 130 169 229 270 333 399
#     4  11  23  40  62  88 132 171 215 270 339 389
#     4  11  21  40  72 100 128 174 220 273 341 403
#     4  11  25  42  59  97 125 173 219 276 333 389
#
# _framework density 19.769670999999999
#
# number of rings (size 3 to 8) (size 9 to 14) (size 15 to 20)
#    0.000    1.333    4.667    2.000    4.667    2.667 
#    0.000    0.000    0.000    1.600    0.000    0.000 
#    0.000    0.000    0.000    0.000    0.000    0.000 
#
# Total GULP energy -334527.874438 kJ/mol
# GULP energy per Si atom -5575.464574 kJ/mol
# Density = 1.972467 g / cm^3
# Si number density = 19.769671 Si / 1000 Ang^3
#
#
#
# Elastic Constant Matrix: (Units=GPa)
#
#
# Indices 1 2 3 4 5 6 
#
# 1 52.4198 43.5551 10.1382 0.0000 0.0000 0.0000
# 2 43.5551 141.5555 32.4324 0.0000 0.0000 0.0000
# 3 10.1382 32.4324 65.4718 0.0000 0.0000 0.0000
# 4 0.0000 0.0000 0.0000 14.8090 0.0000 0.0000
# 5 0.0000 0.0000 0.0000 0.0000 13.6230 0.0000
# 6 0.0000 0.0000 0.0000 0.0000 0.0000 29.9996
#
#
#
# Elastic Compliance Matrix: (Units=1/GPa)
#
#
# Indices 1 2 3 4 5 6 
#
# 1 0.025629 -0.007870 -0.000070 0.000000 0.000000 0.000000
# 2 -0.007870 0.010385 -0.003926 0.000000 0.000000 0.000000
# 3 -0.000070 -0.003926 0.017229 0.000000 0.000000 0.000000
# 4 0.000000 0.000000 0.000000 0.067527 0.000000 0.000000
# 5 0.000000 0.000000 0.000000 0.000000 0.073405 0.000000
# 6 0.000000 0.000000 0.000000 0.000000 0.000000 0.033334
#
#
# Mechanical properties :
#
#
# Convention : Reuss Voigt Hill
#
# Bulk Modulus (GPa) = 33.88436 47.96650 40.92543
# Shear Modulus (GPa) = 19.15132 23.24106 21.19619
#
# Velocity S-wave (km/s) = 3.11581 3.43241 3.27793
# Velocity P-wave (km/s) = 5.48827 6.32645 5.92221
#
# Compressibility (1/GPa) = 0.02951214
#
# Stress axis : x y z
#
# Youngs Moduli (GPa) = 39.01792 96.29005 58.04039
#
# Poissons Ratio (x) = 0.75778 0.00408
# Poissons Ratio (y) = 0.30706 0.22786
# Poissons Ratio (z) = 0.00274 0.37802
#
# Static dielectric constant tensor:
#      x y z
#    x 1.741950 0.000000 0.000000 
#    y 0.000000 1.702630 0.000000 
#    z 0.000000 0.000000 1.720340 
# 
# From -- ./inp_files/42341.got.cif
#   From: 2010.05.17/outbox.cif.g08.bks.cpg/sg52_22_cif.got.tgz:42341.got - 2010.06.03 12:15:38.
