data_PCOD9410084
_publ_section_title
;
Structure prediction by ZEFSAII (Michael W. Deem and Ramdas Pophale) SiO2 
 PCOD9410084
Probable space group: P N N A
;
_chemical_formula_sum "Si O2"
_cell_formula_units_Z 40
_cell_length_a 21.683460
_cell_length_b 16.597172
_cell_length_c 5.034966
_cell_angle_alpha 90.000000
_cell_angle_beta 90.000000
_cell_angle_gamma 90.000000
_cell_volume 1812.004284
_symmetry_space_group_name_H-M "P N N A"
_symmetry_group_IT_number 52
_symmetry_cell_setting 'orthorhombic'
loop_
_space_group_symop_operation_xyz
x,y,z
1/2-x,-y,z
x,1/2-y,1/2-z
1/2-x,1/2+y,1/2-z
-x,-y,-z
1/2+x,y,-z
-x,1/2+y,1/2+z
1/2+x,1/2-y,1/2+z
loop_
_atom_site_type_symbol
_atom_site_label
_atom_site_fract_x
_atom_site_fract_y
_atom_site_fract_z
Si Si1 0.875073 0.194447 0.987688
Si Si2 0.382670 0.608547 0.666408
Si Si3 0.451275 0.046986 0.816087
Si Si4 0.955943 0.663013 0.853435
Si Si5 0.234272 0.306043 0.493447
O O1 0.874642 0.250000 0.250000
O O2 0.916346 0.116562 0.024682
O O3 0.804208 0.169059 0.925831
O O4 0.898319 0.250000 0.750000
O O5 0.400940 0.519343 0.766285
O O6 0.418487 0.628359 0.396018
O O7 0.312347 0.624452 0.584844
O O8 0.410485 0.665904 0.896046
O O9 0.489564 0.098038 0.597499
O O10 0.500000 0.000000 0.000000
O O11 0.978568 0.750000 0.750000
O O12 0.238246 0.250000 0.750000
O O13 0.210849 0.250000 0.250000
#
# Coordination Sequence:
#
# PCOD9410084 Si02
#       5
#     8   8   8   8   8
#     4  10  23  42  65  90 121 162 206 250 303 373
#     4  11  22  37  59  89 121 153 200 258 312 360
#     4  10  24  40  59  89 125 161 203 255 309 367
#     4  11  22  37  59  85 118 163 206 249 304 370
#     4  10  20  38  63  90 119 157 205 252 302 368
#
# _framework density 22.075005000000001
#
# number of rings (size 3 to 8) (size 9 to 14) (size 15 to 20)
#    0.000    1.600    0.000    4.800    0.000   10.400 
#    0.000    0.000    0.000   12.000    0.000    0.000 
#    0.000    0.000    0.000    0.000    0.000    0.000 
#
# Total GULP energy -223494.087135 kJ/mol
# GULP energy per Si atom -5587.352178 kJ/mol
# Density = 2.202476 g / cm^3
# Si number density = 22.075005 Si / 1000 Ang^3
#
#
#
# Elastic Constant Matrix: (Units=GPa)
#
#
# Indices 1 2 3 4 5 6 
#
# 1 101.5478 61.5761 9.7064 0.0000 0.0000 0.0000
# 2 61.5761 128.2624 16.9439 0.0000 0.0000 0.0000
# 3 9.7064 16.9439 110.0698 0.0000 0.0000 0.0000
# 4 0.0000 0.0000 0.0000 21.5183 0.0000 0.0000
# 5 0.0000 0.0000 0.0000 0.0000 35.5134 0.0000
# 6 0.0000 0.0000 0.0000 0.0000 0.0000 26.3449
#
#
#
# Elastic Compliance Matrix: (Units=1/GPa)
#
#
# Indices 1 2 3 4 5 6 
#
# 1 0.013896 -0.006644 -0.000203 0.000000 0.000000 0.000000
# 2 -0.006644 0.011135 -0.001128 0.000000 0.000000 0.000000
# 3 -0.000203 -0.001128 0.009277 0.000000 0.000000 0.000000
# 4 0.000000 0.000000 0.000000 0.046472 0.000000 0.000000
# 5 0.000000 0.000000 0.000000 0.000000 0.028158 0.000000
# 6 0.000000 0.000000 0.000000 0.000000 0.000000 0.037958
#
#
# Mechanical properties :
#
#
# Convention : Reuss Voigt Hill
#
# Bulk Modulus (GPa) = 54.47327 57.37030 55.92179
# Shear Modulus (GPa) = 29.59175 33.45225 31.52200
#
# Velocity S-wave (km/s) = 3.66527 3.89702 3.78292
# Velocity P-wave (km/s) = 6.53011 6.80399 6.66845
#
# Compressibility (1/GPa) = 0.01835763
#
# Stress axis : x y z
#
# Youngs Moduli (GPa) = 71.96355 89.80380 107.79717
#
# Poissons Ratio (x) = 0.59669 0.02184
# Poissons Ratio (y) = 0.47815 0.12162
# Poissons Ratio (z) = 0.01458 0.10132
#
# Static dielectric constant tensor:
#      x y z
#    x 1.889590 0.000000 0.000000 
#    y 0.000000 1.807380 0.000000 
#    z 0.000000 0.000000 1.798450 
# 
# From -- ./inp_files/5018.got.cif
#   From: 2010.05.17/outbox.cif.g08.bks.cpg/sg52_3_cif.got.tgz:5018.got - 2010.06.03 12:15:38.
