data_PCOD9410001
_publ_section_title
;
Structure prediction by ZEFSAII (Michael W. Deem and Ramdas Pophale) SiO2 
 PCOD9410001
Probable space group: P N N A
;
_chemical_formula_sum "Si O2"
_cell_formula_units_Z 52
_cell_length_a 8.862155
_cell_length_b 24.871317
_cell_length_c 10.992029
_cell_angle_alpha 90.000000
_cell_angle_beta 90.000000
_cell_angle_gamma 90.000000
_cell_volume 2422.791214
_symmetry_space_group_name_H-M "P N N A"
_symmetry_group_IT_number 52
_symmetry_cell_setting 'orthorhombic'
loop_
_space_group_symop_operation_xyz
x,y,z
1/2-x,-y,z
x,1/2-y,1/2-z
1/2-x,1/2+y,1/2-z
-x,-y,-z
1/2+x,y,-z
-x,1/2+y,1/2+z
1/2+x,1/2-y,1/2+z
loop_
_atom_site_type_symbol
_atom_site_label
_atom_site_fract_x
_atom_site_fract_y
_atom_site_fract_z
Si Si1 0.959698 0.052532 0.154960
Si Si2 0.750000 0.500000 0.144210
Si Si3 0.183157 0.839984 0.785402
Si Si4 0.612715 0.390614 0.093386
Si Si5 0.750000 0.500000 0.548233
Si Si6 0.682015 0.250000 0.750000
Si Si7 0.813681 0.334290 0.896014
Si Si8 0.911406 0.253794 0.081659
O O1 0.883847 0.021970 0.268881
O O2 0.939972 0.115208 0.183572
O O3 0.852316 0.037437 0.040021
O O4 0.128328 0.033391 0.126011
O O5 0.677034 0.450173 0.073396
O O6 0.322884 0.871368 0.725358
O O7 0.192763 0.798299 0.896450
O O8 0.136668 0.800731 0.675720
O O9 0.434984 0.381788 0.102095
O O10 0.678523 0.354072 0.983484
O O11 0.762082 0.307197 0.771529
O O12 0.577581 0.241579 0.869337
O O13 0.896948 0.282005 0.953969
#
# Coordination Sequence:
#
# PCOD9410001 Si02
#       8
#     8   4   8   8   4   4   8   8
#     4   9  17  36  53  81 111 150 190 248 289 349
#     4   9  20  40  58  77 116 154 208 237 297 350
#     4   8  17  35  58  75 113 153 188 226 295 341
#     4  10  21  38  60  87 114 158 194 250 292 352
#     4   9  18  32  56  81 114 144 194 245 299 334
#     4  10  20  38  58  88 120 156 194 242 292 360
#     4  11  21  38  62  86 122 153 197 242 302 347
#     4   9  19  39  56  84 118 156 186 244 285 356
#
# _framework density 21.462848000000001
#
# number of rings (size 3 to 8) (size 9 to 14) (size 15 to 20)
#    0.000    2.769    1.538    0.000    0.000    3.077 
#   11.077    3.077    0.000    0.000    0.000    0.000 
#    0.000    0.000    0.000    0.000    0.000    0.000 
#
# Total GULP energy -289737.332093 kJ/mol
# GULP energy per Si atom -5571.871771 kJ/mol
# Density = 2.141400 g / cm^3
# Si number density = 21.462848 Si / 1000 Ang^3
#
#
#
# Elastic Constant Matrix: (Units=GPa)
#
#
# Indices 1 2 3 4 5 6 
#
# 1 62.4977 2.7943 -4.0667 0.0000 0.0000 0.0000
# 2 2.7943 102.8158 11.0632 0.0000 0.0000 0.0000
# 3 -4.0667 11.0632 20.2933 0.0000 0.0000 0.0000
# 4 0.0000 0.0000 0.0000 11.9273 0.0000 0.0000
# 5 0.0000 0.0000 0.0000 0.0000 2.1295 0.0000
# 6 0.0000 0.0000 0.0000 0.0000 0.0000 27.2643
#
#
#
# Elastic Compliance Matrix: (Units=1/GPa)
#
#
# Indices 1 2 3 4 5 6 
#
# 1 0.016280 -0.000843 0.003722 0.000000 0.000000 0.000000
# 2 -0.000843 0.010376 -0.005826 0.000000 0.000000 0.000000
# 3 0.003722 -0.005826 0.053199 0.000000 0.000000 0.000000
# 4 0.000000 0.000000 0.000000 0.083841 0.000000 0.000000
# 5 0.000000 0.000000 0.000000 0.000000 0.469595 0.000000
# 6 0.000000 0.000000 0.000000 0.000000 0.000000 0.036678
#
#
# Mechanical properties :
#
#
# Convention : Reuss Voigt Hill
#
# Bulk Modulus (GPa) = 13.52032 22.79872 18.15952
# Shear Modulus (GPa) = 7.13759 19.98529 13.56144
#
# Velocity S-wave (km/s) = 1.82559 3.05480 2.51640
# Velocity P-wave (km/s) = 3.27975 4.80498 4.11367
#
# Compressibility (1/GPa) = 0.07396272
#
# Stress axis : x y z
#
# Youngs Moduli (GPa) = 61.42333 96.37740 18.79728
#
# Poissons Ratio (x) = 0.08124 -0.06996
# Poissons Ratio (y) = 0.05178 0.10950
# Poissons Ratio (z) = -0.22862 0.56145
#
# Static dielectric constant tensor:
#      x y z
#    x 1.851500 0.000000 0.000000 
#    y 0.000000 1.834480 0.000000 
#    z 0.000000 0.000000 1.827940 
# 
# From -- ./inp_files/17105.got.cif
#   From: 2010.05.17/outbox.cif.g08.bks.cpg/sg52_9_cif.got.tgz:17105.got - 2010.06.03 12:15:38.
