data_PCOD9410985
_publ_section_title
;
Structure prediction by ZEFSAII (Michael W. Deem and Ramdas Pophale) SiO2 
 PCOD9410985
Probable space group: P N N A
;
_chemical_formula_sum "Si O2"
_cell_formula_units_Z 48
_cell_length_a 9.609732
_cell_length_b 26.141927
_cell_length_c 8.078271
_cell_angle_alpha 90.000000
_cell_angle_beta 90.000000
_cell_angle_gamma 90.000000
_cell_volume 2029.398298
_symmetry_space_group_name_H-M "P N N A"
_symmetry_group_IT_number 52
_symmetry_cell_setting 'orthorhombic'
loop_
_space_group_symop_operation_xyz
x,y,z
1/2-x,-y,z
x,1/2-y,1/2-z
1/2-x,1/2+y,1/2-z
-x,-y,-z
1/2+x,y,-z
-x,1/2+y,1/2+z
1/2+x,1/2-y,1/2+z
loop_
_atom_site_type_symbol
_atom_site_label
_atom_site_fract_x
_atom_site_fract_y
_atom_site_fract_z
Si Si1 0.310009 0.895076 0.661728
Si Si2 0.569249 0.945088 0.508257
Si Si3 0.738562 0.303790 0.947332
Si Si4 0.502103 0.239966 0.056876
Si Si5 0.975279 0.879388 0.004841
Si Si6 0.733663 0.602952 0.703800
O O1 0.437684 0.907148 0.533969
O O2 0.179196 0.932339 0.635865
O O3 0.253569 0.839651 0.609269
O O4 0.386345 0.895868 0.834874
O O5 0.667651 0.937384 0.669841
O O6 0.500000 0.000000 0.500000
O O7 0.777453 0.342318 0.798896
O O8 0.842864 0.256711 0.954918
O O9 0.586957 0.279603 0.944487
O O10 0.543253 0.250000 0.250000
O O11 0.528250 0.182191 0.002782
O O12 0.132348 0.895070 0.045199
O O13 0.892327 0.902984 0.851623
#
# Coordination Sequence:
#
# PCOD9410985 Si02
#       6
#     8   8   8   8   8   8
#     4  10  21  39  64  90 128 164 205 263 323 379
#     4  10  21  41  69  97 120 162 216 266 324 404
#     4  11  22  41  59  87 124 173 217 258 300 374
#     4  12  22  38  59  87 128 168 223 257 299 367
#     4  11  22  39  57  90 130 166 202 259 317 361
#     4  10  23  40  61  89 130 165 206 263 323 377
#
# _framework density 23.652331
#
# number of rings (size 3 to 8) (size 9 to 14) (size 15 to 20)
#    0.000    1.333    3.333    3.500    0.000    4.000 
#    3.000    0.833    0.000    6.000    0.000    0.000 
#    0.000    0.000    0.000    0.000    0.000    0.000 
#
# Total GULP energy -268494.515280 kJ/mol
# GULP energy per Si atom -5593.635735 kJ/mol
# Density = 2.359850 g / cm^3
# Si number density = 23.652331 Si / 1000 Ang^3
#
#
#
# Elastic Constant Matrix: (Units=GPa)
#
#
# Indices 1 2 3 4 5 6 
#
# 1 96.2243 -2.1775 18.1285 0.0000 0.0000 0.0000
# 2 -2.1775 43.6106 1.9583 0.0000 0.0000 0.0000
# 3 18.1285 1.9583 50.4102 0.0000 0.0000 0.0000
# 4 0.0000 0.0000 0.0000 13.2438 0.0000 0.0000
# 5 0.0000 0.0000 0.0000 0.0000 37.9217 0.0000
# 6 0.0000 0.0000 0.0000 0.0000 0.0000 17.4540
#
#
#
# Elastic Compliance Matrix: (Units=1/GPa)
#
#
# Indices 1 2 3 4 5 6 
#
# 1 0.011171 0.000739 -0.004046 0.000000 0.000000 0.000000
# 2 0.000739 0.023019 -0.001160 0.000000 0.000000 0.000000
# 3 -0.004046 -0.001160 0.021337 0.000000 0.000000 0.000000
# 4 0.000000 0.000000 0.000000 0.075507 0.000000 0.000000
# 5 0.000000 0.000000 0.000000 0.000000 0.026370 0.000000
# 6 0.000000 0.000000 0.000000 0.000000 0.000000 0.057293
#
#
# Mechanical properties :
#
#
# Convention : Reuss Voigt Hill
#
# Bulk Modulus (GPa) = 21.46186 25.11821 23.29003
# Shear Modulus (GPa) = 20.90619 25.21296 23.05957
#
# Velocity S-wave (km/s) = 2.97626 3.26848 3.12579
# Velocity P-wave (km/s) = 4.57214 4.98866 4.78494
#
# Compressibility (1/GPa) = 0.04659428
#
# Stress axis : x y z
#
# Youngs Moduli (GPa) = 89.51422 43.44191 46.86603
#
# Poissons Ratio (x) = -0.03212 0.18963
# Poissons Ratio (y) = -0.06619 0.05437
# Poissons Ratio (z) = 0.36219 0.05040
#
# Static dielectric constant tensor:
#      x y z
#    x 1.873520 0.000000 0.000000 
#    y 0.000000 1.946390 0.000000 
#    z 0.000000 0.000000 1.956790 
# 
# From -- ./inp_files/7710.got.cif
#   From: 2010.05.17/outbox.cif.g08.bks.cpg/sg52_4_cif.got.tgz:7710.got - 2010.06.03 12:15:38.
