data_PCOD9410697
_publ_section_title
;
Structure prediction by ZEFSAII (Michael W. Deem and Ramdas Pophale) SiO2 
 PCOD9410697
Probable space group: P N N A
;
_chemical_formula_sum "Si O2"
_cell_formula_units_Z 48
_cell_length_a 8.962135
_cell_length_b 25.100361
_cell_length_c 10.801391
_cell_angle_alpha 90.000000
_cell_angle_beta 90.000000
_cell_angle_gamma 90.000000
_cell_volume 2429.803407
_symmetry_space_group_name_H-M "P N N A"
_symmetry_group_IT_number 52
_symmetry_cell_setting 'orthorhombic'
loop_
_space_group_symop_operation_xyz
x,y,z
1/2-x,-y,z
x,1/2-y,1/2-z
1/2-x,1/2+y,1/2-z
-x,-y,-z
1/2+x,y,-z
-x,1/2+y,1/2+z
1/2+x,1/2-y,1/2+z
loop_
_atom_site_type_symbol
_atom_site_label
_atom_site_fract_x
_atom_site_fract_y
_atom_site_fract_z
Si Si1 0.920270 0.520009 0.123736
Si Si2 0.069307 0.852617 0.130885
Si Si3 0.079293 0.980214 0.123621
Si Si4 0.733967 0.690299 0.394818
Si Si5 0.203923 0.685210 0.878893
Si Si6 0.021715 0.858021 0.398816
O O1 0.750000 0.500000 0.123714
O O2 0.948601 0.583668 0.118450
O O3 0.999107 0.500736 0.250157
O O4 0.000000 0.500000 0.000000
O O5 0.910547 0.822760 0.113269
O O6 0.113915 0.843748 0.274575
O O7 0.061575 0.916397 0.120196
O O8 0.175946 0.834017 0.021827
O O9 0.250000 0.000000 0.125474
O O10 0.000000 0.000000 0.000000
O O11 0.673068 0.668105 0.263012
O O12 0.681294 0.751688 0.394103
O O13 0.379658 0.679880 0.903317
O O14 0.116611 0.650142 0.978291
#
# Coordination Sequence:
#
# PCOD9410697 Si02
#       6
#     8   8   8   8   8   8
#     4  11  23  40  62  88 120 160 204 254 310 371
#     4  10  22  39  58  85 118 154 196 242 294 353
#     4  11  23  39  61  90 122 160 205 254 308 368
#     4  10  21  38  59  85 116 153 193 239 293 354
#     4  10  21  37  59  86 117 151 193 240 292 353
#     4  10  22  39  59  86 117 152 195 243 295 353
#
# _framework density 19.754684999999998
#
# number of rings (size 3 to 8) (size 9 to 14) (size 15 to 20)
#    0.000    1.667    0.000    4.000    0.000    8.667 
#    0.000    0.000    0.000    0.000    0.000    0.000 
#    0.000    0.000    0.000    0.000    0.000    0.000 
#
# Total GULP energy -267745.328202 kJ/mol
# GULP energy per Si atom -5578.027671 kJ/mol
# Density = 1.970972 g / cm^3
# Si number density = 19.754685 Si / 1000 Ang^3
#
#
#
# Elastic Constant Matrix: (Units=GPa)
#
#
# Indices 1 2 3 4 5 6 
#
# 1 84.6171 8.7940 56.1763 0.0000 0.0000 0.0000
# 2 8.7940 40.9270 15.4151 0.0000 0.0000 0.0000
# 3 56.1763 15.4151 150.3717 0.0000 0.0000 0.0000
# 4 0.0000 0.0000 0.0000 33.8409 0.0000 0.0000
# 5 0.0000 0.0000 0.0000 0.0000 47.4502 0.0000
# 6 0.0000 0.0000 0.0000 0.0000 0.0000 31.8834
#
#
#
# Elastic Compliance Matrix: (Units=1/GPa)
#
#
# Indices 1 2 3 4 5 6 
#
# 1 0.015774 -0.001217 -0.005768 0.000000 0.000000 0.000000
# 2 -0.001217 0.025509 -0.002160 0.000000 0.000000 0.000000
# 3 -0.005768 -0.002160 0.009027 0.000000 0.000000 0.000000
# 4 0.000000 0.000000 0.000000 0.029550 0.000000 0.000000
# 5 0.000000 0.000000 0.000000 0.000000 0.021075 0.000000
# 6 0.000000 0.000000 0.000000 0.000000 0.000000 0.031364
#
#
# Mechanical properties :
#
#
# Convention : Reuss Voigt Hill
#
# Bulk Modulus (GPa) = 31.23182 48.52072 39.87627
# Shear Modulus (GPa) = 31.00553 35.67028 33.33790
#
# Velocity S-wave (km/s) = 3.96602 4.25392 4.11249
# Velocity P-wave (km/s) = 6.06767 6.98160 6.54062
#
# Compressibility (1/GPa) = 0.03201863
#
# Stress axis : x y z
#
# Youngs Moduli (GPa) = 63.39646 39.20199 110.78470
#
# Poissons Ratio (x) = 0.04770 0.63901
# Poissons Ratio (y) = 0.07714 0.23934
# Poissons Ratio (z) = 0.36568 0.08469
#
# Static dielectric constant tensor:
#      x y z
#    x 1.672350 0.000000 0.000000 
#    y 0.000000 1.757310 0.000000 
#    z 0.000000 0.000000 1.692290 
# 
# From -- ./inp_files/7722.got.cif
#   From: 2010.05.17/outbox.cif.g08.bks.cpg/sg52_4_cif.got.tgz:7722.got - 2010.06.03 12:15:38.
