data_PCOD9410316
_publ_section_title
;
Structure prediction by ZEFSAII (Michael W. Deem and Ramdas Pophale) SiO2 
 PCOD9410316
Probable space group: P N N A
;
_chemical_formula_sum "Si O2"
_cell_formula_units_Z 52
_cell_length_a 4.912750
_cell_length_b 20.756718
_cell_length_c 22.996383
_cell_angle_alpha 90.000000
_cell_angle_beta 90.000000
_cell_angle_gamma 90.000000
_cell_volume 2345.000191
_symmetry_space_group_name_H-M "P N N A"
_symmetry_group_IT_number 52
_symmetry_cell_setting 'orthorhombic'
loop_
_space_group_symop_operation_xyz
x,y,z
1/2-x,-y,z
x,1/2-y,1/2-z
1/2-x,1/2+y,1/2-z
-x,-y,-z
1/2+x,y,-z
-x,1/2+y,1/2+z
1/2+x,1/2-y,1/2+z
loop_
_atom_site_type_symbol
_atom_site_label
_atom_site_fract_x
_atom_site_fract_y
_atom_site_fract_z
Si Si1 0.750000 0.500000 0.755838
Si Si2 0.928695 0.561656 0.347728
Si Si3 0.134040 0.369764 0.193440
Si Si4 0.296580 0.239795 0.464783
Si Si5 0.786845 0.304587 0.293443
Si Si6 0.221501 0.893621 0.038843
Si Si7 0.840961 0.686944 0.136671
O O1 0.556096 0.537232 0.712011
O O2 0.886270 0.555346 0.792747
O O3 0.750000 0.500000 0.366833
O O4 0.805328 0.630120 0.326351
O O5 0.136833 0.575626 0.400210
O O6 0.441140 0.347795 0.180466
O O7 0.024714 0.329772 0.250230
O O8 0.924335 0.357293 0.140891
O O9 0.983714 0.225970 0.478511
O O10 0.308489 0.316443 0.453022
O O11 0.455101 0.201967 0.415436
O O12 0.644324 0.250000 0.250000
O O13 0.803656 0.255234 0.346926
O O14 0.016488 0.910202 0.985981
#
# Coordination Sequence:
#
# PCOD9410316 Si02
#       7
#     4   8   8   8   8   8   8
#     4  12  26  42  62  92 134 176 218 260 324 388
#     4  12  25  43  63  91 129 177 220 271 321 383
#     4  11  25  41  64  93 132 168 215 264 320 400
#     4  10  20  40  66  96 128 160 209 274 326 379
#     4  10  22  41  61  91 125 167 214 272 318 383
#     4  10  24  43  63  88 123 170 224 271 317 367
#     4  11  23  42  66  99 124 167 215 268 336 382
#
# _framework density 22.174838000000001
#
# number of rings (size 3 to 8) (size 9 to 14) (size 15 to 20)
#    0.000    1.231    3.077    2.769    2.154    9.846 
#    2.769    0.000    0.000    0.000    0.000   10.769 
#    0.000    0.000    0.000    0.000    0.000    0.000 
#
# Total GULP energy -289714.166967 kJ/mol
# GULP energy per Si atom -5571.426288 kJ/mol
# Density = 2.212437 g / cm^3
# Si number density = 22.174838 Si / 1000 Ang^3
#
#
#
# Elastic Constant Matrix: (Units=GPa)
#
#
# Indices 1 2 3 4 5 6 
#
# 1 55.4258 6.0493 -9.8512 0.0000 0.0000 0.0000
# 2 6.0493 112.2501 38.9983 0.0000 0.0000 0.0000
# 3 -9.8512 38.9983 47.7232 0.0000 0.0000 0.0000
# 4 0.0000 0.0000 0.0000 38.6955 0.0000 0.0000
# 5 0.0000 0.0000 0.0000 0.0000 25.0646 0.0000
# 6 0.0000 0.0000 0.0000 0.0000 0.0000 26.9638
#
#
#
# Elastic Compliance Matrix: (Units=1/GPa)
#
#
# Indices 1 2 3 4 5 6 
#
# 1 0.019639 -0.003445 0.006869 0.000000 0.000000 0.000000
# 2 -0.003445 0.013045 -0.011371 0.000000 0.000000 0.000000
# 3 0.006869 -0.011371 0.031664 0.000000 0.000000 0.000000
# 4 0.000000 0.000000 0.000000 0.025843 0.000000 0.000000
# 5 0.000000 0.000000 0.000000 0.000000 0.039897 0.000000
# 6 0.000000 0.000000 0.000000 0.000000 0.000000 0.037087
#
#
# Mechanical properties :
#
#
# Convention : Reuss Voigt Hill
#
# Bulk Modulus (GPa) = 20.63801 31.75468 26.19635
# Shear Modulus (GPa) = 25.09788 30.15828 27.62808
#
# Velocity S-wave (km/s) = 3.36790 3.69185 3.53359
# Velocity P-wave (km/s) = 4.94478 5.70300 5.33737
#
# Compressibility (1/GPa) = 0.04845427
#
# Stress axis : x y z
#
# Youngs Moduli (GPa) = 50.91916 76.65826 31.58131
#
# Poissons Ratio (x) = 0.26407 -0.21693
# Poissons Ratio (y) = 0.17541 0.35911
# Poissons Ratio (z) = -0.34976 0.87169
#
# Static dielectric constant tensor:
#      x y z
#    x 1.908930 0.000000 0.000000 
#    y 0.000000 0.086870 0.000000 
#    z 0.000000 0.000000 1.966290 
# 
# From -- ./inp_files/35192.got.cif
#   From: 2010.05.17/outbox.cif.g08.bks.cpg/sg52_18_cif.got.tgz:35192.got - 2010.06.03 12:15:38.
