data_PCOD9410983
_publ_section_title
;
Structure prediction by ZEFSAII (Michael W. Deem and Ramdas Pophale) SiO2 
 PCOD9410983
Probable space group: P N N A
;
_chemical_formula_sum "Si O2"
_cell_formula_units_Z 64
_cell_length_a 23.228625
_cell_length_b 9.586477
_cell_length_c 13.893868
_cell_angle_alpha 90.000000
_cell_angle_beta 90.000000
_cell_angle_gamma 90.000000
_cell_volume 3093.895964
_symmetry_space_group_name_H-M "P N N A"
_symmetry_group_IT_number 52
_symmetry_cell_setting 'orthorhombic'
loop_
_space_group_symop_operation_xyz
x,y,z
1/2-x,-y,z
x,1/2-y,1/2-z
1/2-x,1/2+y,1/2-z
-x,-y,-z
1/2+x,y,-z
-x,1/2+y,1/2+z
1/2+x,1/2-y,1/2+z
loop_
_atom_site_type_symbol
_atom_site_label
_atom_site_fract_x
_atom_site_fract_y
_atom_site_fract_z
Si Si1 0.043929 0.357006 0.839031
Si Si2 0.897338 0.694296 0.958690
Si Si3 0.298333 0.895451 0.807241
Si Si4 0.406477 0.401828 0.142473
Si Si5 0.011328 0.420611 0.401241
Si Si6 0.803493 0.593141 0.531547
Si Si7 0.903183 0.403392 0.271121
Si Si8 0.388569 0.402934 0.358583
O O1 0.052785 0.250000 0.750000
O O2 0.066374 0.512906 0.815497
O O3 0.975510 0.371905 0.855384
O O4 0.081116 0.303236 0.930172
O O5 0.897838 0.537977 0.920272
O O6 0.946546 0.787945 0.906975
O O7 0.834320 0.761102 0.938710
O O8 0.301442 0.750000 0.750000
O O9 0.287363 0.876425 0.920896
O O10 0.250000 0.000000 0.766084
O O11 0.355926 0.986677 0.804144
O O12 0.373454 0.418241 0.245701
O O13 0.383095 0.254232 0.106236
O O14 0.046300 0.541412 0.347438
O O15 0.000000 0.500000 0.500000
O O16 0.952552 0.383092 0.350243
O O17 0.750000 0.500000 0.571888
O O18 0.856737 0.493968 0.561602
O O19 0.879011 0.250000 0.250000
#
# Coordination Sequence:
#
# PCOD9410983 Si02
#       8
#     8   8   8   8   8   8   8   8
#     4  12  21  38  60  93 138 178 215 271 339 406
#     4  11  24  37  64  95 128 175 224 277 329 405
#     4  11  24  45  67  90 125 169 218 270 337 402
#     4  11  21  39  60  96 134 174 219 276 340 405
#     4  11  21  36  56  85 122 167 211 253 323 393
#     4  10  23  44  66  89 124 173 227 282 336 405
#     4  12  23  35  58  92 125 160 209 259 315 392
#     4  10  21  39  64  87 131 177 211 273 346 391
#
# _framework density 20.685891999999999
#
# number of rings (size 3 to 8) (size 9 to 14) (size 15 to 20)
#    0.000    1.000    2.500    6.375    0.000    3.500 
#    0.000    5.625    0.000    0.000    0.000    0.875 
#    0.000    0.000    0.000    0.000    0.000    0.000 
#
# Total GULP energy -356565.595002 kJ/mol
# GULP energy per Si atom -5571.337422 kJ/mol
# Density = 2.063881 g / cm^3
# Si number density = 20.685892 Si / 1000 Ang^3
#
#
#
# Elastic Constant Matrix: (Units=GPa)
#
#
# Indices 1 2 3 4 5 6 
#
# 1 56.3952 15.8783 4.5578 0.0000 0.0000 0.0000
# 2 15.8783 154.8319 37.2895 0.0000 0.0000 0.0000
# 3 4.5578 37.2895 35.6922 0.0000 0.0000 0.0000
# 4 0.0000 0.0000 0.0000 26.9464 0.0000 0.0000
# 5 0.0000 0.0000 0.0000 0.0000 12.7681 0.0000
# 6 0.0000 0.0000 0.0000 0.0000 0.0000 26.5704
#
#
#
# Elastic Compliance Matrix: (Units=1/GPa)
#
#
# Indices 1 2 3 4 5 6 
#
# 1 0.018266 -0.001752 -0.000502 0.000000 0.000000 0.000000
# 2 -0.001752 0.008798 -0.008968 0.000000 0.000000 0.000000
# 3 -0.000502 -0.008968 0.037451 0.000000 0.000000 0.000000
# 4 0.000000 0.000000 0.000000 0.037111 0.000000 0.000000
# 5 0.000000 0.000000 0.000000 0.000000 0.078320 0.000000
# 6 0.000000 0.000000 0.000000 0.000000 0.000000 0.037636
#
#
# Mechanical properties :
#
#
# Convention : Reuss Voigt Hill
#
# Bulk Modulus (GPa) = 23.76959 40.26341 32.01650
# Shear Modulus (GPa) = 19.68117 25.86989 22.77553
#
# Velocity S-wave (km/s) = 3.08787 3.54023 3.32176
# Velocity P-wave (km/s) = 4.92229 6.01809 5.49756
#
# Compressibility (1/GPa) = 0.04207056
#
# Stress axis : x y z
#
# Youngs Moduli (GPa) = 54.74670 113.65936 26.70156
#
# Poissons Ratio (x) = 0.19917 0.01340
# Poissons Ratio (y) = 0.09594 0.23947
# Poissons Ratio (z) = 0.02747 1.01932
#
# Static dielectric constant tensor:
#      x y z
#    x 2.035400 0.000000 0.000000 
#    y 0.000000 1.744240 0.000000 
#    z 0.000000 0.000000 1.852410 
# 
# From -- ./inp_files/29243.got.cif
#   From: 2010.05.17/outbox.cif.g08.bks.cpg/sg52_15_cif.got.tgz:29243.got - 2010.06.03 12:15:38.
