data_PCOD9410621
_publ_section_title
;
Structure prediction by ZEFSAII (Michael W. Deem and Ramdas Pophale) SiO2 
 PCOD9410621
Probable space group: P N N A
;
_chemical_formula_sum "Si O2"
_cell_formula_units_Z 32
_cell_length_a 8.643800
_cell_length_b 8.136801
_cell_length_c 23.437833
_cell_angle_alpha 90.000000
_cell_angle_beta 90.000000
_cell_angle_gamma 90.000000
_cell_volume 1648.450307
_symmetry_space_group_name_H-M "P N N A"
_symmetry_group_IT_number 52
_symmetry_cell_setting 'orthorhombic'
loop_
_space_group_symop_operation_xyz
x,y,z
1/2-x,-y,z
x,1/2-y,1/2-z
1/2-x,1/2+y,1/2-z
-x,-y,-z
1/2+x,y,-z
-x,1/2+y,1/2+z
1/2+x,1/2-y,1/2+z
loop_
_atom_site_type_symbol
_atom_site_label
_atom_site_fract_x
_atom_site_fract_y
_atom_site_fract_z
Si Si1 0.051634 0.644180 0.830432
Si Si2 0.569032 0.020414 0.785587
Si Si3 0.427061 0.946130 0.559187
Si Si4 0.850735 0.664859 0.366851
O O1 0.004564 0.545536 0.886784
O O2 0.227671 0.708049 0.838866
O O3 0.953629 0.809307 0.820083
O O4 0.024233 0.540692 0.773355
O O5 0.750000 0.000000 0.774304
O O6 0.486368 0.882341 0.823369
O O7 0.421912 0.755411 0.578052
O O8 0.250000 0.000000 0.554929
O O9 0.500000 0.000000 0.500000
O O10 0.750000 0.500000 0.379069
#
# Coordination Sequence:
#
# PCOD9410621 Si02
#       4
#     8   8   8   8
#     4   9  21  38  55  82 117 152 190 229 290 362
#     4  10  21  36  58  90 118 146 190 245 292 335
#     4  10  22  39  58  81 110 149 195 238 286 346
#     4   9  20  39  60  83 114 154 192 233 292 364
#
# _framework density 19.412171000000001
#
# number of rings (size 3 to 8) (size 9 to 14) (size 15 to 20)
#    0.000    2.500    0.000    0.000    0.000   25.000 
#    0.000   12.500    0.000    0.000    0.000    0.000 
#    0.000    0.000    0.000    0.000    0.000    0.000 
#
# Total GULP energy -178557.658854 kJ/mol
# GULP energy per Si atom -5579.926839 kJ/mol
# Density = 1.936799 g / cm^3
# Si number density = 19.412171 Si / 1000 Ang^3
#
#
#
# Elastic Constant Matrix: (Units=GPa)
#
#
# Indices 1 2 3 4 5 6 
#
# 1 64.3220 38.0716 49.8720 0.0000 0.0000 0.0000
# 2 38.0716 91.5765 75.6615 0.0000 0.0000 0.0000
# 3 49.8720 75.6615 154.4142 0.0000 0.0000 0.0000
# 4 0.0000 0.0000 0.0000 26.8431 0.0000 0.0000
# 5 0.0000 0.0000 0.0000 0.0000 21.4426 0.0000
# 6 0.0000 0.0000 0.0000 0.0000 0.0000 13.0911
#
#
#
# Elastic Compliance Matrix: (Units=1/GPa)
#
#
# Indices 1 2 3 4 5 6 
#
# 1 0.022320 -0.005584 -0.004473 0.000000 0.000000 0.000000
# 2 -0.005584 0.019744 -0.007871 0.000000 0.000000 0.000000
# 3 -0.004473 -0.007871 0.011778 0.000000 0.000000 0.000000
# 4 0.000000 0.000000 0.000000 0.037254 0.000000 0.000000
# 5 0.000000 0.000000 0.000000 0.000000 0.046636 0.000000
# 6 0.000000 0.000000 0.000000 0.000000 0.000000 0.076388
#
#
# Mechanical properties :
#
#
# Convention : Reuss Voigt Hill
#
# Bulk Modulus (GPa) = 55.59770 70.83588 63.21679
# Shear Modulus (GPa) = 19.53357 22.05587 20.79472
#
# Velocity S-wave (km/s) = 3.17559 3.37440 3.27650
# Velocity P-wave (km/s) = 6.49220 7.19387 6.85202
#
# Compressibility (1/GPa) = 0.01798635
#
# Stress axis : x y z
#
# Youngs Moduli (GPa) = 44.80361 50.64722 84.90764
#
# Poissons Ratio (x) = 0.28279 0.37977
# Poissons Ratio (y) = 0.25017 0.66833
# Poissons Ratio (z) = 0.20040 0.39865
#
# Static dielectric constant tensor:
#      x y z
#    x 1.678550 0.000000 0.000000 
#    y 0.000000 1.752270 0.000000 
#    z 0.000000 0.000000 1.676050 
# 
# From -- ./inp_files/35429.got.cif
#   From: 2010.05.17/outbox.cif.g08.bks.cpg/sg52_18_cif.got.tgz:35429.got - 2010.06.03 12:15:38.
