data_PCOD9410974
_publ_section_title
;
Structure prediction by ZEFSAII (Michael W. Deem and Ramdas Pophale) SiO2 
 PCOD9410974
Probable space group: P N N A
;
_chemical_formula_sum "Si O2"
_cell_formula_units_Z 32
_cell_length_a 11.772256
_cell_length_b 9.984153
_cell_length_c 10.817471
_cell_angle_alpha 90.000000
_cell_angle_beta 90.000000
_cell_angle_gamma 90.000000
_cell_volume 1271.442326
_symmetry_space_group_name_H-M "P N N A"
_symmetry_group_IT_number 52
_symmetry_cell_setting 'orthorhombic'
loop_
_space_group_symop_operation_xyz
x,y,z
1/2-x,-y,z
x,1/2-y,1/2-z
1/2-x,1/2+y,1/2-z
-x,-y,-z
1/2+x,y,-z
-x,1/2+y,1/2+z
1/2+x,1/2-y,1/2+z
loop_
_atom_site_type_symbol
_atom_site_label
_atom_site_fract_x
_atom_site_fract_y
_atom_site_fract_z
Si Si1 0.465343 0.868573 0.173516
Si Si2 0.110631 0.389970 0.715725
Si Si3 0.750000 0.000000 0.807273
Si Si4 0.731096 0.213481 0.993181
Si Si5 0.750000 0.500000 0.063822
O O1 0.522161 0.750000 0.250000
O O2 0.398057 0.802542 0.059387
O O3 0.543450 0.993654 0.146806
O O4 0.358344 0.930516 0.253009
O O5 0.049878 0.250000 0.750000
O O6 0.217504 0.343338 0.631411
O O7 0.149452 0.455867 0.844245
O O8 0.703275 0.885086 0.900802
O O9 0.775982 0.363760 0.991379
#
# Coordination Sequence:
#
# PCOD9410974 Si02
#       5
#     8   8   4   8   4
#     4  10  22  40  59  90 123 165 205 253 309 374
#     4  10  21  39  63  93 123 158 207 259 311 362
#     4   8  21  37  60  80 122 166 201 237 312 358
#     4   9  20  41  59  92 121 159 204 253 307 366
#     4  10  21  39  68  92 120 156 215 259 302 368
#
# _framework density 25.168267
#
# number of rings (size 3 to 8) (size 9 to 14) (size 15 to 20)
#    1.500    1.000    0.000    1.500    0.000    7.000 
#    4.500    2.500    0.000    0.000    0.000    0.000 
#    0.000    0.000    0.000    0.000    0.000    0.000 
#
# Total GULP energy -178439.531225 kJ/mol
# GULP energy per Si atom -5576.235351 kJ/mol
# Density = 2.511098 g / cm^3
# Si number density = 25.168267 Si / 1000 Ang^3
#
#
#
# Elastic Constant Matrix: (Units=GPa)
#
#
# Indices 1 2 3 4 5 6 
#
# 1 44.4496 44.3520 6.7728 0.0000 0.0000 0.0000
# 2 44.3520 242.6518 42.5388 0.0000 0.0000 0.0000
# 3 6.7728 42.5388 47.9606 0.0000 0.0000 0.0000
# 4 0.0000 0.0000 0.0000 33.4334 0.0000 0.0000
# 5 0.0000 0.0000 0.0000 0.0000 23.5190 0.0000
# 6 0.0000 0.0000 0.0000 0.0000 0.0000 43.0022
#
#
#
# Elastic Compliance Matrix: (Units=1/GPa)
#
#
# Indices 1 2 3 4 5 6 
#
# 1 0.027534 -0.005152 0.000682 0.000000 0.000000 0.000000
# 2 -0.005152 0.005844 -0.004456 0.000000 0.000000 0.000000
# 3 0.000682 -0.004456 0.024706 0.000000 0.000000 0.000000
# 4 0.000000 0.000000 0.000000 0.029910 0.000000 0.000000
# 5 0.000000 0.000000 0.000000 0.000000 0.042519 0.000000
# 6 0.000000 0.000000 0.000000 0.000000 0.000000 0.023255
#
#
# Mechanical properties :
#
#
# Convention : Reuss Voigt Hill
#
# Bulk Modulus (GPa) = 24.85599 58.04325 41.44962
# Shear Modulus (GPa) = 27.02235 36.08414 31.55325
#
# Velocity S-wave (km/s) = 3.28024 3.79055 3.54459
# Velocity P-wave (km/s) = 4.92382 6.50153 5.76688
#
# Compressibility (1/GPa) = 0.04023174
#
# Stress axis : x y z
#
# Youngs Moduli (GPa) = 36.31812 171.11580 40.47551
#
# Poissons Ratio (x) = 0.88163 -0.02758
# Poissons Ratio (y) = 0.18712 0.18035
# Poissons Ratio (z) = -0.02475 0.76245
#
# Static dielectric constant tensor:
#      x y z
#    x 2.009100 0.000000 0.000000 
#    y 0.000000 1.988640 0.000000 
#    z 0.000000 0.000000 2.068890 
# 
# From -- ./inp_files/18895.got.cif
#   From: 2010.05.17/outbox.cif.g08.bks.cpg/sg52_10_cif.got.tgz:18895.got - 2010.06.03 12:15:38.
