data_PCOD9410275
_publ_section_title
;
Structure prediction by ZEFSAII (Michael W. Deem and Ramdas Pophale) SiO2 
 PCOD9410275
Probable space group: P N N A
;
_chemical_formula_sum "Si O2"
_cell_formula_units_Z 56
_cell_length_a 24.071970
_cell_length_b 21.080712
_cell_length_c 5.399252
_cell_angle_alpha 90.000000
_cell_angle_beta 90.000000
_cell_angle_gamma 90.000000
_cell_volume 2739.873465
_symmetry_space_group_name_H-M "P N N A"
_symmetry_group_IT_number 52
_symmetry_cell_setting 'orthorhombic'
loop_
_space_group_symop_operation_xyz
x,y,z
1/2-x,-y,z
x,1/2-y,1/2-z
1/2-x,1/2+y,1/2-z
-x,-y,-z
1/2+x,y,-z
-x,1/2+y,1/2+z
1/2+x,1/2-y,1/2+z
loop_
_atom_site_type_symbol
_atom_site_label
_atom_site_fract_x
_atom_site_fract_y
_atom_site_fract_z
Si Si1 0.670467 0.443676 0.362615
Si Si2 0.205125 0.910388 0.828883
Si Si3 0.157147 0.713359 0.503065
Si Si4 0.459912 0.183902 0.162847
Si Si5 0.895101 0.548678 0.852971
Si Si6 0.492253 0.432571 0.634841
Si Si7 0.894737 0.090157 0.497979
O O1 0.728670 0.408478 0.313608
O O2 0.687852 0.517731 0.392130
O O3 0.638773 0.425760 0.615337
O O4 0.632981 0.437266 0.116795
O O5 0.184091 0.855985 0.010263
O O6 0.167961 0.896818 0.585053
O O7 0.176006 0.750000 0.750000
O O8 0.090577 0.703425 0.518855
O O9 0.168720 0.750000 0.250000
O O10 0.486746 0.250000 0.250000
O O11 0.426038 0.149036 0.382068
O O12 0.496302 0.128757 0.041322
O O13 0.958614 0.570947 0.835932
O O14 0.895820 0.471904 0.831079
O O15 0.500000 0.500000 0.500000
O O16 0.432230 0.429976 0.762544
#
# Coordination Sequence:
#
# PCOD9410275 Si02
#       7
#     8   8   8   8   8   8   8
#     4  10  24  38  62  91 125 170 205 267 311 377
#     4  10  20  40  61  92 128 161 210 259 325 378
#     4  11  23  39  61  94 130 166 203 258 328 391
#     4  11  24  37  61  96 134 168 211 263 334 400
#     4  11  23  39  59  93 128 165 218 253 319 379
#     4  12  23  39  63  95 128 176 214 270 331 393
#     4  11  22  39  63  95 132 165 207 273 331 391
#
# _framework density 20.438901000000001
#
# number of rings (size 3 to 8) (size 9 to 14) (size 15 to 20)
#    0.000    1.143    2.857    4.714    2.000    8.000 
#    0.000    0.000    0.000    0.857    3.714    0.000 
#    0.000    0.000    0.000    0.000    0.000    0.000 
#
# Total GULP energy -312836.659108 kJ/mol
# GULP energy per Si atom -5586.368913 kJ/mol
# Density = 2.039238 g / cm^3
# Si number density = 20.438901 Si / 1000 Ang^3
#
#
#
# Elastic Constant Matrix: (Units=GPa)
#
#
# Indices 1 2 3 4 5 6 
#
# 1 77.7303 30.6280 35.4894 0.0000 0.0000 0.0000
# 2 30.6280 104.6232 42.5867 0.0000 0.0000 0.0000
# 3 35.4894 42.5867 110.6734 0.0000 0.0000 0.0000
# 4 0.0000 0.0000 0.0000 32.3343 0.0000 0.0000
# 5 0.0000 0.0000 0.0000 0.0000 7.6730 0.0000
# 6 0.0000 0.0000 0.0000 0.0000 0.0000 26.5328
#
#
#
# Elastic Compliance Matrix: (Units=1/GPa)
#
#
# Indices 1 2 3 4 5 6 
#
# 1 0.015851 -0.003049 -0.003910 0.000000 0.000000 0.000000
# 2 -0.003049 0.011920 -0.003609 0.000000 0.000000 0.000000
# 3 -0.003910 -0.003609 0.011678 0.000000 0.000000 0.000000
# 4 0.000000 0.000000 0.000000 0.030927 0.000000 0.000000
# 5 0.000000 0.000000 0.000000 0.000000 0.130327 0.000000
# 6 0.000000 0.000000 0.000000 0.000000 0.000000 0.037689
#
#
# Mechanical properties :
#
#
# Convention : Reuss Voigt Hill
#
# Bulk Modulus (GPa) = 54.60376 56.71500 55.65938
# Shear Modulus (GPa) = 18.82304 25.59621 22.20962
#
# Velocity S-wave (km/s) = 3.03799 3.54266 3.29999
# Velocity P-wave (km/s) = 6.25136 6.67404 6.46615
#
# Compressibility (1/GPa) = 0.01831376
#
# Stress axis : x y z
#
# Youngs Moduli (GPa) = 63.08552 83.89471 85.63066
#
# Poissons Ratio (x) = 0.25579 0.33480
# Poissons Ratio (y) = 0.19235 0.30904
# Poissons Ratio (z) = 0.24665 0.30277
#
# Static dielectric constant tensor:
#      x y z
#    x 1.718670 0.000000 0.000000 
#    y 0.000000 1.759300 0.000000 
#    z 0.000000 0.000000 1.794340 
# 
# From -- ./inp_files/5216.got.cif
#   From: 2010.05.17/outbox.cif.g08.bks.cpg/sg52_3_cif.got.tgz:5216.got - 2010.06.03 12:15:38.
