data_PCOD9410707
_publ_section_title
;
Structure prediction by ZEFSAII (Michael W. Deem and Ramdas Pophale) SiO2 
 PCOD9410707
Probable space group: P N N A
;
_chemical_formula_sum "Si O2"
_cell_formula_units_Z 60
_cell_length_a 14.980533
_cell_length_b 17.604722
_cell_length_c 11.671506
_cell_angle_alpha 90.000000
_cell_angle_beta 90.000000
_cell_angle_gamma 90.000000
_cell_volume 3078.104322
_symmetry_space_group_name_H-M "P N N A"
_symmetry_group_IT_number 52
_symmetry_cell_setting 'orthorhombic'
loop_
_space_group_symop_operation_xyz
x,y,z
1/2-x,-y,z
x,1/2-y,1/2-z
1/2-x,1/2+y,1/2-z
-x,-y,-z
1/2+x,y,-z
-x,1/2+y,1/2+z
1/2+x,1/2-y,1/2+z
loop_
_atom_site_type_symbol
_atom_site_label
_atom_site_fract_x
_atom_site_fract_y
_atom_site_fract_z
Si Si1 0.346847 0.528245 0.883222
Si Si2 0.070535 0.641265 0.639967
Si Si3 0.149501 0.020079 0.889510
Si Si4 0.047675 0.322896 0.913184
Si Si5 0.111152 0.324944 0.482718
Si Si6 0.306140 0.236659 0.028528
Si Si7 0.571908 0.750000 0.750000
Si Si8 0.399666 0.363658 0.909289
O O1 0.250000 0.500000 0.922158
O O2 0.343286 0.536947 0.745797
O O3 0.384452 0.608141 0.923053
O O4 0.404370 0.454835 0.917764
O O5 0.085529 0.553187 0.605374
O O6 0.144692 0.685849 0.567030
O O7 0.093355 0.652221 0.773993
O O8 0.970808 0.668457 0.607075
O O9 0.118861 0.093229 0.958642
O O10 0.250000 0.000000 0.929023
O O11 0.087903 0.239261 0.923706
O O12 0.988875 0.319379 0.797351
O O13 0.982229 0.330876 0.020931
O O14 0.208122 0.294912 0.442332
O O15 0.366210 0.230964 0.142169
O O16 0.316056 0.321246 0.971690
#
# Coordination Sequence:
#
# PCOD9410707 Si02
#       8
#     8   8   8   8   8   8   4   8
#     4  10  21  37  59  92 124 162 210 264 304 364
#     4  11  22  42  64  90 128 163 209 261 314 376
#     4  10  21  39  61  91 128 162 210 258 314 366
#     4  11  22  39  65  89 126 166 213 253 320 375
#     4  12  23  39  65  95 122 169 207 262 319 375
#     4  11  23  40  64  92 127 163 209 264 308 385
#     4  10  22  42  58  94 128 166 208 266 318 372
#     4  10  22  41  62  89 124 167 206 258 309 377
#
# _framework density 19.492516999999999
#
# number of rings (size 3 to 8) (size 9 to 14) (size 15 to 20)
#    0.000    1.333    4.000    2.800    0.000    1.067 
#    4.800    0.000    0.000    0.800    0.000    0.000 
#    0.000    0.000    0.000    0.000    0.000    0.000 
#
# Total GULP energy -334524.197179 kJ/mol
# GULP energy per Si atom -5575.403286 kJ/mol
# Density = 1.944815 g / cm^3
# Si number density = 19.492517 Si / 1000 Ang^3
#
#
#
# Elastic Constant Matrix: (Units=GPa)
#
#
# Indices 1 2 3 4 5 6 
#
# 1 105.8824 34.8287 20.0250 0.0000 0.0000 0.0000
# 2 34.8287 95.9708 31.4352 0.0000 0.0000 0.0000
# 3 20.0250 31.4352 68.7119 0.0000 0.0000 0.0000
# 4 0.0000 0.0000 0.0000 24.6643 0.0000 0.0000
# 5 0.0000 0.0000 0.0000 0.0000 16.4644 0.0000
# 6 0.0000 0.0000 0.0000 0.0000 0.0000 35.2119
#
#
#
# Elastic Compliance Matrix: (Units=1/GPa)
#
#
# Indices 1 2 3 4 5 6 
#
# 1 0.010873 -0.003421 -0.001604 0.000000 0.000000 0.000000
# 2 -0.003421 0.013333 -0.005103 0.000000 0.000000 0.000000
# 3 -0.001604 -0.005103 0.017355 0.000000 0.000000 0.000000
# 4 0.000000 0.000000 0.000000 0.040544 0.000000 0.000000
# 5 0.000000 0.000000 0.000000 0.000000 0.060737 0.000000
# 6 0.000000 0.000000 0.000000 0.000000 0.000000 0.028399
#
#
# Mechanical properties :
#
#
# Convention : Reuss Voigt Hill
#
# Bulk Modulus (GPa) = 46.93365 49.23811 48.08588
# Shear Modulus (GPa) = 25.17645 27.55320 26.36483
#
# Velocity S-wave (km/s) = 3.59778 3.76377 3.68171
# Velocity P-wave (km/s) = 6.43341 6.64852 6.54185
#
# Compressibility (1/GPa) = 0.02130667
#
# Stress axis : x y z
#
# Youngs Moduli (GPa) = 91.97168 75.00429 57.61896
#
# Poissons Ratio (x) = 0.25656 0.09241
# Poissons Ratio (y) = 0.31459 0.29401
# Poissons Ratio (z) = 0.14751 0.38272
#
# Static dielectric constant tensor:
#      x y z
#    x 1.755650 0.000000 0.000000 
#    y 0.000000 1.728390 0.000000 
#    z 0.000000 0.000000 1.653340 
# 
# From -- ./inp_files/19829.got.cif
#   From: 2010.05.17/outbox.cif.g08.bks.cpg/sg52_10_cif.got.tgz:19829.got - 2010.06.03 12:15:38.
