data_PCOD9410106
_publ_section_title
;
Structure prediction by ZEFSAII (Michael W. Deem and Ramdas Pophale) SiO2 
 PCOD9410106
Probable space group: P N N A
;
_chemical_formula_sum "Si O2"
_cell_formula_units_Z 40
_cell_length_a 19.783131
_cell_length_b 11.780953
_cell_length_c 8.277831
_cell_angle_alpha 90.000000
_cell_angle_beta 90.000000
_cell_angle_gamma 90.000000
_cell_volume 1929.265534
_symmetry_space_group_name_H-M "P N N A"
_symmetry_group_IT_number 52
_symmetry_cell_setting 'orthorhombic'
loop_
_space_group_symop_operation_xyz
x,y,z
1/2-x,-y,z
x,1/2-y,1/2-z
1/2-x,1/2+y,1/2-z
-x,-y,-z
1/2+x,y,-z
-x,1/2+y,1/2+z
1/2+x,1/2-y,1/2+z
loop_
_atom_site_type_symbol
_atom_site_label
_atom_site_fract_x
_atom_site_fract_y
_atom_site_fract_z
Si Si1 0.750000 0.000000 0.227555
Si Si2 0.562265 0.138056 0.673119
Si Si3 0.194297 0.750000 0.750000
Si Si4 0.613589 0.120957 0.310548
Si Si5 0.036042 0.586296 0.312771
Si Si6 0.574647 0.711069 0.016083
O O1 0.768803 0.135266 0.182208
O O2 0.675628 0.036001 0.290072
O O3 0.592256 0.250000 0.750000
O O4 0.595766 0.117166 0.500375
O O5 0.483662 0.159085 0.628256
O O6 0.564970 0.038926 0.803415
O O7 0.145548 0.790052 0.604256
O O8 0.628138 0.250000 0.250000
O O9 0.544413 0.088600 0.217095
O O10 0.068507 0.644563 0.152805
O O11 0.054607 0.660645 0.466740
#
# Coordination Sequence:
#
# PCOD9410106 Si02
#       6
#     4   8   4   8   8   8
#     4  12  26  42  64  88 130 176 216 246 298 396
#     4  11  21  35  61  98 126 155 202 272 326 368
#     4  12  24  42  66  96 124 170 218 264 314 376
#     4  11  21  42  64  88 126 168 210 254 318 387
#     4  10  20  39  65  95 127 161 198 265 341 378
#     4  10  20  38  64  95 127 156 206 268 329 372
#
# _framework density 20.733280000000001
#
# number of rings (size 3 to 8) (size 9 to 14) (size 15 to 20)
#    0.000    1.200    6.000    4.800    0.000    2.400 
#    0.000    0.000    8.800    4.800    0.000    0.000 
#    0.000    0.000    0.000    0.000    0.000    0.000 
#
# Total GULP energy -222707.952361 kJ/mol
# GULP energy per Si atom -5567.698809 kJ/mol
# Density = 2.068609 g / cm^3
# Si number density = 20.733280 Si / 1000 Ang^3
#
#
#
# Elastic Constant Matrix: (Units=GPa)
#
#
# Indices 1 2 3 4 5 6 
#
# 1 77.9049 32.0826 8.1566 0.0000 0.0000 0.0000
# 2 32.0826 148.8438 12.7090 0.0000 0.0000 0.0000
# 3 8.1566 12.7090 33.3553 0.0000 0.0000 0.0000
# 4 0.0000 0.0000 0.0000 30.3907 0.0000 0.0000
# 5 0.0000 0.0000 0.0000 0.0000 11.7525 0.0000
# 6 0.0000 0.0000 0.0000 0.0000 0.0000 66.3760
#
#
#
# Elastic Compliance Matrix: (Units=1/GPa)
#
#
# Indices 1 2 3 4 5 6 
#
# 1 0.014269 -0.002871 -0.002395 0.000000 0.000000 0.000000
# 2 -0.002871 0.007522 -0.002164 0.000000 0.000000 0.000000
# 3 -0.002395 -0.002164 0.031391 0.000000 0.000000 0.000000
# 4 0.000000 0.000000 0.000000 0.032905 0.000000 0.000000
# 5 0.000000 0.000000 0.000000 0.000000 0.085089 0.000000
# 6 0.000000 0.000000 0.000000 0.000000 0.000000 0.015066
#
#
# Mechanical properties :
#
#
# Convention : Reuss Voigt Hill
#
# Bulk Modulus (GPa) = 26.09542 40.66671 33.38107
# Shear Modulus (GPa) = 23.37806 35.51423 29.44615
#
# Velocity S-wave (km/s) = 3.36156 4.14322 3.77269
# Velocity P-wave (km/s) = 5.26121 6.52267 5.92560
#
# Compressibility (1/GPa) = 0.03832091
#
# Stress axis : x y z
#
# Youngs Moduli (GPa) = 70.08024 132.94183 31.85676
#
# Poissons Ratio (x) = 0.38170 0.07631
# Poissons Ratio (y) = 0.20121 0.06894
# Poissons Ratio (z) = 0.16787 0.28768
#
# Static dielectric constant tensor:
#      x y z
#    x 1.723620 0.000000 0.000000 
#    y 0.000000 1.857120 0.000000 
#    z 0.000000 0.000000 1.718970 
# 
# From -- ./inp_files/13204.got.cif
#   From: 2010.05.17/outbox.cif.g08.bks.cpg/sg52_7_cif.got.tgz:13204.got - 2010.06.03 12:15:38.
