data_PCOD9410768
_publ_section_title
;
Structure prediction by ZEFSAII (Michael W. Deem and Ramdas Pophale) SiO2 
 PCOD9410768
Probable space group: P N N A
;
_chemical_formula_sum "Si O2"
_cell_formula_units_Z 60
_cell_length_a 10.735607
_cell_length_b 26.326781
_cell_length_c 9.382093
_cell_angle_alpha 90.000000
_cell_angle_beta 90.000000
_cell_angle_gamma 90.000000
_cell_volume 2651.698233
_symmetry_space_group_name_H-M "P N N A"
_symmetry_group_IT_number 52
_symmetry_cell_setting 'orthorhombic'
loop_
_space_group_symop_operation_xyz
x,y,z
1/2-x,-y,z
x,1/2-y,1/2-z
1/2-x,1/2+y,1/2-z
-x,-y,-z
1/2+x,y,-z
-x,1/2+y,1/2+z
1/2+x,1/2-y,1/2+z
loop_
_atom_site_type_symbol
_atom_site_label
_atom_site_fract_x
_atom_site_fract_y
_atom_site_fract_z
Si Si1 0.015077 0.250000 0.250000
Si Si2 0.474045 0.941255 0.034254
Si Si3 0.807823 0.722484 0.000788
Si Si4 0.278346 0.675650 0.548750
Si Si5 0.909141 0.133314 0.262116
Si Si6 0.011479 0.196028 0.752893
Si Si7 0.285910 0.090454 0.136233
Si Si8 0.663758 0.624297 0.917790
O O1 0.103205 0.250845 0.112071
O O2 0.956297 0.192475 0.265043
O O3 0.511053 0.908811 0.176804
O O4 0.322876 0.937502 0.045842
O O5 0.574679 0.918023 0.922216
O O6 0.500000 0.000000 0.000000
O O7 0.759161 0.670386 0.940483
O O8 0.715998 0.768440 0.043267
O O9 0.876431 0.709726 0.146235
O O10 0.215012 0.640317 0.667701
O O11 0.421389 0.680834 0.600450
O O12 0.251235 0.648766 0.399977
O O13 0.883552 0.113772 0.422562
O O14 0.937482 0.250000 0.750000
O O15 0.943928 0.150669 0.674690
O O16 0.282808 0.082925 0.307216
#
# Coordination Sequence:
#
# PCOD9410768 Si02
#       8
#     4   8   8   8   8   8   8   8
#     4  12  22  36  58  94 142 190 244 280 366 436
#     4  11  25  50  77 106 135 187 246 311 382 463
#     4  11  21  33  53  84 134 191 237 287 334 437
#     4  10  21  38  55  85 130 185 236 278 346 422
#     4  11  23  39  66  98 139 190 231 304 360 449
#     4  10  22  34  52  84 134 192 242 290 344 428
#     4  11  25  43  74 103 139 180 243 314 380 456
#     4  12  23  38  60 100 139 184 238 303 370 439
#
# _framework density 22.627009999999999
#
# number of rings (size 3 to 8) (size 9 to 14) (size 15 to 20)
#    0.000    1.067    2.667    4.400    3.733    2.133 
#    0.000    0.667    0.000    3.200    0.000    0.000 
#    0.000    0.000    0.000    0.000    0.000    0.000 
#
# Total GULP energy -334193.340234 kJ/mol
# GULP energy per Si atom -5569.889004 kJ/mol
# Density = 2.257551 g / cm^3
# Si number density = 22.627010 Si / 1000 Ang^3
#
#
#
# Elastic Constant Matrix: (Units=GPa)
#
#
# Indices 1 2 3 4 5 6 
#
# 1 51.3810 22.8697 33.8872 0.0000 0.0000 0.0000
# 2 22.8697 90.2634 27.6925 0.0000 0.0000 0.0000
# 3 33.8872 27.6925 156.4216 0.0000 0.0000 0.0000
# 4 0.0000 0.0000 0.0000 12.8162 0.0000 0.0000
# 5 0.0000 0.0000 0.0000 0.0000 30.9610 0.0000
# 6 0.0000 0.0000 0.0000 0.0000 0.0000 29.3864
#
#
#
# Elastic Compliance Matrix: (Units=1/GPa)
#
#
# Indices 1 2 3 4 5 6 
#
# 1 0.024567 -0.004855 -0.004463 0.000000 0.000000 0.000000
# 2 -0.004855 0.012675 -0.001192 0.000000 0.000000 0.000000
# 3 -0.004463 -0.001192 0.007571 0.000000 0.000000 0.000000
# 4 0.000000 0.000000 0.000000 0.078026 0.000000 0.000000
# 5 0.000000 0.000000 0.000000 0.000000 0.032299 0.000000
# 6 0.000000 0.000000 0.000000 0.000000 0.000000 0.034029
#
#
# Mechanical properties :
#
#
# Convention : Reuss Voigt Hill
#
# Bulk Modulus (GPa) = 42.03034 51.88497 46.95765
# Shear Modulus (GPa) = 22.92349 28.87382 25.89865
#
# Velocity S-wave (km/s) = 3.18638 3.57610 3.38685
# Velocity P-wave (km/s) = 5.67036 6.32706 6.00769
#
# Compressibility (1/GPa) = 0.02379234
#
# Stress axis : x y z
#
# Youngs Moduli (GPa) = 40.70546 78.89822 132.08671
#
# Poissons Ratio (x) = 0.38307 0.58945
# Poissons Ratio (y) = 0.19764 0.15745
# Poissons Ratio (z) = 0.18165 0.09405
#
# Static dielectric constant tensor:
#      x y z
#    x 1.997950 0.000000 0.000000 
#    y 0.000000 1.932900 0.000000 
#    z 0.000000 0.000000 1.876070 
# 
# From -- ./inp_files/9038.got.cif
#   From: 2010.05.17/outbox.cif.g08.bks.cpg/sg52_5_cif.got.tgz:9038.got - 2010.06.03 12:15:38.
