data_PCOD9410286
_publ_section_title
;
Structure prediction by ZEFSAII (Michael W. Deem and Ramdas Pophale) SiO2 
 PCOD9410286
Probable space group: P N N A
;
_chemical_formula_sum "Si O2"
_cell_formula_units_Z 28
_cell_length_a 21.887315
_cell_length_b 7.079753
_cell_length_c 8.072308
_cell_angle_alpha 90.000000
_cell_angle_beta 90.000000
_cell_angle_gamma 90.000000
_cell_volume 1250.858887
_symmetry_space_group_name_H-M "P N N A"
_symmetry_group_IT_number 52
_symmetry_cell_setting 'orthorhombic'
loop_
_space_group_symop_operation_xyz
x,y,z
1/2-x,-y,z
x,1/2-y,1/2-z
1/2-x,1/2+y,1/2-z
-x,-y,-z
1/2+x,y,-z
-x,1/2+y,1/2+z
1/2+x,1/2-y,1/2+z
loop_
_atom_site_type_symbol
_atom_site_label
_atom_site_fract_x
_atom_site_fract_y
_atom_site_fract_z
Si Si1 0.621972 0.942219 0.089943
Si Si2 0.179175 0.956661 0.573521
Si Si3 0.596757 0.977796 0.733738
Si Si4 0.490122 0.250000 0.750000
O O1 0.642718 0.030667 0.264112
O O2 0.669574 0.770097 0.070136
O O3 0.556076 0.843262 0.118795
O O4 0.617157 0.047500 0.916626
O O5 0.146899 0.019405 0.404840
O O6 0.250000 0.000000 0.583504
O O7 0.589282 0.750000 0.750000
O O8 0.534220 0.083457 0.688838
#
# Coordination Sequence:
#
# PCOD9410286 Si02
#       4
#     8   8   8   4
#     4   9  21  39  61  84 126 156 194 265 290 348
#     4   9  19  38  57  83 118 160 205 241 300 359
#     4  10  21  39  61  89 121 159 191 254 303 348
#     4  10  20  40  62  96 120 152 212 232 306 380
#
# _framework density 22.384620000000002
#
# number of rings (size 3 to 8) (size 9 to 14) (size 15 to 20)
#    0.000    2.857    0.000    0.857    0.000   11.429 
#   18.000    0.000    6.286    0.000    0.000    0.000 
#    0.000    0.000    0.000    0.000    0.000    0.000 
#
# Total GULP energy -156264.871012 kJ/mol
# GULP energy per Si atom -5580.888250 kJ/mol
# Density = 2.233367 g / cm^3
# Si number density = 22.384620 Si / 1000 Ang^3
#
#
#
# Elastic Constant Matrix: (Units=GPa)
#
#
# Indices 1 2 3 4 5 6 
#
# 1 161.6389 31.8664 78.6678 0.0000 0.0000 0.0000
# 2 31.8664 83.8304 8.0849 0.0000 0.0000 0.0000
# 3 78.6678 8.0849 227.4479 0.0000 0.0000 0.0000
# 4 0.0000 0.0000 0.0000 -15.1522 0.0000 0.0000
# 5 0.0000 0.0000 0.0000 0.0000 -48.2535 0.0000
# 6 0.0000 0.0000 0.0000 0.0000 0.0000 11.6802
#
#
#
# Elastic Compliance Matrix: (Units=1/GPa)
#
#
# Indices 1 2 3 4 5 6 
#
# 1 0.008044 -0.002799 -0.002683 0.000000 0.000000 0.000000
# 2 -0.002799 0.012944 0.000508 0.000000 0.000000 0.000000
# 3 -0.002683 0.000508 0.005306 0.000000 0.000000 0.000000
# 4 0.000000 0.000000 0.000000 -0.065997 0.000000 0.000000
# 5 0.000000 0.000000 0.000000 0.000000 -0.020724 0.000000
# 6 0.000000 0.000000 0.000000 0.000000 0.000000 0.085615
#
#
# Mechanical properties :
#
#
# Convention : Reuss Voigt Hill
#
# Bulk Modulus (GPa) = 61.17394 78.90614 70.04004
# Shear Modulus (GPa) = 123.19761 13.27477 68.23619
#
# Velocity S-wave (km/s) = 7.42672 2.43786 5.52718
# Velocity P-wave (km/s) = 10.04637 6.57654 8.49060
#
# Compressibility (1/GPa) = 0.01634683
#
# Stress axis : x y z
#
# Youngs Moduli (GPa) = 124.31457 77.25670 188.45039
#
# Poissons Ratio (x) = 0.21625 0.50556
# Poissons Ratio (y) = 0.34797 -0.09574
# Poissons Ratio (z) = 0.33350 -0.03925
#
# Static dielectric constant tensor:
#      x y z
#    x 1.763700 0.000000 0.000000 
#    y 0.000000 1.881290 0.000000 
#    z 0.000000 0.000000 1.908450 
# 
# From -- ./inp_files/11354.got.cif
#   From: 2010.05.17/outbox.cif.g08.bks.cpg/sg52_6_cif.got.tgz:11354.got - 2010.06.03 12:15:38.
