data_PCOD9410493
_publ_section_title
;
Structure prediction by ZEFSAII (Michael W. Deem and Ramdas Pophale) SiO2 
 PCOD9410493
Probable space group: P N N A
;
_chemical_formula_sum "Si O2"
_cell_formula_units_Z 64
_cell_length_a 8.640043
_cell_length_b 23.000819
_cell_length_c 13.633996
_cell_angle_alpha 90.000000
_cell_angle_beta 90.000000
_cell_angle_gamma 90.000000
_cell_volume 2709.457646
_symmetry_space_group_name_H-M "P N N A"
_symmetry_group_IT_number 52
_symmetry_cell_setting 'orthorhombic'
loop_
_space_group_symop_operation_xyz
x,y,z
1/2-x,-y,z
x,1/2-y,1/2-z
1/2-x,1/2+y,1/2-z
-x,-y,-z
1/2+x,y,-z
-x,1/2+y,1/2+z
1/2+x,1/2-y,1/2+z
loop_
_atom_site_type_symbol
_atom_site_label
_atom_site_fract_x
_atom_site_fract_y
_atom_site_fract_z
Si Si1 0.127185 0.910887 0.375395
Si Si2 0.931817 0.561225 0.966112
Si Si3 0.357345 0.054412 0.714399
Si Si4 0.804133 0.205166 0.103364
Si Si5 0.226118 0.320960 0.811857
Si Si6 0.517624 0.860916 0.938298
Si Si7 0.574168 0.521312 0.668733
Si Si8 0.636450 0.811954 0.746605
O O1 0.252277 0.937841 0.447451
O O2 0.086545 0.948620 0.278498
O O3 0.207653 0.854275 0.331944
O O4 0.985560 0.896425 0.447409
O O5 0.009450 0.570573 0.861771
O O6 0.000000 0.500000 0.000000
O O7 0.246742 0.109780 0.701369
O O8 0.250000 0.000000 0.685259
O O9 0.449332 0.030714 0.811664
O O10 0.776580 0.276014 0.100786
O O11 0.831232 0.195417 0.217909
O O12 0.645579 0.169840 0.081994
O O13 0.925112 0.169582 0.037713
O O14 0.044769 0.307644 0.788213
O O15 0.517250 0.930357 0.911306
O O16 0.634668 0.838650 0.854007
O O17 0.750000 0.500000 0.646276
O O18 0.710641 0.750000 0.750000
#
# Coordination Sequence:
#
# PCOD9410493 Si02
#       8
#     8   8   8   8   8   8   8   8
#     4  11  23  39  63  94 139 183 228 283 353 424
#     4  12  23  39  59  95 137 176 224 279 335 430
#     4  12  23  38  64  99 136 181 229 283 365 431
#     4  10  21  47  69  98 128 179 239 287 355 414
#     4  10  22  43  71  93 137 177 227 298 354 421
#     4  10  22  41  75  95 133 184 230 297 346 428
#     4  11  22  44  66 100 146 189 228 289 373 442
#     4  10  20  44  67  92 130 184 226 284 363 416
#
# _framework density 23.620963
#
# number of rings (size 3 to 8) (size 9 to 14) (size 15 to 20)
#    0.000    1.250    5.000    3.375    1.750    2.000 
#    0.000    3.125    0.000    0.000    0.000    0.000 
#    0.000    0.000    0.000    0.000    0.000    0.000 
#
# Total GULP energy -356439.444474 kJ/mol
# GULP energy per Si atom -5569.366320 kJ/mol
# Density = 2.356720 g / cm^3
# Si number density = 23.620963 Si / 1000 Ang^3
#
#
#
# Elastic Constant Matrix: (Units=GPa)
#
#
# Indices 1 2 3 4 5 6 
#
# 1 72.0029 30.0844 16.6928 0.0000 0.0000 0.0000
# 2 30.0844 159.7943 21.9546 0.0000 0.0000 0.0000
# 3 16.6928 21.9546 60.5947 0.0000 0.0000 0.0000
# 4 0.0000 0.0000 0.0000 26.0277 0.0000 0.0000
# 5 0.0000 0.0000 0.0000 0.0000 4.3606 0.0000
# 6 0.0000 0.0000 0.0000 0.0000 0.0000 19.3908
#
#
#
# Elastic Compliance Matrix: (Units=1/GPa)
#
#
# Indices 1 2 3 4 5 6 
#
# 1 0.015723 -0.002489 -0.003430 0.000000 0.000000 0.000000
# 2 -0.002489 0.006980 -0.001843 0.000000 0.000000 0.000000
# 3 -0.003430 -0.001843 0.018116 0.000000 0.000000 0.000000
# 4 0.000000 0.000000 0.000000 0.038421 0.000000 0.000000
# 5 0.000000 0.000000 0.000000 0.000000 0.229326 0.000000
# 6 0.000000 0.000000 0.000000 0.000000 0.000000 0.051571
#
#
# Mechanical properties :
#
#
# Convention : Reuss Voigt Hill
#
# Bulk Modulus (GPa) = 39.53334 47.76169 43.64752
# Shear Modulus (GPa) = 13.01769 24.86651 18.94210
#
# Velocity S-wave (km/s) = 2.35012 3.24810 2.83489
# Velocity P-wave (km/s) = 4.91294 5.85925 5.40684
#
# Compressibility (1/GPa) = 0.02529510
#
# Stress axis : x y z
#
# Youngs Moduli (GPa) = 63.59940 143.26845 55.20053
#
# Poissons Ratio (x) = 0.35660 0.18932
# Poissons Ratio (y) = 0.15830 0.10175
# Poissons Ratio (z) = 0.21813 0.26408
#
# Static dielectric constant tensor:
#      x y z
#    x 1.856320 0.000000 0.000000 
#    y 0.000000 2.089990 0.000000 
#    z 0.000000 0.000000 2.018660 
# 
# From -- ./inp_files/25118.got.cif
#   From: 2010.05.17/outbox.cif.g08.bks.cpg/sg52_13_cif.got.tgz:25118.got - 2010.06.03 12:15:38.
