data_PCOD9410023
_publ_section_title
;
Structure prediction by ZEFSAII (Michael W. Deem and Ramdas Pophale) SiO2 
 PCOD9410023
Probable space group: P N N A
;
_chemical_formula_sum "Si O2"
_cell_formula_units_Z 52
_cell_length_a 9.856284
_cell_length_b 11.858081
_cell_length_c 25.011213
_cell_angle_alpha 90.000000
_cell_angle_beta 90.000000
_cell_angle_gamma 90.000000
_cell_volume 2923.225888
_symmetry_space_group_name_H-M "P N N A"
_symmetry_group_IT_number 52
_symmetry_cell_setting 'orthorhombic'
loop_
_space_group_symop_operation_xyz
x,y,z
1/2-x,-y,z
x,1/2-y,1/2-z
1/2-x,1/2+y,1/2-z
-x,-y,-z
1/2+x,y,-z
-x,1/2+y,1/2+z
1/2+x,1/2-y,1/2+z
loop_
_atom_site_type_symbol
_atom_site_label
_atom_site_fract_x
_atom_site_fract_y
_atom_site_fract_z
Si Si1 0.088949 0.883042 0.390102
Si Si2 0.791837 0.372132 0.463722
Si Si3 0.864390 0.304996 0.343975
Si Si4 0.611607 0.327281 0.199541
Si Si5 0.026729 0.267308 0.992658
Si Si6 0.750000 0.000000 0.233336
Si Si7 0.407425 0.649819 0.111409
O O1 0.029473 0.852480 0.448210
O O2 0.244198 0.841626 0.386325
O O3 0.001468 0.822334 0.345067
O O4 0.070585 0.016508 0.379375
O O5 0.750000 0.500000 0.474577
O O6 0.834715 0.357196 0.402110
O O7 0.916432 0.331464 0.499915
O O8 0.667327 0.287939 0.474564
O O9 0.751410 0.213417 0.327607
O O10 0.829697 0.406280 0.302235
O O11 0.006513 0.235838 0.350814
O O12 0.577926 0.250000 0.250000
O O13 0.639792 0.445672 0.227441
O O14 0.046139 0.323359 0.050666
#
# Coordination Sequence:
#
# PCOD9410023 Si02
#       7
#     8   8   8   8   8   4   8
#     4  11  21  40  58  84 124 154 196 247 294 353
#     4  11  21  36  58  87 119 159 192 237 291 355
#     4  10  20  38  60  87 121 150 201 248 296 358
#     4  10  21  37  61  86 110 154 201 250 302 344
#     4  11  21  38  57  87 123 154 194 235 291 363
#     4  10  20  38  64  88 114 152 206 260 300 350
#     4  10  23  37  59  89 119 160 192 238 301 360
#
# _framework density 17.788568000000001
#
# number of rings (size 3 to 8) (size 9 to 14) (size 15 to 20)
#    0.000    1.538    3.846    1.846    0.000    0.000 
#    0.000    5.385    0.000    0.000    0.000    0.000 
#    0.000    0.000    0.000    0.000    0.000    0.000 
#
# Total GULP energy -289843.643264 kJ/mol
# GULP energy per Si atom -5573.916217 kJ/mol
# Density = 1.774808 g / cm^3
# Si number density = 17.788568 Si / 1000 Ang^3
#
#
#
# Elastic Constant Matrix: (Units=GPa)
#
#
# Indices 1 2 3 4 5 6 
#
# 1 97.7419 29.6991 29.3889 0.0000 0.0000 0.0000
# 2 29.6991 46.9731 9.9714 0.0000 0.0000 0.0000
# 3 29.3889 9.9714 65.2190 0.0000 0.0000 0.0000
# 4 0.0000 0.0000 0.0000 5.0081 0.0000 0.0000
# 5 0.0000 0.0000 0.0000 0.0000 7.1516 0.0000
# 6 0.0000 0.0000 0.0000 0.0000 0.0000 25.3014
#
#
#
# Elastic Compliance Matrix: (Units=1/GPa)
#
#
# Indices 1 2 3 4 5 6 
#
# 1 0.014180 -0.007865 -0.005188 0.000000 0.000000 0.000000
# 2 -0.007865 0.026365 -0.000487 0.000000 0.000000 0.000000
# 3 -0.005188 -0.000487 0.017745 0.000000 0.000000 0.000000
# 4 0.000000 0.000000 0.000000 0.199678 0.000000 0.000000
# 5 0.000000 0.000000 0.000000 0.000000 0.139828 0.000000
# 6 0.000000 0.000000 0.000000 0.000000 0.000000 0.039523
#
#
# Mechanical properties :
#
#
# Convention : Reuss Voigt Hill
#
# Bulk Modulus (GPa) = 32.03909 38.67253 35.35581
# Shear Modulus (GPa) = 10.53070 16.88386 13.70728
#
# Velocity S-wave (km/s) = 2.43573 3.08416 2.77892
# Velocity P-wave (km/s) = 5.09515 5.87112 5.49684
#
# Compressibility (1/GPa) = 0.03121187
#
# Stress axis : x y z
#
# Youngs Moduli (GPa) = 70.51954 37.92973 56.35382
#
# Poissons Ratio (x) = 0.29830 0.29234
# Poissons Ratio (y) = 0.55460 0.02745
# Poissons Ratio (z) = 0.36582 0.01847
#
# Static dielectric constant tensor:
#      x y z
#    x 1.605660 0.000000 0.000000 
#    y 0.000000 1.572710 0.000000 
#    z 0.000000 0.000000 1.588750 
# 
# From -- ./inp_files/42297.got.cif
#   From: 2010.05.17/outbox.cif.g08.bks.cpg/sg52_22_cif.got.tgz:42297.got - 2010.06.03 12:15:38.
