data_PCOD9410938
_publ_section_title
;
Structure prediction by ZEFSAII (Michael W. Deem and Ramdas Pophale) SiO2 
 PCOD9410938
Probable space group: P N N A
;
_chemical_formula_sum "Si O2"
_cell_formula_units_Z 48
_cell_length_a 16.983662
_cell_length_b 13.610119
_cell_length_c 9.305833
_cell_angle_alpha 90.000000
_cell_angle_beta 90.000000
_cell_angle_gamma 90.000000
_cell_volume 2151.040142
_symmetry_space_group_name_H-M "P N N A"
_symmetry_group_IT_number 52
_symmetry_cell_setting 'orthorhombic'
loop_
_space_group_symop_operation_xyz
x,y,z
1/2-x,-y,z
x,1/2-y,1/2-z
1/2-x,1/2+y,1/2-z
-x,-y,-z
1/2+x,y,-z
-x,1/2+y,1/2+z
1/2+x,1/2-y,1/2+z
loop_
_atom_site_type_symbol
_atom_site_label
_atom_site_fract_x
_atom_site_fract_y
_atom_site_fract_z
Si Si1 0.854002 0.870978 0.966981
Si Si2 0.655409 0.987795 0.737443
Si Si3 0.906155 0.121363 0.469145
Si Si4 0.843292 0.517879 0.249188
Si Si5 0.437824 0.691851 0.891980
Si Si6 0.182767 0.697186 0.399832
O O1 0.761784 0.842482 0.971678
O O2 0.875833 0.914545 0.812196
O O3 0.863540 0.955180 0.087103
O O4 0.901035 0.775252 0.009266
O O5 0.629488 0.958723 0.579975
O O6 0.634105 0.895744 0.840635
O O7 0.750000 0.000000 0.738460
O O8 0.861838 0.224047 0.502514
O O9 0.994701 0.136840 0.520919
O O10 0.889465 0.075828 0.314034
O O11 0.750000 0.500000 0.232626
O O12 0.872875 0.614764 0.163766
O O13 0.469536 0.750000 0.750000
O O14 0.206727 0.750000 0.250000
#
# Coordination Sequence:
#
# PCOD9410938 Si02
#       6
#     8   8   8   8   8   8
#     4  10  21  39  61  87 121 156 194 245 302 353
#     4   9  18  35  61  90 115 149 199 251 293 342
#     4  11  21  38  62  88 117 155 202 245 294 357
#     4  11  22  38  61  89 122 159 195 242 300 361
#     4  10  22  39  58  83 120 163 199 243 300 356
#     4   9  18  35  63  91 115 150 200 250 289 345
#
# _framework density 22.314785000000001
#
# number of rings (size 3 to 8) (size 9 to 14) (size 15 to 20)
#    0.000    2.000    0.000    5.000    0.000    2.667 
#    0.000   11.667    0.000    8.000    0.000    0.000 
#    0.000    0.000    0.000    0.000    0.000    0.000 
#
# Total GULP energy -268349.609772 kJ/mol
# GULP energy per Si atom -5590.616870 kJ/mol
# Density = 2.226400 g / cm^3
# Si number density = 22.314785 Si / 1000 Ang^3
#
#
#
# Elastic Constant Matrix: (Units=GPa)
#
#
# Indices 1 2 3 4 5 6 
#
# 1 49.1260 12.6292 9.7262 0.0000 0.0000 0.0000
# 2 12.6292 61.5001 26.1225 0.0000 0.0000 0.0000
# 3 9.7262 26.1225 32.4721 0.0000 0.0000 0.0000
# 4 0.0000 0.0000 0.0000 42.4347 0.0000 0.0000
# 5 0.0000 0.0000 0.0000 0.0000 -180.4317 0.0000
# 6 0.0000 0.0000 0.0000 0.0000 0.0000 12.1859
#
#
#
# Elastic Compliance Matrix: (Units=1/GPa)
#
#
# Indices 1 2 3 4 5 6 
#
# 1 0.021909 -0.002600 -0.004471 0.000000 0.000000 0.000000
# 2 -0.002600 0.025009 -0.019340 0.000000 0.000000 0.000000
# 3 -0.004471 -0.019340 0.047693 0.000000 0.000000 0.000000
# 4 0.000000 0.000000 0.000000 0.023566 0.000000 0.000000
# 5 0.000000 0.000000 0.000000 0.000000 -0.005542 0.000000
# 6 0.000000 0.000000 0.000000 0.000000 0.000000 0.082062
#
#
# Mechanical properties :
#
#
# Convention : Reuss Voigt Hill
#
# Bulk Modulus (GPa) = 23.92932 26.67270 25.30101
# Shear Modulus (GPa) = 19.12430 -18.85419 0.13506
#
# Velocity S-wave (km/s) = 2.93067 -2.90990 0.24628
# Velocity P-wave (km/s) = 4.71154 0.82996 3.38286
#
# Compressibility (1/GPa) = 0.04178974
#
# Stress axis : x y z
#
# Youngs Moduli (GPa) = 45.64253 39.98599 20.96752
#
# Poissons Ratio (x) = 0.10397 0.09374
# Poissons Ratio (y) = 0.11868 0.40551
# Poissons Ratio (z) = 0.20405 0.77332
#
# Static dielectric constant tensor:
#      x y z
#    x 1.801500 0.000000 0.000000 
#    y 0.000000 1.840040 0.000000 
#    z 0.000000 0.000000 1.855170 
# 
# From -- ./inp_files/12100.got.cif
#   From: 2010.05.17/outbox.cif.g08.bks.cpg/sg52_7_cif.got.tgz:12100.got - 2010.06.03 12:15:38.
