data_PCOD9410185
_publ_section_title
;
Structure prediction by ZEFSAII (Michael W. Deem and Ramdas Pophale) SiO2 
 PCOD9410185
Probable space group: P N N A
;
_chemical_formula_sum "Si O2"
_cell_formula_units_Z 40
_cell_length_a 8.941064
_cell_length_b 26.079434
_cell_length_c 8.091179
_cell_angle_alpha 90.000000
_cell_angle_beta 90.000000
_cell_angle_gamma 90.000000
_cell_volume 1886.684035
_symmetry_space_group_name_H-M "P N N A"
_symmetry_group_IT_number 52
_symmetry_cell_setting 'orthorhombic'
loop_
_space_group_symop_operation_xyz
x,y,z
1/2-x,-y,z
x,1/2-y,1/2-z
1/2-x,1/2+y,1/2-z
-x,-y,-z
1/2+x,y,-z
-x,1/2+y,1/2+z
1/2+x,1/2-y,1/2+z
loop_
_atom_site_type_symbol
_atom_site_label
_atom_site_fract_x
_atom_site_fract_y
_atom_site_fract_z
Si Si1 0.880759 0.596367 0.136619
Si Si2 0.988746 0.306065 0.693189
Si Si3 0.669554 0.157502 0.872984
Si Si4 0.043977 0.904309 0.669129
Si Si5 0.238031 0.944100 0.944958
O O1 0.966750 0.648320 0.181843
O O2 0.707818 0.610293 0.102779
O O3 0.865727 0.562187 0.301982
O O4 0.955135 0.569669 0.979785
O O5 0.036594 0.250000 0.750000
O O6 0.073393 0.320257 0.523599
O O7 0.810515 0.307919 0.669608
O O8 0.556571 0.143316 0.726660
O O9 0.741651 0.103286 0.933230
O O10 0.087125 0.935472 0.835686
O O11 0.250000 0.000000 0.020047
#
# Coordination Sequence:
#
# PCOD9410185 Si02
#       5
#     8   8   8   8   8
#     4   9  21  39  58  90 123 160 201 258 305 362
#     4  11  23  41  63  89 121 161 209 251 317 368
#     4  11  21  43  61  91 127 159 208 263 298 378
#     4  10  20  39  62  85 130 160 201 256 308 356
#     4   9  21  38  61  92 122 166 210 248 314 366
#
# _framework density 21.201218000000001
#
# number of rings (size 3 to 8) (size 9 to 14) (size 15 to 20)
#    1.200    0.800    2.000    1.200    0.000    4.800 
#    0.000    3.000    0.000    0.000    0.000    0.000 
#    0.000    0.000    0.000    0.000    0.000    0.000 
#
# Total GULP energy -223031.564861 kJ/mol
# GULP energy per Si atom -5575.789122 kJ/mol
# Density = 2.115296 g / cm^3
# Si number density = 21.201218 Si / 1000 Ang^3
#
#
#
# Elastic Constant Matrix: (Units=GPa)
#
#
# Indices 1 2 3 4 5 6 
#
# 1 97.2654 9.1153 20.0054 0.0000 0.0000 0.0000
# 2 9.1153 66.6485 -5.7174 0.0000 0.0000 0.0000
# 3 20.0054 -5.7174 44.8471 0.0000 0.0000 0.0000
# 4 0.0000 0.0000 0.0000 5.8615 0.0000 0.0000
# 5 0.0000 0.0000 0.0000 0.0000 30.1257 0.0000
# 6 0.0000 0.0000 0.0000 0.0000 0.0000 14.6603
#
#
#
# Elastic Compliance Matrix: (Units=1/GPa)
#
#
# Indices 1 2 3 4 5 6 
#
# 1 0.011591 -0.002051 -0.005432 0.000000 0.000000 0.000000
# 2 -0.002051 0.015533 0.002895 0.000000 0.000000 0.000000
# 3 -0.005432 0.002895 0.025090 0.000000 0.000000 0.000000
# 4 0.000000 0.000000 0.000000 0.170605 0.000000 0.000000
# 5 0.000000 0.000000 0.000000 0.000000 0.033194 0.000000
# 6 0.000000 0.000000 0.000000 0.000000 0.000000 0.068212
#
#
# Mechanical properties :
#
#
# Convention : Reuss Voigt Hill
#
# Bulk Modulus (GPa) = 23.23519 28.39640 25.81579
# Shear Modulus (GPa) = 14.37831 22.48668 18.43249
#
# Velocity S-wave (km/s) = 2.60702 3.26027 2.95177
# Velocity P-wave (km/s) = 4.47719 5.25312 4.88060
#
# Compressibility (1/GPa) = 0.04303818
#
# Stress axis : x y z
#
# Youngs Moduli (GPa) = 86.27694 64.37913 39.85628
#
# Poissons Ratio (x) = 0.13205 0.21649
# Poissons Ratio (y) = 0.17697 -0.11539
# Poissons Ratio (z) = 0.46864 -0.18639
#
# Static dielectric constant tensor:
#      x y z
#    x 1.799000 0.000000 0.000000 
#    y 0.000000 1.727240 0.000000 
#    z 0.000000 0.000000 1.806610 
# 
# From -- ./inp_files/7449.got.cif
#   From: 2010.05.17/outbox.cif.g08.bks.cpg/sg52_4_cif.got.tgz:7449.got - 2010.06.03 12:15:38.
