data_PCOD9410521
_publ_section_title
;
Structure prediction by ZEFSAII (Michael W. Deem and Ramdas Pophale) SiO2 
 PCOD9410521
Probable space group: P N N A
;
_chemical_formula_sum "Si O2"
_cell_formula_units_Z 64
_cell_length_a 13.916118
_cell_length_b 8.666350
_cell_length_c 31.059227
_cell_angle_alpha 90.000000
_cell_angle_beta 90.000000
_cell_angle_gamma 90.000000
_cell_volume 3745.803318
_symmetry_space_group_name_H-M "P N N A"
_symmetry_group_IT_number 52
_symmetry_cell_setting 'orthorhombic'
loop_
_space_group_symop_operation_xyz
x,y,z
1/2-x,-y,z
x,1/2-y,1/2-z
1/2-x,1/2+y,1/2-z
-x,-y,-z
1/2+x,y,-z
-x,1/2+y,1/2+z
1/2+x,1/2-y,1/2+z
loop_
_atom_site_type_symbol
_atom_site_label
_atom_site_fract_x
_atom_site_fract_y
_atom_site_fract_z
Si Si1 0.652355 0.443601 0.099851
Si Si2 0.057933 0.668205 0.443679
Si Si3 0.312375 0.656003 0.126733
Si Si4 0.829177 0.630036 0.451461
Si Si5 0.455022 0.142194 0.526777
Si Si6 0.298942 0.166864 0.294997
Si Si7 0.955819 0.404486 0.863919
Si Si8 0.140572 0.158372 0.049167
O O1 0.750000 0.500000 0.120361
O O2 0.680491 0.287377 0.074890
O O3 0.610383 0.563909 0.063691
O O4 0.570059 0.411373 0.134545
O O5 0.086911 0.749365 0.488844
O O6 0.065569 0.792945 0.405147
O O7 0.119244 0.515747 0.437473
O O8 0.946077 0.606194 0.447356
O O9 0.250000 0.500000 0.122230
O O10 0.275595 0.737841 0.170005
O O11 0.417036 0.579209 0.129836
O O12 0.298923 0.758106 0.085379
O O13 0.750000 0.500000 0.438648
O O14 0.814893 0.660748 0.501970
O O15 0.541120 0.244697 0.545945
O O16 0.500000 0.000000 0.500000
O O17 0.309775 0.250000 0.250000
O O18 0.398488 0.152670 0.321829
O O19 0.250000 0.000000 0.286682
#
# Coordination Sequence:
#
# PCOD9410521 Si02
#       8
#     8   8   8   8   8   8   8   8
#     4  11  22  32  54  75  98 151 197 234 274 313
#     4  10  21  32  50  68 102 149 186 234 278 318
#     4   9  19  34  54  78 104 140 178 217 265 339
#     4  10  22  32  40  69 104 137 189 234 277 305
#     4  11  17  35  50  67 102 150 197 237 268 322
#     4   9  20  37  61  87 114 136 164 218 277 350
#     4   9  18  38  53  75 108 140 182 218 273 340
#     4  11  20  32  49  70 103 146 184 237 276 317
#
# _framework density 17.085788999999998
#
# number of rings (size 3 to 8) (size 9 to 14) (size 15 to 20)
#    0.000    2.250    5.000    1.500    3.500    3.500 
#    0.000    0.000    0.000    0.000    0.000    7.000 
#    0.000    0.000    0.000    0.000    0.000    0.000 
#
# Total GULP energy -356476.009336 kJ/mol
# GULP energy per Si atom -5569.937646 kJ/mol
# Density = 1.704690 g / cm^3
# Si number density = 17.085789 Si / 1000 Ang^3
#
#
#
# Elastic Constant Matrix: (Units=GPa)
#
#
# Indices 1 2 3 4 5 6 
#
# 1 95.7718 37.4395 48.0107 0.0000 0.0000 0.0000
# 2 37.4395 64.2830 32.8678 0.0000 0.0000 0.0000
# 3 48.0107 32.8678 106.1277 0.0000 0.0000 0.0000
# 4 0.0000 0.0000 0.0000 28.3790 0.0000 0.0000
# 5 0.0000 0.0000 0.0000 0.0000 19.7113 0.0000
# 6 0.0000 0.0000 0.0000 0.0000 0.0000 29.0779
#
#
#
# Elastic Compliance Matrix: (Units=1/GPa)
#
#
# Indices 1 2 3 4 5 6 
#
# 1 0.015471 -0.006454 -0.005000 0.000000 0.000000 0.000000
# 2 -0.006454 0.021175 -0.003638 0.000000 0.000000 0.000000
# 3 -0.005000 -0.003638 0.012811 0.000000 0.000000 0.000000
# 4 0.000000 0.000000 0.000000 0.035237 0.000000 0.000000
# 5 0.000000 0.000000 0.000000 0.000000 0.050732 0.000000
# 6 0.000000 0.000000 0.000000 0.000000 0.000000 0.034390
#
#
# Mechanical properties :
#
#
# Convention : Reuss Voigt Hill
#
# Bulk Modulus (GPa) = 51.88617 55.86873 53.87745
# Shear Modulus (GPa) = 24.22160 25.29127 24.75643
#
# Velocity S-wave (km/s) = 3.76925 3.85158 3.81064
# Velocity P-wave (km/s) = 7.02687 7.24910 7.13885
#
# Compressibility (1/GPa) = 0.01927296
#
# Stress axis : x y z
#
# Youngs Moduli (GPa) = 64.63663 47.22443 78.05573
#
# Poissons Ratio (x) = 0.30479 0.39028
# Poissons Ratio (y) = 0.41717 0.28399
# Poissons Ratio (z) = 0.32319 0.17182
#
# Static dielectric constant tensor:
#      x y z
#    x 1.686410 0.000000 0.000000 
#    y 0.000000 1.629480 0.000000 
#    z 0.000000 0.000000 1.559260 
# 
# From -- ./inp_files/45072.got.cif
#   From: 2010.05.17/outbox.cif.g08.bks.cpg/sg52_23_cif.got.tgz:45072.got - 2010.06.03 12:15:38.
