data_PCOD9410212
_publ_section_title
;
Structure prediction by ZEFSAII (Michael W. Deem and Ramdas Pophale) SiO2 
 PCOD9410212
Probable space group: P N N A
;
_chemical_formula_sum "Si O2"
_cell_formula_units_Z 28
_cell_length_a 17.933226
_cell_length_b 11.379527
_cell_length_c 6.505414
_cell_angle_alpha 90.000000
_cell_angle_beta 90.000000
_cell_angle_gamma 90.000000
_cell_volume 1327.570435
_symmetry_space_group_name_H-M "P N N A"
_symmetry_group_IT_number 52
_symmetry_cell_setting 'orthorhombic'
loop_
_space_group_symop_operation_xyz
x,y,z
1/2-x,-y,z
x,1/2-y,1/2-z
1/2-x,1/2+y,1/2-z
-x,-y,-z
1/2+x,y,-z
-x,1/2+y,1/2+z
1/2+x,1/2-y,1/2+z
loop_
_atom_site_type_symbol
_atom_site_label
_atom_site_fract_x
_atom_site_fract_y
_atom_site_fract_z
Si Si1 0.453468 0.553671 0.811045
Si Si2 0.791826 0.250000 0.750000
Si Si3 0.406683 0.089378 0.066927
Si Si4 0.646468 0.130170 0.651936
O O1 0.421206 0.454004 0.661992
O O2 0.513504 0.620651 0.669048
O O3 0.500000 0.500000 0.000000
O O4 0.386238 0.618465 0.924313
O O5 0.846510 0.191243 0.913755
O O6 0.735066 0.153756 0.657959
O O7 0.375958 0.979212 0.203501
O O8 0.613757 0.250000 0.750000
#
# Coordination Sequence:
#
# PCOD9410212 Si02
#       4
#     8   4   8   8
#     4   9  20  39  63  93 125 170 217 261 320 384
#     4  10  22  40  64  94 132 166 214 272 326 386
#     4  10  20  39  64  92 127 168 217 267 317 387
#     4   9  21  39  62  88 131 166 211 268 318 387
#
# _framework density 21.091159000000001
#
# number of rings (size 3 to 8) (size 9 to 14) (size 15 to 20)
#    0.857    1.714    0.000    0.857    0.000    8.000 
#    0.000   21.429    0.000    0.000    0.000    0.000 
#    0.000    0.000    0.000    0.000    0.000    0.000 
#
# Total GULP energy -156127.441211 kJ/mol
# GULP energy per Si atom -5575.980043 kJ/mol
# Density = 2.104316 g / cm^3
# Si number density = 21.091159 Si / 1000 Ang^3
#
#
#
# Elastic Constant Matrix: (Units=GPa)
#
#
# Indices 1 2 3 4 5 6 
#
# 1 123.7549 15.2849 63.4709 0.0000 0.0000 0.0000
# 2 15.2849 44.3006 29.7058 0.0000 0.0000 0.0000
# 3 63.4709 29.7058 142.6252 0.0000 0.0000 0.0000
# 4 0.0000 0.0000 0.0000 25.2886 0.0000 0.0000
# 5 0.0000 0.0000 0.0000 0.0000 -17.9642 0.0000
# 6 0.0000 0.0000 0.0000 0.0000 0.0000 -8.9955
#
#
#
# Elastic Compliance Matrix: (Units=1/GPa)
#
#
# Indices 1 2 3 4 5 6 
#
# 1 0.010482 -0.000568 -0.004547 0.000000 0.000000 0.000000
# 2 -0.000568 0.026268 -0.005218 0.000000 0.000000 0.000000
# 3 -0.004547 -0.005218 0.010122 0.000000 0.000000 0.000000
# 4 0.000000 0.000000 0.000000 0.039544 0.000000 0.000000
# 5 0.000000 0.000000 0.000000 0.000000 -0.055666 0.000000
# 6 0.000000 0.000000 0.000000 0.000000 0.000000 -0.111167
#
#
# Mechanical properties :
#
#
# Convention : Reuss Voigt Hill
#
# Bulk Modulus (GPa) = 38.15865 58.62267 48.39066
# Shear Modulus (GPa) = -98.00816 13.14705 -42.43056
#
# Velocity S-wave (km/s) = -6.82420 2.49939 -4.49014
# Velocity P-wave (km/s) = 6.63034 6.01536 1.97191
#
# Compressibility (1/GPa) = 0.02620638
#
# Stress axis : x y z
#
# Youngs Moduli (GPa) = 95.39721 38.06881 98.79879
#
# Poissons Ratio (x) = 0.02162 0.44920
# Poissons Ratio (y) = 0.05419 0.51557
# Poissons Ratio (z) = 0.43373 0.19866
#
# Static dielectric constant tensor:
#      x y z
#    x 1.789790 0.000000 0.000000 
#    y 0.000000 1.814780 0.000000 
#    z 0.000000 0.000000 1.713220 
# 
# From -- ./inp_files/3814.got.cif
#   From: 2010.05.17/outbox.cif.g08.bks.cpg/sg52_2_cif.got.tgz:3814.got - 2010.06.03 12:15:38.
