data_PCOD9410506
_publ_section_title
;
Structure prediction by ZEFSAII (Michael W. Deem and Ramdas Pophale) SiO2 
 PCOD9410506
Probable space group: P N N A
;
_chemical_formula_sum "Si O2"
_cell_formula_units_Z 48
_cell_length_a 24.986563
_cell_length_b 5.618505
_cell_length_c 13.672807
_cell_angle_alpha 90.000000
_cell_angle_beta 90.000000
_cell_angle_gamma 90.000000
_cell_volume 1919.486122
_symmetry_space_group_name_H-M "P N N A"
_symmetry_group_IT_number 52
_symmetry_cell_setting 'orthorhombic'
loop_
_space_group_symop_operation_xyz
x,y,z
1/2-x,-y,z
x,1/2-y,1/2-z
1/2-x,1/2+y,1/2-z
-x,-y,-z
1/2+x,y,-z
-x,1/2+y,1/2+z
1/2+x,1/2-y,1/2+z
loop_
_atom_site_type_symbol
_atom_site_label
_atom_site_fract_x
_atom_site_fract_y
_atom_site_fract_z
Si Si1 0.750000 0.500000 0.403115
Si Si2 0.619780 0.750000 0.250000
Si Si3 0.280812 0.250000 0.250000
Si Si4 0.449002 0.881779 0.644330
Si Si5 0.134095 0.020289 0.933874
Si Si6 0.250000 0.000000 0.576128
Si Si7 0.846593 0.133823 0.566926
Si Si8 0.561906 0.003437 0.689175
O O1 0.803888 0.538602 0.467598
O O2 0.748450 0.763427 0.359517
O O3 0.583581 0.615405 0.171980
O O4 0.646573 0.943733 0.179931
O O5 0.250000 0.500000 0.239859
O O6 0.315646 0.267155 0.347250
O O7 0.453179 0.750000 0.750000
O O8 0.410875 0.721090 0.576475
O O9 0.509759 0.950927 0.622177
O O10 0.115851 0.814964 0.007314
O O11 0.302747 0.027195 0.507905
O O12 0.885288 0.954777 0.624393
O O13 0.569540 0.750000 0.750000
O O14 0.552171 0.250000 0.750000
#
# Coordination Sequence:
#
# PCOD9410506 Si02
#       8
#     4   4   4   8   8   4   8   8
#     4  10  24  44  66 100 134 178 218 294 342 426
#     4  10  20  46  65  98 131 188 228 284 372 436
#     4  12  28  46  73 102 145 198 238 288 374 438
#     4   9  20  42  70  93 139 188 229 292 370 429
#     4  10  24  42  71  98 140 180 239 292 366 432
#     4  10  24  42  66  94 144 178 220 284 366 404
#     4  11  25  44  70 106 139 185 248 300 354 441
#     4  11  24  43  69 103 143 185 240 302 357 428
#
# _framework density 25.006692999999999
#
# number of rings (size 3 to 8) (size 9 to 14) (size 15 to 20)
#    0.000    1.667    2.500    0.000   10.500    3.333 
#    4.500    0.833    0.000    0.000    0.000    0.000 
#    0.000    0.000    0.000    0.000    0.000    0.000 
#
# Total GULP energy -267413.546289 kJ/mol
# GULP energy per Si atom -5571.115548 kJ/mol
# Density = 2.494978 g / cm^3
# Si number density = 25.006693 Si / 1000 Ang^3
#
#
#
# Elastic Constant Matrix: (Units=GPa)
#
#
# Indices 1 2 3 4 5 6 
#
# 1 150.9834 41.3504 41.1986 0.0000 0.0000 0.0000
# 2 41.3504 178.9749 44.4081 0.0000 0.0000 0.0000
# 3 41.1986 44.4081 108.4035 0.0000 0.0000 0.0000
# 4 0.0000 0.0000 0.0000 0.2532 0.0000 0.0000
# 5 0.0000 0.0000 0.0000 0.0000 25.2095 0.0000
# 6 0.0000 0.0000 0.0000 0.0000 0.0000 20.2366
#
#
#
# Elastic Compliance Matrix: (Units=1/GPa)
#
#
# Indices 1 2 3 4 5 6 
#
# 1 0.007599 -0.001157 -0.002414 0.000000 0.000000 0.000000
# 2 -0.001157 0.006396 -0.002180 0.000000 0.000000 0.000000
# 3 -0.002414 -0.002180 0.011035 0.000000 0.000000 0.000000
# 4 0.000000 0.000000 0.000000 3.949891 0.000000 0.000000
# 5 0.000000 0.000000 0.000000 0.000000 0.039668 0.000000
# 6 0.000000 0.000000 0.000000 0.000000 0.000000 0.049415
#
#
# Mechanical properties :
#
#
# Convention : Reuss Voigt Hill
#
# Bulk Modulus (GPa) = 73.92299 76.91956 75.42127
# Shear Modulus (GPa) = 1.22549 29.90016 15.56282
#
# Velocity S-wave (km/s) = 0.70080 3.46162 2.49739
# Velocity P-wave (km/s) = 5.50275 6.84131 6.20821
#
# Compressibility (1/GPa) = 0.01352759
#
# Stress axis : x y z
#
# Youngs Moduli (GPa) = 131.60085 156.35706 90.61679
#
# Poissons Ratio (x) = 0.18085 0.21876
# Poissons Ratio (y) = 0.15221 0.19758
# Poissons Ratio (z) = 0.31769 0.34093
#
# Static dielectric constant tensor:
#      x y z
#    x 2.037190 0.000000 0.000000 
#    y 0.000000 2.341720 0.000000 
#    z 0.000000 0.000000 2.037530 
# 
# From -- ./inp_files/29494.got.cif
#   From: 2010.05.17/outbox.cif.g08.bks.cpg/sg52_15_cif.got.tgz:29494.got - 2010.06.03 12:15:38.
