data_PCOD9410690
_publ_section_title
;
Structure prediction by ZEFSAII (Michael W. Deem and Ramdas Pophale) SiO2 
 PCOD9410690
Probable space group: P N N A
;
_chemical_formula_sum "Si O2"
_cell_formula_units_Z 40
_cell_length_a 17.733904
_cell_length_b 8.993135
_cell_length_c 13.232554
_cell_angle_alpha 90.000000
_cell_angle_beta 90.000000
_cell_angle_gamma 90.000000
_cell_volume 2110.372607
_symmetry_space_group_name_H-M "P N N A"
_symmetry_group_IT_number 52
_symmetry_cell_setting 'orthorhombic'
loop_
_space_group_symop_operation_xyz
x,y,z
1/2-x,-y,z
x,1/2-y,1/2-z
1/2-x,1/2+y,1/2-z
-x,-y,-z
1/2+x,y,-z
-x,1/2+y,1/2+z
1/2+x,1/2-y,1/2+z
loop_
_atom_site_type_symbol
_atom_site_label
_atom_site_fract_x
_atom_site_fract_y
_atom_site_fract_z
Si Si1 0.609943 0.328136 0.856225
Si Si2 0.090362 0.823319 0.356669
Si Si3 0.957077 0.857307 0.043247
Si Si4 0.740991 0.668989 0.976687
Si Si5 0.803957 0.863648 0.157589
O O1 0.596153 0.250000 0.750000
O O2 0.583161 0.498583 0.849416
O O3 0.698717 0.324105 0.885106
O O4 0.571493 0.240913 0.948644
O O5 0.111655 0.750000 0.250000
O O6 0.158097 0.798926 0.435704
O O7 0.014779 0.743993 0.393868
O O8 0.886243 0.904203 0.113013
O O9 0.000000 0.000000 0.000000
O O10 0.750000 0.500000 0.015655
O O11 0.763467 0.780649 0.064395
O O12 0.813040 0.750000 0.250000
O O13 0.750000 0.000000 0.187175
#
# Coordination Sequence:
#
# PCOD9410690 Si02
#       5
#     8   8   8   8   8
#     4  10  21  37  58  85 116 152 190 234 288 352
#     4  11  21  37  60  87 117 151 191 240 296 351
#     4  11  23  40  60  86 119 153 196 248 302 358
#     4   9  20  38  60  85 115 150 193 240 288 347
#     4  11  23  40  61  85 116 156 201 246 297 358
#
# _framework density 18.954000000000001
#
# number of rings (size 3 to 8) (size 9 to 14) (size 15 to 20)
#    0.000    1.600    0.000    4.800    0.000    1.600 
#    0.000   11.000    0.000    0.000    0.000    0.000 
#    0.000    0.000    0.000    0.000    0.000    0.000 
#
# Total GULP energy -223491.806546 kJ/mol
# GULP energy per Si atom -5587.295164 kJ/mol
# Density = 1.891086 g / cm^3
# Si number density = 18.954000 Si / 1000 Ang^3
#
#
#
# Elastic Constant Matrix: (Units=GPa)
#
#
# Indices 1 2 3 4 5 6 
#
# 1 116.2412 56.0993 28.4693 0.0000 0.0000 0.0000
# 2 56.0993 108.5683 42.1459 0.0000 0.0000 0.0000
# 3 28.4693 42.1459 71.1871 0.0000 0.0000 0.0000
# 4 0.0000 0.0000 0.0000 26.7261 0.0000 0.0000
# 5 0.0000 0.0000 0.0000 0.0000 2.0250 0.0000
# 6 0.0000 0.0000 0.0000 0.0000 0.0000 31.4781
#
#
#
# Elastic Compliance Matrix: (Units=1/GPa)
#
#
# Indices 1 2 3 4 5 6 
#
# 1 0.011569 -0.005430 -0.001412 0.000000 0.000000 0.000000
# 2 -0.005430 0.014508 -0.006418 0.000000 0.000000 0.000000
# 3 -0.001412 -0.006418 0.018412 0.000000 0.000000 0.000000
# 4 0.000000 0.000000 0.000000 0.037417 0.000000 0.000000
# 5 0.000000 0.000000 0.000000 0.000000 0.493825 0.000000
# 6 0.000000 0.000000 0.000000 0.000000 0.000000 0.031768
#
#
# Mechanical properties :
#
#
# Convention : Reuss Voigt Hill
#
# Bulk Modulus (GPa) = 55.64996 61.04729 58.34862
# Shear Modulus (GPa) = 7.81241 23.33132 15.57186
#
# Velocity S-wave (km/s) = 2.03242 3.51229 2.86940
# Velocity P-wave (km/s) = 5.91032 6.98042 6.46754
#
# Compressibility (1/GPa) = 0.01796947
#
# Stress axis : x y z
#
# Youngs Moduli (GPa) = 86.43695 68.92818 54.31291
#
# Poissons Ratio (x) = 0.37427 0.07669
# Poissons Ratio (y) = 0.46934 0.34857
# Poissons Ratio (z) = 0.12205 0.44237
#
# Static dielectric constant tensor:
#      x y z
#    x 1.652660 0.000000 0.000000 
#    y 0.000000 1.659130 0.000000 
#    z 0.000000 0.000000 1.617210 
# 
# From -- ./inp_files/20281.got.cif
#   From: 2010.05.17/outbox.cif.g08.bks.cpg/sg52_11_cif.got.tgz:20281.got - 2010.06.03 12:15:38.
