data_PCOD9410025
_publ_section_title
;
Structure prediction by ZEFSAII (Michael W. Deem and Ramdas Pophale) SiO2 
 PCOD9410025
Probable space group: P N N A
;
_chemical_formula_sum "Si O2"
_cell_formula_units_Z 32
_cell_length_a 31.573982
_cell_length_b 5.660663
_cell_length_c 7.311579
_cell_angle_alpha 90.000000
_cell_angle_beta 90.000000
_cell_angle_gamma 90.000000
_cell_volume 1306.796114
_symmetry_space_group_name_H-M "P N N A"
_symmetry_group_IT_number 52
_symmetry_cell_setting 'orthorhombic'
loop_
_space_group_symop_operation_xyz
x,y,z
1/2-x,-y,z
x,1/2-y,1/2-z
1/2-x,1/2+y,1/2-z
-x,-y,-z
1/2+x,y,-z
-x,1/2+y,1/2+z
1/2+x,1/2-y,1/2+z
loop_
_atom_site_type_symbol
_atom_site_label
_atom_site_fract_x
_atom_site_fract_y
_atom_site_fract_z
Si Si1 0.735080 0.252315 0.041774
Si Si2 0.989407 0.250000 0.250000
Si Si3 0.399310 0.250000 0.250000
Si Si4 0.942767 0.883971 0.020869
Si Si5 0.858604 0.861538 0.547559
O O1 0.750000 0.500000 0.954320
O O2 0.752402 0.250000 0.250000
O O3 0.750000 0.000000 0.962547
O O4 0.684622 0.284782 0.044722
O O5 0.960457 0.471656 0.307164
O O6 0.020305 0.267749 0.074577
O O7 0.429123 0.429303 0.360884
O O8 0.369109 0.367763 0.096235
O O9 0.900045 0.740175 0.047961
O O10 0.856360 0.750000 0.750000
#
# Coordination Sequence:
#
# PCOD9410025 Si02
#       5
#     8   4   4   8   8
#     4  10  24  44  67  97 131 169 217 276 337 415
#     4  10  20  40  58  85 130 166 221 280 330 398
#     4  10  20  38  60  89 120 168 213 268 328 406
#     4  10  21  39  58  89 125 168 219 277 331 406
#     4  10  22  40  62  91 128 165 215 269 340 401
#
# _framework density 24.487371
#
# number of rings (size 3 to 8) (size 9 to 14) (size 15 to 20)
#    0.000    2.000    3.750    0.000    7.000    4.000 
#    2.250    0.000    0.000    0.000    0.000    0.000 
#    0.000    0.000    0.000    0.000    0.000    0.000 
#
# Total GULP energy -178794.659468 kJ/mol
# GULP energy per Si atom -5587.333108 kJ/mol
# Density = 2.443164 g / cm^3
# Si number density = 24.487371 Si / 1000 Ang^3
#
#
#
# Elastic Constant Matrix: (Units=GPa)
#
#
# Indices 1 2 3 4 5 6 
#
# 1 171.0928 81.2056 17.4366 0.0000 0.0000 0.0000
# 2 81.2056 166.7287 37.6083 0.0000 0.0000 0.0000
# 3 17.4366 37.6083 106.2407 0.0000 0.0000 0.0000
# 4 0.0000 0.0000 0.0000 29.2008 0.0000 0.0000
# 5 0.0000 0.0000 0.0000 0.0000 29.9870 0.0000
# 6 0.0000 0.0000 0.0000 0.0000 0.0000 33.8260
#
#
#
# Elastic Compliance Matrix: (Units=1/GPa)
#
#
# Indices 1 2 3 4 5 6 
#
# 1 0.007603 -0.003718 0.000068 0.000000 0.000000 0.000000
# 2 -0.003718 0.008337 -0.002341 0.000000 0.000000 0.000000
# 3 0.000068 -0.002341 0.010230 0.000000 0.000000 0.000000
# 4 0.000000 0.000000 0.000000 0.034246 0.000000 0.000000
# 5 0.000000 0.000000 0.000000 0.000000 0.033348 0.000000
# 6 0.000000 0.000000 0.000000 0.000000 0.000000 0.029563
#
#
# Mechanical properties :
#
#
# Convention : Reuss Voigt Hill
#
# Bulk Modulus (GPa) = 70.48222 79.61813 75.05018
# Shear Modulus (GPa) = 35.70491 39.12353 37.41422
#
# Velocity S-wave (km/s) = 3.82264 4.00146 3.91308
# Velocity P-wave (km/s) = 6.95191 7.34394 7.15061
#
# Compressibility (1/GPa) = 0.01418797
#
# Stress axis : x y z
#
# Youngs Moduli (GPa) = 131.53346 119.94997 97.75169
#
# Poissons Ratio (x) = 0.44601 -0.00669
# Poissons Ratio (y) = 0.48908 0.22883
# Poissons Ratio (z) = -0.00901 0.28079
#
# Static dielectric constant tensor:
#      x y z
#    x 1.912490 0.000000 0.000000 
#    y 0.000000 1.887120 0.000000 
#    z 0.000000 0.000000 1.948730 
# 
# From -- ./inp_files/15297.got.cif
#   From: 2010.05.17/outbox.cif.g08.bks.cpg/sg52_8_cif.got.tgz:15297.got - 2010.06.03 12:15:38.
