data_PCOD9410635
_publ_section_title
;
Structure prediction by ZEFSAII (Michael W. Deem and Ramdas Pophale) SiO2 
 PCOD9410635
Probable space group: P N N A
;
_chemical_formula_sum "Si O2"
_cell_formula_units_Z 60
_cell_length_a 13.183948
_cell_length_b 15.806804
_cell_length_c 15.428051
_cell_angle_alpha 90.000000
_cell_angle_beta 90.000000
_cell_angle_gamma 90.000000
_cell_volume 3215.145381
_symmetry_space_group_name_H-M "P N N A"
_symmetry_group_IT_number 52
_symmetry_cell_setting 'orthorhombic'
loop_
_space_group_symop_operation_xyz
x,y,z
1/2-x,-y,z
x,1/2-y,1/2-z
1/2-x,1/2+y,1/2-z
-x,-y,-z
1/2+x,y,-z
-x,1/2+y,1/2+z
1/2+x,1/2-y,1/2+z
loop_
_atom_site_type_symbol
_atom_site_label
_atom_site_fract_x
_atom_site_fract_y
_atom_site_fract_z
Si Si1 0.962915 0.891070 0.617089
Si Si2 0.638548 0.825231 0.482934
Si Si3 0.442418 0.413815 0.150778
Si Si4 0.869805 0.666630 0.063692
Si Si5 0.889369 0.429217 0.655147
Si Si6 0.163716 0.115155 0.122664
Si Si7 0.014148 0.323876 0.526692
Si Si8 0.904034 0.750000 0.750000
O O1 0.074453 0.889485 0.576295
O O2 0.896674 0.858885 0.535632
O O3 0.961276 0.821234 0.693208
O O4 0.929356 0.985252 0.640247
O O5 0.626380 0.863256 0.580428
O O6 0.749332 0.823981 0.441218
O O7 0.577129 0.735142 0.486560
O O8 0.560239 0.393019 0.124908
O O9 0.410584 0.392457 0.249076
O O10 0.919754 0.757433 0.081018
O O11 0.883843 0.530376 0.663263
O O12 0.782107 0.403513 0.611971
O O13 0.971639 0.396104 0.587998
O O14 0.161035 0.195426 0.184592
O O15 0.091224 0.138941 0.043497
#
# Coordination Sequence:
#
# PCOD9410635 Si02
#       8
#     8   8   8   8   8   8   8   4
#     4  10  21  37  58  87 120 158 197 254 300 352
#     4  10  21  37  61  87 122 167 199 239 303 363
#     4  10  22  37  58  94 124 153 201 253 302 352
#     4  10  21  36  60  86 123 162 196 242 307 357
#     4  11  24  38  64  91 119 152 202 252 303 353
#     4  11  23  39  64  93 112 158 199 254 301 357
#     4  10  21  40  59  84 124 156 199 250 301 351
#     4  12  20  38  62  84 122 146 210 250 282 348
#
# _framework density 18.661674999999999
#
# number of rings (size 3 to 8) (size 9 to 14) (size 15 to 20)
#    0.000    1.867    4.000    2.800    1.867    5.333 
#    0.000    1.333    0.000    0.000    0.000    0.000 
#    0.000    0.000    0.000    0.000    0.000    0.000 
#
# Total GULP energy -334056.423267 kJ/mol
# GULP energy per Si atom -5567.607054 kJ/mol
# Density = 1.861920 g / cm^3
# Si number density = 18.661675 Si / 1000 Ang^3
#
#
#
# Elastic Constant Matrix: (Units=GPa)
#
#
# Indices 1 2 3 4 5 6 
#
# 1 71.8325 35.8538 10.3394 0.0000 0.0000 0.0000
# 2 35.8538 59.9939 33.1884 0.0000 0.0000 0.0000
# 3 10.3394 33.1884 59.0466 0.0000 0.0000 0.0000
# 4 0.0000 0.0000 0.0000 28.3277 0.0000 0.0000
# 5 0.0000 0.0000 0.0000 0.0000 6.3965 0.0000
# 6 0.0000 0.0000 0.0000 0.0000 0.0000 22.0012
#
#
#
# Elastic Compliance Matrix: (Units=1/GPa)
#
#
# Indices 1 2 3 4 5 6 
#
# 1 0.020751 -0.015080 0.004843 0.000000 0.000000 0.000000
# 2 -0.015080 0.035149 -0.017116 0.000000 0.000000 0.000000
# 3 0.004843 -0.017116 0.025708 0.000000 0.000000 0.000000
# 4 0.000000 0.000000 0.000000 0.035301 0.000000 0.000000
# 5 0.000000 0.000000 0.000000 0.000000 0.156335 0.000000
# 6 0.000000 0.000000 0.000000 0.000000 0.000000 0.045452
#
#
# Mechanical properties :
#
#
# Convention : Reuss Voigt Hill
#
# Bulk Modulus (GPa) = 37.17257 38.84846 38.01051
# Shear Modulus (GPa) = 13.07630 18.77784 15.92707
#
# Velocity S-wave (km/s) = 2.64995 3.17555 2.92458
# Velocity P-wave (km/s) = 5.41530 5.85729 5.64063
#
# Compressibility (1/GPa) = 0.02690156
#
# Stress axis : x y z
#
# Youngs Moduli (GPa) = 48.18967 28.45023 38.89829
#
# Poissons Ratio (x) = 0.42904 -0.18837
# Poissons Ratio (y) = 0.72672 0.66577
# Poissons Ratio (z) = -0.23336 0.48695
#
# Static dielectric constant tensor:
#      x y z
#    x 1.684240 0.000000 0.000000 
#    y 0.000000 1.724860 0.000000 
#    z 0.000000 0.000000 1.677000 
# 
# From -- ./inp_files/27434.got.cif
#   From: 2010.05.17/outbox.cif.g08.bks.cpg/sg52_14_cif.got.tgz:27434.got - 2010.06.03 12:15:38.
