data_PCOD9410530
_publ_section_title
;
Structure prediction by ZEFSAII (Michael W. Deem and Ramdas Pophale) SiO2 
 PCOD9410530
Probable space group: P N N A
;
_chemical_formula_sum "Si O2"
_cell_formula_units_Z 48
_cell_length_a 8.344815
_cell_length_b 19.085241
_cell_length_c 15.290340
_cell_angle_alpha 90.000000
_cell_angle_beta 90.000000
_cell_angle_gamma 90.000000
_cell_volume 2435.182444
_symmetry_space_group_name_H-M "P N N A"
_symmetry_group_IT_number 52
_symmetry_cell_setting 'orthorhombic'
loop_
_space_group_symop_operation_xyz
x,y,z
1/2-x,-y,z
x,1/2-y,1/2-z
1/2-x,1/2+y,1/2-z
-x,-y,-z
1/2+x,y,-z
-x,1/2+y,1/2+z
1/2+x,1/2-y,1/2+z
loop_
_atom_site_type_symbol
_atom_site_label
_atom_site_fract_x
_atom_site_fract_y
_atom_site_fract_z
Si Si1 0.984759 0.702470 0.062141
Si Si2 0.870201 0.332399 0.765452
Si Si3 0.115481 0.799256 0.621027
Si Si4 0.511547 0.137625 0.092055
Si Si5 0.504516 0.347036 0.705536
Si Si6 0.339239 0.427001 0.563283
O O1 0.799885 0.704216 0.091632
O O2 0.042786 0.783881 0.065740
O O3 0.083832 0.658095 0.133709
O O4 0.013377 0.678218 0.963358
O O5 0.905992 0.250000 0.750000
O O6 0.687152 0.344579 0.737963
O O7 0.976575 0.372499 0.694131
O O8 0.041800 0.725038 0.654714
O O9 0.100093 0.848042 0.706274
O O10 0.698239 0.129952 0.072956
O O11 0.419583 0.083192 0.030632
O O12 0.467065 0.409034 0.638313
O O13 0.250000 0.500000 0.573911
#
# Coordination Sequence:
#
# PCOD9410530 Si02
#       6
#     8   8   8   8   8   8
#     4  11  20  34  54  85 111 149 174 232 290 351
#     4  10  21  33  57  79 114 144 185 230 296 339
#     4  11  21  32  56  81 117 143 185 225 300 342
#     4  11  21  35  52  78 110 149 193 232 270 336
#     4  11  21  36  52  82 111 151 189 235 278 342
#     4  12  24  38  55  78 115 162 201 233 273 324
#
# _framework density 19.711048999999999
#
# number of rings (size 3 to 8) (size 9 to 14) (size 15 to 20)
#    0.000    1.000    5.000    3.500    7.000    0.000 
#    0.000    0.000    0.000    0.000    0.000   11.667 
#    0.000    0.000    0.000    0.000    0.000    0.000 
#
# Total GULP energy -268086.620253 kJ/mol
# GULP energy per Si atom -5585.137922 kJ/mol
# Density = 1.966619 g / cm^3
# Si number density = 19.711049 Si / 1000 Ang^3
#
#
#
# Elastic Constant Matrix: (Units=GPa)
#
#
# Indices 1 2 3 4 5 6 
#
# 1 96.0178 -6.0219 37.7921 0.0000 0.0000 0.0000
# 2 -6.0219 17.0928 9.4038 0.0000 0.0000 0.0000
# 3 37.7921 9.4038 154.2616 0.0000 0.0000 0.0000
# 4 0.0000 0.0000 0.0000 11.5512 0.0000 0.0000
# 5 0.0000 0.0000 0.0000 0.0000 37.6275 0.0000
# 6 0.0000 0.0000 0.0000 0.0000 0.0000 11.4024
#
#
#
# Elastic Compliance Matrix: (Units=1/GPa)
#
#
# Indices 1 2 3 4 5 6 
#
# 1 0.012112 0.006104 -0.003339 0.000000 0.000000 0.000000
# 2 0.006104 0.063611 -0.005373 0.000000 0.000000 0.000000
# 3 -0.003339 -0.005373 0.007628 0.000000 0.000000 0.000000
# 4 0.000000 0.000000 0.000000 0.086571 0.000000 0.000000
# 5 0.000000 0.000000 0.000000 0.000000 0.026576 0.000000
# 6 0.000000 0.000000 0.000000 0.000000 0.000000 0.087701
#
#
# Mechanical properties :
#
#
# Convention : Reuss Voigt Hill
#
# Bulk Modulus (GPa) = 12.79842 38.85780 25.82811
# Shear Modulus (GPa) = 15.84981 27.19608 21.52294
#
# Velocity S-wave (km/s) = 2.83876 3.71851 3.30801
# Velocity P-wave (km/s) = 4.15353 6.18004 5.26521
#
# Compressibility (1/GPa) = 0.07813466
#
# Stress axis : x y z
#
# Youngs Moduli (GPa) = 82.56310 15.72053 131.09326
#
# Poissons Ratio (x) = -0.09596 0.43777
# Poissons Ratio (y) = -0.50399 0.70439
# Poissons Ratio (z) = 0.27571 0.08447
#
# Static dielectric constant tensor:
#      x y z
#    x 1.718330 0.000000 0.000000 
#    y 0.000000 1.701830 0.000000 
#    z 0.000000 0.000000 1.735350 
# 
# From -- ./inp_files/24706.got.cif
#   From: 2010.05.17/outbox.cif.g08.bks.cpg/sg52_13_cif.got.tgz:24706.got - 2010.06.03 12:15:38.
