data_PCOD9410627
_publ_section_title
;
Structure prediction by ZEFSAII (Michael W. Deem and Ramdas Pophale) SiO2 
 PCOD9410627
Probable space group: P N N A
;
_chemical_formula_sum "Si O2"
_cell_formula_units_Z 52
_cell_length_a 8.075405
_cell_length_b 18.896146
_cell_length_c 18.006219
_cell_angle_alpha 90.000000
_cell_angle_beta 90.000000
_cell_angle_gamma 90.000000
_cell_volume 2747.641556
_symmetry_space_group_name_H-M "P N N A"
_symmetry_group_IT_number 52
_symmetry_cell_setting 'orthorhombic'
loop_
_space_group_symop_operation_xyz
x,y,z
1/2-x,-y,z
x,1/2-y,1/2-z
1/2-x,1/2+y,1/2-z
-x,-y,-z
1/2+x,y,-z
-x,1/2+y,1/2+z
1/2+x,1/2-y,1/2+z
loop_
_atom_site_type_symbol
_atom_site_label
_atom_site_fract_x
_atom_site_fract_y
_atom_site_fract_z
Si Si1 0.376107 0.765894 0.538371
Si Si2 0.918474 0.959419 0.660091
Si Si3 0.174282 0.673729 0.429013
Si Si4 0.407270 0.138875 0.554412
Si Si5 0.610861 0.552185 0.451001
Si Si6 0.250000 0.000000 0.591371
Si Si7 0.847018 0.927683 0.830439
O O1 0.302529 0.730723 0.462944
O O2 0.492924 0.708228 0.576401
O O3 0.218521 0.799244 0.579793
O O4 0.497523 0.829660 0.515358
O O5 0.899851 0.937814 0.745800
O O6 0.958154 0.889003 0.612938
O O7 0.750000 0.000000 0.639089
O O8 0.083629 0.006230 0.641718
O O9 0.171382 0.613354 0.493467
O O10 0.229658 0.637367 0.352919
O O11 0.295216 0.068689 0.542890
O O12 0.750000 0.500000 0.420299
O O13 0.500000 0.500000 0.500000
O O14 0.503186 0.581857 0.384175
O O15 0.750000 0.000000 0.851462
#
# Coordination Sequence:
#
# PCOD9410627 Si02
#       7
#     8   8   8   8   8   4   8
#     4  10  21  36  59  89 126 157 199 252 312 369
#     4   9  21  41  62  89 127 155 204 263 312 377
#     4  11  19  34  54  87 125 160 197 248 305 356
#     4   9  21  40  62  92 119 155 203 262 316 378
#     4  12  19  30  52  87 119 151 205 253 289 357
#     4   8  20  42  64  88 118 152 200 256 328 360
#     4  11  21  35  59  89 118 164 203 248 313 351
#
# _framework density 18.925322999999999
#
# number of rings (size 3 to 8) (size 9 to 14) (size 15 to 20)
#    0.923    0.923    4.615    0.000    1.077    3.077 
#    1.385    0.769    0.000    0.000    4.000    0.000 
#    0.000    0.000    0.000    0.000    0.000    0.000 
#
# Total GULP energy -289486.886603 kJ/mol
# GULP energy per Si atom -5567.055512 kJ/mol
# Density = 1.888225 g / cm^3
# Si number density = 18.925323 Si / 1000 Ang^3
#
#
#
# Elastic Constant Matrix: (Units=GPa)
#
#
# Indices 1 2 3 4 5 6 
#
# 1 118.1096 34.8720 28.5088 0.0000 0.0000 0.0000
# 2 34.8720 78.0758 24.5215 0.0000 0.0000 0.0000
# 3 28.5088 24.5215 53.0253 0.0000 0.0000 0.0000
# 4 0.0000 0.0000 0.0000 13.3955 0.0000 0.0000
# 5 0.0000 0.0000 0.0000 0.0000 22.0176 0.0000
# 6 0.0000 0.0000 0.0000 0.0000 0.0000 56.8018
#
#
#
# Elastic Compliance Matrix: (Units=1/GPa)
#
#
# Indices 1 2 3 4 5 6 
#
# 1 0.010446 -0.003395 -0.004046 0.000000 0.000000 0.000000
# 2 -0.003395 0.016088 -0.005615 0.000000 0.000000 0.000000
# 3 -0.004046 -0.005615 0.023631 0.000000 0.000000 0.000000
# 4 0.000000 0.000000 0.000000 0.074652 0.000000 0.000000
# 5 0.000000 0.000000 0.000000 0.000000 0.045418 0.000000
# 6 0.000000 0.000000 0.000000 0.000000 0.000000 0.017605
#
#
# Mechanical properties :
#
#
# Convention : Reuss Voigt Hill
#
# Bulk Modulus (GPa) = 41.57453 47.22394 44.39924
# Shear Modulus (GPa) = 22.52581 29.19689 25.86135
#
# Velocity S-wave (km/s) = 3.45374 3.93204 3.70062
# Velocity P-wave (km/s) = 6.15790 6.75437 6.46302
#
# Compressibility (1/GPa) = 0.02405319
#
# Stress axis : x y z
#
# Youngs Moduli (GPa) = 95.73367 62.15944 42.31771
#
# Poissons Ratio (x) = 0.21101 0.17122
# Poissons Ratio (y) = 0.32499 0.23760
# Poissons Ratio (z) = 0.38736 0.34900
#
# Static dielectric constant tensor:
#      x y z
#    x 1.826500 0.000000 0.000000 
#    y 0.000000 1.755790 0.000000 
#    z 0.000000 0.000000 1.618620 
# 
# From -- ./inp_files/31426.got.cif
#   From: 2010.05.17/outbox.cif.g08.bks.cpg/sg52_16_cif.got.tgz:31426.got - 2010.06.03 12:15:38.
