data_PCOD9410046
_publ_section_title
;
Structure prediction by ZEFSAII (Michael W. Deem and Ramdas Pophale) SiO2 
 PCOD9410046
Probable space group: P N N A
;
_chemical_formula_sum "Si O2"
_cell_formula_units_Z 48
_cell_length_a 29.446399
_cell_length_b 11.212904
_cell_length_c 7.636434
_cell_angle_alpha 90.000000
_cell_angle_beta 90.000000
_cell_angle_gamma 90.000000
_cell_volume 2521.395068
_symmetry_space_group_name_H-M "P N N A"
_symmetry_group_IT_number 52
_symmetry_cell_setting 'orthorhombic'
loop_
_space_group_symop_operation_xyz
x,y,z
1/2-x,-y,z
x,1/2-y,1/2-z
1/2-x,1/2+y,1/2-z
-x,-y,-z
1/2+x,y,-z
-x,1/2+y,1/2+z
1/2+x,1/2-y,1/2+z
loop_
_atom_site_type_symbol
_atom_site_label
_atom_site_fract_x
_atom_site_fract_y
_atom_site_fract_z
Si Si1 0.434711 0.990269 0.979267
Si Si2 0.640104 0.627249 0.969647
Si Si3 0.496839 0.304166 0.438466
Si Si4 0.282531 0.111192 0.760926
Si Si5 0.344827 0.402573 0.422330
Si Si6 0.457988 0.070920 0.584402
O O1 0.447779 0.026922 0.780566
O O2 0.458133 0.864394 0.015662
O O3 0.460909 0.089617 0.092259
O O4 0.381900 0.002084 0.014903
O O5 0.662010 0.589747 0.785042
O O6 0.634064 0.770849 0.960024
O O7 0.673797 0.605317 0.131521
O O8 0.591176 0.566033 0.990846
O O9 0.507562 0.250000 0.250000
O O10 0.474225 0.206746 0.561803
O O11 0.265275 0.250000 0.750000
O O12 0.250000 0.000000 0.716483
O O13 0.300624 0.091805 0.958091
O O14 0.500000 0.000000 0.500000
#
# Coordination Sequence:
#
# PCOD9410046 Si02
#       6
#     8   8   8   8   8   8
#     4  11  22  35  56  80 116 161 205 253 299 345
#     4  10  21  37  61  88 122 156 205 253 294 363
#     4  11  22  35  49  80 115 158 203 252 298 343
#     4  10  22  42  68  97 117 154 202 256 320 380
#     4  10  20  38  61  88 119 156 202 250 300 360
#     4  12  22  35  56  84 121 165 208 254 296 351
#
# _framework density 19.03708
#
# number of rings (size 3 to 8) (size 9 to 14) (size 15 to 20)
#    0.000    1.333    5.000    1.500    2.333    0.667 
#    0.000    2.500    0.000    2.000    0.000    0.000 
#    0.000    0.000    0.000    0.000    0.000    0.000 
#
# Total GULP energy -267875.471714 kJ/mol
# GULP energy per Si atom -5580.738994 kJ/mol
# Density = 1.899375 g / cm^3
# Si number density = 19.037080 Si / 1000 Ang^3
#
#
#
# Elastic Constant Matrix: (Units=GPa)
#
#
# Indices 1 2 3 4 5 6 
#
# 1 57.4945 32.1166 24.2142 0.0000 0.0000 0.0000
# 2 32.1166 59.1298 31.3735 0.0000 0.0000 0.0000
# 3 24.2142 31.3735 75.2379 0.0000 0.0000 0.0000
# 4 0.0000 0.0000 0.0000 21.4789 0.0000 0.0000
# 5 0.0000 0.0000 0.0000 0.0000 19.6454 0.0000
# 6 0.0000 0.0000 0.0000 0.0000 0.0000 35.9668
#
#
#
# Elastic Compliance Matrix: (Units=1/GPa)
#
#
# Indices 1 2 3 4 5 6 
#
# 1 0.025528 -0.012207 -0.003126 0.000000 0.000000 0.000000
# 2 -0.012207 0.027554 -0.007561 0.000000 0.000000 0.000000
# 3 -0.003126 -0.007561 0.017450 0.000000 0.000000 0.000000
# 4 0.000000 0.000000 0.000000 0.046557 0.000000 0.000000
# 5 0.000000 0.000000 0.000000 0.000000 0.050903 0.000000
# 6 0.000000 0.000000 0.000000 0.000000 0.000000 0.027803
#
#
# Mechanical properties :
#
#
# Convention : Reuss Voigt Hill
#
# Bulk Modulus (GPa) = 40.41304 40.80786 40.61045
# Shear Modulus (GPa) = 20.01341 22.36207 21.18774
#
# Velocity S-wave (km/s) = 3.24587 3.43105 3.33974
# Velocity P-wave (km/s) = 5.94325 6.09743 6.02083
#
# Compressibility (1/GPa) = 0.02474449
#
# Stress axis : x y z
#
# Youngs Moduli (GPa) = 39.17199 36.29196 57.30662
#
# Poissons Ratio (x) = 0.44303 0.17912
# Poissons Ratio (y) = 0.47819 0.43330
# Poissons Ratio (z) = 0.12243 0.27441
#
# Static dielectric constant tensor:
#      x y z
#    x 1.659720 0.000000 0.000000 
#    y 0.000000 1.692320 0.000000 
#    z 0.000000 0.000000 1.701570 
# 
# From -- ./inp_files/14942.got.cif
#   From: 2010.05.17/outbox.cif.g08.bks.cpg/sg52_8_cif.got.tgz:14942.got - 2010.06.03 12:15:38.
