data_PCOD9410788
_publ_section_title
;
Structure prediction by ZEFSAII (Michael W. Deem and Ramdas Pophale) SiO2 
 PCOD9410788
Probable space group: P N N A
;
_chemical_formula_sum "Si O2"
_cell_formula_units_Z 44
_cell_length_a 17.023496
_cell_length_b 5.261908
_cell_length_c 25.207469
_cell_angle_alpha 90.000000
_cell_angle_beta 90.000000
_cell_angle_gamma 90.000000
_cell_volume 2257.986002
_symmetry_space_group_name_H-M "P N N A"
_symmetry_group_IT_number 52
_symmetry_cell_setting 'orthorhombic'
loop_
_space_group_symop_operation_xyz
x,y,z
1/2-x,-y,z
x,1/2-y,1/2-z
1/2-x,1/2+y,1/2-z
-x,-y,-z
1/2+x,y,-z
-x,1/2+y,1/2+z
1/2+x,1/2-y,1/2+z
loop_
_atom_site_type_symbol
_atom_site_label
_atom_site_fract_x
_atom_site_fract_y
_atom_site_fract_z
Si Si1 0.300583 0.247672 0.022542
Si Si2 0.051908 0.250000 0.250000
Si Si3 0.800204 0.252439 0.395922
Si Si4 0.066703 0.744742 0.392897
Si Si5 0.476776 0.234650 0.860895
Si Si6 0.176322 0.868657 0.302526
O O1 0.250000 0.500000 0.032753
O O2 0.381461 0.263672 0.054512
O O3 0.250000 0.000000 0.038507
O O4 0.314615 0.231562 0.959425
O O5 0.109605 0.456868 0.224069
O O6 0.998787 0.172263 0.200191
O O7 0.750000 0.500000 0.380502
O O8 0.884252 0.239337 0.368206
O O9 0.750000 0.000000 0.385630
O O10 0.130023 0.700948 0.345044
O O11 0.009261 0.505127 0.393838
O O12 0.020628 0.006194 0.379624
O O13 0.214271 0.750000 0.250000
O O14 0.250000 0.000000 0.331105
#
# Coordination Sequence:
#
# PCOD9410788 Si02
#       6
#     8   4   8   8   8   8
#     4  10  21  38  59  85 121 155 190 237 282 338
#     4  10  22  38  52  82 118 154 192 238 288 322
#     4  10  22  42  64  86 111 147 192 242 304 356
#     4  11  23  36  57  89 118 156 194 233 283 336
#     4  11  23  39  61  84 118 152 191 245 290 346
#     4  11  20  33  53  78 116 161 196 225 264 336
#
# _framework density 19.486391000000001
#
# number of rings (size 3 to 8) (size 9 to 14) (size 15 to 20)
#    0.000    1.455    2.727    2.727    0.000    3.636 
#    0.000    0.909    0.000    0.000    0.000    0.000 
#    0.000    0.000    0.000    0.000    0.000    0.000 
#
# Total GULP energy -245632.422518 kJ/mol
# GULP energy per Si atom -5582.555057 kJ/mol
# Density = 1.944204 g / cm^3
# Si number density = 19.486391 Si / 1000 Ang^3
#
#
#
# Elastic Constant Matrix: (Units=GPa)
#
#
# Indices 1 2 3 4 5 6 
#
# 1 150.4803 48.9409 50.4342 0.0000 0.0000 0.0000
# 2 48.9409 113.2250 20.5136 0.0000 0.0000 0.0000
# 3 50.4342 20.5136 41.3926 0.0000 0.0000 0.0000
# 4 0.0000 0.0000 0.0000 0.5676 0.0000 0.0000
# 5 0.0000 0.0000 0.0000 0.0000 24.0531 0.0000
# 6 0.0000 0.0000 0.0000 0.0000 0.0000 29.2247
#
#
#
# Elastic Compliance Matrix: (Units=1/GPa)
#
#
# Indices 1 2 3 4 5 6 
#
# 1 0.011981 -0.002784 -0.013218 0.000000 0.000000 0.000000
# 2 -0.002784 0.010350 -0.001737 0.000000 0.000000 0.000000
# 3 -0.013218 -0.001737 0.041126 0.000000 0.000000 0.000000
# 4 0.000000 0.000000 0.000000 1.761674 0.000000 0.000000
# 5 0.000000 0.000000 0.000000 0.000000 0.041575 0.000000
# 6 0.000000 0.000000 0.000000 0.000000 0.000000 0.034218
#
#
# Mechanical properties :
#
#
# Convention : Reuss Voigt Hill
#
# Bulk Modulus (GPa) = 35.74306 60.54169 48.14238
# Shear Modulus (GPa) = 2.56973 23.11638 12.84306
#
# Velocity S-wave (km/s) = 1.14961 3.44798 2.57004
# Velocity P-wave (km/s) = 4.48827 6.85475 5.79362
#
# Compressibility (1/GPa) = 0.02797746
#
# Stress axis : x y z
#
# Youngs Moduli (GPa) = 83.46541 96.61784 24.31567
#
# Poissons Ratio (x) = 0.26897 0.32142
# Poissons Ratio (y) = 0.23236 0.04225
# Poissons Ratio (z) = 1.10328 0.16786
#
# Static dielectric constant tensor:
#      x y z
#    x 1.664990 0.000000 0.000000 
#    y 0.000000 2.186250 0.000000 
#    z 0.000000 0.000000 1.687460 
# 
# From -- ./inp_files/42945.got.cif
#   From: 2010.05.17/outbox.cif.g08.bks.cpg/sg52_22_cif.got.tgz:42945.got - 2010.06.03 12:15:38.
