data_PCOD9410070
_publ_section_title
;
Structure prediction by ZEFSAII (Michael W. Deem and Ramdas Pophale) SiO2 
 PCOD9410070
Probable space group: P N N A
;
_chemical_formula_sum "Si O2"
_cell_formula_units_Z 60
_cell_length_a 12.605320
_cell_length_b 19.704944
_cell_length_c 11.414978
_cell_angle_alpha 90.000000
_cell_angle_beta 90.000000
_cell_angle_gamma 90.000000
_cell_volume 2835.333564
_symmetry_space_group_name_H-M "P N N A"
_symmetry_group_IT_number 52
_symmetry_cell_setting 'orthorhombic'
loop_
_space_group_symop_operation_xyz
x,y,z
1/2-x,-y,z
x,1/2-y,1/2-z
1/2-x,1/2+y,1/2-z
-x,-y,-z
1/2+x,y,-z
-x,1/2+y,1/2+z
1/2+x,1/2-y,1/2+z
loop_
_atom_site_type_symbol
_atom_site_label
_atom_site_fract_x
_atom_site_fract_y
_atom_site_fract_z
Si Si1 0.861082 0.377188 0.414442
Si Si2 0.923767 0.811917 0.431396
Si Si3 0.193166 0.844850 0.655794
Si Si4 0.917246 0.568592 0.662091
Si Si5 0.130629 0.747289 0.062211
Si Si6 0.354644 0.779195 0.136200
Si Si7 0.250000 0.500000 0.486912
Si Si8 0.508231 0.563966 0.084174
O O1 0.836009 0.338465 0.292384
O O2 0.875860 0.325119 0.520868
O O3 0.770575 0.432743 0.437674
O O4 0.970152 0.417049 0.397141
O O5 0.820069 0.834767 0.359830
O O6 0.902217 0.746156 0.513720
O O7 0.033506 0.788770 0.371653
O O8 0.952412 0.873596 0.517541
O O9 0.145726 0.792224 0.561538
O O10 0.129452 0.913598 0.616818
O O11 0.855237 0.640386 0.650901
O O12 0.850374 0.512286 0.596266
O O13 0.944333 0.552201 0.795995
O O14 0.240624 0.743044 0.130530
O O15 0.414718 0.750000 0.250000
O O16 0.500000 0.500000 0.000000
#
# Coordination Sequence:
#
# PCOD9410070 Si02
#       8
#     8   8   8   8   8   8   4   8
#     4  11  22  41  64  88 130 172 219 262 328 397
#     4  10  20  38  64  95 125 161 216 271 328 390
#     4   9  22  37  63  95 122 166 218 266 329 389
#     4  11  23  41  64  91 124 178 220 270 328 397
#     4  10  20  38  62  93 126 154 212 274 326 390
#     4  11  20  38  66  92 119 164 214 263 333 388
#     4  12  26  42  60  96 130 180 226 266 324 402
#     4  10  22  39  62  93 131 170 212 269 330 396
#
# _framework density 21.161532000000001
#
# number of rings (size 3 to 8) (size 9 to 14) (size 15 to 20)
#    0.000    1.600    4.000    0.800    0.000    3.733 
#    2.400    4.000    0.000    0.000    0.000    0.000 
#    0.000    0.000    0.000    0.000    0.000    0.000 
#
# Total GULP energy -334663.707876 kJ/mol
# GULP energy per Si atom -5577.728465 kJ/mol
# Density = 2.111337 g / cm^3
# Si number density = 21.161532 Si / 1000 Ang^3
#
#
#
# Elastic Constant Matrix: (Units=GPa)
#
#
# Indices 1 2 3 4 5 6 
#
# 1 108.0554 -0.0018 7.3117 0.0000 0.0000 0.0000
# 2 -0.0018 55.8912 27.3063 0.0000 0.0000 0.0000
# 3 7.3117 27.3063 51.1394 0.0000 0.0000 0.0000
# 4 0.0000 0.0000 0.0000 35.6983 0.0000 0.0000
# 5 0.0000 0.0000 0.0000 0.0000 15.6367 0.0000
# 6 0.0000 0.0000 0.0000 0.0000 0.0000 28.9074
#
#
#
# Elastic Compliance Matrix: (Units=1/GPa)
#
#
# Indices 1 2 3 4 5 6 
#
# 1 0.009377 0.000887 -0.001814 0.000000 0.000000 0.000000
# 2 0.000887 0.024291 -0.013097 0.000000 0.000000 0.000000
# 3 -0.001814 -0.013097 0.026807 0.000000 0.000000 0.000000
# 4 0.000000 0.000000 0.000000 0.028013 0.000000 0.000000
# 5 0.000000 0.000000 0.000000 0.000000 0.063952 0.000000
# 6 0.000000 0.000000 0.000000 0.000000 0.000000 0.034593
#
#
# Mechanical properties :
#
#
# Convention : Reuss Voigt Hill
#
# Bulk Modulus (GPa) = 30.83949 31.59094 31.21522
# Shear Modulus (GPa) = 22.13466 28.07981 25.10723
#
# Velocity S-wave (km/s) = 3.23768 3.64665 3.44823
# Velocity P-wave (km/s) = 5.34619 5.71766 5.53504
#
# Compressibility (1/GPa) = 0.03242595
#
# Stress axis : x y z
#
# Youngs Moduli (GPa) = 106.64072 41.16819 37.30373
#
# Poissons Ratio (x) = -0.03650 0.06767
# Poissons Ratio (y) = -0.09455 0.48856
# Poissons Ratio (z) = 0.19346 0.53918
#
# Static dielectric constant tensor:
#      x y z
#    x 1.824970 0.000000 0.000000 
#    y 0.000000 1.757550 0.000000 
#    z 0.000000 0.000000 1.792640 
# 
# From -- ./inp_files/18402.got.cif
#   From: 2010.05.17/outbox.cif.g08.bks.cpg/sg52_10_cif.got.tgz:18402.got - 2010.06.03 12:15:38.
