data_PCOD9410834
_publ_section_title
;
Structure prediction by ZEFSAII (Michael W. Deem and Ramdas Pophale) SiO2 
 PCOD9410834
Probable space group: P N N A
;
_chemical_formula_sum "Si O2"
_cell_formula_units_Z 60
_cell_length_a 8.139010
_cell_length_b 24.253581
_cell_length_c 15.215064
_cell_angle_alpha 90.000000
_cell_angle_beta 90.000000
_cell_angle_gamma 90.000000
_cell_volume 3003.455738
_symmetry_space_group_name_H-M "P N N A"
_symmetry_group_IT_number 52
_symmetry_cell_setting 'orthorhombic'
loop_
_space_group_symop_operation_xyz
x,y,z
1/2-x,-y,z
x,1/2-y,1/2-z
1/2-x,1/2+y,1/2-z
-x,-y,-z
1/2+x,y,-z
-x,1/2+y,1/2+z
1/2+x,1/2-y,1/2+z
loop_
_atom_site_type_symbol
_atom_site_label
_atom_site_fract_x
_atom_site_fract_y
_atom_site_fract_z
Si Si1 0.587691 0.830241 0.295847
Si Si2 0.634243 0.709302 0.381023
Si Si3 0.250000 0.000000 0.283319
Si Si4 0.564942 0.021252 0.407569
Si Si5 0.386698 0.316146 0.110651
Si Si6 0.800386 0.638410 0.055139
Si Si7 0.260691 0.698360 0.426248
Si Si8 0.736538 0.875453 0.771943
O O1 0.604211 0.770914 0.343443
O O2 0.687417 0.825543 0.204484
O O3 0.659481 0.868149 0.371805
O O4 0.406819 0.848469 0.266113
O O5 0.452910 0.692590 0.410389
O O6 0.734177 0.702063 0.469751
O O7 0.419057 0.005933 0.340064
O O8 0.245623 0.058595 0.232508
O O9 0.588668 0.085457 0.429791
O O10 0.750000 0.000000 0.385690
O O11 0.500000 0.000000 0.500000
O O12 0.572658 0.312140 0.075499
O O13 0.309096 0.255323 0.115085
O O14 0.388651 0.349421 0.201349
O O15 0.278210 0.349652 0.038947
O O16 0.191862 0.648078 0.367754
#
# Coordination Sequence:
#
# PCOD9410834 Si02
#       8
#     8   8   4   8   8   8   8   8
#     4  10  21  40  60  91 126 165 201 258 322 389
#     4  10  21  38  62  90 129 164 201 251 326 387
#     4  12  24  46  64  90 126 176 230 274 318 380
#     4  12  23  40  60  89 128 174 221 265 320 389
#     4  12  21  36  56  90 128 163 202 251 315 386
#     4  12  23  36  58  92 127 167 205 255 319 387
#     4  11  22  39  62  92 125 167 205 262 317 386
#     4  11  23  42  64  85 126 167 221 262 315 373
#
# _framework density 19.976987999999999
#
# number of rings (size 3 to 8) (size 9 to 14) (size 15 to 20)
#    0.000    0.800    4.667    4.400    0.000    1.067 
#    2.400    0.000    0.000    3.200    1.733    0.000 
#    0.000    0.000    0.000    0.000    0.000    0.000 
#
# Total GULP energy -334712.336289 kJ/mol
# GULP energy per Si atom -5578.538938 kJ/mol
# Density = 1.993152 g / cm^3
# Si number density = 19.976988 Si / 1000 Ang^3
#
#
#
# Elastic Constant Matrix: (Units=GPa)
#
#
# Indices 1 2 3 4 5 6 
#
# 1 66.6242 3.5740 15.3097 0.0000 0.0000 0.0000
# 2 3.5740 89.5447 46.6635 0.0000 0.0000 0.0000
# 3 15.3097 46.6635 128.6347 0.0000 0.0000 0.0000
# 4 0.0000 0.0000 0.0000 24.4277 0.0000 0.0000
# 5 0.0000 0.0000 0.0000 0.0000 22.8125 0.0000
# 6 0.0000 0.0000 0.0000 0.0000 0.0000 23.1212
#
#
#
# Elastic Compliance Matrix: (Units=1/GPa)
#
#
# Indices 1 2 3 4 5 6 
#
# 1 0.015444 0.000421 -0.001991 0.000000 0.000000 0.000000
# 2 0.000421 0.013782 -0.005050 0.000000 0.000000 0.000000
# 3 -0.001991 -0.005050 0.009843 0.000000 0.000000 0.000000
# 4 0.000000 0.000000 0.000000 0.040937 0.000000 0.000000
# 5 0.000000 0.000000 0.000000 0.000000 0.043836 0.000000
# 6 0.000000 0.000000 0.000000 0.000000 0.000000 0.043250
#
#
# Mechanical properties :
#
#
# Convention : Reuss Voigt Hill
#
# Bulk Modulus (GPa) = 38.71420 46.21088 42.46254
# Shear Modulus (GPa) = 26.46314 28.68937 27.57626
#
# Velocity S-wave (km/s) = 3.64357 3.79373 3.71941
# Velocity P-wave (km/s) = 6.09280 6.50939 6.30454
#
# Compressibility (1/GPa) = 0.02583032
#
# Stress axis : x y z
#
# Youngs Moduli (GPa) = 64.74812 72.55665 101.59753
#
# Poissons Ratio (x) = -0.03055 0.20227
# Poissons Ratio (y) = -0.02726 0.51305
# Poissons Ratio (z) = 0.12891 0.36640
#
# Static dielectric constant tensor:
#      x y z
#    x 1.764710 0.000000 0.000000 
#    y 0.000000 1.833430 0.000000 
#    z 0.000000 0.000000 1.645040 
# 
# From -- ./inp_files/25084.got.cif
#   From: 2010.05.17/outbox.cif.g08.bks.cpg/sg52_13_cif.got.tgz:25084.got - 2010.06.03 12:15:38.
