data_PCOD9410828
_publ_section_title
;
Structure prediction by ZEFSAII (Michael W. Deem and Ramdas Pophale) SiO2 
 PCOD9410828
Probable space group: P N N A
;
_chemical_formula_sum "Si O2"
_cell_formula_units_Z 48
_cell_length_a 13.837950
_cell_length_b 9.432397
_cell_length_c 16.954894
_cell_angle_alpha 90.000000
_cell_angle_beta 90.000000
_cell_angle_gamma 90.000000
_cell_volume 2213.038185
_symmetry_space_group_name_H-M "P N N A"
_symmetry_group_IT_number 52
_symmetry_cell_setting 'orthorhombic'
loop_
_space_group_symop_operation_xyz
x,y,z
1/2-x,-y,z
x,1/2-y,1/2-z
1/2-x,1/2+y,1/2-z
-x,-y,-z
1/2+x,y,-z
-x,1/2+y,1/2+z
1/2+x,1/2-y,1/2+z
loop_
_atom_site_type_symbol
_atom_site_label
_atom_site_fract_x
_atom_site_fract_y
_atom_site_fract_z
Si Si1 0.682788 0.604689 0.718741
Si Si2 0.136240 0.995712 0.649391
Si Si3 0.975599 0.714988 0.068940
Si Si4 0.641379 0.487789 0.887902
Si Si5 0.526701 0.060800 0.187526
Si Si6 0.506731 0.737710 0.396355
O O1 0.750000 0.500000 0.669063
O O2 0.727857 0.750000 0.750000
O O3 0.653818 0.513300 0.794614
O O4 0.578890 0.635598 0.683633
O O5 0.093501 0.840512 0.631393
O O6 0.250000 0.000000 0.663555
O O7 0.106095 0.091413 0.574024
O O8 0.078080 0.054001 0.727253
O O9 0.925640 0.833261 0.125324
O O10 0.068978 0.612726 0.085744
O O11 0.006656 0.793388 0.989236
O O12 0.750000 0.500000 0.921420
O O13 0.588854 0.336693 0.892193
O O14 0.510695 0.902658 0.155760
#
# Coordination Sequence:
#
# PCOD9410828 Si02
#       6
#     8   8   8   8   8   8
#     4  11  22  36  62  93 123 156 201 254 308 370
#     4  11  24  44  70  92 120 169 225 268 308 376
#     4  11  23  43  62  91 128 168 205 258 324 379
#     4  10  21  38  62  88 120 157 204 247 302 370
#     4  12  23  41  63  94 129 161 207 266 320 372
#     4  11  25  39  64  94 126 165 210 259 317 384
#
# _framework density 21.689639
#
# number of rings (size 3 to 8) (size 9 to 14) (size 15 to 20)
#    0.000    1.000    5.000    3.500    4.667    5.333 
#    0.000    0.000    0.000    6.000    0.000    0.000 
#    0.000    0.000    0.000    0.000    0.000    0.000 
#
# Total GULP energy -267371.767465 kJ/mol
# GULP energy per Si atom -5570.245156 kJ/mol
# Density = 2.164027 g / cm^3
# Si number density = 21.689639 Si / 1000 Ang^3
#
#
#
# Elastic Constant Matrix: (Units=GPa)
#
#
# Indices 1 2 3 4 5 6 
#
# 1 122.1370 28.3121 -0.4912 0.0000 0.0000 0.0000
# 2 28.3121 129.3957 10.2141 0.0000 0.0000 0.0000
# 3 -0.4912 10.2141 59.3829 0.0000 0.0000 0.0000
# 4 0.0000 0.0000 0.0000 27.2329 0.0000 0.0000
# 5 0.0000 0.0000 0.0000 0.0000 -12.3046 0.0000
# 6 0.0000 0.0000 0.0000 0.0000 0.0000 3.6797
#
#
#
# Elastic Compliance Matrix: (Units=1/GPa)
#
#
# Indices 1 2 3 4 5 6 
#
# 1 0.008634 -0.001921 0.000402 0.000000 0.000000 0.000000
# 2 -0.001921 0.008262 -0.001437 0.000000 0.000000 0.000000
# 3 0.000402 -0.001437 0.017090 0.000000 0.000000 0.000000
# 4 0.000000 0.000000 0.000000 0.036720 0.000000 0.000000
# 5 0.000000 0.000000 0.000000 0.000000 -0.081270 0.000000
# 6 0.000000 0.000000 0.000000 0.000000 0.000000 0.271761
#
#
# Mechanical properties :
#
#
# Convention : Reuss Voigt Hill
#
# Bulk Modulus (GPa) = 35.61944 42.99839 39.30892
# Shear Modulus (GPa) = 18.08527 21.91365 19.99946
#
# Velocity S-wave (km/s) = 2.89073 3.18201 3.03986
# Velocity P-wave (km/s) = 5.25354 5.77648 5.52121
#
# Compressibility (1/GPa) = 0.02807455
#
# Stress axis : x y z
#
# Youngs Moduli (GPa) = 115.81534 121.03645 58.51254
#
# Poissons Ratio (x) = 0.23251 -0.02351
# Poissons Ratio (y) = 0.22248 0.08408
# Poissons Ratio (z) = -0.04654 0.17393
#
# Static dielectric constant tensor:
#      x y z
#    x 1.963100 0.000000 0.000000 
#    y 0.000000 1.867170 0.000000 
#    z 0.000000 0.000000 1.912410 
# 
# From -- ./inp_files/33049.got.cif
#   From: 2010.05.17/outbox.cif.g08.bks.cpg/sg52_17_cif.got.tgz:33049.got - 2010.06.03 12:15:38.
