data_PCOD9410761
_publ_section_title
;
Structure prediction by ZEFSAII (Michael W. Deem and Ramdas Pophale) SiO2 
 PCOD9410761
Probable space group: P N N A
;
_chemical_formula_sum "Si O2"
_cell_formula_units_Z 48
_cell_length_a 13.028647
_cell_length_b 10.999591
_cell_length_c 13.463970
_cell_angle_alpha 90.000000
_cell_angle_beta 90.000000
_cell_angle_gamma 90.000000
_cell_volume 1929.518690
_symmetry_space_group_name_H-M "P N N A"
_symmetry_group_IT_number 52
_symmetry_cell_setting 'orthorhombic'
loop_
_space_group_symop_operation_xyz
x,y,z
1/2-x,-y,z
x,1/2-y,1/2-z
1/2-x,1/2+y,1/2-z
-x,-y,-z
1/2+x,y,-z
-x,1/2+y,1/2+z
1/2+x,1/2-y,1/2+z
loop_
_atom_site_type_symbol
_atom_site_label
_atom_site_fract_x
_atom_site_fract_y
_atom_site_fract_z
Si Si1 0.670157 0.087450 0.290077
Si Si2 0.803721 0.130763 0.557428
Si Si3 0.851084 0.814731 0.910692
Si Si4 0.482786 0.767070 0.578967
Si Si5 0.013767 0.509599 0.650733
Si Si6 0.209123 0.844961 0.913569
O O1 0.611613 0.185779 0.355086
O O2 0.574294 0.008099 0.252104
O O3 0.736638 0.131714 0.193155
O O4 0.750000 0.000000 0.343453
O O5 0.732726 0.219119 0.626061
O O6 0.920599 0.145052 0.592378
O O7 0.899243 0.084546 0.088708
O O8 0.750000 0.000000 0.556264
O O9 0.910765 0.911960 0.845625
O O10 0.790300 0.881790 0.000814
O O11 0.937971 0.736437 0.967970
O O12 0.505697 0.872687 0.889179
O O13 0.809008 0.207303 0.452466
#
# Coordination Sequence:
#
# PCOD9410761 Si02
#       6
#     8   8   8   8   8   8
#     4  10  23  41  68 103 152 182 233 304 386 445
#     4  10  24  43  66  99 144 190 244 299 355 444
#     4  10  21  37  68 103 133 180 241 297 345 417
#     4  12  23  38  70 103 142 190 225 298 383 427
#     4  11  20  37  68 104 136 175 242 301 354 426
#     4   9  21  39  66 104 137 177 243 304 360 417
#
# _framework density 24.876669
#
# number of rings (size 3 to 8) (size 9 to 14) (size 15 to 20)
#    1.000    0.667    3.333    1.000    0.000    3.333 
#    0.000    0.000   11.000    0.000    0.000    0.000 
#    0.000    0.000    0.000    0.000    0.000    0.000 
#
# Total GULP energy -267637.816614 kJ/mol
# GULP energy per Si atom -5575.787846 kJ/mol
# Density = 2.482005 g / cm^3
# Si number density = 24.876669 Si / 1000 Ang^3
#
#
#
# Elastic Constant Matrix: (Units=GPa)
#
#
# Indices 1 2 3 4 5 6 
#
# 1 128.8618 53.9936 21.8430 0.0000 0.0000 0.0000
# 2 53.9936 149.1825 30.7412 0.0000 0.0000 0.0000
# 3 21.8430 30.7412 37.2046 0.0000 0.0000 0.0000
# 4 0.0000 0.0000 0.0000 25.2515 0.0000 0.0000
# 5 0.0000 0.0000 0.0000 0.0000 6.1455 0.0000
# 6 0.0000 0.0000 0.0000 0.0000 0.0000 55.3211
#
#
#
# Elastic Compliance Matrix: (Units=1/GPa)
#
#
# Indices 1 2 3 4 5 6 
#
# 1 0.009470 -0.002750 -0.003288 0.000000 0.000000 0.000000
# 2 -0.002750 0.008877 -0.005721 0.000000 0.000000 0.000000
# 3 -0.003288 -0.005721 0.033535 0.000000 0.000000 0.000000
# 4 0.000000 0.000000 0.000000 0.039602 0.000000 0.000000
# 5 0.000000 0.000000 0.000000 0.000000 0.162721 0.000000
# 6 0.000000 0.000000 0.000000 0.000000 0.000000 0.018076
#
#
# Mechanical properties :
#
#
# Convention : Reuss Voigt Hill
#
# Bulk Modulus (GPa) = 35.25318 58.71162 46.98240
# Shear Modulus (GPa) = 16.37988 31.25501 23.81745
#
# Velocity S-wave (km/s) = 2.56880 3.54842 3.09758
# Velocity P-wave (km/s) = 4.79586 6.35930 5.63209
#
# Compressibility (1/GPa) = 0.02836624
#
# Stress axis : x y z
#
# Youngs Moduli (GPa) = 105.59946 112.64686 29.81933
#
# Poissons Ratio (x) = 0.30977 0.09803
# Poissons Ratio (y) = 0.29039 0.17058
# Poissons Ratio (z) = 0.34716 0.64441
#
# Static dielectric constant tensor:
#      x y z
#    x 1.974460 0.000000 0.000000 
#    y 0.000000 1.670220 0.000000 
#    z 0.000000 0.000000 2.067190 
# 
# From -- ./inp_files/26044.got.cif
#   From: 2010.05.17/outbox.cif.g08.bks.cpg/sg52_14_cif.got.tgz:26044.got - 2010.06.03 12:15:38.
