data_PCOD9410848
_publ_section_title
;
Structure prediction by ZEFSAII (Michael W. Deem and Ramdas Pophale) SiO2 
 PCOD9410848
Probable space group: P N N A
;
_chemical_formula_sum "Si O2"
_cell_formula_units_Z 40
_cell_length_a 8.331399
_cell_length_b 15.583621
_cell_length_c 13.120469
_cell_angle_alpha 90.000000
_cell_angle_beta 90.000000
_cell_angle_gamma 90.000000
_cell_volume 1703.474633
_symmetry_space_group_name_H-M "P N N A"
_symmetry_group_IT_number 52
_symmetry_cell_setting 'orthorhombic'
loop_
_space_group_symop_operation_xyz
x,y,z
1/2-x,-y,z
x,1/2-y,1/2-z
1/2-x,1/2+y,1/2-z
-x,-y,-z
1/2+x,y,-z
-x,1/2+y,1/2+z
1/2+x,1/2-y,1/2+z
loop_
_atom_site_type_symbol
_atom_site_label
_atom_site_fract_x
_atom_site_fract_y
_atom_site_fract_z
Si Si1 0.642633 0.417406 0.540299
Si Si2 0.441972 0.177118 0.338079
Si Si3 0.134021 0.422756 0.696250
Si Si4 0.927130 0.193186 0.167183
Si Si5 0.764616 0.774669 0.491056
O O1 0.750000 0.500000 0.564318
O O2 0.584666 0.430196 0.423006
O O3 0.509573 0.391608 0.622458
O O4 0.725477 0.323894 0.532192
O O5 0.423859 0.250000 0.250000
O O6 0.490009 0.093708 0.272970
O O7 0.590113 0.198663 0.416381
O O8 0.287459 0.170412 0.411340
O O9 0.250000 0.500000 0.724884
O O10 0.253484 0.340526 0.703632
O O11 0.016524 0.250000 0.250000
O O12 0.890390 0.263095 0.081060
#
# Coordination Sequence:
#
# PCOD9410848 Si02
#       5
#     8   8   8   8   8
#     4  10  22  38  60  98 127 157 208 270 326 372
#     4  12  21  41  61  94 124 164 217 252 314 385
#     4  10  21  38  63  89 122 167 208 265 323 367
#     4  11  19  37  61  82 126 164 200 253 323 374
#     4  11  21  37  64  87 121 166 206 254 307 383
#
# _framework density 23.481415999999999
#
# number of rings (size 3 to 8) (size 9 to 14) (size 15 to 20)
#    0.000    1.200    8.000    0.000    0.000    9.600 
#    0.000    1.000    0.000    0.000    0.000    0.000 
#    0.000    0.000    0.000    0.000    0.000    0.000 
#
# Total GULP energy -223141.285800 kJ/mol
# GULP energy per Si atom -5578.532145 kJ/mol
# Density = 2.342797 g / cm^3
# Si number density = 23.481416 Si / 1000 Ang^3
#
#
#
# Elastic Constant Matrix: (Units=GPa)
#
#
# Indices 1 2 3 4 5 6 
#
# 1 56.4997 2.7802 41.8529 0.0000 0.0000 0.0000
# 2 2.7802 48.1222 20.5412 0.0000 0.0000 0.0000
# 3 41.8529 20.5412 106.3164 0.0000 0.0000 0.0000
# 4 0.0000 0.0000 0.0000 34.5489 0.0000 0.0000
# 5 0.0000 0.0000 0.0000 0.0000 27.9178 0.0000
# 6 0.0000 0.0000 0.0000 0.0000 0.0000 24.6722
#
#
#
# Elastic Compliance Matrix: (Units=1/GPa)
#
#
# Indices 1 2 3 4 5 6 
#
# 1 0.025390 0.003051 -0.010584 0.000000 0.000000 0.000000
# 2 0.003051 0.023015 -0.005648 0.000000 0.000000 0.000000
# 3 -0.010584 -0.005648 0.014664 0.000000 0.000000 0.000000
# 4 0.000000 0.000000 0.000000 0.028945 0.000000 0.000000
# 5 0.000000 0.000000 0.000000 0.000000 0.035819 0.000000
# 6 0.000000 0.000000 0.000000 0.000000 0.000000 0.040531
#
#
# Mechanical properties :
#
#
# Convention : Reuss Voigt Hill
#
# Bulk Modulus (GPa) = 27.24337 37.92076 32.58207
# Shear Modulus (GPa) = 24.15910 27.14539 25.65224
#
# Velocity S-wave (km/s) = 3.21107 3.40374 3.30881
# Velocity P-wave (km/s) = 5.03738 5.62420 5.33886
#
# Compressibility (1/GPa) = 0.03670617
#
# Stress axis : x y z
#
# Youngs Moduli (GPa) = 39.38614 43.45004 68.19513
#
# Poissons Ratio (x) = -0.13257 0.72181
# Poissons Ratio (y) = -0.12017 0.38515
# Poissons Ratio (z) = 0.41688 0.24540
#
# Static dielectric constant tensor:
#      x y z
#    x 2.029670 0.000000 0.000000 
#    y 0.000000 1.889020 0.000000 
#    z 0.000000 0.000000 2.067260 
# 
# From -- ./inp_files/16659.got.cif
#   From: 2010.05.17/outbox.cif.g08.bks.cpg/sg52_9_cif.got.tgz:16659.got - 2010.06.03 12:15:38.
