data_PCOD9410350
_publ_section_title
;
Structure prediction by ZEFSAII (Michael W. Deem and Ramdas Pophale) SiO2 
 PCOD9410350
Probable space group: P N N A
;
_chemical_formula_sum "Si O2"
_cell_formula_units_Z 40
_cell_length_a 16.419558
_cell_length_b 9.064817
_cell_length_c 10.339921
_cell_angle_alpha 90.000000
_cell_angle_beta 90.000000
_cell_angle_gamma 90.000000
_cell_volume 1538.996825
_symmetry_space_group_name_H-M "P N N A"
_symmetry_group_IT_number 52
_symmetry_cell_setting 'orthorhombic'
loop_
_space_group_symop_operation_xyz
x,y,z
1/2-x,-y,z
x,1/2-y,1/2-z
1/2-x,1/2+y,1/2-z
-x,-y,-z
1/2+x,y,-z
-x,1/2+y,1/2+z
1/2+x,1/2-y,1/2+z
loop_
_atom_site_type_symbol
_atom_site_label
_atom_site_fract_x
_atom_site_fract_y
_atom_site_fract_z
Si Si1 0.186672 0.316538 0.038283
Si Si2 0.750000 0.000000 0.078802
Si Si3 0.984630 0.725622 0.608996
Si Si4 0.869638 0.918145 0.275755
Si Si5 0.193478 0.750000 0.250000
Si Si6 0.957452 0.394368 0.636553
O O1 0.097975 0.315918 0.105191
O O2 0.252485 0.337769 0.148026
O O3 0.165494 0.429285 0.920557
O O4 0.218536 0.149837 0.991572
O O5 0.674031 0.971159 0.176757
O O6 0.023928 0.750000 0.750000
O O7 0.953550 0.559894 0.587615
O O8 0.032454 0.733559 0.473505
O O9 0.841931 0.750000 0.250000
O O10 0.965526 0.907149 0.236413
O O11 0.130407 0.634523 0.308162
#
# Coordination Sequence:
#
# PCOD9410350 Si02
#       6
#     8   4   8   8   4   8
#     4  11  22  42  66  99 141 175 229 283 337 419
#     4  10  20  40  70  92 128 188 222 262 348 402
#     4  11  23  45  71  98 136 183 232 282 349 414
#     4  10  20  43  68  94 136 178 223 282 338 403
#     4  12  24  42  70 104 134 182 228 278 356 402
#     4  11  23  45  71  99 140 180 228 293 344 407
#
# _framework density 25.990957000000002
#
# number of rings (size 3 to 8) (size 9 to 14) (size 15 to 20)
#    0.000    1.200    6.000    1.200    2.800    0.000 
#    7.200    2.000    0.000    0.000    0.000    0.000 
#    0.000    0.000    0.000    0.000    0.000    0.000 
#
# Total GULP energy -222741.906044 kJ/mol
# GULP energy per Si atom -5568.547651 kJ/mol
# Density = 2.593180 g / cm^3
# Si number density = 25.990957 Si / 1000 Ang^3
#
#
#
# Elastic Constant Matrix: (Units=GPa)
#
#
# Indices 1 2 3 4 5 6 
#
# 1 150.3765 -0.2179 92.0818 0.0000 0.0000 0.0000
# 2 -0.2179 32.6424 6.1403 0.0000 0.0000 0.0000
# 3 92.0818 6.1403 155.0230 0.0000 0.0000 0.0000
# 4 0.0000 0.0000 0.0000 14.3733 0.0000 0.0000
# 5 0.0000 0.0000 0.0000 0.0000 -16.4722 0.0000
# 6 0.0000 0.0000 0.0000 0.0000 0.0000 43.9612
#
#
#
# Elastic Compliance Matrix: (Units=1/GPa)
#
#
# Indices 1 2 3 4 5 6 
#
# 1 0.010502 0.001253 -0.006288 0.000000 0.000000 0.000000
# 2 0.001253 0.031014 -0.001973 0.000000 0.000000 0.000000
# 3 -0.006288 -0.001973 0.010264 0.000000 0.000000 0.000000
# 4 0.000000 0.000000 0.000000 0.069574 0.000000 0.000000
# 5 0.000000 0.000000 0.000000 0.000000 -0.060708 0.000000
# 6 0.000000 0.000000 0.000000 0.000000 0.000000 0.022747
#
#
# Mechanical properties :
#
#
# Convention : Reuss Voigt Hill
#
# Bulk Modulus (GPa) = 26.47946 59.33893 42.90920
# Shear Modulus (GPa) = 45.45632 24.37498 34.91565
#
# Velocity S-wave (km/s) = 4.18656 3.06572 3.66919
# Velocity P-wave (km/s) = 5.79480 5.95077 5.87330
#
# Compressibility (1/GPa) = 0.03776512
#
# Stress axis : x y z
#
# Youngs Moduli (GPa) = 95.21995 32.24305 97.43170
#
# Poissons Ratio (x) = -0.04040 0.61262
# Poissons Ratio (y) = -0.11930 0.19220
# Poissons Ratio (z) = 0.59871 0.06360
#
# Static dielectric constant tensor:
#      x y z
#    x 2.032680 0.000000 0.000000 
#    y 0.000000 1.694870 0.000000 
#    z 0.000000 0.000000 1.288620 
# 
# From -- ./inp_files/19311.got.cif
#   From: 2010.05.17/outbox.cif.g08.bks.cpg/sg52_10_cif.got.tgz:19311.got - 2010.06.03 12:15:38.
