data_PCOD9410547
_publ_section_title
;
Structure prediction by ZEFSAII (Michael W. Deem and Ramdas Pophale) SiO2 
 PCOD9410547
Probable space group: P N N A
;
_chemical_formula_sum "Si O2"
_cell_formula_units_Z 40
_cell_length_a 14.128532
_cell_length_b 6.364938
_cell_length_c 21.818205
_cell_angle_alpha 90.000000
_cell_angle_beta 90.000000
_cell_angle_gamma 90.000000
_cell_volume 1962.050744
_symmetry_space_group_name_H-M "P N N A"
_symmetry_group_IT_number 52
_symmetry_cell_setting 'orthorhombic'
loop_
_space_group_symop_operation_xyz
x,y,z
1/2-x,-y,z
x,1/2-y,1/2-z
1/2-x,1/2+y,1/2-z
-x,-y,-z
1/2+x,y,-z
-x,1/2+y,1/2+z
1/2+x,1/2-y,1/2+z
loop_
_atom_site_type_symbol
_atom_site_label
_atom_site_fract_x
_atom_site_fract_y
_atom_site_fract_z
Si Si1 0.750000 0.000000 0.503703
Si Si2 0.593224 0.223680 0.057945
Si Si3 0.139940 0.547661 0.339022
Si Si4 0.982014 0.647121 0.186388
Si Si5 0.114462 0.643456 0.471325
Si Si6 0.477600 0.750000 0.250000
O O1 0.831916 0.892849 0.464257
O O2 0.696536 0.813400 0.538783
O O3 0.575159 0.257290 0.129695
O O4 0.489122 0.247392 0.027419
O O5 0.626930 0.997519 0.031814
O O6 0.250000 0.500000 0.329990
O O7 0.091604 0.777697 0.326751
O O8 0.115990 0.500391 0.410213
O O9 0.084656 0.402925 0.291580
O O10 0.951545 0.750000 0.250000
O O11 0.971455 0.400744 0.200499
#
# Coordination Sequence:
#
# PCOD9410547 Si02
#       6
#     4   8   8   8   8   4
#     4  12  22  36  64  94 126 160 208 260 322 384
#     4  10  22  40  64  89 127 163 211 258 319 375
#     4  10  21  34  56  83 121 159 204 249 305 373
#     4   9  21  39  58  83 116 162 205 255 310 374
#     4  10  23  41  60  93 126 166 204 264 318 378
#     4  10  22  36  56  82 118 160 208 252 314 370
#
# _framework density 20.386831000000001
#
# number of rings (size 3 to 8) (size 9 to 14) (size 15 to 20)
#    0.000    2.000    0.000    2.400    4.200   12.800 
#    0.000    0.000    6.600    0.000    0.000    0.000 
#    0.000    0.000    0.000    0.000    0.000    0.000 
#
# Total GULP energy -222892.170689 kJ/mol
# GULP energy per Si atom -5572.304267 kJ/mol
# Density = 2.034043 g / cm^3
# Si number density = 20.386831 Si / 1000 Ang^3
#
#
#
# Elastic Constant Matrix: (Units=GPa)
#
#
# Indices 1 2 3 4 5 6 
#
# 1 60.9061 19.7143 22.5378 0.0000 0.0000 0.0000
# 2 19.7143 75.3783 41.6805 0.0000 0.0000 0.0000
# 3 22.5378 41.6805 128.8252 0.0000 0.0000 0.0000
# 4 0.0000 0.0000 0.0000 27.4341 0.0000 0.0000
# 5 0.0000 0.0000 0.0000 0.0000 14.9826 0.0000
# 6 0.0000 0.0000 0.0000 0.0000 0.0000 29.4242
#
#
#
# Elastic Compliance Matrix: (Units=1/GPa)
#
#
# Indices 1 2 3 4 5 6 
#
# 1 0.018359 -0.003685 -0.002020 0.000000 0.000000 0.000000
# 2 -0.003685 0.016897 -0.004822 0.000000 0.000000 0.000000
# 3 -0.002020 -0.004822 0.009676 0.000000 0.000000 0.000000
# 4 0.000000 0.000000 0.000000 0.036451 0.000000 0.000000
# 5 0.000000 0.000000 0.000000 0.000000 0.066744 0.000000
# 6 0.000000 0.000000 0.000000 0.000000 0.000000 0.033986
#
#
# Mechanical properties :
#
#
# Convention : Reuss Voigt Hill
#
# Bulk Modulus (GPa) = 41.87923 48.10831 44.99377
# Shear Modulus (GPa) = 23.68269 26.44662 25.06466
#
# Velocity S-wave (km/s) = 3.41202 3.60563 3.51016
# Velocity P-wave (km/s) = 6.00911 6.40180 6.20856
#
# Compressibility (1/GPa) = 0.02387818
#
# Stress axis : x y z
#
# Youngs Moduli (GPa) = 54.46991 59.18378 103.34894
#
# Poissons Ratio (x) = 0.21808 0.20873
# Poissons Ratio (y) = 0.20071 0.49836
# Poissons Ratio (z) = 0.11001 0.28539
#
# Static dielectric constant tensor:
#      x y z
#    x 1.739160 0.000000 0.000000 
#    y 0.000000 1.823030 0.000000 
#    z 0.000000 0.000000 1.729200 
# 
# From -- ./inp_files/40505.got.cif
#   From: 2010.05.17/outbox.cif.g08.bks.cpg/sg52_21_cif.got.tgz:40505.got - 2010.06.03 12:15:38.
