data_PCOD9410076
_publ_section_title
;
Structure prediction by ZEFSAII (Michael W. Deem and Ramdas Pophale) SiO2 
 PCOD9410076
Probable space group: P N N A
;
_chemical_formula_sum "Si O2"
_cell_formula_units_Z 44
_cell_length_a 7.598886
_cell_length_b 8.293228
_cell_length_c 33.141772
_cell_angle_alpha 90.000000
_cell_angle_beta 90.000000
_cell_angle_gamma 90.000000
_cell_volume 2088.571078
_symmetry_space_group_name_H-M "P N N A"
_symmetry_group_IT_number 52
_symmetry_cell_setting 'orthorhombic'
loop_
_space_group_symop_operation_xyz
x,y,z
1/2-x,-y,z
x,1/2-y,1/2-z
1/2-x,1/2+y,1/2-z
-x,-y,-z
1/2+x,y,-z
-x,1/2+y,1/2+z
1/2+x,1/2-y,1/2+z
loop_
_atom_site_type_symbol
_atom_site_label
_atom_site_fract_x
_atom_site_fract_y
_atom_site_fract_z
Si Si1 0.137610 0.159003 0.457399
Si Si2 0.473420 0.160443 0.025689
Si Si3 0.897457 0.642855 0.710637
Si Si4 0.639269 0.232751 0.875748
Si Si5 0.021915 0.372757 0.613183
Si Si6 0.250000 0.500000 0.680011
O O1 0.274868 0.309200 0.459860
O O2 0.013927 0.195347 0.494822
O O3 0.061636 0.161882 0.412156
O O4 0.250000 0.000000 0.461622
O O5 0.584134 0.156546 0.067232
O O6 0.500000 0.000000 0.000000
O O7 0.750000 0.500000 0.706640
O O8 0.870440 0.750000 0.750000
O O9 0.894776 0.757722 0.671191
O O10 0.089494 0.561258 0.707138
O O11 0.852034 0.237561 0.878827
O O12 0.559289 0.054012 0.884133
O O13 0.167012 0.369640 0.648301
#
# Coordination Sequence:
#
# PCOD9410076 Si02
#       6
#     8   8   8   8   8   4
#     4  11  23  35  53  84 130 162 199 268 324 367
#     4  11  21  34  57  87 113 164 223 251 296 372
#     4  11  23  41  68  97 127 164 210 265 325 396
#     4   9  17  38  57  80 113 161 215 249 312 376
#     4   9  17  32  59  85 111 156 213 268 283 359
#     4  10  20  38  62  96 126 160 206 268 318 368
#
# _framework density 21.067034
#
# number of rings (size 3 to 8) (size 9 to 14) (size 15 to 20)
#    0.000    1.818    5.455    1.091    2.545    1.455 
#    0.000    0.000    0.000    0.000    0.000    0.000 
#    0.000    0.000    0.000    0.000    0.000    0.000 
#
# Total GULP energy -245209.089458 kJ/mol
# GULP energy per Si atom -5572.933851 kJ/mol
# Density = 2.101908 g / cm^3
# Si number density = 21.067034 Si / 1000 Ang^3
#
#
#
# Elastic Constant Matrix: (Units=GPa)
#
#
# Indices 1 2 3 4 5 6 
#
# 1 75.7569 4.7427 16.4671 0.0000 0.0000 0.0000
# 2 4.7427 44.3138 30.8244 0.0000 0.0000 0.0000
# 3 16.4671 30.8244 161.5401 0.0000 0.0000 0.0000
# 4 0.0000 0.0000 0.0000 10.8670 0.0000 0.0000
# 5 0.0000 0.0000 0.0000 0.0000 16.7592 0.0000
# 6 0.0000 0.0000 0.0000 0.0000 0.0000 16.4817
#
#
#
# Elastic Compliance Matrix: (Units=1/GPa)
#
#
# Indices 1 2 3 4 5 6 
#
# 1 0.013511 -0.000563 -0.001270 0.000000 0.000000 0.000000
# 2 -0.000563 0.026043 -0.004912 0.000000 0.000000 0.000000
# 3 -0.001270 -0.004912 0.007257 0.000000 0.000000 0.000000
# 4 0.000000 0.000000 0.000000 0.092022 0.000000 0.000000
# 5 0.000000 0.000000 0.000000 0.000000 0.059669 0.000000
# 6 0.000000 0.000000 0.000000 0.000000 0.000000 0.060673
#
#
# Mechanical properties :
#
#
# Convention : Reuss Voigt Hill
#
# Bulk Modulus (GPa) = 30.00985 42.85327 36.43156
# Shear Modulus (GPa) = 17.61972 24.12669 20.87320
#
# Velocity S-wave (km/s) = 2.89513 3.38780 3.15111
# Velocity P-wave (km/s) = 5.04496 5.97398 5.52902
#
# Compressibility (1/GPa) = 0.03332239
#
# Stress axis : x y z
#
# Youngs Moduli (GPa) = 74.01163 38.39748 137.79457
#
# Poissons Ratio (x) = 0.02161 0.17499
# Poissons Ratio (y) = 0.04165 0.67686
# Poissons Ratio (z) = 0.09399 0.18861
#
# Static dielectric constant tensor:
#      x y z
#    x 1.836310 0.000000 0.000000 
#    y 0.000000 1.788270 0.000000 
#    z 0.000000 0.000000 1.841450 
# 
# From -- ./inp_files/44268.got.cif
#   From: 2010.05.17/outbox.cif.g08.bks.cpg/sg52_23_cif.got.tgz:44268.got - 2010.06.03 12:15:38.
