data_PCOD9410424
_publ_section_title
;
Structure prediction by ZEFSAII (Michael W. Deem and Ramdas Pophale) SiO2 
 PCOD9410424
Probable space group: P N N A
;
_chemical_formula_sum "Si O2"
_cell_formula_units_Z 40
_cell_length_a 11.845416
_cell_length_b 21.512616
_cell_length_c 7.574589
_cell_angle_alpha 90.000000
_cell_angle_beta 90.000000
_cell_angle_gamma 90.000000
_cell_volume 1930.201351
_symmetry_space_group_name_H-M "P N N A"
_symmetry_group_IT_number 52
_symmetry_cell_setting 'orthorhombic'
loop_
_space_group_symop_operation_xyz
x,y,z
1/2-x,-y,z
x,1/2-y,1/2-z
1/2-x,1/2+y,1/2-z
-x,-y,-z
1/2+x,y,-z
-x,1/2+y,1/2+z
1/2+x,1/2-y,1/2+z
loop_
_atom_site_type_symbol
_atom_site_label
_atom_site_fract_x
_atom_site_fract_y
_atom_site_fract_z
Si Si1 0.219568 0.200431 0.402629
Si Si2 0.096920 0.907413 0.345314
Si Si3 0.991784 0.136281 0.312175
Si Si4 0.677021 0.750000 0.250000
Si Si5 0.750000 0.500000 0.624131
Si Si6 0.439576 0.933965 0.962988
O O1 0.206613 0.250000 0.250000
O O2 0.321873 0.153318 0.352053
O O3 0.101951 0.163560 0.410117
O O4 0.247204 0.239149 0.578205
O O5 0.167964 0.962739 0.256299
O O6 0.060739 0.913073 0.549645
O O7 0.987492 0.904669 0.216642
O O8 0.028769 0.107747 0.128667
O O9 0.904007 0.190095 0.260476
O O10 0.691074 0.450477 0.493329
O O11 0.500000 0.000000 0.000000
#
# Coordination Sequence:
#
# PCOD9410424 Si02
#       6
#     8   8   8   4   4   8
#     4  11  22  42  67  93 130 165 206 267 321 384
#     4  10  23  42  64  92 125 168 211 265 317 375
#     4  11  22  43  66  95 128 165 213 266 321 393
#     4  10  24  42  66 100 122 166 216 262 332 384
#     4  10  20  42  64  92 130 164 214 262 316 378
#     4  10  22  41  62  90 127 167 214 258 314 377
#
# _framework density 20.723227000000001
#
# number of rings (size 3 to 8) (size 9 to 14) (size 15 to 20)
#    0.000    1.600    3.000    1.200    0.000    4.800 
#   21.600    2.000    0.000    0.000    0.000    0.000 
#    0.000    0.000    0.000    0.000    0.000    0.000 
#
# Total GULP energy -223118.813120 kJ/mol
# GULP energy per Si atom -5577.970328 kJ/mol
# Density = 2.067606 g / cm^3
# Si number density = 20.723227 Si / 1000 Ang^3
#
#
#
# Elastic Constant Matrix: (Units=GPa)
#
#
# Indices 1 2 3 4 5 6 
#
# 1 -134.0170 46.5424 21.4080 0.0000 0.0000 0.0000
# 2 46.5424 36.0663 43.3489 0.0000 0.0000 0.0000
# 3 21.4080 43.3489 119.8658 0.0000 0.0000 0.0000
# 4 0.0000 0.0000 0.0000 20.9487 0.0000 0.0000
# 5 0.0000 0.0000 0.0000 0.0000 23.5842 0.0000
# 6 0.0000 0.0000 0.0000 0.0000 0.0000 13.6708
#
#
#
# Elastic Compliance Matrix: (Units=1/GPa)
#
#
# Indices 1 2 3 4 5 6 
#
# 1 -0.004724 0.008990 -0.002407 0.000000 0.000000 0.000000
# 2 0.008990 0.031938 -0.013156 0.000000 0.000000 0.000000
# 3 -0.002407 -0.013156 0.013530 0.000000 0.000000 0.000000
# 4 0.000000 0.000000 0.000000 0.047736 0.000000 0.000000
# 5 0.000000 0.000000 0.000000 0.000000 0.042401 0.000000
# 6 0.000000 0.000000 0.000000 0.000000 0.000000 0.073149
#
#
# Mechanical properties :
#
#
# Convention : Reuss Voigt Hill
#
# Bulk Modulus (GPa) = 36.23533 27.16820 31.70177
# Shear Modulus (GPa) = 22.08727 5.68177 13.88452
#
# Velocity S-wave (km/s) = 3.26823 1.65762 2.59124
# Velocity P-wave (km/s) = 5.63606 4.09903 4.92784
#
# Compressibility (1/GPa) = 0.02759737
#
# Stress axis : x y z
#
# Youngs Moduli (GPa) = -211.67620 31.31113 73.90800
#
# Poissons Ratio (x) = -0.28149 0.17793
# Poissons Ratio (y) = 1.90297 0.97231
# Poissons Ratio (z) = -0.50960 0.41192
#
# Static dielectric constant tensor:
#      x y z
#    x 1.831480 0.000000 0.000000 
#    y 0.000000 1.730350 0.000000 
#    z 0.000000 0.000000 1.689200 
# 
# From -- ./inp_files/1406.got.cif
#   From: 2010.05.17/outbox.cif.g08.bks.cpg/sg52_1_cif.got.tgz:1406.got - 2010.06.03 12:15:38.
