data_PCOD9410439
_publ_section_title
;
Structure prediction by ZEFSAII (Michael W. Deem and Ramdas Pophale) SiO2 
 PCOD9410439
Probable space group: P N N A
;
_chemical_formula_sum "Si O2"
_cell_formula_units_Z 32
_cell_length_a 13.070581
_cell_length_b 5.533880
_cell_length_c 19.310653
_cell_angle_alpha 90.000000
_cell_angle_beta 90.000000
_cell_angle_gamma 90.000000
_cell_volume 1396.759359
_symmetry_space_group_name_H-M "P N N A"
_symmetry_group_IT_number 52
_symmetry_cell_setting 'orthorhombic'
loop_
_space_group_symop_operation_xyz
x,y,z
1/2-x,-y,z
x,1/2-y,1/2-z
1/2-x,1/2+y,1/2-z
-x,-y,-z
1/2+x,y,-z
-x,1/2+y,1/2+z
1/2+x,1/2-y,1/2+z
loop_
_atom_site_type_symbol
_atom_site_label
_atom_site_fract_x
_atom_site_fract_y
_atom_site_fract_z
Si Si1 0.915549 0.836970 0.918096
Si Si2 0.469690 0.510509 0.710086
Si Si3 0.873349 0.268983 0.469669
Si Si4 0.750000 0.000000 0.581856
Si Si5 0.250000 0.000000 0.855808
O O1 0.816749 0.708901 0.884283
O O2 0.963327 0.008075 0.859703
O O3 0.018746 0.691071 0.937687
O O4 0.884893 0.974744 0.989096
O O5 0.479290 0.250000 0.750000
O O6 0.350471 0.547800 0.689141
O O7 0.502141 0.750000 0.750000
O O8 0.790892 0.294431 0.408592
O O9 0.834817 0.101768 0.530081
#
# Coordination Sequence:
#
# PCOD9410439 Si02
#       5
#     8   8   8   4   4
#     4  10  23  40  65  95 138 176 229 284 349 417
#     4  11  26  45  69  97 141 189 237 284 344 422
#     4  10  21  39  61 106 134 167 219 292 363 410
#     4  12  20  36  69  97 134 178 218 286 348 422
#     4  10  20  42  67 107 136 174 230 294 366 426
#
# _framework density 22.910174999999999
#
# number of rings (size 3 to 8) (size 9 to 14) (size 15 to 20)
#    0.000    1.500    2.500    1.500    3.500    4.000 
#    0.000    0.000    5.500    0.000    0.000    0.000 
#    0.000    0.000    0.000    0.000    0.000    0.000 
#
# Total GULP energy -178428.162610 kJ/mol
# GULP energy per Si atom -5575.880082 kJ/mol
# Density = 2.285803 g / cm^3
# Si number density = 22.910175 Si / 1000 Ang^3
#
#
#
# Elastic Constant Matrix: (Units=GPa)
#
#
# Indices 1 2 3 4 5 6 
#
# 1 113.9020 37.2113 24.7158 0.0000 0.0000 0.0000
# 2 37.2113 62.8904 18.1261 0.0000 0.0000 0.0000
# 3 24.7158 18.1261 66.9767 0.0000 0.0000 0.0000
# 4 0.0000 0.0000 0.0000 10.8948 0.0000 0.0000
# 5 0.0000 0.0000 0.0000 0.0000 -20.1777 0.0000
# 6 0.0000 0.0000 0.0000 0.0000 0.0000 27.5658
#
#
#
# Elastic Compliance Matrix: (Units=1/GPa)
#
#
# Indices 1 2 3 4 5 6 
#
# 1 0.011272 -0.005933 -0.002554 0.000000 0.000000 0.000000
# 2 -0.005933 0.020369 -0.003323 0.000000 0.000000 0.000000
# 3 -0.002554 -0.003323 0.016772 0.000000 0.000000 0.000000
# 4 0.000000 0.000000 0.000000 0.091787 0.000000 0.000000
# 5 0.000000 0.000000 0.000000 0.000000 -0.049560 0.000000
# 6 0.000000 0.000000 0.000000 0.000000 0.000000 0.036277
#
#
# Mechanical properties :
#
#
# Convention : Reuss Voigt Hill
#
# Bulk Modulus (GPa) = 40.33403 44.87504 42.60453
# Shear Modulus (GPa) = 31.48558 14.57096 23.02827
#
# Velocity S-wave (km/s) = 3.71118 2.52465 3.17386
# Velocity P-wave (km/s) = 6.00061 5.30362 5.66285
#
# Compressibility (1/GPa) = 0.02479296
#
# Stress axis : x y z
#
# Youngs Moduli (GPa) = 88.71486 49.09383 59.62214
#
# Poissons Ratio (x) = 0.29130 0.15227
# Poissons Ratio (y) = 0.52639 0.19812
# Poissons Ratio (z) = 0.22656 0.16314
#
# Static dielectric constant tensor:
#      x y z
#    x 1.851360 0.000000 0.000000 
#    y 0.000000 4.950560 0.000000 
#    z 0.000000 0.000000 1.836690 
# 
# From -- ./inp_files/32635.got.cif
#   From: 2010.05.17/outbox.cif.g08.bks.cpg/sg52_17_cif.got.tgz:32635.got - 2010.06.03 12:15:38.
