data_PCOD9410427
_publ_section_title
;
Structure prediction by ZEFSAII (Michael W. Deem and Ramdas Pophale) SiO2 
 PCOD9410427
Probable space group: P N N A
;
_chemical_formula_sum "Si O2"
_cell_formula_units_Z 48
_cell_length_a 26.008641
_cell_length_b 13.842804
_cell_length_c 6.463564
_cell_angle_alpha 90.000000
_cell_angle_beta 90.000000
_cell_angle_gamma 90.000000
_cell_volume 2327.093233
_symmetry_space_group_name_H-M "P N N A"
_symmetry_group_IT_number 52
_symmetry_cell_setting 'orthorhombic'
loop_
_space_group_symop_operation_xyz
x,y,z
1/2-x,-y,z
x,1/2-y,1/2-z
1/2-x,1/2+y,1/2-z
-x,-y,-z
1/2+x,y,-z
-x,1/2+y,1/2+z
1/2+x,1/2-y,1/2+z
loop_
_atom_site_type_symbol
_atom_site_label
_atom_site_fract_x
_atom_site_fract_y
_atom_site_fract_z
Si Si1 0.963574 0.848718 0.870756
Si Si2 0.232342 0.750000 0.750000
Si Si3 0.001453 0.750000 0.250000
Si Si4 0.039321 0.586737 0.941480
Si Si5 0.620696 0.009377 0.687890
Si Si6 0.184350 0.847291 0.127358
Si Si7 0.712039 0.345701 0.871366
O O1 0.950301 0.750000 0.750000
O O2 0.922191 0.927809 0.805936
O O3 0.019619 0.881165 0.783798
O O4 0.967697 0.821660 0.109243
O O5 0.197799 0.682195 0.604973
O O6 0.267094 0.812127 0.593598
O O7 0.031518 0.679417 0.092761
O O8 0.094615 0.542997 0.991229
O O9 0.000000 0.500000 0.000000
O O10 0.667443 0.077035 0.620496
O O11 0.642763 0.928621 0.840265
O O12 0.168730 0.750000 0.250000
O O13 0.237929 0.878061 0.239353
O O14 0.692992 0.250000 0.750000
#
# Coordination Sequence:
#
# PCOD9410427 Si02
#       7
#     8   4   4   8   8   8   8
#     4   9  20  41  63  89 123 162 206 256 318 374
#     4   8  18  42  63  82 126 172 202 248 317 366
#     4  10  20  42  65  80 128 170 194 266 317 360
#     4   9  21  38  60  89 122 157 205 252 314 374
#     4  11  20  36  65  93 123 160 210 262 310 378
#     4   9  20  39  60  86 130 164 203 258 312 367
#     4   9  19  39  61  87 126 165 200 258 313 368
#
# _framework density 20.626591000000001
#
# number of rings (size 3 to 8) (size 9 to 14) (size 15 to 20)
#    0.000    3.000    0.000    1.000    1.167    2.667 
#    0.000   50.833    1.833    0.000    0.000    0.000 
#    0.000    0.000    0.000    0.000    0.000    0.000 
#
# Total GULP energy -267897.557910 kJ/mol
# GULP energy per Si atom -5581.199123 kJ/mol
# Density = 2.057964 g / cm^3
# Si number density = 20.626591 Si / 1000 Ang^3
#
#
#
# Elastic Constant Matrix: (Units=GPa)
#
#
# Indices 1 2 3 4 5 6 
#
# 1 96.0006 68.8209 49.0529 0.0000 0.0000 0.0000
# 2 68.8209 116.5549 40.4749 0.0000 0.0000 0.0000
# 3 49.0529 40.4749 122.8277 0.0000 0.0000 0.0000
# 4 0.0000 0.0000 0.0000 16.0071 0.0000 0.0000
# 5 0.0000 0.0000 0.0000 0.0000 42.2112 0.0000
# 6 0.0000 0.0000 0.0000 0.0000 0.0000 7.9930
#
#
#
# Elastic Compliance Matrix: (Units=1/GPa)
#
#
# Indices 1 2 3 4 5 6 
#
# 1 0.020183 -0.010296 -0.004667 0.000000 0.000000 0.000000
# 2 -0.010296 0.014941 -0.000811 0.000000 0.000000 0.000000
# 3 -0.004667 -0.000811 0.010273 0.000000 0.000000 0.000000
# 4 0.000000 0.000000 0.000000 0.062472 0.000000 0.000000
# 5 0.000000 0.000000 0.000000 0.000000 0.023690 0.000000
# 6 0.000000 0.000000 0.000000 0.000000 0.000000 0.125110
#
#
# Mechanical properties :
#
#
# Convention : Reuss Voigt Hill
#
# Bulk Modulus (GPa) = 72.22137 72.45342 72.33740
# Shear Modulus (GPa) = 17.07450 25.04454 21.05952
#
# Velocity S-wave (km/s) = 2.88026 3.48830 3.19876
# Velocity P-wave (km/s) = 6.79345 7.17125 6.98490
#
# Compressibility (1/GPa) = 0.01384632
#
# Stress axis : x y z
#
# Youngs Moduli (GPa) = 49.54767 66.93017 97.34390
#
# Poissons Ratio (x) = 0.68913 0.45434
# Poissons Ratio (y) = 0.51015 0.07899
# Poissons Ratio (z) = 0.23125 0.05431
#
# Static dielectric constant tensor:
#      x y z
#    x 1.742260 0.000000 0.000000 
#    y 0.000000 1.753690 0.000000 
#    z 0.000000 0.000000 1.729570 
# 
# From -- ./inp_files/5826.got.cif
#   From: 2010.05.17/outbox.cif.g08.bks.cpg/sg52_3_cif.got.tgz:5826.got - 2010.06.03 12:15:38.
