data_PCOD9410792
_publ_section_title
;
Structure prediction by ZEFSAII (Michael W. Deem and Ramdas Pophale) SiO2 
 PCOD9410792
Probable space group: P N N A
;
_chemical_formula_sum "Si O2"
_cell_formula_units_Z 32
_cell_length_a 19.444823
_cell_length_b 5.263774
_cell_length_c 11.887969
_cell_angle_alpha 90.000000
_cell_angle_beta 90.000000
_cell_angle_gamma 90.000000
_cell_volume 1216.771119
_symmetry_space_group_name_H-M "P N N A"
_symmetry_group_IT_number 52
_symmetry_cell_setting 'orthorhombic'
loop_
_space_group_symop_operation_xyz
x,y,z
1/2-x,-y,z
x,1/2-y,1/2-z
1/2-x,1/2+y,1/2-z
-x,-y,-z
1/2+x,y,-z
-x,1/2+y,1/2+z
1/2+x,1/2-y,1/2+z
loop_
_atom_site_type_symbol
_atom_site_label
_atom_site_fract_x
_atom_site_fract_y
_atom_site_fract_z
Si Si1 0.559967 0.931965 0.853029
Si Si2 0.911030 0.111867 0.110934
Si Si3 0.699607 0.214041 0.875129
Si Si4 0.175688 0.411315 0.895259
O O1 0.574847 0.750000 0.750000
O O2 0.483396 0.034745 0.836094
O O3 0.622630 0.124428 0.853939
O O4 0.566327 0.831582 0.980569
O O5 0.877244 0.376852 0.145483
O O6 0.857358 0.871562 0.120625
O O7 0.729845 0.250000 0.750000
O O8 0.750000 0.000000 0.928274
O O9 0.686366 0.427213 0.968862
O O10 0.250000 0.500000 0.847730
#
# Coordination Sequence:
#
# PCOD9410792 Si02
#       4
#     8   8   8   8
#     4  10  21  38  59  88 126 165 204 259 316 375
#     4  10  23  38  61  92 120 160 214 254 313 393
#     4  11  21  33  57  91 129 167 209 254 317 399
#     4  11  21  39  61  86 121 161 204 262 319 372
#
# _framework density 26.299112000000001
#
# number of rings (size 3 to 8) (size 9 to 14) (size 15 to 20)
#    0.000    1.500    0.000    6.750    0.000   11.000 
#    0.000    0.000    0.000    3.000    0.000    0.000 
#    0.000    0.000    0.000    0.000    0.000    0.000 
#
# Total GULP energy -178864.436368 kJ/mol
# GULP energy per Si atom -5589.513637 kJ/mol
# Density = 2.623925 g / cm^3
# Si number density = 26.299112 Si / 1000 Ang^3
#
#
#
# Elastic Constant Matrix: (Units=GPa)
#
#
# Indices 1 2 3 4 5 6 
#
# 1 205.1899 66.0802 -2.8817 0.0000 0.0000 0.0000
# 2 66.0802 115.4261 25.3143 0.0000 0.0000 0.0000
# 3 -2.8817 25.3143 83.4193 0.0000 0.0000 0.0000
# 4 0.0000 0.0000 0.0000 50.3087 0.0000 0.0000
# 5 0.0000 0.0000 0.0000 0.0000 -82.4814 0.0000
# 6 0.0000 0.0000 0.0000 0.0000 0.0000 35.8676
#
#
#
# Elastic Compliance Matrix: (Units=1/GPa)
#
#
# Indices 1 2 3 4 5 6 
#
# 1 0.006117 -0.003801 0.001365 0.000000 0.000000 0.000000
# 2 -0.003801 0.011643 -0.003665 0.000000 0.000000 0.000000
# 3 0.001365 -0.003665 0.013147 0.000000 0.000000 0.000000
# 4 0.000000 0.000000 0.000000 0.019877 0.000000 0.000000
# 5 0.000000 0.000000 0.000000 0.000000 -0.012124 0.000000
# 6 0.000000 0.000000 0.000000 0.000000 0.000000 0.027880
#
#
# Mechanical properties :
#
#
# Convention : Reuss Voigt Hill
#
# Bulk Modulus (GPa) = 53.46119 64.56232 59.01176
# Shear Modulus (GPa) = 58.83904 21.77382 40.30643
#
# Velocity S-wave (km/s) = 4.73514 2.88050 3.91911
# Velocity P-wave (km/s) = 7.08997 5.97207 6.55489
#
# Compressibility (1/GPa) = 0.01870516
#
# Stress axis : x y z
#
# Youngs Moduli (GPa) = 163.48323 85.88597 76.06394
#
# Poissons Ratio (x) = 0.32646 -0.10381
# Poissons Ratio (y) = 0.62142 0.27874
# Poissons Ratio (z) = -0.22312 0.31474
#
# Static dielectric constant tensor:
#      x y z
#    x 1.989250 0.000000 0.000000 
#    y 0.000000 2.099960 0.000000 
#    z 0.000000 0.000000 2.201520 
# 
# From -- ./inp_files/27598.got.cif
#   From: 2010.05.17/outbox.cif.g08.bks.cpg/sg52_14_cif.got.tgz:27598.got - 2010.06.03 12:15:38.
