data_PCOD9410513
_publ_section_title
;
Structure prediction by ZEFSAII (Michael W. Deem and Ramdas Pophale) SiO2 
 PCOD9410513
Probable space group: P N N A
;
_chemical_formula_sum "Si O2"
_cell_formula_units_Z 32
_cell_length_a 29.193456
_cell_length_b 7.198533
_cell_length_c 6.223928
_cell_angle_alpha 90.000000
_cell_angle_beta 90.000000
_cell_angle_gamma 90.000000
_cell_volume 1307.958820
_symmetry_space_group_name_H-M "P N N A"
_symmetry_group_IT_number 52
_symmetry_cell_setting 'orthorhombic'
loop_
_space_group_symop_operation_xyz
x,y,z
1/2-x,-y,z
x,1/2-y,1/2-z
1/2-x,1/2+y,1/2-z
-x,-y,-z
1/2+x,y,-z
-x,1/2+y,1/2+z
1/2+x,1/2-y,1/2+z
loop_
_atom_site_type_symbol
_atom_site_label
_atom_site_fract_x
_atom_site_fract_y
_atom_site_fract_z
Si Si1 0.868401 0.534671 0.397831
Si Si2 0.204299 0.750000 0.750000
Si Si3 0.250000 0.000000 0.413758
Si Si4 0.674322 0.250000 0.750000
Si Si5 0.546559 0.567013 0.112219
Si Si6 0.604149 0.750000 0.750000
O O1 0.828093 0.433368 0.266376
O O2 0.854549 0.718688 0.529763
O O3 0.917187 0.538137 0.271927
O O4 0.871396 0.383726 0.587464
O O5 0.236270 0.818952 0.555480
O O6 0.292916 0.927959 0.278353
O O7 0.534638 0.750000 0.250000
O O8 0.500000 0.500000 0.000000
O O9 0.575472 0.619667 0.904841
#
# Coordination Sequence:
#
# PCOD9410513 Si02
#       6
#     8   4   4   4   8   4
#     4  11  23  44  74 103 144 199 244 301 366 453
#     4  12  22  46  70 102 148 188 250 294 380 432
#     4  12  26  44  70 108 148 194 240 320 360 442
#     4  12  26  45  70 109 150 190 253 298 379 442
#     4  10  23  46  74 106 143 192 245 311 370 435
#     4  10  20  47  68 103 142 194 235 304 365 430
#
# _framework density 24.465603000000002
#
# number of rings (size 3 to 8) (size 9 to 14) (size 15 to 20)
#    0.000    1.000    3.750    4.500    0.000    4.000 
#    6.750    0.000    0.000    0.000    0.000    0.000 
#    0.000    0.000    0.000    0.000    0.000    0.000 
#
# Total GULP energy -178650.618290 kJ/mol
# GULP energy per Si atom -5582.831822 kJ/mol
# Density = 2.440992 g / cm^3
# Si number density = 24.465603 Si / 1000 Ang^3
#
#
#
# Elastic Constant Matrix: (Units=GPa)
#
#
# Indices 1 2 3 4 5 6 
#
# 1 156.2257 51.7477 71.7168 0.0000 0.0000 0.0000
# 2 51.7477 78.8692 24.0373 0.0000 0.0000 0.0000
# 3 71.7168 24.0373 107.3246 0.0000 0.0000 0.0000
# 4 0.0000 0.0000 0.0000 47.4395 0.0000 0.0000
# 5 0.0000 0.0000 0.0000 0.0000 -45.1606 0.0000
# 6 0.0000 0.0000 0.0000 0.0000 0.0000 2.7584
#
#
#
# Elastic Compliance Matrix: (Units=1/GPa)
#
#
# Indices 1 2 3 4 5 6 
#
# 1 0.010992 -0.005338 -0.006150 0.000000 0.000000 0.000000
# 2 -0.005338 0.016200 -0.000061 0.000000 0.000000 0.000000
# 3 -0.006150 -0.000061 0.013441 0.000000 0.000000 0.000000
# 4 0.000000 0.000000 0.000000 0.021079 0.000000 0.000000
# 5 0.000000 0.000000 0.000000 0.000000 -0.022143 0.000000
# 6 0.000000 0.000000 0.000000 0.000000 0.000000 0.362528
#
#
# Mechanical properties :
#
#
# Convention : Reuss Voigt Hill
#
# Bulk Modulus (GPa) = 57.02874 70.82479 63.92676
# Shear Modulus (GPa) = 11.59983 14.00197 12.80090
#
# Velocity S-wave (km/s) = 2.17981 2.39490 2.28988
# Velocity P-wave (km/s) = 5.44939 6.05466 5.75998
#
# Compressibility (1/GPa) = 0.01753502
#
# Stress axis : x y z
#
# Youngs Moduli (GPa) = 90.97359 61.72734 74.40106
#
# Poissons Ratio (x) = 0.32950 0.45755
# Poissons Ratio (y) = 0.48561 0.00457
# Poissons Ratio (z) = 0.55946 0.00379
#
# Static dielectric constant tensor:
#      x y z
#    x 1.943680 0.000000 0.000000 
#    y 0.000000 1.820030 0.000000 
#    z 0.000000 0.000000 2.673820 
# 
# From -- ./inp_files/6195.got.cif
#   From: 2010.05.17/outbox.cif.g08.bks.cpg/sg52_4_cif.got.tgz:6195.got - 2010.06.03 12:15:38.
