data_PCOD9410832
_publ_section_title
;
Structure prediction by ZEFSAII (Michael W. Deem and Ramdas Pophale) SiO2 
 PCOD9410832
Probable space group: P N N A
;
_chemical_formula_sum "Si O2"
_cell_formula_units_Z 32
_cell_length_a 4.947621
_cell_length_b 17.200223
_cell_length_c 15.526949
_cell_angle_alpha 90.000000
_cell_angle_beta 90.000000
_cell_angle_gamma 90.000000
_cell_volume 1321.346225
_symmetry_space_group_name_H-M "P N N A"
_symmetry_group_IT_number 52
_symmetry_cell_setting 'orthorhombic'
loop_
_space_group_symop_operation_xyz
x,y,z
1/2-x,-y,z
x,1/2-y,1/2-z
1/2-x,1/2+y,1/2-z
-x,-y,-z
1/2+x,y,-z
-x,1/2+y,1/2+z
1/2+x,1/2-y,1/2+z
loop_
_atom_site_type_symbol
_atom_site_label
_atom_site_fract_x
_atom_site_fract_y
_atom_site_fract_z
Si Si1 0.376254 0.922463 0.057990
Si Si2 0.009845 0.055668 0.698072
Si Si3 0.649572 0.180752 0.440981
Si Si4 0.865812 0.304485 0.678144
O O1 0.330190 0.846454 0.112441
O O2 0.250000 0.000000 0.102740
O O3 0.682239 0.921603 0.026211
O O4 0.085477 0.101275 0.610211
O O5 0.986978 0.124227 0.767888
O O6 0.250000 0.000000 0.725304
O O7 0.750000 0.000000 0.688032
O O8 0.452587 0.184582 0.523863
O O9 0.568855 0.250881 0.376670
O O10 0.729204 0.250000 0.750000
#
# Coordination Sequence:
#
# PCOD9410832 Si02
#       4
#     8   8   8   8
#     4  10  21  38  62  89 118 156 201 251 302 357
#     4  11  25  43  66  95 129 170 213 263 319 378
#     4  11  24  43  68  95 127 169 215 265 317 376
#     4  10  23  42  64  93 129 167 208 257 317 379
#
# _framework density 24.217724
#
# number of rings (size 3 to 8) (size 9 to 14) (size 15 to 20)
#    0.000    1.500    0.000    3.750    0.000   10.000 
#    0.000   13.750    0.000    0.000    0.000    0.000 
#    0.000    0.000    0.000    0.000    0.000    0.000 
#
# Total GULP energy -179185.580282 kJ/mol
# GULP energy per Si atom -5599.549384 kJ/mol
# Density = 2.416260 g / cm^3
# Si number density = 24.217724 Si / 1000 Ang^3
#
#
#
# Elastic Constant Matrix: (Units=GPa)
#
#
# Indices 1 2 3 4 5 6 
#
# 1 51.4405 19.2630 -11.6444 0.0000 0.0000 0.0000
# 2 19.2630 167.9275 43.1198 0.0000 0.0000 0.0000
# 3 -11.6444 43.1198 67.5104 0.0000 0.0000 0.0000
# 4 0.0000 0.0000 0.0000 524.6610 0.0000 0.0000
# 5 0.0000 0.0000 0.0000 0.0000 -0.9160 0.0000
# 6 0.0000 0.0000 0.0000 0.0000 0.0000 28.8069
#
#
#
# Elastic Compliance Matrix: (Units=1/GPa)
#
#
# Indices 1 2 3 4 5 6 
#
# 1 0.022546 -0.004288 0.006628 0.000000 0.000000 0.000000
# 2 -0.004288 0.007939 -0.005810 0.000000 0.000000 0.000000
# 3 0.006628 -0.005810 0.019667 0.000000 0.000000 0.000000
# 4 0.000000 0.000000 0.000000 0.001906 0.000000 0.000000
# 5 0.000000 0.000000 0.000000 0.000000 -1.091662 0.000000
# 6 0.000000 0.000000 0.000000 0.000000 0.000000 0.034714
#
#
# Mechanical properties :
#
#
# Convention : Reuss Voigt Hill
#
# Bulk Modulus (GPa) = 23.14269 43.15059 33.14664
# Shear Modulus (GPa) = -5.08365 126.25303 60.58469
#
# Velocity S-wave (km/s) = -1.45041 7.22812 5.00709
# Velocity P-wave (km/s) = 2.60229 9.35507 6.86619
#
# Compressibility (1/GPa) = 0.04321019
#
# Stress axis : x y z
#
# Youngs Moduli (GPa) = 44.35379 125.96418 50.84726
#
# Poissons Ratio (x) = 0.54014 -0.33700
# Poissons Ratio (y) = 0.19019 0.29543
# Poissons Ratio (z) = -0.29396 0.73188
#
# Static dielectric constant tensor:
#      x y z
#    x 1.813030 0.000000 0.000000 
#    y 0.000000 1.887380 0.000000 
#    z 0.000000 0.000000 1.966810 
# 
# From -- ./inp_files/23467.got.cif
#   From: 2010.05.17/outbox.cif.g08.bks.cpg/sg52_12_cif.got.tgz:23467.got - 2010.06.03 12:15:38.
