data_PCOD9410087
_publ_section_title
;
Structure prediction by ZEFSAII (Michael W. Deem and Ramdas Pophale) SiO2 
 PCOD9410087
Probable space group: P N N A
;
_chemical_formula_sum "Si O2"
_cell_formula_units_Z 64
_cell_length_a 17.594915
_cell_length_b 11.742790
_cell_length_c 15.949382
_cell_angle_alpha 90.000000
_cell_angle_beta 90.000000
_cell_angle_gamma 90.000000
_cell_volume 3295.355914
_symmetry_space_group_name_H-M "P N N A"
_symmetry_group_IT_number 52
_symmetry_cell_setting 'orthorhombic'
loop_
_space_group_symop_operation_xyz
x,y,z
1/2-x,-y,z
x,1/2-y,1/2-z
1/2-x,1/2+y,1/2-z
-x,-y,-z
1/2+x,y,-z
-x,1/2+y,1/2+z
1/2+x,1/2-y,1/2+z
loop_
_atom_site_type_symbol
_atom_site_label
_atom_site_fract_x
_atom_site_fract_y
_atom_site_fract_z
Si Si1 0.905194 0.169537 0.475699
Si Si2 0.669551 0.044987 0.563968
Si Si3 0.535402 0.362102 0.214637
Si Si4 0.644988 0.236832 0.425197
Si Si5 0.945435 0.419916 0.312037
Si Si6 0.006744 0.134453 0.014651
Si Si7 0.473670 0.579066 0.145330
Si Si8 0.702495 0.711618 0.344977
O O1 0.845489 0.198179 0.401223
O O2 0.934845 0.288287 0.515776
O O3 0.869812 0.069309 0.529046
O O4 0.982711 0.120566 0.436203
O O5 0.672507 0.136151 0.487943
O O6 0.750000 0.000000 0.594565
O O7 0.614898 0.099467 0.634144
O O8 0.496837 0.250000 0.250000
O O9 0.605274 0.320958 0.156595
O O10 0.485660 0.443718 0.156999
O O11 0.553579 0.055517 0.206417
O O12 0.582224 0.312181 0.474123
O O13 0.718515 0.305784 0.393113
O O14 0.859269 0.387950 0.333381
O O15 0.997967 0.366811 0.384229
O O16 0.979288 0.374165 0.224386
O O17 0.000000 0.000000 0.000000
O O18 0.719138 0.750000 0.250000
#
# Coordination Sequence:
#
# PCOD9410087 Si02
#       8
#     8   8   8   8   8   8   8   8
#     4  11  20  39  66  89 129 171 218 268 320 403
#     4  12  22  38  64 101 133 164 217 285 338 387
#     4  10  20  38  63  94 122 169 219 268 325 396
#     4  12  23  37  62  96 139 165 214 282 346 387
#     4   9  22  40  65  87 124 171 223 258 317 409
#     4  11  24  41  63  92 128 178 226 266 328 414
#     4  10  20  38  65  92 121 168 222 269 316 401
#     4  11  21  37  59  95 133 170 207 265 340 399
#
# _framework density 19.421271000000001
#
# number of rings (size 3 to 8) (size 9 to 14) (size 15 to 20)
#    0.750    0.500    5.000    2.250    0.000    0.000 
#    0.000    9.375    0.000    4.500    0.000    0.000 
#    0.000    0.000    0.000    0.000    0.000    0.000 
#
# Total GULP energy -356453.425437 kJ/mol
# GULP energy per Si atom -5569.584772 kJ/mol
# Density = 1.937707 g / cm^3
# Si number density = 19.421271 Si / 1000 Ang^3
#
#
#
# Elastic Constant Matrix: (Units=GPa)
#
#
# Indices 1 2 3 4 5 6 
#
# 1 131.7755 24.5674 46.8781 0.0000 0.0000 0.0000
# 2 24.5674 100.9822 23.3565 0.0000 0.0000 0.0000
# 3 46.8781 23.3565 49.4166 0.0000 0.0000 0.0000
# 4 0.0000 0.0000 0.0000 31.7563 0.0000 0.0000
# 5 0.0000 0.0000 0.0000 0.0000 30.2538 0.0000
# 6 0.0000 0.0000 0.0000 0.0000 0.0000 18.9983
#
#
#
# Elastic Compliance Matrix: (Units=1/GPa)
#
#
# Indices 1 2 3 4 5 6 
#
# 1 0.011463 -0.000307 -0.010728 0.000000 0.000000 0.000000
# 2 -0.000307 0.011126 -0.004967 0.000000 0.000000 0.000000
# 3 -0.010728 -0.004967 0.032761 0.000000 0.000000 0.000000
# 4 0.000000 0.000000 0.000000 0.031490 0.000000 0.000000
# 5 0.000000 0.000000 0.000000 0.000000 0.033054 0.000000
# 6 0.000000 0.000000 0.000000 0.000000 0.000000 0.052636
#
#
# Mechanical properties :
#
#
# Convention : Reuss Voigt Hill
#
# Bulk Modulus (GPa) = 42.83757 52.41984 47.62871
# Shear Modulus (GPa) = 23.54963 28.69318 26.12140
#
# Velocity S-wave (km/s) = 3.48597 3.84788 3.67139
# Velocity P-wave (km/s) = 6.18931 6.84040 6.52299
#
# Compressibility (1/GPa) = 0.02334399
#
# Stress axis : x y z
#
# Youngs Moduli (GPa) = 87.24084 89.87632 30.52382
#
# Poissons Ratio (x) = 0.02761 0.32747
# Poissons Ratio (y) = 0.02680 0.15162
# Poissons Ratio (z) = 0.93596 0.44645
#
# Static dielectric constant tensor:
#      x y z
#    x 1.687830 0.000000 0.000000 
#    y 0.000000 1.780000 0.000000 
#    z 0.000000 0.000000 1.724580 
# 
# From -- ./inp_files/33844.got.cif
#   From: 2010.05.17/outbox.cif.g08.bks.cpg/sg52_17_cif.got.tgz:33844.got - 2010.06.03 12:15:38.
