data_PCOD9410655
_publ_section_title
;
Structure prediction by ZEFSAII (Michael W. Deem and Ramdas Pophale) SiO2 
 PCOD9410655
Probable space group: P N N A
;
_chemical_formula_sum "Si O2"
_cell_formula_units_Z 40
_cell_length_a 8.705765
_cell_length_b 8.882371
_cell_length_c 22.302833
_cell_angle_alpha 90.000000
_cell_angle_beta 90.000000
_cell_angle_gamma 90.000000
_cell_volume 1724.629781
_symmetry_space_group_name_H-M "P N N A"
_symmetry_group_IT_number 52
_symmetry_cell_setting 'orthorhombic'
loop_
_space_group_symop_operation_xyz
x,y,z
1/2-x,-y,z
x,1/2-y,1/2-z
1/2-x,1/2+y,1/2-z
-x,-y,-z
1/2+x,y,-z
-x,1/2+y,1/2+z
1/2+x,1/2-y,1/2+z
loop_
_atom_site_type_symbol
_atom_site_label
_atom_site_fract_x
_atom_site_fract_y
_atom_site_fract_z
Si Si1 0.563260 0.187803 0.959277
Si Si2 0.890066 0.161640 0.930597
Si Si3 0.174369 0.832830 0.855142
Si Si4 0.750000 0.500000 0.815999
Si Si5 0.492130 0.780405 0.679191
Si Si6 0.554280 0.250000 0.750000
O O1 0.728490 0.246253 0.938472
O O2 0.421095 0.210207 0.914430
O O3 0.600339 0.008973 0.954595
O O4 0.516838 0.236222 0.026017
O O5 0.932248 0.150117 0.861153
O O6 0.314365 0.720351 0.839662
O O7 0.055425 0.823769 0.800098
O O8 0.250000 0.000000 0.861238
O O9 0.597400 0.580334 0.842471
O O10 0.667277 0.371290 0.778153
O O11 0.499990 0.750000 0.750000
#
# Coordination Sequence:
#
# PCOD9410655 Si02
#       6
#     8   8   8   4   8   4
#     4  10  21  36  67 100 143 185 238 305 358 428
#     4  10  21  38  63 103 143 183 240 300 367 424
#     4  12  24  41  69 105 145 188 238 304 368 432
#     4  12  28  46  70 100 142 200 242 304 368 448
#     4  12  24  43  67 100 147 189 238 300 371 438
#     4  12  28  44  70 100 146 186 252 298 372 440
#
# _framework density 23.193383000000001
#
# number of rings (size 3 to 8) (size 9 to 14) (size 15 to 20)
#    0.000    0.800    4.000    3.600    2.800    0.000 
#    0.000    0.000    0.000   10.800    0.000    0.000 
#    0.000    0.000    0.000    0.000    0.000    0.000 
#
# Total GULP energy -223117.776621 kJ/mol
# GULP energy per Si atom -5577.944416 kJ/mol
# Density = 2.314059 g / cm^3
# Si number density = 23.193383 Si / 1000 Ang^3
#
#
#
# Elastic Constant Matrix: (Units=GPa)
#
#
# Indices 1 2 3 4 5 6 
#
# 1 187.6080 21.4596 57.4682 0.0000 0.0000 0.0000
# 2 21.4596 38.5416 -2.2031 0.0000 0.0000 0.0000
# 3 57.4682 -2.2031 136.7853 0.0000 0.0000 0.0000
# 4 0.0000 0.0000 0.0000 20.0706 0.0000 0.0000
# 5 0.0000 0.0000 0.0000 0.0000 282.2465 0.0000
# 6 0.0000 0.0000 0.0000 0.0000 0.0000 34.5878
#
#
#
# Elastic Compliance Matrix: (Units=1/GPa)
#
#
# Indices 1 2 3 4 5 6 
#
# 1 0.006647 -0.003864 -0.002855 0.000000 0.000000 0.000000
# 2 -0.003864 0.028216 0.002078 0.000000 0.000000 0.000000
# 3 -0.002855 0.002078 0.008544 0.000000 0.000000 0.000000
# 4 0.000000 0.000000 0.000000 0.049824 0.000000 0.000000
# 5 0.000000 0.000000 0.000000 0.000000 0.003543 0.000000
# 6 0.000000 0.000000 0.000000 0.000000 0.000000 0.028912
#
#
# Mechanical properties :
#
#
# Convention : Reuss Voigt Hill
#
# Bulk Modulus (GPa) = 29.30429 57.37604 43.34017
# Shear Modulus (GPa) = 34.16650 86.46166 60.31408
#
# Velocity S-wave (km/s) = 3.84228 6.11224 5.10503
# Velocity P-wave (km/s) = 5.68739 8.63739 7.31269
#
# Compressibility (1/GPa) = 0.03412470
#
# Stress axis : x y z
#
# Youngs Moduli (GPa) = 150.45027 35.44060 117.04712
#
# Poissons Ratio (x) = 0.13694 0.33414
# Poissons Ratio (y) = 0.58134 -0.24321
# Poissons Ratio (z) = 0.42950 -0.07364
#
# Static dielectric constant tensor:
#      x y z
#    x 2.009520 0.000000 0.000000 
#    y 0.000000 1.993190 0.000000 
#    z 0.000000 0.000000 1.919760 
# 
# From -- ./inp_files/39269.got.cif
#   From: 2010.05.17/outbox.cif.g08.bks.cpg/sg52_20_cif.got.tgz:39269.got - 2010.06.03 12:15:38.
