data_PCOD9410940
_publ_section_title
;
Structure prediction by ZEFSAII (Michael W. Deem and Ramdas Pophale) SiO2 
 PCOD9410940
Probable space group: P N N A
;
_chemical_formula_sum "Si O2"
_cell_formula_units_Z 52
_cell_length_a 5.558795
_cell_length_b 23.003842
_cell_length_c 20.613098
_cell_angle_alpha 90.000000
_cell_angle_beta 90.000000
_cell_angle_gamma 90.000000
_cell_volume 2635.871912
_symmetry_space_group_name_H-M "P N N A"
_symmetry_group_IT_number 52
_symmetry_cell_setting 'orthorhombic'
loop_
_space_group_symop_operation_xyz
x,y,z
1/2-x,-y,z
x,1/2-y,1/2-z
1/2-x,1/2+y,1/2-z
-x,-y,-z
1/2+x,y,-z
-x,1/2+y,1/2+z
1/2+x,1/2-y,1/2+z
loop_
_atom_site_type_symbol
_atom_site_label
_atom_site_fract_x
_atom_site_fract_y
_atom_site_fract_z
Si Si1 0.186998 0.061407 0.705747
Si Si2 0.933031 0.888169 0.038361
Si Si3 0.532271 0.673218 0.838311
Si Si4 0.966382 0.750183 0.036666
Si Si5 0.397756 0.057273 0.162441
Si Si6 0.418986 0.645001 0.267873
Si Si7 0.811947 0.250000 0.250000
O O1 0.406333 0.096013 0.738852
O O2 0.062881 0.107166 0.657831
O O3 0.019217 0.047090 0.767683
O O4 0.250000 0.000000 0.674868
O O5 0.956479 0.819083 0.052846
O O6 0.926784 0.924528 0.104864
O O7 0.186676 0.900869 0.001143
O O8 0.537760 0.708771 0.903862
O O9 0.347228 0.708921 0.794093
O O10 0.767916 0.667832 0.793906
O O11 0.191706 0.739484 0.987580
O O12 0.233409 0.113663 0.176900
O O13 0.250000 0.000000 0.144770
O O14 0.542520 0.703640 0.292935
#
# Coordination Sequence:
#
# PCOD9410940 Si02
#       7
#     8   8   8   8   8   8   4
#     4  10  21  39  61  92 126 162 201 255 327 379
#     4  10  25  42  60  88 121 172 223 271 315 366
#     4  10  23  37  60  97 118 165 208 261 323 387
#     4  10  24  43  65  90 129 170 212 266 323 384
#     4  11  23  38  62  87 124 170 214 263 312 380
#     4  10  22  36  59  91 125 159 197 262 321 384
#     4  10  22  34  58  94 126 156 200 272 318 390
#
# _framework density 19.727816000000001
#
# number of rings (size 3 to 8) (size 9 to 14) (size 15 to 20)
#    0.000    1.846    1.538    0.462   15.077    1.846 
#    0.000    0.000    0.000    0.923    0.000    0.000 
#    0.000    0.000    0.000    0.000    0.000    0.000 
#
# Total GULP energy -290083.067147 kJ/mol
# GULP energy per Si atom -5578.520522 kJ/mol
# Density = 1.968291 g / cm^3
# Si number density = 19.727816 Si / 1000 Ang^3
#
#
#
# Elastic Constant Matrix: (Units=GPa)
#
#
# Indices 1 2 3 4 5 6 
#
# 1 53.3245 11.3141 -11.4342 0.0000 0.0000 0.0000
# 2 11.3141 82.5548 6.0427 0.0000 0.0000 0.0000
# 3 -11.4342 6.0427 35.8697 0.0000 0.0000 0.0000
# 4 0.0000 0.0000 0.0000 19.1558 0.0000 0.0000
# 5 0.0000 0.0000 0.0000 0.0000 -13.0081 0.0000
# 6 0.0000 0.0000 0.0000 0.0000 0.0000 16.7913
#
#
#
# Elastic Compliance Matrix: (Units=1/GPa)
#
#
# Indices 1 2 3 4 5 6 
#
# 1 0.021040 -0.003417 0.007282 0.000000 0.000000 0.000000
# 2 -0.003417 0.012819 -0.003249 0.000000 0.000000 0.000000
# 3 0.007282 -0.003249 0.030747 0.000000 0.000000 0.000000
# 4 0.000000 0.000000 0.000000 0.052203 0.000000 0.000000
# 5 0.000000 0.000000 0.000000 0.000000 -0.076875 0.000000
# 6 0.000000 0.000000 0.000000 0.000000 0.000000 0.059555
#
#
# Mechanical properties :
#
#
# Convention : Reuss Voigt Hill
#
# Bulk Modulus (GPa) = 15.18823 20.39936 17.79379
# Shear Modulus (GPa) = 41.59694 15.64291 28.61992
#
# Velocity S-wave (km/s) = 4.59687 2.81897 3.81299
# Velocity P-wave (km/s) = 5.99087 4.57802 5.33146
#
# Compressibility (1/GPa) = 0.06584045
#
# Stress axis : x y z
#
# Youngs Moduli (GPa) = 47.52956 78.00802 32.52315
#
# Poissons Ratio (x) = 0.26651 -0.23684
# Poissons Ratio (y) = 0.16239 0.10566
# Poissons Ratio (z) = -0.34613 0.25342
#
# Static dielectric constant tensor:
#      x y z
#    x 1.792420 0.000000 0.000000 
#    y 0.000000 1.647350 0.000000 
#    z 0.000000 0.000000 1.695460 
# 
# From -- ./inp_files/35176.got.cif
#   From: 2010.05.17/outbox.cif.g08.bks.cpg/sg52_18_cif.got.tgz:35176.got - 2010.06.03 12:15:38.
