data_PCOD9410588
_publ_section_title
;
Structure prediction by ZEFSAII (Michael W. Deem and Ramdas Pophale) SiO2 
 PCOD9410588
Probable space group: P N N A
;
_chemical_formula_sum "Si O2"
_cell_formula_units_Z 40
_cell_length_a 30.789918
_cell_length_b 4.893817
_cell_length_c 13.891248
_cell_angle_alpha 90.000000
_cell_angle_beta 90.000000
_cell_angle_gamma 90.000000
_cell_volume 2093.136362
_symmetry_space_group_name_H-M "P N N A"
_symmetry_group_IT_number 52
_symmetry_cell_setting 'orthorhombic'
loop_
_space_group_symop_operation_xyz
x,y,z
1/2-x,-y,z
x,1/2-y,1/2-z
1/2-x,1/2+y,1/2-z
-x,-y,-z
1/2+x,y,-z
-x,1/2+y,1/2+z
1/2+x,1/2-y,1/2+z
loop_
_atom_site_type_symbol
_atom_site_label
_atom_site_fract_x
_atom_site_fract_y
_atom_site_fract_z
Si Si1 0.396505 0.218363 0.511708
Si Si2 0.428923 0.750000 0.750000
Si Si3 0.358957 0.680628 0.608066
Si Si4 0.482575 0.118702 0.599837
Si Si5 0.781237 0.750000 0.250000
Si Si6 0.929445 0.521261 0.812354
O O1 0.365250 0.476935 0.519242
O O2 0.443569 0.302204 0.557841
O O3 0.374947 0.978521 0.575272
O O4 0.405743 0.094208 0.407001
O O5 0.394082 0.578618 0.687870
O O6 0.458970 0.580512 0.823203
O O7 0.313007 0.685651 0.660375
O O8 0.527683 0.189885 0.651251
O O9 0.500000 0.000000 0.500000
O O10 0.750000 0.500000 0.227112
O O11 0.904686 0.750000 0.750000
O O12 0.940222 0.250000 0.750000
#
# Coordination Sequence:
#
# PCOD9410588 Si02
#       6
#     8   4   8   8   4   8
#     4  10  21  36  52  76 108 149 198 233 280 345
#     4   9  18  32  50  72 102 146 194 226 274 332
#     4  10  21  36  57  79 112 150 180 221 276 345
#     4   9  19  31  48  71 101 144 196 252 286 314
#     4  11  22  38  62  94 122 140 172 216 278 352
#     4  11  22  34  51  74 107 147 199 258 295 312
#
# _framework density 19.110081000000001
#
# number of rings (size 3 to 8) (size 9 to 14) (size 15 to 20)
#    0.000    2.000    1.000    2.400    2.800    5.600 
#    0.000    8.000    0.000    0.000    0.000    0.000 
#    0.000   44.800    0.000    0.000    0.000    0.000 
#
# Total GULP energy -222772.036396 kJ/mol
# GULP energy per Si atom -5569.300910 kJ/mol
# Density = 1.906659 g / cm^3
# Si number density = 19.110081 Si / 1000 Ang^3
#
#
#
# Elastic Constant Matrix: (Units=GPa)
#
#
# Indices 1 2 3 4 5 6 
#
# 1 92.1526 21.5949 28.3735 0.0000 0.0000 0.0000
# 2 21.5949 63.7277 4.2825 0.0000 0.0000 0.0000
# 3 28.3735 4.2825 80.2725 0.0000 0.0000 0.0000
# 4 0.0000 0.0000 0.0000 33.2833 0.0000 0.0000
# 5 0.0000 0.0000 0.0000 0.0000 17.4234 0.0000
# 6 0.0000 0.0000 0.0000 0.0000 0.0000 22.8090
#
#
#
# Elastic Compliance Matrix: (Units=1/GPa)
#
#
# Indices 1 2 3 4 5 6 
#
# 1 0.013197 -0.004174 -0.004442 0.000000 0.000000 0.000000
# 2 -0.004174 0.017068 0.000565 0.000000 0.000000 0.000000
# 3 -0.004442 0.000565 0.013998 0.000000 0.000000 0.000000
# 4 0.000000 0.000000 0.000000 0.030045 0.000000 0.000000
# 5 0.000000 0.000000 0.000000 0.000000 0.057394 0.000000
# 6 0.000000 0.000000 0.000000 0.000000 0.000000 0.043842
#
#
# Mechanical properties :
#
#
# Convention : Reuss Voigt Hill
#
# Bulk Modulus (GPa) = 35.51029 38.29497 36.90263
# Shear Modulus (GPa) = 24.87148 26.82994 25.85071
#
# Velocity S-wave (km/s) = 3.61152 3.75102 3.68193
# Velocity P-wave (km/s) = 6.00109 6.23240 6.11784
#
# Compressibility (1/GPa) = 0.02816085
#
# Stress axis : x y z
#
# Youngs Moduli (GPa) = 75.77304 58.58892 71.44090
#
# Poissons Ratio (x) = 0.24452 0.31735
# Poissons Ratio (y) = 0.31624 -0.04034
# Poissons Ratio (z) = 0.33659 -0.03308
#
# Static dielectric constant tensor:
#      x y z
#    x 1.662130 0.000000 0.000000 
#    y 0.000000 1.737230 0.000000 
#    z 0.000000 0.000000 1.728760 
# 
# From -- ./inp_files/22698.got.cif
#   From: 2010.05.17/outbox.cif.g08.bks.cpg/sg52_12_cif.got.tgz:22698.got - 2010.06.03 12:15:38.
