data_PCOD9410633
_publ_section_title
;
Structure prediction by ZEFSAII (Michael W. Deem and Ramdas Pophale) SiO2 
 PCOD9410633
Probable space group: P N N A
;
_chemical_formula_sum "Si O2"
_cell_formula_units_Z 32
_cell_length_a 16.872989
_cell_length_b 4.964786
_cell_length_c 19.010984
_cell_angle_alpha 90.000000
_cell_angle_beta 90.000000
_cell_angle_gamma 90.000000
_cell_volume 1592.564950
_symmetry_space_group_name_H-M "P N N A"
_symmetry_group_IT_number 52
_symmetry_cell_setting 'orthorhombic'
loop_
_space_group_symop_operation_xyz
x,y,z
1/2-x,-y,z
x,1/2-y,1/2-z
1/2-x,1/2+y,1/2-z
-x,-y,-z
1/2+x,y,-z
-x,1/2+y,1/2+z
1/2+x,1/2-y,1/2+z
loop_
_atom_site_type_symbol
_atom_site_label
_atom_site_fract_x
_atom_site_fract_y
_atom_site_fract_z
Si Si1 0.384570 0.485017 0.202373
Si Si2 0.250000 0.500000 0.086672
Si Si3 0.250000 0.000000 0.983743
Si Si4 0.001263 0.242346 0.904511
Si Si5 0.910891 0.245102 0.447561
O O1 0.348292 0.250000 0.250000
O O2 0.324635 0.518626 0.138266
O O3 0.461992 0.355754 0.165752
O O4 0.396324 0.750000 0.250000
O O5 0.265223 0.751048 0.035616
O O6 0.174498 0.884308 0.941772
O O7 0.074265 0.439666 0.924170
O O8 0.029570 0.935251 0.903608
O O9 0.939845 0.250006 0.970699
#
# Coordination Sequence:
#
# PCOD9410633 Si02
#       5
#     8   4   4   8   8
#     4  12  24  39  57  82 119 165 200 231 278 347
#     4  12  24  37  54  86 126 157 198 224 276 364
#     4  12  22  37  60  90 116 159 182 242 304 362
#     4  10  21  38  56  85 111 154 194 246 283 344
#     4  10  21  36  60  82 117 145 194 242 303 343
#
# _framework density 20.093374000000001
#
# number of rings (size 3 to 8) (size 9 to 14) (size 15 to 20)
#    0.000    1.000    2.500    5.250    7.000    0.000 
#    0.000    0.000    0.000    0.000    0.000   17.500 
#    0.000    0.000    0.000    0.000    0.000    0.000 
#
# Total GULP energy -178572.531636 kJ/mol
# GULP energy per Si atom -5580.391614 kJ/mol
# Density = 2.004764 g / cm^3
# Si number density = 20.093374 Si / 1000 Ang^3
#
#
#
# Elastic Constant Matrix: (Units=GPa)
#
#
# Indices 1 2 3 4 5 6 
#
# 1 59.3690 -7.1469 6.7075 0.0000 0.0000 0.0000
# 2 -7.1469 96.8980 7.1063 0.0000 0.0000 0.0000
# 3 6.7075 7.1063 31.4811 0.0000 0.0000 0.0000
# 4 0.0000 0.0000 0.0000 38.3700 0.0000 0.0000
# 5 0.0000 0.0000 0.0000 0.0000 10.6194 0.0000
# 6 0.0000 0.0000 0.0000 0.0000 0.0000 33.2635
#
#
#
# Elastic Compliance Matrix: (Units=1/GPa)
#
#
# Indices 1 2 3 4 5 6 
#
# 1 0.017497 0.001590 -0.004087 0.000000 0.000000 0.000000
# 2 0.001590 0.010638 -0.002740 0.000000 0.000000 0.000000
# 3 -0.004087 -0.002740 0.033254 0.000000 0.000000 0.000000
# 4 0.000000 0.000000 0.000000 0.026062 0.000000 0.000000
# 5 0.000000 0.000000 0.000000 0.000000 0.094167 0.000000
# 6 0.000000 0.000000 0.000000 0.000000 0.000000 0.030063
#
#
# Mechanical properties :
#
#
# Convention : Reuss Voigt Hill
#
# Bulk Modulus (GPa) = 19.64024 22.34245 20.99134
# Shear Modulus (GPa) = 20.90935 28.52267 24.71601
#
# Velocity S-wave (km/s) = 3.22935 3.77172 3.51102
# Velocity P-wave (km/s) = 4.86833 5.48738 5.18709
#
# Compressibility (1/GPa) = 0.05091586
#
# Stress axis : x y z
#
# Youngs Moduli (GPa) = 57.15273 93.99926 30.07123
#
# Poissons Ratio (x) = -0.14948 0.12290
# Poissons Ratio (y) = -0.09089 0.08240
# Poissons Ratio (z) = 0.23358 0.25758
#
# Static dielectric constant tensor:
#      x y z
#    x 1.776130 0.000000 0.000000 
#    y 0.000000 1.691890 0.000000 
#    z 0.000000 0.000000 1.690750 
# 
# From -- ./inp_files/27662.got.cif
#   From: 2010.05.17/outbox.cif.g08.bks.cpg/sg52_14_cif.got.tgz:27662.got - 2010.06.03 12:15:38.
