data_PCOD9410966
_publ_section_title
;
Structure prediction by ZEFSAII (Michael W. Deem and Ramdas Pophale) SiO2 
 PCOD9410966
Probable space group: P N N A
;
_chemical_formula_sum "Si O2"
_cell_formula_units_Z 36
_cell_length_a 12.667095
_cell_length_b 21.186977
_cell_length_c 6.192104
_cell_angle_alpha 90.000000
_cell_angle_beta 90.000000
_cell_angle_gamma 90.000000
_cell_volume 1661.821084
_symmetry_space_group_name_H-M "P N N A"
_symmetry_group_IT_number 52
_symmetry_cell_setting 'orthorhombic'
loop_
_space_group_symop_operation_xyz
x,y,z
1/2-x,-y,z
x,1/2-y,1/2-z
1/2-x,1/2+y,1/2-z
-x,-y,-z
1/2+x,y,-z
-x,1/2+y,1/2+z
1/2+x,1/2-y,1/2+z
loop_
_atom_site_type_symbol
_atom_site_label
_atom_site_fract_x
_atom_site_fract_y
_atom_site_fract_z
Si Si1 0.264603 0.750000 0.250000
Si Si2 0.783410 0.432776 0.048798
Si Si3 0.478726 0.063035 0.858657
Si Si4 0.401867 0.646161 0.008031
Si Si5 0.904931 0.344511 0.714400
O O1 0.338735 0.703540 0.116058
O O2 0.178901 0.706219 0.373590
O O3 0.750000 0.500000 0.959183
O O4 0.869676 0.446240 0.230450
O O5 0.683756 0.392497 0.133079
O O6 0.836526 0.392771 0.858610
O O7 0.558999 0.092477 0.680199
O O8 0.461364 0.119612 0.023705
O O9 0.500000 0.000000 0.000000
O O10 0.501029 0.674206 0.878288
#
# Coordination Sequence:
#
# PCOD9410966 Si02
#       5
#     4   8   8   8   8
#     4  10  24  42  64  92 126 180 222 256 334 398
#     4  10  21  39  62  94 133 167 209 268 334 385
#     4  11  23  40  68  98 126 172 227 269 333 407
#     4  10  23  43  63  93 134 172 212 281 330 378
#     4  10  23  42  61  96 128 170 222 272 322 391
#
# _framework density 21.662982
#
# number of rings (size 3 to 8) (size 9 to 14) (size 15 to 20)
#    0.000    1.778    0.000    2.667    3.111   11.556 
#    0.000    2.222    0.000    0.000    0.000    0.000 
#    0.000    0.000    0.000    0.000    0.000    0.000 
#
# Total GULP energy -200845.489890 kJ/mol
# GULP energy per Si atom -5579.041386 kJ/mol
# Density = 2.161368 g / cm^3
# Si number density = 21.662982 Si / 1000 Ang^3
#
#
#
# Elastic Constant Matrix: (Units=GPa)
#
#
# Indices 1 2 3 4 5 6 
#
# 1 141.0054 65.5001 31.7158 0.0000 0.0000 0.0000
# 2 65.5001 97.2016 11.2755 0.0000 0.0000 0.0000
# 3 31.7158 11.2755 48.4727 0.0000 0.0000 0.0000
# 4 0.0000 0.0000 0.0000 13.2352 0.0000 0.0000
# 5 0.0000 0.0000 0.0000 0.0000 -33.9333 0.0000
# 6 0.0000 0.0000 0.0000 0.0000 0.0000 35.3898
#
#
#
# Elastic Compliance Matrix: (Units=1/GPa)
#
#
# Indices 1 2 3 4 5 6 
#
# 1 0.011829 -0.007270 -0.006049 0.000000 0.000000 0.000000
# 2 -0.007270 0.015041 0.001258 0.000000 0.000000 0.000000
# 3 -0.006049 0.001258 0.024295 0.000000 0.000000 0.000000
# 4 0.000000 0.000000 0.000000 0.075556 0.000000 0.000000
# 5 0.000000 0.000000 0.000000 0.000000 -0.029470 0.000000
# 6 0.000000 0.000000 0.000000 0.000000 0.000000 0.028257
#
#
# Mechanical properties :
#
#
# Convention : Reuss Voigt Hill
#
# Bulk Modulus (GPa) = 36.97682 55.96251 46.46967
# Shear Modulus (GPa) = 31.51693 14.81757 23.16725
#
# Velocity S-wave (km/s) = 3.81842 2.61818 3.27378
# Velocity P-wave (km/s) = 6.04538 5.91855 5.98230
#
# Compressibility (1/GPa) = 0.02704397
#
# Stress axis : x y z
#
# Youngs Moduli (GPa) = 84.53501 66.48625 41.16002
#
# Poissons Ratio (x) = 0.48333 0.24898
# Poissons Ratio (y) = 0.61454 -0.05177
# Poissons Ratio (z) = 0.51135 -0.08363
#
# Static dielectric constant tensor:
#      x y z
#    x 1.851090 0.000000 0.000000 
#    y 0.000000 1.805440 0.000000 
#    z 0.000000 0.000000 1.832890 
# 
# From -- ./inp_files/1243.got.cif
#   From: 2010.05.17/outbox.cif.g08.bks.cpg/sg52_1_cif.got.tgz:1243.got - 2010.06.03 12:15:38.
