data_PCOD9410629
_publ_section_title
;
Structure prediction by ZEFSAII (Michael W. Deem and Ramdas Pophale) SiO2 
 PCOD9410629
Probable space group: P N N A
;
_chemical_formula_sum "Si O2"
_cell_formula_units_Z 40
_cell_length_a 23.274501
_cell_length_b 5.818704
_cell_length_c 13.218849
_cell_angle_alpha 90.000000
_cell_angle_beta 90.000000
_cell_angle_gamma 90.000000
_cell_volume 1790.194775
_symmetry_space_group_name_H-M "P N N A"
_symmetry_group_IT_number 52
_symmetry_cell_setting 'orthorhombic'
loop_
_space_group_symop_operation_xyz
x,y,z
1/2-x,-y,z
x,1/2-y,1/2-z
1/2-x,1/2+y,1/2-z
-x,-y,-z
1/2+x,y,-z
-x,1/2+y,1/2+z
1/2+x,1/2-y,1/2+z
loop_
_atom_site_type_symbol
_atom_site_label
_atom_site_fract_x
_atom_site_fract_y
_atom_site_fract_z
Si Si1 0.094439 0.889606 0.147057
Si Si2 0.634076 0.497598 0.984614
Si Si3 0.707287 0.180451 0.856893
Si Si4 0.587390 0.998935 0.307628
Si Si5 0.971991 0.771816 0.630825
O O1 0.083461 0.750000 0.250000
O O2 0.147403 0.057694 0.172472
O O3 0.034436 0.000130 0.108444
O O4 0.122081 0.751664 0.054367
O O5 0.633999 0.471115 0.104164
O O6 0.688237 0.387585 0.928271
O O7 0.577522 0.374484 0.937913
O O8 0.735232 0.250000 0.750000
O O9 0.750000 0.000000 0.907641
O O10 0.582202 0.250000 0.250000
O O11 0.598125 0.750000 0.250000
O O12 0.528167 0.926828 0.365830
O O13 0.956102 0.750000 0.750000
#
# Coordination Sequence:
#
# PCOD9410629 Si02
#       5
#     8   8   8   8   8
#     4  11  19  36  63  94 136 176 217 271 351 421
#     4  11  23  40  64  93 132 185 220 284 345 412
#     4  11  23  38  63 104 137 169 209 275 355 447
#     4  11  28  45  63  94 134 189 249 296 327 384
#     4  10  21  36  59  92 133 176 223 278 335 410
#
# _framework density 22.343938000000001
#
# number of rings (size 3 to 8) (size 9 to 14) (size 15 to 20)
#    0.000    1.200    4.000    2.400   11.200    0.800 
#    0.000    0.000    0.000    0.000    5.200    0.000 
#    0.000    0.000    0.000    0.000    0.000    0.000 
#
# Total GULP energy -222718.116326 kJ/mol
# GULP energy per Si atom -5567.952908 kJ/mol
# Density = 2.229308 g / cm^3
# Si number density = 22.343938 Si / 1000 Ang^3
#
#
#
# Elastic Constant Matrix: (Units=GPa)
#
#
# Indices 1 2 3 4 5 6 
#
# 1 51.9532 33.7942 36.9539 0.0000 0.0000 0.0000
# 2 33.7942 117.6967 37.6428 0.0000 0.0000 0.0000
# 3 36.9539 37.6428 79.3015 0.0000 0.0000 0.0000
# 4 0.0000 0.0000 0.0000 23.6505 0.0000 0.0000
# 5 0.0000 0.0000 0.0000 0.0000 5.3071 0.0000
# 6 0.0000 0.0000 0.0000 0.0000 0.0000 -47.5259
#
#
#
# Elastic Compliance Matrix: (Units=1/GPa)
#
#
# Indices 1 2 3 4 5 6 
#
# 1 0.031165 -0.005074 -0.012114 0.000000 0.000000 0.000000
# 2 -0.005074 0.010843 -0.002783 0.000000 0.000000 0.000000
# 3 -0.012114 -0.002783 0.019576 0.000000 0.000000 0.000000
# 4 0.000000 0.000000 0.000000 0.042282 0.000000 0.000000
# 5 0.000000 0.000000 0.000000 0.000000 0.188427 0.000000
# 6 0.000000 0.000000 0.000000 0.000000 0.000000 -0.021041
#
#
# Mechanical properties :
#
#
# Convention : Reuss Voigt Hill
#
# Bulk Modulus (GPa) = 46.20447 51.74812 48.97630
# Shear Modulus (GPa) = 15.70304 5.65702 10.68003
#
# Velocity S-wave (km/s) = 2.65389 1.59289 2.18865
# Velocity P-wave (km/s) = 5.48767 5.15685 5.32483
#
# Compressibility (1/GPa) = 0.02164293
#
# Stress axis : x y z
#
# Youngs Moduli (GPa) = 32.08682 92.22307 51.08256
#
# Poissons Ratio (x) = 0.46794 0.61883
# Poissons Ratio (y) = 0.16281 0.14214
# Poissons Ratio (z) = 0.38871 0.25662
#
# Static dielectric constant tensor:
#      x y z
#    x 1.830820 0.000000 0.000000 
#    y 0.000000 -4.198230 0.000000 
#    z 0.000000 0.000000 1.917210 
# 
# From -- ./inp_files/22619.got.cif
#   From: 2010.05.17/outbox.cif.g08.bks.cpg/sg52_12_cif.got.tgz:22619.got - 2010.06.03 12:15:38.
