data_PCOD9410485
_publ_section_title
;
Structure prediction by ZEFSAII (Michael W. Deem and Ramdas Pophale) SiO2 
 PCOD9410485
Probable space group: P N N A
;
_chemical_formula_sum "Si O2"
_cell_formula_units_Z 32
_cell_length_a 11.741725
_cell_length_b 16.239835
_cell_length_c 7.039199
_cell_angle_alpha 90.000000
_cell_angle_beta 90.000000
_cell_angle_gamma 90.000000
_cell_volume 1342.260346
_symmetry_space_group_name_H-M "P N N A"
_symmetry_group_IT_number 52
_symmetry_cell_setting 'orthorhombic'
loop_
_space_group_symop_operation_xyz
x,y,z
1/2-x,-y,z
x,1/2-y,1/2-z
1/2-x,1/2+y,1/2-z
-x,-y,-z
1/2+x,y,-z
-x,1/2+y,1/2+z
1/2+x,1/2-y,1/2+z
loop_
_atom_site_type_symbol
_atom_site_label
_atom_site_fract_x
_atom_site_fract_y
_atom_site_fract_z
Si Si1 0.687345 0.767205 0.963994
Si Si2 0.661321 0.427005 0.487767
Si Si3 0.888033 0.666612 0.129547
Si Si4 0.988739 0.836506 0.758117
O O1 0.649065 0.750000 0.750000
O O2 0.770174 0.844889 0.959305
O O3 0.761760 0.690152 0.045841
O O4 0.590696 0.802580 0.107615
O O5 0.750000 0.500000 0.505069
O O6 0.620791 0.409058 0.274252
O O7 0.557455 0.417112 0.634500
O O8 0.913918 0.750000 0.250000
O O9 0.981089 0.646510 0.967292
O O10 0.917172 0.750000 0.750000
#
# Coordination Sequence:
#
# PCOD9410485 Si02
#       4
#     8   8   8   8
#     4  11  23  43  72 101 132 174 236 283 331 399
#     4  11  24  44  66  96 145 179 218 280 344 404
#     4  10  20  44  64  99 135 169 228 277 336 391
#     4  12  22  40  73  98 128 176 227 285 335 391
#
# _framework density 23.840382000000002
#
# number of rings (size 3 to 8) (size 9 to 14) (size 15 to 20)
#    0.000    1.000    7.500    2.250    3.500    2.000 
#    0.000    1.250    0.000    0.000    0.000    0.000 
#    0.000    0.000    0.000    0.000    0.000    0.000 
#
# Total GULP energy -178178.803763 kJ/mol
# GULP energy per Si atom -5568.087618 kJ/mol
# Density = 2.378612 g / cm^3
# Si number density = 23.840382 Si / 1000 Ang^3
#
#
#
# Elastic Constant Matrix: (Units=GPa)
#
#
# Indices 1 2 3 4 5 6 
#
# 1 82.7931 -9.8824 60.9677 0.0000 0.0000 0.0000
# 2 -9.8824 28.6295 -1.8538 0.0000 0.0000 0.0000
# 3 60.9677 -1.8538 187.1262 0.0000 0.0000 0.0000
# 4 0.0000 0.0000 0.0000 22.6614 0.0000 0.0000
# 5 0.0000 0.0000 0.0000 0.0000 39.7421 0.0000
# 6 0.0000 0.0000 0.0000 0.0000 0.0000 11.2689
#
#
#
# Elastic Compliance Matrix: (Units=1/GPa)
#
#
# Indices 1 2 3 4 5 6 
#
# 1 0.016689 0.005412 -0.005384 0.000000 0.000000 0.000000
# 2 0.005412 0.036707 -0.001400 0.000000 0.000000 0.000000
# 3 -0.005384 -0.001400 0.007084 0.000000 0.000000 0.000000
# 4 0.000000 0.000000 0.000000 0.044128 0.000000 0.000000
# 5 0.000000 0.000000 0.000000 0.000000 0.025162 0.000000
# 6 0.000000 0.000000 0.000000 0.000000 0.000000 0.088740
#
#
# Mechanical properties :
#
#
# Convention : Reuss Voigt Hill
#
# Bulk Modulus (GPa) = 17.31994 44.11241 30.71617
# Shear Modulus (GPa) = 20.79022 31.35565 26.07294
#
# Velocity S-wave (km/s) = 2.95627 3.63055 3.31062
# Velocity P-wave (km/s) = 4.35126 6.00982 5.24649
#
# Compressibility (1/GPa) = 0.05773692
#
# Stress axis : x y z
#
# Youngs Moduli (GPa) = 59.92024 27.24308 141.15886
#
# Poissons Ratio (x) = -0.14744 0.75997
# Poissons Ratio (y) = -0.32429 0.19758
# Poissons Ratio (z) = 0.32260 0.03813
#
# Static dielectric constant tensor:
#      x y z
#    x 2.210700 0.000000 0.000000 
#    y 0.000000 1.869330 0.000000 
#    z 0.000000 0.000000 2.211260 
# 
# From -- ./inp_files/2014.got.cif
#   From: 2010.05.17/outbox.cif.g08.bks.cpg/sg52_2_cif.got.tgz:2014.got - 2010.06.03 12:15:38.
