data_PCOD9410461
_publ_section_title
;
Structure prediction by ZEFSAII (Michael W. Deem and Ramdas Pophale) SiO2 
 PCOD9410461
Probable space group: P N N A
;
_chemical_formula_sum "Si O2"
_cell_formula_units_Z 48
_cell_length_a 8.485245
_cell_length_b 15.066047
_cell_length_c 17.054936
_cell_angle_alpha 90.000000
_cell_angle_beta 90.000000
_cell_angle_gamma 90.000000
_cell_volume 2180.287668
_symmetry_space_group_name_H-M "P N N A"
_symmetry_group_IT_number 52
_symmetry_cell_setting 'orthorhombic'
loop_
_space_group_symop_operation_xyz
x,y,z
1/2-x,-y,z
x,1/2-y,1/2-z
1/2-x,1/2+y,1/2-z
-x,-y,-z
1/2+x,y,-z
-x,1/2+y,1/2+z
1/2+x,1/2-y,1/2+z
loop_
_atom_site_type_symbol
_atom_site_label
_atom_site_fract_x
_atom_site_fract_y
_atom_site_fract_z
Si Si1 0.331247 0.379313 0.529556
Si Si2 0.435913 0.476440 0.913654
Si Si3 0.963232 0.402044 0.773807
Si Si4 0.541372 0.767178 0.380706
Si Si5 0.288498 0.750000 0.250000
Si Si6 0.508764 0.453052 0.399580
Si Si7 0.288790 0.750000 0.750000
O O1 0.411217 0.283781 0.540260
O O2 0.354111 0.412228 0.440605
O O3 0.446245 0.448464 0.574049
O O4 0.158573 0.395663 0.566544
O O5 0.250000 0.500000 0.908908
O O6 0.527754 0.534503 0.848463
O O7 0.456273 0.372277 0.894512
O O8 0.500000 0.500000 0.000000
O O9 0.813424 0.338409 0.764084
O O10 0.989981 0.453269 0.692869
O O11 0.106546 0.332335 0.775678
O O12 0.389007 0.741361 0.330014
O O13 0.678333 0.732132 0.323231
#
# Coordination Sequence:
#
# PCOD9410461 Si02
#       7
#     8   8   8   8   4   8   4
#     4  10  23  41  68 104 143 177 235 295 366 444
#     4  12  30  50  77 107 151 204 255 315 378 451
#     4  11  24  47  71 100 146 188 243 301 368 446
#     4  11  24  45  71 105 144 189 252 298 378 448
#     4  10  28  42  70 108 142 184 252 310 364 430
#     4  10  23  42  70 103 140 184 230 298 377 430
#     4  10  20  42  72 104 124 190 248 296 358 440
#
# _framework density 22.015443999999999
#
# number of rings (size 3 to 8) (size 9 to 14) (size 15 to 20)
#    0.000    1.333    3.333    0.000   11.667    4.000 
#    0.000    0.000    0.000    0.000    0.000    0.000 
#    0.000    0.000    0.000    0.000    0.000    0.000 
#
# Total GULP energy -268175.949001 kJ/mol
# GULP energy per Si atom -5586.998938 kJ/mol
# Density = 2.196534 g / cm^3
# Si number density = 22.015444 Si / 1000 Ang^3
#
#
#
# Elastic Constant Matrix: (Units=GPa)
#
#
# Indices 1 2 3 4 5 6 
#
# 1 79.5577 43.6356 37.2444 0.0000 0.0000 0.0000
# 2 43.6356 142.0829 39.7724 0.0000 0.0000 0.0000
# 3 37.2444 39.7724 129.3925 0.0000 0.0000 0.0000
# 4 0.0000 0.0000 0.0000 32.4234 0.0000 0.0000
# 5 0.0000 0.0000 0.0000 0.0000 10.5890 0.0000
# 6 0.0000 0.0000 0.0000 0.0000 0.0000 29.8196
#
#
#
# Elastic Compliance Matrix: (Units=1/GPa)
#
#
# Indices 1 2 3 4 5 6 
#
# 1 0.016431 -0.004073 -0.003478 0.000000 0.000000 0.000000
# 2 -0.004073 0.008710 -0.001505 0.000000 0.000000 0.000000
# 3 -0.003478 -0.001505 0.009192 0.000000 0.000000 0.000000
# 4 0.000000 0.000000 0.000000 0.030842 0.000000 0.000000
# 5 0.000000 0.000000 0.000000 0.000000 0.094437 0.000000
# 6 0.000000 0.000000 0.000000 0.000000 0.000000 0.033535
#
#
# Mechanical properties :
#
#
# Convention : Reuss Voigt Hill
#
# Bulk Modulus (GPa) = 61.64239 65.81533 63.72886
# Shear Modulus (GPa) = 23.07693 29.92513 26.50103
#
# Velocity S-wave (km/s) = 3.24113 3.69084 3.47327
# Velocity P-wave (km/s) = 6.48590 6.93708 6.71528
#
# Compressibility (1/GPa) = 0.01622260
#
# Stress axis : x y z
#
# Youngs Moduli (GPa) = 60.85894 114.80721 108.78949
#
# Poissons Ratio (x) = 0.46759 0.37834
# Poissons Ratio (y) = 0.24787 0.16373
# Poissons Ratio (z) = 0.21165 0.17279
#
# Static dielectric constant tensor:
#      x y z
#    x 2.816420 0.000000 0.000000 
#    y 0.000000 1.823360 0.000000 
#    z 0.000000 0.000000 1.665620 
# 
# From -- ./inp_files/31295.got.cif
#   From: 2010.05.17/outbox.cif.g08.bks.cpg/sg52_16_cif.got.tgz:31295.got - 2010.06.03 12:15:38.
