data_PCOD9410778
_publ_section_title
;
Structure prediction by ZEFSAII (Michael W. Deem and Ramdas Pophale) SiO2 
 PCOD9410778
Probable space group: P N N A
;
_chemical_formula_sum "Si O2"
_cell_formula_units_Z 32
_cell_length_a 7.278298
_cell_length_b 8.315952
_cell_length_c 22.735155
_cell_angle_alpha 90.000000
_cell_angle_beta 90.000000
_cell_angle_gamma 90.000000
_cell_volume 1376.067464
_symmetry_space_group_name_H-M "P N N A"
_symmetry_group_IT_number 52
_symmetry_cell_setting 'orthorhombic'
loop_
_space_group_symop_operation_xyz
x,y,z
1/2-x,-y,z
x,1/2-y,1/2-z
1/2-x,1/2+y,1/2-z
-x,-y,-z
1/2+x,y,-z
-x,1/2+y,1/2+z
1/2+x,1/2-y,1/2+z
loop_
_atom_site_type_symbol
_atom_site_label
_atom_site_fract_x
_atom_site_fract_y
_atom_site_fract_z
Si Si1 0.739338 0.192599 0.932735
Si Si2 0.705800 0.690153 0.186972
Si Si3 0.230751 0.188907 0.311720
Si Si4 0.168413 0.680299 0.939572
O O1 0.825210 0.242820 0.870172
O O2 0.548840 0.294508 0.930173
O O3 0.750000 0.000000 0.931591
O O4 0.808942 0.238432 0.997182
O O5 0.750000 0.500000 0.185236
O O6 0.779560 0.750000 0.250000
O O7 0.487098 0.726853 0.189039
O O8 0.756774 0.751283 0.120861
O O9 0.307809 0.250000 0.250000
O O10 0.250000 0.000000 0.313538
O O11 0.250000 0.500000 0.944790
#
# Coordination Sequence:
#
# PCOD9410778 Si02
#       4
#     8   8   8   8
#     4  11  22  37  58  86 117 151 196 250 302 361
#     4   9  20  37  56  82 112 144 187 235 286 346
#     4  10  21  38  58  82 114 152 194 241 293 354
#     4  10  21  38  58  82 115 155 196 242 300 367
#
# _framework density 23.254673
#
# number of rings (size 3 to 8) (size 9 to 14) (size 15 to 20)
#    0.000    2.000    0.000    3.000    0.000    6.000 
#    0.000    2.500    0.000    0.000    0.000    0.000 
#    0.000    0.000    0.000    0.000    0.000    0.000 
#
# Total GULP energy -178152.829879 kJ/mol
# GULP energy per Si atom -5567.275934 kJ/mol
# Density = 2.320174 g / cm^3
# Si number density = 23.254673 Si / 1000 Ang^3
#
#
#
# Elastic Constant Matrix: (Units=GPa)
#
#
# Indices 1 2 3 4 5 6 
#
# 1 71.2101 -43.7289 -16.1569 0.0000 0.0000 0.0000
# 2 -43.7289 73.9063 54.2105 0.0000 0.0000 0.0000
# 3 -16.1569 54.2105 325.7205 0.0000 0.0000 0.0000
# 4 0.0000 0.0000 0.0000 62.5319 0.0000 0.0000
# 5 0.0000 0.0000 0.0000 0.0000 3.1580 0.0000
# 6 0.0000 0.0000 0.0000 0.0000 0.0000 -23.5080
#
#
#
# Elastic Compliance Matrix: (Units=1/GPa)
#
#
# Indices 1 2 3 4 5 6 
#
# 1 0.022497 0.014230 -0.001252 0.000000 0.000000 0.000000
# 2 0.014230 0.024413 -0.003357 0.000000 0.000000 0.000000
# 3 -0.001252 -0.003357 0.003567 0.000000 0.000000 0.000000
# 4 0.000000 0.000000 0.000000 0.015992 0.000000 0.000000
# 5 0.000000 0.000000 0.000000 0.000000 0.316654 0.000000
# 6 0.000000 0.000000 0.000000 0.000000 0.000000 -0.042539
#
#
# Mechanical properties :
#
#
# Convention : Reuss Voigt Hill
#
# Bulk Modulus (GPa) = 14.34382 51.05404 32.69893
# Shear Modulus (GPa) = 14.51033 40.20387 27.35710
#
# Velocity S-wave (km/s) = 2.50066 4.16246 3.43361
# Velocity P-wave (km/s) = 3.81042 6.71590 5.45997
#
# Compressibility (1/GPa) = 0.06971641
#
# Stress axis : x y z
#
# Youngs Moduli (GPa) = 44.45043 40.96252 280.36759
#
# Poissons Ratio (x) = -0.58288 0.35112
# Poissons Ratio (y) = -0.63251 0.94125
# Poissons Ratio (z) = 0.05567 0.13752
#
# Static dielectric constant tensor:
#      x y z
#    x 1.979550 0.000000 0.000000 
#    y 0.000000 1.795080 0.000000 
#    z 0.000000 0.000000 2.024180 
# 
# From -- ./inp_files/35439.got.cif
#   From: 2010.05.17/outbox.cif.g08.bks.cpg/sg52_18_cif.got.tgz:35439.got - 2010.06.03 12:15:38.
