data_PCOD9410739
_publ_section_title
;
Structure prediction by ZEFSAII (Michael W. Deem and Ramdas Pophale) SiO2 
 PCOD9410739
Probable space group: P N N A
;
_chemical_formula_sum "Si O2"
_cell_formula_units_Z 40
_cell_length_a 16.188197
_cell_length_b 8.678038
_cell_length_c 12.508267
_cell_angle_alpha 90.000000
_cell_angle_beta 90.000000
_cell_angle_gamma 90.000000
_cell_volume 1757.183722
_symmetry_space_group_name_H-M "P N N A"
_symmetry_group_IT_number 52
_symmetry_cell_setting 'orthorhombic'
loop_
_space_group_symop_operation_xyz
x,y,z
1/2-x,-y,z
x,1/2-y,1/2-z
1/2-x,1/2+y,1/2-z
-x,-y,-z
1/2+x,y,-z
-x,1/2+y,1/2+z
1/2+x,1/2-y,1/2+z
loop_
_atom_site_type_symbol
_atom_site_label
_atom_site_fract_x
_atom_site_fract_y
_atom_site_fract_z
Si Si1 0.165360 0.582939 0.694870
Si Si2 0.914240 0.003625 0.557728
Si Si3 0.145302 0.841056 0.046157
Si Si4 0.709579 0.172577 0.648114
Si Si5 0.013145 0.926454 0.217866
O O1 0.250000 0.500000 0.732242
O O2 0.164699 0.750000 0.750000
O O3 0.167345 0.584997 0.565657
O O4 0.075497 0.507536 0.716588
O O5 0.877546 0.164046 0.519277
O O6 0.932229 0.011140 0.684248
O O7 0.852369 0.860161 0.549465
O O8 0.000000 0.000000 0.500000
O O9 0.222847 0.803938 0.121991
O O10 0.070422 0.920952 0.111394
O O11 0.666908 0.250000 0.750000
O O12 0.750000 0.000000 0.663783
O O13 0.997805 0.750000 0.250000
#
# Coordination Sequence:
#
# PCOD9410739 Si02
#       5
#     8   8   8   8   8
#     4  12  27  44  65  96 134 179 227 277 338 415
#     4  10  21  37  62  93 128 169 213 269 335 405
#     4  10  22  40  64  93 125 166 219 278 338 398
#     4  10  21  39  63  94 131 171 221 282 341 400
#     4  10  22  44  68  94 130 171 221 280 339 406
#
# _framework density 22.7637
#
# number of rings (size 3 to 8) (size 9 to 14) (size 15 to 20)
#    0.000    1.600    0.000    5.400    0.000   12.000 
#    0.000    0.000    0.000    0.000    0.000    0.000 
#    0.000    0.000    0.000    0.000    0.000    0.000 
#
# Total GULP energy -223204.575472 kJ/mol
# GULP energy per Si atom -5580.114387 kJ/mol
# Density = 2.271189 g / cm^3
# Si number density = 22.763700 Si / 1000 Ang^3
#
#
#
# Elastic Constant Matrix: (Units=GPa)
#
#
# Indices 1 2 3 4 5 6 
#
# 1 132.8865 54.5131 7.3493 0.0000 0.0000 0.0000
# 2 54.5131 62.2153 24.0925 0.0000 0.0000 0.0000
# 3 7.3493 24.0925 38.6299 0.0000 0.0000 0.0000
# 4 0.0000 0.0000 0.0000 21.4647 0.0000 0.0000
# 5 0.0000 0.0000 0.0000 0.0000 21.2646 0.0000
# 6 0.0000 0.0000 0.0000 0.0000 0.0000 42.9853
#
#
#
# Elastic Compliance Matrix: (Units=1/GPa)
#
#
# Indices 1 2 3 4 5 6 
#
# 1 0.012713 -0.013451 0.005971 0.000000 0.000000 0.000000
# 2 -0.013451 0.035424 -0.019534 0.000000 0.000000 0.000000
# 3 0.005971 -0.019534 0.036934 0.000000 0.000000 0.000000
# 4 0.000000 0.000000 0.000000 0.046588 0.000000 0.000000
# 5 0.000000 0.000000 0.000000 0.000000 0.047027 0.000000
# 6 0.000000 0.000000 0.000000 0.000000 0.000000 0.023264
#
#
# Mechanical properties :
#
#
# Convention : Reuss Voigt Hill
#
# Bulk Modulus (GPa) = 32.21515 45.07129 38.64322
# Shear Modulus (GPa) = 18.77409 26.99470 22.88440
#
# Velocity S-wave (km/s) = 2.87494 3.44738 3.17409
# Velocity P-wave (km/s) = 5.02027 5.97398 5.51777
#
# Compressibility (1/GPa) = 0.03104129
#
# Stress axis : x y z
#
# Youngs Moduli (GPa) = 78.65954 28.22980 27.07566
#
# Poissons Ratio (x) = 0.37973 -0.16166
# Poissons Ratio (y) = 1.05807 0.52889
# Poissons Ratio (z) = -0.46964 0.55143
#
# Static dielectric constant tensor:
#      x y z
#    x 2.016740 0.000000 0.000000 
#    y 0.000000 1.893820 0.000000 
#    z 0.000000 0.000000 1.878640 
# 
# From -- ./inp_files/20313.got.cif
#   From: 2010.05.17/outbox.cif.g08.bks.cpg/sg52_11_cif.got.tgz:20313.got - 2010.06.03 12:15:38.
