data_PCOD9410370
_publ_section_title
;
Structure prediction by ZEFSAII (Michael W. Deem and Ramdas Pophale) SiO2 
 PCOD9410370
Probable space group: P N N A
;
_chemical_formula_sum "Si O2"
_cell_formula_units_Z 48
_cell_length_a 25.771212
_cell_length_b 5.855900
_cell_length_c 13.059123
_cell_angle_alpha 90.000000
_cell_angle_beta 90.000000
_cell_angle_gamma 90.000000
_cell_volume 1970.799792
_symmetry_space_group_name_H-M "P N N A"
_symmetry_group_IT_number 52
_symmetry_cell_setting 'orthorhombic'
loop_
_space_group_symop_operation_xyz
x,y,z
1/2-x,-y,z
x,1/2-y,1/2-z
1/2-x,1/2+y,1/2-z
-x,-y,-z
1/2+x,y,-z
-x,1/2+y,1/2+z
1/2+x,1/2-y,1/2+z
loop_
_atom_site_type_symbol
_atom_site_label
_atom_site_fract_x
_atom_site_fract_y
_atom_site_fract_z
Si Si1 0.860894 0.001890 0.836060
Si Si2 0.476777 0.012534 0.867546
Si Si3 0.933925 0.774745 0.544872
Si Si4 0.250000 0.500000 0.346675
Si Si5 0.138849 0.640366 0.973481
Si Si6 0.250000 0.000000 0.460800
Si Si7 0.103633 0.750000 0.750000
Si Si8 0.553047 0.750000 0.750000
O O1 0.804398 0.000854 0.787891
O O2 0.905419 0.049566 0.753416
O O3 0.881734 0.782534 0.893296
O O4 0.860114 0.185782 0.929471
O O5 0.516473 0.807385 0.843548
O O6 0.513932 0.233764 0.887805
O O7 0.437097 0.047712 0.775294
O O8 0.444030 0.928685 0.963581
O O9 0.915408 0.001386 0.488459
O O10 0.252120 0.745459 0.406253
O O11 0.194613 0.513326 0.980503
O O12 0.134719 0.726815 0.855858
#
# Coordination Sequence:
#
# PCOD9410370 Si02
#       8
#     8   8   8   4   8   4   4   4
#     4  10  21  41  63  95 125 171 218 280 333 409
#     4  10  22  37  58  94 130 170 219 266 327 401
#     4  10  20  41  62  85 128 174 210 267 332 397
#     4  10  20  42  72  96 130 174 230 274 356 404
#     4  11  23  40  65  91 126 170 219 279 337 401
#     4  10  22  42  72  98 128 178 224 286 346 414
#     4  12  24  38  60  96 128 170 224 272 336 400
#     4  10  22  40  62  92 134 170 220 276 330 402
#
# _framework density 24.355592000000001
#
# number of rings (size 3 to 8) (size 9 to 14) (size 15 to 20)
#    0.000    1.667    3.333    1.000    2.333    0.667 
#    0.000    8.333    0.000    0.000    0.000    0.000 
#    0.000    0.000    0.000    0.000    0.000    0.000 
#
# Total GULP energy -267392.686261 kJ/mol
# GULP energy per Si atom -5570.680964 kJ/mol
# Density = 2.430016 g / cm^3
# Si number density = 24.355592 Si / 1000 Ang^3
#
#
#
# Elastic Constant Matrix: (Units=GPa)
#
#
# Indices 1 2 3 4 5 6 
#
# 1 161.3120 41.6601 42.3004 0.0000 0.0000 0.0000
# 2 41.6601 88.0467 53.2932 0.0000 0.0000 0.0000
# 3 42.3004 53.2932 98.8518 0.0000 0.0000 0.0000
# 4 0.0000 0.0000 0.0000 32.0202 0.0000 0.0000
# 5 0.0000 0.0000 0.0000 0.0000 18.2933 0.0000
# 6 0.0000 0.0000 0.0000 0.0000 0.0000 28.7278
#
#
#
# Elastic Compliance Matrix: (Units=1/GPa)
#
#
# Indices 1 2 3 4 5 6 
#
# 1 0.007288 -0.002317 -0.001870 0.000000 0.000000 0.000000
# 2 -0.002317 0.017595 -0.008495 0.000000 0.000000 0.000000
# 3 -0.001870 -0.008495 0.015496 0.000000 0.000000 0.000000
# 4 0.000000 0.000000 0.000000 0.031230 0.000000 0.000000
# 5 0.000000 0.000000 0.000000 0.000000 0.054665 0.000000
# 6 0.000000 0.000000 0.000000 0.000000 0.000000 0.034809
#
#
# Mechanical properties :
#
#
# Convention : Reuss Voigt Hill
#
# Bulk Modulus (GPa) = 66.59073 69.19087 67.89080
# Shear Modulus (GPa) = 26.11629 29.87206 27.99418
#
# Velocity S-wave (km/s) = 3.27814 3.50594 3.39395
# Velocity P-wave (km/s) = 6.45977 6.69769 6.57981
#
# Compressibility (1/GPa) = 0.01501710
#
# Stress axis : x y z
#
# Youngs Moduli (GPa) = 137.21735 56.83278 64.53308
#
# Poissons Ratio (x) = 0.13166 0.12065
# Poissons Ratio (y) = 0.31788 0.54820
# Poissons Ratio (z) = 0.25654 0.48278
#
# Static dielectric constant tensor:
#      x y z
#    x 1.910150 0.000000 0.000000 
#    y 0.000000 2.156890 0.000000 
#    z 0.000000 0.000000 1.979440 
# 
# From -- ./inp_files/29493.got.cif
#   From: 2010.05.17/outbox.cif.g08.bks.cpg/sg52_15_cif.got.tgz:29493.got - 2010.06.03 12:15:38.
