data_PCOD9410815
_publ_section_title
;
Structure prediction by ZEFSAII (Michael W. Deem and Ramdas Pophale) SiO2 
 PCOD9410815
Probable space group: P N N A
;
_chemical_formula_sum "Si O2"
_cell_formula_units_Z 56
_cell_length_a 14.585108
_cell_length_b 9.022909
_cell_length_c 21.745239
_cell_angle_alpha 90.000000
_cell_angle_beta 90.000000
_cell_angle_gamma 90.000000
_cell_volume 2861.675676
_symmetry_space_group_name_H-M "P N N A"
_symmetry_group_IT_number 52
_symmetry_cell_setting 'orthorhombic'
loop_
_space_group_symop_operation_xyz
x,y,z
1/2-x,-y,z
x,1/2-y,1/2-z
1/2-x,1/2+y,1/2-z
-x,-y,-z
1/2+x,y,-z
-x,1/2+y,1/2+z
1/2+x,1/2-y,1/2+z
loop_
_atom_site_type_symbol
_atom_site_label
_atom_site_fract_x
_atom_site_fract_y
_atom_site_fract_z
Si Si1 0.265756 0.823458 0.185609
Si Si2 0.171770 0.876170 0.416214
Si Si3 0.502099 0.573343 0.082319
Si Si4 0.455511 0.505456 0.570665
Si Si5 0.483499 0.704691 0.320896
Si Si6 0.097951 0.305363 0.966831
Si Si7 0.210023 0.851664 0.989307
O O1 0.238513 0.750000 0.250000
O O2 0.210514 0.733453 0.134858
O O3 0.373129 0.789513 0.176118
O O4 0.250000 0.000000 0.185179
O O5 0.151855 0.763718 0.471533
O O6 0.250000 0.000000 0.429698
O O7 0.080593 0.963765 0.399917
O O8 0.530670 0.666399 0.140030
O O9 0.582807 0.471730 0.056355
O O10 0.455321 0.683617 0.032303
O O11 0.500000 0.500000 0.500000
O O12 0.495581 0.437436 0.634049
O O13 0.445530 0.682083 0.577309
O O14 0.356947 0.423918 0.560898
O O15 0.506041 0.750000 0.250000
O O16 0.200959 0.246091 0.973327
O O17 0.250000 0.000000 0.023069
#
# Coordination Sequence:
#
# PCOD9410815 Si02
#       7
#     8   8   8   8   8   8   8
#     4  11  25  40  59  83 122 168 216 256 310 393
#     4  12  21  34  56  87 124 164 202 245 321 380
#     4  11  22  38  58  90 130 161 209 260 320 389
#     4  11  22  39  64  91 121 163 211 261 328 379
#     4  11  25  43  60  87 129 171 211 261 319 389
#     4  10  21  38  61  91 125 159 206 270 318 379
#     4  10  22  37  59  91 125 156 206 265 321 381
#
# _framework density 19.568954999999999
#
# number of rings (size 3 to 8) (size 9 to 14) (size 15 to 20)
#    0.000    1.143    4.286    1.714   10.000    0.000 
#    0.000    0.714    0.000    5.143    0.000    0.000 
#    0.000    0.000    0.000    0.000    0.000    0.000 
#
# Total GULP energy -311878.511226 kJ/mol
# GULP energy per Si atom -5569.259129 kJ/mol
# Density = 1.952442 g / cm^3
# Si number density = 19.568955 Si / 1000 Ang^3
#
#
#
# Elastic Constant Matrix: (Units=GPa)
#
#
# Indices 1 2 3 4 5 6 
#
# 1 67.8780 27.4926 19.4928 0.0000 0.0000 0.0000
# 2 27.4926 119.9950 52.6980 0.0000 0.0000 0.0000
# 3 19.4928 52.6980 105.0784 0.0000 0.0000 0.0000
# 4 0.0000 0.0000 0.0000 30.3105 0.0000 0.0000
# 5 0.0000 0.0000 0.0000 0.0000 16.8020 0.0000
# 6 0.0000 0.0000 0.0000 0.0000 0.0000 41.1036
#
#
#
# Elastic Compliance Matrix: (Units=1/GPa)
#
#
# Indices 1 2 3 4 5 6 
#
# 1 0.016418 -0.003109 -0.001487 0.000000 0.000000 0.000000
# 2 -0.003109 0.011276 -0.005078 0.000000 0.000000 0.000000
# 3 -0.001487 -0.005078 0.012339 0.000000 0.000000 0.000000
# 4 0.000000 0.000000 0.000000 0.032992 0.000000 0.000000
# 5 0.000000 0.000000 0.000000 0.000000 0.059517 0.000000
# 6 0.000000 0.000000 0.000000 0.000000 0.000000 0.024329
#
#
# Mechanical properties :
#
#
# Convention : Reuss Voigt Hill
#
# Bulk Modulus (GPa) = 48.34131 54.70202 51.52167
# Shear Modulus (GPa) = 27.30528 30.52774 28.91651
#
# Velocity S-wave (km/s) = 3.73947 3.95398 3.84822
# Velocity P-wave (km/s) = 6.58799 6.98995 6.79194
#
# Compressibility (1/GPa) = 0.02068624
#
# Stress axis : x y z
#
# Youngs Moduli (GPa) = 60.90731 88.68181 81.04122
#
# Poissons Ratio (x) = 0.27570 0.12048
# Poissons Ratio (y) = 0.18935 0.41157
# Poissons Ratio (z) = 0.09055 0.45037
#
# Static dielectric constant tensor:
#      x y z
#    x 1.728410 0.000000 0.000000 
#    y 0.000000 1.747840 0.000000 
#    z 0.000000 0.000000 1.766840 
# 
# From -- ./inp_files/37326.got.cif
#   From: 2010.05.17/outbox.cif.g08.bks.cpg/sg52_19_cif.got.tgz:37326.got - 2010.06.03 12:15:38.
