data_PCOD9410344
_publ_section_title
;
Structure prediction by ZEFSAII (Michael W. Deem and Ramdas Pophale) SiO2 
 PCOD9410344
Probable space group: P N N A
;
_chemical_formula_sum "Si O2"
_cell_formula_units_Z 32
_cell_length_a 15.386688
_cell_length_b 11.784478
_cell_length_c 7.714890
_cell_angle_alpha 90.000000
_cell_angle_beta 90.000000
_cell_angle_gamma 90.000000
_cell_volume 1398.895380
_symmetry_space_group_name_H-M "P N N A"
_symmetry_group_IT_number 52
_symmetry_cell_setting 'orthorhombic'
loop_
_space_group_symop_operation_xyz
x,y,z
1/2-x,-y,z
x,1/2-y,1/2-z
1/2-x,1/2+y,1/2-z
-x,-y,-z
1/2+x,y,-z
-x,1/2+y,1/2+z
1/2+x,1/2-y,1/2+z
loop_
_atom_site_type_symbol
_atom_site_label
_atom_site_fract_x
_atom_site_fract_y
_atom_site_fract_z
Si Si1 0.535487 0.924107 0.244656
Si Si2 0.136242 0.183025 0.083567
Si Si3 0.002978 0.169273 0.611821
Si Si4 0.276462 0.379891 0.675563
O O1 0.446492 0.887572 0.153435
O O2 0.543807 0.861247 0.431629
O O3 0.621269 0.894742 0.139440
O O4 0.527849 0.055193 0.289852
O O5 0.170919 0.250000 0.250000
O O6 0.212212 0.118954 0.987361
O O7 0.091086 0.269721 0.950064
O O8 0.956364 0.250000 0.750000
O O9 0.250000 0.500000 0.774710
O O10 0.267522 0.250000 0.750000
#
# Coordination Sequence:
#
# PCOD9410344 Si02
#       4
#     8   8   8   8
#     4  10  23  42  67  96 128 173 222 265 326 400
#     4  10  22  43  66  94 133 171 215 274 330 387
#     4  10  20  40  69  94 126 171 219 274 331 382
#     4  12  25  43  67  98 136 175 221 274 329 391
#
# _framework density 22.875194
#
# number of rings (size 3 to 8) (size 9 to 14) (size 15 to 20)
#    0.000    1.500    0.000    6.000    0.000    6.000 
#    0.000   17.500    0.000    0.000    0.000    0.000 
#    0.000    0.000    0.000    0.000    0.000    0.000 
#
# Total GULP energy -178776.767428 kJ/mol
# GULP energy per Si atom -5586.773982 kJ/mol
# Density = 2.282313 g / cm^3
# Si number density = 22.875194 Si / 1000 Ang^3
#
#
#
# Elastic Constant Matrix: (Units=GPa)
#
#
# Indices 1 2 3 4 5 6 
#
# 1 109.4074 66.7105 57.9160 0.0000 0.0000 0.0000
# 2 66.7105 168.2410 72.5319 0.0000 0.0000 0.0000
# 3 57.9160 72.5319 101.8078 0.0000 0.0000 0.0000
# 4 0.0000 0.0000 0.0000 35.2856 0.0000 0.0000
# 5 0.0000 0.0000 0.0000 0.0000 13.7440 0.0000
# 6 0.0000 0.0000 0.0000 0.0000 0.0000 28.4821
#
#
#
# Elastic Compliance Matrix: (Units=1/GPa)
#
#
# Indices 1 2 3 4 5 6 
#
# 1 0.014104 -0.003079 -0.005829 0.000000 0.000000 0.000000
# 2 -0.003079 0.009251 -0.004839 0.000000 0.000000 0.000000
# 3 -0.005829 -0.004839 0.016586 0.000000 0.000000 0.000000
# 4 0.000000 0.000000 0.000000 0.028340 0.000000 0.000000
# 5 0.000000 0.000000 0.000000 0.000000 0.072759 0.000000
# 6 0.000000 0.000000 0.000000 0.000000 0.000000 0.035110
#
#
# Mechanical properties :
#
#
# Convention : Reuss Voigt Hill
#
# Bulk Modulus (GPa) = 80.35136 85.97478 83.16307
# Shear Modulus (GPa) = 24.06233 27.65553 25.85893
#
# Velocity S-wave (km/s) = 3.24681 3.48080 3.36584
# Velocity P-wave (km/s) = 7.01840 7.33625 7.17908
#
# Compressibility (1/GPa) = 0.01244534
#
# Stress axis : x y z
#
# Youngs Moduli (GPa) = 70.90436 108.09611 60.29072
#
# Poissons Ratio (x) = 0.33284 0.35146
# Poissons Ratio (y) = 0.21832 0.29176
# Poissons Ratio (z) = 0.41334 0.52310
#
# Static dielectric constant tensor:
#      x y z
#    x 1.792790 0.000000 0.000000 
#    y 0.000000 1.963320 0.000000 
#    z 0.000000 0.000000 1.891750 
# 
# From -- ./inp_files/9558.got.cif
#   From: 2010.05.17/outbox.cif.g08.bks.cpg/sg52_5_cif.got.tgz:9558.got - 2010.06.03 12:15:38.
