data_PCOD9410551
_publ_section_title
;
Structure prediction by ZEFSAII (Michael W. Deem and Ramdas Pophale) SiO2 
 PCOD9410551
Probable space group: P N N A
;
_chemical_formula_sum "Si O2"
_cell_formula_units_Z 64
_cell_length_a 9.823991
_cell_length_b 21.559019
_cell_length_c 17.716591
_cell_angle_alpha 90.000000
_cell_angle_beta 90.000000
_cell_angle_gamma 90.000000
_cell_volume 3752.296174
_symmetry_space_group_name_H-M "P N N A"
_symmetry_group_IT_number 52
_symmetry_cell_setting 'orthorhombic'
loop_
_space_group_symop_operation_xyz
x,y,z
1/2-x,-y,z
x,1/2-y,1/2-z
1/2-x,1/2+y,1/2-z
-x,-y,-z
1/2+x,y,-z
-x,1/2+y,1/2+z
1/2+x,1/2-y,1/2+z
loop_
_atom_site_type_symbol
_atom_site_label
_atom_site_fract_x
_atom_site_fract_y
_atom_site_fract_z
Si Si1 0.686695 0.645146 0.873646
Si Si2 0.593654 0.522716 0.933530
Si Si3 0.050617 0.945437 0.854211
Si Si4 0.975513 0.315708 0.725829
Si Si5 0.873582 0.547663 0.792262
Si Si6 0.952846 0.851445 0.982731
Si Si7 0.634129 0.415814 0.363274
Si Si8 0.188352 0.782747 0.074686
O O1 0.603461 0.596188 0.923782
O O2 0.603352 0.661771 0.798976
O O3 0.813776 0.606203 0.839063
O O4 0.707364 0.708584 0.919171
O O5 0.750000 0.500000 0.944400
O O6 0.545631 0.492835 0.854214
O O7 0.500000 0.500000 0.000000
O O8 0.209136 0.928783 0.845244
O O9 0.959454 0.933316 0.780243
O O10 0.000152 0.904857 0.924895
O O11 0.050971 0.019741 0.865923
O O12 0.040824 0.250000 0.750000
O O13 0.872010 0.303640 0.656101
O O14 0.075997 0.368481 0.697934
O O15 0.750000 0.500000 0.770058
O O16 0.834030 0.812314 0.943101
O O17 0.886222 0.883601 0.055913
O O18 0.077661 0.808807 0.013886
#
# Coordination Sequence:
#
# PCOD9410551 Si02
#       8
#     8   8   8   8   8   8   8   8
#     4   9  18  36  59  81 105 149 192 233 287 349
#     4   9  19  36  56  81 113 137 182 239 292 351
#     4  11  21  36  58  83 119 151 195 239 292 349
#     4   9  18  36  57  80 107 146 191 232 283 338
#     4   9  19  36  58  84 112 142 189 243 293 346
#     4  11  21  38  52  84 118 158 192 237 282 338
#     4  10  21  36  54  84 119 153 187 239 290 355
#     4  10  21  34  59  78 115 153 198 233 281 346
#
# _framework density 17.056222999999999
#
# number of rings (size 3 to 8) (size 9 to 14) (size 15 to 20)
#    0.000    2.500    1.250    2.625    0.000    3.000 
#    6.750    1.250    0.000    0.000    0.000    0.000 
#    0.000    0.000    0.000    0.000    0.000    0.000 
#
# Total GULP energy -356537.649725 kJ/mol
# GULP energy per Si atom -5570.900777 kJ/mol
# Density = 1.701740 g / cm^3
# Si number density = 17.056223 Si / 1000 Ang^3
#
#
#
# Elastic Constant Matrix: (Units=GPa)
#
#
# Indices 1 2 3 4 5 6 
#
# 1 61.7718 45.4939 36.1016 0.0000 0.0000 0.0000
# 2 45.4939 147.6680 47.2686 0.0000 0.0000 0.0000
# 3 36.1016 47.2686 82.5358 0.0000 0.0000 0.0000
# 4 0.0000 0.0000 0.0000 19.6857 0.0000 0.0000
# 5 0.0000 0.0000 0.0000 0.0000 23.2555 0.0000
# 6 0.0000 0.0000 0.0000 0.0000 0.0000 20.8646
#
#
#
# Elastic Compliance Matrix: (Units=1/GPa)
#
#
# Indices 1 2 3 4 5 6 
#
# 1 0.024466 -0.005035 -0.007818 0.000000 0.000000 0.000000
# 2 -0.005035 0.009328 -0.003140 0.000000 0.000000 0.000000
# 3 -0.007818 -0.003140 0.017334 0.000000 0.000000 0.000000
# 4 0.000000 0.000000 0.000000 0.050798 0.000000 0.000000
# 5 0.000000 0.000000 0.000000 0.000000 0.043001 0.000000
# 6 0.000000 0.000000 0.000000 0.000000 0.000000 0.047928
#
#
# Mechanical properties :
#
#
# Convention : Reuss Voigt Hill
#
# Bulk Modulus (GPa) = 52.24081 61.07820 56.65950
# Shear Modulus (GPa) = 21.62430 23.63527 22.62979
#
# Velocity S-wave (km/s) = 3.56452 3.72657 3.64645
# Velocity P-wave (km/s) = 6.90189 7.37592 7.14284
#
# Compressibility (1/GPa) = 0.01914212
#
# Stress axis : x y z
#
# Youngs Moduli (GPa) = 40.87322 107.20127 57.69047
#
# Poissons Ratio (x) = 0.53976 0.45102
# Poissons Ratio (y) = 0.20580 0.18115
# Poissons Ratio (z) = 0.31955 0.33661
#
# Static dielectric constant tensor:
#      x y z
#    x 1.564030 0.000000 0.000000 
#    y 0.000000 1.609510 0.000000 
#    z 0.000000 0.000000 1.568920 
# 
# From -- ./inp_files/31594.got.cif
#   From: 2010.05.17/outbox.cif.g08.bks.cpg/sg52_16_cif.got.tgz:31594.got - 2010.06.03 12:15:38.
