data_PCOD9410962
_publ_section_title
;
Structure prediction by ZEFSAII (Michael W. Deem and Ramdas Pophale) SiO2 
 PCOD9410962
Probable space group: P N N A
;
_chemical_formula_sum "Si O2"
_cell_formula_units_Z 64
_cell_length_a 14.138957
_cell_length_b 10.857271
_cell_length_c 19.652597
_cell_angle_alpha 90.000000
_cell_angle_beta 90.000000
_cell_angle_gamma 90.000000
_cell_volume 3016.879752
_symmetry_space_group_name_H-M "P N N A"
_symmetry_group_IT_number 52
_symmetry_cell_setting 'orthorhombic'
loop_
_space_group_symop_operation_xyz
x,y,z
1/2-x,-y,z
x,1/2-y,1/2-z
1/2-x,1/2+y,1/2-z
-x,-y,-z
1/2+x,y,-z
-x,1/2+y,1/2+z
1/2+x,1/2-y,1/2+z
loop_
_atom_site_type_symbol
_atom_site_label
_atom_site_fract_x
_atom_site_fract_y
_atom_site_fract_z
Si Si1 0.019421 0.186602 0.912773
Si Si2 0.603955 0.730411 0.039492
Si Si3 0.361964 0.983157 0.473518
Si Si4 0.616470 0.903818 0.800420
Si Si5 0.186004 0.166592 0.153975
Si Si6 0.682463 0.291831 0.497693
Si Si7 0.504900 0.800313 0.322816
Si Si8 0.973946 0.070572 0.657043
O O1 0.116560 0.137704 0.944354
O O2 0.966374 0.109606 0.855583
O O3 0.033151 0.318848 0.875551
O O4 0.949267 0.204956 0.976795
O O5 0.714097 0.764879 0.031976
O O6 0.556565 0.758019 0.111758
O O7 0.595891 0.581965 0.026460
O O8 0.372478 0.839230 0.489654
O O9 0.250000 0.000000 0.472530
O O10 0.401349 0.027228 0.401373
O O11 0.705839 0.819189 0.822189
O O12 0.578514 0.884107 0.724817
O O13 0.650344 0.044668 0.808134
O O14 0.108033 0.271048 0.169394
O O15 0.189042 0.149175 0.072335
O O16 0.534855 0.750000 0.250000
O O17 0.525863 0.945260 0.323502
#
# Coordination Sequence:
#
# PCOD9410962 Si02
#       8
#     8   8   8   8   8   8   8   8
#     4  11  22  39  63  87 125 166 204 256 311 371
#     4  10  21  39  62  93 125 156 211 260 306 371
#     4   9  19  32  60  94 120 152 192 256 317 353
#     4  11  25  41  55  92 130 166 202 249 316 385
#     4  11  23  40  61  90 125 162 205 252 318 373
#     4  11  20  40  64  93 119 159 217 259 308 362
#     4  12  23  40  64  91 123 166 204 256 314 374
#     4  11  22  37  60  93 128 159 199 256 313 379
#
# _framework density 21.213971999999998
#
# number of rings (size 3 to 8) (size 9 to 14) (size 15 to 20)
#    0.000    1.250    5.000    1.125    1.750    3.500 
#    0.000    1.250    0.000    0.000    0.000    0.000 
#    0.000    0.000    0.000    0.000    0.000    0.000 
#
# Total GULP energy -357761.095146 kJ/mol
# GULP energy per Si atom -5590.017112 kJ/mol
# Density = 2.116569 g / cm^3
# Si number density = 21.213972 Si / 1000 Ang^3
#
#
#
# Elastic Constant Matrix: (Units=GPa)
#
#
# Indices 1 2 3 4 5 6 
#
# 1 84.0237 -1.9075 54.3300 0.0000 0.0000 0.0000
# 2 -1.9075 13.8244 9.9797 0.0000 0.0000 0.0000
# 3 54.3300 9.9797 178.1692 0.0000 0.0000 0.0000
# 4 0.0000 0.0000 0.0000 30.5532 0.0000 0.0000
# 5 0.0000 0.0000 0.0000 0.0000 32.0088 0.0000
# 6 0.0000 0.0000 0.0000 0.0000 0.0000 17.2140
#
#
#
# Elastic Compliance Matrix: (Units=1/GPa)
#
#
# Indices 1 2 3 4 5 6 
#
# 1 0.015242 0.005688 -0.004966 0.000000 0.000000 0.000000
# 2 0.005688 0.077507 -0.006076 0.000000 0.000000 0.000000
# 3 -0.004966 -0.006076 0.007467 0.000000 0.000000 0.000000
# 4 0.000000 0.000000 0.000000 0.032730 0.000000 0.000000
# 5 0.000000 0.000000 0.000000 0.000000 0.031241 0.000000
# 6 0.000000 0.000000 0.000000 0.000000 0.000000 0.058092
#
#
# Mechanical properties :
#
#
# Convention : Reuss Voigt Hill
#
# Bulk Modulus (GPa) = 11.17214 44.53575 27.85395
# Shear Modulus (GPa) = 19.02414 30.19621 24.61018
#
# Velocity S-wave (km/s) = 2.99787 3.77691 3.40971
# Velocity P-wave (km/s) = 4.15461 6.32923 5.35350
#
# Compressibility (1/GPa) = 0.08950833
#
# Stress axis : x y z
#
# Youngs Moduli (GPa) = 65.60899 12.90204 133.91557
#
# Poissons Ratio (x) = -0.07339 0.66508
# Poissons Ratio (y) = -0.37321 0.81366
# Poissons Ratio (z) = 0.32584 0.07839
#
# Static dielectric constant tensor:
#      x y z
#    x 1.770290 0.000000 0.000000 
#    y 0.000000 1.862130 0.000000 
#    z 0.000000 0.000000 1.749980 
# 
# From -- ./inp_files/33285.got.cif
#   From: 2010.05.17/outbox.cif.g08.bks.cpg/sg52_17_cif.got.tgz:33285.got - 2010.06.03 12:15:38.
