data_PCOD9410460
_publ_section_title
;
Structure prediction by ZEFSAII (Michael W. Deem and Ramdas Pophale) SiO2 
 PCOD9410460
Probable space group: P N N A
;
_chemical_formula_sum "Si O2"
_cell_formula_units_Z 20
_cell_length_a 8.219605
_cell_length_b 8.261495
_cell_length_c 11.083823
_cell_angle_alpha 90.000000
_cell_angle_beta 90.000000
_cell_angle_gamma 90.000000
_cell_volume 752.660585
_symmetry_space_group_name_H-M "P N N A"
_symmetry_group_IT_number 52
_symmetry_cell_setting 'orthorhombic'
loop_
_space_group_symop_operation_xyz
x,y,z
1/2-x,-y,z
x,1/2-y,1/2-z
1/2-x,1/2+y,1/2-z
-x,-y,-z
1/2+x,y,-z
-x,1/2+y,1/2+z
1/2+x,1/2-y,1/2+z
loop_
_atom_site_type_symbol
_atom_site_label
_atom_site_fract_x
_atom_site_fract_y
_atom_site_fract_z
Si Si1 0.931933 0.473526 0.348328
Si Si2 0.161327 0.750000 0.250000
Si Si3 0.538667 0.138673 0.597809
O O1 0.750000 0.500000 0.390450
O O2 0.049590 0.624581 0.322163
O O3 0.002978 0.327674 0.428992
O O4 0.923861 0.406864 0.210289
O O5 0.281237 0.840081 0.343984
O O6 0.500000 0.000000 0.500000
#
# Coordination Sequence:
#
# PCOD9410460 Si02
#       3
#     8   4   8
#     4  10  21  41  68 103 150 193 239 315 379 438
#     4  10  20  42  72 100 150 204 240 312 386 434
#     4  10  21  39  68 106 142 193 250 300 373 461
#
# _framework density 26.572400999999999
#
# number of rings (size 3 to 8) (size 9 to 14) (size 15 to 20)
#    0.000    2.400    0.000    7.200    0.000    3.200 
#    0.000    8.000    0.000   19.200    0.000    5.600 
#    0.000    0.000    0.000    0.000    0.000    0.000 
#
# Total GULP energy -111776.225938 kJ/mol
# GULP energy per Si atom -5588.811297 kJ/mol
# Density = 2.651192 g / cm^3
# Si number density = 26.572401 Si / 1000 Ang^3
#
#
#
# Elastic Constant Matrix: (Units=GPa)
#
#
# Indices 1 2 3 4 5 6 
#
# 1 225.2923 145.8966 57.4464 0.0000 0.0000 0.0000
# 2 145.8966 290.1458 90.8227 0.0000 0.0000 0.0000
# 3 57.4464 90.8227 162.4823 0.0000 0.0000 0.0000
# 4 0.0000 0.0000 0.0000 58.6001 0.0000 0.0000
# 5 0.0000 0.0000 0.0000 0.0000 32.2088 0.0000
# 6 0.0000 0.0000 0.0000 0.0000 0.0000 53.6953
#
#
#
# Elastic Compliance Matrix: (Units=1/GPa)
#
#
# Indices 1 2 3 4 5 6 
#
# 1 0.006627 -0.003150 -0.000582 0.000000 0.000000 0.000000
# 2 -0.003150 0.005675 -0.002058 0.000000 0.000000 0.000000
# 3 -0.000582 -0.002058 0.007511 0.000000 0.000000 0.000000
# 4 0.000000 0.000000 0.000000 0.017065 0.000000 0.000000
# 5 0.000000 0.000000 0.000000 0.000000 0.031047 0.000000
# 6 0.000000 0.000000 0.000000 0.000000 0.000000 0.018624
#
#
# Mechanical properties :
#
#
# Convention : Reuss Voigt Hill
#
# Bulk Modulus (GPa) = 121.48422 140.69465 131.08944
# Shear Modulus (GPa) = 49.56681 54.48449 52.02565
#
# Velocity S-wave (km/s) = 4.32365 4.53306 4.42960
# Velocity P-wave (km/s) = 8.41087 8.97000 8.69493
#
# Compressibility (1/GPa) = 0.00823152
#
# Stress axis : x y z
#
# Youngs Moduli (GPa) = 150.89511 176.21600 133.13971
#
# Poissons Ratio (x) = 0.55510 0.07752
# Poissons Ratio (y) = 0.47534 0.27405
# Poissons Ratio (z) = 0.08786 0.36271
#
# Static dielectric constant tensor:
#      x y z
#    x 2.039730 0.000000 0.000000 
#    y 0.000000 2.360610 0.000000 
#    z 0.000000 0.000000 1.745600 
# 
# From -- ./inp_files/16171.got.cif
#   From: 2010.05.17/outbox.cif.g08.bks.cpg/sg52_9_cif.got.tgz:16171.got - 2010.06.03 12:15:38.
