data_PCOD9410232
_publ_section_title
;
Structure prediction by ZEFSAII (Michael W. Deem and Ramdas Pophale) SiO2 
 PCOD9410232
Probable space group: P N N A
;
_chemical_formula_sum "Si O2"
_cell_formula_units_Z 32
_cell_length_a 16.694286
_cell_length_b 7.471681
_cell_length_c 10.543929
_cell_angle_alpha 90.000000
_cell_angle_beta 90.000000
_cell_angle_gamma 90.000000
_cell_volume 1315.190441
_symmetry_space_group_name_H-M "P N N A"
_symmetry_group_IT_number 52
_symmetry_cell_setting 'orthorhombic'
loop_
_space_group_symop_operation_xyz
x,y,z
1/2-x,-y,z
x,1/2-y,1/2-z
1/2-x,1/2+y,1/2-z
-x,-y,-z
1/2+x,y,-z
-x,1/2+y,1/2+z
1/2+x,1/2-y,1/2+z
loop_
_atom_site_type_symbol
_atom_site_label
_atom_site_fract_x
_atom_site_fract_y
_atom_site_fract_z
Si Si1 0.669326 0.925583 0.179518
Si Si2 0.029111 0.428797 0.804341
Si Si3 0.621162 0.047919 0.577762
Si Si4 0.271080 0.306121 0.407529
O O1 0.642095 0.750000 0.250000
O O2 0.750000 0.000000 0.244611
O O3 0.594310 0.050623 0.192755
O O4 0.694188 0.873138 0.040612
O O5 0.988298 0.250000 0.750000
O O6 0.955697 0.561517 0.830823
O O7 0.082431 0.442837 0.934564
O O8 0.686366 0.204194 0.585121
O O9 0.666267 0.859788 0.613816
O O10 0.250000 0.500000 0.341150
#
# Coordination Sequence:
#
# PCOD9410232 Si02
#       4
#     8   8   8   8
#     4  11  19  32  61  94 125 166 224 282 343 403
#     4  11  22  39  60  96 139 179 218 289 353 418
#     4  10  22  41  63  93 142 177 224 294 352 409
#     4  10  20  39  66  93 126 180 231 282 344 418
#
# _framework density 24.331077000000001
#
# number of rings (size 3 to 8) (size 9 to 14) (size 15 to 20)
#    0.000    1.500    2.500    5.250    0.000    0.000 
#    4.500    3.750    5.500    0.000    0.000    0.000 
#    0.000    0.000    0.000    0.000    0.000    0.000 
#
# Total GULP energy -178137.578826 kJ/mol
# GULP energy per Si atom -5566.799338 kJ/mol
# Density = 2.427570 g / cm^3
# Si number density = 24.331077 Si / 1000 Ang^3
#
#
#
# Elastic Constant Matrix: (Units=GPa)
#
#
# Indices 1 2 3 4 5 6 
#
# 1 195.5385 55.8170 49.0983 0.0000 0.0000 0.0000
# 2 55.8170 121.7089 43.1922 0.0000 0.0000 0.0000
# 3 49.0983 43.1922 86.7090 0.0000 0.0000 0.0000
# 4 0.0000 0.0000 0.0000 -0.1172 0.0000 0.0000
# 5 0.0000 0.0000 0.0000 0.0000 241.9488 0.0000
# 6 0.0000 0.0000 0.0000 0.0000 0.0000 20.7438
#
#
#
# Elastic Compliance Matrix: (Units=1/GPa)
#
#
# Indices 1 2 3 4 5 6 
#
# 1 0.006332 -0.001982 -0.002598 0.000000 0.000000 0.000000
# 2 -0.001982 0.010601 -0.004158 0.000000 0.000000 0.000000
# 3 -0.002598 -0.004158 0.015076 0.000000 0.000000 0.000000
# 4 0.000000 0.000000 0.000000 -8.532471 0.000000 0.000000
# 5 0.000000 0.000000 0.000000 0.000000 0.004133 0.000000
# 6 0.000000 0.000000 0.000000 0.000000 0.000000 0.048207
#
#
# Mechanical properties :
#
#
# Convention : Reuss Voigt Hill
#
# Bulk Modulus (GPa) = 68.81627 77.79681 73.30654
# Shear Modulus (GPa) = -0.59342 69.57167 34.48913
#
# Velocity S-wave (km/s) = -0.49439 5.35311 3.76905
# Velocity P-wave (km/s) = 5.29328 8.38161 7.00964
#
# Compressibility (1/GPa) = 0.01453145
#
# Stress axis : x y z
#
# Youngs Moduli (GPa) = 157.92161 94.33072 66.33264
#
# Poissons Ratio (x) = 0.18696 0.17235
# Poissons Ratio (y) = 0.31299 0.27584
# Poissons Ratio (z) = 0.41033 0.39226
#
# Static dielectric constant tensor:
#      x y z
#    x -2.504800 0.000000 0.000000 
#    y 0.000000 2.055390 0.000000 
#    z 0.000000 0.000000 2.012020 
# 
# From -- ./inp_files/18888.got.cif
#   From: 2010.05.17/outbox.cif.g08.bks.cpg/sg52_10_cif.got.tgz:18888.got - 2010.06.03 12:15:38.
