data_PCOD9410911
_publ_section_title
;
Structure prediction by ZEFSAII (Michael W. Deem and Ramdas Pophale) SiO2 
 PCOD9410911
Probable space group: P N N A
;
_chemical_formula_sum "Si O2"
_cell_formula_units_Z 40
_cell_length_a 8.795351
_cell_length_b 14.351338
_cell_length_c 12.888178
_cell_angle_alpha 90.000000
_cell_angle_beta 90.000000
_cell_angle_gamma 90.000000
_cell_volume 1626.810977
_symmetry_space_group_name_H-M "P N N A"
_symmetry_group_IT_number 52
_symmetry_cell_setting 'orthorhombic'
loop_
_space_group_symop_operation_xyz
x,y,z
1/2-x,-y,z
x,1/2-y,1/2-z
1/2-x,1/2+y,1/2-z
-x,-y,-z
1/2+x,y,-z
-x,1/2+y,1/2+z
1/2+x,1/2-y,1/2+z
loop_
_atom_site_type_symbol
_atom_site_label
_atom_site_fract_x
_atom_site_fract_y
_atom_site_fract_z
Si Si1 0.282340 0.391869 0.888974
Si Si2 0.750000 0.000000 0.052845
Si Si3 0.010600 0.705942 0.052093
Si Si4 0.750000 0.500000 0.794072
Si Si5 0.921772 0.817400 0.662370
Si Si6 0.546562 0.903802 0.877382
O O1 0.250000 0.500000 0.882013
O O2 0.405877 0.350215 0.809796
O O3 0.119634 0.344611 0.884668
O O4 0.369203 0.363554 0.997409
O O5 0.870293 0.936045 0.115010
O O6 0.640708 0.940075 0.977690
O O7 0.064858 0.793109 0.116471
O O8 0.930195 0.739999 0.944704
O O9 0.835884 0.584480 0.850471
O O10 0.625912 0.549700 0.720941
O O11 0.861375 0.750000 0.750000
#
# Coordination Sequence:
#
# PCOD9410911 Si02
#       6
#     8   4   8   4   8   8
#     4  10  23  44  70  93 132 178 238 275 340 417
#     4   9  20  34  62 102 133 166 230 273 322 408
#     4  10  23  40  73  95 133 177 238 270 338 417
#     4  11  26  48  66 102 143 190 224 299 364 412
#     4  10  27  44  68  97 148 173 225 295 361 396
#     4  10  21  38  70 100 135 179 233 275 345 420
#
# _framework density 24.587980999999999
#
# number of rings (size 3 to 8) (size 9 to 14) (size 15 to 20)
#    1.200    0.800    0.000    1.800   12.600    0.000 
#    5.400    0.000    0.000    0.000    0.000    0.000 
#    0.000    0.000    0.000    0.000    0.000    0.000 
#
# Total GULP energy -223557.200370 kJ/mol
# GULP energy per Si atom -5588.930009 kJ/mol
# Density = 2.453202 g / cm^3
# Si number density = 24.587981 Si / 1000 Ang^3
#
#
#
# Elastic Constant Matrix: (Units=GPa)
#
#
# Indices 1 2 3 4 5 6 
#
# 1 125.0421 45.6936 23.9972 0.0000 0.0000 0.0000
# 2 45.6936 121.6840 16.8363 0.0000 0.0000 0.0000
# 3 23.9972 16.8363 44.9083 0.0000 0.0000 0.0000
# 4 0.0000 0.0000 0.0000 25.5959 0.0000 0.0000
# 5 0.0000 0.0000 0.0000 0.0000 -4.7269 0.0000
# 6 0.0000 0.0000 0.0000 0.0000 0.0000 27.2542
#
#
#
# Elastic Compliance Matrix: (Units=1/GPa)
#
#
# Indices 1 2 3 4 5 6 
#
# 1 0.009946 -0.003163 -0.004129 0.000000 0.000000 0.000000
# 2 -0.003163 0.009674 -0.001936 0.000000 0.000000 0.000000
# 3 -0.004129 -0.001936 0.025200 0.000000 0.000000 0.000000
# 4 0.000000 0.000000 0.000000 0.039069 0.000000 0.000000
# 5 0.000000 0.000000 0.000000 0.000000 -0.211557 0.000000
# 6 0.000000 0.000000 0.000000 0.000000 0.000000 0.036692
#
#
# Mechanical properties :
#
#
# Convention : Reuss Voigt Hill
#
# Bulk Modulus (GPa) = 37.93272 51.63205 44.78238
# Shear Modulus (GPa) = -78.45244 23.29846 -27.57699
#
# Velocity S-wave (km/s) = -5.65474 3.08158 -3.35261
# Velocity P-wave (km/s) = 5.21286 5.80568 1.80721
#
# Compressibility (1/GPa) = 0.02636247
#
# Stress axis : x y z
#
# Youngs Moduli (GPa) = 100.54656 103.37168 39.68303
#
# Poissons Ratio (x) = 0.32701 0.16383
# Poissons Ratio (y) = 0.31808 0.07684
# Poissons Ratio (z) = 0.41511 0.20016
#
# Static dielectric constant tensor:
#      x y z
#    x 2.007330 0.000000 0.000000 
#    y 0.000000 1.895850 0.000000 
#    z 0.000000 0.000000 2.059000 
# 
# From -- ./inp_files/31111.got.cif
#   From: 2010.05.17/outbox.cif.g08.bks.cpg/sg52_16_cif.got.tgz:31111.got - 2010.06.03 12:15:38.
