data_PCOD9410926
_publ_section_title
;
Structure prediction by ZEFSAII (Michael W. Deem and Ramdas Pophale) SiO2 
 PCOD9410926
Probable space group: P N N A
;
_chemical_formula_sum "Si O2"
_cell_formula_units_Z 52
_cell_length_a 5.317039
_cell_length_b 19.741240
_cell_length_c 24.332289
_cell_angle_alpha 90.000000
_cell_angle_beta 90.000000
_cell_angle_gamma 90.000000
_cell_volume 2554.037328
_symmetry_space_group_name_H-M "P N N A"
_symmetry_group_IT_number 52
_symmetry_cell_setting 'orthorhombic'
loop_
_space_group_symop_operation_xyz
x,y,z
1/2-x,-y,z
x,1/2-y,1/2-z
1/2-x,1/2+y,1/2-z
-x,-y,-z
1/2+x,y,-z
-x,1/2+y,1/2+z
1/2+x,1/2-y,1/2+z
loop_
_atom_site_type_symbol
_atom_site_label
_atom_site_fract_x
_atom_site_fract_y
_atom_site_fract_z
Si Si1 0.189440 0.250280 0.816551
Si Si2 0.250000 0.000000 0.829472
Si Si3 0.203243 0.166395 0.467276
Si Si4 0.809877 0.669535 0.532846
Si Si5 0.877141 0.572883 0.743322
Si Si6 0.065554 0.619128 0.357411
Si Si7 0.820791 0.668578 0.844395
O O1 0.211407 0.250000 0.750000
O O2 0.132268 0.179198 0.846598
O O3 0.449653 0.278555 0.840383
O O4 0.946641 0.296806 0.830442
O O5 0.368805 0.055049 0.788372
O O6 0.054842 0.044360 0.863975
O O7 0.457827 0.147230 0.498301
O O8 0.201526 0.248677 0.461848
O O9 0.193526 0.139650 0.405525
O O10 0.583460 0.651075 0.490728
O O11 0.739051 0.637388 0.591157
O O12 0.750000 0.500000 0.751905
O O13 0.719242 0.615489 0.699310
O O14 0.889675 0.612917 0.799228
#
# Coordination Sequence:
#
# PCOD9410926 Si02
#       7
#     8   4   8   8   8   8   8
#     4  12  24  36  62 101 134 160 206 275 332 379
#     4  10  24  42  66  86 126 176 212 256 322 388
#     4  10  21  39  59  91 131 169 209 263 326 384
#     4  10  23  37  60  89 125 168 214 262 316 371
#     4  10  24  44  65  93 128 173 213 259 325 396
#     4  11  23  41  63  89 129 169 215 263 324 377
#     4  12  24  40  65 100 128 169 212 264 330 389
#
# _framework density 20.359921
#
# number of rings (size 3 to 8) (size 9 to 14) (size 15 to 20)
#    0.000    1.231    3.077    2.308   10.769    0.000 
#    0.000    0.769    0.000    0.923    0.000    0.000 
#    0.000    0.000    0.000    0.000    0.000    0.000 
#
# Total GULP energy -290755.631528 kJ/mol
# GULP energy per Si atom -5591.454452 kJ/mol
# Density = 2.031358 g / cm^3
# Si number density = 20.359921 Si / 1000 Ang^3
#
#
#
# Elastic Constant Matrix: (Units=GPa)
#
#
# Indices 1 2 3 4 5 6 
#
# 1 89.7999 -1.1528 19.0497 0.0000 0.0000 0.0000
# 2 -1.1528 28.1489 28.7410 0.0000 0.0000 0.0000
# 3 19.0497 28.7410 68.0311 0.0000 0.0000 0.0000
# 4 0.0000 0.0000 0.0000 -9.4046 0.0000 0.0000
# 5 0.0000 0.0000 0.0000 0.0000 28.2711 0.0000
# 6 0.0000 0.0000 0.0000 0.0000 0.0000 7.8642
#
#
#
# Elastic Compliance Matrix: (Units=1/GPa)
#
#
# Indices 1 2 3 4 5 6 
#
# 1 0.012630 0.007260 -0.006604 0.000000 0.000000 0.000000
# 2 0.007260 0.066647 -0.030189 0.000000 0.000000 0.000000
# 3 -0.006604 -0.030189 0.029302 0.000000 0.000000 0.000000
# 4 0.000000 0.000000 0.000000 -0.106331 0.000000 0.000000
# 5 0.000000 0.000000 0.000000 0.000000 0.035372 0.000000
# 6 0.000000 0.000000 0.000000 0.000000 0.000000 0.127158
#
#
# Mechanical properties :
#
#
# Convention : Reuss Voigt Hill
#
# Bulk Modulus (GPa) = 20.19669 31.02841 25.61255
# Shear Modulus (GPa) = 20.80325 14.63561 17.71943
#
# Velocity S-wave (km/s) = 3.19999 2.68404 2.95330
# Velocity P-wave (km/s) = 4.85743 4.98783 4.92306
#
# Compressibility (1/GPa) = 0.04951307
#
# Stress axis : x y z
#
# Youngs Moduli (GPa) = 79.17723 15.00453 34.12733
#
# Poissons Ratio (x) = -0.10893 0.22536
# Poissons Ratio (y) = -0.57480 1.03026
# Poissons Ratio (z) = 0.52285 0.45297
#
# Static dielectric constant tensor:
#      x y z
#    x 1.789980 0.000000 0.000000 
#    y 0.000000 2.808420 0.000000 
#    z 0.000000 0.000000 1.727490 
# 
# From -- ./inp_files/35194.got.cif
#   From: 2010.05.17/outbox.cif.g08.bks.cpg/sg52_18_cif.got.tgz:35194.got - 2010.06.03 12:15:38.
