data_PCOD9410261
_publ_section_title
;
Structure prediction by ZEFSAII (Michael W. Deem and Ramdas Pophale) SiO2 
 PCOD9410261
Probable space group: P N N A
;
_chemical_formula_sum "Si O2"
_cell_formula_units_Z 48
_cell_length_a 16.563626
_cell_length_b 10.971315
_cell_length_c 12.831903
_cell_angle_alpha 90.000000
_cell_angle_beta 90.000000
_cell_angle_gamma 90.000000
_cell_volume 2331.874472
_symmetry_space_group_name_H-M "P N N A"
_symmetry_group_IT_number 52
_symmetry_cell_setting 'orthorhombic'
loop_
_space_group_symop_operation_xyz
x,y,z
1/2-x,-y,z
x,1/2-y,1/2-z
1/2-x,1/2+y,1/2-z
-x,-y,-z
1/2+x,y,-z
-x,1/2+y,1/2+z
1/2+x,1/2-y,1/2+z
loop_
_atom_site_type_symbol
_atom_site_label
_atom_site_fract_x
_atom_site_fract_y
_atom_site_fract_z
Si Si1 0.601390 0.173963 0.590719
Si Si2 0.484004 0.250000 0.750000
Si Si3 0.589926 0.062478 0.001766
Si Si4 0.360308 0.077615 0.805363
Si Si5 0.839352 0.949603 0.402194
Si Si6 0.750000 0.500000 0.638312
Si Si7 0.217326 0.250000 0.750000
Si Si8 0.735690 0.250000 0.750000
O O1 0.540133 0.158501 0.686075
O O2 0.578427 0.297137 0.529160
O O3 0.611218 0.068509 0.506892
O O4 0.684165 0.202701 0.650849
O O5 0.426616 0.179326 0.828694
O O6 0.666338 0.020554 0.927780
O O7 0.500000 0.000000 0.000000
O O8 0.624777 0.031235 0.115931
O O9 0.275236 0.147317 0.802672
O O10 0.373858 0.036954 0.686467
O O11 0.828854 0.821556 0.340537
O O12 0.750000 0.000000 0.427250
O O13 0.770416 0.377851 0.705544
#
# Coordination Sequence:
#
# PCOD9410261 Si02
#       8
#     8   4   8   8   8   4   4   4
#     4  10  21  38  60  85 125 163 209 266 325 383
#     4  10  20  40  56  76 119 169 200 256 324 384
#     4  11  22  40  67  93 123 170 221 262 327 399
#     4  10  21  36  58  85 119 157 205 252 315 392
#     4  10  21  35  57  91 119 156 202 267 322 384
#     4  10  24  42  70 102 128 178 220 282 330 402
#     4   9  20  35  56  83 120 149 194 253 323 375
#     4   9  22  41  64  93 131 168 222 267 327 393
#
# _framework density 20.584299999999999
#
# number of rings (size 3 to 8) (size 9 to 14) (size 15 to 20)
#    0.000    2.000    1.667    1.000    9.333    0.667 
#    0.000    1.667    0.000    0.000    0.000    0.000 
#    0.000    0.000    0.000    0.000    0.000    0.000 
#
# Total GULP energy -267203.216487 kJ/mol
# GULP energy per Si atom -5566.733677 kJ/mol
# Density = 2.053745 g / cm^3
# Si number density = 20.584300 Si / 1000 Ang^3
#
#
#
# Elastic Constant Matrix: (Units=GPa)
#
#
# Indices 1 2 3 4 5 6 
#
# 1 81.0785 17.1867 25.7078 0.0000 0.0000 0.0000
# 2 17.1867 51.3661 7.1403 0.0000 0.0000 0.0000
# 3 25.7078 7.1403 72.3190 0.0000 0.0000 0.0000
# 4 0.0000 0.0000 0.0000 40.3226 0.0000 0.0000
# 5 0.0000 0.0000 0.0000 0.0000 9.2783 0.0000
# 6 0.0000 0.0000 0.0000 0.0000 0.0000 9.4188
#
#
#
# Elastic Compliance Matrix: (Units=1/GPa)
#
#
# Indices 1 2 3 4 5 6 
#
# 1 0.014770 -0.004271 -0.004829 0.000000 0.000000 0.000000
# 2 -0.004271 0.020974 -0.000553 0.000000 0.000000 0.000000
# 3 -0.004829 -0.000553 0.015599 0.000000 0.000000 0.000000
# 4 0.000000 0.000000 0.000000 0.024800 0.000000 0.000000
# 5 0.000000 0.000000 0.000000 0.000000 0.107778 0.000000
# 6 0.000000 0.000000 0.000000 0.000000 0.000000 0.106170
#
#
# Mechanical properties :
#
#
# Convention : Reuss Voigt Hill
#
# Bulk Modulus (GPa) = 31.21262 33.87034 32.54148
# Shear Modulus (GPa) = 15.62135 22.11920 18.87028
#
# Velocity S-wave (km/s) = 2.75780 3.28161 3.03104
# Velocity P-wave (km/s) = 5.03357 5.55417 5.30027
#
# Compressibility (1/GPa) = 0.03203833
#
# Stress axis : x y z
#
# Youngs Moduli (GPa) = 67.70443 47.67841 64.10783
#
# Poissons Ratio (x) = 0.20362 0.30956
# Poissons Ratio (y) = 0.28915 0.03543
# Poissons Ratio (z) = 0.32693 0.02635
#
# Static dielectric constant tensor:
#      x y z
#    x 1.766500 0.000000 0.000000 
#    y 0.000000 1.809810 0.000000 
#    z 0.000000 0.000000 1.762210 
# 
# From -- ./inp_files/20691.got.cif
#   From: 2010.05.17/outbox.cif.g08.bks.cpg/sg52_11_cif.got.tgz:20691.got - 2010.06.03 12:15:38.
