data_PCOD9410274
_publ_section_title
;
Structure prediction by ZEFSAII (Michael W. Deem and Ramdas Pophale) SiO2 
 PCOD9410274
Probable space group: P N N A
;
_chemical_formula_sum "Si O2"
_cell_formula_units_Z 44
_cell_length_a 27.935261
_cell_length_b 9.451513
_cell_length_c 7.853786
_cell_angle_alpha 90.000000
_cell_angle_beta 90.000000
_cell_angle_gamma 90.000000
_cell_volume 2073.638907
_symmetry_space_group_name_H-M "P N N A"
_symmetry_group_IT_number 52
_symmetry_cell_setting 'orthorhombic'
loop_
_space_group_symop_operation_xyz
x,y,z
1/2-x,-y,z
x,1/2-y,1/2-z
1/2-x,1/2+y,1/2-z
-x,-y,-z
1/2+x,y,-z
-x,1/2+y,1/2+z
1/2+x,1/2-y,1/2+z
loop_
_atom_site_type_symbol
_atom_site_label
_atom_site_fract_x
_atom_site_fract_y
_atom_site_fract_z
Si Si1 0.647558 0.296736 0.508974
Si Si2 0.243329 0.832770 0.083209
Si Si3 0.681688 0.750000 0.250000
Si Si4 0.478818 0.914415 0.786112
Si Si5 0.058741 0.101892 0.172094
Si Si6 0.620613 0.476310 0.173634
O O1 0.702705 0.279732 0.551269
O O2 0.615561 0.382343 0.645530
O O3 0.640457 0.389485 0.338110
O O4 0.627143 0.139624 0.474768
O O5 0.224027 0.750000 0.250000
O O6 0.250000 0.000000 0.115677
O O7 0.213273 0.805901 0.910025
O O8 0.649498 0.622007 0.175243
O O9 0.476202 0.750000 0.750000
O O10 0.436069 0.997768 0.693367
O O11 0.530704 0.975303 0.738184
O O12 0.462161 0.916070 0.982619
O O13 0.042192 0.250000 0.250000
#
# Coordination Sequence:
#
# PCOD9410274 Si02
#       6
#     8   8   4   8   8   8
#     4  10  20  43  66  89 133 180 222 276 347 416
#     4  12  28  45  70 103 143 181 235 290 348 421
#     4  12  26  44  72 108 134 184 236 290 348 422
#     4  10  20  40  61  91 132 170 216 275 331 409
#     4  10  21  37  61  92 122 168 224 266 334 400
#     4  10  20  40  69  95 129 176 227 274 341 413
#
# _framework density 21.218737999999998
#
# number of rings (size 3 to 8) (size 9 to 14) (size 15 to 20)
#    0.000    1.455    5.455    1.636    3.818    0.727 
#    0.000    0.909    0.000    0.000    0.000    0.000 
#    0.000    0.000    0.000    0.000    0.000    0.000 
#
# Total GULP energy -245344.691813 kJ/mol
# GULP energy per Si atom -5576.015723 kJ/mol
# Density = 2.117044 g / cm^3
# Si number density = 21.218738 Si / 1000 Ang^3
#
#
#
# Elastic Constant Matrix: (Units=GPa)
#
#
# Indices 1 2 3 4 5 6 
#
# 1 103.5364 38.1040 16.7359 0.0000 0.0000 0.0000
# 2 38.1040 97.7284 20.7167 0.0000 0.0000 0.0000
# 3 16.7359 20.7167 80.3351 0.0000 0.0000 0.0000
# 4 0.0000 0.0000 0.0000 20.1919 0.0000 0.0000
# 5 0.0000 0.0000 0.0000 0.0000 7.2060 0.0000
# 6 0.0000 0.0000 0.0000 0.0000 0.0000 -31.5332
#
#
#
# Elastic Compliance Matrix: (Units=1/GPa)
#
#
# Indices 1 2 3 4 5 6 
#
# 1 0.011403 -0.004171 -0.001300 0.000000 0.000000 0.000000
# 2 -0.004171 0.012349 -0.002316 0.000000 0.000000 0.000000
# 3 -0.001300 -0.002316 0.013316 0.000000 0.000000 0.000000
# 4 0.000000 0.000000 0.000000 0.049525 0.000000 0.000000
# 5 0.000000 0.000000 0.000000 0.000000 0.138774 0.000000
# 6 0.000000 0.000000 0.000000 0.000000 0.000000 -0.031713
#
#
# Mechanical properties :
#
#
# Convention : Reuss Voigt Hill
#
# Bulk Modulus (GPa) = 46.52076 48.07922 47.29999
# Shear Modulus (GPa) = 23.10613 12.90917 18.00765
#
# Velocity S-wave (km/s) = 3.30350 2.46922 2.91635
# Velocity P-wave (km/s) = 6.04341 5.55315 5.80346
#
# Compressibility (1/GPa) = 0.02149578
#
# Stress axis : x y z
#
# Youngs Moduli (GPa) = 87.69264 80.97536 75.09814
#
# Poissons Ratio (x) = 0.33771 0.09764
# Poissons Ratio (y) = 0.36573 0.17391
# Poissons Ratio (z) = 0.11401 0.18752
#
# Static dielectric constant tensor:
#      x y z
#    x 1.802200 0.000000 0.000000 
#    y 0.000000 1.747370 0.000000 
#    z 0.000000 0.000000 1.886000 
# 
# From -- ./inp_files/15420.got.cif
#   From: 2010.05.17/outbox.cif.g08.bks.cpg/sg52_8_cif.got.tgz:15420.got - 2010.06.03 12:15:38.
