data_PCOD9410047
_publ_section_title
;
Structure prediction by ZEFSAII (Michael W. Deem and Ramdas Pophale) SiO2 
 PCOD9410047
Probable space group: P N N A
;
_chemical_formula_sum "Si O2"
_cell_formula_units_Z 44
_cell_length_a 5.340725
_cell_length_b 22.016129
_cell_length_c 15.395856
_cell_angle_alpha 90.000000
_cell_angle_beta 90.000000
_cell_angle_gamma 90.000000
_cell_volume 1810.276934
_symmetry_space_group_name_H-M "P N N A"
_symmetry_group_IT_number 52
_symmetry_cell_setting 'orthorhombic'
loop_
_space_group_symop_operation_xyz
x,y,z
1/2-x,-y,z
x,1/2-y,1/2-z
1/2-x,1/2+y,1/2-z
-x,-y,-z
1/2+x,y,-z
-x,1/2+y,1/2+z
1/2+x,1/2-y,1/2+z
loop_
_atom_site_type_symbol
_atom_site_label
_atom_site_fract_x
_atom_site_fract_y
_atom_site_fract_z
Si Si1 0.909710 0.177974 0.192496
Si Si2 0.110224 0.767361 0.550521
Si Si3 0.598679 0.626791 0.776937
Si Si4 0.899236 0.400167 0.977944
Si Si5 0.446493 0.427269 0.556806
Si Si6 0.750000 0.500000 0.691501
O O1 0.877369 0.244073 0.149140
O O2 0.659138 0.152778 0.237884
O O3 0.164997 0.166430 0.244961
O O4 0.945670 0.136585 0.106083
O O5 0.356423 0.746708 0.497841
O O6 0.106075 0.840405 0.540418
O O7 0.590228 0.623971 0.880341
O O8 0.650862 0.557899 0.744499
O O9 0.646255 0.434571 0.996131
O O10 0.178816 0.432167 0.510190
O O11 0.525991 0.474951 0.631161
#
# Coordination Sequence:
#
# PCOD9410047 Si02
#       6
#     8   8   8   8   8   4
#     4  11  22  38  61  93 125 161 204 253 308 372
#     4  10  20  38  61  88 122 162 202 249 302 364
#     4  11  24  42  63  91 126 162 204 260 313 363
#     4  10  22  44  66  88 121 161 206 260 311 368
#     4  11  21  35  57  87 123 163 198 239 298 367
#     4  10  24  40  60  92 128 166 212 260 306 364
#
# _framework density 24.305674
#
# number of rings (size 3 to 8) (size 9 to 14) (size 15 to 20)
#    0.000    1.455    0.000    6.000    0.000    5.818 
#    0.000   22.727    0.000    0.000    0.000    0.000 
#    0.000    0.000    0.000    0.000    0.000    0.000 
#
# Total GULP energy -246432.207929 kJ/mol
# GULP energy per Si atom -5600.731998 kJ/mol
# Density = 2.425035 g / cm^3
# Si number density = 24.305674 Si / 1000 Ang^3
#
#
#
# Elastic Constant Matrix: (Units=GPa)
#
#
# Indices 1 2 3 4 5 6 
#
# 1 236.9137 41.2741 57.1399 0.0000 0.0000 0.0000
# 2 41.2741 117.2131 44.5917 0.0000 0.0000 0.0000
# 3 57.1399 44.5917 97.5079 0.0000 0.0000 0.0000
# 4 0.0000 0.0000 0.0000 -128.4062 0.0000 0.0000
# 5 0.0000 0.0000 0.0000 0.0000 25.2096 0.0000
# 6 0.0000 0.0000 0.0000 0.0000 0.0000 17.8600
#
#
#
# Elastic Compliance Matrix: (Units=1/GPa)
#
#
# Indices 1 2 3 4 5 6 
#
# 1 0.004974 -0.000778 -0.002559 0.000000 0.000000 0.000000
# 2 -0.000778 0.010450 -0.004323 0.000000 0.000000 0.000000
# 3 -0.002559 -0.004323 0.013732 0.000000 0.000000 0.000000
# 4 0.000000 0.000000 0.000000 -0.007788 0.000000 0.000000
# 5 0.000000 0.000000 0.000000 0.000000 0.039667 0.000000
# 6 0.000000 0.000000 0.000000 0.000000 0.000000 0.055991
#
#
# Mechanical properties :
#
#
# Convention : Reuss Voigt Hill
#
# Bulk Modulus (GPa) = 72.27469 81.96069 77.11769
# Shear Modulus (GPa) = 36.50752 3.50795 20.00773
#
# Velocity S-wave (km/s) = 3.87979 1.20266 2.87221
# Velocity P-wave (km/s) = 7.06191 5.97683 6.54191
#
# Compressibility (1/GPa) = 0.01383610
#
# Stress axis : x y z
#
# Youngs Moduli (GPa) = 201.06111 95.69345 72.82233
#
# Poissons Ratio (x) = 0.07444 0.18634
# Poissons Ratio (y) = 0.15641 0.31482
# Poissons Ratio (z) = 0.51448 0.41369
#
# Static dielectric constant tensor:
#      x y z
#    x 1.961160 0.000000 0.000000 
#    y 0.000000 1.998440 0.000000 
#    z 0.000000 0.000000 1.906930 
# 
# From -- ./inp_files/23678.got.cif
#   From: 2010.05.17/outbox.cif.g08.bks.cpg/sg52_12_cif.got.tgz:23678.got - 2010.06.03 12:15:38.
