data_PCOD9410096
_publ_section_title
;
Structure prediction by ZEFSAII (Michael W. Deem and Ramdas Pophale) SiO2 
 PCOD9410096
Probable space group: P N N A
;
_chemical_formula_sum "Si O2"
_cell_formula_units_Z 60
_cell_length_a 12.603168
_cell_length_b 27.747077
_cell_length_c 8.229071
_cell_angle_alpha 90.000000
_cell_angle_beta 90.000000
_cell_angle_gamma 90.000000
_cell_volume 2877.714958
_symmetry_space_group_name_H-M "P N N A"
_symmetry_group_IT_number 52
_symmetry_cell_setting 'orthorhombic'
loop_
_space_group_symop_operation_xyz
x,y,z
1/2-x,-y,z
x,1/2-y,1/2-z
1/2-x,1/2+y,1/2-z
-x,-y,-z
1/2+x,y,-z
-x,1/2+y,1/2+z
1/2+x,1/2-y,1/2+z
loop_
_atom_site_type_symbol
_atom_site_label
_atom_site_fract_x
_atom_site_fract_y
_atom_site_fract_z
Si Si1 0.024791 0.425061 0.388580
Si Si2 0.180186 0.695424 0.693779
Si Si3 0.008164 0.355311 0.118011
Si Si4 0.591546 0.306940 0.201421
Si Si5 0.250000 0.500000 0.950000
Si Si6 0.926372 0.972541 0.201563
Si Si7 0.877181 0.080972 0.630255
Si Si8 0.394094 0.147397 0.104942
O O1 0.068001 0.391216 0.243876
O O2 0.965178 0.472762 0.325984
O O3 0.937083 0.392029 0.477633
O O4 0.100625 0.445943 0.531200
O O5 0.188385 0.750000 0.750000
O O6 0.073598 0.676710 0.779104
O O7 0.292477 0.672962 0.749586
O O8 0.166908 0.686691 0.501561
O O9 0.932053 0.390380 0.015147
O O10 0.070421 0.322470 0.986439
O O11 0.587705 0.250000 0.250000
O O12 0.497219 0.330754 0.305880
O O13 0.166039 0.474334 0.831936
O O14 0.198387 0.540456 0.061915
O O15 0.026465 0.944828 0.275730
O O16 0.829717 0.119631 0.756002
#
# Coordination Sequence:
#
# PCOD9410096 Si02
#       8
#     8   8   8   8   4   8   8   8
#     4   9  19  39  59  79 120 161 204 260 313 361
#     4  10  21  40  66  93 125 163 208 260 321 390
#     4  10  20  38  64  89 124 162 207 263 320 378
#     4  10  21  39  65  94 123 165 206 258 328 388
#     4  12  22  36  64  90 118 170 220 260 324 372
#     4  10  21  40  59  83 124 165 212 263 310 376
#     4  10  22  39  59  88 123 164 210 259 315 373
#     4   9  20  41  60  91 127 159 205 262 318 383
#
# _framework density 20.849875999999998
#
# number of rings (size 3 to 8) (size 9 to 14) (size 15 to 20)
#    0.000    2.133    1.333    1.200    0.000    3.200 
#    2.400    8.667    0.000   14.400    0.000    0.000 
#    0.000    0.000    0.000    0.000    0.000    0.000 
#
# Total GULP energy -334680.061747 kJ/mol
# GULP energy per Si atom -5578.001029 kJ/mol
# Density = 2.080242 g / cm^3
# Si number density = 20.849876 Si / 1000 Ang^3
#
#
#
# Elastic Constant Matrix: (Units=GPa)
#
#
# Indices 1 2 3 4 5 6 
#
# 1 75.0022 16.9279 47.2824 0.0000 0.0000 0.0000
# 2 16.9279 82.8579 40.5070 0.0000 0.0000 0.0000
# 3 47.2824 40.5070 132.0455 0.0000 0.0000 0.0000
# 4 0.0000 0.0000 0.0000 44.1504 0.0000 0.0000
# 5 0.0000 0.0000 0.0000 0.0000 10.4361 0.0000
# 6 0.0000 0.0000 0.0000 0.0000 0.0000 10.8991
#
#
#
# Elastic Compliance Matrix: (Units=1/GPa)
#
#
# Indices 1 2 3 4 5 6 
#
# 1 0.017245 -0.000593 -0.005993 0.000000 0.000000 0.000000
# 2 -0.000593 0.014219 -0.004149 0.000000 0.000000 0.000000
# 3 -0.005993 -0.004149 0.010992 0.000000 0.000000 0.000000
# 4 0.000000 0.000000 0.000000 0.022650 0.000000 0.000000
# 5 0.000000 0.000000 0.000000 0.000000 0.095821 0.000000
# 6 0.000000 0.000000 0.000000 0.000000 0.000000 0.091750
#
#
# Mechanical properties :
#
#
# Convention : Reuss Voigt Hill
#
# Bulk Modulus (GPa) = 47.65493 55.48224 51.56858
# Shear Modulus (GPa) = 17.78455 25.44302 21.61379
#
# Velocity S-wave (km/s) = 2.92375 3.49706 3.22318
# Velocity P-wave (km/s) = 5.85693 6.55546 6.21601
#
# Compressibility (1/GPa) = 0.02098419
#
# Stress axis : x y z
#
# Youngs Moduli (GPa) = 57.98806 70.33062 90.97558
#
# Poissons Ratio (x) = 0.04173 0.54522
# Poissons Ratio (y) = 0.03441 0.37748
# Poissons Ratio (z) = 0.34752 0.29182
#
# Static dielectric constant tensor:
#      x y z
#    x 1.754680 0.000000 0.000000 
#    y 0.000000 1.813800 0.000000 
#    z 0.000000 0.000000 1.820850 
# 
# From -- ./inp_files/9051.got.cif
#   From: 2010.05.17/outbox.cif.g08.bks.cpg/sg52_5_cif.got.tgz:9051.got - 2010.06.03 12:15:38.
