data_PCOD9410605
_publ_section_title
;
Structure prediction by ZEFSAII (Michael W. Deem and Ramdas Pophale) SiO2 
 PCOD9410605
Probable space group: P N N A
;
_chemical_formula_sum "Si O2"
_cell_formula_units_Z 32
_cell_length_a 13.130775
_cell_length_b 4.871473
_cell_length_c 24.854366
_cell_angle_alpha 90.000000
_cell_angle_beta 90.000000
_cell_angle_gamma 90.000000
_cell_volume 1589.839741
_symmetry_space_group_name_H-M "P N N A"
_symmetry_group_IT_number 52
_symmetry_cell_setting 'orthorhombic'
loop_
_space_group_symop_operation_xyz
x,y,z
1/2-x,-y,z
x,1/2-y,1/2-z
1/2-x,1/2+y,1/2-z
-x,-y,-z
1/2+x,y,-z
-x,1/2+y,1/2+z
1/2+x,1/2-y,1/2+z
loop_
_atom_site_type_symbol
_atom_site_label
_atom_site_fract_x
_atom_site_fract_y
_atom_site_fract_z
Si Si1 0.866660 0.089949 0.394643
Si Si2 0.522208 0.392313 0.441041
Si Si3 0.517966 0.442423 0.802935
Si Si4 0.130367 0.553526 0.350203
O O1 0.900088 0.399408 0.409813
O O2 0.913136 0.019002 0.335590
O O3 0.750000 0.000000 0.396008
O O4 0.925151 0.901778 0.437826
O O5 0.500000 0.500000 0.500000
O O6 0.417130 0.364992 0.407480
O O7 0.503835 0.250000 0.750000
O O8 0.580971 0.729035 0.807593
O O9 0.584613 0.243657 0.839564
O O10 0.250000 0.500000 0.346888
#
# Coordination Sequence:
#
# PCOD9410605 Si02
#       4
#     8   8   8   8
#     4  10  21  38  59  85 116 150 192 240 289 345
#     4  10  21  38  58  85 118 152 192 237 286 347
#     4  10  21  38  57  81 113 147 189 238 285 339
#     4  10  21  36  56  83 115 149 189 235 283 341
#
# _framework density 20.127813
#
# number of rings (size 3 to 8) (size 9 to 14) (size 15 to 20)
#    0.000    2.000    0.000    3.000    0.000    4.000 
#    0.000    7.500    0.000    0.000    0.000    0.000 
#    0.000    0.000    0.000    0.000    0.000    0.000 
#
# Total GULP energy -178176.139526 kJ/mol
# GULP energy per Si atom -5568.004360 kJ/mol
# Density = 2.008200 g / cm^3
# Si number density = 20.127813 Si / 1000 Ang^3
#
#
#
# Elastic Constant Matrix: (Units=GPa)
#
#
# Indices 1 2 3 4 5 6 
#
# 1 84.3937 3.4854 30.1644 0.0000 0.0000 0.0000
# 2 3.4854 100.0658 -2.1258 0.0000 0.0000 0.0000
# 3 30.1644 -2.1258 109.7636 0.0000 0.0000 0.0000
# 4 0.0000 0.0000 0.0000 32.3439 0.0000 0.0000
# 5 0.0000 0.0000 0.0000 0.0000 -0.1039 0.0000
# 6 0.0000 0.0000 0.0000 0.0000 0.0000 18.8170
#
#
#
# Elastic Compliance Matrix: (Units=1/GPa)
#
#
# Indices 1 2 3 4 5 6 
#
# 1 0.013169 -0.000536 -0.003629 0.000000 0.000000 0.000000
# 2 -0.000536 0.010019 0.000341 0.000000 0.000000 0.000000
# 3 -0.003629 0.000341 0.010114 0.000000 0.000000 0.000000
# 4 0.000000 0.000000 0.000000 0.030918 0.000000 0.000000
# 5 0.000000 0.000000 0.000000 0.000000 -9.627911 0.000000
# 6 0.000000 0.000000 0.000000 0.000000 0.000000 0.053143
#
#
# Mechanical properties :
#
#
# Convention : Reuss Voigt Hill
#
# Bulk Modulus (GPa) = 38.97903 39.69682 39.33792
# Shear Modulus (GPa) = -0.52663 27.72468 13.59903
#
# Velocity S-wave (km/s) = -0.51206 3.71540 2.60212
# Velocity P-wave (km/s) = 4.36557 6.17825 5.34925
#
# Compressibility (1/GPa) = 0.02565482
#
# Stress axis : x y z
#
# Youngs Moduli (GPa) = 75.93860 99.80706 98.86836
#
# Poissons Ratio (x) = 0.05347 0.35882
# Poissons Ratio (y) = 0.04069 -0.03374
# Poissons Ratio (z) = 0.27560 -0.03406
#
# Static dielectric constant tensor:
#      x y z
#    x 1.740350 0.000000 0.000000 
#    y 0.000000 1.692180 0.000000 
#    z 0.000000 0.000000 1.813030 
# 
# From -- ./inp_files/39808.got.cif
#   From: 2010.05.17/outbox.cif.g08.bks.cpg/sg52_20_cif.got.tgz:39808.got - 2010.06.03 12:15:38.
