data_PCOD9410720
_publ_section_title
;
Structure prediction by ZEFSAII (Michael W. Deem and Ramdas Pophale) SiO2 
 PCOD9410720
Probable space group: P N N A
;
_chemical_formula_sum "Si O2"
_cell_formula_units_Z 60
_cell_length_a 11.991158
_cell_length_b 25.999340
_cell_length_c 7.735266
_cell_angle_alpha 90.000000
_cell_angle_beta 90.000000
_cell_angle_gamma 90.000000
_cell_volume 2411.563498
_symmetry_space_group_name_H-M "P N N A"
_symmetry_group_IT_number 52
_symmetry_cell_setting 'orthorhombic'
loop_
_space_group_symop_operation_xyz
x,y,z
1/2-x,-y,z
x,1/2-y,1/2-z
1/2-x,1/2+y,1/2-z
-x,-y,-z
1/2+x,y,-z
-x,1/2+y,1/2+z
1/2+x,1/2-y,1/2+z
loop_
_atom_site_type_symbol
_atom_site_label
_atom_site_fract_x
_atom_site_fract_y
_atom_site_fract_z
Si Si1 0.059616 0.654869 0.627519
Si Si2 0.676631 0.417189 0.891523
Si Si3 0.250000 0.500000 0.370897
Si Si4 0.069642 0.592602 0.069820
Si Si5 0.944334 0.446119 0.533937
Si Si6 0.218375 0.308251 0.697398
Si Si7 0.472166 0.310695 0.239666
Si Si8 0.162431 0.307468 0.293705
O O1 0.948777 0.581583 0.977824
O O2 0.071588 0.672757 0.428296
O O3 0.971542 0.691249 0.718014
O O4 0.176088 0.656370 0.722606
O O5 0.676803 0.463995 0.754013
O O6 0.803016 0.425827 0.979516
O O7 0.483341 0.402510 0.596783
O O8 0.185748 0.541072 0.487506
O O9 0.048057 0.571843 0.266670
O O10 0.307941 0.639987 0.193616
O O11 0.080912 0.654483 0.093621
O O12 0.000000 0.500000 0.500000
O O13 0.247230 0.250000 0.750000
O O14 0.103577 0.321922 0.788071
O O15 0.188061 0.312689 0.495927
O O16 0.461316 0.250000 0.250000
O O17 0.204531 0.250000 0.250000
#
# Coordination Sequence:
#
# PCOD9410720 Si02
#       8
#     8   8   4   8   8   8   8   8
#     4  10  21  38  61  95 129 172 232 292 345 430
#     4  11  25  44  69 100 144 192 243 302 373 445
#     4  10  22  44  68  96 144 190 236 304 380 434
#     4  10  24  43  67 101 139 185 243 300 368 442
#     4  10  21  41  70  97 131 180 238 303 371 438
#     4  10  21  37  60  90 131 174 228 283 338 420
#     4   9  20  38  59  88 133 177 225 278 352 420
#     4  11  24  41  63  98 140 188 230 290 374 438
#
# _framework density 24.880125
#
# number of rings (size 3 to 8) (size 9 to 14) (size 15 to 20)
#    0.000    1.867    0.000    3.600    5.600    7.467 
#    0.000    3.333    0.000    0.000    0.000    0.000 
#    0.000    0.000    0.000    0.000    0.000    0.000 
#
# Total GULP energy -334507.210462 kJ/mol
# GULP energy per Si atom -5575.120174 kJ/mol
# Density = 2.482350 g / cm^3
# Si number density = 24.880125 Si / 1000 Ang^3
#
#
#
# Elastic Constant Matrix: (Units=GPa)
#
#
# Indices 1 2 3 4 5 6 
#
# 1 157.3120 24.3004 28.5001 0.0000 0.0000 0.0000
# 2 24.3004 102.5657 24.0335 0.0000 0.0000 0.0000
# 3 28.5001 24.0335 51.8880 0.0000 0.0000 0.0000
# 4 0.0000 0.0000 0.0000 21.7428 0.0000 0.0000
# 5 0.0000 0.0000 0.0000 0.0000 11.4525 0.0000
# 6 0.0000 0.0000 0.0000 0.0000 0.0000 29.9410
#
#
#
# Elastic Compliance Matrix: (Units=1/GPa)
#
#
# Indices 1 2 3 4 5 6 
#
# 1 0.007127 -0.000865 -0.003514 0.000000 0.000000 0.000000
# 2 -0.000865 0.011042 -0.004639 0.000000 0.000000 0.000000
# 3 -0.003514 -0.004639 0.023351 0.000000 0.000000 0.000000
# 4 0.000000 0.000000 0.000000 0.045992 0.000000 0.000000
# 5 0.000000 0.000000 0.000000 0.000000 0.087317 0.000000
# 6 0.000000 0.000000 0.000000 0.000000 0.000000 0.033399
#
#
# Mechanical properties :
#
#
# Convention : Reuss Voigt Hill
#
# Bulk Modulus (GPa) = 42.58300 51.71488 47.14894
# Shear Modulus (GPa) = 21.35902 28.28937 24.82419
#
# Velocity S-wave (km/s) = 2.93316 3.37564 3.16215
# Velocity P-wave (km/s) = 5.35011 6.00200 5.68540
#
# Compressibility (1/GPa) = 0.02348355
#
# Stress axis : x y z
#
# Youngs Moduli (GPa) = 140.31050 90.56418 42.82455
#
# Poissons Ratio (x) = 0.07836 0.15048
# Poissons Ratio (y) = 0.12140 0.19867
# Poissons Ratio (z) = 0.49303 0.42014
#
# Static dielectric constant tensor:
#      x y z
#    x 2.204740 0.000000 0.000000 
#    y 0.000000 1.948470 0.000000 
#    z 0.000000 0.000000 2.021330 
# 
# From -- ./inp_files/18548.got.cif
#   From: 2010.05.17/outbox.cif.g08.bks.cpg/sg52_10_cif.got.tgz:18548.got - 2010.06.03 12:15:38.
