data_PCOD9410361
_publ_section_title
;
Structure prediction by ZEFSAII (Michael W. Deem and Ramdas Pophale) SiO2 
 PCOD9410361
Probable space group: P N N A
;
_chemical_formula_sum "Si O2"
_cell_formula_units_Z 32
_cell_length_a 14.226603
_cell_length_b 7.999531
_cell_length_c 12.488913
_cell_angle_alpha 90.000000
_cell_angle_beta 90.000000
_cell_angle_gamma 90.000000
_cell_volume 1421.315128
_symmetry_space_group_name_H-M "P N N A"
_symmetry_group_IT_number 52
_symmetry_cell_setting 'orthorhombic'
loop_
_space_group_symop_operation_xyz
x,y,z
1/2-x,-y,z
x,1/2-y,1/2-z
1/2-x,1/2+y,1/2-z
-x,-y,-z
1/2+x,y,-z
-x,1/2+y,1/2+z
1/2+x,1/2-y,1/2+z
loop_
_atom_site_type_symbol
_atom_site_label
_atom_site_fract_x
_atom_site_fract_y
_atom_site_fract_z
Si Si1 0.624069 0.822426 0.582925
Si Si2 0.750000 0.000000 0.408358
Si Si3 0.428599 0.693480 0.867299
Si Si4 0.730543 0.250000 0.750000
Si Si5 0.852167 0.942967 0.952036
O O1 0.686157 0.881203 0.483273
O O2 0.522205 0.904141 0.594461
O O3 0.693093 0.856303 0.682047
O O4 0.603572 0.623004 0.575013
O O5 0.830685 0.902248 0.347036
O O6 0.458852 0.750000 0.750000
O O7 0.402096 0.828244 0.959827
O O8 0.669727 0.159613 0.842300
O O9 0.750000 0.000000 0.994719
#
# Coordination Sequence:
#
# PCOD9410361 Si02
#       5
#     8   4   8   4   8
#     4  11  24  44  70 100 129 173 225 282 324 394
#     4  12  26  44  66  96 142 174 222 272 336 392
#     4  12  26  43  67  97 136 178 223 267 334 400
#     4  10  20  40  74  96 122 164 224 286 330 372
#     4  10  22  44  70  95 131 171 222 277 336 382
#
# _framework density 22.51436
#
# number of rings (size 3 to 8) (size 9 to 14) (size 15 to 20)
#    0.000    1.000    6.250    1.500    7.000    0.000 
#    4.500    0.000    0.000    0.000    0.000    0.000 
#    0.000    0.000    0.000    0.000    0.000    0.000 
#
# Total GULP energy -178381.407441 kJ/mol
# GULP energy per Si atom -5574.418983 kJ/mol
# Density = 2.246312 g / cm^3
# Si number density = 22.514360 Si / 1000 Ang^3
#
#
#
# Elastic Constant Matrix: (Units=GPa)
#
#
# Indices 1 2 3 4 5 6 
#
# 1 124.8238 23.4957 8.8547 0.0000 0.0000 0.0000
# 2 23.4957 57.1324 34.3366 0.0000 0.0000 0.0000
# 3 8.8547 34.3366 101.9191 0.0000 0.0000 0.0000
# 4 0.0000 0.0000 0.0000 30.5773 0.0000 0.0000
# 5 0.0000 0.0000 0.0000 0.0000 -6.5424 0.0000
# 6 0.0000 0.0000 0.0000 0.0000 0.0000 2.5412
#
#
#
# Elastic Compliance Matrix: (Units=1/GPa)
#
#
# Indices 1 2 3 4 5 6 
#
# 1 0.008709 -0.003921 0.000564 0.000000 0.000000 0.000000
# 2 -0.003921 0.023712 -0.007648 0.000000 0.000000 0.000000
# 3 0.000564 -0.007648 0.012339 0.000000 0.000000 0.000000
# 4 0.000000 0.000000 0.000000 0.032704 0.000000 0.000000
# 5 0.000000 0.000000 0.000000 0.000000 -0.152850 0.000000
# 6 0.000000 0.000000 0.000000 0.000000 0.000000 0.393521
#
#
# Mechanical properties :
#
#
# Convention : Reuss Voigt Hill
#
# Bulk Modulus (GPa) = 43.95296 46.36104 45.15700
# Shear Modulus (GPa) = 14.37905 19.79443 17.08674
#
# Velocity S-wave (km/s) = 2.52992 2.96833 2.75785
# Velocity P-wave (km/s) = 5.30081 5.69074 5.49923
#
# Compressibility (1/GPa) = 0.02275159
#
# Stress axis : x y z
#
# Youngs Moduli (GPa) = 114.81995 42.17255 81.04190
#
# Poissons Ratio (x) = 0.16535 -0.04573
# Poissons Ratio (y) = 0.45019 0.61981
# Poissons Ratio (z) = -0.06479 0.32254
#
# Static dielectric constant tensor:
#      x y z
#    x 1.828370 0.000000 0.000000 
#    y 0.000000 1.997200 0.000000 
#    z 0.000000 0.000000 1.782440 
# 
# From -- ./inp_files/18953.got.cif
#   From: 2010.05.17/outbox.cif.g08.bks.cpg/sg52_10_cif.got.tgz:18953.got - 2010.06.03 12:15:38.
