data_PCOD9410446
_publ_section_title
;
Structure prediction by ZEFSAII (Michael W. Deem and Ramdas Pophale) SiO2 
 PCOD9410446
Probable space group: P N N A
;
_chemical_formula_sum "Si O2"
_cell_formula_units_Z 56
_cell_length_a 27.626931
_cell_length_b 15.755904
_cell_length_c 6.307209
_cell_angle_alpha 90.000000
_cell_angle_beta 90.000000
_cell_angle_gamma 90.000000
_cell_volume 2745.447804
_symmetry_space_group_name_H-M "P N N A"
_symmetry_group_IT_number 52
_symmetry_cell_setting 'orthorhombic'
loop_
_space_group_symop_operation_xyz
x,y,z
1/2-x,-y,z
x,1/2-y,1/2-z
1/2-x,1/2+y,1/2-z
-x,-y,-z
1/2+x,y,-z
-x,1/2+y,1/2+z
1/2+x,1/2-y,1/2+z
loop_
_atom_site_type_symbol
_atom_site_label
_atom_site_fract_x
_atom_site_fract_y
_atom_site_fract_z
Si Si1 0.629810 0.163064 0.153665
Si Si2 0.858764 0.339804 0.167578
Si Si3 0.930816 0.943151 0.437732
Si Si4 0.807051 0.005783 0.088688
Si Si5 0.945834 0.086143 0.097461
Si Si6 0.130577 0.937001 0.278453
Si Si7 0.457645 0.656488 0.332054
O O1 0.651850 0.250000 0.250000
O O2 0.590973 0.139989 0.333164
O O3 0.666837 0.084374 0.135734
O O4 0.595299 0.160532 0.943417
O O5 0.839948 0.250000 0.250000
O O6 0.828313 0.417817 0.267539
O O7 0.913211 0.351183 0.258909
O O8 0.860144 0.352617 0.914929
O O9 0.961294 0.908544 0.633653
O O10 0.949602 0.002501 0.246988
O O11 0.888092 0.996017 0.549525
O O12 0.750000 0.000000 0.113218
O O13 0.823249 0.031621 0.851068
O O14 0.996911 0.124984 0.030025
O O15 0.912458 0.069115 0.893433
O O16 0.467885 0.750000 0.250000
#
# Coordination Sequence:
#
# PCOD9410446 Si02
#       7
#     8   8   8   8   8   8   8
#     4  12  24  43  66  96 134 176 222 280 335 403
#     4  10  22  43  67  94 135 174 215 278 338 396
#     4  11  20  41  62  89 129 178 218 269 326 393
#     4  11  24  44  70  99 125 168 231 281 346 417
#     4  10  22  38  62  97 129 176 227 265 322 395
#     4  10  20  42  68  90 133 169 214 279 339 388
#     4  12  24  38  62  96 135 181 224 267 324 397
#
# _framework density 20.397400999999999
#
# number of rings (size 3 to 8) (size 9 to 14) (size 15 to 20)
#    0.000    1.143    7.143    0.857    0.000    8.000 
#    2.571    0.000    6.286    0.000    0.000    0.000 
#    0.000    0.000    0.000    0.000    0.000    0.000 
#
# Total GULP energy -312205.796305 kJ/mol
# GULP energy per Si atom -5575.103505 kJ/mol
# Density = 2.035098 g / cm^3
# Si number density = 20.397401 Si / 1000 Ang^3
#
#
#
# Elastic Constant Matrix: (Units=GPa)
#
#
# Indices 1 2 3 4 5 6 
#
# 1 107.9879 51.4427 25.6918 0.0000 0.0000 0.0000
# 2 51.4427 138.3955 47.3873 0.0000 0.0000 0.0000
# 3 25.6918 47.3873 96.7721 0.0000 0.0000 0.0000
# 4 0.0000 0.0000 0.0000 31.2108 0.0000 0.0000
# 5 0.0000 0.0000 0.0000 0.0000 4.9008 0.0000
# 6 0.0000 0.0000 0.0000 0.0000 0.0000 15.1797
#
#
#
# Elastic Compliance Matrix: (Units=1/GPa)
#
#
# Indices 1 2 3 4 5 6 
#
# 1 0.011356 -0.003831 -0.001139 0.000000 0.000000 0.000000
# 2 -0.003831 0.009974 -0.003867 0.000000 0.000000 0.000000
# 3 -0.001139 -0.003867 0.012529 0.000000 0.000000 0.000000
# 4 0.000000 0.000000 0.000000 0.032040 0.000000 0.000000
# 5 0.000000 0.000000 0.000000 0.000000 0.204047 0.000000
# 6 0.000000 0.000000 0.000000 0.000000 0.000000 0.065877
#
#
# Mechanical properties :
#
#
# Convention : Reuss Voigt Hill
#
# Bulk Modulus (GPa) = 61.78314 65.79989 63.79152
# Shear Modulus (GPa) = 13.93174 24.83386 19.38280
#
# Velocity S-wave (km/s) = 2.61629 3.49306 3.08597
# Velocity P-wave (km/s) = 6.28348 6.97120 6.63625
#
# Compressibility (1/GPa) = 0.01618564
#
# Stress axis : x y z
#
# Youngs Moduli (GPa) = 88.05615 100.26266 79.81231
#
# Poissons Ratio (x) = 0.38414 0.09090
# Poissons Ratio (y) = 0.33737 0.30862
# Poissons Ratio (z) = 0.10028 0.38770
#
# Static dielectric constant tensor:
#      x y z
#    x 1.694410 0.000000 0.000000 
#    y 0.000000 1.770400 0.000000 
#    z 0.000000 0.000000 1.781690 
# 
# From -- ./inp_files/6407.got.cif
#   From: 2010.05.17/outbox.cif.g08.bks.cpg/sg52_4_cif.got.tgz:6407.got - 2010.06.03 12:15:38.
