data_PCOD9410007
_publ_section_title
;
Structure prediction by ZEFSAII (Michael W. Deem and Ramdas Pophale) SiO2 
 PCOD9410007
Probable space group: P N N A
;
_chemical_formula_sum "Si O2"
_cell_formula_units_Z 52
_cell_length_a 18.736912
_cell_length_b 5.730127
_cell_length_c 22.013050
_cell_angle_alpha 90.000000
_cell_angle_beta 90.000000
_cell_angle_gamma 90.000000
_cell_volume 2363.428589
_symmetry_space_group_name_H-M "P N N A"
_symmetry_group_IT_number 52
_symmetry_cell_setting 'orthorhombic'
loop_
_space_group_symop_operation_xyz
x,y,z
1/2-x,-y,z
x,1/2-y,1/2-z
1/2-x,1/2+y,1/2-z
-x,-y,-z
1/2+x,y,-z
-x,1/2+y,1/2+z
1/2+x,1/2-y,1/2+z
loop_
_atom_site_type_symbol
_atom_site_label
_atom_site_fract_x
_atom_site_fract_y
_atom_site_fract_z
Si Si1 0.522808 0.750000 0.250000
Si Si2 0.577465 0.860793 0.809249
Si Si3 0.559751 0.085011 0.348244
Si Si4 0.068790 0.760314 0.945572
Si Si5 0.913009 0.518780 0.564930
Si Si6 0.712900 0.246149 0.505743
Si Si7 0.177986 0.415116 0.623775
O O1 0.470738 0.571049 0.284089
O O2 0.569260 0.623309 0.199191
O O3 0.615063 0.750000 0.750000
O O4 0.518930 0.678206 0.834116
O O5 0.616886 0.944837 0.869517
O O6 0.619949 0.276270 0.338036
O O7 0.562291 0.995300 0.417422
O O8 0.994526 0.891250 0.929779
O O9 0.133728 0.881273 0.909767
O O10 0.084203 0.808178 0.016044
O O11 0.864177 0.721044 0.536611
O O12 0.750000 0.500000 0.520836
O O13 0.704329 0.255350 0.432814
O O14 0.750000 0.000000 0.522404
O O15 0.250000 0.500000 0.655339
#
# Coordination Sequence:
#
# PCOD9410007 Si02
#       7
#     4   8   8   8   8   8   8
#     4  10  20  38  58  90 134 162 220 272 324 394
#     4  10  21  38  60  98 128 170 215 270 329 393
#     4  11  20  35  63  93 127 171 217 275 328 391
#     4  10  21  37  57 102 127 159 212 275 336 388
#     4  10  20  40  62  96 139 160 218 273 332 408
#     4  10  24  42  61  96 141 179 214 268 350 420
#     4  10  22  37  58  90 130 175 218 263 338 403
#
# _framework density 22.001935
#
# number of rings (size 3 to 8) (size 9 to 14) (size 15 to 20)
#    0.000    1.846    3.077    0.000    6.462    1.846 
#    0.000    0.000    0.000    0.000   92.000    0.000 
#    0.000    0.000    0.000    0.000    0.000    0.000 
#
# Total GULP energy -290342.385608 kJ/mol
# GULP energy per Si atom -5583.507416 kJ/mol
# Density = 2.195186 g / cm^3
# Si number density = 22.001935 Si / 1000 Ang^3
#
#
#
# Elastic Constant Matrix: (Units=GPa)
#
#
# Indices 1 2 3 4 5 6 
#
# 1 40.3013 3.6054 -15.2431 0.0000 0.0000 0.0000
# 2 3.6054 62.2842 19.3557 0.0000 0.0000 0.0000
# 3 -15.2431 19.3557 93.6881 0.0000 0.0000 0.0000
# 4 0.0000 0.0000 0.0000 32.6220 0.0000 0.0000
# 5 0.0000 0.0000 0.0000 0.0000 1.3228 0.0000
# 6 0.0000 0.0000 0.0000 0.0000 0.0000 24.9791
#
#
#
# Elastic Compliance Matrix: (Units=1/GPa)
#
#
# Indices 1 2 3 4 5 6 
#
# 1 0.026999 -0.003129 0.005039 0.000000 0.000000 0.000000
# 2 -0.003129 0.017520 -0.004129 0.000000 0.000000 0.000000
# 3 0.005039 -0.004129 0.012347 0.000000 0.000000 0.000000
# 4 0.000000 0.000000 0.000000 0.030654 0.000000 0.000000
# 5 0.000000 0.000000 0.000000 0.000000 0.755975 0.000000
# 6 0.000000 0.000000 0.000000 0.000000 0.000000 0.040034
#
#
# Mechanical properties :
#
#
# Convention : Reuss Voigt Hill
#
# Bulk Modulus (GPa) = 19.07359 23.52331 21.29845
# Shear Modulus (GPa) = 5.52218 24.35515 14.93866
#
# Velocity S-wave (km/s) = 1.58597 3.33070 2.60853
# Velocity P-wave (km/s) = 3.47010 5.05036 4.33288
#
# Compressibility (1/GPa) = 0.05242852
#
# Stress axis : x y z
#
# Youngs Moduli (GPa) = 37.03843 57.07906 80.99438
#
# Poissons Ratio (x) = 0.17859 -0.40814
# Poissons Ratio (y) = 0.11589 0.33439
# Poissons Ratio (z) = -0.18664 0.23565
#
# Static dielectric constant tensor:
#      x y z
#    x 1.821440 0.000000 0.000000 
#    y 0.000000 1.887180 0.000000 
#    z 0.000000 0.000000 1.868770 
# 
# From -- ./inp_files/37887.got.cif
#   From: 2010.05.17/outbox.cif.g08.bks.cpg/sg52_19_cif.got.tgz:37887.got - 2010.06.03 12:15:38.
