data_PCOD9410067
_publ_section_title
;
Structure prediction by ZEFSAII (Michael W. Deem and Ramdas Pophale) SiO2 
 PCOD9410067
Probable space group: P N N A
;
_chemical_formula_sum "Si O2"
_cell_formula_units_Z 56
_cell_length_a 9.183712
_cell_length_b 20.113344
_cell_length_c 15.168888
_cell_angle_alpha 90.000000
_cell_angle_beta 90.000000
_cell_angle_gamma 90.000000
_cell_volume 2801.923554
_symmetry_space_group_name_H-M "P N N A"
_symmetry_group_IT_number 52
_symmetry_cell_setting 'orthorhombic'
loop_
_space_group_symop_operation_xyz
x,y,z
1/2-x,-y,z
x,1/2-y,1/2-z
1/2-x,1/2+y,1/2-z
-x,-y,-z
1/2+x,y,-z
-x,1/2+y,1/2+z
1/2+x,1/2-y,1/2+z
loop_
_atom_site_type_symbol
_atom_site_label
_atom_site_fract_x
_atom_site_fract_y
_atom_site_fract_z
Si Si1 0.808687 0.898476 0.255146
Si Si2 0.544356 0.059780 0.934445
Si Si3 0.305215 0.712992 0.892926
Si Si4 0.428009 0.353423 0.019489
Si Si5 0.754099 0.867107 0.064399
Si Si6 0.492889 0.021680 0.736288
Si Si7 0.174422 0.063536 0.427357
O O1 0.813363 0.825409 0.298683
O O2 0.827104 0.900733 0.149885
O O3 0.650699 0.931430 0.271937
O O4 0.933346 0.948352 0.288230
O O5 0.413655 0.112825 0.933353
O O6 0.554047 0.030978 0.835416
O O7 0.678594 0.100068 0.976837
O O8 0.500000 0.000000 0.000000
O O9 0.170535 0.675897 0.941093
O O10 0.274966 0.789815 0.913380
O O11 0.462753 0.698370 0.936104
O O12 0.540629 0.408451 0.983729
O O13 0.303253 0.383104 0.081735
O O14 0.611001 0.043266 0.666027
O O15 0.250000 0.000000 0.472204
#
# Coordination Sequence:
#
# PCOD9410067 Si02
#       7
#     8   8   8   8   8   8   8
#     4  10  20  38  62  91 120 164 211 264 309 387
#     4  11  22  42  65  94 127 160 215 272 329 386
#     4  11  21  41  61  90 126 167 214 259 312 394
#     4  10  23  38  60  85 129 162 208 255 308 376
#     4  11  23  39  66  92 120 171 211 260 330 385
#     4  10  21  38  62  92 128 161 209 264 325 375
#     4  11  21  37  59  93 121 165 206 255 320 370
#
# _framework density 19.986269
#
# number of rings (size 3 to 8) (size 9 to 14) (size 15 to 20)
#    0.000    1.429    2.857    3.000    0.000    2.286 
#    2.571    0.000    0.000    0.000    0.000    0.000 
#    0.000    0.000    0.000    0.000    0.000    0.000 
#
# Total GULP energy -312393.288482 kJ/mol
# GULP energy per Si atom -5578.451580 kJ/mol
# Density = 1.994078 g / cm^3
# Si number density = 19.986269 Si / 1000 Ang^3
#
#
#
# Elastic Constant Matrix: (Units=GPa)
#
#
# Indices 1 2 3 4 5 6 
#
# 1 98.9167 24.3132 26.8498 0.0000 0.0000 0.0000
# 2 24.3132 84.9921 1.0903 0.0000 0.0000 0.0000
# 3 26.8498 1.0903 49.0726 0.0000 0.0000 0.0000
# 4 0.0000 0.0000 0.0000 18.8483 0.0000 0.0000
# 5 0.0000 0.0000 0.0000 0.0000 31.8502 0.0000
# 6 0.0000 0.0000 0.0000 0.0000 0.0000 33.3395
#
#
#
# Elastic Compliance Matrix: (Units=1/GPa)
#
#
# Indices 1 2 3 4 5 6 
#
# 1 0.012886 -0.003597 -0.006970 0.000000 0.000000 0.000000
# 2 -0.003597 0.012773 0.001684 0.000000 0.000000 0.000000
# 3 -0.006970 0.001684 0.024154 0.000000 0.000000 0.000000
# 4 0.000000 0.000000 0.000000 0.053055 0.000000 0.000000
# 5 0.000000 0.000000 0.000000 0.000000 0.031397 0.000000
# 6 0.000000 0.000000 0.000000 0.000000 0.000000 0.029994
#
#
# Mechanical properties :
#
#
# Convention : Reuss Voigt Hill
#
# Bulk Modulus (GPa) = 31.20407 37.49868 34.35137
# Shear Modulus (GPa) = 25.94599 28.85612 27.40106
#
# Velocity S-wave (km/s) = 3.60695 3.80386 3.70671
# Velocity P-wave (km/s) = 5.74399 6.17214 5.96191
#
# Compressibility (1/GPa) = 0.03204711
#
# Stress axis : x y z
#
# Youngs Moduli (GPa) = 77.60613 78.28968 41.40046
#
# Poissons Ratio (x) = 0.28158 0.28858
# Poissons Ratio (y) = 0.27912 -0.06972
# Poissons Ratio (z) = 0.54094 -0.13185
#
# Static dielectric constant tensor:
#      x y z
#    x 1.686910 0.000000 0.000000 
#    y 0.000000 1.493440 0.000000 
#    z 0.000000 0.000000 1.726980 
# 
# From -- ./inp_files/24948.got.cif
#   From: 2010.05.17/outbox.cif.g08.bks.cpg/sg52_13_cif.got.tgz:24948.got - 2010.06.03 12:15:38.
