data_PCOD9410057
_publ_section_title
;
Structure prediction by ZEFSAII (Michael W. Deem and Ramdas Pophale) SiO2 
 PCOD9410057
Probable space group: P N N A
;
_chemical_formula_sum "Si O2"
_cell_formula_units_Z 48
_cell_length_a 27.250486
_cell_length_b 14.677780
_cell_length_c 6.239865
_cell_angle_alpha 90.000000
_cell_angle_beta 90.000000
_cell_angle_gamma 90.000000
_cell_volume 2495.800227
_symmetry_space_group_name_H-M "P N N A"
_symmetry_group_IT_number 52
_symmetry_cell_setting 'orthorhombic'
loop_
_space_group_symop_operation_xyz
x,y,z
1/2-x,-y,z
x,1/2-y,1/2-z
1/2-x,1/2+y,1/2-z
-x,-y,-z
1/2+x,y,-z
-x,1/2+y,1/2+z
1/2+x,1/2-y,1/2+z
loop_
_atom_site_type_symbol
_atom_site_label
_atom_site_fract_x
_atom_site_fract_y
_atom_site_fract_z
Si Si1 0.814083 0.342246 0.134074
Si Si2 0.771520 0.905936 0.047438
Si Si3 0.101213 0.338129 0.136935
Si Si4 0.761160 0.250000 0.750000
Si Si5 0.960351 0.922546 0.027004
Si Si6 0.461243 0.750000 0.750000
Si Si7 0.134886 0.470346 0.803867
O O1 0.832044 0.250000 0.250000
O O2 0.766181 0.377954 0.263269
O O3 0.851850 0.425361 0.145602
O O4 0.795641 0.311058 0.902570
O O5 0.824057 0.928053 0.147233
O O6 0.750000 0.000000 0.950182
O O7 0.769895 0.820945 0.889245
O O8 0.124533 0.250000 0.250000
O O9 0.065470 0.387807 0.307719
O O10 0.071408 0.293144 0.939556
O O11 0.135125 0.412474 0.023616
O O12 0.986533 0.835500 0.138675
O O13 0.916820 0.957726 0.182979
O O14 0.000000 0.000000 0.000000
#
# Coordination Sequence:
#
# PCOD9410057 Si02
#       7
#     8   8   8   4   8   4   8
#     4   9  20  39  56  82 121 156 198 247 288 352
#     4   9  20  38  57  84 121 156 195 243 293 351
#     4   9  19  38  58  83 115 151 190 242 294 354
#     4  10  20  38  62  83 114 162 202 239 294 352
#     4  10  21  39  61  85 115 154 195 244 303 355
#     4   8  18  38  56  81 114 146 188 241 288 354
#     4  10  21  38  60  87 121 155 198 247 301 360
#
# _framework density 19.232308
#
# number of rings (size 3 to 8) (size 9 to 14) (size 15 to 20)
#    0.000    2.667    0.000    0.000    0.000   10.000 
#   36.000    4.167    0.000    2.000    0.000    0.000 
#    0.000    0.000    0.000    0.000    0.000    0.000 
#
# Total GULP energy -267694.687764 kJ/mol
# GULP energy per Si atom -5576.972662 kJ/mol
# Density = 1.918853 g / cm^3
# Si number density = 19.232308 Si / 1000 Ang^3
#
#
#
# Elastic Constant Matrix: (Units=GPa)
#
#
# Indices 1 2 3 4 5 6 
#
# 1 70.7588 69.7787 33.7191 0.0000 0.0000 0.0000
# 2 69.7787 179.6624 61.3943 0.0000 0.0000 0.0000
# 3 33.7191 61.3943 86.1891 0.0000 0.0000 0.0000
# 4 0.0000 0.0000 0.0000 28.6594 0.0000 0.0000
# 5 0.0000 0.0000 0.0000 0.0000 8.7620 0.0000
# 6 0.0000 0.0000 0.0000 0.0000 0.0000 27.0879
#
#
#
# Elastic Compliance Matrix: (Units=1/GPa)
#
#
# Indices 1 2 3 4 5 6 
#
# 1 0.023718 -0.007984 -0.003591 0.000000 0.000000 0.000000
# 2 -0.007984 0.010045 -0.004031 0.000000 0.000000 0.000000
# 3 -0.003591 -0.004031 0.015879 0.000000 0.000000 0.000000
# 4 0.000000 0.000000 0.000000 0.034893 0.000000 0.000000
# 5 0.000000 0.000000 0.000000 0.000000 0.114129 0.000000
# 6 0.000000 0.000000 0.000000 0.000000 0.000000 0.036917
#
#
# Mechanical properties :
#
#
# Convention : Reuss Voigt Hill
#
# Bulk Modulus (GPa) = 54.26801 74.04385 64.15593
# Shear Modulus (GPa) = 18.31927 24.34974 21.33451
#
# Velocity S-wave (km/s) = 3.08965 3.56207 3.33424
# Velocity P-wave (km/s) = 6.40361 7.44990 6.94649
#
# Compressibility (1/GPa) = 0.01842706
#
# Stress axis : x y z
#
# Youngs Moduli (GPa) = 42.16241 99.55563 62.97609
#
# Poissons Ratio (x) = 0.79490 0.22618
# Poissons Ratio (y) = 0.33664 0.25388
# Poissons Ratio (z) = 0.15143 0.40134
#
# Static dielectric constant tensor:
#      x y z
#    x 1.637280 0.000000 0.000000 
#    y 0.000000 1.690400 0.000000 
#    z 0.000000 0.000000 1.696300 
# 
# From -- ./inp_files/5832.got.cif
#   From: 2010.05.17/outbox.cif.g08.bks.cpg/sg52_3_cif.got.tgz:5832.got - 2010.06.03 12:15:38.
