data_PCOD9410326
_publ_section_title
;
Structure prediction by ZEFSAII (Michael W. Deem and Ramdas Pophale) SiO2 
 PCOD9410326
Probable space group: P N N A
;
_chemical_formula_sum "Si O2"
_cell_formula_units_Z 44
_cell_length_a 11.091402
_cell_length_b 9.439423
_cell_length_c 18.889583
_cell_angle_alpha 90.000000
_cell_angle_beta 90.000000
_cell_angle_gamma 90.000000
_cell_volume 1977.672001
_symmetry_space_group_name_H-M "P N N A"
_symmetry_group_IT_number 52
_symmetry_cell_setting 'orthorhombic'
loop_
_space_group_symop_operation_xyz
x,y,z
1/2-x,-y,z
x,1/2-y,1/2-z
1/2-x,1/2+y,1/2-z
-x,-y,-z
1/2+x,y,-z
-x,1/2+y,1/2+z
1/2+x,1/2-y,1/2+z
loop_
_atom_site_type_symbol
_atom_site_label
_atom_site_fract_x
_atom_site_fract_y
_atom_site_fract_z
Si Si1 0.628549 0.422590 0.233519
Si Si2 0.250000 0.500000 0.017062
Si Si3 0.125896 0.924913 0.344133
Si Si4 0.245733 0.703857 0.532810
Si Si5 0.671029 0.613658 0.621050
Si Si6 0.419321 0.484543 0.608549
O O1 0.750000 0.500000 0.204501
O O2 0.641291 0.250000 0.250000
O O3 0.505805 0.452622 0.188759
O O4 0.608192 0.500777 0.308816
O O5 0.359882 0.464302 0.071807
O O6 0.276223 0.633176 0.968484
O O7 0.140797 0.755529 0.337893
O O8 0.250000 0.000000 0.316769
O O9 0.235860 0.661508 0.450854
O O10 0.123020 0.661491 0.573479
O O11 0.843445 0.607538 0.429475
O O12 0.750000 0.500000 0.661859
O O13 0.555065 0.527027 0.597684
#
# Coordination Sequence:
#
# PCOD9410326 Si02
#       6
#     8   4   8   8   8   8
#     4  12  25  51  72 101 153 194 244 299 359 450
#     4   8  20  44  74 108 138 188 244 312 362 426
#     4   9  22  47  74 106 144 191 245 303 365 421
#     4  10  20  40  68 104 142 182 238 290 368 430
#     4  11  21  40  71 102 142 180 242 303 355 431
#     4  11  22  41  68 103 139 187 236 293 367 431
#
# _framework density 22.248380999999998
#
# number of rings (size 3 to 8) (size 9 to 14) (size 15 to 20)
#    0.545    1.091    5.455    0.545    0.000    0.727 
#    4.909    7.273    0.000    0.000    0.000    0.000 
#    0.000    0.000    0.000    0.000    0.000    0.000 
#
# Total GULP energy -245461.067765 kJ/mol
# GULP energy per Si atom -5578.660631 kJ/mol
# Density = 2.219774 g / cm^3
# Si number density = 22.248381 Si / 1000 Ang^3
#
#
#
# Elastic Constant Matrix: (Units=GPa)
#
#
# Indices 1 2 3 4 5 6 
#
# 1 153.1571 55.8859 17.9189 0.0000 0.0000 0.0000
# 2 55.8859 123.5918 24.5886 0.0000 0.0000 0.0000
# 3 17.9189 24.5886 76.3837 0.0000 0.0000 0.0000
# 4 0.0000 0.0000 0.0000 -0.7132 0.0000 0.0000
# 5 0.0000 0.0000 0.0000 0.0000 6.6037 0.0000
# 6 0.0000 0.0000 0.0000 0.0000 0.0000 17.5021
#
#
#
# Elastic Compliance Matrix: (Units=1/GPa)
#
#
# Indices 1 2 3 4 5 6 
#
# 1 0.007859 -0.003405 -0.000748 0.000000 0.000000 0.000000
# 2 -0.003405 0.010120 -0.002459 0.000000 0.000000 0.000000
# 3 -0.000748 -0.002459 0.014059 0.000000 0.000000 0.000000
# 4 0.000000 0.000000 0.000000 -1.402041 0.000000 0.000000
# 5 0.000000 0.000000 0.000000 0.000000 0.151430 0.000000
# 6 0.000000 0.000000 0.000000 0.000000 0.000000 0.057136
#
#
# Mechanical properties :
#
#
# Convention : Reuss Voigt Hill
#
# Bulk Modulus (GPa) = 53.14954 61.10216 57.12585
# Shear Modulus (GPa) = -4.37851 21.66113 8.64131
#
# Velocity S-wave (km/s) = -1.40438 3.12365 1.97293
# Velocity P-wave (km/s) = 4.61642 6.36654 5.56076
#
# Compressibility (1/GPa) = 0.01881484
#
# Stress axis : x y z
#
# Youngs Moduli (GPa) = 127.23971 98.81365 71.13017
#
# Poissons Ratio (x) = 0.33646 0.05318
# Poissons Ratio (y) = 0.43326 0.17491
# Poissons Ratio (z) = 0.09512 0.24298
#
# Static dielectric constant tensor:
#      x y z
#    x 1.873360 0.000000 0.000000 
#    y 0.000000 1.837200 0.000000 
#    z 0.000000 0.000000 1.843060 
# 
# From -- ./inp_files/39391.got.cif
#   From: 2010.05.17/outbox.cif.g08.bks.cpg/sg52_20_cif.got.tgz:39391.got - 2010.06.03 12:15:38.
