data_PCOD9410459
_publ_section_title
;
Structure prediction by ZEFSAII (Michael W. Deem and Ramdas Pophale) SiO2 
 PCOD9410459
Probable space group: P N N A
;
_chemical_formula_sum "Si O2"
_cell_formula_units_Z 48
_cell_length_a 21.535539
_cell_length_b 7.960745
_cell_length_c 12.352939
_cell_angle_alpha 90.000000
_cell_angle_beta 90.000000
_cell_angle_gamma 90.000000
_cell_volume 2117.774699
_symmetry_space_group_name_H-M "P N N A"
_symmetry_group_IT_number 52
_symmetry_cell_setting 'orthorhombic'
loop_
_space_group_symop_operation_xyz
x,y,z
1/2-x,-y,z
x,1/2-y,1/2-z
1/2-x,1/2+y,1/2-z
-x,-y,-z
1/2+x,y,-z
-x,1/2+y,1/2+z
1/2+x,1/2-y,1/2+z
loop_
_atom_site_type_symbol
_atom_site_label
_atom_site_fract_x
_atom_site_fract_y
_atom_site_fract_z
Si Si1 0.000058 0.869245 0.903599
Si Si2 0.679307 0.566582 0.697581
Si Si3 0.871751 0.665254 0.879593
Si Si4 0.679393 0.051179 0.025714
Si Si5 0.602152 0.945440 0.233737
Si Si6 0.569101 0.947860 0.461125
O O1 0.028225 0.948361 0.795531
O O2 0.055368 0.742399 0.933040
O O3 0.936193 0.771135 0.886496
O O4 0.000000 0.000000 0.000000
O O5 0.750000 0.500000 0.696868
O O6 0.674565 0.750000 0.750000
O O7 0.646491 0.415439 0.764286
O O8 0.657595 0.570477 0.572902
O O9 0.825786 0.772598 0.958107
O O10 0.885475 0.493571 0.944070
O O11 0.750000 0.000000 0.052111
O O12 0.639108 0.033463 0.135337
O O13 0.624459 0.750000 0.250000
O O14 0.599494 0.027312 0.352801
O O15 0.500000 0.000000 0.500000
#
# Coordination Sequence:
#
# PCOD9410459 Si02
#       6
#     8   8   8   8   8   8
#     4  10  20  42  70  98 133 182 228 294 360 426
#     4  11  25  44  71 101 142 182 236 304 365 434
#     4  11  23  43  70 102 140 182 239 290 367 434
#     4  11  24  45  68  99 139 186 244 291 362 434
#     4  10  22  42  69  92 139 183 233 294 357 423
#     4   9  22  41  61  98 139 171 230 290 360 425
#
# _framework density 22.665299999999998
#
# number of rings (size 3 to 8) (size 9 to 14) (size 15 to 20)
#    0.000    1.667    1.667    2.500    4.667    7.333 
#    3.000    0.000    0.000    0.000    0.000    0.000 
#    0.000    0.000    0.000    0.000    0.000    0.000 
#
# Total GULP energy -267347.978646 kJ/mol
# GULP energy per Si atom -5569.749555 kJ/mol
# Density = 2.261371 g / cm^3
# Si number density = 22.665300 Si / 1000 Ang^3
#
#
#
# Elastic Constant Matrix: (Units=GPa)
#
#
# Indices 1 2 3 4 5 6 
#
# 1 97.1950 28.6532 50.9799 0.0000 0.0000 0.0000
# 2 28.6532 80.2857 22.9853 0.0000 0.0000 0.0000
# 3 50.9799 22.9853 145.6071 0.0000 0.0000 0.0000
# 4 0.0000 0.0000 0.0000 33.4218 0.0000 0.0000
# 5 0.0000 0.0000 0.0000 0.0000 37.9160 0.0000
# 6 0.0000 0.0000 0.0000 0.0000 0.0000 31.9648
#
#
#
# Elastic Compliance Matrix: (Units=1/GPa)
#
#
# Indices 1 2 3 4 5 6 
#
# 1 0.013549 -0.003642 -0.004169 0.000000 0.000000 0.000000
# 2 -0.003642 0.014024 -0.000939 0.000000 0.000000 0.000000
# 3 -0.004169 -0.000939 0.008476 0.000000 0.000000 0.000000
# 4 0.000000 0.000000 0.000000 0.029921 0.000000 0.000000
# 5 0.000000 0.000000 0.000000 0.000000 0.026374 0.000000
# 6 0.000000 0.000000 0.000000 0.000000 0.000000 0.031284
#
#
# Mechanical properties :
#
#
# Convention : Reuss Voigt Hill
#
# Bulk Modulus (GPa) = 53.90968 58.70273 56.30620
# Shear Modulus (GPa) = 33.94213 35.35848 34.65031
#
# Velocity S-wave (km/s) = 3.87400 3.95400 3.91421
# Velocity P-wave (km/s) = 6.62173 6.84117 6.73234
#
# Compressibility (1/GPa) = 0.01854955
#
# Stress axis : x y z
#
# Youngs Moduli (GPa) = 73.80714 71.30615 117.98632
#
# Poissons Ratio (x) = 0.25969 0.49186
# Poissons Ratio (y) = 0.26880 0.11075
# Poissons Ratio (z) = 0.30769 0.06693
#
# Static dielectric constant tensor:
#      x y z
#    x 1.860600 0.000000 0.000000 
#    y 0.000000 1.924030 0.000000 
#    z 0.000000 0.000000 2.261110 
# 
# From -- ./inp_files/22286.got.cif
#   From: 2010.05.17/outbox.cif.g08.bks.cpg/sg52_12_cif.got.tgz:22286.got - 2010.06.03 12:15:38.
