data_PCOD9410220
_publ_section_title
;
Structure prediction by ZEFSAII (Michael W. Deem and Ramdas Pophale) SiO2 
 PCOD9410220
Probable space group: P N N A
;
_chemical_formula_sum "Si O2"
_cell_formula_units_Z 48
_cell_length_a 14.356428
_cell_length_b 10.199074
_cell_length_c 11.836537
_cell_angle_alpha 90.000000
_cell_angle_beta 90.000000
_cell_angle_gamma 90.000000
_cell_volume 1733.132635
_symmetry_space_group_name_H-M "P N N A"
_symmetry_group_IT_number 52
_symmetry_cell_setting 'orthorhombic'
loop_
_space_group_symop_operation_xyz
x,y,z
1/2-x,-y,z
x,1/2-y,1/2-z
1/2-x,1/2+y,1/2-z
-x,-y,-z
1/2+x,y,-z
-x,1/2+y,1/2+z
1/2+x,1/2-y,1/2+z
loop_
_atom_site_type_symbol
_atom_site_label
_atom_site_fract_x
_atom_site_fract_y
_atom_site_fract_z
Si Si1 0.724467 0.276882 0.494637
Si Si2 0.422122 0.225728 0.929574
Si Si3 0.928513 0.916679 0.574392
Si Si4 0.653916 0.472460 0.300131
Si Si5 0.653215 0.102391 0.793206
Si Si6 0.034836 0.865454 0.173446
O O1 0.823647 0.213628 0.467828
O O2 0.644984 0.168968 0.505489
O O3 0.692828 0.377369 0.398444
O O4 0.730520 0.361901 0.611838
O O5 0.473453 0.189410 0.046616
O O6 0.492883 0.322158 0.868990
O O7 0.387548 0.104201 0.855364
O O8 0.860856 0.974528 0.672727
O O9 0.000000 0.000000 0.500000
O O10 0.750000 0.500000 0.231682
O O11 0.560909 0.399330 0.259418
O O12 0.640086 0.250000 0.750000
O O13 0.582112 0.006595 0.855547
O O14 0.080282 0.750000 0.250000
#
# Coordination Sequence:
#
# PCOD9410220 Si02
#       6
#     8   8   8   8   8   8
#     4  10  21  40  67  98 128 172 234 285 326 415
#     4  11  22  40  71  94 127 183 228 279 344 408
#     4  11  23  41  62  94 141 180 213 276 358 422
#     4  10  20  39  65  91 121 166 229 277 326 399
#     4  10  22  39  62  95 136 172 223 280 341 403
#     4  12  23  38  65  99 131 170 225 283 350 410
#
# _framework density 27.695512999999998
#
# number of rings (size 3 to 8) (size 9 to 14) (size 15 to 20)
#    0.000    1.333    3.333    3.500    0.000    2.667 
#    0.000    7.500    0.000    0.000    0.000    0.000 
#    0.000    0.000    0.000    0.000    0.000    0.000 
#
# Total GULP energy -267537.317412 kJ/mol
# GULP energy per Si atom -5573.694113 kJ/mol
# Density = 2.763248 g / cm^3
# Si number density = 27.695513 Si / 1000 Ang^3
#
#
#
# Elastic Constant Matrix: (Units=GPa)
#
#
# Indices 1 2 3 4 5 6 
#
# 1 154.0018 9.8591 -13.2445 0.0000 0.0000 0.0000
# 2 9.8591 71.0099 -3.6276 0.0000 0.0000 0.0000
# 3 -13.2445 -3.6276 63.9393 0.0000 0.0000 0.0000
# 4 0.0000 0.0000 0.0000 34.3630 0.0000 0.0000
# 5 0.0000 0.0000 0.0000 0.0000 9.7956 0.0000
# 6 0.0000 0.0000 0.0000 0.0000 0.0000 38.2775
#
#
#
# Elastic Compliance Matrix: (Units=1/GPa)
#
#
# Indices 1 2 3 4 5 6 
#
# 1 0.006663 -0.000857 0.001332 0.000000 0.000000 0.000000
# 2 -0.000857 0.014234 0.000630 0.000000 0.000000 0.000000
# 3 0.001332 0.000630 0.015951 0.000000 0.000000 0.000000
# 4 0.000000 0.000000 0.000000 0.029101 0.000000 0.000000
# 5 0.000000 0.000000 0.000000 0.000000 0.102086 0.000000
# 6 0.000000 0.000000 0.000000 0.000000 0.000000 0.026125
#
#
# Mechanical properties :
#
#
# Convention : Reuss Voigt Hill
#
# Bulk Modulus (GPa) = 25.60366 30.54722 28.07544
# Shear Modulus (GPa) = 24.39377 36.21816 30.30597
#
# Velocity S-wave (km/s) = 2.97102 3.62017 3.31154
# Velocity P-wave (km/s) = 4.58629 5.34114 4.97805
#
# Compressibility (1/GPa) = 0.03905691
#
# Stress axis : x y z
#
# Youngs Moduli (GPa) = 150.08681 70.25567 62.69049
#
# Poissons Ratio (x) = 0.06021 -0.08347
# Poissons Ratio (y) = 0.12863 -0.03950
# Poissons Ratio (z) = -0.19984 -0.04426
#
# Static dielectric constant tensor:
#      x y z
#    x 2.912210 0.000000 0.000000 
#    y 0.000000 2.303240 0.000000 
#    z 0.000000 0.000000 2.202580 
# 
# From -- ./inp_files/27188.got.cif
#   From: 2010.05.17/outbox.cif.g08.bks.cpg/sg52_14_cif.got.tgz:27188.got - 2010.06.03 12:15:38.
