data_PCOD9410148
_publ_section_title
;
Structure prediction by ZEFSAII (Michael W. Deem and Ramdas Pophale) SiO2 
 PCOD9410148
Probable space group: P N N A
;
_chemical_formula_sum "Si O2"
_cell_formula_units_Z 20
_cell_length_a 7.929979
_cell_length_b 10.164248
_cell_length_c 9.007038
_cell_angle_alpha 90.000000
_cell_angle_beta 90.000000
_cell_angle_gamma 90.000000
_cell_volume 725.987738
_symmetry_space_group_name_H-M "P N N A"
_symmetry_group_IT_number 52
_symmetry_cell_setting 'orthorhombic'
loop_
_space_group_symop_operation_xyz
x,y,z
1/2-x,-y,z
x,1/2-y,1/2-z
1/2-x,1/2+y,1/2-z
-x,-y,-z
1/2+x,y,-z
-x,1/2+y,1/2+z
1/2+x,1/2-y,1/2+z
loop_
_atom_site_type_symbol
_atom_site_label
_atom_site_fract_x
_atom_site_fract_y
_atom_site_fract_z
Si Si1 0.250000 0.500000 0.232658
Si Si2 0.894378 0.363264 0.023193
Si Si3 0.400739 0.411493 0.641537
O O1 0.424125 0.518116 0.318382
O O2 0.226688 0.624276 0.119388
O O3 0.829811 0.375088 0.192406
O O4 0.949714 0.211850 0.036569
O O5 0.000000 0.500000 0.000000
O O6 0.250000 0.500000 0.581638
#
# Coordination Sequence:
#
# PCOD9410148 Si02
#       3
#     4   8   8
#     4  10  20  40  70 102 148 196 234 304 378 442
#     4   9  19  38  68 102 142 192 240 302 379 436
#     4  10  20  38  68 106 140 187 252 302 363 455
#
# _framework density 27.548673999999998
#
# number of rings (size 3 to 8) (size 9 to 14) (size 15 to 20)
#    0.000    2.400    2.000    0.000    0.000    0.000 
#    0.000   24.000    0.000   31.200    0.000    0.000 
#    0.000    0.000    0.000    0.000    0.000    0.000 
#
# Total GULP energy -111398.044035 kJ/mol
# GULP energy per Si atom -5569.902202 kJ/mol
# Density = 2.748597 g / cm^3
# Si number density = 27.548674 Si / 1000 Ang^3
#
#
#
# Elastic Constant Matrix: (Units=GPa)
#
#
# Indices 1 2 3 4 5 6 
#
# 1 186.6556 104.8246 63.8975 0.0000 0.0000 0.0000
# 2 104.8246 211.4889 82.7997 0.0000 0.0000 0.0000
# 3 63.8975 82.7997 138.5513 0.0000 0.0000 0.0000
# 4 0.0000 0.0000 0.0000 65.7103 0.0000 0.0000
# 5 0.0000 0.0000 0.0000 0.0000 22.4624 0.0000
# 6 0.0000 0.0000 0.0000 0.0000 0.0000 40.4049
#
#
#
# Elastic Compliance Matrix: (Units=1/GPa)
#
#
# Indices 1 2 3 4 5 6 
#
# 1 0.007706 -0.003170 -0.001660 0.000000 0.000000 0.000000
# 2 -0.003170 0.007476 -0.003006 0.000000 0.000000 0.000000
# 3 -0.001660 -0.003006 0.009779 0.000000 0.000000 0.000000
# 4 0.000000 0.000000 0.000000 0.015218 0.000000 0.000000
# 5 0.000000 0.000000 0.000000 0.000000 0.044519 0.000000
# 6 0.000000 0.000000 0.000000 0.000000 0.000000 0.024749
#
#
# Mechanical properties :
#
#
# Convention : Reuss Voigt Hill
#
# Bulk Modulus (GPa) = 107.63349 115.52658 111.58004
# Shear Modulus (GPa) = 38.99688 44.72711 41.86200
#
# Velocity S-wave (km/s) = 3.76648 4.03372 3.90239
# Velocity P-wave (km/s) = 7.62038 7.98255 7.80357
#
# Compressibility (1/GPa) = 0.00929079
#
# Stress axis : x y z
#
# Youngs Moduli (GPa) = 129.77639 133.75574 102.25565
#
# Poissons Ratio (x) = 0.42395 0.16970
# Poissons Ratio (y) = 0.41133 0.30740
# Poissons Ratio (z) = 0.21537 0.40209
#
# Static dielectric constant tensor:
#      x y z
#    x 2.353300 0.000000 0.000000 
#    y 0.000000 2.376320 0.000000 
#    z 0.000000 0.000000 2.223450 
# 
# From -- ./inp_files/6878.got.cif
#   From: 2010.05.17/outbox.cif.g08.bks.cpg/sg52_4_cif.got.tgz:6878.got - 2010.06.03 12:15:38.
