data_PCOD9410300
_publ_section_title
;
Structure prediction by ZEFSAII (Michael W. Deem and Ramdas Pophale) SiO2 
 PCOD9410300
Probable space group: P N N A
;
_chemical_formula_sum "Si O2"
_cell_formula_units_Z 64
_cell_length_a 26.066352
_cell_length_b 9.332430
_cell_length_c 10.815041
_cell_angle_alpha 90.000000
_cell_angle_beta 90.000000
_cell_angle_gamma 90.000000
_cell_volume 2630.892888
_symmetry_space_group_name_H-M "P N N A"
_symmetry_group_IT_number 52
_symmetry_cell_setting 'orthorhombic'
loop_
_space_group_symop_operation_xyz
x,y,z
1/2-x,-y,z
x,1/2-y,1/2-z
1/2-x,1/2+y,1/2-z
-x,-y,-z
1/2+x,y,-z
-x,1/2+y,1/2+z
1/2+x,1/2-y,1/2+z
loop_
_atom_site_type_symbol
_atom_site_label
_atom_site_fract_x
_atom_site_fract_y
_atom_site_fract_z
Si Si1 0.113246 0.342656 0.372130
Si Si2 0.163632 0.623413 0.445608
Si Si3 0.071464 0.082017 0.748760
Si Si4 0.595132 0.050240 0.510116
Si Si5 0.794732 0.397768 0.005481
Si Si6 0.003565 0.852990 0.870163
Si Si7 0.554643 0.782092 0.608933
Si Si8 0.833161 0.099798 0.231739
O O1 0.122681 0.250000 0.250000
O O2 0.154564 0.468422 0.386224
O O3 0.108194 0.216702 0.473510
O O4 0.055390 0.403271 0.372196
O O5 0.202950 0.754084 0.422562
O O6 0.108471 0.701134 0.424461
O O7 0.179319 0.595228 0.588077
O O8 0.065915 0.250000 0.750000
O O9 0.060047 0.031038 0.610207
O O10 0.040768 0.987774 0.846777
O O11 0.131089 0.037316 0.755011
O O12 0.650205 0.973609 0.503927
O O13 0.565529 0.953401 0.608917
O O14 0.750000 0.500000 0.963983
O O15 0.792265 0.381634 0.157237
O O16 0.008279 0.750000 0.750000
O O17 0.018243 0.770374 0.996824
O O18 0.540058 0.750000 0.750000
O O19 0.865002 0.250000 0.250000
#
# Coordination Sequence:
#
# PCOD9410300 Si02
#       8
#     8   8   8   8   8   8   8   8
#     4  11  25  44  63  95 138 196 250 314 360 434
#     4  10  20  40  64  93 145 193 232 283 382 434
#     4  11  20  37  63  96 131 186 243 299 362 427
#     4  10  22  41  66  95 143 183 235 301 388 442
#     4   9  20  40  72 107 137 179 235 301 365 465
#     4  11  23  44  66  93 142 196 263 313 357 437
#     4  11  22  40  67  99 139 197 256 310 366 434
#     4   9  17  35  65  93 136 190 225 275 362 448
#
# _framework density 24.326340999999999
#
# number of rings (size 3 to 8) (size 9 to 14) (size 15 to 20)
#    0.000    1.750    2.500    2.625    0.000    1.000 
#    2.250   15.625    0.000    4.500    0.000    3.500 
#    0.000    1.000    0.000    0.000    0.000    0.000 
#
# Total GULP energy -357123.824670 kJ/mol
# GULP energy per Si atom -5580.059760 kJ/mol
# Density = 2.427097 g / cm^3
# Si number density = 24.326341 Si / 1000 Ang^3
#
#
#
# Elastic Constant Matrix: (Units=GPa)
#
#
# Indices 1 2 3 4 5 6 
#
# 1 35.7421 60.6306 37.4396 0.0000 0.0000 0.0000
# 2 60.6306 165.1834 41.8901 0.0000 0.0000 0.0000
# 3 37.4396 41.8901 106.2205 0.0000 0.0000 0.0000
# 4 0.0000 0.0000 0.0000 39.6881 0.0000 0.0000
# 5 0.0000 0.0000 0.0000 0.0000 9.6679 0.0000
# 6 0.0000 0.0000 0.0000 0.0000 0.0000 20.6182
#
#
#
# Elastic Compliance Matrix: (Units=1/GPa)
#
#
# Indices 1 2 3 4 5 6 
#
# 1 0.119114 -0.036749 -0.027492 0.000000 0.000000 0.000000
# 2 -0.036749 0.018064 0.005829 0.000000 0.000000 0.000000
# 3 -0.027492 0.005829 0.016806 0.000000 0.000000 0.000000
# 4 0.000000 0.000000 0.000000 0.025196 0.000000 0.000000
# 5 0.000000 0.000000 0.000000 0.000000 0.103435 0.000000
# 6 0.000000 0.000000 0.000000 0.000000 0.000000 0.048501
#
#
# Mechanical properties :
#
#
# Convention : Reuss Voigt Hill
#
# Bulk Modulus (GPa) = 26.91010 65.22963 46.06986
# Shear Modulus (GPa) = 10.86185 25.14057 18.00121
#
# Velocity S-wave (km/s) = 2.11536 3.21825 2.72322
# Velocity P-wave (km/s) = 4.12946 6.37826 5.37283
#
# Compressibility (1/GPa) = 0.03716077
#
# Stress axis : x y z
#
# Youngs Moduli (GPa) = 8.39531 55.35745 59.50395
#
# Poissons Ratio (x) = 2.03433 1.63586
# Poissons Ratio (y) = 0.30852 -0.34684
# Poissons Ratio (z) = 0.23080 -0.32267
#
# Static dielectric constant tensor:
#      x y z
#    x 1.917820 0.000000 0.000000 
#    y 0.000000 2.032060 0.000000 
#    z 0.000000 0.000000 2.105920 
# 
# From -- ./inp_files/23227.got.cif
#   From: 2010.05.17/outbox.cif.g08.bks.cpg/sg52_12_cif.got.tgz:23227.got - 2010.06.03 12:15:38.
