data_PCOD9410736
_publ_section_title
;
Structure prediction by ZEFSAII (Michael W. Deem and Ramdas Pophale) SiO2 
 PCOD9410736
Probable space group: P N N A
;
_chemical_formula_sum "Si O2"
_cell_formula_units_Z 32
_cell_length_a 16.100956
_cell_length_b 14.248214
_cell_length_c 6.879207
_cell_angle_alpha 90.000000
_cell_angle_beta 90.000000
_cell_angle_gamma 90.000000
_cell_volume 1578.157961
_symmetry_space_group_name_H-M "P N N A"
_symmetry_group_IT_number 52
_symmetry_cell_setting 'orthorhombic'
loop_
_space_group_symop_operation_xyz
x,y,z
1/2-x,-y,z
x,1/2-y,1/2-z
1/2-x,1/2+y,1/2-z
-x,-y,-z
1/2+x,y,-z
-x,1/2+y,1/2+z
1/2+x,1/2-y,1/2+z
loop_
_atom_site_type_symbol
_atom_site_label
_atom_site_fract_x
_atom_site_fract_y
_atom_site_fract_z
Si Si1 0.149733 0.250000 0.250000
Si Si2 0.980298 0.646805 0.972360
Si Si3 0.954735 0.469807 0.697271
Si Si4 0.807604 0.162070 0.877006
Si Si5 0.373100 0.250000 0.750000
O O1 0.090466 0.277188 0.071795
O O2 0.212099 0.165869 0.190190
O O3 0.954310 0.557169 0.843047
O O4 0.065501 0.685421 0.878215
O O5 0.994747 0.612177 0.190146
O O6 0.863372 0.428066 0.661234
O O7 0.000000 0.500000 0.500000
O O8 0.842874 0.250000 0.750000
O O9 0.818512 0.190228 0.101184
#
# Coordination Sequence:
#
# PCOD9410736 Si02
#       5
#     4   8   8   8   4
#     4   9  22  42  58  85 130 156 198 257 316 366
#     4  10  21  37  62  92 115 158 208 257 294 372
#     4  11  21  37  65  90 118 157 213 253 299 362
#     4  10  21  39  58  86 122 164 193 259 308 363
#     4  11  18  38  62  83 120 164 214 237 304 368
#
# _framework density 20.276803999999998
#
# number of rings (size 3 to 8) (size 9 to 14) (size 15 to 20)
#    0.750    1.000    5.000    0.000    0.000    1.000 
#    4.500    0.000    0.000    0.000    0.000    0.000 
#    0.000    0.000    0.000    0.000    0.000    0.000 
#
# Total GULP energy -178434.133978 kJ/mol
# GULP energy per Si atom -5576.066687 kJ/mol
# Density = 2.023065 g / cm^3
# Si number density = 20.276804 Si / 1000 Ang^3
#
#
#
# Elastic Constant Matrix: (Units=GPa)
#
#
# Indices 1 2 3 4 5 6 
#
# 1 76.6892 2.0622 31.1164 0.0000 0.0000 0.0000
# 2 2.0622 32.9781 9.3658 0.0000 0.0000 0.0000
# 3 31.1164 9.3658 112.9040 0.0000 0.0000 0.0000
# 4 0.0000 0.0000 0.0000 42.0079 0.0000 0.0000
# 5 0.0000 0.0000 0.0000 0.0000 5.8054 0.0000
# 6 0.0000 0.0000 0.0000 0.0000 0.0000 33.7139
#
#
#
# Elastic Compliance Matrix: (Units=1/GPa)
#
#
# Indices 1 2 3 4 5 6 
#
# 1 0.014683 0.000237 -0.004066 0.000000 0.000000 0.000000
# 2 0.000237 0.031059 -0.002642 0.000000 0.000000 0.000000
# 3 -0.004066 -0.002642 0.010197 0.000000 0.000000 0.000000
# 4 0.000000 0.000000 0.000000 0.023805 0.000000 0.000000
# 5 0.000000 0.000000 0.000000 0.000000 0.172252 0.000000
# 6 0.000000 0.000000 0.000000 0.000000 0.000000 0.029661
#
#
# Mechanical properties :
#
#
# Convention : Reuss Voigt Hill
#
# Bulk Modulus (GPa) = 23.25793 34.18443 28.72118
# Shear Modulus (GPa) = 16.18479 28.30723 22.24601
#
# Velocity S-wave (km/s) = 2.82829 3.74042 3.31587
# Velocity P-wave (km/s) = 4.70752 5.96236 5.37171
#
# Compressibility (1/GPa) = 0.04299608
#
# Stress axis : x y z
#
# Youngs Moduli (GPa) = 68.10511 32.19722 98.06906
#
# Poissons Ratio (x) = -0.00762 0.39878
# Poissons Ratio (y) = -0.01612 0.25906
# Poissons Ratio (z) = 0.27694 0.08505
#
# Static dielectric constant tensor:
#      x y z
#    x 1.710390 0.000000 0.000000 
#    y 0.000000 1.770940 0.000000 
#    z 0.000000 0.000000 1.705240 
# 
# From -- ./inp_files/3024.got.cif
#   From: 2010.05.17/outbox.cif.g08.bks.cpg/sg52_2_cif.got.tgz:3024.got - 2010.06.03 12:15:38.
