data_PCOD9410467
_publ_section_title
;
Structure prediction by ZEFSAII (Michael W. Deem and Ramdas Pophale) SiO2 
 PCOD9410467
Probable space group: P N N A
;
_chemical_formula_sum "Si O2"
_cell_formula_units_Z 40
_cell_length_a 5.222207
_cell_length_b 10.977837
_cell_length_c 27.264845
_cell_angle_alpha 90.000000
_cell_angle_beta 90.000000
_cell_angle_gamma 90.000000
_cell_volume 1563.053682
_symmetry_space_group_name_H-M "P N N A"
_symmetry_group_IT_number 52
_symmetry_cell_setting 'orthorhombic'
loop_
_space_group_symop_operation_xyz
x,y,z
1/2-x,-y,z
x,1/2-y,1/2-z
1/2-x,1/2+y,1/2-z
-x,-y,-z
1/2+x,y,-z
-x,1/2+y,1/2+z
1/2+x,1/2-y,1/2+z
loop_
_atom_site_type_symbol
_atom_site_label
_atom_site_fract_x
_atom_site_fract_y
_atom_site_fract_z
Si Si1 0.342707 0.736893 0.532006
Si Si2 0.605175 0.378390 0.659548
Si Si3 0.431820 0.156819 0.380949
Si Si4 0.750000 0.500000 0.800004
Si Si5 0.038232 0.250000 0.250000
Si Si6 0.250000 0.000000 0.919719
Si Si7 0.250000 0.000000 0.464740
O O1 0.584125 0.757863 0.496974
O O2 0.334705 0.809767 0.583641
O O3 0.386535 0.598143 0.547378
O O4 0.750000 0.500000 0.678308
O O5 0.812126 0.278377 0.642646
O O6 0.427636 0.310179 0.700323
O O7 0.443119 0.426551 0.614525
O O8 0.246503 0.107289 0.424047
O O9 0.458649 0.056490 0.338303
O O10 0.828302 0.623891 0.770789
O O11 0.500000 0.000000 0.500000
#
# Coordination Sequence:
#
# PCOD9410467 Si02
#       7
#     8   8   8   4   4   4   4
#     4  12  25  42  68 104 151 203 260 314 370 451
#     4  11  22  44  69 104 148 194 248 313 387 469
#     4  10  22  42  67 102 144 198 248 309 385 449
#     4   9  20  38  74 109 148 195 250 318 388 477
#     4  10  20  42  76 114 144 196 254 316 400 468
#     4  12  26  42  66 106 152 206 258 324 388 458
#     4  11  24  44  68  97 140 193 254 314 370 441
#
# _framework density 25.590933
#
# number of rings (size 3 to 8) (size 9 to 14) (size 15 to 20)
#    0.000    1.200    3.000    3.000    0.000    1.600 
#    0.000    3.000    0.000    2.400    0.000    0.000 
#    0.000    0.000    0.000    0.000    0.000    0.000 
#
# Total GULP energy -223023.099825 kJ/mol
# GULP energy per Si atom -5575.577496 kJ/mol
# Density = 2.553269 g / cm^3
# Si number density = 25.590933 Si / 1000 Ang^3
#
#
#
# Elastic Constant Matrix: (Units=GPa)
#
#
# Indices 1 2 3 4 5 6 
#
# 1 89.5533 32.7240 28.7723 0.0000 0.0000 0.0000
# 2 32.7240 193.1843 84.8590 0.0000 0.0000 0.0000
# 3 28.7723 84.8590 118.8705 0.0000 0.0000 0.0000
# 4 0.0000 0.0000 0.0000 80.7960 0.0000 0.0000
# 5 0.0000 0.0000 0.0000 0.0000 85.9838 0.0000
# 6 0.0000 0.0000 0.0000 0.0000 0.0000 21.5833
#
#
#
# Elastic Compliance Matrix: (Units=1/GPa)
#
#
# Indices 1 2 3 4 5 6 
#
# 1 0.012275 -0.001128 -0.002166 0.000000 0.000000 0.000000
# 2 -0.001128 0.007645 -0.005184 0.000000 0.000000 0.000000
# 3 -0.002166 -0.005184 0.012638 0.000000 0.000000 0.000000
# 4 0.000000 0.000000 0.000000 0.012377 0.000000 0.000000
# 5 0.000000 0.000000 0.000000 0.000000 0.011630 0.000000
# 6 0.000000 0.000000 0.000000 0.000000 0.000000 0.046332
#
#
# Mechanical properties :
#
#
# Convention : Reuss Voigt Hill
#
# Bulk Modulus (GPa) = 64.09920 77.14652 70.62286
# Shear Modulus (GPa) = 39.98311 54.68949 47.33630
#
# Velocity S-wave (km/s) = 3.95700 4.62786 4.30551
# Velocity P-wave (km/s) = 6.78079 7.66600 7.23694
#
# Compressibility (1/GPa) = 0.01560082
#
# Stress axis : x y z
#
# Youngs Moduli (GPa) = 81.46953 130.80791 79.12749
#
# Poissons Ratio (x) = 0.14753 0.17138
# Poissons Ratio (y) = 0.09188 0.41023
# Poissons Ratio (z) = 0.17645 0.67817
#
# Static dielectric constant tensor:
#      x y z
#    x 2.079760 0.000000 0.000000 
#    y 0.000000 2.235070 0.000000 
#    z 0.000000 0.000000 2.037670 
# 
# From -- ./inp_files/41552.got.cif
#   From: 2010.05.17/outbox.cif.g08.bks.cpg/sg52_21_cif.got.tgz:41552.got - 2010.06.03 12:15:38.
