data_PCOD9410269
_publ_section_title
;
Structure prediction by ZEFSAII (Michael W. Deem and Ramdas Pophale) SiO2 
 PCOD9410269
Probable space group: P N N A
;
_chemical_formula_sum "Si O2"
_cell_formula_units_Z 60
_cell_length_a 8.804008
_cell_length_b 21.773565
_cell_length_c 13.846490
_cell_angle_alpha 90.000000
_cell_angle_beta 90.000000
_cell_angle_gamma 90.000000
_cell_volume 2654.297922
_symmetry_space_group_name_H-M "P N N A"
_symmetry_group_IT_number 52
_symmetry_cell_setting 'orthorhombic'
loop_
_space_group_symop_operation_xyz
x,y,z
1/2-x,-y,z
x,1/2-y,1/2-z
1/2-x,1/2+y,1/2-z
-x,-y,-z
1/2+x,y,-z
-x,1/2+y,1/2+z
1/2+x,1/2-y,1/2+z
loop_
_atom_site_type_symbol
_atom_site_label
_atom_site_fract_x
_atom_site_fract_y
_atom_site_fract_z
Si Si1 0.798559 0.936677 0.371414
Si Si2 0.436997 0.821952 0.135453
Si Si3 0.444599 0.116297 0.241489
Si Si4 0.341381 0.679473 0.163515
Si Si5 0.702160 0.796986 0.004208
Si Si6 0.460099 0.572949 0.064575
Si Si7 0.750000 0.000000 0.715630
Si Si8 0.036703 0.228288 0.861156
O O1 0.637503 0.915561 0.415092
O O2 0.909698 0.952772 0.461059
O O3 0.904528 0.895601 0.304644
O O4 0.750000 0.000000 0.319523
O O5 0.393096 0.749301 0.147733
O O6 0.439930 0.845180 0.244110
O O7 0.301209 0.841220 0.064513
O O8 0.588988 0.830110 0.077002
O O9 0.325758 0.162099 0.296475
O O10 0.348179 0.053146 0.230678
O O11 0.503742 0.154996 0.150630
O O12 0.381004 0.639659 0.071608
O O13 0.602014 0.754367 0.932736
O O14 0.814575 0.760834 0.075710
O O15 0.371724 0.534053 0.146328
O O16 0.049988 0.250000 0.750000
#
# Coordination Sequence:
#
# PCOD9410269 Si02
#       8
#     8   8   8   8   8   8   4   8
#     4  12  23  39  60  90 131 167 220 279 348 418
#     4  10  21  40  59  87 130 164 217 268 324 397
#     4  11  23  39  66  90 130 179 220 281 334 414
#     4  10  22  37  60  88 125 170 217 262 329 397
#     4  10  23  40  66  93 133 182 214 282 345 406
#     4  11  22  36  60  88 127 171 215 275 343 424
#     4  10  20  40  60  92 122 182 224 272 350 408
#     4  11  24  44  70 103 140 179 232 282 349 416
#
# _framework density 22.604849000000002
#
# number of rings (size 3 to 8) (size 9 to 14) (size 15 to 20)
#    0.000    1.333    3.333    2.800    3.733    4.267 
#    0.000    0.000    0.000    0.800    0.000    0.000 
#    0.000    0.000    0.000    0.000    0.000    0.000 
#
# Total GULP energy -334531.538507 kJ/mol
# GULP energy per Si atom -5575.525642 kJ/mol
# Density = 2.255340 g / cm^3
# Si number density = 22.604849 Si / 1000 Ang^3
#
#
#
# Elastic Constant Matrix: (Units=GPa)
#
#
# Indices 1 2 3 4 5 6 
#
# 1 121.5049 -1.4700 44.9974 0.0000 0.0000 0.0000
# 2 -1.4700 71.0215 17.2936 0.0000 0.0000 0.0000
# 3 44.9974 17.2936 99.5869 0.0000 0.0000 0.0000
# 4 0.0000 0.0000 0.0000 27.7930 0.0000 0.0000
# 5 0.0000 0.0000 0.0000 0.0000 39.3380 0.0000
# 6 0.0000 0.0000 0.0000 0.0000 0.0000 22.9467
#
#
#
# Elastic Compliance Matrix: (Units=1/GPa)
#
#
# Indices 1 2 3 4 5 6 
#
# 1 0.010009 0.001366 -0.004760 0.000000 0.000000 0.000000
# 2 0.001366 0.014888 -0.003203 0.000000 0.000000 0.000000
# 3 -0.004760 -0.003203 0.012748 0.000000 0.000000 0.000000
# 4 0.000000 0.000000 0.000000 0.035980 0.000000 0.000000
# 5 0.000000 0.000000 0.000000 0.000000 0.025421 0.000000
# 6 0.000000 0.000000 0.000000 0.000000 0.000000 0.043579
#
#
# Mechanical properties :
#
#
# Convention : Reuss Voigt Hill
#
# Bulk Modulus (GPa) = 40.89426 45.97279 43.43352
# Shear Modulus (GPa) = 30.49332 33.43503 31.96417
#
# Velocity S-wave (km/s) = 3.67682 3.85009 3.76445
# Velocity P-wave (km/s) = 6.01295 6.33609 6.17663
#
# Compressibility (1/GPa) = 0.02445331
#
# Stress axis : x y z
#
# Youngs Moduli (GPa) = 99.90606 67.16647 78.44145
#
# Poissons Ratio (x) = -0.09176 0.37337
# Poissons Ratio (y) = -0.13649 0.25123
# Poissons Ratio (z) = 0.47554 0.21512
#
# Static dielectric constant tensor:
#      x y z
#    x 1.892080 0.000000 0.000000 
#    y 0.000000 1.905480 0.000000 
#    z 0.000000 0.000000 1.838850 
# 
# From -- ./inp_files/25100.got.cif
#   From: 2010.05.17/outbox.cif.g08.bks.cpg/sg52_13_cif.got.tgz:25100.got - 2010.06.03 12:15:38.
