data_PCOD9410279
_publ_section_title
;
Structure prediction by ZEFSAII (Michael W. Deem and Ramdas Pophale) SiO2 
 PCOD9410279
Probable space group: P N N A
;
_chemical_formula_sum "Si O2"
_cell_formula_units_Z 36
_cell_length_a 20.100060
_cell_length_b 13.184655
_cell_length_c 6.618127
_cell_angle_alpha 90.000000
_cell_angle_beta 90.000000
_cell_angle_gamma 90.000000
_cell_volume 1753.885432
_symmetry_space_group_name_H-M "P N N A"
_symmetry_group_IT_number 52
_symmetry_cell_setting 'orthorhombic'
loop_
_space_group_symop_operation_xyz
x,y,z
1/2-x,-y,z
x,1/2-y,1/2-z
1/2-x,1/2+y,1/2-z
-x,-y,-z
1/2+x,y,-z
-x,1/2+y,1/2+z
1/2+x,1/2-y,1/2+z
loop_
_atom_site_type_symbol
_atom_site_label
_atom_site_fract_x
_atom_site_fract_y
_atom_site_fract_z
Si Si1 0.512177 0.141465 0.793552
Si Si2 0.647165 0.386434 0.953316
Si Si3 0.924031 0.956824 0.162404
Si Si4 0.317630 0.047973 0.133804
Si Si5 0.245095 0.750000 0.250000
O O1 0.478787 0.250000 0.750000
O O2 0.580604 0.143884 0.667869
O O3 0.469868 0.042253 0.733344
O O4 0.532180 0.120296 0.027538
O O5 0.624122 0.401663 0.181216
O O6 0.670727 0.491460 0.848232
O O7 0.705107 0.305655 0.907540
O O8 0.879152 0.018870 0.004098
O O9 0.301647 0.164895 0.156098
O O10 0.250000 0.000000 0.045709
#
# Coordination Sequence:
#
# PCOD9410279 Si02
#       5
#     8   8   8   8   4
#     4  10  21  40  59  90 121 155 207 256 305 361
#     4  10  20  40  62  87 120 163 201 252 299 359
#     4  10  22  39  63  88 124 159 203 256 306 364
#     4   9  21  39  57  89 126 154 198 257 297 359
#     4  10  20  40  66  86 130 160 198 252 306 362
#
# _framework density 20.525857999999999
#
# number of rings (size 3 to 8) (size 9 to 14) (size 15 to 20)
#    0.000    2.222    1.111    0.667    0.000    5.333 
#    0.000    6.667    0.000    0.000    0.000    0.000 
#    0.000    0.000    0.000    0.000    0.000    0.000 
#
# Total GULP energy -200920.359843 kJ/mol
# GULP energy per Si atom -5581.121107 kJ/mol
# Density = 2.047914 g / cm^3
# Si number density = 20.525858 Si / 1000 Ang^3
#
#
#
# Elastic Constant Matrix: (Units=GPa)
#
#
# Indices 1 2 3 4 5 6 
#
# 1 42.3445 16.9531 12.9903 0.0000 0.0000 0.0000
# 2 16.9531 136.7237 46.6094 0.0000 0.0000 0.0000
# 3 12.9903 46.6094 69.1658 0.0000 0.0000 0.0000
# 4 0.0000 0.0000 0.0000 7.5446 0.0000 0.0000
# 5 0.0000 0.0000 0.0000 0.0000 100.5159 0.0000
# 6 0.0000 0.0000 0.0000 0.0000 0.0000 13.1309
#
#
#
# Elastic Compliance Matrix: (Units=1/GPa)
#
#
# Indices 1 2 3 4 5 6 
#
# 1 0.025467 -0.001983 -0.003447 0.000000 0.000000 0.000000
# 2 -0.001983 0.009650 -0.006130 0.000000 0.000000 0.000000
# 3 -0.003447 -0.006130 0.019237 0.000000 0.000000 0.000000
# 4 0.000000 0.000000 0.000000 0.132545 0.000000 0.000000
# 5 0.000000 0.000000 0.000000 0.000000 0.009949 0.000000
# 6 0.000000 0.000000 0.000000 0.000000 0.000000 0.076156
#
#
# Mechanical properties :
#
#
# Convention : Reuss Voigt Hill
#
# Bulk Modulus (GPa) = 32.01716 44.59328 38.30522
# Shear Modulus (GPa) = 16.31136 35.68368 25.99752
#
# Velocity S-wave (km/s) = 2.82205 4.17402 3.56276
# Velocity P-wave (km/s) = 5.12357 6.70839 5.96882
#
# Compressibility (1/GPa) = 0.03123325
#
# Stress axis : x y z
#
# Youngs Moduli (GPa) = 39.26636 103.62984 51.98441
#
# Poissons Ratio (x) = 0.20547 0.17919
# Poissons Ratio (y) = 0.07785 0.31868
# Poissons Ratio (z) = 0.13535 0.63529
#
# Static dielectric constant tensor:
#      x y z
#    x 1.747470 0.000000 0.000000 
#    y 0.000000 1.647910 0.000000 
#    z 0.000000 0.000000 1.740830 
# 
# From -- ./inp_files/4889.got.cif
#   From: 2010.05.17/outbox.cif.g08.bks.cpg/sg52_3_cif.got.tgz:4889.got - 2010.06.03 12:15:38.
