data_PCOD9410512
_publ_section_title
;
Structure prediction by ZEFSAII (Michael W. Deem and Ramdas Pophale) SiO2 
 PCOD9410512
Probable space group: P N N A
;
_chemical_formula_sum "Si O2"
_cell_formula_units_Z 36
_cell_length_a 9.949972
_cell_length_b 17.757517
_cell_length_c 7.417524
_cell_angle_alpha 90.000000
_cell_angle_beta 90.000000
_cell_angle_gamma 90.000000
_cell_volume 1310.578557
_symmetry_space_group_name_H-M "P N N A"
_symmetry_group_IT_number 52
_symmetry_cell_setting 'orthorhombic'
loop_
_space_group_symop_operation_xyz
x,y,z
1/2-x,-y,z
x,1/2-y,1/2-z
1/2-x,1/2+y,1/2-z
-x,-y,-z
1/2+x,y,-z
-x,1/2+y,1/2+z
1/2+x,1/2-y,1/2+z
loop_
_atom_site_type_symbol
_atom_site_label
_atom_site_fract_x
_atom_site_fract_y
_atom_site_fract_z
Si Si1 0.937140 0.350750 0.701591
Si Si2 0.000000 0.500000 0.500000
Si Si3 0.843125 0.616014 0.701191
Si Si4 0.107938 0.862113 0.618333
Si Si5 0.334138 0.750000 0.750000
Si Si6 0.750000 0.000000 0.488803
O O1 0.945039 0.435670 0.637525
O O2 0.782537 0.330581 0.657789
O O3 0.058694 0.299245 0.635380
O O4 0.944707 0.350207 0.917589
O O5 0.873107 0.556078 0.547852
O O6 0.986886 0.652618 0.745521
O O7 0.810070 0.565379 0.882061
O O8 0.235351 0.810037 0.657777
O O9 0.148009 0.951245 0.634362
#
# Coordination Sequence:
#
# PCOD9410512 Si02
#       6
#     8   4   8   8   4   4
#     4  11  26  50  76 110 164 208 267 331 412 486
#     4  12  24  42  72 116 150 202 268 338 398 468
#     4  11  23  44  77 115 152 206 266 345 401 488
#     4  11  25  47  81 115 156 213 274 332 418 497
#     4  12  30  48  76 120 160 218 266 340 418 510
#     4  10  20  46  80 120 144 216 262 348 400 492
#
# _framework density 27.468786999999999
#
# number of rings (size 3 to 8) (size 9 to 14) (size 15 to 20)
#    0.000    0.889    4.444    3.333    3.111    8.000 
#    0.000    0.000    0.000    0.000    0.000    0.000 
#    0.000    0.000    0.000    0.000    0.000    0.000 
#
# Total GULP energy -200727.685701 kJ/mol
# GULP energy per Si atom -5575.769047 kJ/mol
# Density = 2.740627 g / cm^3
# Si number density = 27.468787 Si / 1000 Ang^3
#
#
#
# Elastic Constant Matrix: (Units=GPa)
#
#
# Indices 1 2 3 4 5 6 
#
# 1 229.2910 59.1160 48.5909 0.0000 0.0000 0.0000
# 2 59.1160 150.7976 21.5357 0.0000 0.0000 0.0000
# 3 48.5909 21.5357 55.9015 0.0000 0.0000 0.0000
# 4 0.0000 0.0000 0.0000 27.0118 0.0000 0.0000
# 5 0.0000 0.0000 0.0000 0.0000 39.1011 0.0000
# 6 0.0000 0.0000 0.0000 0.0000 0.0000 65.6898
#
#
#
# Elastic Compliance Matrix: (Units=1/GPa)
#
#
# Indices 1 2 3 4 5 6 
#
# 1 0.005695 -0.001614 -0.004328 0.000000 0.000000 0.000000
# 2 -0.001614 0.007475 -0.001477 0.000000 0.000000 0.000000
# 3 -0.004328 -0.001477 0.022219 0.000000 0.000000 0.000000
# 4 0.000000 0.000000 0.000000 0.037021 0.000000 0.000000
# 5 0.000000 0.000000 0.000000 0.000000 0.025575 0.000000
# 6 0.000000 0.000000 0.000000 0.000000 0.000000 0.015223
#
#
# Mechanical properties :
#
#
# Convention : Reuss Voigt Hill
#
# Bulk Modulus (GPa) = 48.65830 77.16393 62.91111
# Shear Modulus (GPa) = 37.06552 46.81036 41.93794
#
# Velocity S-wave (km/s) = 3.67736 4.13259 3.91160
# Velocity P-wave (km/s) = 5.98190 7.13607 6.58432
#
# Compressibility (1/GPa) = 0.02055148
#
# Stress axis : x y z
#
# Youngs Moduli (GPa) = 175.60275 133.77695 45.00557
#
# Poissons Ratio (x) = 0.21596 0.19479
# Poissons Ratio (y) = 0.28348 0.06645
# Poissons Ratio (z) = 0.76001 0.19752
#
# Static dielectric constant tensor:
#      x y z
#    x 2.252570 0.000000 0.000000 
#    y 0.000000 1.461670 0.000000 
#    z 0.000000 0.000000 2.240070 
# 
# From -- ./inp_files/7327.got.cif
#   From: 2010.05.17/outbox.cif.g08.bks.cpg/sg52_4_cif.got.tgz:7327.got - 2010.06.03 12:15:38.
