data_PCOD9410165
_publ_section_title
;
Structure prediction by ZEFSAII (Michael W. Deem and Ramdas Pophale) SiO2 
 PCOD9410165
Probable space group: P N N A
;
_chemical_formula_sum "Si O2"
_cell_formula_units_Z 32
_cell_length_a 12.225133
_cell_length_b 9.151222
_cell_length_c 12.593843
_cell_angle_alpha 90.000000
_cell_angle_beta 90.000000
_cell_angle_gamma 90.000000
_cell_volume 1408.935003
_symmetry_space_group_name_H-M "P N N A"
_symmetry_group_IT_number 52
_symmetry_cell_setting 'orthorhombic'
loop_
_space_group_symop_operation_xyz
x,y,z
1/2-x,-y,z
x,1/2-y,1/2-z
1/2-x,1/2+y,1/2-z
-x,-y,-z
1/2+x,y,-z
-x,1/2+y,1/2+z
1/2+x,1/2-y,1/2+z
loop_
_atom_site_type_symbol
_atom_site_label
_atom_site_fract_x
_atom_site_fract_y
_atom_site_fract_z
Si Si1 0.553642 0.097990 0.686557
Si Si2 0.317481 0.364830 0.843663
Si Si3 0.734757 0.252698 0.939016
Si Si4 0.584762 0.966307 0.904200
O O1 0.549222 0.250000 0.750000
O O2 0.440843 0.091465 0.621240
O O3 0.666509 0.120516 0.621999
O O4 0.547472 0.981478 0.781791
O O5 0.250000 0.500000 0.800073
O O6 0.326719 0.250000 0.750000
O O7 0.248719 0.301276 0.940665
O O8 0.665669 0.104725 0.921338
O O9 0.855505 0.191034 0.910269
O O10 0.500000 0.000000 0.000000
#
# Coordination Sequence:
#
# PCOD9410165 Si02
#       4
#     8   8   8   8
#     4   9  20  41  64  98 140 173 228 292 345 419
#     4  11  25  43  69  98 139 182 232 293 352 425
#     4  10  21  39  67  98 134 182 226 288 359 413
#     4  10  20  38  73  99 131 184 236 288 348 436
#
# _framework density 22.712191000000001
#
# number of rings (size 3 to 8) (size 9 to 14) (size 15 to 20)
#    0.000    2.000    0.000    4.500    7.000    1.000 
#   13.500    0.000   11.000    0.000    0.000    0.000 
#    0.000    0.000    0.000    0.000    0.000    0.000 
#
# Total GULP energy -178252.727927 kJ/mol
# GULP energy per Si atom -5570.397748 kJ/mol
# Density = 2.266050 g / cm^3
# Si number density = 22.712191 Si / 1000 Ang^3
#
#
#
# Elastic Constant Matrix: (Units=GPa)
#
#
# Indices 1 2 3 4 5 6 
#
# 1 89.9905 37.4953 36.6556 0.0000 0.0000 0.0000
# 2 37.4953 48.8773 21.4572 0.0000 0.0000 0.0000
# 3 36.6556 21.4572 102.6515 0.0000 0.0000 0.0000
# 4 0.0000 0.0000 0.0000 30.8545 0.0000 0.0000
# 5 0.0000 0.0000 0.0000 0.0000 29.7663 0.0000
# 6 0.0000 0.0000 0.0000 0.0000 0.0000 4.0623
#
#
#
# Elastic Compliance Matrix: (Units=1/GPa)
#
#
# Indices 1 2 3 4 5 6 
#
# 1 0.017589 -0.011821 -0.003810 0.000000 0.000000 0.000000
# 2 -0.011821 0.030471 -0.002148 0.000000 0.000000 0.000000
# 3 -0.003810 -0.002148 0.011551 0.000000 0.000000 0.000000
# 4 0.000000 0.000000 0.000000 0.032410 0.000000 0.000000
# 5 0.000000 0.000000 0.000000 0.000000 0.033595 0.000000
# 6 0.000000 0.000000 0.000000 0.000000 0.000000 0.246167
#
#
# Mechanical properties :
#
#
# Convention : Reuss Voigt Hill
#
# Bulk Modulus (GPa) = 41.57459 48.08171 44.82815
# Shear Modulus (GPa) = 12.03777 22.66402 17.35090
#
# Velocity S-wave (km/s) = 2.30470 3.16235 2.76696
# Velocity P-wave (km/s) = 5.04251 5.87792 5.47617
#
# Compressibility (1/GPa) = 0.02405315
#
# Stress axis : x y z
#
# Youngs Moduli (GPa) = 56.85215 32.81857 86.57059
#
# Poissons Ratio (x) = 0.38794 0.32984
# Poissons Ratio (y) = 0.67204 0.18597
# Poissons Ratio (z) = 0.21661 0.07050
#
# Static dielectric constant tensor:
#      x y z
#    x 2.012040 0.000000 0.000000 
#    y 0.000000 1.892090 0.000000 
#    z 0.000000 0.000000 2.077300 
# 
# From -- ./inp_files/17632.got.cif
#   From: 2010.05.17/outbox.cif.g08.bks.cpg/sg52_9_cif.got.tgz:17632.got - 2010.06.03 12:15:38.
