data_PCOD9410735
_publ_section_title
;
Structure prediction by ZEFSAII (Michael W. Deem and Ramdas Pophale) SiO2 
 PCOD9410735
Probable space group: P N N A
;
_chemical_formula_sum "Si O2"
_cell_formula_units_Z 32
_cell_length_a 9.788836
_cell_length_b 7.373253
_cell_length_c 16.187948
_cell_angle_alpha 90.000000
_cell_angle_beta 90.000000
_cell_angle_gamma 90.000000
_cell_volume 1168.374283
_symmetry_space_group_name_H-M "P N N A"
_symmetry_group_IT_number 52
_symmetry_cell_setting 'orthorhombic'
loop_
_space_group_symop_operation_xyz
x,y,z
1/2-x,-y,z
x,1/2-y,1/2-z
1/2-x,1/2+y,1/2-z
-x,-y,-z
1/2+x,y,-z
-x,1/2+y,1/2+z
1/2+x,1/2-y,1/2+z
loop_
_atom_site_type_symbol
_atom_site_label
_atom_site_fract_x
_atom_site_fract_y
_atom_site_fract_z
Si Si1 0.813207 0.801276 0.995590
Si Si2 0.928421 0.278739 0.895411
Si Si3 0.083241 0.388114 0.320725
Si Si4 0.890184 0.549330 0.215608
O O1 0.680444 0.687026 0.967351
O O2 0.900611 0.807061 0.911094
O O3 0.750000 0.000000 0.012428
O O4 0.923337 0.758916 0.064821
O O5 0.968463 0.442092 0.835426
O O6 0.876872 0.102142 0.842298
O O7 0.140018 0.250000 0.250000
O O8 0.926471 0.419222 0.291844
O O9 0.750000 0.500000 0.172186
O O10 0.873649 0.750000 0.250000
#
# Coordination Sequence:
#
# PCOD9410735 Si02
#       4
#     8   8   8   8
#     4  10  21  39  64  89 121 168 209 251 304 377
#     4  10  23  41  64  90 122 164 212 255 304 368
#     4  10  21  37  62  91 121 159 202 254 310 364
#     4  10  22  39  62  94 126 161 206 260 314 369
#
# _framework density 27.388483999999998
#
# number of rings (size 3 to 8) (size 9 to 14) (size 15 to 20)
#    0.000    2.000    0.000    3.750    0.000   19.000 
#    0.000    5.000    0.000    0.000    0.000    0.000 
#    0.000    0.000    0.000    0.000    0.000    0.000 
#
# Total GULP energy -178551.879833 kJ/mol
# GULP energy per Si atom -5579.746245 kJ/mol
# Density = 2.732615 g / cm^3
# Si number density = 27.388484 Si / 1000 Ang^3
#
#
#
# Elastic Constant Matrix: (Units=GPa)
#
#
# Indices 1 2 3 4 5 6 
#
# 1 140.8133 47.7128 41.6727 0.0000 0.0000 0.0000
# 2 47.7128 76.9278 30.9862 0.0000 0.0000 0.0000
# 3 41.6727 30.9862 107.1802 0.0000 0.0000 0.0000
# 4 0.0000 0.0000 0.0000 14.4081 0.0000 0.0000
# 5 0.0000 0.0000 0.0000 0.0000 59.9865 0.0000
# 6 0.0000 0.0000 0.0000 0.0000 0.0000 42.1133
#
#
#
# Elastic Compliance Matrix: (Units=1/GPa)
#
#
# Indices 1 2 3 4 5 6 
#
# 1 0.009443 -0.004955 -0.002239 0.000000 0.000000 0.000000
# 2 -0.004955 0.017312 -0.003079 0.000000 0.000000 0.000000
# 3 -0.002239 -0.003079 0.011091 0.000000 0.000000 0.000000
# 4 0.000000 0.000000 0.000000 0.069405 0.000000 0.000000
# 5 0.000000 0.000000 0.000000 0.000000 0.016670 0.000000
# 6 0.000000 0.000000 0.000000 0.000000 0.000000 0.023745
#
#
# Mechanical properties :
#
#
# Convention : Reuss Voigt Hill
#
# Bulk Modulus (GPa) = 57.80003 62.85163 60.32583
# Shear Modulus (GPa) = 28.73899 36.93824 32.83861
#
# Velocity S-wave (km/s) = 3.24282 3.67642 3.46641
# Velocity P-wave (km/s) = 5.93049 6.40464 6.17212
#
# Compressibility (1/GPa) = 0.01730103
#
# Stress axis : x y z
#
# Youngs Moduli (GPa) = 105.89638 57.76185 90.16586
#
# Poissons Ratio (x) = 0.28621 0.20189
# Poissons Ratio (y) = 0.52472 0.27758
# Poissons Ratio (z) = 0.23711 0.17782
#
# Static dielectric constant tensor:
#      x y z
#    x 2.156020 0.000000 0.000000 
#    y 0.000000 2.191480 0.000000 
#    z 0.000000 0.000000 2.151160 
# 
# From -- ./inp_files/31878.got.cif
#   From: 2010.05.17/outbox.cif.g08.bks.cpg/sg52_16_cif.got.tgz:31878.got - 2010.06.03 12:15:38.
