data_PCOD9410528
_publ_section_title
;
Structure prediction by ZEFSAII (Michael W. Deem and Ramdas Pophale) SiO2 
 PCOD9410528
Probable space group: P N N A
;
_chemical_formula_sum "Si O2"
_cell_formula_units_Z 56
_cell_length_a 22.028827
_cell_length_b 10.673779
_cell_length_c 11.478462
_cell_angle_alpha 90.000000
_cell_angle_beta 90.000000
_cell_angle_gamma 90.000000
_cell_volume 2698.940309
_symmetry_space_group_name_H-M "P N N A"
_symmetry_group_IT_number 52
_symmetry_cell_setting 'orthorhombic'
loop_
_space_group_symop_operation_xyz
x,y,z
1/2-x,-y,z
x,1/2-y,1/2-z
1/2-x,1/2+y,1/2-z
-x,-y,-z
1/2+x,y,-z
-x,1/2+y,1/2+z
1/2+x,1/2-y,1/2+z
loop_
_atom_site_type_symbol
_atom_site_label
_atom_site_fract_x
_atom_site_fract_y
_atom_site_fract_z
Si Si1 0.412857 0.213075 0.591940
Si Si2 0.255850 0.639147 0.330558
Si Si3 0.615566 0.645814 0.623080
Si Si4 0.976678 0.058084 0.687336
Si Si5 0.044250 0.171061 0.466632
Si Si6 0.399739 0.033280 0.778302
Si Si7 0.361507 0.608778 0.510681
O O1 0.402121 0.238164 0.457643
O O2 0.485587 0.221340 0.603572
O O3 0.388965 0.082772 0.645652
O O4 0.387763 0.335747 0.655621
O O5 0.250000 0.500000 0.275303
O O6 0.281649 0.750000 0.250000
O O7 0.186140 0.668326 0.355136
O O8 0.296627 0.627202 0.447365
O O9 0.572431 0.624024 0.732120
O O10 0.610700 0.514137 0.552532
O O11 0.017916 0.133297 0.593575
O O12 0.942675 0.952836 0.609193
O O13 0.029245 0.004649 0.774372
O O14 0.096759 0.271581 0.483065
O O15 0.363940 0.927979 0.851726
#
# Coordination Sequence:
#
# PCOD9410528 Si02
#       7
#     8   8   8   8   8   8   8
#     4   9  18  33  55  84 113 156 204 249 314 381
#     4  10  24  42  63  94 123 169 221 272 331 399
#     4  10  21  36  61  88 125 167 214 271 325 393
#     4  10  21  34  54  91 127 162 203 260 337 393
#     4  10  21  33  54  88 126 165 203 258 327 406
#     4   9  18  35  54  81 118 154 200 251 309 385
#     4  10  21  37  59  83 121 169 213 262 322 396
#
# _framework density 20.748884
#
# number of rings (size 3 to 8) (size 9 to 14) (size 15 to 20)
#    0.000    2.286    0.000    1.714    6.000    5.143 
#    0.000    0.000    0.000   15.429    0.000    0.000 
#    0.000    0.000    0.000    0.000    0.000    0.000 
#
# Total GULP energy -311828.907592 kJ/mol
# GULP energy per Si atom -5568.373350 kJ/mol
# Density = 2.070166 g / cm^3
# Si number density = 20.748884 Si / 1000 Ang^3
#
#
#
# Elastic Constant Matrix: (Units=GPa)
#
#
# Indices 1 2 3 4 5 6 
#
# 1 69.8570 52.9726 53.7710 0.0000 0.0000 0.0000
# 2 52.9726 102.5197 55.6008 0.0000 0.0000 0.0000
# 3 53.7710 55.6008 134.2663 0.0000 0.0000 0.0000
# 4 0.0000 0.0000 0.0000 27.5438 0.0000 0.0000
# 5 0.0000 0.0000 0.0000 0.0000 27.4557 0.0000
# 6 0.0000 0.0000 0.0000 0.0000 0.0000 22.2638
#
#
#
# Elastic Compliance Matrix: (Units=1/GPa)
#
#
# Indices 1 2 3 4 5 6 
#
# 1 0.027425 -0.010593 -0.006597 0.000000 0.000000 0.000000
# 2 -0.010593 0.016671 -0.002661 0.000000 0.000000 0.000000
# 3 -0.006597 -0.002661 0.011192 0.000000 0.000000 0.000000
# 4 0.000000 0.000000 0.000000 0.036306 0.000000 0.000000
# 5 0.000000 0.000000 0.000000 0.000000 0.036422 0.000000
# 6 0.000000 0.000000 0.000000 0.000000 0.000000 0.044916
#
#
# Mechanical properties :
#
#
# Convention : Reuss Voigt Hill
#
# Bulk Modulus (GPa) = 64.15987 70.14798 67.15392
# Shear Modulus (GPa) = 22.95368 25.07258 24.01313
#
# Velocity S-wave (km/s) = 3.32966 3.47995 3.40563
# Velocity P-wave (km/s) = 6.76545 7.07306 6.92097
#
# Compressibility (1/GPa) = 0.01558607
#
# Stress axis : x y z
#
# Youngs Moduli (GPa) = 36.46249 59.98375 89.35178
#
# Poissons Ratio (x) = 0.63543 0.58941
# Poissons Ratio (y) = 0.38626 0.23779
# Poissons Ratio (z) = 0.24053 0.15963
#
# Static dielectric constant tensor:
#      x y z
#    x 1.725770 0.000000 0.000000 
#    y 0.000000 1.864810 0.000000 
#    z 0.000000 0.000000 1.853600 
# 
# From -- ./inp_files/21686.got.cif
#   From: 2010.05.17/outbox.cif.g08.bks.cpg/sg52_11_cif.got.tgz:21686.got - 2010.06.03 12:15:38.
