data_PCOD9410147
_publ_section_title
;
Structure prediction by ZEFSAII (Michael W. Deem and Ramdas Pophale) SiO2 
 PCOD9410147
Probable space group: P N N A
;
_chemical_formula_sum "Si O2"
_cell_formula_units_Z 36
_cell_length_a 8.271683
_cell_length_b 10.619812
_cell_length_c 14.618932
_cell_angle_alpha 90.000000
_cell_angle_beta 90.000000
_cell_angle_gamma 90.000000
_cell_volume 1284.181346
_symmetry_space_group_name_H-M "P N N A"
_symmetry_group_IT_number 52
_symmetry_cell_setting 'orthorhombic'
loop_
_space_group_symop_operation_xyz
x,y,z
1/2-x,-y,z
x,1/2-y,1/2-z
1/2-x,1/2+y,1/2-z
-x,-y,-z
1/2+x,y,-z
-x,1/2+y,1/2+z
1/2+x,1/2-y,1/2+z
loop_
_atom_site_type_symbol
_atom_site_label
_atom_site_fract_x
_atom_site_fract_y
_atom_site_fract_z
Si Si1 0.166654 0.777032 0.407211
Si Si2 0.250000 0.000000 0.541417
Si Si3 0.750000 0.000000 0.143175
Si Si4 0.988863 0.537045 0.205455
Si Si5 0.504216 0.339958 0.564488
Si Si6 0.985602 0.250000 0.250000
O O1 0.237117 0.882688 0.474576
O O2 0.113803 0.852639 0.317324
O O3 0.021760 0.717309 0.465087
O O4 0.311409 0.675729 0.403008
O O5 0.098533 0.016218 0.608368
O O6 0.856171 0.922260 0.218991
O O7 0.893717 0.038212 0.074574
O O8 0.046655 0.397305 0.237413
O O9 0.411504 0.264406 0.648287
#
# Coordination Sequence:
#
# PCOD9410147 Si02
#       6
#     8   4   4   8   8   4
#     4  12  22  39  70 112 145 194 266 346 390 483
#     4  11  18  34  62 110 141 186 250 333 390 464
#     4   9  24  46  68 104 159 226 250 329 420 504
#     4  10  20  38  68 104 151 203 257 327 412 483
#     4  11  24  41  70 103 153 203 268 323 413 482
#     4  10  20  40  60 100 150 204 242 310 408 492
#
# _framework density 28.033422999999999
#
# number of rings (size 3 to 8) (size 9 to 14) (size 15 to 20)
#    0.000    1.333    4.444    2.000    0.000    0.889 
#    0.000    2.222    0.000    2.667    0.000    0.000 
#    0.000    8.889    0.000    0.000    0.000    0.000 
#
# Total GULP energy -200746.017245 kJ/mol
# GULP energy per Si atom -5576.278257 kJ/mol
# Density = 2.796962 g / cm^3
# Si number density = 28.033423 Si / 1000 Ang^3
#
#
#
# Elastic Constant Matrix: (Units=GPa)
#
#
# Indices 1 2 3 4 5 6 
#
# 1 141.8280 57.1048 45.1973 0.0000 0.0000 0.0000
# 2 57.1048 123.4417 62.7474 0.0000 0.0000 0.0000
# 3 45.1973 62.7474 115.9200 0.0000 0.0000 0.0000
# 4 0.0000 0.0000 0.0000 49.4233 0.0000 0.0000
# 5 0.0000 0.0000 0.0000 0.0000 45.9630 0.0000
# 6 0.0000 0.0000 0.0000 0.0000 0.0000 29.7624
#
#
#
# Elastic Compliance Matrix: (Units=1/GPa)
#
#
# Indices 1 2 3 4 5 6 
#
# 1 0.008905 -0.003248 -0.001714 0.000000 0.000000 0.000000
# 2 -0.003248 0.012361 -0.005425 0.000000 0.000000 0.000000
# 3 -0.001714 -0.005425 0.012231 0.000000 0.000000 0.000000
# 4 0.000000 0.000000 0.000000 0.020233 0.000000 0.000000
# 5 0.000000 0.000000 0.000000 0.000000 0.021757 0.000000
# 6 0.000000 0.000000 0.000000 0.000000 0.000000 0.033599
#
#
# Mechanical properties :
#
#
# Convention : Reuss Voigt Hill
#
# Bulk Modulus (GPa) = 78.59207 79.03207 78.81207
# Shear Modulus (GPa) = 37.28543 39.43909 38.36226
#
# Velocity S-wave (km/s) = 3.65092 3.75488 3.70327
# Velocity P-wave (km/s) = 6.77261 6.85946 6.81617
#
# Compressibility (1/GPa) = 0.01272393
#
# Stress axis : x y z
#
# Youngs Moduli (GPa) = 112.29921 80.89935 81.75890
#
# Poissons Ratio (x) = 0.26279 0.14011
# Poissons Ratio (y) = 0.36478 0.44350
# Poissons Ratio (z) = 0.19244 0.43884
#
# Static dielectric constant tensor:
#      x y z
#    x 2.354950 0.000000 0.000000 
#    y 0.000000 2.543510 0.000000 
#    z 0.000000 0.000000 2.117940 
# 
# From -- ./inp_files/17951.got.cif
#   From: 2010.05.17/outbox.cif.g08.bks.cpg/sg52_9_cif.got.tgz:17951.got - 2010.06.03 12:15:38.
