data_PCOD9410853
_publ_section_title
;
Structure prediction by ZEFSAII (Michael W. Deem and Ramdas Pophale) SiO2 
 PCOD9410853
Probable space group: P N N A
;
_chemical_formula_sum "Si O2"
_cell_formula_units_Z 40
_cell_length_a 9.121041
_cell_length_b 10.659897
_cell_length_c 21.031381
_cell_angle_alpha 90.000000
_cell_angle_beta 90.000000
_cell_angle_gamma 90.000000
_cell_volume 2044.867664
_symmetry_space_group_name_H-M "P N N A"
_symmetry_group_IT_number 52
_symmetry_cell_setting 'orthorhombic'
loop_
_space_group_symop_operation_xyz
x,y,z
1/2-x,-y,z
x,1/2-y,1/2-z
1/2-x,1/2+y,1/2-z
-x,-y,-z
1/2+x,y,-z
-x,1/2+y,1/2+z
1/2+x,1/2-y,1/2+z
loop_
_atom_site_type_symbol
_atom_site_label
_atom_site_fract_x
_atom_site_fract_y
_atom_site_fract_z
Si Si1 0.439439 0.868490 0.970916
Si Si2 0.537029 0.750000 0.250000
Si Si3 0.524073 0.750000 0.750000
Si Si4 0.245819 0.652866 0.413029
Si Si5 0.721580 0.141976 0.160490
Si Si6 0.720419 0.129802 0.686223
O O1 0.585503 0.813542 0.940027
O O2 0.317982 0.868030 0.914450
O O3 0.362274 0.812666 0.032441
O O4 0.500000 0.000000 0.000000
O O5 0.639634 0.783857 0.189562
O O6 0.427533 0.860083 0.272673
O O7 0.419213 0.797321 0.805818
O O8 0.635526 0.858570 0.729806
O O9 0.250000 0.500000 0.400770
O O10 0.278658 0.743092 0.354718
O O11 0.750000 0.000000 0.182313
O O12 0.750000 0.000000 0.649887
#
# Coordination Sequence:
#
# PCOD9410853 Si02
#       6
#     8   4   4   8   8   8
#     4  10  21  38  63  97 121 160 213 273 328 368
#     4  10  26  36  62  92 124 176 208 264 318 392
#     4  10  22  40  60  86 124 174 206 258 320 388
#     4  10  22  38  66  92 122 160 214 274 320 374
#     4  11  21  38  63  91 126 157 215 271 323 381
#     4  11  23  42  62  91 129 168 216 253 320 394
#
# _framework density 19.561169
#
# number of rings (size 3 to 8) (size 9 to 14) (size 15 to 20)
#    0.000    1.600    2.000    3.000    8.400    3.200 
#    0.000    1.000    0.000    0.000    0.000    0.000 
#    0.000    0.000    0.000    0.000    0.000    0.000 
#
# Total GULP energy -222708.244454 kJ/mol
# GULP energy per Si atom -5567.706111 kJ/mol
# Density = 1.951665 g / cm^3
# Si number density = 19.561169 Si / 1000 Ang^3
#
#
#
# Elastic Constant Matrix: (Units=GPa)
#
#
# Indices 1 2 3 4 5 6 
#
# 1 123.5722 28.7610 35.5276 0.0000 0.0000 0.0000
# 2 28.7610 66.5490 31.3825 0.0000 0.0000 0.0000
# 3 35.5276 31.3825 101.9228 0.0000 0.0000 0.0000
# 4 0.0000 0.0000 0.0000 18.0047 0.0000 0.0000
# 5 0.0000 0.0000 0.0000 0.0000 29.1510 0.0000
# 6 0.0000 0.0000 0.0000 0.0000 0.0000 -2.9185
#
#
#
# Elastic Compliance Matrix: (Units=1/GPa)
#
#
# Indices 1 2 3 4 5 6 
#
# 1 0.009469 -0.002967 -0.002387 0.000000 0.000000 0.000000
# 2 -0.002967 0.018508 -0.004665 0.000000 0.000000 0.000000
# 3 -0.002387 -0.004665 0.012080 0.000000 0.000000 0.000000
# 4 0.000000 0.000000 0.000000 0.055541 0.000000 0.000000
# 5 0.000000 0.000000 0.000000 0.000000 0.034304 0.000000
# 6 0.000000 0.000000 0.000000 0.000000 0.000000 -0.342641
#
#
# Mechanical properties :
#
#
# Convention : Reuss Voigt Hill
#
# Bulk Modulus (GPa) = 49.94973 53.70958 51.82965
# Shear Modulus (GPa) = -26.87766 21.93897 -2.46934
#
# Velocity S-wave (km/s) = -3.71081 3.35260 -1.12477
# Velocity P-wave (km/s) = 2.68894 6.51946 4.98667
#
# Compressibility (1/GPa) = 0.02002013
#
# Stress axis : x y z
#
# Youngs Moduli (GPa) = 105.60483 54.02957 82.78289
#
# Poissons Ratio (x) = 0.16029 0.19763
# Poissons Ratio (y) = 0.31329 0.38616
# Poissons Ratio (z) = 0.25211 0.25203
#
# Static dielectric constant tensor:
#      x y z
#    x 1.721620 0.000000 0.000000 
#    y 0.000000 1.713640 0.000000 
#    z 0.000000 0.000000 1.752770 
# 
# From -- ./inp_files/35794.got.cif
#   From: 2010.05.17/outbox.cif.g08.bks.cpg/sg52_18_cif.got.tgz:35794.got - 2010.06.03 12:15:38.
