data_PCOD9410644
_publ_section_title
;
Structure prediction by ZEFSAII (Michael W. Deem and Ramdas Pophale) SiO2 
 PCOD9410644
Probable space group: P N N A
;
_chemical_formula_sum "Si O2"
_cell_formula_units_Z 48
_cell_length_a 19.231657
_cell_length_b 8.239552
_cell_length_c 16.047310
_cell_angle_alpha 90.000000
_cell_angle_beta 90.000000
_cell_angle_gamma 90.000000
_cell_volume 2542.860560
_symmetry_space_group_name_H-M "P N N A"
_symmetry_group_IT_number 52
_symmetry_cell_setting 'orthorhombic'
loop_
_space_group_symop_operation_xyz
x,y,z
1/2-x,-y,z
x,1/2-y,1/2-z
1/2-x,1/2+y,1/2-z
-x,-y,-z
1/2+x,y,-z
-x,1/2+y,1/2+z
1/2+x,1/2-y,1/2+z
loop_
_atom_site_type_symbol
_atom_site_label
_atom_site_fract_x
_atom_site_fract_y
_atom_site_fract_z
Si Si1 0.313942 0.377339 0.067559
Si Si2 0.967504 0.934645 0.085284
Si Si3 0.973016 0.069814 0.586328
Si Si4 0.680695 0.922843 0.825020
Si Si5 0.173770 0.952349 0.984154
Si Si6 0.956331 0.934936 0.757385
O O1 0.250000 0.500000 0.055209
O O2 0.389577 0.452242 0.081148
O O3 0.302542 0.260748 0.147776
O O4 0.326272 0.243854 0.993728
O O5 0.998753 0.753731 0.094574
O O6 0.993795 0.036091 0.164191
O O7 0.885773 0.963486 0.069616
O O8 0.000000 0.000000 0.000000
O O9 0.000000 0.000000 0.500000
O O10 0.993563 0.981624 0.671502
O O11 0.610987 0.952915 0.774439
O O12 0.750000 0.000000 0.788632
O O13 0.667228 0.004527 0.917523
O O14 0.250000 0.000000 0.955159
O O15 0.932483 0.750000 0.750000
#
# Coordination Sequence:
#
# PCOD9410644 Si02
#       6
#     8   8   8   8   8   8
#     4  10  21  36  63  92 136 164 217 253 327 402
#     4  12  20  43  66  89 132 170 218 278 325 397
#     4  12  27  39  64  94 129 176 223 271 338 393
#     4   9  20  39  58  89 132 169 205 248 329 396
#     4   9  20  37  65  90 126 170 210 255 336 384
#     4  12  26  40  63  93 130 173 225 274 337 397
#
# _framework density 18.876379
#
# number of rings (size 3 to 8) (size 9 to 14) (size 15 to 20)
#    1.000    0.333    5.000    1.500    4.667    0.667 
#    0.000    0.000    0.000    3.000    0.000    0.000 
#    0.000    0.000    0.000    0.000    0.000    0.000 
#
# Total GULP energy -267601.805882 kJ/mol
# GULP energy per Si atom -5575.037623 kJ/mol
# Density = 1.883342 g / cm^3
# Si number density = 18.876379 Si / 1000 Ang^3
#
#
#
# Elastic Constant Matrix: (Units=GPa)
#
#
# Indices 1 2 3 4 5 6 
#
# 1 118.0741 12.3693 37.7985 0.0000 0.0000 0.0000
# 2 12.3693 68.5689 20.0254 0.0000 0.0000 0.0000
# 3 37.7985 20.0254 97.4618 0.0000 0.0000 0.0000
# 4 0.0000 0.0000 0.0000 28.8418 0.0000 0.0000
# 5 0.0000 0.0000 0.0000 0.0000 1.7935 0.0000
# 6 0.0000 0.0000 0.0000 0.0000 0.0000 34.4365
#
#
#
# Elastic Compliance Matrix: (Units=1/GPa)
#
#
# Indices 1 2 3 4 5 6 
#
# 1 0.009701 -0.000693 -0.003620 0.000000 0.000000 0.000000
# 2 -0.000693 0.015564 -0.002929 0.000000 0.000000 0.000000
# 3 -0.003620 -0.002929 0.012266 0.000000 0.000000 0.000000
# 4 0.000000 0.000000 0.000000 0.034672 0.000000 0.000000
# 5 0.000000 0.000000 0.000000 0.000000 0.557570 0.000000
# 6 0.000000 0.000000 0.000000 0.000000 0.000000 0.029039
#
#
# Mechanical properties :
#
#
# Convention : Reuss Voigt Hill
#
# Bulk Modulus (GPa) = 43.38895 47.16566 45.27731
# Shear Modulus (GPa) = 7.34238 27.27514 17.30876
#
# Velocity S-wave (km/s) = 1.97438 3.80535 3.03141
# Velocity P-wave (km/s) = 5.31350 6.65946 6.02419
#
# Compressibility (1/GPa) = 0.02304734
#
# Stress axis : x y z
#
# Youngs Moduli (GPa) = 103.08607 64.24944 81.52492
#
# Poissons Ratio (x) = 0.04451 0.29511
# Poissons Ratio (y) = 0.07141 0.23881
# Poissons Ratio (z) = 0.37316 0.18821
#
# Static dielectric constant tensor:
#      x y z
#    x 1.673930 0.000000 0.000000 
#    y 0.000000 1.771800 0.000000 
#    z 0.000000 0.000000 1.698320 
# 
# From -- ./inp_files/28053.got.cif
#   From: 2010.05.17/outbox.cif.g08.bks.cpg/sg52_15_cif.got.tgz:28053.got - 2010.06.03 12:15:38.
