data_PCOD9410565
_publ_section_title
;
Structure prediction by ZEFSAII (Michael W. Deem and Ramdas Pophale) SiO2 
 PCOD9410565
Probable space group: P N N A
;
_chemical_formula_sum "Si O2"
_cell_formula_units_Z 48
_cell_length_a 15.376046
_cell_length_b 5.880196
_cell_length_c 26.198860
_cell_angle_alpha 90.000000
_cell_angle_beta 90.000000
_cell_angle_gamma 90.000000
_cell_volume 2368.748030
_symmetry_space_group_name_H-M "P N N A"
_symmetry_group_IT_number 52
_symmetry_cell_setting 'orthorhombic'
loop_
_space_group_symop_operation_xyz
x,y,z
1/2-x,-y,z
x,1/2-y,1/2-z
1/2-x,1/2+y,1/2-z
-x,-y,-z
1/2+x,y,-z
-x,1/2+y,1/2+z
1/2+x,1/2-y,1/2+z
loop_
_atom_site_type_symbol
_atom_site_label
_atom_site_fract_x
_atom_site_fract_y
_atom_site_fract_z
Si Si1 0.908467 0.706964 0.621382
Si Si2 0.661174 0.367268 0.441806
Si Si3 0.604695 0.812080 0.807287
Si Si4 0.481918 0.606259 0.894460
Si Si5 0.250000 0.500000 0.012177
Si Si6 0.250000 0.000000 0.348974
Si Si7 0.896533 0.338116 0.532781
O O1 0.898673 0.574082 0.675045
O O2 0.827244 0.877854 0.620468
O O3 0.896125 0.533583 0.575225
O O4 0.999619 0.838922 0.613199
O O5 0.750000 0.500000 0.427363
O O6 0.607724 0.244106 0.397109
O O7 0.687145 0.154782 0.477546
O O8 0.606663 0.545146 0.477234
O O9 0.580088 0.750000 0.750000
O O10 0.537448 0.704443 0.847552
O O11 0.698148 0.693643 0.817562
O O12 0.525903 0.674953 0.948840
O O13 0.190262 0.689308 0.038131
#
# Coordination Sequence:
#
# PCOD9410565 Si02
#       7
#     8   8   8   8   4   4   8
#     4  10  22  35  52  81 117 157 195 237 285 344
#     4  10  22  38  56  81 112 149 194 242 296 353
#     4  10  23  38  57  81 110 153 194 239 289 350
#     4  10  22  38  56  81 112 150 193 242 295 348
#     4  10  22  33  52  80 110 154 198 232 277 338
#     4  10  22  33  54  80 116 152 190 228 279 334
#     4  10  21  35  54  80 118 154 197 234 285 343
#
# _framework density 20.263870000000001
#
# number of rings (size 3 to 8) (size 9 to 14) (size 15 to 20)
#    0.000    2.000    0.000    2.000    2.333   30.000 
#    0.000    0.000    0.000    0.000    2.167    0.000 
#    0.000    0.000    0.000    0.000    0.000    0.000 
#
# Total GULP energy -267750.998862 kJ/mol
# GULP energy per Si atom -5578.145810 kJ/mol
# Density = 2.021775 g / cm^3
# Si number density = 20.263870 Si / 1000 Ang^3
#
#
#
# Elastic Constant Matrix: (Units=GPa)
#
#
# Indices 1 2 3 4 5 6 
#
# 1 71.9272 31.7085 45.0883 0.0000 0.0000 0.0000
# 2 31.7085 112.4947 42.3085 0.0000 0.0000 0.0000
# 3 45.0883 42.3085 80.2999 0.0000 0.0000 0.0000
# 4 0.0000 0.0000 0.0000 20.3931 0.0000 0.0000
# 5 0.0000 0.0000 0.0000 0.0000 23.0774 0.0000
# 6 0.0000 0.0000 0.0000 0.0000 0.0000 39.3382
#
#
#
# Elastic Compliance Matrix: (Units=1/GPa)
#
#
# Indices 1 2 3 4 5 6 
#
# 1 0.021782 -0.001920 -0.011219 0.000000 0.000000 0.000000
# 2 -0.001920 0.011255 -0.004852 0.000000 0.000000 0.000000
# 3 -0.011219 -0.004852 0.021309 0.000000 0.000000 0.000000
# 4 0.000000 0.000000 0.000000 0.049036 0.000000 0.000000
# 5 0.000000 0.000000 0.000000 0.000000 0.043332 0.000000
# 6 0.000000 0.000000 0.000000 0.000000 0.000000 0.025421
#
#
# Mechanical properties :
#
#
# Convention : Reuss Voigt Hill
#
# Bulk Modulus (GPa) = 54.45348 55.88137 55.16743
# Shear Modulus (GPa) = 23.33835 26.26953 24.80394
#
# Velocity S-wave (km/s) = 3.39739 3.60442 3.50243
# Velocity P-wave (km/s) = 6.50540 6.70516 6.60603
#
# Compressibility (1/GPa) = 0.01836430
#
# Stress axis : x y z
#
# Youngs Moduli (GPa) = 45.90907 88.84639 46.92823
#
# Poissons Ratio (x) = 0.17061 0.52648
# Poissons Ratio (y) = 0.08816 0.22770
# Poissons Ratio (z) = 0.51505 0.43108
#
# Static dielectric constant tensor:
#      x y z
#    x 1.778210 0.000000 0.000000 
#    y 0.000000 1.844040 0.000000 
#    z 0.000000 0.000000 1.738100 
# 
# From -- ./inp_files/43015.got.cif
#   From: 2010.05.17/outbox.cif.g08.bks.cpg/sg52_22_cif.got.tgz:43015.got - 2010.06.03 12:15:38.
