data_PCOD9410380
_publ_section_title
;
Structure prediction by ZEFSAII (Michael W. Deem and Ramdas Pophale) SiO2 
 PCOD9410380
Probable space group: P N N A
;
_chemical_formula_sum "Si O2"
_cell_formula_units_Z 64
_cell_length_a 14.765879
_cell_length_b 17.075947
_cell_length_c 12.897600
_cell_angle_alpha 90.000000
_cell_angle_beta 90.000000
_cell_angle_gamma 90.000000
_cell_volume 3252.018498
_symmetry_space_group_name_H-M "P N N A"
_symmetry_group_IT_number 52
_symmetry_cell_setting 'orthorhombic'
loop_
_space_group_symop_operation_xyz
x,y,z
1/2-x,-y,z
x,1/2-y,1/2-z
1/2-x,1/2+y,1/2-z
-x,-y,-z
1/2+x,y,-z
-x,1/2+y,1/2+z
1/2+x,1/2-y,1/2+z
loop_
_atom_site_type_symbol
_atom_site_label
_atom_site_fract_x
_atom_site_fract_y
_atom_site_fract_z
Si Si1 0.274963 0.411450 0.616743
Si Si2 0.822501 0.835247 0.296891
Si Si3 0.478894 0.155372 0.229696
Si Si4 0.578544 0.209477 0.860902
Si Si5 0.701366 0.914701 0.701519
Si Si6 0.743694 0.296818 0.973664
Si Si7 0.202932 0.087093 0.097343
Si Si8 0.415189 0.180357 0.999943
O O1 0.250000 0.500000 0.635456
O O2 0.255550 0.370624 0.724761
O O3 0.208745 0.386210 0.521992
O O4 0.371069 0.390629 0.566126
O O5 0.834236 0.750000 0.250000
O O6 0.792146 0.827041 0.415298
O O7 0.921850 0.870052 0.270777
O O8 0.464585 0.250000 0.250000
O O9 0.405650 0.099326 0.285710
O O10 0.460717 0.150495 0.106146
O O11 0.567551 0.250000 0.750000
O O12 0.604780 0.116063 0.863167
O O13 0.490634 0.220568 0.930155
O O14 0.662900 0.251217 0.916545
O O15 0.731786 0.868024 0.601347
O O16 0.737014 0.876664 0.809782
O O17 0.750000 0.000000 0.697614
O O18 0.832675 0.241637 0.983160
O O19 0.250000 0.000000 0.091111
#
# Coordination Sequence:
#
# PCOD9410380 Si02
#       8
#     8   8   8   8   8   8   8   8
#     4  11  23  42  64  96 135 173 214 267 337 396
#     4  11  23  42  66  92 133 174 223 271 329 398
#     4  11  21  39  69  98 123 171 233 272 322 408
#     4  12  24  41  67 104 133 171 228 287 333 392
#     4  11  23  41  67  98 130 177 226 275 334 392
#     4  12  24  43  70  94 134 179 219 276 326 404
#     4  10  20  41  65  92 134 169 215 275 336 392
#     4  12  24  39  69 100 130 171 223 277 342 394
#
# _framework density 19.680083
#
# number of rings (size 3 to 8) (size 9 to 14) (size 15 to 20)
#    0.000    0.750    6.250    2.250    1.750    0.500 
#    4.500    2.500    0.000    0.000    0.000    0.000 
#    0.000    0.000    0.000    0.000    0.000    0.000 
#
# Total GULP energy -356292.513976 kJ/mol
# GULP energy per Si atom -5567.070531 kJ/mol
# Density = 1.963529 g / cm^3
# Si number density = 19.680083 Si / 1000 Ang^3
#
#
#
# Elastic Constant Matrix: (Units=GPa)
#
#
# Indices 1 2 3 4 5 6 
#
# 1 87.2245 15.4071 50.1020 0.0000 0.0000 0.0000
# 2 15.4071 53.9346 29.5216 0.0000 0.0000 0.0000
# 3 50.1020 29.5216 159.4540 0.0000 0.0000 0.0000
# 4 0.0000 0.0000 0.0000 18.3484 0.0000 0.0000
# 5 0.0000 0.0000 0.0000 0.0000 42.4624 0.0000
# 6 0.0000 0.0000 0.0000 0.0000 0.0000 17.3178
#
#
#
# Elastic Compliance Matrix: (Units=1/GPa)
#
#
# Indices 1 2 3 4 5 6 
#
# 1 0.014143 -0.001789 -0.004113 0.000000 0.000000 0.000000
# 2 -0.001789 0.020858 -0.003300 0.000000 0.000000 0.000000
# 3 -0.004113 -0.003300 0.008175 0.000000 0.000000 0.000000
# 4 0.000000 0.000000 0.000000 0.054501 0.000000 0.000000
# 5 0.000000 0.000000 0.000000 0.000000 0.023550 0.000000
# 6 0.000000 0.000000 0.000000 0.000000 0.000000 0.057744
#
#
# Mechanical properties :
#
#
# Convention : Reuss Voigt Hill
#
# Bulk Modulus (GPa) = 40.36636 54.51939 47.44287
# Shear Modulus (GPa) = 24.31541 29.33121 26.82331
#
# Velocity S-wave (km/s) = 3.51883 3.86476 3.69584
# Velocity P-wave (km/s) = 6.08813 6.90493 6.50936
#
# Compressibility (1/GPa) = 0.02477310
#
# Stress axis : x y z
#
# Youngs Moduli (GPa) = 70.70644 47.94305 122.33138
#
# Poissons Ratio (x) = 0.08577 0.50310
# Poissons Ratio (y) = 0.12650 0.40364
# Poissons Ratio (z) = 0.29079 0.15819
#
# Static dielectric constant tensor:
#      x y z
#    x 1.785220 0.000000 0.000000 
#    y 0.000000 1.781370 0.000000 
#    z 0.000000 0.000000 1.827730 
# 
# From -- ./inp_files/19877.got.cif
#   From: 2010.05.17/outbox.cif.g08.bks.cpg/sg52_10_cif.got.tgz:19877.got - 2010.06.03 12:15:38.
