data_PCOD9410119
_publ_section_title
;
Structure prediction by ZEFSAII (Michael W. Deem and Ramdas Pophale) SiO2 
 PCOD9410119
Probable space group: P N N A
;
_chemical_formula_sum "Si O2"
_cell_formula_units_Z 32
_cell_length_a 9.128241
_cell_length_b 15.675140
_cell_length_c 10.199257
_cell_angle_alpha 90.000000
_cell_angle_beta 90.000000
_cell_angle_gamma 90.000000
_cell_volume 1459.375534
_symmetry_space_group_name_H-M "P N N A"
_symmetry_group_IT_number 52
_symmetry_cell_setting 'orthorhombic'
loop_
_space_group_symop_operation_xyz
x,y,z
1/2-x,-y,z
x,1/2-y,1/2-z
1/2-x,1/2+y,1/2-z
-x,-y,-z
1/2+x,y,-z
-x,1/2+y,1/2+z
1/2+x,1/2-y,1/2+z
loop_
_atom_site_type_symbol
_atom_site_label
_atom_site_fract_x
_atom_site_fract_y
_atom_site_fract_z
Si Si1 0.055789 0.677726 0.861523
Si Si2 0.130618 0.265463 0.891658
Si Si3 0.362230 0.922670 0.924075
Si Si4 0.916971 0.522088 0.716287
O O1 0.028241 0.750000 0.750000
O O2 0.990042 0.587767 0.815353
O O3 0.230728 0.672340 0.879864
O O4 0.978808 0.707471 0.995260
O O5 0.058671 0.250000 0.750000
O O6 0.200584 0.171924 0.920075
O O7 0.250000 0.000000 0.902409
O O8 0.488369 0.937931 0.816193
O O9 0.418319 0.933552 0.072531
O O10 0.750000 0.500000 0.750263
#
# Coordination Sequence:
#
# PCOD9410119 Si02
#       4
#     8   8   8   8
#     4  11  23  44  64  98 135 173 226 280 331 397
#     4  11  25  40  65  96 133 174 221 276 333 396
#     4  10  20  38  65  99 129 171 223 274 335 399
#     4  10  22  39  68  96 132 174 222 276 335 402
#
# _framework density 21.927188000000001
#
# number of rings (size 3 to 8) (size 9 to 14) (size 15 to 20)
#    0.000    1.500    2.500    3.000    7.000    3.000 
#    0.000    6.250    0.000    0.000    0.000    0.000 
#    0.000    0.000    0.000    0.000    0.000    0.000 
#
# Total GULP energy -178799.564682 kJ/mol
# GULP energy per Si atom -5587.486396 kJ/mol
# Density = 2.187728 g / cm^3
# Si number density = 21.927188 Si / 1000 Ang^3
#
#
#
# Elastic Constant Matrix: (Units=GPa)
#
#
# Indices 1 2 3 4 5 6 
#
# 1 85.8836 4.2777 36.4118 0.0000 0.0000 0.0000
# 2 4.2777 58.3406 5.8277 0.0000 0.0000 0.0000
# 3 36.4118 5.8277 130.9648 0.0000 0.0000 0.0000
# 4 0.0000 0.0000 0.0000 20.7432 0.0000 0.0000
# 5 0.0000 0.0000 0.0000 0.0000 31.7287 0.0000
# 6 0.0000 0.0000 0.0000 0.0000 0.0000 36.3080
#
#
#
# Elastic Compliance Matrix: (Units=1/GPa)
#
#
# Indices 1 2 3 4 5 6 
#
# 1 0.013221 -0.000605 -0.003649 0.000000 0.000000 0.000000
# 2 -0.000605 0.017245 -0.000599 0.000000 0.000000 0.000000
# 3 -0.003649 -0.000599 0.008677 0.000000 0.000000 0.000000
# 4 0.000000 0.000000 0.000000 0.048209 0.000000 0.000000
# 5 0.000000 0.000000 0.000000 0.000000 0.031517 0.000000
# 6 0.000000 0.000000 0.000000 0.000000 0.000000 0.027542
#
#
# Mechanical properties :
#
#
# Convention : Reuss Voigt Hill
#
# Bulk Modulus (GPa) = 33.97126 40.91372 37.44249
# Shear Modulus (GPa) = 30.13347 33.00077 31.56712
#
# Velocity S-wave (km/s) = 3.71111 3.88366 3.79837
# Velocity P-wave (km/s) = 5.82147 6.22976 6.02907
#
# Compressibility (1/GPa) = 0.02943664
#
# Stress axis : x y z
#
# Youngs Moduli (GPa) = 75.63859 57.98809 115.25027
#
# Poissons Ratio (x) = 0.03508 0.42053
# Poissons Ratio (y) = 0.04575 0.06906
# Poissons Ratio (z) = 0.27599 0.03475
#
# Static dielectric constant tensor:
#      x y z
#    x 1.836040 0.000000 0.000000 
#    y 0.000000 1.851520 0.000000 
#    z 0.000000 0.000000 1.806270 
# 
# From -- ./inp_files/16491.got.cif
#   From: 2010.05.17/outbox.cif.g08.bks.cpg/sg52_9_cif.got.tgz:16491.got - 2010.06.03 12:15:38.
