data_PCOD9410253
_publ_section_title
;
Structure prediction by ZEFSAII (Michael W. Deem and Ramdas Pophale) SiO2 
 PCOD9410253
Probable space group: P N N A
;
_chemical_formula_sum "Si O2"
_cell_formula_units_Z 48
_cell_length_a 9.302088
_cell_length_b 24.703339
_cell_length_c 9.282505
_cell_angle_alpha 90.000000
_cell_angle_beta 90.000000
_cell_angle_gamma 90.000000
_cell_volume 2133.051267
_symmetry_space_group_name_H-M "P N N A"
_symmetry_group_IT_number 52
_symmetry_cell_setting 'orthorhombic'
loop_
_space_group_symop_operation_xyz
x,y,z
1/2-x,-y,z
x,1/2-y,1/2-z
1/2-x,1/2+y,1/2-z
-x,-y,-z
1/2+x,y,-z
-x,1/2+y,1/2+z
1/2+x,1/2-y,1/2+z
loop_
_atom_site_type_symbol
_atom_site_label
_atom_site_fract_x
_atom_site_fract_y
_atom_site_fract_z
Si Si1 0.232802 0.712402 0.400406
Si Si2 0.128659 0.044327 0.870642
Si Si3 0.396628 0.966858 0.198105
Si Si4 0.238955 0.842956 0.813015
Si Si5 0.942375 0.716338 0.094054
Si Si6 0.929926 0.649308 0.826276
O O1 0.202800 0.666094 0.518314
O O2 0.350871 0.746073 0.487569
O O3 0.308233 0.815578 0.238448
O O4 0.093710 0.751827 0.390444
O O5 0.194396 0.097739 0.803318
O O6 0.250000 0.000000 0.891940
O O7 0.072564 0.054701 0.033877
O O8 0.013107 0.013423 0.774683
O O9 0.401039 0.913675 0.295333
O O10 0.250000 0.000000 0.204920
O O11 0.356849 0.803649 0.736807
O O12 0.086571 0.835444 0.736422
O O13 0.947096 0.662758 0.994356
#
# Coordination Sequence:
#
# PCOD9410253 Si02
#       6
#     8   8   8   8   8   8
#     4  12  26  46  74 103 137 192 242 290 347 421
#     4  10  20  39  72 105 137 180 233 293 349 416
#     4  10  22  39  69 108 139 174 238 296 346 416
#     4  12  25  47  73 105 143 190 236 289 365 423
#     4  12  28  46  69 105 147 186 239 294 350 428
#     4  12  25  48  72 104 146 189 232 293 363 423
#
# _framework density 22.502976
#
# number of rings (size 3 to 8) (size 9 to 14) (size 15 to 20)
#    0.000    0.667    6.667    1.000    0.000    5.333 
#    0.000    1.667    0.000    0.000    0.000    0.000 
#    0.000    0.000    0.000    0.000    0.000    0.000 
#
# Total GULP energy -267958.362613 kJ/mol
# GULP energy per Si atom -5582.465888 kJ/mol
# Density = 2.245176 g / cm^3
# Si number density = 22.502976 Si / 1000 Ang^3
#
#
#
# Elastic Constant Matrix: (Units=GPa)
#
#
# Indices 1 2 3 4 5 6 
#
# 1 147.1676 57.3693 34.5578 0.0000 0.0000 0.0000
# 2 57.3693 136.8981 37.1992 0.0000 0.0000 0.0000
# 3 34.5578 37.1992 103.4774 0.0000 0.0000 0.0000
# 4 0.0000 0.0000 0.0000 62.6725 0.0000 0.0000
# 5 0.0000 0.0000 0.0000 0.0000 18.7565 0.0000
# 6 0.0000 0.0000 0.0000 0.0000 0.0000 46.0685
#
#
#
# Elastic Compliance Matrix: (Units=1/GPa)
#
#
# Indices 1 2 3 4 5 6 
#
# 1 0.008384 -0.003051 -0.001703 0.000000 0.000000 0.000000
# 2 -0.003051 0.009206 -0.002290 0.000000 0.000000 0.000000
# 3 -0.001703 -0.002290 0.011056 0.000000 0.000000 0.000000
# 4 0.000000 0.000000 0.000000 0.015956 0.000000 0.000000
# 5 0.000000 0.000000 0.000000 0.000000 0.053315 0.000000
# 6 0.000000 0.000000 0.000000 0.000000 0.000000 0.021707
#
#
# Mechanical properties :
#
#
# Convention : Reuss Voigt Hill
#
# Bulk Modulus (GPa) = 68.69583 71.75509 70.22546
# Shear Modulus (GPa) = 36.08419 42.72729 39.40574
#
# Velocity S-wave (km/s) = 4.00875 4.36218 4.18920
# Velocity P-wave (km/s) = 7.21253 7.57150 7.39419
#
# Compressibility (1/GPa) = 0.01455692
#
# Stress axis : x y z
#
# Youngs Moduli (GPa) = 119.27239 108.63039 90.44699
#
# Poissons Ratio (x) = 0.33140 0.15406
# Poissons Ratio (y) = 0.36386 0.20717
# Poissons Ratio (z) = 0.20316 0.24882
#
# Static dielectric constant tensor:
#      x y z
#    x 1.773040 0.000000 0.000000 
#    y 0.000000 2.125420 0.000000 
#    z 0.000000 0.000000 1.911170 
# 
# From -- ./inp_files/16921.got.cif
#   From: 2010.05.17/outbox.cif.g08.bks.cpg/sg52_9_cif.got.tgz:16921.got - 2010.06.03 12:15:38.
