data_PCOD9410211
_publ_section_title
;
Structure prediction by ZEFSAII (Michael W. Deem and Ramdas Pophale) SiO2 
 PCOD9410211
Probable space group: P N N A
;
_chemical_formula_sum "Si O2"
_cell_formula_units_Z 40
_cell_length_a 10.231943
_cell_length_b 5.699722
_cell_length_c 27.675999
_cell_angle_alpha 90.000000
_cell_angle_beta 90.000000
_cell_angle_gamma 90.000000
_cell_volume 1614.042968
_symmetry_space_group_name_H-M "P N N A"
_symmetry_group_IT_number 52
_symmetry_cell_setting 'orthorhombic'
loop_
_space_group_symop_operation_xyz
x,y,z
1/2-x,-y,z
x,1/2-y,1/2-z
1/2-x,1/2+y,1/2-z
-x,-y,-z
1/2+x,y,-z
-x,1/2+y,1/2+z
1/2+x,1/2-y,1/2+z
loop_
_atom_site_type_symbol
_atom_site_label
_atom_site_fract_x
_atom_site_fract_y
_atom_site_fract_z
Si Si1 0.581165 0.730342 0.560380
Si Si2 0.712918 0.243698 0.853173
Si Si3 0.068460 0.910537 0.626152
Si Si4 0.629673 0.841158 0.040433
Si Si5 0.101634 0.497890 0.765023
O O1 0.706367 0.730900 0.595905
O O2 0.611366 0.821498 0.506518
O O3 0.503698 0.487725 0.550213
O O4 0.483055 0.890782 0.590306
O O5 0.750000 0.500000 0.831672
O O6 0.558867 0.253382 0.861446
O O7 0.750000 0.000000 0.827343
O O8 0.165432 0.767225 0.592282
O O9 0.111561 0.005417 0.677290
O O10 0.750000 0.000000 0.024875
O O11 0.250000 0.500000 0.743570
O O12 0.041869 0.750000 0.750000
O O13 0.038851 0.250000 0.750000
#
# Coordination Sequence:
#
# PCOD9410211 Si02
#       5
#     8   8   8   8   8
#     4  10  23  41  60  95 144 186 228 283 342 398
#     4  10  20  39  64  91 129 181 223 270 332 392
#     4  11  24  41  70  95 135 184 235 282 351 424
#     4  11  24  37  63  99 142 187 238 286 332 419
#     4  10  25  46  72 104 141 175 222 296 367 421
#
# _framework density 24.782487
#
# number of rings (size 3 to 8) (size 9 to 14) (size 15 to 20)
#    0.000    1.600    2.000    1.200    8.400    0.800 
#    3.600    0.000    0.000   14.400    0.000    0.000 
#    0.000    0.000    0.000    0.000    0.000    0.000 
#
# Total GULP energy -223270.774568 kJ/mol
# GULP energy per Si atom -5581.769364 kJ/mol
# Density = 2.472608 g / cm^3
# Si number density = 24.782487 Si / 1000 Ang^3
#
#
#
# Elastic Constant Matrix: (Units=GPa)
#
#
# Indices 1 2 3 4 5 6 
#
# 1 81.5452 5.1237 -6.3652 0.0000 0.0000 0.0000
# 2 5.1237 151.3271 39.3314 0.0000 0.0000 0.0000
# 3 -6.3652 39.3314 130.8377 0.0000 0.0000 0.0000
# 4 0.0000 0.0000 0.0000 86.6488 0.0000 0.0000
# 5 0.0000 0.0000 0.0000 0.0000 39.6906 0.0000
# 6 0.0000 0.0000 0.0000 0.0000 0.0000 28.3208
#
#
#
# Elastic Compliance Matrix: (Units=1/GPa)
#
#
# Indices 1 2 3 4 5 6 
#
# 1 0.012364 -0.000624 0.000789 0.000000 0.000000 0.000000
# 2 -0.000624 0.007200 -0.002195 0.000000 0.000000 0.000000
# 3 0.000789 -0.002195 0.008341 0.000000 0.000000 0.000000
# 4 0.000000 0.000000 0.000000 0.011541 0.000000 0.000000
# 5 0.000000 0.000000 0.000000 0.000000 0.025195 0.000000
# 6 0.000000 0.000000 0.000000 0.000000 0.000000 0.035310
#
#
# Mechanical properties :
#
#
# Convention : Reuss Voigt Hill
#
# Bulk Modulus (GPa) = 41.93562 48.87667 45.40614
# Shear Modulus (GPa) = 44.65974 52.64006 48.64990
#
# Velocity S-wave (km/s) = 4.24968 4.61378 4.43547
# Velocity P-wave (km/s) = 6.40609 6.93885 6.67778
#
# Compressibility (1/GPa) = 0.02384608
#
# Stress axis : x y z
#
# Youngs Moduli (GPa) = 80.88059 138.89405 119.88709
#
# Poissons Ratio (x) = 0.08663 -0.09459
# Poissons Ratio (y) = 0.05044 0.26311
# Poissons Ratio (z) = -0.06381 0.30483
#
# Static dielectric constant tensor:
#      x y z
#    x 1.954630 0.000000 0.000000 
#    y 0.000000 2.219710 0.000000 
#    z 0.000000 0.000000 1.930460 
# 
# From -- ./inp_files/42490.got.cif
#   From: 2010.05.17/outbox.cif.g08.bks.cpg/sg52_22_cif.got.tgz:42490.got - 2010.06.03 12:15:38.
