data_PCOD9410251
_publ_section_title
;
Structure prediction by ZEFSAII (Michael W. Deem and Ramdas Pophale) SiO2 
 PCOD9410251
Probable space group: P N N A
;
_chemical_formula_sum "Si O2"
_cell_formula_units_Z 40
_cell_length_a 15.937307
_cell_length_b 8.310096
_cell_length_c 12.467054
_cell_angle_alpha 90.000000
_cell_angle_beta 90.000000
_cell_angle_gamma 90.000000
_cell_volume 1651.143503
_symmetry_space_group_name_H-M "P N N A"
_symmetry_group_IT_number 52
_symmetry_cell_setting 'orthorhombic'
loop_
_space_group_symop_operation_xyz
x,y,z
1/2-x,-y,z
x,1/2-y,1/2-z
1/2-x,1/2+y,1/2-z
-x,-y,-z
1/2+x,y,-z
-x,1/2+y,1/2+z
1/2+x,1/2-y,1/2+z
loop_
_atom_site_type_symbol
_atom_site_label
_atom_site_fract_x
_atom_site_fract_y
_atom_site_fract_z
Si Si1 0.820937 0.615795 0.163931
Si Si2 0.075066 0.233285 0.129474
Si Si3 0.993567 0.441127 0.862181
Si Si4 0.576626 0.619553 0.623872
Si Si5 0.249436 0.808830 0.429594
O O1 0.750000 0.500000 0.209816
O O2 0.841536 0.750000 0.250000
O O3 0.908177 0.522045 0.148368
O O4 0.780359 0.686652 0.054365
O O5 0.037479 0.250000 0.250000
O O6 0.051170 0.408262 0.081990
O O7 0.175361 0.229495 0.134714
O O8 0.058383 0.058651 0.080008
O O9 0.941071 0.415454 0.750619
O O10 0.986462 0.261164 0.907988
O O11 0.665801 0.704019 0.592982
O O12 0.250000 0.000000 0.400210
#
# Coordination Sequence:
#
# PCOD9410251 Si02
#       5
#     8   8   8   8   8
#     4  11  26  48  72  96 142 194 240 294 364 422
#     4  10  22  36  69 107 144 182 234 288 359 426
#     4  10  21  44  70 100 141 184 230 296 349 417
#     4  10  20  39  71 100 137 182 238 286 351 414
#     4  11  23  40  65 108 143 192 231 295 360 425
#
# _framework density 24.225636000000002
#
# number of rings (size 3 to 8) (size 9 to 14) (size 15 to 20)
#    0.000    1.600    4.000    0.600    2.800    4.800 
#    0.000    1.000    0.000    0.000    0.000    0.000 
#    0.000    0.000    0.000    0.000    0.000    0.000 
#
# Total GULP energy -222993.169750 kJ/mol
# GULP energy per Si atom -5574.829244 kJ/mol
# Density = 2.417050 g / cm^3
# Si number density = 24.225636 Si / 1000 Ang^3
#
#
#
# Elastic Constant Matrix: (Units=GPa)
#
#
# Indices 1 2 3 4 5 6 
#
# 1 119.0645 31.2187 12.6508 0.0000 0.0000 0.0000
# 2 31.2187 196.9219 22.8028 0.0000 0.0000 0.0000
# 3 12.6508 22.8028 75.7927 0.0000 0.0000 0.0000
# 4 0.0000 0.0000 0.0000 34.7649 0.0000 0.0000
# 5 0.0000 0.0000 0.0000 0.0000 25.4383 0.0000
# 6 0.0000 0.0000 0.0000 0.0000 0.0000 43.0291
#
#
#
# Elastic Compliance Matrix: (Units=1/GPa)
#
#
# Indices 1 2 3 4 5 6 
#
# 1 0.008850 -0.001276 -0.001093 0.000000 0.000000 0.000000
# 2 -0.001276 0.005446 -0.001425 0.000000 0.000000 0.000000
# 3 -0.001093 -0.001425 0.013805 0.000000 0.000000 0.000000
# 4 0.000000 0.000000 0.000000 0.028765 0.000000 0.000000
# 5 0.000000 0.000000 0.000000 0.000000 0.039311 0.000000
# 6 0.000000 0.000000 0.000000 0.000000 0.000000 0.023240
#
#
# Mechanical properties :
#
#
# Convention : Reuss Voigt Hill
#
# Bulk Modulus (GPa) = 48.75489 58.34707 53.55098
# Shear Modulus (GPa) = 37.35741 42.32025 39.83883
#
# Velocity S-wave (km/s) = 3.93117 4.18415 4.05963
# Velocity P-wave (km/s) = 6.38549 6.89057 6.64283
#
# Compressibility (1/GPa) = 0.02051076
#
# Stress axis : x y z
#
# Youngs Moduli (GPa) = 112.99914 183.63631 72.43675
#
# Poissons Ratio (x) = 0.23439 0.07918
# Poissons Ratio (y) = 0.14423 0.10324
# Poissons Ratio (z) = 0.12352 0.26173
#
# Static dielectric constant tensor:
#      x y z
#    x 1.908430 0.000000 0.000000 
#    y 0.000000 2.008020 0.000000 
#    z 0.000000 0.000000 2.106960 
# 
# From -- ./inp_files/26904.got.cif
#   From: 2010.05.17/outbox.cif.g08.bks.cpg/sg52_14_cif.got.tgz:26904.got - 2010.06.03 12:15:38.
