data_PCOD9411923
_publ_section_title
;
Structure prediction by ZEFSAII (Michael W. Deem and Ramdas Pophale) SiO2 
 PCOD9411923
Probable space group: P N N A
;
_chemical_formula_sum "Si O2"
_cell_formula_units_Z 60
_cell_length_a 10.182893
_cell_length_b 23.102675
_cell_length_c 13.149725
_cell_angle_alpha 90.000000
_cell_angle_beta 90.000000
_cell_angle_gamma 90.000000
_cell_volume 3093.499994
_symmetry_space_group_name_H-M "P N N A"
_symmetry_group_IT_number 52
_symmetry_cell_setting 'orthorhombic'
loop_
_space_group_symop_operation_xyz
x,y,z
1/2-x,-y,z
x,1/2-y,1/2-z
1/2-x,1/2+y,1/2-z
-x,-y,-z
1/2+x,y,-z
-x,1/2+y,1/2+z
1/2+x,1/2-y,1/2+z
loop_
_atom_site_type_symbol
_atom_site_label
_atom_site_fract_x
_atom_site_fract_y
_atom_site_fract_z
Si Si1 0.772184 0.378251 0.387952
Si Si2 0.552074 0.182803 0.212260
Si Si3 0.750000 0.000000 0.232221
Si Si4 0.135201 0.343008 0.921163
Si Si5 0.790186 0.336833 0.613472
Si Si6 0.116659 0.725932 0.006122
Si Si7 0.381147 0.974712 0.561499
Si Si8 0.492392 0.802120 0.168813
O O1 0.646204 0.333957 0.381853
O O2 0.754330 0.442554 0.339846
O O3 0.803260 0.375029 0.510046
O O4 0.889254 0.347993 0.323701
O O5 0.546300 0.250000 0.250000
O O6 0.632986 0.152305 0.300547
O O7 0.410644 0.154611 0.191481
O O8 0.867774 0.991228 0.317183
O O9 0.264822 0.309273 0.955614
O O10 0.128266 0.407234 0.959635
O O11 0.997206 0.313062 0.947631
O O12 0.816040 0.269569 0.584332
O O13 0.644385 0.336248 0.658818
O O14 0.036031 0.767486 0.931389
O O15 0.250000 0.000000 0.514668
O O16 0.500000 0.000000 0.500000
O O17 0.485565 0.750000 0.250000
#
# Coordination Sequence:
#
# PCOD9411923 Si02
#       8
#     8   8   4   8   8   8   8   8
#     4  11  22  43  66  88 124 174 218 266 316 388
#     4  12  21  38  64  93 129 166 209 254 330 387
#     4  10  24  44  68  92 122 168 234 258 316 382
#     4  12  22  37  65  91 125 169 206 261 325 394
#     4  11  23  39  58  94 131 165 208 271 309 382
#     4  11  22  38  57  96 129 168 206 251 329 401
#     4  10  22  42  64  93 126 160 212 268 312 375
#     4  11  23  37  60  95 133 163 209 259 329 384
#
# _framework density 19.395506000000001
#
# number of rings (size 3 to 8) (size 9 to 14) (size 15 to 20)
#    0.400    0.533    4.000    5.600    0.000    0.000 
#    0.000    4.000    0.000    0.000    0.000    0.000 
#    0.000    0.000    0.000    0.000    0.000    0.000 
#
# Total GULP energy -334071.316102 kJ/mol
# GULP energy per Si atom -5567.855268 kJ/mol
# Density = 1.935136 g / cm^3
# Si number density = 19.395506 Si / 1000 Ang^3
#
#
#
# Elastic Constant Matrix: (Units=GPa)
#
#
# Indices 1 2 3 4 5 6 
#
# 1 123.7508 32.4589 19.0673 0.0000 0.0000 0.0000
# 2 32.4589 101.8964 24.8936 0.0000 0.0000 0.0000
# 3 19.0673 24.8936 38.6341 0.0000 0.0000 0.0000
# 4 0.0000 0.0000 0.0000 29.6885 0.0000 0.0000
# 5 0.0000 0.0000 0.0000 0.0000 2.7921 0.0000
# 6 0.0000 0.0000 0.0000 0.0000 0.0000 12.4831
#
#
#
# Elastic Compliance Matrix: (Units=1/GPa)
#
#
# Indices 1 2 3 4 5 6 
#
# 1 0.009124 -0.002144 -0.003122 0.000000 0.000000 0.000000
# 2 -0.002144 0.012151 -0.006771 0.000000 0.000000 0.000000
# 3 -0.003122 -0.006771 0.031788 0.000000 0.000000 0.000000
# 4 0.000000 0.000000 0.000000 0.033683 0.000000 0.000000
# 5 0.000000 0.000000 0.000000 0.000000 0.358155 0.000000
# 6 0.000000 0.000000 0.000000 0.000000 0.000000 0.080108
#
#
# Mechanical properties :
#
#
# Convention : Reuss Voigt Hill
#
# Bulk Modulus (GPa) = 34.49592 46.34677 40.42135
# Shear Modulus (GPa) = 8.94861 21.51684 15.23273
#
# Velocity S-wave (km/s) = 2.15030 3.33434 2.80549
# Velocity P-wave (km/s) = 4.89787 6.22666 5.60180
#
# Compressibility (1/GPa) = 0.02898893
#
# Stress axis : x y z
#
# Youngs Moduli (GPa) = 109.60046 82.29734 31.45880
#
# Poissons Ratio (x) = 0.17643 0.09820
# Poissons Ratio (y) = 0.23496 0.21302
# Poissons Ratio (z) = 0.34214 0.55727
#
# Static dielectric constant tensor:
#      x y z
#    x 1.793950 0.000000 0.000000 
#    y 0.000000 1.654720 0.000000 
#    z 0.000000 0.000000 1.785810 
# 
# From -- ./inp_files/25104.got.cif
#   From: 2010.05.17/outbox.cif.g08.bks.cpg/sg52_13_cif.got.tgz:25104.got - 2010.06.03 12:15:38.
