data_PCOD9411853
_publ_section_title
;
Structure prediction by ZEFSAII (Michael W. Deem and Ramdas Pophale) SiO2 
 PCOD9411853
Probable space group: P N N A
;
_chemical_formula_sum "Si O2"
_cell_formula_units_Z 40
_cell_length_a 26.112923
_cell_length_b 10.584607
_cell_length_c 6.783490
_cell_angle_alpha 90.000000
_cell_angle_beta 90.000000
_cell_angle_gamma 90.000000
_cell_volume 1874.922906
_symmetry_space_group_name_H-M "P N N A"
_symmetry_group_IT_number 52
_symmetry_cell_setting 'orthorhombic'
loop_
_space_group_symop_operation_xyz
x,y,z
1/2-x,-y,z
x,1/2-y,1/2-z
1/2-x,1/2+y,1/2-z
-x,-y,-z
1/2+x,y,-z
-x,1/2+y,1/2+z
1/2+x,1/2-y,1/2+z
loop_
_atom_site_type_symbol
_atom_site_label
_atom_site_fract_x
_atom_site_fract_y
_atom_site_fract_z
Si Si1 0.314030 0.750000 0.750000
Si Si2 0.429541 0.076195 0.275915
Si Si3 0.743236 0.644813 0.584392
Si Si4 0.873275 0.290546 0.473806
Si Si5 0.524324 0.250000 0.250000
Si Si6 0.104255 0.315501 0.052654
O O1 0.279354 0.666828 0.604982
O O2 0.350708 0.831691 0.606611
O O3 0.393070 0.169571 0.403031
O O4 0.486451 0.132048 0.280597
O O5 0.422146 0.941812 0.370878
O O6 0.408421 0.094497 0.053574
O O7 0.750000 0.500000 0.654629
O O8 0.755099 0.750000 0.750000
O O9 0.684900 0.672078 0.519615
O O10 0.879542 0.250000 0.250000
O O11 0.560835 0.264133 0.438720
O O12 0.124396 0.250000 0.250000
#
# Coordination Sequence:
#
# PCOD9411853 Si02
#       6
#     4   8   8   8   4   8
#     4  11  28  42  62 102 140 184 226 285 350 414
#     4  10  23  43  68  96 136 172 227 287 334 424
#     4  12  27  45  70 100 140 188 238 289 347 416
#     4  10  22  41  65  96 128 178 227 275 343 406
#     4   9  22  44  66 100 128 178 224 281 352 412
#     4  11  25  42  67  99 136 175 225 283 350 411
#
# _framework density 21.334211
#
# number of rings (size 3 to 8) (size 9 to 14) (size 15 to 20)
#    0.000    1.600    3.000    1.200    8.400    6.400 
#    0.000    0.000    0.000    0.000    0.000    0.000 
#    0.000    0.000    0.000    0.000    0.000    0.000 
#
# Total GULP energy -223428.539336 kJ/mol
# GULP energy per Si atom -5585.713483 kJ/mol
# Density = 2.128565 g / cm^3
# Si number density = 21.334211 Si / 1000 Ang^3
#
#
#
# Elastic Constant Matrix: (Units=GPa)
#
#
# Indices 1 2 3 4 5 6 
#
# 1 102.3406 4.9594 42.7205 0.0000 0.0000 0.0000
# 2 4.9594 94.8408 39.0827 0.0000 0.0000 0.0000
# 3 42.7205 39.0827 147.3734 0.0000 0.0000 0.0000
# 4 0.0000 0.0000 0.0000 24.3996 0.0000 0.0000
# 5 0.0000 0.0000 0.0000 0.0000 45.2851 0.0000
# 6 0.0000 0.0000 0.0000 0.0000 0.0000 6.5967
#
#
#
# Elastic Compliance Matrix: (Units=1/GPa)
#
#
# Indices 1 2 3 4 5 6 
#
# 1 0.011176 0.000843 -0.003463 0.000000 0.000000 0.000000
# 2 0.000843 0.011901 -0.003400 0.000000 0.000000 0.000000
# 3 -0.003463 -0.003400 0.008691 0.000000 0.000000 0.000000
# 4 0.000000 0.000000 0.000000 0.040984 0.000000 0.000000
# 5 0.000000 0.000000 0.000000 0.000000 0.022082 0.000000
# 6 0.000000 0.000000 0.000000 0.000000 0.000000 0.151591
#
#
# Mechanical properties :
#
#
# Convention : Reuss Voigt Hill
#
# Bulk Modulus (GPa) = 50.69282 57.56445 54.12863
# Shear Modulus (GPa) = 18.86483 32.44244 25.65364
#
# Velocity S-wave (km/s) = 2.97686 3.90382 3.47142
# Velocity P-wave (km/s) = 5.96896 6.88190 6.44162
#
# Compressibility (1/GPa) = 0.01972666
#
# Stress axis : x y z
#
# Youngs Moduli (GPa) = 89.47652 84.02521 115.05927
#
# Poissons Ratio (x) = -0.07081 0.39847
# Poissons Ratio (y) = -0.07540 0.39125
# Poissons Ratio (z) = 0.30988 0.28572
#
# Static dielectric constant tensor:
#      x y z
#    x 1.762070 0.000000 0.000000 
#    y 0.000000 1.505280 0.000000 
#    z 0.000000 0.000000 1.824850 
# 
# From -- ./inp_files/5639.got.cif
#   From: 2010.05.17/outbox.cif.g08.bks.cpg/sg52_3_cif.got.tgz:5639.got - 2010.06.03 12:15:38.
