data_PCOD9411466
_publ_section_title
;
Structure prediction by ZEFSAII (Michael W. Deem and Ramdas Pophale) SiO2 
 PCOD9411466
Probable space group: P N N A
;
_chemical_formula_sum "Si O2"
_cell_formula_units_Z 32
_cell_length_a 31.893242
_cell_length_b 5.067885
_cell_length_c 12.117767
_cell_angle_alpha 90.000000
_cell_angle_beta 90.000000
_cell_angle_gamma 90.000000
_cell_volume 1958.610224
_symmetry_space_group_name_H-M "P N N A"
_symmetry_group_IT_number 52
_symmetry_cell_setting 'orthorhombic'
loop_
_space_group_symop_operation_xyz
x,y,z
1/2-x,-y,z
x,1/2-y,1/2-z
1/2-x,1/2+y,1/2-z
-x,-y,-z
1/2+x,y,-z
-x,1/2+y,1/2+z
1/2+x,1/2-y,1/2+z
loop_
_atom_site_type_symbol
_atom_site_label
_atom_site_fract_x
_atom_site_fract_y
_atom_site_fract_z
Si Si1 0.461809 0.197109 0.467738
Si Si2 0.205103 0.000587 0.330896
Si Si3 0.524551 0.492576 0.322855
Si Si4 0.386994 0.998655 0.330937
O O1 0.481421 0.378309 0.371945
O O2 0.451470 0.390405 0.570198
O O3 0.500000 0.000000 0.500000
O O4 0.423100 0.034345 0.420918
O O5 0.204926 0.750000 0.250000
O O6 0.250000 0.000000 0.393133
O O7 0.205607 0.250000 0.250000
O O8 0.159435 0.009642 0.386298
O O9 0.517005 0.750000 0.250000
O O10 0.542851 0.250000 0.250000
O O11 0.392582 0.750000 0.250000
O O12 0.388157 0.250000 0.250000
#
# Coordination Sequence:
#
# PCOD9411466 Si02
#       4
#     8   8   8   8
#     4  11  24  33  50  71  94 132 170 208 238 291
#     4   8  14  28  45  65  91 123 153 184 232 287
#     4  11  23  37  50  65  91 133 168 211 248 281
#     4  10  22  31  48  71  97 129 164 198 235 293
#
# _framework density 16.338114999999998
#
# number of rings (size 3 to 8) (size 9 to 14) (size 15 to 20)
#    0.000    2.000    2.500    0.750   10.500    0.000 
#    0.000    0.000    0.000    0.000    0.000    0.000 
#    0.000    0.000    8.500    0.750    1.500    0.000 
#
# Total GULP energy -178199.819085 kJ/mol
# GULP energy per Si atom -5568.744346 kJ/mol
# Density = 1.630093 g / cm^3
# Si number density = 16.338115 Si / 1000 Ang^3
#
#
#
# Elastic Constant Matrix: (Units=GPa)
#
#
# Indices 1 2 3 4 5 6 
#
# 1 158.3574 25.8357 37.1765 0.0000 0.0000 0.0000
# 2 25.8357 132.0175 32.8865 0.0000 0.0000 0.0000
# 3 37.1765 32.8865 65.1277 0.0000 0.0000 0.0000
# 4 0.0000 0.0000 0.0000 33.1376 0.0000 0.0000
# 5 0.0000 0.0000 0.0000 0.0000 12.7352 0.0000
# 6 0.0000 0.0000 0.0000 0.0000 0.0000 17.9854
#
#
#
# Elastic Compliance Matrix: (Units=1/GPa)
#
#
# Indices 1 2 3 4 5 6 
#
# 1 0.007315 -0.000448 -0.003950 0.000000 0.000000 0.000000
# 2 -0.000448 0.008692 -0.004134 0.000000 0.000000 0.000000
# 3 -0.003950 -0.004134 0.019696 0.000000 0.000000 0.000000
# 4 0.000000 0.000000 0.000000 0.030177 0.000000 0.000000
# 5 0.000000 0.000000 0.000000 0.000000 0.078523 0.000000
# 6 0.000000 0.000000 0.000000 0.000000 0.000000 0.055601
#
#
# Mechanical properties :
#
#
# Convention : Reuss Voigt Hill
#
# Bulk Modulus (GPa) = 53.64301 60.81110 57.22706
# Shear Modulus (GPa) = 22.39346 30.07856 26.23601
#
# Velocity S-wave (km/s) = 3.70621 4.29535 4.01161
# Velocity P-wave (km/s) = 7.15675 7.86773 7.52065
#
# Compressibility (1/GPa) = 0.01864176
#
# Stress axis : x y z
#
# Youngs Moduli (GPa) = 136.70381 115.04755 50.77122
#
# Poissons Ratio (x) = 0.05151 0.20052
# Poissons Ratio (y) = 0.06120 0.20986
# Poissons Ratio (z) = 0.53992 0.47555
#
# Static dielectric constant tensor:
#      x y z
#    x 1.623580 0.000000 0.000000 
#    y 0.000000 1.625310 0.000000 
#    z 0.000000 0.000000 1.603890 
# 
# From -- ./inp_files/22975.got.cif
#   From: 2010.05.17/outbox.cif.g08.bks.cpg/sg52_12_cif.got.tgz:22975.got - 2010.06.03 12:15:38.
