data_PCOD9411738
_publ_section_title
;
Structure prediction by ZEFSAII (Michael W. Deem and Ramdas Pophale) SiO2 
 PCOD9411738
Probable space group: P N N A
;
_chemical_formula_sum "Si O2"
_cell_formula_units_Z 60
_cell_length_a 9.671403
_cell_length_b 24.657530
_cell_length_c 12.583543
_cell_angle_alpha 90.000000
_cell_angle_beta 90.000000
_cell_angle_gamma 90.000000
_cell_volume 3000.834112
_symmetry_space_group_name_H-M "P N N A"
_symmetry_group_IT_number 52
_symmetry_cell_setting 'orthorhombic'
loop_
_space_group_symop_operation_xyz
x,y,z
1/2-x,-y,z
x,1/2-y,1/2-z
1/2-x,1/2+y,1/2-z
-x,-y,-z
1/2+x,y,-z
-x,1/2+y,1/2+z
1/2+x,1/2-y,1/2+z
loop_
_atom_site_type_symbol
_atom_site_label
_atom_site_fract_x
_atom_site_fract_y
_atom_site_fract_z
Si Si1 0.216984 0.561927 0.205579
Si Si2 0.003168 0.685646 0.009735
Si Si3 0.493517 0.855592 0.725501
Si Si4 0.991467 0.623595 0.808954
Si Si5 0.629617 0.962333 0.466900
Si Si6 0.287586 0.308637 0.687203
Si Si7 0.733657 0.247371 0.983437
Si Si8 0.812091 0.250000 0.750000
O O1 0.250000 0.500000 0.234813
O O2 0.353396 0.595949 0.232478
O O3 0.082407 0.591450 0.253996
O O4 0.192686 0.561639 0.076909
O O5 0.965333 0.642121 0.098671
O O6 0.163438 0.700910 0.002621
O O7 0.948295 0.667557 0.896556
O O8 0.914943 0.739237 0.033594
O O9 0.353036 0.840654 0.784133
O O10 0.592163 0.802653 0.732022
O O11 0.078708 0.581048 0.880886
O O12 0.086453 0.654624 0.726239
O O13 0.750000 0.000000 0.420082
O O14 0.500000 0.000000 0.500000
O O15 0.287979 0.250000 0.750000
O O16 0.295961 0.297156 0.561879
O O17 0.730763 0.236606 0.858253
#
# Coordination Sequence:
#
# PCOD9411738 Si02
#       8
#     8   8   8   8   8   8   8   4
#     4  11  24  39  56  89 131 173 228 278 336 403
#     4  11  20  33  57  83 124 168 215 250 324 387
#     4  11  21  39  62  87 126 175 217 266 332 402
#     4  12  23  34  59  90 126 181 223 278 336 397
#     4  11  22  37  57  87 131 178 232 291 341 403
#     4  12  23  40  58  93 133 177 219 260 328 413
#     4  11  23  39  57  87 129 167 217 265 314 410
#     4  10  22  40  64  92 120 172 214 268 340 386
#
# _framework density 19.994441999999999
#
# number of rings (size 3 to 8) (size 9 to 14) (size 15 to 20)
#    0.000    0.800    7.333    2.400    3.733    2.133 
#    1.200    0.000    0.000    0.000    0.000    4.667 
#    0.000    0.000    0.000    0.000    0.000    0.000 
#
# Total GULP energy -335066.840139 kJ/mol
# GULP energy per Si atom -5584.447336 kJ/mol
# Density = 1.994893 g / cm^3
# Si number density = 19.994442 Si / 1000 Ang^3
#
#
#
# Elastic Constant Matrix: (Units=GPa)
#
#
# Indices 1 2 3 4 5 6 
#
# 1 114.0806 45.5604 28.3739 0.0000 0.0000 0.0000
# 2 45.5604 74.5300 32.5356 0.0000 0.0000 0.0000
# 3 28.3739 32.5356 82.3657 0.0000 0.0000 0.0000
# 4 0.0000 0.0000 0.0000 23.4008 0.0000 0.0000
# 5 0.0000 0.0000 0.0000 0.0000 20.1738 0.0000
# 6 0.0000 0.0000 0.0000 0.0000 0.0000 45.7329
#
#
#
# Elastic Compliance Matrix: (Units=1/GPa)
#
#
# Indices 1 2 3 4 5 6 
#
# 1 0.011741 -0.006539 -0.001461 0.000000 0.000000 0.000000
# 2 -0.006539 0.019855 -0.005590 0.000000 0.000000 0.000000
# 3 -0.001461 -0.005590 0.014853 0.000000 0.000000 0.000000
# 4 0.000000 0.000000 0.000000 0.042734 0.000000 0.000000
# 5 0.000000 0.000000 0.000000 0.000000 0.049569 0.000000
# 6 0.000000 0.000000 0.000000 0.000000 0.000000 0.021866
#
#
# Mechanical properties :
#
#
# Convention : Reuss Voigt Hill
#
# Bulk Modulus (GPa) = 51.90327 53.76844 52.83586
# Shear Modulus (GPa) = 25.74372 28.82861 27.28617
#
# Velocity S-wave (km/s) = 3.59213 3.80126 3.69818
# Velocity P-wave (km/s) = 6.57417 6.79825 6.68715
#
# Compressibility (1/GPa) = 0.01926661
#
# Stress axis : x y z
#
# Youngs Moduli (GPa) = 85.17322 50.36434 67.32766
#
# Poissons Ratio (x) = 0.32934 0.09840
# Poissons Ratio (y) = 0.55696 0.37639
# Poissons Ratio (z) = 0.12448 0.28156
#
# Static dielectric constant tensor:
#      x y z
#    x 1.763620 0.000000 0.000000 
#    y 0.000000 1.763850 0.000000 
#    z 0.000000 0.000000 1.735640 
# 
# From -- ./inp_files/25089.got.cif
#   From: 2010.05.17/outbox.cif.g08.bks.cpg/sg52_13_cif.got.tgz:25089.got - 2010.06.03 12:15:38.
