data_PCOD9411665
_publ_section_title
;
Structure prediction by ZEFSAII (Michael W. Deem and Ramdas Pophale) SiO2 
 PCOD9411665
Probable space group: P N N A
;
_chemical_formula_sum "Si O2"
_cell_formula_units_Z 40
_cell_length_a 10.781994
_cell_length_b 7.734268
_cell_length_c 23.250916
_cell_angle_alpha 90.000000
_cell_angle_beta 90.000000
_cell_angle_gamma 90.000000
_cell_volume 1938.913211
_symmetry_space_group_name_H-M "P N N A"
_symmetry_group_IT_number 52
_symmetry_cell_setting 'orthorhombic'
loop_
_space_group_symop_operation_xyz
x,y,z
1/2-x,-y,z
x,1/2-y,1/2-z
1/2-x,1/2+y,1/2-z
-x,-y,-z
1/2+x,y,-z
-x,1/2+y,1/2+z
1/2+x,1/2-y,1/2+z
loop_
_atom_site_type_symbol
_atom_site_label
_atom_site_fract_x
_atom_site_fract_y
_atom_site_fract_z
Si Si1 0.853847 0.874656 0.300151
Si Si2 0.940958 0.997932 0.062452
Si Si3 0.393426 0.958357 0.306754
Si Si4 0.389164 0.946581 0.170551
Si Si5 0.753985 0.204008 0.418607
O O1 0.893006 0.750000 0.250000
O O2 0.772178 0.793582 0.350567
O O3 0.750000 0.000000 0.272366
O O4 0.980019 0.950598 0.328298
O O5 0.876131 0.185873 0.068813
O O6 0.022461 0.979705 0.120790
O O7 0.851525 0.831732 0.058298
O O8 0.000000 0.000000 0.000000
O O9 0.402085 0.997435 0.237934
O O10 0.406470 0.759009 0.324016
O O11 0.250000 0.000000 0.323455
O O12 0.250000 0.000000 0.154088
O O13 0.750000 0.000000 0.435744
#
# Coordination Sequence:
#
# PCOD9411665 Si02
#       5
#     8   8   8   8   8
#     4  11  24  37  66  98 136 177 217 271 348 411
#     4  11  25  44  70  96 130 179 235 280 338 400
#     4  10  23  39  62 100 135 173 216 271 352 416
#     4  10  22  39  65  91 135 169 214 276 332 407
#     4  10  24  45  67  97 136 172 226 288 336 405
#
# _framework density 20.630113999999999
#
# number of rings (size 3 to 8) (size 9 to 14) (size 15 to 20)
#    0.000    1.600    0.000    3.600   19.600    0.800 
#    0.000    1.000    0.000    0.000    0.000    0.000 
#    0.000    0.000    0.000    0.000    0.000    0.000 
#
# Total GULP energy -222690.102936 kJ/mol
# GULP energy per Si atom -5567.252573 kJ/mol
# Density = 2.058316 g / cm^3
# Si number density = 20.630114 Si / 1000 Ang^3
#
#
#
# Elastic Constant Matrix: (Units=GPa)
#
#
# Indices 1 2 3 4 5 6 
#
# 1 106.5362 49.3216 31.9536 0.0000 0.0000 0.0000
# 2 49.3216 113.9388 21.5763 0.0000 0.0000 0.0000
# 3 31.9536 21.5763 51.1415 0.0000 0.0000 0.0000
# 4 0.0000 0.0000 0.0000 22.7284 0.0000 0.0000
# 5 0.0000 0.0000 0.0000 0.0000 26.0942 0.0000
# 6 0.0000 0.0000 0.0000 0.0000 0.0000 27.3246
#
#
#
# Elastic Compliance Matrix: (Units=1/GPa)
#
#
# Indices 1 2 3 4 5 6 
#
# 1 0.013456 -0.004600 -0.006466 0.000000 0.000000 0.000000
# 2 -0.004600 0.011111 -0.001814 0.000000 0.000000 0.000000
# 3 -0.006466 -0.001814 0.024359 0.000000 0.000000 0.000000
# 4 0.000000 0.000000 0.000000 0.043998 0.000000 0.000000
# 5 0.000000 0.000000 0.000000 0.000000 0.038323 0.000000
# 6 0.000000 0.000000 0.000000 0.000000 0.000000 0.036597
#
#
# Mechanical properties :
#
#
# Convention : Reuss Voigt Hill
#
# Bulk Modulus (GPa) = 43.16733 53.03552 48.10143
# Shear Modulus (GPa) = 24.83538 26.48045 25.65791
#
# Velocity S-wave (km/s) = 3.47341 3.58660 3.53046
# Velocity P-wave (km/s) = 6.08736 6.55097 6.32341
#
# Compressibility (1/GPa) = 0.02316567
#
# Stress axis : x y z
#
# Youngs Moduli (GPa) = 74.31843 89.99787 41.05257
#
# Poissons Ratio (x) = 0.41400 0.26546
# Poissons Ratio (y) = 0.34187 0.07445
# Poissons Ratio (z) = 0.48057 0.16322
#
# Static dielectric constant tensor:
#      x y z
#    x 1.897500 0.000000 0.000000 
#    y 0.000000 1.856490 0.000000 
#    z 0.000000 0.000000 1.744830 
# 
# From -- ./inp_files/36628.got.cif
#   From: 2010.05.17/outbox.cif.g08.bks.cpg/sg52_19_cif.got.tgz:36628.got - 2010.06.03 12:15:38.
