data_PCOD9411588
_publ_section_title
;
Structure prediction by ZEFSAII (Michael W. Deem and Ramdas Pophale) SiO2 
 PCOD9411588
Probable space group: P N N A
;
_chemical_formula_sum "Si O2"
_cell_formula_units_Z 64
_cell_length_a 11.704943
_cell_length_b 19.852799
_cell_length_c 14.642985
_cell_angle_alpha 90.000000
_cell_angle_beta 90.000000
_cell_angle_gamma 90.000000
_cell_volume 3402.676535
_symmetry_space_group_name_H-M "P N N A"
_symmetry_group_IT_number 52
_symmetry_cell_setting 'orthorhombic'
loop_
_space_group_symop_operation_xyz
x,y,z
1/2-x,-y,z
x,1/2-y,1/2-z
1/2-x,1/2+y,1/2-z
-x,-y,-z
1/2+x,y,-z
-x,1/2+y,1/2+z
1/2+x,1/2-y,1/2+z
loop_
_atom_site_type_symbol
_atom_site_label
_atom_site_fract_x
_atom_site_fract_y
_atom_site_fract_z
Si Si1 0.055848 0.408181 0.721329
Si Si2 0.010041 0.565058 0.702940
Si Si3 0.833273 0.867054 0.910736
Si Si4 0.174702 0.197353 0.666658
Si Si5 0.629144 0.698965 0.666947
Si Si6 0.552794 0.689755 0.176518
Si Si7 0.265374 0.079225 0.912903
Si Si8 0.027405 0.255394 0.507215
O O1 0.032627 0.487744 0.730250
O O2 0.104927 0.370430 0.810140
O O3 0.157927 0.397830 0.647979
O O4 0.945310 0.367720 0.687637
O O5 0.005915 0.619527 0.783798
O O6 0.118094 0.589391 0.641701
O O7 0.896568 0.573123 0.641991
O O8 0.760996 0.820372 0.843543
O O9 0.929901 0.824469 0.962016
O O10 0.743800 0.888915 0.988088
O O11 0.152106 0.250000 0.750000
O O12 0.309810 0.185152 0.666160
O O13 0.127661 0.228080 0.572949
O O14 0.612882 0.750000 0.750000
O O15 0.578638 0.731971 0.574903
O O16 0.530429 0.750000 0.250000
O O17 0.502291 0.708321 0.078126
O O18 0.250000 0.000000 0.924896
#
# Coordination Sequence:
#
# PCOD9411588 Si02
#       8
#     8   8   8   8   8   8   8   8
#     4  11  21  42  67  90 123 166 212 254 313 375
#     4  11  25  41  63  92 129 170 206 260 314 378
#     4  12  25  37  60  93 133 164 199 261 319 379
#     4  11  20  40  70  92 122 168 215 262 307 367
#     4  12  25  41  64  93 127 166 208 257 315 378
#     4  11  24  40  62  93 129 165 215 262 309 366
#     4  10  22  38  63  94 125 162 210 253 315 380
#     4  12  22  41  64  96 121 164 213 265 312 364
#
# _framework density 18.808723000000001
#
# number of rings (size 3 to 8) (size 9 to 14) (size 15 to 20)
#    0.000    0.750    6.250    1.500    5.250    1.000 
#    0.000    0.625    0.000    0.000    0.000    0.000 
#    0.000    0.000    0.000    0.000    0.000    0.000 
#
# Total GULP energy -357644.473719 kJ/mol
# GULP energy per Si atom -5588.194902 kJ/mol
# Density = 1.876591 g / cm^3
# Si number density = 18.808723 Si / 1000 Ang^3
#
#
#
# Elastic Constant Matrix: (Units=GPa)
#
#
# Indices 1 2 3 4 5 6 
#
# 1 36.9889 13.7668 22.2334 0.0000 0.0000 0.0000
# 2 13.7668 90.4345 45.4501 0.0000 0.0000 0.0000
# 3 22.2334 45.4501 93.0597 0.0000 0.0000 0.0000
# 4 0.0000 0.0000 0.0000 28.5328 0.0000 0.0000
# 5 0.0000 0.0000 0.0000 0.0000 18.0733 0.0000
# 6 0.0000 0.0000 0.0000 0.0000 0.0000 28.3630
#
#
#
# Elastic Compliance Matrix: (Units=1/GPa)
#
#
# Indices 1 2 3 4 5 6 
#
# 1 0.031693 -0.001351 -0.006912 0.000000 0.000000 0.000000
# 2 -0.001351 0.014712 -0.006863 0.000000 0.000000 0.000000
# 3 -0.006912 -0.006863 0.015749 0.000000 0.000000 0.000000
# 4 0.000000 0.000000 0.000000 0.035047 0.000000 0.000000
# 5 0.000000 0.000000 0.000000 0.000000 0.055330 0.000000
# 6 0.000000 0.000000 0.000000 0.000000 0.000000 0.035257
#
#
# Mechanical properties :
#
#
# Convention : Reuss Voigt Hill
#
# Bulk Modulus (GPa) = 31.34529 42.59819 36.97174
# Shear Modulus (GPa) = 21.86514 24.26268 23.06391
#
# Velocity S-wave (km/s) = 3.41324 3.59551 3.50556
# Velocity P-wave (km/s) = 5.67760 6.31935 6.00705
#
# Compressibility (1/GPa) = 0.03190272
#
# Stress axis : x y z
#
# Youngs Moduli (GPa) = 31.55304 67.96986 63.49616
#
# Poissons Ratio (x) = 0.09180 0.43890
# Poissons Ratio (y) = 0.04262 0.43576
# Poissons Ratio (z) = 0.21810 0.46646
#
# Static dielectric constant tensor:
#      x y z
#    x 1.671780 0.000000 0.000000 
#    y 0.000000 1.648610 0.000000 
#    z 0.000000 0.000000 1.658180 
# 
# From -- ./inp_files/26337.got.cif
#   From: 2010.05.17/outbox.cif.g08.bks.cpg/sg52_14_cif.got.tgz:26337.got - 2010.06.03 12:15:38.
