data_PCOD9411918
_publ_section_title
;
Structure prediction by ZEFSAII (Michael W. Deem and Ramdas Pophale) SiO2 
 PCOD9411918
Probable space group: P N N A
;
_chemical_formula_sum "Si O2"
_cell_formula_units_Z 40
_cell_length_a 16.449019
_cell_length_b 9.020595
_cell_length_c 13.037097
_cell_angle_alpha 90.000000
_cell_angle_beta 90.000000
_cell_angle_gamma 90.000000
_cell_volume 1934.443652
_symmetry_space_group_name_H-M "P N N A"
_symmetry_group_IT_number 52
_symmetry_cell_setting 'orthorhombic'
loop_
_space_group_symop_operation_xyz
x,y,z
1/2-x,-y,z
x,1/2-y,1/2-z
1/2-x,1/2+y,1/2-z
-x,-y,-z
1/2+x,y,-z
-x,1/2+y,1/2+z
1/2+x,1/2-y,1/2+z
loop_
_atom_site_type_symbol
_atom_site_label
_atom_site_fract_x
_atom_site_fract_y
_atom_site_fract_z
Si Si1 0.996993 0.101074 0.288384
Si Si2 0.350482 0.875911 0.425194
Si Si3 0.317865 0.219491 0.368069
Si Si4 0.600126 0.179608 0.352286
Si Si5 0.959704 0.414179 0.594518
O O1 0.955401 0.250000 0.250000
O O2 0.062058 0.148344 0.374113
O O3 0.042941 0.021668 0.193325
O O4 0.933743 0.982944 0.329440
O O5 0.279479 0.777336 0.375557
O O6 0.349217 0.833619 0.544358
O O7 0.337088 0.051984 0.405092
O O8 0.341030 0.250000 0.250000
O O9 0.372610 0.339065 0.427955
O O10 0.639143 0.250000 0.250000
O O11 0.521446 0.281977 0.375392
O O12 0.000000 0.500000 0.500000
#
# Coordination Sequence:
#
# PCOD9411918 Si02
#       5
#     8   8   8   8   8
#     4  11  21  36  63  98 125 170 223 276 335 403
#     4  11  22  38  68  91 132 176 213 280 352 406
#     4  11  22  41  63  98 134 169 215 284 346 417
#     4  10  22  42  63  88 128 173 229 279 327 408
#     4  11  22  39  63  94 132 170 224 280 334 410
#
# _framework density 20.677779999999998
#
# number of rings (size 3 to 8) (size 9 to 14) (size 15 to 20)
#    0.000    1.200    4.000    3.000    2.800    0.000 
#    0.000    0.000   17.600    0.000    0.000    0.000 
#    0.000    0.000    0.000    0.000    0.000    0.000 
#
# Total GULP energy -223396.096531 kJ/mol
# GULP energy per Si atom -5584.902413 kJ/mol
# Density = 2.063072 g / cm^3
# Si number density = 20.677780 Si / 1000 Ang^3
#
#
#
# Elastic Constant Matrix: (Units=GPa)
#
#
# Indices 1 2 3 4 5 6 
#
# 1 29.4767 18.0906 24.8644 0.0000 0.0000 0.0000
# 2 18.0906 104.3420 28.7321 0.0000 0.0000 0.0000
# 3 24.8644 28.7321 125.4274 0.0000 0.0000 0.0000
# 4 0.0000 0.0000 0.0000 38.2374 0.0000 0.0000
# 5 0.0000 0.0000 0.0000 0.0000 30.8172 0.0000
# 6 0.0000 0.0000 0.0000 0.0000 0.0000 26.3997
#
#
#
# Elastic Compliance Matrix: (Units=1/GPa)
#
#
# Indices 1 2 3 4 5 6 
#
# 1 0.043523 -0.005518 -0.007364 0.000000 0.000000 0.000000
# 2 -0.005518 0.010929 -0.001410 0.000000 0.000000 0.000000
# 3 -0.007364 -0.001410 0.009755 0.000000 0.000000 0.000000
# 4 0.000000 0.000000 0.000000 0.026152 0.000000 0.000000
# 5 0.000000 0.000000 0.000000 0.000000 0.032449 0.000000
# 6 0.000000 0.000000 0.000000 0.000000 0.000000 0.037879
#
#
# Mechanical properties :
#
#
# Convention : Reuss Voigt Hill
#
# Bulk Modulus (GPa) = 28.07080 44.73558 36.40319
# Shear Modulus (GPa) = 24.85748 31.59480 28.22614
#
# Velocity S-wave (km/s) = 3.47094 3.91315 3.69866
# Velocity P-wave (km/s) = 5.44684 6.48834 5.99027
#
# Compressibility (1/GPa) = 0.03562420
#
# Stress axis : x y z
#
# Youngs Moduli (GPa) = 22.97615 91.50179 102.50707
#
# Poissons Ratio (x) = 0.50493 0.75485
# Poissons Ratio (y) = 0.12679 0.14449
# Poissons Ratio (z) = 0.16919 0.12898
#
# Static dielectric constant tensor:
#      x y z
#    x 1.737370 0.000000 0.000000 
#    y 0.000000 1.755940 0.000000 
#    z 0.000000 0.000000 1.793890 
# 
# From -- ./inp_files/20297.got.cif
#   From: 2010.05.17/outbox.cif.g08.bks.cpg/sg52_11_cif.got.tgz:20297.got - 2010.06.03 12:15:38.
