data_PCOD9411125
_publ_section_title
;
Structure prediction by ZEFSAII (Michael W. Deem and Ramdas Pophale) SiO2 
 PCOD9411125
Probable space group: P N N A
;
_chemical_formula_sum "Si O2"
_cell_formula_units_Z 40
_cell_length_a 19.239908
_cell_length_b 7.810989
_cell_length_c 12.626562
_cell_angle_alpha 90.000000
_cell_angle_beta 90.000000
_cell_angle_gamma 90.000000
_cell_volume 1897.553952
_symmetry_space_group_name_H-M "P N N A"
_symmetry_group_IT_number 52
_symmetry_cell_setting 'orthorhombic'
loop_
_space_group_symop_operation_xyz
x,y,z
1/2-x,-y,z
x,1/2-y,1/2-z
1/2-x,1/2+y,1/2-z
-x,-y,-z
1/2+x,y,-z
-x,1/2+y,1/2+z
1/2+x,1/2-y,1/2+z
loop_
_atom_site_type_symbol
_atom_site_label
_atom_site_fract_x
_atom_site_fract_y
_atom_site_fract_z
Si Si1 0.522930 0.714299 0.375174
Si Si2 0.167402 0.640628 0.940366
Si Si3 0.198581 0.240665 0.631422
Si Si4 0.311941 0.143160 0.142465
Si Si5 0.407991 0.925608 0.005715
O O1 0.514933 0.750000 0.250000
O O2 0.587023 0.824921 0.418139
O O3 0.451536 0.728214 0.441401
O O4 0.547430 0.524499 0.415337
O O5 0.181480 0.444582 0.916088
O O6 0.218074 0.753506 0.865708
O O7 0.193742 0.709578 0.053023
O O8 0.170843 0.250000 0.750000
O O9 0.161477 0.371814 0.554628
O O10 0.317248 0.250000 0.250000
O O11 0.250000 0.000000 0.146892
O O12 0.381476 0.043982 0.102739
#
# Coordination Sequence:
#
# PCOD9411125 Si02
#       5
#     8   8   8   8   8
#     4  10  21  40  64  90 131 177 215 269 330 386
#     4  10  23  40  63  99 129 166 223 267 325 397
#     4  11  22  39  67  97 131 168 216 272 334 387
#     4  11  24  41  67  92 130 173 218 277 331 395
#     4  10  23  42  62  95 129 171 221 272 323 393
#
# _framework density 21.079768999999999
#
# number of rings (size 3 to 8) (size 9 to 14) (size 15 to 20)
#    0.000    1.600    2.000    1.800    2.800    8.000 
#    0.000   13.000    0.000    0.000    0.000    0.000 
#    0.000    0.000    0.000    0.000    0.000    0.000 
#
# Total GULP energy -222857.617490 kJ/mol
# GULP energy per Si atom -5571.440437 kJ/mol
# Density = 2.103179 g / cm^3
# Si number density = 21.079769 Si / 1000 Ang^3
#
#
#
# Elastic Constant Matrix: (Units=GPa)
#
#
# Indices 1 2 3 4 5 6 
#
# 1 71.0467 29.3110 30.5179 0.0000 0.0000 0.0000
# 2 29.3110 69.8554 53.6158 0.0000 0.0000 0.0000
# 3 30.5179 53.6158 179.3855 0.0000 0.0000 0.0000
# 4 0.0000 0.0000 0.0000 31.0758 0.0000 0.0000
# 5 0.0000 0.0000 0.0000 0.0000 23.4321 0.0000
# 6 0.0000 0.0000 0.0000 0.0000 0.0000 21.3652
#
#
#
# Elastic Compliance Matrix: (Units=1/GPa)
#
#
# Indices 1 2 3 4 5 6 
#
# 1 0.017158 -0.006435 -0.000996 0.000000 0.000000 0.000000
# 2 -0.006435 0.020990 -0.005179 0.000000 0.000000 0.000000
# 3 -0.000996 -0.005179 0.007292 0.000000 0.000000 0.000000
# 4 0.000000 0.000000 0.000000 0.032179 0.000000 0.000000
# 5 0.000000 0.000000 0.000000 0.000000 0.042677 0.000000
# 6 0.000000 0.000000 0.000000 0.000000 0.000000 0.046805
#
#
# Mechanical properties :
#
#
# Convention : Reuss Voigt Hill
#
# Bulk Modulus (GPa) = 49.45442 60.79745 55.12593
# Shear Modulus (GPa) = 25.11795 28.96414 27.04105
#
# Velocity S-wave (km/s) = 3.45565 3.71081 3.58550
# Velocity P-wave (km/s) = 6.27962 6.87491 6.58399
#
# Compressibility (1/GPa) = 0.02022064
#
# Stress axis : x y z
#
# Youngs Moduli (GPa) = 58.28253 47.64073 137.13895
#
# Poissons Ratio (x) = 0.30658 0.13653
# Poissons Ratio (y) = 0.37506 0.71024
# Poissons Ratio (z) = 0.05802 0.24673
#
# Static dielectric constant tensor:
#      x y z
#    x 1.869150 0.000000 0.000000 
#    y 0.000000 1.787660 0.000000 
#    z 0.000000 0.000000 1.766060 
# 
# From -- ./inp_files/20300.got.cif
#   From: 2010.05.17/outbox.cif.g08.bks.cpg/sg52_11_cif.got.tgz:20300.got - 2010.06.03 12:15:38.
