data_PCOD9411610
_publ_section_title
;
Structure prediction by ZEFSAII (Michael W. Deem and Ramdas Pophale) SiO2 
 PCOD9411610
Probable space group: P N N A
;
_chemical_formula_sum "Si O2"
_cell_formula_units_Z 48
_cell_length_a 14.394809
_cell_length_b 16.782325
_cell_length_c 9.186753
_cell_angle_alpha 90.000000
_cell_angle_beta 90.000000
_cell_angle_gamma 90.000000
_cell_volume 2219.320751
_symmetry_space_group_name_H-M "P N N A"
_symmetry_group_IT_number 52
_symmetry_cell_setting 'orthorhombic'
loop_
_space_group_symop_operation_xyz
x,y,z
1/2-x,-y,z
x,1/2-y,1/2-z
1/2-x,1/2+y,1/2-z
-x,-y,-z
1/2+x,y,-z
-x,1/2+y,1/2+z
1/2+x,1/2-y,1/2+z
loop_
_atom_site_type_symbol
_atom_site_label
_atom_site_fract_x
_atom_site_fract_y
_atom_site_fract_z
Si Si1 0.729856 0.343654 0.213668
Si Si2 0.471275 0.668311 0.842149
Si Si3 0.236867 0.592560 0.472596
Si Si4 0.401601 0.837388 0.181985
Si Si5 0.067038 0.669849 0.853787
Si Si6 0.521184 0.589369 0.558367
O O1 0.734128 0.250000 0.250000
O O2 0.636168 0.353000 0.120706
O O3 0.722773 0.386976 0.368584
O O4 0.830067 0.366382 0.149288
O O5 0.471226 0.750000 0.750000
O O6 0.505859 0.600923 0.729840
O O7 0.535434 0.681453 0.981317
O O8 0.250000 0.500000 0.448445
O O9 0.298148 0.633236 0.347866
O O10 0.127891 0.611922 0.474279
O O11 0.391816 0.750000 0.250000
O O12 0.480167 0.878307 0.283940
O O13 0.452564 0.850489 0.026963
O O14 0.072324 0.750000 0.750000
O O15 0.500000 0.500000 0.500000
#
# Coordination Sequence:
#
# PCOD9411610 Si02
#       6
#     8   8   8   8   8   8
#     4  10  22  38  66  95 135 182 235 291 362 426
#     4  11  23  40  67 101 133 180 244 292 352 444
#     4  12  24  43  74 102 139 192 240 289 363 448
#     4  11  23  42  69 106 142 180 237 314 363 421
#     4  10  22  40  63  95 142 176 223 302 361 408
#     4  12  24  45  75 103 140 193 250 293 367 452
#
# _framework density 21.628239000000001
#
# number of rings (size 3 to 8) (size 9 to 14) (size 15 to 20)
#    0.000    1.000    5.000    2.000    7.000    2.000 
#    0.000    1.667    0.000    0.000    0.000    0.000 
#    0.000    0.000    0.000    0.000    0.000    0.000 
#
# Total GULP energy -267707.827229 kJ/mol
# GULP energy per Si atom -5577.246401 kJ/mol
# Density = 2.157901 g / cm^3
# Si number density = 21.628239 Si / 1000 Ang^3
#
#
#
# Elastic Constant Matrix: (Units=GPa)
#
#
# Indices 1 2 3 4 5 6 
#
# 1 155.8146 25.6952 49.4203 0.0000 0.0000 0.0000
# 2 25.6952 78.0662 33.3376 0.0000 0.0000 0.0000
# 3 49.4203 33.3376 116.4393 0.0000 0.0000 0.0000
# 4 0.0000 0.0000 0.0000 33.2676 0.0000 0.0000
# 5 0.0000 0.0000 0.0000 0.0000 44.0810 0.0000
# 6 0.0000 0.0000 0.0000 0.0000 0.0000 17.9105
#
#
#
# Elastic Compliance Matrix: (Units=1/GPa)
#
#
# Indices 1 2 3 4 5 6 
#
# 1 0.007525 -0.001268 -0.002831 0.000000 0.000000 0.000000
# 2 -0.001268 0.014808 -0.003701 0.000000 0.000000 0.000000
# 3 -0.002831 -0.003701 0.010849 0.000000 0.000000 0.000000
# 4 0.000000 0.000000 0.000000 0.030059 0.000000 0.000000
# 5 0.000000 0.000000 0.000000 0.000000 0.022686 0.000000
# 6 0.000000 0.000000 0.000000 0.000000 0.000000 0.055833
#
#
# Mechanical properties :
#
#
# Convention : Reuss Voigt Hill
#
# Bulk Modulus (GPa) = 56.87741 63.02513 59.95127
# Shear Modulus (GPa) = 30.63341 35.17629 32.90485
#
# Velocity S-wave (km/s) = 3.76754 4.03725 3.90472
# Velocity P-wave (km/s) = 6.72909 7.13694 6.93602
#
# Compressibility (1/GPa) = 0.01758167
#
# Stress axis : x y z
#
# Youngs Moduli (GPa) = 132.89370 67.53279 92.17133
#
# Poissons Ratio (x) = 0.08563 0.26091
# Poissons Ratio (y) = 0.16850 0.34116
# Poissons Ratio (z) = 0.37619 0.24997
#
# Static dielectric constant tensor:
#      x y z
#    x 1.913510 0.000000 0.000000 
#    y 0.000000 1.820530 0.000000 
#    z 0.000000 0.000000 1.794050 
# 
# From -- ./inp_files/10433.got.cif
#   From: 2010.05.17/outbox.cif.g08.bks.cpg/sg52_6_cif.got.tgz:10433.got - 2010.06.03 12:15:38.
