data_PCOD9411760
_publ_section_title
;
Structure prediction by ZEFSAII (Michael W. Deem and Ramdas Pophale) SiO2 
 PCOD9411760
Probable space group: P N N A
;
_chemical_formula_sum "Si O2"
_cell_formula_units_Z 60
_cell_length_a 8.474463
_cell_length_b 26.477268
_cell_length_c 12.070831
_cell_angle_alpha 90.000000
_cell_angle_beta 90.000000
_cell_angle_gamma 90.000000
_cell_volume 2708.460640
_symmetry_space_group_name_H-M "P N N A"
_symmetry_group_IT_number 52
_symmetry_cell_setting 'orthorhombic'
loop_
_space_group_symop_operation_xyz
x,y,z
1/2-x,-y,z
x,1/2-y,1/2-z
1/2-x,1/2+y,1/2-z
-x,-y,-z
1/2+x,y,-z
-x,1/2+y,1/2+z
1/2+x,1/2-y,1/2+z
loop_
_atom_site_type_symbol
_atom_site_label
_atom_site_fract_x
_atom_site_fract_y
_atom_site_fract_z
Si Si1 0.928821 0.250000 0.750000
Si Si2 0.426215 0.176183 0.927343
Si Si3 0.551292 0.113446 0.726751
Si Si4 0.556657 0.101894 0.342939
Si Si5 0.365413 0.354142 0.328477
Si Si6 0.647262 0.648379 0.037953
Si Si7 0.939993 0.995540 0.626126
Si Si8 0.839347 0.749933 0.051629
O O1 0.829974 0.297056 0.708899
O O2 0.036923 0.265911 0.854068
O O3 0.464634 0.136652 0.832716
O O4 0.281461 0.211154 0.893250
O O5 0.380724 0.146897 0.040358
O O6 0.564095 0.216307 0.962487
O O7 0.730613 0.113120 0.771172
O O8 0.498986 0.149920 0.624865
O O9 0.515950 0.057476 0.682265
O O10 0.530030 0.131226 0.228626
O O11 0.720939 0.113768 0.402468
O O12 0.423643 0.122396 0.429229
O O13 0.523595 0.043568 0.318966
O O14 0.734724 0.701695 0.016510
O O15 0.750000 0.000000 0.627572
O O16 0.000000 0.000000 0.500000
#
# Coordination Sequence:
#
# PCOD9411760 Si02
#       8
#     4   8   8   8   8   8   8   8
#     4  10  22  40  66  92 142 192 236 278 346 408
#     4  11  25  44  69  98 144 194 236 284 351 426
#     4  12  26  45  73 102 137 189 241 295 363 421
#     4  12  24  43  69  99 142 181 230 298 355 419
#     4  11  24  44  66  99 141 189 234 288 349 425
#     4  12  25  41  71 107 142 184 238 287 360 432
#     4  12  25  47  72 103 139 180 232 300 368 425
#     4  11  22  42  64 101 146 189 233 285 341 428
#
# _framework density 22.152805000000001
#
# number of rings (size 3 to 8) (size 9 to 14) (size 15 to 20)
#    0.000    0.533    5.333    3.200    3.733    1.067 
#    0.000    0.667    0.000    0.000    0.000    0.000 
#    0.000    0.000    0.000    0.000    0.000    0.000 
#
# Total GULP energy -335627.075497 kJ/mol
# GULP energy per Si atom -5593.784592 kJ/mol
# Density = 2.210238 g / cm^3
# Si number density = 22.152805 Si / 1000 Ang^3
#
#
#
# Elastic Constant Matrix: (Units=GPa)
#
#
# Indices 1 2 3 4 5 6 
#
# 1 81.0788 38.9515 20.7848 0.0000 0.0000 0.0000
# 2 38.9515 135.2709 52.2985 0.0000 0.0000 0.0000
# 3 20.7848 52.2985 125.7887 0.0000 0.0000 0.0000
# 4 0.0000 0.0000 0.0000 39.1276 0.0000 0.0000
# 5 0.0000 0.0000 0.0000 0.0000 36.6898 0.0000
# 6 0.0000 0.0000 0.0000 0.0000 0.0000 37.5543
#
#
#
# Elastic Compliance Matrix: (Units=1/GPa)
#
#
# Indices 1 2 3 4 5 6 
#
# 1 0.014378 -0.003839 -0.000780 0.000000 0.000000 0.000000
# 2 -0.003839 0.009833 -0.003454 0.000000 0.000000 0.000000
# 3 -0.000780 -0.003454 0.009515 0.000000 0.000000 0.000000
# 4 0.000000 0.000000 0.000000 0.025557 0.000000 0.000000
# 5 0.000000 0.000000 0.000000 0.000000 0.027256 0.000000
# 6 0.000000 0.000000 0.000000 0.000000 0.000000 0.026628
#
#
# Mechanical properties :
#
#
# Convention : Reuss Voigt Hill
#
# Bulk Modulus (GPa) = 56.87987 62.91199 59.89593
# Shear Modulus (GPa) = 36.98991 38.01459 37.50225
#
# Velocity S-wave (km/s) = 4.09071 4.14698 4.11894
# Velocity P-wave (km/s) = 6.93136 7.16873 7.05104
#
# Compressibility (1/GPa) = 0.01758091
#
# Stress axis : x y z
#
# Youngs Moduli (GPa) = 69.55217 101.69508 105.09991
#
# Poissons Ratio (x) = 0.39037 0.08195
# Poissons Ratio (y) = 0.26698 0.36302
# Poissons Ratio (z) = 0.05423 0.35126
#
# Static dielectric constant tensor:
#      x y z
#    x 1.905250 0.000000 0.000000 
#    y 0.000000 1.855650 0.000000 
#    z 0.000000 0.000000 1.822970 
# 
# From -- ./inp_files/17157.got.cif
#   From: 2010.05.17/outbox.cif.g08.bks.cpg/sg52_9_cif.got.tgz:17157.got - 2010.06.03 12:15:38.
