data_PCOD9411316
_publ_section_title
;
Structure prediction by ZEFSAII (Michael W. Deem and Ramdas Pophale) SiO2 
 PCOD9411316
Probable space group: P N N A
;
_chemical_formula_sum "Si O2"
_cell_formula_units_Z 32
_cell_length_a 15.430801
_cell_length_b 7.734860
_cell_length_c 13.554521
_cell_angle_alpha 90.000000
_cell_angle_beta 90.000000
_cell_angle_gamma 90.000000
_cell_volume 1617.801012
_symmetry_space_group_name_H-M "P N N A"
_symmetry_group_IT_number 52
_symmetry_cell_setting 'orthorhombic'
loop_
_space_group_symop_operation_xyz
x,y,z
1/2-x,-y,z
x,1/2-y,1/2-z
1/2-x,1/2+y,1/2-z
-x,-y,-z
1/2+x,y,-z
-x,1/2+y,1/2+z
1/2+x,1/2-y,1/2+z
loop_
_atom_site_type_symbol
_atom_site_label
_atom_site_fract_x
_atom_site_fract_y
_atom_site_fract_z
Si Si1 0.017097 0.001881 0.882920
Si Si2 0.316883 0.840262 0.945630
Si Si3 0.386181 0.250000 0.750000
Si Si4 0.159020 0.091950 0.175895
Si Si5 0.250000 0.000000 0.652546
O O1 0.097094 0.133152 0.879927
O O2 0.054968 0.822586 0.839011
O O3 0.926391 0.030212 0.826921
O O4 0.000000 0.000000 0.000000
O O5 0.279883 0.657980 0.914542
O O6 0.250000 0.000000 0.928779
O O7 0.334921 0.842914 0.062635
O O8 0.325517 0.408696 0.784079
O O9 0.145723 0.250000 0.250000
O O10 0.250000 0.000000 0.199297
#
# Coordination Sequence:
#
# PCOD9411316 Si02
#       5
#     8   8   4   8   4
#     4  10  21  42  65  92 131 169 212 271 326 381
#     4  10  21  42  67  96 134 169 210 277 329 380
#     4  12  22  40  68  96 128 168 216 264 332 396
#     4  10  22  41  65  91 131 175 222 270 320 388
#     4  12  24  40  70 100 130 164 220 266 336 392
#
# _framework density 19.779934999999998
#
# number of rings (size 3 to 8) (size 9 to 14) (size 15 to 20)
#    0.000    1.500    3.750    1.500    1.750    0.000 
#    4.500    5.000    0.000    0.000    0.000    0.000 
#    0.000    0.000    0.000    0.000    0.000    0.000 
#
# Total GULP energy -178362.025234 kJ/mol
# GULP energy per Si atom -5573.813289 kJ/mol
# Density = 1.973491 g / cm^3
# Si number density = 19.779935 Si / 1000 Ang^3
#
#
#
# Elastic Constant Matrix: (Units=GPa)
#
#
# Indices 1 2 3 4 5 6 
#
# 1 146.1920 55.8216 35.6650 0.0000 0.0000 0.0000
# 2 55.8216 116.6251 45.4819 0.0000 0.0000 0.0000
# 3 35.6650 45.4819 78.2942 0.0000 0.0000 0.0000
# 4 0.0000 0.0000 0.0000 41.0135 0.0000 0.0000
# 5 0.0000 0.0000 0.0000 0.0000 77.2176 0.0000
# 6 0.0000 0.0000 0.0000 0.0000 0.0000 33.2879
#
#
#
# Elastic Compliance Matrix: (Units=1/GPa)
#
#
# Indices 1 2 3 4 5 6 
#
# 1 0.008600 -0.003347 -0.001973 0.000000 0.000000 0.000000
# 2 -0.003347 0.012388 -0.005672 0.000000 0.000000 0.000000
# 3 -0.001973 -0.005672 0.016966 0.000000 0.000000 0.000000
# 4 0.000000 0.000000 0.000000 0.024382 0.000000 0.000000
# 5 0.000000 0.000000 0.000000 0.000000 0.012950 0.000000
# 6 0.000000 0.000000 0.000000 0.000000 0.000000 0.030041
#
#
# Mechanical properties :
#
#
# Convention : Reuss Voigt Hill
#
# Bulk Modulus (GPa) = 62.61637 68.33871 65.47754
# Shear Modulus (GPa) = 37.69752 43.91333 40.80542
#
# Velocity S-wave (km/s) = 4.37034 4.71690 4.54692
# Velocity P-wave (km/s) = 7.56252 8.01811 7.79364
#
# Compressibility (1/GPa) = 0.01597027
#
# Stress axis : x y z
#
# Youngs Moduli (GPa) = 116.28504 80.72138 58.94087
#
# Poissons Ratio (x) = 0.27014 0.11631
# Poissons Ratio (y) = 0.38915 0.33432
# Poissons Ratio (z) = 0.22946 0.45786
#
# Static dielectric constant tensor:
#      x y z
#    x 1.827040 0.000000 0.000000 
#    y 0.000000 1.653790 0.000000 
#    z 0.000000 0.000000 1.690720 
# 
# From -- ./inp_files/26712.got.cif
#   From: 2010.05.17/outbox.cif.g08.bks.cpg/sg52_14_cif.got.tgz:26712.got - 2010.06.03 12:15:38.
