data_PCOD9411921
_publ_section_title
;
Structure prediction by ZEFSAII (Michael W. Deem and Ramdas Pophale) SiO2 
 PCOD9411921
Probable space group: P N N A
;
_chemical_formula_sum "Si O2"
_cell_formula_units_Z 40
_cell_length_a 11.126664
_cell_length_b 15.068705
_cell_length_c 10.026720
_cell_angle_alpha 90.000000
_cell_angle_beta 90.000000
_cell_angle_gamma 90.000000
_cell_volume 1681.124168
_symmetry_space_group_name_H-M "P N N A"
_symmetry_group_IT_number 52
_symmetry_cell_setting 'orthorhombic'
loop_
_space_group_symop_operation_xyz
x,y,z
1/2-x,-y,z
x,1/2-y,1/2-z
1/2-x,1/2+y,1/2-z
-x,-y,-z
1/2+x,y,-z
-x,1/2+y,1/2+z
1/2+x,1/2-y,1/2+z
loop_
_atom_site_type_symbol
_atom_site_label
_atom_site_fract_x
_atom_site_fract_y
_atom_site_fract_z
Si Si1 0.624724 0.054564 0.766950
Si Si2 0.776818 0.636810 0.476273
Si Si3 0.078707 0.787907 0.122736
Si Si4 0.106831 0.325110 0.016555
Si Si5 0.901622 0.576524 0.239911
O O1 0.636255 0.089877 0.917536
O O2 0.617588 0.135818 0.662982
O O3 0.750000 0.000000 0.740189
O O4 0.501436 0.999614 0.749528
O O5 0.645895 0.636759 0.540391
O O6 0.806806 0.742033 0.483929
O O7 0.787626 0.587781 0.336547
O O8 0.152403 0.750000 0.250000
O O9 0.973097 0.837895 0.201438
O O10 0.024139 0.714685 0.023646
O O11 0.131489 0.404017 0.912002
#
# Coordination Sequence:
#
# PCOD9411921 Si02
#       5
#     8   8   8   8   8
#     4  12  23  40  69  97 133 175 218 272 335 392
#     4  11  21  40  68  92 128 175 221 260 329 397
#     4   9  18  37  65  91 125 172 215 261 320 394
#     4  10  23  40  66  94 127 175 221 268 321 398
#     4  10  22  42  63  94 132 164 215 279 326 372
#
# _framework density 23.793603000000001
#
# number of rings (size 3 to 8) (size 9 to 14) (size 15 to 20)
#    0.000    1.600    2.000    4.800    2.800    0.000 
#    0.000    9.000    0.000    0.000    0.000    0.000 
#    0.000    0.000    0.000    0.000    0.000    0.000 
#
# Total GULP energy -223290.745604 kJ/mol
# GULP energy per Si atom -5582.268640 kJ/mol
# Density = 2.373945 g / cm^3
# Si number density = 23.793603 Si / 1000 Ang^3
#
#
#
# Elastic Constant Matrix: (Units=GPa)
#
#
# Indices 1 2 3 4 5 6 
#
# 1 44.5194 8.3526 -5.0242 0.0000 0.0000 0.0000
# 2 8.3526 48.9757 -13.7006 0.0000 0.0000 0.0000
# 3 -5.0242 -13.7006 33.3648 0.0000 0.0000 0.0000
# 4 0.0000 0.0000 0.0000 33.4571 0.0000 0.0000
# 5 0.0000 0.0000 0.0000 0.0000 26.0618 0.0000
# 6 0.0000 0.0000 0.0000 0.0000 0.0000 51.8012
#
#
#
# Elastic Compliance Matrix: (Units=1/GPa)
#
#
# Indices 1 2 3 4 5 6 
#
# 1 0.023337 -0.003386 0.002124 0.000000 0.000000 0.000000
# 2 -0.003386 0.023559 0.009164 0.000000 0.000000 0.000000
# 3 0.002124 0.009164 0.034055 0.000000 0.000000 0.000000
# 4 0.000000 0.000000 0.000000 0.029889 0.000000 0.000000
# 5 0.000000 0.000000 0.000000 0.000000 0.038370 0.000000
# 6 0.000000 0.000000 0.000000 0.000000 0.000000 0.019305
#
#
# Mechanical properties :
#
#
# Convention : Reuss Voigt Hill
#
# Bulk Modulus (GPa) = 10.33532 11.79062 11.06297
# Shear Modulus (GPa) = 27.03252 31.41284 29.22268
#
# Velocity S-wave (km/s) = 3.37430 3.63743 3.50833
# Velocity P-wave (km/s) = 4.41977 4.75471 4.59030
#
# Compressibility (1/GPa) = 0.09675560
#
# Stress axis : x y z
#
# Youngs Moduli (GPa) = 42.85033 42.44590 29.36456
#
# Poissons Ratio (x) = 0.14372 -0.06237
# Poissons Ratio (y) = 0.14509 -0.26911
# Poissons Ratio (z) = -0.09101 -0.38899
#
# Static dielectric constant tensor:
#      x y z
#    x 2.090860 0.000000 0.000000 
#    y 0.000000 1.974610 0.000000 
#    z 0.000000 0.000000 2.033460 
# 
# From -- ./inp_files/8499.got.cif
#   From: 2010.05.17/outbox.cif.g08.bks.cpg/sg52_5_cif.got.tgz:8499.got - 2010.06.03 12:15:38.
