data_PCOD9411015
_publ_section_title
;
Structure prediction by ZEFSAII (Michael W. Deem and Ramdas Pophale) SiO2 
 PCOD9411015
Probable space group: P N N A
;
_chemical_formula_sum "Si O2"
_cell_formula_units_Z 52
_cell_length_a 28.441842
_cell_length_b 7.986721
_cell_length_c 11.684634
_cell_angle_alpha 90.000000
_cell_angle_beta 90.000000
_cell_angle_gamma 90.000000
_cell_volume 2654.247069
_symmetry_space_group_name_H-M "P N N A"
_symmetry_group_IT_number 52
_symmetry_cell_setting 'orthorhombic'
loop_
_space_group_symop_operation_xyz
x,y,z
1/2-x,-y,z
x,1/2-y,1/2-z
1/2-x,1/2+y,1/2-z
-x,-y,-z
1/2+x,y,-z
-x,1/2+y,1/2+z
1/2+x,1/2-y,1/2+z
loop_
_atom_site_type_symbol
_atom_site_label
_atom_site_fract_x
_atom_site_fract_y
_atom_site_fract_z
Si Si1 0.319133 0.262558 0.378882
Si Si2 0.250000 0.500000 0.474750
Si Si3 0.750000 0.500000 0.976191
Si Si4 0.304393 0.755733 0.614621
Si Si5 0.054579 0.447280 0.848753
Si Si6 0.026881 0.750000 0.250000
Si Si7 0.081964 0.744120 0.488374
Si Si8 0.405297 0.895184 0.890081
O O1 0.336794 0.250000 0.250000
O O2 0.294744 0.441700 0.402173
O O3 0.362613 0.228387 0.463055
O O4 0.276284 0.133615 0.396579
O O5 0.263242 0.647573 0.559545
O O6 0.708095 0.432459 0.057980
O O7 0.301760 0.750000 0.750000
O O8 0.353504 0.670919 0.580217
O O9 0.062409 0.268617 0.912042
O O10 0.092714 0.442150 0.745630
O O11 0.006273 0.411931 0.779235
O O12 0.061026 0.606804 0.930766
O O13 0.056558 0.732664 0.365663
O O14 0.078845 0.562114 0.546733
#
# Coordination Sequence:
#
# PCOD9411015 Si02
#       8
#     8   4   4   8   8   4   8   8
#     4  11  22  39  60  85 121 163 210 256 308 372
#     4  10  22  36  56  88 122 164 204 256 306 360
#     4  10  24  36  58  84 120 172 204 254 314 366
#     4  11  19  37  55  88 125 158 208 256 309 370
#     4  10  23  42  65  95 129 167 203 272 332 382
#     4  10  24  44  68  96 130 164 218 276 314 398
#     4  12  22  42  68  95 127 169 216 260 329 388
#     4  10  21  39  65  93 127 165 209 262 319 388
#
# _framework density 19.591244
#
# number of rings (size 3 to 8) (size 9 to 14) (size 15 to 20)
#    0.000    1.538    3.846    2.769    0.000    2.462 
#    0.000    3.846    0.000    0.000    0.000    0.000 
#    0.000    0.000    0.000    0.000    0.000    0.000 
#
# Total GULP energy -289627.475047 kJ/mol
# GULP energy per Si atom -5569.759136 kJ/mol
# Density = 1.954665 g / cm^3
# Si number density = 19.591244 Si / 1000 Ang^3
#
#
#
# Elastic Constant Matrix: (Units=GPa)
#
#
# Indices 1 2 3 4 5 6 
#
# 1 73.4214 30.0276 28.3982 0.0000 0.0000 0.0000
# 2 30.0276 117.5920 60.9773 0.0000 0.0000 0.0000
# 3 28.3982 60.9773 89.9869 0.0000 0.0000 0.0000
# 4 0.0000 0.0000 0.0000 20.5954 0.0000 0.0000
# 5 0.0000 0.0000 0.0000 0.0000 30.2796 0.0000
# 6 0.0000 0.0000 0.0000 0.0000 0.0000 26.1897
#
#
#
# Elastic Compliance Matrix: (Units=1/GPa)
#
#
# Indices 1 2 3 4 5 6 
#
# 1 0.015889 -0.002247 -0.003492 0.000000 0.000000 0.000000
# 2 -0.002247 0.013429 -0.008391 0.000000 0.000000 0.000000
# 3 -0.003492 -0.008391 0.017900 0.000000 0.000000 0.000000
# 4 0.000000 0.000000 0.000000 0.048554 0.000000 0.000000
# 5 0.000000 0.000000 0.000000 0.000000 0.033026 0.000000
# 6 0.000000 0.000000 0.000000 0.000000 0.000000 0.038183
#
#
# Mechanical properties :
#
#
# Convention : Reuss Voigt Hill
#
# Bulk Modulus (GPa) = 52.74258 57.75626 55.24942
# Shear Modulus (GPa) = 24.80652 26.18609 25.49631
#
# Velocity S-wave (km/s) = 3.56224 3.65995 3.61142
# Velocity P-wave (km/s) = 6.62566 6.88513 6.75664
#
# Compressibility (1/GPa) = 0.01896001
#
# Stress axis : x y z
#
# Youngs Moduli (GPa) = 62.93465 74.46802 55.86474
#
# Poissons Ratio (x) = 0.16730 0.19508
# Poissons Ratio (y) = 0.14139 0.46873
# Poissons Ratio (z) = 0.21977 0.62483
#
# Static dielectric constant tensor:
#      x y z
#    x 1.740300 0.000000 0.000000 
#    y 0.000000 1.821680 0.000000 
#    z 0.000000 0.000000 1.668300 
# 
# From -- ./inp_files/22856.got.cif
#   From: 2010.05.17/outbox.cif.g08.bks.cpg/sg52_12_cif.got.tgz:22856.got - 2010.06.03 12:15:38.
