data_PCOD9411153
_publ_section_title
;
Structure prediction by ZEFSAII (Michael W. Deem and Ramdas Pophale) SiO2 
 PCOD9411153
Probable space group: P N N A
;
_chemical_formula_sum "Si O2"
_cell_formula_units_Z 48
_cell_length_a 11.999487
_cell_length_b 9.683121
_cell_length_c 18.851069
_cell_angle_alpha 90.000000
_cell_angle_beta 90.000000
_cell_angle_gamma 90.000000
_cell_volume 2190.352544
_symmetry_space_group_name_H-M "P N N A"
_symmetry_group_IT_number 52
_symmetry_cell_setting 'orthorhombic'
loop_
_space_group_symop_operation_xyz
x,y,z
1/2-x,-y,z
x,1/2-y,1/2-z
1/2-x,1/2+y,1/2-z
-x,-y,-z
1/2+x,y,-z
-x,1/2+y,1/2+z
1/2+x,1/2-y,1/2+z
loop_
_atom_site_type_symbol
_atom_site_label
_atom_site_fract_x
_atom_site_fract_y
_atom_site_fract_z
Si Si1 0.905271 0.145954 0.529652
Si Si2 0.750000 0.500000 0.074969
Si Si3 0.722017 0.289298 0.606645
Si Si4 0.577568 0.041300 0.659813
Si Si5 0.997513 0.123358 0.056170
Si Si6 0.750000 0.500000 0.720484
Si Si7 0.145395 0.777689 0.667496
O O1 0.853587 0.028949 0.478294
O O2 0.808859 0.259693 0.544858
O O3 0.996085 0.232757 0.487779
O O4 0.936964 0.084171 0.605355
O O5 0.759624 0.364769 0.125468
O O6 0.668009 0.142914 0.624424
O O7 0.618104 0.387030 0.590874
O O8 0.770717 0.362352 0.675016
O O9 0.462543 0.121362 0.670706
O O10 0.638693 0.010600 0.732784
O O11 0.902346 0.151522 0.117154
O O12 0.000000 0.000000 0.000000
O O13 0.175011 0.750000 0.750000
#
# Coordination Sequence:
#
# PCOD9411153 Si02
#       7
#     8   4   8   8   8   4   8
#     4  11  21  37  62  96 119 167 215 261 312 389
#     4  10  21  40  66  85 122 160 224 256 312 381
#     4  11  21  36  58  86 129 163 204 260 325 378
#     4  11  21  36  61  93 126 159 217 255 324 385
#     4  10  23  40  61  92 129 163 212 265 326 381
#     4  12  21  34  58  89 132 166 198 262 332 389
#     4  10  23  42  68  89 126 173 213 268 324 387
#
# _framework density 21.914280000000002
#
# number of rings (size 3 to 8) (size 9 to 14) (size 15 to 20)
#    0.000    1.333    3.333    3.500    2.333    2.000 
#    0.000    3.333    3.667    0.000    0.000    0.000 
#    0.000    0.000    0.000    0.000    0.000    0.000 
#
# Total GULP energy -267771.532290 kJ/mol
# GULP energy per Si atom -5578.573589 kJ/mol
# Density = 2.186440 g / cm^3
# Si number density = 21.914280 Si / 1000 Ang^3
#
#
#
# Elastic Constant Matrix: (Units=GPa)
#
#
# Indices 1 2 3 4 5 6 
#
# 1 36.5399 16.5672 16.9357 0.0000 0.0000 0.0000
# 2 16.5672 71.3251 49.6320 0.0000 0.0000 0.0000
# 3 16.9357 49.6320 137.3440 0.0000 0.0000 0.0000
# 4 0.0000 0.0000 0.0000 58.6741 0.0000 0.0000
# 5 0.0000 0.0000 0.0000 0.0000 32.8230 0.0000
# 6 0.0000 0.0000 0.0000 0.0000 0.0000 12.9185
#
#
#
# Elastic Compliance Matrix: (Units=1/GPa)
#
#
# Indices 1 2 3 4 5 6 
#
# 1 0.030857 -0.006038 -0.001623 0.000000 0.000000 0.000000
# 2 -0.006038 0.019912 -0.006451 0.000000 0.000000 0.000000
# 3 -0.001623 -0.006451 0.009812 0.000000 0.000000 0.000000
# 4 0.000000 0.000000 0.000000 0.017043 0.000000 0.000000
# 5 0.000000 0.000000 0.000000 0.000000 0.030466 0.000000
# 6 0.000000 0.000000 0.000000 0.000000 0.000000 0.077409
#
#
# Mechanical properties :
#
#
# Convention : Reuss Voigt Hill
#
# Bulk Modulus (GPa) = 30.90500 45.71988 38.31244
# Shear Modulus (GPa) = 22.27079 31.68807 26.97943
#
# Velocity S-wave (km/s) = 3.19135 3.80676 3.51256
# Velocity P-wave (km/s) = 5.26431 6.34273 5.82851
#
# Compressibility (1/GPa) = 0.03235722
#
# Stress axis : x y z
#
# Youngs Moduli (GPa) = 32.40732 50.22163 101.91293
#
# Poissons Ratio (x) = 0.30324 0.16540
# Poissons Ratio (y) = 0.19568 0.65744
# Poissons Ratio (z) = 0.05260 0.32398
#
# Static dielectric constant tensor:
#      x y z
#    x 1.871880 0.000000 0.000000 
#    y 0.000000 1.841140 0.000000 
#    z 0.000000 0.000000 1.858900 
# 
# From -- ./inp_files/33099.got.cif
#   From: 2010.05.17/outbox.cif.g08.bks.cpg/sg52_17_cif.got.tgz:33099.got - 2010.06.03 12:15:38.
