data_PCOD9411686
_publ_section_title
;
Structure prediction by ZEFSAII (Michael W. Deem and Ramdas Pophale) SiO2 
 PCOD9411686
Probable space group: P N N A
;
_chemical_formula_sum "Si O2"
_cell_formula_units_Z 48
_cell_length_a 14.401845
_cell_length_b 25.757752
_cell_length_c 6.459768
_cell_angle_alpha 90.000000
_cell_angle_beta 90.000000
_cell_angle_gamma 90.000000
_cell_volume 2396.310058
_symmetry_space_group_name_H-M "P N N A"
_symmetry_group_IT_number 52
_symmetry_cell_setting 'orthorhombic'
loop_
_space_group_symop_operation_xyz
x,y,z
1/2-x,-y,z
x,1/2-y,1/2-z
1/2-x,1/2+y,1/2-z
-x,-y,-z
1/2+x,y,-z
-x,1/2+y,1/2+z
1/2+x,1/2-y,1/2+z
loop_
_atom_site_type_symbol
_atom_site_label
_atom_site_fract_x
_atom_site_fract_y
_atom_site_fract_z
Si Si1 0.750000 0.000000 0.183635
Si Si2 0.892615 0.007412 0.546641
Si Si3 0.973049 0.750000 0.250000
Si Si4 0.328059 0.580342 0.370598
Si Si5 0.516329 0.155523 0.011103
Si Si6 0.846504 0.377066 0.807646
Si Si7 0.409075 0.202448 0.627484
O O1 0.837297 0.006613 0.332551
O O2 0.730159 0.049137 0.040897
O O3 0.872056 0.063182 0.646737
O O4 0.856875 0.961245 0.694980
O O5 0.000000 0.000000 0.500000
O O6 0.035452 0.771294 0.438376
O O7 0.928027 0.800503 0.143210
O O8 0.418355 0.606678 0.468897
O O9 0.257834 0.622839 0.278274
O O10 0.424088 0.142526 0.144780
O O11 0.480403 0.177188 0.791167
O O12 0.851643 0.342711 0.015916
O O13 0.360286 0.250000 0.750000
#
# Coordination Sequence:
#
# PCOD9411686 Si02
#       7
#     4   8   4   8   8   8   8
#     4  12  24  44  62  90 144 172 210 280 316 390
#     4  12  25  42  65  95 133 175 221 264 324 398
#     4   8  18  42  64  94 120 154 226 270 322 404
#     4  12  25  41  62 100 136 172 222 265 330 407
#     4  10  22  39  71  89 123 175 210 274 336 388
#     4  11  22  40  61  98 131 162 222 268 318 404
#     4   9  19  39  70  88 122 168 215 272 334 378
#
# _framework density 20.030795999999999
#
# number of rings (size 3 to 8) (size 9 to 14) (size 15 to 20)
#    0.000    1.333    3.333    2.000    4.667    2.667 
#    0.000    0.000   44.000    0.000    0.000    0.000 
#    0.000    0.000    0.000    0.000    0.000    0.000 
#
# Total GULP energy -267928.624419 kJ/mol
# GULP energy per Si atom -5581.846342 kJ/mol
# Density = 1.998521 g / cm^3
# Si number density = 20.030796 Si / 1000 Ang^3
#
#
#
# Elastic Constant Matrix: (Units=GPa)
#
#
# Indices 1 2 3 4 5 6 
#
# 1 89.4873 21.6211 41.0949 0.0000 0.0000 0.0000
# 2 21.6211 98.6873 50.0933 0.0000 0.0000 0.0000
# 3 41.0949 50.0933 131.2019 0.0000 0.0000 0.0000
# 4 0.0000 0.0000 0.0000 52.0179 0.0000 0.0000
# 5 0.0000 0.0000 0.0000 0.0000 18.2562 0.0000
# 6 0.0000 0.0000 0.0000 0.0000 0.0000 8.7912
#
#
#
# Elastic Compliance Matrix: (Units=1/GPa)
#
#
# Indices 1 2 3 4 5 6 
#
# 1 0.013128 -0.000979 -0.003738 0.000000 0.000000 0.000000
# 2 -0.000979 0.012642 -0.004520 0.000000 0.000000 0.000000
# 3 -0.003738 -0.004520 0.010519 0.000000 0.000000 0.000000
# 4 0.000000 0.000000 0.000000 0.019224 0.000000 0.000000
# 5 0.000000 0.000000 0.000000 0.000000 0.054776 0.000000
# 6 0.000000 0.000000 0.000000 0.000000 0.000000 0.113750
#
#
# Mechanical properties :
#
#
# Convention : Reuss Voigt Hill
#
# Bulk Modulus (GPa) = 56.13502 60.55500 58.34501
# Shear Modulus (GPa) = 20.12470 29.58421 24.85445
#
# Velocity S-wave (km/s) = 3.17312 3.84726 3.52634
# Velocity P-wave (km/s) = 6.44283 7.07332 6.76542
#
# Compressibility (1/GPa) = 0.01781419
#
# Stress axis : x y z
#
# Youngs Moduli (GPa) = 76.17347 79.10244 95.07009
#
# Poissons Ratio (x) = 0.07741 0.35540
# Poissons Ratio (y) = 0.07454 0.42973
# Poissons Ratio (z) = 0.28476 0.35756
#
# Static dielectric constant tensor:
#      x y z
#    x 1.687860 0.000000 0.000000 
#    y 0.000000 1.756860 0.000000 
#    z 0.000000 0.000000 1.721670 
# 
# From -- ./inp_files/2507.got.cif
#   From: 2010.05.17/outbox.cif.g08.bks.cpg/sg52_2_cif.got.tgz:2507.got - 2010.06.03 12:15:38.
