data_PCOD9411099
_publ_section_title
;
Structure prediction by ZEFSAII (Michael W. Deem and Ramdas Pophale) SiO2 
 PCOD9411099
Probable space group: P N N A
;
_chemical_formula_sum "Si O2"
_cell_formula_units_Z 60
_cell_length_a 21.131955
_cell_length_b 13.299833
_cell_length_c 9.943065
_cell_angle_alpha 90.000000
_cell_angle_beta 90.000000
_cell_angle_gamma 90.000000
_cell_volume 2794.513059
_symmetry_space_group_name_H-M "P N N A"
_symmetry_group_IT_number 52
_symmetry_cell_setting 'orthorhombic'
loop_
_space_group_symop_operation_xyz
x,y,z
1/2-x,-y,z
x,1/2-y,1/2-z
1/2-x,1/2+y,1/2-z
-x,-y,-z
1/2+x,y,-z
-x,1/2+y,1/2+z
1/2+x,1/2-y,1/2+z
loop_
_atom_site_type_symbol
_atom_site_label
_atom_site_fract_x
_atom_site_fract_y
_atom_site_fract_z
Si Si1 0.925442 0.421418 0.935800
Si Si2 0.180029 0.983917 0.231976
Si Si3 0.555278 0.356805 0.015563
Si Si4 0.662934 0.674605 0.124965
Si Si5 0.250000 0.000000 0.717211
Si Si6 0.143212 0.360720 0.723240
Si Si7 0.629046 0.327203 0.566348
Si Si8 0.227063 0.703591 0.398998
O O1 0.868654 0.424919 0.827693
O O2 0.985545 0.348513 0.918767
O O3 0.945980 0.537975 0.937104
O O4 0.898128 0.388555 0.080887
O O5 0.203022 0.910532 0.113237
O O6 0.250000 0.000000 0.301810
O O7 0.144161 0.082918 0.172641
O O8 0.602377 0.372515 0.141975
O O9 0.582199 0.268504 0.918844
O O10 0.656510 0.750000 0.250000
O O11 0.717621 0.591435 0.139479
O O12 0.680885 0.742152 0.999105
O O13 0.194655 0.053839 0.796306
O O14 0.172526 0.250000 0.750000
O O15 0.106689 0.362596 0.581932
O O16 0.700905 0.286122 0.550739
O O17 0.226363 0.750000 0.250000
#
# Coordination Sequence:
#
# PCOD9411099 Si02
#       8
#     8   8   8   8   4   8   8   8
#     4  11  24  45  67  96 136 186 233 290 345 427
#     4  10  24  41  68 105 140 176 229 296 369 421
#     4  10  23  45  67  94 135 186 241 283 342 429
#     4  12  26  42  66 100 133 182 230 287 355 413
#     4  12  22  36  68  96 134 168 210 290 346 410
#     4  10  21  40  62  98 132 175 223 278 354 412
#     4  10  23  40  68 100 132 179 229 287 345 433
#     4  11  23  41  65 104 143 176 221 293 365 419
#
# _framework density 21.470645000000001
#
# number of rings (size 3 to 8) (size 9 to 14) (size 15 to 20)
#    0.000    1.333    2.667    2.800    9.333    0.000 
#   12.000    0.667    0.000    0.000    0.000    0.000 
#    0.000    0.000    0.000    0.000    0.000    0.000 
#
# Total GULP energy -334243.109263 kJ/mol
# GULP energy per Si atom -5570.718488 kJ/mol
# Density = 2.142178 g / cm^3
# Si number density = 21.470645 Si / 1000 Ang^3
#
#
#
# Elastic Constant Matrix: (Units=GPa)
#
#
# Indices 1 2 3 4 5 6 
#
# 1 93.5800 54.4042 13.4679 0.0000 0.0000 0.0000
# 2 54.4042 113.4826 32.7846 0.0000 0.0000 0.0000
# 3 13.4679 32.7846 62.3269 0.0000 0.0000 0.0000
# 4 0.0000 0.0000 0.0000 28.9949 0.0000 0.0000
# 5 0.0000 0.0000 0.0000 0.0000 18.2043 0.0000
# 6 0.0000 0.0000 0.0000 0.0000 0.0000 28.4166
#
#
#
# Elastic Compliance Matrix: (Units=1/GPa)
#
#
# Indices 1 2 3 4 5 6 
#
# 1 0.014836 -0.007295 0.000631 0.000000 0.000000 0.000000
# 2 -0.007295 0.013978 -0.005776 0.000000 0.000000 0.000000
# 3 0.000631 -0.005776 0.018946 0.000000 0.000000 0.000000
# 4 0.000000 0.000000 0.000000 0.034489 0.000000 0.000000
# 5 0.000000 0.000000 0.000000 0.000000 0.054932 0.000000
# 6 0.000000 0.000000 0.000000 0.000000 0.000000 0.035191
#
#
# Mechanical properties :
#
#
# Convention : Reuss Voigt Hill
#
# Bulk Modulus (GPa) = 43.70466 52.30031 48.00248
# Shear Modulus (GPa) = 24.40471 26.37203 25.38837
#
# Velocity S-wave (km/s) = 3.37509 3.50849 3.44243
# Velocity P-wave (km/s) = 5.96557 6.38941 6.18112
#
# Compressibility (1/GPa) = 0.02288085
#
# Stress axis : x y z
#
# Youngs Moduli (GPa) = 67.40264 71.54171 52.78066
#
# Poissons Ratio (x) = 0.52189 -0.03332
# Poissons Ratio (y) = 0.49170 0.30487
# Poissons Ratio (z) = -0.04255 0.41324
#
# Static dielectric constant tensor:
#      x y z
#    x 1.834390 0.000000 0.000000 
#    y 0.000000 0.958490 0.000000 
#    z 0.000000 0.000000 1.798890 
# 
# From -- ./inp_files/21773.got.cif
#   From: 2010.05.17/outbox.cif.g08.bks.cpg/sg52_11_cif.got.tgz:21773.got - 2010.06.03 12:15:38.
