data_PCOD9411369
_publ_section_title
;
Structure prediction by ZEFSAII (Michael W. Deem and Ramdas Pophale) SiO2 
 PCOD9411369
Probable space group: P N N A
;
_chemical_formula_sum "Si O2"
_cell_formula_units_Z 44
_cell_length_a 17.970248
_cell_length_b 14.169691
_cell_length_c 7.600902
_cell_angle_alpha 90.000000
_cell_angle_beta 90.000000
_cell_angle_gamma 90.000000
_cell_volume 1935.439425
_symmetry_space_group_name_H-M "P N N A"
_symmetry_group_IT_number 52
_symmetry_cell_setting 'orthorhombic'
loop_
_space_group_symop_operation_xyz
x,y,z
1/2-x,-y,z
x,1/2-y,1/2-z
1/2-x,1/2+y,1/2-z
-x,-y,-z
1/2+x,y,-z
-x,1/2+y,1/2+z
1/2+x,1/2-y,1/2+z
loop_
_atom_site_type_symbol
_atom_site_label
_atom_site_fract_x
_atom_site_fract_y
_atom_site_fract_z
Si Si1 0.258486 0.750000 0.250000
Si Si2 0.354784 0.124865 0.463038
Si Si3 0.481518 0.237872 0.040950
Si Si4 0.132938 0.149304 0.998897
Si Si5 0.617713 0.560477 0.573230
Si Si6 0.274124 0.140590 0.791370
O O1 0.203250 0.797758 0.388035
O O2 0.311654 0.675362 0.343307
O O3 0.430666 0.176366 0.528397
O O4 0.372072 0.066591 0.285312
O O5 0.310531 0.083580 0.628669
O O6 0.477054 0.250000 0.250000
O O7 0.567590 0.226441 0.996509
O O8 0.441058 0.138438 0.009102
O O9 0.185757 0.145263 0.826228
O O10 0.099750 0.045755 0.022893
O O11 0.690611 0.593531 0.465288
O O12 0.296313 0.250000 0.750000
#
# Coordination Sequence:
#
# PCOD9411369 Si02
#       6
#     4   8   8   8   8   8
#     4  12  22  42  66  92 134 174 222 270 334 396
#     4  11  21  44  69  92 129 190 219 256 344 420
#     4  10  21  42  70  94 134 185 218 268 342 406
#     4  12  25  40  65 108 133 166 230 293 323 381
#     4  11  23  45  66  97 136 178 221 271 338 402
#     4  12  21  39  70  94 129 174 228 272 331 397
#
# _framework density 22.733854999999998
#
# number of rings (size 3 to 8) (size 9 to 14) (size 15 to 20)
#    0.000    0.727    8.182    1.636    0.000    1.455 
#    6.545    0.000    0.000    5.455    0.000    0.000 
#    0.000    0.000    0.000    0.000    0.000    0.000 
#
# Total GULP energy -245583.454486 kJ/mol
# GULP energy per Si atom -5581.442147 kJ/mol
# Density = 2.268211 g / cm^3
# Si number density = 22.733855 Si / 1000 Ang^3
#
#
#
# Elastic Constant Matrix: (Units=GPa)
#
#
# Indices 1 2 3 4 5 6 
#
# 1 133.7561 9.0530 39.6019 0.0000 0.0000 0.0000
# 2 9.0530 46.0834 2.3695 0.0000 0.0000 0.0000
# 3 39.6019 2.3695 85.5193 0.0000 0.0000 0.0000
# 4 0.0000 0.0000 0.0000 8.6014 0.0000 0.0000
# 5 0.0000 0.0000 0.0000 0.0000 -149.1578 0.0000
# 6 0.0000 0.0000 0.0000 0.0000 0.0000 25.0802
#
#
#
# Elastic Compliance Matrix: (Units=1/GPa)
#
#
# Indices 1 2 3 4 5 6 
#
# 1 0.008769 -0.001516 -0.004019 0.000000 0.000000 0.000000
# 2 -0.001516 0.021993 0.000093 0.000000 0.000000 0.000000
# 3 -0.004019 0.000093 0.013552 0.000000 0.000000 0.000000
# 4 0.000000 0.000000 0.000000 0.116260 0.000000 0.000000
# 5 0.000000 0.000000 0.000000 0.000000 -0.006704 0.000000
# 6 0.000000 0.000000 0.000000 0.000000 0.000000 0.039872
#
#
# Mechanical properties :
#
#
# Convention : Reuss Voigt Hill
#
# Bulk Modulus (GPa) = 29.91382 40.82307 35.36844
# Shear Modulus (GPa) = 23.17310 -8.80628 7.18341
#
# Velocity S-wave (km/s) = 3.19614 -1.97029 1.77951
# Velocity P-wave (km/s) = 5.17758 3.58048 4.45124
#
# Compressibility (1/GPa) = 0.03342937
#
# Stress axis : x y z
#
# Youngs Moduli (GPa) = 114.04199 45.46933 73.79202
#
# Poissons Ratio (x) = 0.06893 0.29654
# Poissons Ratio (y) = 0.17288 -0.00684
# Poissons Ratio (z) = 0.45829 -0.00421
#
# Static dielectric constant tensor:
#      x y z
#    x 1.884800 0.000000 0.000000 
#    y 0.000000 1.868770 0.000000 
#    z 0.000000 0.000000 1.944470 
# 
# From -- ./inp_files/11937.got.cif
#   From: 2010.05.17/outbox.cif.g08.bks.cpg/sg52_6_cif.got.tgz:11937.got - 2010.06.03 12:15:38.
