data_PCOD9411439
_publ_section_title
;
Structure prediction by ZEFSAII (Michael W. Deem and Ramdas Pophale) SiO2 
 PCOD9411439
Probable space group: P N N A
;
_chemical_formula_sum "Si O2"
_cell_formula_units_Z 48
_cell_length_a 9.053033
_cell_length_b 7.514118
_cell_length_c 27.914637
_cell_angle_alpha 90.000000
_cell_angle_beta 90.000000
_cell_angle_gamma 90.000000
_cell_volume 1898.908764
_symmetry_space_group_name_H-M "P N N A"
_symmetry_group_IT_number 52
_symmetry_cell_setting 'orthorhombic'
loop_
_space_group_symop_operation_xyz
x,y,z
1/2-x,-y,z
x,1/2-y,1/2-z
1/2-x,1/2+y,1/2-z
-x,-y,-z
1/2+x,y,-z
-x,1/2+y,1/2+z
1/2+x,1/2-y,1/2+z
loop_
_atom_site_type_symbol
_atom_site_label
_atom_site_fract_x
_atom_site_fract_y
_atom_site_fract_z
Si Si1 0.945754 0.384287 0.588849
Si Si2 0.577093 0.030582 0.806322
Si Si3 0.124135 0.109921 0.529025
Si Si4 0.361362 0.749919 0.069416
Si Si5 0.948781 0.362281 0.157545
Si Si6 0.344638 0.736285 0.799825
O O1 0.971437 0.473917 0.639482
O O2 0.789307 0.287512 0.597428
O O3 0.932784 0.560258 0.556756
O O4 0.056152 0.250260 0.564774
O O5 0.461672 0.891112 0.784019
O O6 0.750000 0.000000 0.796434
O O7 0.549690 0.241309 0.807691
O O8 0.200483 0.189180 0.481731
O O9 0.250000 0.000000 0.555168
O O10 0.000000 0.000000 0.500000
O O11 0.471098 0.641630 0.104816
O O12 0.789475 0.260291 0.160936
O O13 0.926993 0.559219 0.179769
O O14 0.252492 0.750000 0.750000
#
# Coordination Sequence:
#
# PCOD9411439 Si02
#       6
#     8   8   8   8   8   8
#     4  10  21  45  68  98 141 188 248 304 371 428
#     4  11  23  47  75 104 146 191 248 302 368 451
#     4  12  25  39  65 102 145 190 246 311 369 435
#     4  10  21  45  70  97 138 194 243 308 362 444
#     4  10  24  46  77 106 141 198 236 301 378 444
#     4  11  27  46  73 114 148 186 237 310 378 459
#
# _framework density 25.277678000000002
#
# number of rings (size 3 to 8) (size 9 to 14) (size 15 to 20)
#    0.000    1.333    5.000    1.000    7.000    2.000 
#    3.000    1.667    0.000    0.000    0.000    0.000 
#    0.000    0.000    0.000    0.000    0.000    0.000 
#
# Total GULP energy -267318.866934 kJ/mol
# GULP energy per Si atom -5569.143061 kJ/mol
# Density = 2.522014 g / cm^3
# Si number density = 25.277678 Si / 1000 Ang^3
#
#
#
# Elastic Constant Matrix: (Units=GPa)
#
#
# Indices 1 2 3 4 5 6 
#
# 1 97.1043 57.9491 19.2781 0.0000 0.0000 0.0000
# 2 57.9491 72.0664 7.0638 0.0000 0.0000 0.0000
# 3 19.2781 7.0638 77.5952 0.0000 0.0000 0.0000
# 4 0.0000 0.0000 0.0000 580.9445 0.0000 0.0000
# 5 0.0000 0.0000 0.0000 0.0000 -4.6871 0.0000
# 6 0.0000 0.0000 0.0000 0.0000 0.0000 52.1594
#
#
#
# Elastic Compliance Matrix: (Units=1/GPa)
#
#
# Indices 1 2 3 4 5 6 
#
# 1 0.020789 -0.016356 -0.003676 0.000000 0.000000 0.000000
# 2 -0.016356 0.026870 0.001618 0.000000 0.000000 0.000000
# 3 -0.003676 0.001618 0.013653 0.000000 0.000000 0.000000
# 4 0.000000 0.000000 0.000000 0.001721 0.000000 0.000000
# 5 0.000000 0.000000 0.000000 0.000000 -0.213350 0.000000
# 6 0.000000 0.000000 0.000000 0.000000 0.000000 0.019172
#
#
# Mechanical properties :
#
#
# Convention : Reuss Voigt Hill
#
# Bulk Modulus (GPa) = 40.84491 46.14975 43.49733
# Shear Modulus (GPa) = -58.03529 136.51501 39.23986
#
# Velocity S-wave (km/s) = -4.79676 7.35686 3.94426
# Velocity P-wave (km/s) = 3.80592 9.51111 6.16345
#
# Compressibility (1/GPa) = 0.02448285
#
# Stress axis : x y z
#
# Youngs Moduli (GPa) = 48.10264 37.21669 73.24188
#
# Poissons Ratio (x) = 0.60872 0.26923
# Poissons Ratio (y) = 0.78678 -0.11847
# Poissons Ratio (z) = 0.17682 -0.06020
#
# Static dielectric constant tensor:
#      x y z
#    x 2.017840 0.000000 0.000000 
#    y 0.000000 0.954700 0.000000 
#    z 0.000000 0.000000 1.976600 
# 
# From -- ./inp_files/44399.got.cif
#   From: 2010.05.17/outbox.cif.g08.bks.cpg/sg52_23_cif.got.tgz:44399.got - 2010.06.03 12:15:38.
