data_PCOD9411025
_publ_section_title
;
Structure prediction by ZEFSAII (Michael W. Deem and Ramdas Pophale) SiO2 
 PCOD9411025
Probable space group: P N N A
;
_chemical_formula_sum "Si O2"
_cell_formula_units_Z 24
_cell_length_a 26.933666
_cell_length_b 4.993278
_cell_length_c 8.007929
_cell_angle_alpha 90.000000
_cell_angle_beta 90.000000
_cell_angle_gamma 90.000000
_cell_volume 1076.964605
_symmetry_space_group_name_H-M "P N N A"
_symmetry_group_IT_number 52
_symmetry_cell_setting 'orthorhombic'
loop_
_space_group_symop_operation_xyz
x,y,z
1/2-x,-y,z
x,1/2-y,1/2-z
1/2-x,1/2+y,1/2-z
-x,-y,-z
1/2+x,y,-z
-x,1/2+y,1/2+z
1/2+x,1/2-y,1/2+z
loop_
_atom_site_type_symbol
_atom_site_label
_atom_site_fract_x
_atom_site_fract_y
_atom_site_fract_z
Si Si1 0.894783 0.347787 0.065451
Si Si2 0.785311 0.245917 0.551172
Si Si3 0.449241 0.627619 0.430826
O O1 0.909427 0.250000 0.250000
O O2 0.835618 0.320347 0.047321
O O3 0.921083 0.633170 0.030951
O O4 0.913759 0.127889 0.934036
O O5 0.750000 0.500000 0.512257
O O6 0.797619 0.250000 0.750000
O O7 0.750000 0.000000 0.520683
O O8 0.458644 0.750000 0.250000
O O9 0.500000 0.500000 0.500000
#
# Coordination Sequence:
#
# PCOD9411025 Si02
#       3
#     8   8   8
#     4  12  26  44  69 103 140 178 226 284 345 406
#     4  10  21  39  65  97 134 178 225 273 334 406
#     4  12  26  47  71  98 134 180 231 283 343 410
#
# _framework density 22.284853999999999
#
# number of rings (size 3 to 8) (size 9 to 14) (size 15 to 20)
#    0.000    0.667    0.000    8.000    0.000    6.667 
#    0.000    0.000    0.000    0.000    0.000    0.000 
#    0.000    0.000    0.000    0.000    0.000    0.000 
#
# Total GULP energy -134127.590990 kJ/mol
# GULP energy per Si atom -5588.649625 kJ/mol
# Density = 2.223413 g / cm^3
# Si number density = 22.284854 Si / 1000 Ang^3
#
#
#
# Elastic Constant Matrix: (Units=GPa)
#
#
# Indices 1 2 3 4 5 6 
#
# 1 155.2786 66.6878 48.8787 0.0000 0.0000 0.0000
# 2 66.6878 190.6280 39.0665 0.0000 0.0000 0.0000
# 3 48.8787 39.0665 93.7879 0.0000 0.0000 0.0000
# 4 0.0000 0.0000 0.0000 31.1137 0.0000 0.0000
# 5 0.0000 0.0000 0.0000 0.0000 -43.1665 0.0000
# 6 0.0000 0.0000 0.0000 0.0000 0.0000 75.6770
#
#
#
# Elastic Compliance Matrix: (Units=1/GPa)
#
#
# Indices 1 2 3 4 5 6 
#
# 1 0.008511 -0.002261 -0.003494 0.000000 0.000000 0.000000
# 2 -0.002261 0.006336 -0.001461 0.000000 0.000000 0.000000
# 3 -0.003494 -0.001461 0.013092 0.000000 0.000000 0.000000
# 4 0.000000 0.000000 0.000000 0.032140 0.000000 0.000000
# 5 0.000000 0.000000 0.000000 0.000000 -0.023166 0.000000
# 6 0.000000 0.000000 0.000000 0.000000 0.000000 0.013214
#
#
# Mechanical properties :
#
#
# Convention : Reuss Voigt Hill
#
# Bulk Modulus (GPa) = 74.03446 83.21782 78.62614
# Shear Modulus (GPa) = 72.39972 31.72893 52.06432
#
# Velocity S-wave (km/s) = 5.70604 3.77741 4.83878
# Velocity P-wave (km/s) = 8.75818 7.51325 8.15949
#
# Compressibility (1/GPa) = 0.01350722
#
# Stress axis : x y z
#
# Youngs Moduli (GPa) = 117.49507 157.82071 76.38504
#
# Poissons Ratio (x) = 0.35690 0.26686
# Poissons Ratio (y) = 0.26571 0.11158
# Poissons Ratio (z) = 0.41048 0.23054
#
# Static dielectric constant tensor:
#      x y z
#    x 1.803350 0.000000 0.000000 
#    y 0.000000 1.730850 0.000000 
#    z 0.000000 0.000000 1.830290 
# 
# From -- ./inp_files/13755.got.cif
#   From: 2010.05.17/outbox.cif.g08.bks.cpg/sg52_7_cif.got.tgz:13755.got - 2010.06.03 12:15:38.
