data_PCOD9411716
_publ_section_title
;
Structure prediction by ZEFSAII (Michael W. Deem and Ramdas Pophale) SiO2 
 PCOD9411716
Probable space group: P N N A
;
_chemical_formula_sum "Si O2"
_cell_formula_units_Z 32
_cell_length_a 25.013525
_cell_length_b 4.908848
_cell_length_c 13.060646
_cell_angle_alpha 90.000000
_cell_angle_beta 90.000000
_cell_angle_gamma 90.000000
_cell_volume 1603.685275
_symmetry_space_group_name_H-M "P N N A"
_symmetry_group_IT_number 52
_symmetry_cell_setting 'orthorhombic'
loop_
_space_group_symop_operation_xyz
x,y,z
1/2-x,-y,z
x,1/2-y,1/2-z
1/2-x,1/2+y,1/2-z
-x,-y,-z
1/2+x,y,-z
-x,1/2+y,1/2+z
1/2+x,1/2-y,1/2+z
loop_
_atom_site_type_symbol
_atom_site_label
_atom_site_fract_x
_atom_site_fract_y
_atom_site_fract_z
Si Si1 0.028768 0.518720 0.676182
Si Si2 0.107228 0.806197 0.000849
Si Si3 0.211406 0.752986 0.629371
Si Si4 0.088843 0.263989 0.132948
O O1 0.051808 0.750000 0.750000
O O2 0.064496 0.543155 0.574598
O O3 0.970087 0.623237 0.642224
O O4 0.026016 0.250000 0.750000
O O5 0.157142 0.719049 0.933218
O O6 0.086605 0.552538 0.071813
O O7 0.125101 0.052862 0.072494
O O8 0.250000 0.500000 0.607225
O O9 0.197603 0.750000 0.750000
O O10 0.250000 0.000000 0.608311
O O11 0.107504 0.250000 0.250000
#
# Coordination Sequence:
#
# PCOD9411716 Si02
#       4
#     8   8   8   8
#     4  11  22  37  58  91 127 156 196 245 297 360
#     4  12  22  38  64  86 116 161 203 240 299 364
#     4  10  22  40  62  90 119 145 185 247 311 365
#     4  11  23  39  57  85 123 162 202 244 286 343
#
# _framework density 19.954039999999999
#
# number of rings (size 3 to 8) (size 9 to 14) (size 15 to 20)
#    0.000    1.000    0.000    9.000    0.000    3.000 
#    0.000    0.000    0.000   15.000    0.000    0.000 
#    0.000    0.000    0.000    0.000    0.000    0.000 
#
# Total GULP energy -178332.644750 kJ/mol
# GULP energy per Si atom -5572.895148 kJ/mol
# Density = 1.990862 g / cm^3
# Si number density = 19.954040 Si / 1000 Ang^3
#
#
#
# Elastic Constant Matrix: (Units=GPa)
#
#
# Indices 1 2 3 4 5 6 
#
# 1 51.7634 12.3508 32.5867 0.0000 0.0000 0.0000
# 2 12.3508 146.8447 52.3684 0.0000 0.0000 0.0000
# 3 32.5867 52.3684 121.0066 0.0000 0.0000 0.0000
# 4 0.0000 0.0000 0.0000 52.3326 0.0000 0.0000
# 5 0.0000 0.0000 0.0000 0.0000 23.5380 0.0000
# 6 0.0000 0.0000 0.0000 0.0000 0.0000 25.1442
#
#
#
# Elastic Compliance Matrix: (Units=1/GPa)
#
#
# Indices 1 2 3 4 5 6 
#
# 1 0.023276 0.000328 -0.006410 0.000000 0.000000 0.000000
# 2 0.000328 0.008057 -0.003575 0.000000 0.000000 0.000000
# 3 -0.006410 -0.003575 0.011538 0.000000 0.000000 0.000000
# 4 0.000000 0.000000 0.000000 0.019109 0.000000 0.000000
# 5 0.000000 0.000000 0.000000 0.000000 0.042484 0.000000
# 6 0.000000 0.000000 0.000000 0.000000 0.000000 0.039771
#
#
# Mechanical properties :
#
#
# Convention : Reuss Voigt Hill
#
# Bulk Modulus (GPa) = 42.45170 57.13628 49.79399
# Shear Modulus (GPa) = 29.17139 35.02356 32.09747
#
# Velocity S-wave (km/s) = 3.82767 4.19407 4.01505
# Velocity P-wave (km/s) = 6.39184 7.22148 6.81929
#
# Compressibility (1/GPa) = 0.02355618
#
# Stress axis : x y z
#
# Youngs Moduli (GPa) = 42.96322 124.10963 86.67310
#
# Poissons Ratio (x) = -0.04075 0.55559
# Poissons Ratio (y) = -0.01411 0.30990
# Poissons Ratio (z) = 0.27540 0.44375
#
# Static dielectric constant tensor:
#      x y z
#    x 1.673990 0.000000 0.000000 
#    y 0.000000 1.733210 0.000000 
#    z 0.000000 0.000000 1.921830 
# 
# From -- ./inp_files/21200.got.cif
#   From: 2010.05.17/outbox.cif.g08.bks.cpg/sg52_11_cif.got.tgz:21200.got - 2010.06.03 12:15:38.
