data_PCOD9411280
_publ_section_title
;
Structure prediction by ZEFSAII (Michael W. Deem and Ramdas Pophale) SiO2 
 PCOD9411280
Probable space group: P N N A
;
_chemical_formula_sum "Si O2"
_cell_formula_units_Z 64
_cell_length_a 14.664964
_cell_length_b 11.751911
_cell_length_c 18.548212
_cell_angle_alpha 90.000000
_cell_angle_beta 90.000000
_cell_angle_gamma 90.000000
_cell_volume 3196.623929
_symmetry_space_group_name_H-M "P N N A"
_symmetry_group_IT_number 52
_symmetry_cell_setting 'orthorhombic'
loop_
_space_group_symop_operation_xyz
x,y,z
1/2-x,-y,z
x,1/2-y,1/2-z
1/2-x,1/2+y,1/2-z
-x,-y,-z
1/2+x,y,-z
-x,1/2+y,1/2+z
1/2+x,1/2-y,1/2+z
loop_
_atom_site_type_symbol
_atom_site_label
_atom_site_fract_x
_atom_site_fract_y
_atom_site_fract_z
Si Si1 0.384956 0.660569 0.084762
Si Si2 0.135567 0.302342 0.918182
Si Si3 0.479752 0.118717 0.081636
Si Si4 0.822395 0.271342 0.166271
Si Si5 0.544544 0.631991 0.739540
Si Si6 0.968288 0.144224 0.077304
Si Si7 0.259781 0.132479 0.291379
Si Si8 0.457550 0.482561 0.844942
O O1 0.443998 0.776849 0.095156
O O2 0.298130 0.641415 0.135736
O O3 0.458602 0.565118 0.107850
O O4 0.355657 0.663173 0.001871
O O5 0.072795 0.190563 0.912114
O O6 0.231145 0.282402 0.879711
O O7 0.082570 0.405068 0.880389
O O8 0.425794 0.129475 0.156465
O O9 0.502908 0.986123 0.078308
O O10 0.437844 0.163461 0.006468
O O11 0.802726 0.250000 0.250000
O O12 0.887809 0.175680 0.131504
O O13 0.881387 0.386441 0.159754
O O14 0.490033 0.750000 0.750000
O O15 0.631072 0.641914 0.792262
O O16 0.491770 0.520965 0.765761
O O17 0.230200 0.250000 0.250000
O O18 0.250000 0.000000 0.262927
#
# Coordination Sequence:
#
# PCOD9411280 Si02
#       8
#     8   8   8   8   8   8   8   8
#     4  10  23  44  69  92 135 170 225 268 331 404
#     4  11  24  42  66  98 127 175 216 282 328 393
#     4  10  21  41  69  92 132 167 226 266 333 400
#     4  11  25  41  63  95 132 170 224 271 328 391
#     4  11  22  38  65  96 130 168 211 270 331 393
#     4   9  22  43  67  96 121 184 216 270 329 397
#     4  11  25  41  63 104 135 175 220 277 342 401
#     4  11  22  43  64  94 126 175 221 264 335 391
#
# _framework density 20.021121999999998
#
# number of rings (size 3 to 8) (size 9 to 14) (size 15 to 20)
#    0.000    1.500    2.500    1.500    3.500    5.500 
#    4.500    0.000    0.000    0.000    0.000    0.000 
#    0.000    0.000    0.000    0.000    0.000    0.000 
#
# Total GULP energy -356850.126363 kJ/mol
# GULP energy per Si atom -5575.783224 kJ/mol
# Density = 1.997555 g / cm^3
# Si number density = 20.021122 Si / 1000 Ang^3
#
#
#
# Elastic Constant Matrix: (Units=GPa)
#
#
# Indices 1 2 3 4 5 6 
#
# 1 72.5691 11.9146 42.7925 0.0000 0.0000 0.0000
# 2 11.9146 95.9525 17.8337 0.0000 0.0000 0.0000
# 3 42.7925 17.8337 94.0071 0.0000 0.0000 0.0000
# 4 0.0000 0.0000 0.0000 26.0621 0.0000 0.0000
# 5 0.0000 0.0000 0.0000 0.0000 26.2745 0.0000
# 6 0.0000 0.0000 0.0000 0.0000 0.0000 9.8724
#
#
#
# Elastic Compliance Matrix: (Units=1/GPa)
#
#
# Indices 1 2 3 4 5 6 
#
# 1 0.018891 -0.000775 -0.008453 0.000000 0.000000 0.000000
# 2 -0.000775 0.010834 -0.001703 0.000000 0.000000 0.000000
# 3 -0.008453 -0.001703 0.014808 0.000000 0.000000 0.000000
# 4 0.000000 0.000000 0.000000 0.038370 0.000000 0.000000
# 5 0.000000 0.000000 0.000000 0.000000 0.038060 0.000000
# 6 0.000000 0.000000 0.000000 0.000000 0.000000 0.101293
#
#
# Mechanical properties :
#
#
# Convention : Reuss Voigt Hill
#
# Bulk Modulus (GPa) = 44.10317 45.29004 44.69661
# Shear Modulus (GPa) = 19.86693 25.10766 22.48729
#
# Velocity S-wave (km/s) = 3.15349 3.54511 3.35502
# Velocity P-wave (km/s) = 5.94437 6.27912 6.11403
#
# Compressibility (1/GPa) = 0.02267411
#
# Stress axis : x y z
#
# Youngs Moduli (GPa) = 52.93398 92.29785 67.53051
#
# Poissons Ratio (x) = 0.07151 0.57080
# Poissons Ratio (y) = 0.04101 0.11498
# Poissons Ratio (z) = 0.44742 0.15715
#
# Static dielectric constant tensor:
#      x y z
#    x 1.679820 0.000000 0.000000 
#    y 0.000000 1.738490 0.000000 
#    z 0.000000 0.000000 1.750740 
# 
# From -- ./inp_files/33302.got.cif
#   From: 2010.05.17/outbox.cif.g08.bks.cpg/sg52_17_cif.got.tgz:33302.got - 2010.06.03 12:15:38.
