data_PCOD9411226
_publ_section_title
;
Structure prediction by ZEFSAII (Michael W. Deem and Ramdas Pophale) SiO2 
 PCOD9411226
Probable space group: P N N A
;
_chemical_formula_sum "Si O2"
_cell_formula_units_Z 48
_cell_length_a 11.782199
_cell_length_b 17.628777
_cell_length_c 11.664240
_cell_angle_alpha 90.000000
_cell_angle_beta 90.000000
_cell_angle_gamma 90.000000
_cell_volume 2422.729819
_symmetry_space_group_name_H-M "P N N A"
_symmetry_group_IT_number 52
_symmetry_cell_setting 'orthorhombic'
loop_
_space_group_symop_operation_xyz
x,y,z
1/2-x,-y,z
x,1/2-y,1/2-z
1/2-x,1/2+y,1/2-z
-x,-y,-z
1/2+x,y,-z
-x,1/2+y,1/2+z
1/2+x,1/2-y,1/2+z
loop_
_atom_site_type_symbol
_atom_site_label
_atom_site_fract_x
_atom_site_fract_y
_atom_site_fract_z
Si Si1 0.172140 0.926039 0.080395
Si Si2 0.956760 0.328321 0.177567
Si Si3 0.024342 0.140250 0.812522
Si Si4 0.070961 0.800714 0.409838
Si Si5 0.295792 0.835905 0.281509
Si Si6 0.276793 0.089221 0.827033
O O1 0.045631 0.929499 0.132432
O O2 0.239078 0.874673 0.171918
O O3 0.250000 0.000000 0.074224
O O4 0.164851 0.897070 0.950525
O O5 0.947562 0.250000 0.250000
O O6 0.857272 0.380774 0.226946
O O7 0.080353 0.367995 0.191702
O O8 0.946842 0.309761 0.043577
O O9 0.002766 0.147458 0.676732
O O10 0.966408 0.215511 0.869811
O O11 0.156922 0.132974 0.833165
O O12 0.199503 0.826299 0.378541
O O13 0.320708 0.750000 0.250000
O O14 0.250000 0.000000 0.813079
#
# Coordination Sequence:
#
# PCOD9411226 Si02
#       6
#     8   8   8   8   8   8
#     4  10  22  39  68  91 123 172 213 260 318 378
#     4  11  26  37  66  95 126 164 213 269 318 377
#     4  10  22  41  67  89 131 166 214 265 325 384
#     4  10  21  42  65  93 120 170 209 267 320 375
#     4  10  21  41  62  91 127 155 213 264 313 379
#     4  11  27  42  62  99 135 169 215 263 324 384
#
# _framework density 19.812362
#
# number of rings (size 3 to 8) (size 9 to 14) (size 15 to 20)
#    0.000    1.667    3.333    1.000   14.000    1.333 
#    0.000    4.167    0.000    0.000    0.000    0.000 
#    0.000    0.000    0.000    0.000    0.000    0.000 
#
# Total GULP energy -267610.333497 kJ/mol
# GULP energy per Si atom -5575.215281 kJ/mol
# Density = 1.976727 g / cm^3
# Si number density = 19.812362 Si / 1000 Ang^3
#
#
#
# Elastic Constant Matrix: (Units=GPa)
#
#
# Indices 1 2 3 4 5 6 
#
# 1 100.0822 16.7729 29.6681 0.0000 0.0000 0.0000
# 2 16.7729 24.5291 23.2496 0.0000 0.0000 0.0000
# 3 29.6681 23.2496 160.3779 0.0000 0.0000 0.0000
# 4 0.0000 0.0000 0.0000 21.7386 0.0000 0.0000
# 5 0.0000 0.0000 0.0000 0.0000 2.4438 0.0000
# 6 0.0000 0.0000 0.0000 0.0000 0.0000 20.5865
#
#
#
# Elastic Compliance Matrix: (Units=1/GPa)
#
#
# Indices 1 2 3 4 5 6 
#
# 1 0.011462 -0.006756 -0.001141 0.000000 0.000000 0.000000
# 2 -0.006756 0.051245 -0.006179 0.000000 0.000000 0.000000
# 3 -0.001141 -0.006179 0.007342 0.000000 0.000000 0.000000
# 4 0.000000 0.000000 0.000000 0.046001 0.000000 0.000000
# 5 0.000000 0.000000 0.000000 0.000000 0.409201 0.000000
# 6 0.000000 0.000000 0.000000 0.000000 0.000000 0.048576
#
#
# Mechanical properties :
#
#
# Convention : Reuss Voigt Hill
#
# Bulk Modulus (GPa) = 23.86847 47.15227 35.51037
# Shear Modulus (GPa) = 8.11761 23.30701 15.71231
#
# Velocity S-wave (km/s) = 2.02636 3.43357 2.81918
# Velocity P-wave (km/s) = 4.18907 6.29049 5.34409
#
# Compressibility (1/GPa) = 0.04189627
#
# Stress axis : x y z
#
# Youngs Moduli (GPa) = 87.24232 19.51427 136.20121
#
# Poissons Ratio (x) = 0.13185 0.15540
# Poissons Ratio (y) = 0.58945 0.84158
# Poissons Ratio (z) = 0.09954 0.12058
#
# Static dielectric constant tensor:
#      x y z
#    x 1.786730 0.000000 0.000000 
#    y 0.000000 1.735790 0.000000 
#    z 0.000000 0.000000 1.698000 
# 
# From -- ./inp_files/18192.got.cif
#   From: 2010.05.17/outbox.cif.g08.bks.cpg/sg52_10_cif.got.tgz:18192.got - 2010.06.03 12:15:38.
