data_PCOD9411190
_publ_section_title
;
Structure prediction by ZEFSAII (Michael W. Deem and Ramdas Pophale) SiO2 
 PCOD9411190
Probable space group: P N N A
;
_chemical_formula_sum "Si O2"
_cell_formula_units_Z 40
_cell_length_a 5.623235
_cell_length_b 11.422332
_cell_length_c 27.065952
_cell_angle_alpha 90.000000
_cell_angle_beta 90.000000
_cell_angle_gamma 90.000000
_cell_volume 1738.458468
_symmetry_space_group_name_H-M "P N N A"
_symmetry_group_IT_number 52
_symmetry_cell_setting 'orthorhombic'
loop_
_space_group_symop_operation_xyz
x,y,z
1/2-x,-y,z
x,1/2-y,1/2-z
1/2-x,1/2+y,1/2-z
-x,-y,-z
1/2+x,y,-z
-x,1/2+y,1/2+z
1/2+x,1/2-y,1/2+z
loop_
_atom_site_type_symbol
_atom_site_label
_atom_site_fract_x
_atom_site_fract_y
_atom_site_fract_z
Si Si1 0.750000 0.500000 0.160732
Si Si2 0.909957 0.319332 0.891278
Si Si3 0.957842 0.793072 0.695847
Si Si4 0.012709 0.135753 0.018745
Si Si5 0.787161 0.364391 0.379664
Si Si6 0.750000 0.000000 0.530787
O O1 0.608002 0.413913 0.124790
O O2 0.579493 0.579714 0.194012
O O3 0.758233 0.299101 0.842127
O O4 0.760934 0.386621 0.933110
O O5 0.054111 0.200187 0.901512
O O6 0.894488 0.750000 0.750000
O O7 0.138377 0.702498 0.669671
O O8 0.987982 0.142668 0.077805
O O9 0.762928 0.186613 0.999058
O O10 0.000000 0.000000 0.000000
O O11 0.750000 0.500000 0.370291
O O12 0.500000 0.000000 0.500000
#
# Coordination Sequence:
#
# PCOD9411190 Si02
#       6
#     4   8   8   8   8   4
#     4  10  21  50  76  98 152 190 256 319 404 448
#     4  11  25  48  77 107 155 199 255 345 384 474
#     4  11  26  46  79 107 143 202 254 328 402 461
#     4  10  21  40  68  96 150 201 238 292 374 452
#     4  11  26  45  71 111 155 196 252 313 395 487
#     4  12  27  48  82 120 154 214 280 323 402 478
#
# _framework density 23.008890999999998
#
# number of rings (size 3 to 8) (size 9 to 14) (size 15 to 20)
#    0.000    1.200    4.000    0.600    7.000    5.600 
#    3.600    0.000    0.000    0.000    0.000    0.000 
#    0.000    0.000    0.000    0.000    0.000    0.000 
#
# Total GULP energy -223804.909565 kJ/mol
# GULP energy per Si atom -5595.122739 kJ/mol
# Density = 2.295652 g / cm^3
# Si number density = 23.008891 Si / 1000 Ang^3
#
#
#
# Elastic Constant Matrix: (Units=GPa)
#
#
# Indices 1 2 3 4 5 6 
#
# 1 132.2157 30.8246 39.5379 0.0000 0.0000 0.0000
# 2 30.8246 140.0796 33.3836 0.0000 0.0000 0.0000
# 3 39.5379 33.3836 132.4632 0.0000 0.0000 0.0000
# 4 0.0000 0.0000 0.0000 33.6378 0.0000 0.0000
# 5 0.0000 0.0000 0.0000 0.0000 26.0155 0.0000
# 6 0.0000 0.0000 0.0000 0.0000 0.0000 21.1344
#
#
#
# Elastic Compliance Matrix: (Units=1/GPa)
#
#
# Indices 1 2 3 4 5 6 
#
# 1 0.008539 -0.001353 -0.002208 0.000000 0.000000 0.000000
# 2 -0.001353 0.007809 -0.001564 0.000000 0.000000 0.000000
# 3 -0.002208 -0.001564 0.008602 0.000000 0.000000 0.000000
# 4 0.000000 0.000000 0.000000 0.029729 0.000000 0.000000
# 5 0.000000 0.000000 0.000000 0.000000 0.038439 0.000000
# 6 0.000000 0.000000 0.000000 0.000000 0.000000 0.047316
#
#
# Mechanical properties :
#
#
# Convention : Reuss Voigt Hill
#
# Bulk Modulus (GPa) = 68.02310 68.02787 68.02549
# Shear Modulus (GPa) = 32.13690 36.22502 34.18096
#
# Velocity S-wave (km/s) = 3.74132 3.97217 3.85847
# Velocity P-wave (km/s) = 6.94920 7.11811 7.03416
#
# Compressibility (1/GPa) = 0.01470089
#
# Stress axis : x y z
#
# Youngs Moduli (GPa) = 117.10939 128.05250 116.24533
#
# Poissons Ratio (x) = 0.17324 0.25665
# Poissons Ratio (y) = 0.15843 0.18184
# Poissons Ratio (z) = 0.25855 0.20031
#
# Static dielectric constant tensor:
#      x y z
#    x 1.901540 0.000000 0.000000 
#    y 0.000000 1.868190 0.000000 
#    z 0.000000 0.000000 1.833350 
# 
# From -- ./inp_files/41528.got.cif
#   From: 2010.05.17/outbox.cif.g08.bks.cpg/sg52_21_cif.got.tgz:41528.got - 2010.06.03 12:15:38.
