data_PCOD9411994
_publ_section_title
;
Structure prediction by ZEFSAII (Michael W. Deem and Ramdas Pophale) SiO2 
 PCOD9411994
Probable space group: P N N A
;
_chemical_formula_sum "Si O2"
_cell_formula_units_Z 48
_cell_length_a 26.529326
_cell_length_b 6.230709
_cell_length_c 13.876831
_cell_angle_alpha 90.000000
_cell_angle_beta 90.000000
_cell_angle_gamma 90.000000
_cell_volume 2293.791738
_symmetry_space_group_name_H-M "P N N A"
_symmetry_group_IT_number 52
_symmetry_cell_setting 'orthorhombic'
loop_
_space_group_symop_operation_xyz
x,y,z
1/2-x,-y,z
x,1/2-y,1/2-z
1/2-x,1/2+y,1/2-z
-x,-y,-z
1/2+x,y,-z
-x,1/2+y,1/2+z
1/2+x,1/2-y,1/2+z
loop_
_atom_site_type_symbol
_atom_site_label
_atom_site_fract_x
_atom_site_fract_y
_atom_site_fract_z
Si Si1 0.303867 0.116478 0.600793
Si Si2 0.250000 0.000000 0.980491
Si Si3 0.119582 0.407075 0.048415
Si Si4 0.380076 0.250000 0.750000
Si Si5 0.934759 0.946531 0.091168
Si Si6 0.972632 0.191256 0.556985
Si Si7 0.287961 0.691161 0.142417
O O1 0.288075 0.362059 0.582666
O O2 0.342364 0.102028 0.688427
O O3 0.250000 0.000000 0.613368
O O4 0.338046 0.035765 0.512587
O O5 0.279922 0.853652 0.054886
O O6 0.076986 0.565608 0.089885
O O7 0.152215 0.334769 0.139238
O O8 0.098296 0.222629 0.974637
O O9 0.410416 0.413480 0.678605
O O10 0.984489 0.807764 0.120908
O O11 0.953093 0.128109 0.016560
O O12 0.000000 0.000000 0.500000
O O13 0.250000 0.500000 0.117241
O O14 0.272237 0.750000 0.250000
#
# Coordination Sequence:
#
# PCOD9411994 Si02
#       7
#     8   4   8   4   8   8   8
#     4  12  26  40  63  99 141 183 225 273 331 430
#     4  12  22  44  62  88 138 180 220 274 342 404
#     4  11  21  42  70  96 129 183 220 274 362 404
#     4  12  26  40  66 102 134 186 230 278 342 390
#     4  10  22  42  70  95 132 175 227 285 336 420
#     4   9  20  42  72  91 121 175 224 276 348 408
#     4  12  24  40  67  96 130 172 230 281 332 412
#
# _framework density 20.926048999999999
#
# number of rings (size 3 to 8) (size 9 to 14) (size 15 to 20)
#    0.000    1.000    5.833    1.000    1.167    0.667 
#    0.000    0.000   20.167    0.000    0.000    0.000 
#    0.000    0.000    0.000    0.000    0.000    0.000 
#
# Total GULP energy -267225.892084 kJ/mol
# GULP energy per Si atom -5567.206085 kJ/mol
# Density = 2.087842 g / cm^3
# Si number density = 20.926049 Si / 1000 Ang^3
#
#
#
# Elastic Constant Matrix: (Units=GPa)
#
#
# Indices 1 2 3 4 5 6 
#
# 1 144.9999 59.5646 34.6326 0.0000 0.0000 0.0000
# 2 59.5646 106.3753 19.3530 0.0000 0.0000 0.0000
# 3 34.6326 19.3530 64.8916 0.0000 0.0000 0.0000
# 4 0.0000 0.0000 0.0000 10.2891 0.0000 0.0000
# 5 0.0000 0.0000 0.0000 0.0000 25.0182 0.0000
# 6 0.0000 0.0000 0.0000 0.0000 0.0000 49.8714
#
#
#
# Elastic Compliance Matrix: (Units=1/GPa)
#
#
# Indices 1 2 3 4 5 6 
#
# 1 0.009764 -0.004778 -0.003786 0.000000 0.000000 0.000000
# 2 -0.004778 0.012279 -0.001112 0.000000 0.000000 0.000000
# 3 -0.003786 -0.001112 0.017762 0.000000 0.000000 0.000000
# 4 0.000000 0.000000 0.000000 0.097190 0.000000 0.000000
# 5 0.000000 0.000000 0.000000 0.000000 0.039971 0.000000
# 6 0.000000 0.000000 0.000000 0.000000 0.000000 0.020052
#
#
# Mechanical properties :
#
#
# Convention : Reuss Voigt Hill
#
# Bulk Modulus (GPa) = 48.89293 60.37414 54.63354
# Shear Modulus (GPa) = 22.40278 30.55019 26.47648
#
# Velocity S-wave (km/s) = 3.27550 3.82502 3.56088
# Velocity P-wave (km/s) = 6.14171 6.95856 6.56286
#
# Compressibility (1/GPa) = 0.02045285
#
# Stress axis : x y z
#
# Youngs Moduli (GPa) = 102.42023 81.44263 56.29894
#
# Poissons Ratio (x) = 0.38917 0.21314
# Poissons Ratio (y) = 0.48941 0.06259
# Poissons Ratio (z) = 0.38774 0.09054
#
# Static dielectric constant tensor:
#      x y z
#    x 2.011380 0.000000 0.000000 
#    y 0.000000 1.796260 0.000000 
#    z 0.000000 0.000000 1.815760 
# 
# From -- ./inp_files/29461.got.cif
#   From: 2010.05.17/outbox.cif.g08.bks.cpg/sg52_15_cif.got.tgz:29461.got - 2010.06.03 12:15:38.
