data_PCOD9411297
_publ_section_title
;
Structure prediction by ZEFSAII (Michael W. Deem and Ramdas Pophale) SiO2 
 PCOD9411297
Probable space group: P N N A
;
_chemical_formula_sum "Si O2"
_cell_formula_units_Z 40
_cell_length_a 17.693863
_cell_length_b 11.076086
_cell_length_c 9.732048
_cell_angle_alpha 90.000000
_cell_angle_beta 90.000000
_cell_angle_gamma 90.000000
_cell_volume 1907.274585
_symmetry_space_group_name_H-M "P N N A"
_symmetry_group_IT_number 52
_symmetry_cell_setting 'orthorhombic'
loop_
_space_group_symop_operation_xyz
x,y,z
1/2-x,-y,z
x,1/2-y,1/2-z
1/2-x,1/2+y,1/2-z
-x,-y,-z
1/2+x,y,-z
-x,1/2+y,1/2+z
1/2+x,1/2-y,1/2+z
loop_
_atom_site_type_symbol
_atom_site_label
_atom_site_fract_x
_atom_site_fract_y
_atom_site_fract_z
Si Si1 0.336755 0.533999 0.919265
Si Si2 0.705997 0.250000 0.250000
Si Si3 0.592250 0.232556 0.592652
Si Si4 0.256821 0.640693 0.476379
Si Si5 0.643325 0.750000 0.750000
Si Si6 0.951177 0.123306 0.519638
O O1 0.250000 0.500000 0.928621
O O2 0.343596 0.634893 0.799854
O O3 0.362954 0.608255 0.054910
O O4 0.385122 0.412217 0.912517
O O5 0.754476 0.291147 0.379701
O O6 0.573289 0.250000 0.750000
O O7 0.655636 0.330497 0.557743
O O8 0.513078 0.225704 0.512419
O O9 0.250000 0.500000 0.496568
O O10 0.199321 0.686111 0.359644
O O11 0.590607 0.841165 0.661229
O O12 0.000000 0.000000 0.500000
#
# Coordination Sequence:
#
# PCOD9411297 Si02
#       6
#     8   4   8   8   4   8
#     4  10  21  41  72  97 136 194 241 298 362 435
#     4  10  22  43  64 109 140 180 240 314 356 435
#     4  10  22  41  64 105 144 181 236 293 362 437
#     4  11  25  42  77 106 141 184 250 306 357 432
#     4  12  26  47  72 111 138 188 258 294 360 455
#     4  10  24  42  68 100 144 194 224 299 379 426
#
# _framework density 20.972335999999999
#
# number of rings (size 3 to 8) (size 9 to 14) (size 15 to 20)
#    0.000    1.600    1.000    3.000    5.600    7.200 
#   10.800    1.000    0.000    0.000    0.000    0.000 
#    0.000    0.000    0.000    0.000    0.000    0.000 
#
# Total GULP energy -222805.765846 kJ/mol
# GULP energy per Si atom -5570.144146 kJ/mol
# Density = 2.092460 g / cm^3
# Si number density = 20.972336 Si / 1000 Ang^3
#
#
#
# Elastic Constant Matrix: (Units=GPa)
#
#
# Indices 1 2 3 4 5 6 
#
# 1 153.9206 46.5167 54.2760 0.0000 0.0000 0.0000
# 2 46.5167 85.9804 44.3461 0.0000 0.0000 0.0000
# 3 54.2760 44.3461 139.2764 0.0000 0.0000 0.0000
# 4 0.0000 0.0000 0.0000 34.8183 0.0000 0.0000
# 5 0.0000 0.0000 0.0000 0.0000 29.1178 0.0000
# 6 0.0000 0.0000 0.0000 0.0000 0.0000 18.2587
#
#
#
# Elastic Compliance Matrix: (Units=1/GPa)
#
#
# Indices 1 2 3 4 5 6 
#
# 1 0.008273 -0.003366 -0.002152 0.000000 0.000000 0.000000
# 2 -0.003366 0.015285 -0.003555 0.000000 0.000000 0.000000
# 3 -0.002152 -0.003555 0.009151 0.000000 0.000000 0.000000
# 4 0.000000 0.000000 0.000000 0.028721 0.000000 0.000000
# 5 0.000000 0.000000 0.000000 0.000000 0.034343 0.000000
# 6 0.000000 0.000000 0.000000 0.000000 0.000000 0.054769
#
#
# Mechanical properties :
#
#
# Convention : Reuss Voigt Hill
#
# Bulk Modulus (GPa) = 68.67033 74.38388 71.52711
# Shear Modulus (GPa) = 28.81151 32.04153 30.42652
#
# Velocity S-wave (km/s) = 3.71048 3.91295 3.81306
# Velocity P-wave (km/s) = 7.15341 7.48061 7.31884
#
# Compressibility (1/GPa) = 0.01456233
#
# Stress axis : x y z
#
# Youngs Moduli (GPa) = 120.87558 65.42307 109.28101
#
# Poissons Ratio (x) = 0.22019 0.23521
# Poissons Ratio (y) = 0.40683 0.38852
# Poissons Ratio (z) = 0.26016 0.23259
#
# Static dielectric constant tensor:
#      x y z
#    x 1.841410 0.000000 0.000000 
#    y 0.000000 1.823380 0.000000 
#    z 0.000000 0.000000 1.783450 
# 
# From -- ./inp_files/11712.got.cif
#   From: 2010.05.17/outbox.cif.g08.bks.cpg/sg52_6_cif.got.tgz:11712.got - 2010.06.03 12:15:38.
