data_PCOD9411680
_publ_section_title
;
Structure prediction by ZEFSAII (Michael W. Deem and Ramdas Pophale) SiO2 
 PCOD9411680
Probable space group: P N N A
;
_chemical_formula_sum "Si O2"
_cell_formula_units_Z 48
_cell_length_a 10.769098
_cell_length_b 18.209043
_cell_length_c 11.804634
_cell_angle_alpha 90.000000
_cell_angle_beta 90.000000
_cell_angle_gamma 90.000000
_cell_volume 2314.829333
_symmetry_space_group_name_H-M "P N N A"
_symmetry_group_IT_number 52
_symmetry_cell_setting 'orthorhombic'
loop_
_space_group_symop_operation_xyz
x,y,z
1/2-x,-y,z
x,1/2-y,1/2-z
1/2-x,1/2+y,1/2-z
-x,-y,-z
1/2+x,y,-z
-x,1/2+y,1/2+z
1/2+x,1/2-y,1/2+z
loop_
_atom_site_type_symbol
_atom_site_label
_atom_site_fract_x
_atom_site_fract_y
_atom_site_fract_z
Si Si1 0.250000 0.500000 0.454979
Si Si2 0.082884 0.581257 0.307267
Si Si3 0.857822 0.637461 0.437072
Si Si4 0.528079 0.421105 0.055298
Si Si5 0.219053 0.290241 0.357346
Si Si6 0.205342 0.834671 0.534939
Si Si7 0.746121 0.250000 0.250000
O O1 0.140167 0.508504 0.363079
O O2 0.239279 0.427825 0.533434
O O3 0.185484 0.647168 0.311443
O O4 0.981573 0.601734 0.397687
O O5 0.014039 0.574997 0.187236
O O6 0.878412 0.674790 0.557941
O O7 0.825188 0.695903 0.338399
O O8 0.667541 0.386022 0.038152
O O9 0.500000 0.500000 0.000000
O O10 0.422331 0.372331 0.997917
O O11 0.164696 0.250000 0.250000
O O12 0.280208 0.229964 0.441307
O O13 0.188379 0.802582 0.660679
#
# Coordination Sequence:
#
# PCOD9411680 Si02
#       7
#     4   8   8   8   8   8   4
#     4  10  24  42  66 104 130 182 240 282 342 438
#     4  11  23  43  70  93 142 185 224 293 355 422
#     4  10  22  40  69  97 134 182 230 284 357 414
#     4  12  27  44  72 100 146 187 235 285 359 428
#     4  10  22  39  69 100 131 178 239 288 343 416
#     4  11  25  45  70 106 136 186 235 290 352 418
#     4  10  22  44  68 100 140 178 230 290 356 410
#
# _framework density 20.735868
#
# number of rings (size 3 to 8) (size 9 to 14) (size 15 to 20)
#    0.000    1.333    3.333    1.000    8.167    1.333 
#    1.500    1.667    0.000    0.000    0.000    0.000 
#    0.000    0.000    0.000    0.000    0.000    0.000 
#
# Total GULP energy -267240.239595 kJ/mol
# GULP energy per Si atom -5567.504992 kJ/mol
# Density = 2.068867 g / cm^3
# Si number density = 20.735868 Si / 1000 Ang^3
#
#
#
# Elastic Constant Matrix: (Units=GPa)
#
#
# Indices 1 2 3 4 5 6 
#
# 1 40.6372 -10.6538 11.5980 0.0000 0.0000 0.0000
# 2 -10.6538 53.0652 18.8748 0.0000 0.0000 0.0000
# 3 11.5980 18.8748 128.4335 0.0000 0.0000 0.0000
# 4 0.0000 0.0000 0.0000 58.1114 0.0000 0.0000
# 5 0.0000 0.0000 0.0000 0.0000 0.5894 0.0000
# 6 0.0000 0.0000 0.0000 0.0000 0.0000 17.6500
#
#
#
# Elastic Compliance Matrix: (Units=1/GPa)
#
#
# Indices 1 2 3 4 5 6 
#
# 1 0.027358 0.006723 -0.003458 0.000000 0.000000 0.000000
# 2 0.006723 0.021536 -0.003772 0.000000 0.000000 0.000000
# 3 -0.003458 -0.003772 0.008653 0.000000 0.000000 0.000000
# 4 0.000000 0.000000 0.000000 0.017208 0.000000 0.000000
# 5 0.000000 0.000000 0.000000 0.000000 1.696775 0.000000
# 6 0.000000 0.000000 0.000000 0.000000 0.000000 0.056657
#
#
# Mechanical properties :
#
#
# Convention : Reuss Voigt Hill
#
# Bulk Modulus (GPa) = 17.68950 29.08597 23.38774
# Shear Modulus (GPa) = 2.70556 28.75794 15.73175
#
# Velocity S-wave (km/s) = 1.14351 3.72811 2.75739
# Velocity P-wave (km/s) = 3.20825 5.70868 4.63044
#
# Compressibility (1/GPa) = 0.05653072
#
# Stress axis : x y z
#
# Youngs Moduli (GPa) = 36.55300 46.43362 115.56970
#
# Poissons Ratio (x) = -0.31216 0.39969
# Poissons Ratio (y) = -0.24573 0.43594
# Poissons Ratio (z) = 0.12642 0.17515
#
# Static dielectric constant tensor:
#      x y z
#    x 1.692250 0.000000 0.000000 
#    y 0.000000 1.990690 0.000000 
#    z 0.000000 0.000000 1.736730 
# 
# From -- ./inp_files/18237.got.cif
#   From: 2010.05.17/outbox.cif.g08.bks.cpg/sg52_10_cif.got.tgz:18237.got - 2010.06.03 12:15:38.
