data_PCOD9411941
_publ_section_title
;
Structure prediction by ZEFSAII (Michael W. Deem and Ramdas Pophale) SiO2 
 PCOD9411941
Probable space group: P N N A
;
_chemical_formula_sum "Si O2"
_cell_formula_units_Z 56
_cell_length_a 28.646323
_cell_length_b 6.624837
_cell_length_c 15.622272
_cell_angle_alpha 90.000000
_cell_angle_beta 90.000000
_cell_angle_gamma 90.000000
_cell_volume 2964.751358
_symmetry_space_group_name_H-M "P N N A"
_symmetry_group_IT_number 52
_symmetry_cell_setting 'orthorhombic'
loop_
_space_group_symop_operation_xyz
x,y,z
1/2-x,-y,z
x,1/2-y,1/2-z
1/2-x,1/2+y,1/2-z
-x,-y,-z
1/2+x,y,-z
-x,1/2+y,1/2+z
1/2+x,1/2-y,1/2+z
loop_
_atom_site_type_symbol
_atom_site_label
_atom_site_fract_x
_atom_site_fract_y
_atom_site_fract_z
Si Si1 0.832931 0.763020 0.345420
Si Si2 0.389957 0.165910 0.430261
Si Si3 0.506207 0.906345 0.175791
Si Si4 0.060868 0.750000 0.250000
Si Si5 0.961987 0.833999 0.521279
Si Si6 0.298063 0.385348 0.969378
Si Si7 0.750000 0.000000 0.110021
Si Si8 0.412656 0.507028 0.573122
O O1 0.854083 0.750000 0.250000
O O2 0.784425 0.642277 0.337542
O O3 0.865719 0.626385 0.405725
O O4 0.821894 0.978028 0.392420
O O5 0.405773 0.199480 0.331839
O O6 0.335767 0.134727 0.454821
O O7 0.406545 0.347820 0.495103
O O8 0.416241 0.959775 0.455400
O O9 0.500315 0.750000 0.250000
O O10 0.481155 0.809578 0.094280
O O11 0.475702 0.092900 0.208473
O O12 0.561455 0.911174 0.154013
O O13 0.950195 0.682328 0.446099
O O14 0.000000 0.000000 0.500000
O O15 0.250000 0.500000 0.992570
O O16 0.281612 0.161687 0.941467
#
# Coordination Sequence:
#
# PCOD9411941 Si02
#       8
#     8   8   8   4   8   8   4   8
#     4  11  25  39  62  98 132 170 216 264 320 391
#     4  12  23  44  70  92 128 173 225 270 341 391
#     4  12  26  40  60  98 133 173 221 274 323 381
#     4  12  26  42  68  96 128 172 224 284 330 396
#     4  12  23  41  64  89 126 175 220 267 316 389
#     4  10  23  44  69  96 127 173 213 270 335 404
#     4  10  22  42  66  92 128 168 214 270 324 392
#     4  12  25  41  63  93 133 178 218 263 323 401
#
# _framework density 18.8886
#
# number of rings (size 3 to 8) (size 9 to 14) (size 15 to 20)
#    0.000    0.571    7.143    1.286    4.000    1.143 
#    0.000    0.000    1.571    0.000    0.000    0.000 
#    0.000    0.000    0.000    0.000    0.000    0.000 
#
# Total GULP energy -311985.995268 kJ/mol
# GULP energy per Si atom -5571.178487 kJ/mol
# Density = 1.884561 g / cm^3
# Si number density = 18.888600 Si / 1000 Ang^3
#
#
#
# Elastic Constant Matrix: (Units=GPa)
#
#
# Indices 1 2 3 4 5 6 
#
# 1 89.0227 32.8698 28.0533 0.0000 0.0000 0.0000
# 2 32.8698 89.1850 25.9770 0.0000 0.0000 0.0000
# 3 28.0533 25.9770 72.4701 0.0000 0.0000 0.0000
# 4 0.0000 0.0000 0.0000 17.9392 0.0000 0.0000
# 5 0.0000 0.0000 0.0000 0.0000 33.8186 0.0000
# 6 0.0000 0.0000 0.0000 0.0000 0.0000 42.8093
#
#
#
# Elastic Compliance Matrix: (Units=1/GPa)
#
#
# Indices 1 2 3 4 5 6 
#
# 1 0.013957 -0.003987 -0.003974 0.000000 0.000000 0.000000
# 2 -0.003987 0.013658 -0.003353 0.000000 0.000000 0.000000
# 3 -0.003974 -0.003353 0.016539 0.000000 0.000000 0.000000
# 4 0.000000 0.000000 0.000000 0.055744 0.000000 0.000000
# 5 0.000000 0.000000 0.000000 0.000000 0.029570 0.000000
# 6 0.000000 0.000000 0.000000 0.000000 0.000000 0.023359
#
#
# Mechanical properties :
#
#
# Convention : Reuss Voigt Hill
#
# Bulk Modulus (GPa) = 46.45048 47.16425 46.80737
# Shear Modulus (GPa) = 27.37776 29.83193 28.60485
#
# Velocity S-wave (km/s) = 3.81127 3.97843 3.89575
# Velocity P-wave (km/s) = 6.63422 6.79174 6.71345
#
# Compressibility (1/GPa) = 0.02152830
#
# Stress axis : x y z
#
# Youngs Moduli (GPa) = 71.64685 73.21460 60.46361
#
# Poissons Ratio (x) = 0.29188 0.24028
# Poissons Ratio (y) = 0.28563 0.20272
# Poissons Ratio (z) = 0.28472 0.24547
#
# Static dielectric constant tensor:
#      x y z
#    x 1.758200 0.000000 0.000000 
#    y 0.000000 1.688790 0.000000 
#    z 0.000000 0.000000 1.642800 
# 
# From -- ./inp_files/29722.got.cif
#   From: 2010.05.17/outbox.cif.g08.bks.cpg/sg52_15_cif.got.tgz:29722.got - 2010.06.03 12:15:38.
