data_PCOD9411611
_publ_section_title
;
Structure prediction by ZEFSAII (Michael W. Deem and Ramdas Pophale) SiO2 
 PCOD9411611
Probable space group: P N N A
;
_chemical_formula_sum "Si O2"
_cell_formula_units_Z 52
_cell_length_a 22.848854
_cell_length_b 20.645474
_cell_length_c 5.271962
_cell_angle_alpha 90.000000
_cell_angle_beta 90.000000
_cell_angle_gamma 90.000000
_cell_volume 2486.918495
_symmetry_space_group_name_H-M "P N N A"
_symmetry_group_IT_number 52
_symmetry_cell_setting 'orthorhombic'
loop_
_space_group_symop_operation_xyz
x,y,z
1/2-x,-y,z
x,1/2-y,1/2-z
1/2-x,1/2+y,1/2-z
-x,-y,-z
1/2+x,y,-z
-x,1/2+y,1/2+z
1/2+x,1/2-y,1/2+z
loop_
_atom_site_type_symbol
_atom_site_label
_atom_site_fract_x
_atom_site_fract_y
_atom_site_fract_z
Si Si1 0.153939 0.416231 0.163450
Si Si2 0.319899 0.505157 0.679961
Si Si3 0.957287 0.673745 0.732677
Si Si4 0.746842 0.815839 0.649522
Si Si5 0.466945 0.173456 0.269451
Si Si6 0.858522 0.129715 0.969441
Si Si7 0.339362 0.250000 0.750000
O O1 0.171812 0.452620 0.423478
O O2 0.097404 0.373241 0.223018
O O3 0.205452 0.367551 0.075448
O O4 0.149204 0.464834 0.927009
O O5 0.250000 0.500000 0.730287
O O6 0.347535 0.435268 0.620494
O O7 0.940305 0.750000 0.750000
O O8 0.987964 0.661304 0.461995
O O9 0.002099 0.662483 0.963114
O O10 0.776510 0.750000 0.750000
O O11 0.703744 0.849314 0.851615
O O12 0.703044 0.788403 0.439501
O O13 0.451149 0.250000 0.250000
O O14 0.409839 0.128659 0.236520
O O15 0.876645 0.192513 0.132737
#
# Coordination Sequence:
#
# PCOD9411611 Si02
#       7
#     8   8   8   8   8   8   4
#     4  12  25  45  67  95 138 180 230 264 336 410
#     4  12  26  44  67  97 139 185 221 269 338 413
#     4  10  23  44  68  98 132 177 223 280 335 391
#     4  10  22  39  64 100 128 166 220 287 345 394
#     4  10  22  41  68  98 132 167 224 282 340 392
#     4  11  24  41  66 101 131 175 220 282 341 397
#     4  10  22  38  66  96 134 156 220 288 352 380
#
# _framework density 20.909410999999999
#
# number of rings (size 3 to 8) (size 9 to 14) (size 15 to 20)
#    0.000    1.231    1.538    4.154    9.692    0.000 
#    4.154    4.615    0.000    0.000    0.000    0.000 
#    0.000    0.000    0.000    0.000    0.000    0.000 
#
# Total GULP energy -290692.021906 kJ/mol
# GULP energy per Si atom -5590.231190 kJ/mol
# Density = 2.086182 g / cm^3
# Si number density = 20.909411 Si / 1000 Ang^3
#
#
#
# Elastic Constant Matrix: (Units=GPa)
#
#
# Indices 1 2 3 4 5 6 
#
# 1 83.4669 61.2161 20.6685 0.0000 0.0000 0.0000
# 2 61.2161 106.9939 43.6167 0.0000 0.0000 0.0000
# 3 20.6685 43.6167 101.1878 0.0000 0.0000 0.0000
# 4 0.0000 0.0000 0.0000 36.5376 0.0000 0.0000
# 5 0.0000 0.0000 0.0000 0.0000 32.8260 0.0000
# 6 0.0000 0.0000 0.0000 0.0000 0.0000 14.9341
#
#
#
# Elastic Compliance Matrix: (Units=1/GPa)
#
#
# Indices 1 2 3 4 5 6 
#
# 1 0.020737 -0.012299 0.001066 0.000000 0.000000 0.000000
# 2 -0.012299 0.018633 -0.005520 0.000000 0.000000 0.000000
# 3 0.001066 -0.005520 0.012044 0.000000 0.000000 0.000000
# 4 0.000000 0.000000 0.000000 0.027369 0.000000 0.000000
# 5 0.000000 0.000000 0.000000 0.000000 0.030464 0.000000
# 6 0.000000 0.000000 0.000000 0.000000 0.000000 0.066961
#
#
# Mechanical properties :
#
#
# Convention : Reuss Voigt Hill
#
# Bulk Modulus (GPa) = 55.83891 60.29458 58.06675
# Shear Modulus (GPa) = 23.18202 27.93602 25.55902
#
# Velocity S-wave (km/s) = 3.33331 3.65917 3.50003
# Velocity P-wave (km/s) = 6.44808 6.83750 6.64564
#
# Compressibility (1/GPa) = 0.01790866
#
# Stress axis : x y z
#
# Youngs Moduli (GPa) = 48.22198 53.66692 83.02785
#
# Poissons Ratio (x) = 0.66007 -0.08849
# Poissons Ratio (y) = 0.59310 0.45828
# Poissons Ratio (z) = -0.05139 0.29622
#
# Static dielectric constant tensor:
#      x y z
#    x 1.724000 0.000000 0.000000 
#    y 0.000000 1.753700 0.000000 
#    z 0.000000 0.000000 1.818700 
# 
# From -- ./inp_files/4421.got.cif
#   From: 2010.05.17/outbox.cif.g08.bks.cpg/sg52_3_cif.got.tgz:4421.got - 2010.06.03 12:15:38.
