data_PCOD9411023
_publ_section_title
;
Structure prediction by ZEFSAII (Michael W. Deem and Ramdas Pophale) SiO2 
 PCOD9411023
Probable space group: P N N A
;
_chemical_formula_sum "Si O2"
_cell_formula_units_Z 36
_cell_length_a 24.049909
_cell_length_b 8.128743
_cell_length_c 8.263677
_cell_angle_alpha 90.000000
_cell_angle_beta 90.000000
_cell_angle_gamma 90.000000
_cell_volume 1615.511910
_symmetry_space_group_name_H-M "P N N A"
_symmetry_group_IT_number 52
_symmetry_cell_setting 'orthorhombic'
loop_
_space_group_symop_operation_xyz
x,y,z
1/2-x,-y,z
x,1/2-y,1/2-z
1/2-x,1/2+y,1/2-z
-x,-y,-z
1/2+x,y,-z
-x,1/2+y,1/2+z
1/2+x,1/2-y,1/2+z
loop_
_atom_site_type_symbol
_atom_site_label
_atom_site_fract_x
_atom_site_fract_y
_atom_site_fract_z
Si Si1 0.809655 0.906077 0.008837
Si Si2 0.500307 0.250000 0.750000
Si Si3 0.917270 0.500729 0.657420
Si Si4 0.685227 0.464102 0.120420
Si Si5 0.082344 0.847217 0.502957
O O1 0.814580 0.708212 0.023786
O O2 0.830487 0.952880 0.189734
O O3 0.750000 0.000000 0.986313
O O4 0.853051 0.955713 0.871580
O O5 0.541325 0.348170 0.629086
O O6 0.459511 0.128821 0.651234
O O7 0.925295 0.342372 0.545664
O O8 0.928930 0.449970 0.841789
O O9 0.750000 0.500000 0.122135
O O10 0.645054 0.602535 0.049182
#
# Coordination Sequence:
#
# PCOD9411023 Si02
#       5
#     8   4   8   8   8
#     4  10  21  39  65  95 129 169 214 266 324 389
#     4  12  24  44  66  90 130 174 218 268 324 402
#     4  11  24  41  63  94 127 166 216 271 330 387
#     4  10  21  39  65  95 128 170 216 262 322 394
#     4  11  24  41  64  93 127 168 215 269 327 390
#
# _framework density 22.28396
#
# number of rings (size 3 to 8) (size 9 to 14) (size 15 to 20)
#    0.000    1.333    0.000    5.333    0.000    4.444 
#    0.000    6.667    0.000    0.000    0.000    0.000 
#    0.000    0.000    0.000    0.000    0.000    0.000 
#
# Total GULP energy -200921.102494 kJ/mol
# GULP energy per Si atom -5581.141736 kJ/mol
# Density = 2.223324 g / cm^3
# Si number density = 22.283960 Si / 1000 Ang^3
#
#
#
# Elastic Constant Matrix: (Units=GPa)
#
#
# Indices 1 2 3 4 5 6 
#
# 1 126.4434 40.1832 49.5178 0.0000 0.0000 0.0000
# 2 40.1832 79.3101 25.8389 0.0000 0.0000 0.0000
# 3 49.5178 25.8389 56.0847 0.0000 0.0000 0.0000
# 4 0.0000 0.0000 0.0000 -3.9979 0.0000 0.0000
# 5 0.0000 0.0000 0.0000 0.0000 12.3939 0.0000
# 6 0.0000 0.0000 0.0000 0.0000 0.0000 41.8260
#
#
#
# Elastic Compliance Matrix: (Units=1/GPa)
#
#
# Indices 1 2 3 4 5 6 
#
# 1 0.012780 -0.003293 -0.009766 0.000000 0.000000 0.000000
# 2 -0.003293 0.015684 -0.004318 0.000000 0.000000 0.000000
# 3 -0.009766 -0.004318 0.028442 0.000000 0.000000 0.000000
# 4 0.000000 0.000000 0.000000 -0.250132 0.000000 0.000000
# 5 0.000000 0.000000 0.000000 0.000000 0.080685 0.000000
# 6 0.000000 0.000000 0.000000 0.000000 0.000000 0.023909
#
#
# Mechanical properties :
#
#
# Convention : Reuss Voigt Hill
#
# Bulk Modulus (GPa) = 45.14479 54.76865 49.95672
# Shear Modulus (GPa) = -107.54392 19.79761 -43.87316
#
# Velocity S-wave (km/s) = -6.95453 2.98388 -4.44196
# Velocity P-wave (km/s) = 6.64714 6.04172 1.95986
#
# Compressibility (1/GPa) = 0.02215095
#
# Stress axis : x y z
#
# Youngs Moduli (GPa) = 78.24749 63.75861 35.15868
#
# Poissons Ratio (x) = 0.20997 0.34337
# Poissons Ratio (y) = 0.25769 0.15182
# Poissons Ratio (z) = 0.76419 0.27532
#
# Static dielectric constant tensor:
#      x y z
#    x 1.812730 0.000000 0.000000 
#    y 0.000000 1.928200 0.000000 
#    z 0.000000 0.000000 1.845780 
# 
# From -- ./inp_files/12925.got.cif
#   From: 2010.05.17/outbox.cif.g08.bks.cpg/sg52_7_cif.got.tgz:12925.got - 2010.06.03 12:15:38.
