data_PCOD9411308
_publ_section_title
;
Structure prediction by ZEFSAII (Michael W. Deem and Ramdas Pophale) SiO2 
 PCOD9411308
Probable space group: P N N A
;
_chemical_formula_sum "Si O2"
_cell_formula_units_Z 56
_cell_length_a 12.025721
_cell_length_b 13.283494
_cell_length_c 15.684479
_cell_angle_alpha 90.000000
_cell_angle_beta 90.000000
_cell_angle_gamma 90.000000
_cell_volume 2505.495026
_symmetry_space_group_name_H-M "P N N A"
_symmetry_group_IT_number 52
_symmetry_cell_setting 'orthorhombic'
loop_
_space_group_symop_operation_xyz
x,y,z
1/2-x,-y,z
x,1/2-y,1/2-z
1/2-x,1/2+y,1/2-z
-x,-y,-z
1/2+x,y,-z
-x,1/2+y,1/2+z
1/2+x,1/2-y,1/2+z
loop_
_atom_site_type_symbol
_atom_site_label
_atom_site_fract_x
_atom_site_fract_y
_atom_site_fract_z
Si Si1 0.072999 0.136899 0.721477
Si Si2 0.844362 0.580321 0.493404
Si Si3 0.080912 0.250000 0.250000
Si Si4 0.074982 0.891394 0.430109
Si Si5 0.258823 0.228034 0.105541
Si Si6 0.474498 0.404189 0.883227
Si Si7 0.449019 0.063750 0.129082
Si Si8 0.750000 0.500000 0.188513
O O1 0.063238 0.250000 0.750000
O O2 0.195267 0.093293 0.736988
O O3 0.029842 0.142752 0.625622
O O4 0.990117 0.062499 0.773643
O O5 0.750000 0.500000 0.465913
O O6 0.792456 0.687300 0.517459
O O7 0.895398 0.531076 0.580514
O O8 0.941348 0.588042 0.425391
O O9 0.166171 0.213491 0.177273
O O10 0.010712 0.332699 0.195318
O O11 0.187436 0.838429 0.397971
O O12 0.053896 0.853637 0.526139
O O13 0.066507 0.011895 0.412994
O O14 0.359982 0.152428 0.123840
O O15 0.357509 0.458369 0.860677
#
# Coordination Sequence:
#
# PCOD9411308 Si02
#       8
#     8   8   4   8   8   8   8   4
#     4  11  22  40  72  98 137 188 240 289 364 439
#     4   9  22  40  65 100 144 188 233 302 377 453
#     4  12  28  44  72 114 138 186 252 324 366 456
#     4  10  23  47  75 100 146 197 239 311 366 465
#     4  11  23  41  68 104 138 188 239 296 382 437
#     4  10  26  50  73 105 149 188 257 303 384 447
#     4  10  21  42  63  98 144 182 240 295 369 453
#     4  10  26  44  66 106 136 190 228 300 358 440
#
# _framework density 22.350871999999999
#
# number of rings (size 3 to 8) (size 9 to 14) (size 15 to 20)
#    0.000    1.714    1.429    0.857    8.000    5.143 
#    2.571    0.000    0.000    0.000    0.000    0.000 
#    0.000    0.000    0.000    0.000    0.000    0.000 
#
# Total GULP energy -312235.250736 kJ/mol
# GULP energy per Si atom -5575.629477 kJ/mol
# Density = 2.230000 g / cm^3
# Si number density = 22.350872 Si / 1000 Ang^3
#
#
#
# Elastic Constant Matrix: (Units=GPa)
#
#
# Indices 1 2 3 4 5 6 
#
# 1 124.5894 40.8653 39.7644 0.0000 0.0000 0.0000
# 2 40.8653 64.8286 44.6683 0.0000 0.0000 0.0000
# 3 39.7644 44.6683 80.6986 0.0000 0.0000 0.0000
# 4 0.0000 0.0000 0.0000 30.1757 0.0000 0.0000
# 5 0.0000 0.0000 0.0000 0.0000 44.7691 0.0000
# 6 0.0000 0.0000 0.0000 0.0000 0.0000 8.9205
#
#
#
# Elastic Compliance Matrix: (Units=1/GPa)
#
#
# Indices 1 2 3 4 5 6 
#
# 1 0.010403 -0.004891 -0.002419 0.000000 0.000000 0.000000
# 2 -0.004891 0.027235 -0.012665 0.000000 0.000000 0.000000
# 3 -0.002419 -0.012665 0.020594 0.000000 0.000000 0.000000
# 4 0.000000 0.000000 0.000000 0.033139 0.000000 0.000000
# 5 0.000000 0.000000 0.000000 0.000000 0.022337 0.000000
# 6 0.000000 0.000000 0.000000 0.000000 0.000000 0.112101
#
#
# Mechanical properties :
#
#
# Convention : Reuss Voigt Hill
#
# Bulk Modulus (GPa) = 54.69815 57.85697 56.27756
# Shear Modulus (GPa) = 18.39242 26.42763 22.41003
#
# Velocity S-wave (km/s) = 2.87173 3.44233 3.16989
# Velocity P-wave (km/s) = 5.95998 6.46077 6.21542
#
# Compressibility (1/GPa) = 0.01828215
#
# Stress axis : x y z
#
# Youngs Moduli (GPa) = 96.13074 36.71793 48.55801
#
# Poissons Ratio (x) = 0.17958 0.11745
# Poissons Ratio (y) = 0.47015 0.61499
# Poissons Ratio (z) = 0.23251 0.46503
#
# Static dielectric constant tensor:
#      x y z
#    x 1.804000 0.000000 0.000000 
#    y 0.000000 1.893770 0.000000 
#    z 0.000000 0.000000 1.895050 
# 
# From -- ./inp_files/26207.got.cif
#   From: 2010.05.17/outbox.cif.g08.bks.cpg/sg52_14_cif.got.tgz:26207.got - 2010.06.03 12:15:38.
