data_PCOD9411141
_publ_section_title
;
Structure prediction by ZEFSAII (Michael W. Deem and Ramdas Pophale) SiO2 
 PCOD9411141
Probable space group: P N N A
;
_chemical_formula_sum "Si O2"
_cell_formula_units_Z 24
_cell_length_a 8.063748
_cell_length_b 4.945018
_cell_length_c 28.672893
_cell_angle_alpha 90.000000
_cell_angle_beta 90.000000
_cell_angle_gamma 90.000000
_cell_volume 1143.342476
_symmetry_space_group_name_H-M "P N N A"
_symmetry_group_IT_number 52
_symmetry_cell_setting 'orthorhombic'
loop_
_space_group_symop_operation_xyz
x,y,z
1/2-x,-y,z
x,1/2-y,1/2-z
1/2-x,1/2+y,1/2-z
-x,-y,-z
1/2+x,y,-z
-x,1/2+y,1/2+z
1/2+x,1/2-y,1/2+z
loop_
_atom_site_type_symbol
_atom_site_label
_atom_site_fract_x
_atom_site_fract_y
_atom_site_fract_z
Si Si1 0.442631 0.917812 0.051916
Si Si2 0.436686 0.902476 0.606874
Si Si3 0.128257 0.743755 0.200591
O O1 0.472530 0.615442 0.071635
O O2 0.250000 0.000000 0.057031
O O3 0.553218 0.110957 0.083625
O O4 0.500000 0.000000 0.000000
O O5 0.524593 0.853743 0.656289
O O6 0.250000 0.000000 0.612734
O O7 0.250000 0.500000 0.211110
O O8 0.029535 0.750000 0.250000
O O9 0.250000 0.000000 0.189668
#
# Coordination Sequence:
#
# PCOD9411141 Si02
#       3
#     8   8   8
#     4  12  25  43  65  91 125 165 209 256 311 372
#     4  12  24  41  64  94 128 163 207 258 313 370
#     4  10  21  40  65  91 122 164 211 256 309 372
#
# _framework density 20.991085000000002
#
# number of rings (size 3 to 8) (size 9 to 14) (size 15 to 20)
#    0.000    0.667    0.000   10.000    0.000    0.000 
#    0.000    8.333    0.000    0.000    0.000    0.000 
#    0.000    0.000    0.000    0.000    0.000    0.000 
#
# Total GULP energy -133924.919985 kJ/mol
# GULP energy per Si atom -5580.204999 kJ/mol
# Density = 2.094331 g / cm^3
# Si number density = 20.991085 Si / 1000 Ang^3
#
#
#
# Elastic Constant Matrix: (Units=GPa)
#
#
# Indices 1 2 3 4 5 6 
#
# 1 101.0418 1.6529 19.9145 0.0000 0.0000 0.0000
# 2 1.6529 85.5082 -16.7573 0.0000 0.0000 0.0000
# 3 19.9145 -16.7573 146.1445 0.0000 0.0000 0.0000
# 4 0.0000 0.0000 0.0000 32.5666 0.0000 0.0000
# 5 0.0000 0.0000 0.0000 0.0000 143.8544 0.0000
# 6 0.0000 0.0000 0.0000 0.0000 0.0000 31.5382
#
#
#
# Elastic Compliance Matrix: (Units=1/GPa)
#
#
# Indices 1 2 3 4 5 6 
#
# 1 0.010189 -0.000480 -0.001443 0.000000 0.000000 0.000000
# 2 -0.000480 0.011986 0.001440 0.000000 0.000000 0.000000
# 3 -0.001443 0.001440 0.007204 0.000000 0.000000 0.000000
# 4 0.000000 0.000000 0.000000 0.030706 0.000000 0.000000
# 5 0.000000 0.000000 0.000000 0.000000 0.006951 0.000000
# 6 0.000000 0.000000 0.000000 0.000000 0.000000 0.031708
#
#
# Mechanical properties :
#
#
# Convention : Reuss Voigt Hill
#
# Bulk Modulus (GPa) = 35.19558 38.03499 36.61529
# Shear Modulus (GPa) = 45.79463 63.45079 54.62271
#
# Velocity S-wave (km/s) = 4.67585 5.50392 5.10670
# Velocity P-wave (km/s) = 6.77899 7.65178 7.22857
#
# Compressibility (1/GPa) = 0.02841266
#
# Stress axis : x y z
#
# Youngs Moduli (GPa) = 98.14277 83.42922 138.80558
#
# Poissons Ratio (x) = 0.04003 0.20036
# Poissons Ratio (y) = 0.04709 -0.19985
# Poissons Ratio (z) = 0.14167 -0.12012
#
# Static dielectric constant tensor:
#      x y z
#    x 1.710180 0.000000 0.000000 
#    y 0.000000 1.748390 0.000000 
#    z 0.000000 0.000000 2.036710 
# 
# From -- ./inp_files/39023.got.cif
#   From: 2010.05.17/outbox.cif.g08.bks.cpg/sg52_20_cif.got.tgz:39023.got - 2010.06.03 12:15:38.
