data_PCOD9411794
_publ_section_title
;
Structure prediction by ZEFSAII (Michael W. Deem and Ramdas Pophale) SiO2 
 PCOD9411794
Probable space group: P N N A
;
_chemical_formula_sum "Si O2"
_cell_formula_units_Z 40
_cell_length_a 8.313078
_cell_length_b 9.885229
_cell_length_c 23.018182
_cell_angle_alpha 90.000000
_cell_angle_beta 90.000000
_cell_angle_gamma 90.000000
_cell_volume 1891.557770
_symmetry_space_group_name_H-M "P N N A"
_symmetry_group_IT_number 52
_symmetry_cell_setting 'orthorhombic'
loop_
_space_group_symop_operation_xyz
x,y,z
1/2-x,-y,z
x,1/2-y,1/2-z
1/2-x,1/2+y,1/2-z
-x,-y,-z
1/2+x,y,-z
-x,1/2+y,1/2+z
1/2+x,1/2-y,1/2+z
loop_
_atom_site_type_symbol
_atom_site_label
_atom_site_fract_x
_atom_site_fract_y
_atom_site_fract_z
Si Si1 0.930867 0.294076 0.052053
Si Si2 0.937275 0.542664 0.618934
Si Si3 0.911750 0.589944 0.747581
Si Si4 0.057910 0.980950 0.368231
Si Si5 0.059360 0.266985 0.573843
O O1 0.745776 0.263853 0.064857
O O2 0.977180 0.438244 0.078857
O O3 0.037651 0.182943 0.085799
O O4 0.966040 0.276769 0.984314
O O5 0.750000 0.500000 0.618308
O O6 0.992505 0.559974 0.685688
O O7 0.032482 0.423748 0.587125
O O8 0.750000 0.500000 0.747414
O O9 0.875858 0.750000 0.750000
O O10 0.997664 0.545203 0.807048
O O11 0.011680 0.824659 0.374373
O O12 0.250000 0.000000 0.372664
#
# Coordination Sequence:
#
# PCOD9411794 Si02
#       5
#     8   8   8   8   8
#     4  12  24  45  64  95 137 168 222 268 331 390
#     4  11  23  42  68  96 131 171 219 268 321 387
#     4  10  22  40  69  99 132 170 218 269 322 390
#     4  11  23  42  68  96 131 171 219 268 321 387
#     4  12  26  41  66  97 129 178 214 272 331 390
#
# _framework density 21.146591999999998
#
# number of rings (size 3 to 8) (size 9 to 14) (size 15 to 20)
#    0.000    0.800    2.000    6.000    8.400    0.000 
#    0.000    6.000    0.000    0.000    0.000    0.000 
#    0.000    0.000    0.000    0.000    0.000    0.000 
#
# Total GULP energy -223803.035256 kJ/mol
# GULP energy per Si atom -5595.075881 kJ/mol
# Density = 2.109846 g / cm^3
# Si number density = 21.146592 Si / 1000 Ang^3
#
#
#
# Elastic Constant Matrix: (Units=GPa)
#
#
# Indices 1 2 3 4 5 6 
#
# 1 76.4707 -20.6486 -7.1332 0.0000 0.0000 0.0000
# 2 -20.6486 50.3243 10.2654 0.0000 0.0000 0.0000
# 3 -7.1332 10.2654 100.2100 0.0000 0.0000 0.0000
# 4 0.0000 0.0000 0.0000 69.7068 0.0000 0.0000
# 5 0.0000 0.0000 0.0000 0.0000 14.8978 0.0000
# 6 0.0000 0.0000 0.0000 0.0000 0.0000 36.6578
#
#
#
# Elastic Compliance Matrix: (Units=1/GPa)
#
#
# Indices 1 2 3 4 5 6 
#
# 1 0.014725 0.005952 0.000438 0.000000 0.000000 0.000000
# 2 0.005952 0.022701 -0.001902 0.000000 0.000000 0.000000
# 3 0.000438 -0.001902 0.010205 0.000000 0.000000 0.000000
# 4 0.000000 0.000000 0.000000 0.014346 0.000000 0.000000
# 5 0.000000 0.000000 0.000000 0.000000 0.067124 0.000000
# 6 0.000000 0.000000 0.000000 0.000000 0.000000 0.027279
#
#
# Mechanical properties :
#
#
# Convention : Reuss Voigt Hill
#
# Bulk Modulus (GPa) = 17.66486 21.33026 19.49756
# Shear Modulus (GPa) = 30.07109 40.55388 35.31249
#
# Velocity S-wave (km/s) = 3.77507 4.38396 4.09086
# Velocity P-wave (km/s) = 5.23194 5.97781 5.61727
#
# Compressibility (1/GPa) = 0.05660955
#
# Stress axis : x y z
#
# Youngs Moduli (GPa) = 67.91142 44.05017 97.99051
#
# Poissons Ratio (x) = -0.26221 -0.04296
# Poissons Ratio (y) = -0.40424 0.18636
# Poissons Ratio (z) = -0.02977 0.08377
#
# Static dielectric constant tensor:
#      x y z
#    x 1.737150 0.000000 0.000000 
#    y 0.000000 1.712830 0.000000 
#    z 0.000000 0.000000 1.789220 
# 
# From -- ./inp_files/39171.got.cif
#   From: 2010.05.17/outbox.cif.g08.bks.cpg/sg52_20_cif.got.tgz:39171.got - 2010.06.03 12:15:38.
