data_PCOD9411962
_publ_section_title
;
Structure prediction by ZEFSAII (Michael W. Deem and Ramdas Pophale) SiO2 
 PCOD9411962
Probable space group: P N N A
;
_chemical_formula_sum "Si O2"
_cell_formula_units_Z 20
_cell_length_a 4.825494
_cell_length_b 5.230561
_cell_length_c 30.211184
_cell_angle_alpha 90.000000
_cell_angle_beta 90.000000
_cell_angle_gamma 90.000000
_cell_volume 762.531514
_symmetry_space_group_name_H-M "P N N A"
_symmetry_group_IT_number 52
_symmetry_cell_setting 'orthorhombic'
loop_
_space_group_symop_operation_xyz
x,y,z
1/2-x,-y,z
x,1/2-y,1/2-z
1/2-x,1/2+y,1/2-z
-x,-y,-z
1/2+x,y,-z
-x,1/2+y,1/2+z
1/2+x,1/2-y,1/2+z
loop_
_atom_site_type_symbol
_atom_site_label
_atom_site_fract_x
_atom_site_fract_y
_atom_site_fract_z
Si Si1 0.943211 0.749889 0.202979
Si Si2 0.554033 0.246552 0.393669
Si Si3 0.250000 0.500000 0.466086
O O1 0.750000 0.500000 0.203095
O O2 0.101986 0.750000 0.250000
O O3 0.085367 0.747360 0.155166
O O4 0.750000 0.000000 0.202985
O O5 0.750000 0.500000 0.396934
O O6 0.327525 0.275487 0.431827
O O7 0.750000 0.000000 0.398126
O O8 0.500000 0.500000 0.500000
#
# Coordination Sequence:
#
# PCOD9411962 Si02
#       3
#     8   8   4
#     4   8  14  28  56  91 128 171 218 272 340 416
#     4  10  22  42  67  99 139 180 232 293 356 426
#     4  12  26  48  72 104 138 188 242 298 356 420
#
# _framework density 26.228422999999999
#
# number of rings (size 3 to 8) (size 9 to 14) (size 15 to 20)
#    0.000    2.400    2.000    0.000    0.000    3.200 
#    0.000    0.000    0.000   24.000    0.000    0.000 
#    0.000    0.000    0.000    0.000    0.000    0.000 
#
# Total GULP energy -111866.070488 kJ/mol
# GULP energy per Si atom -5593.303524 kJ/mol
# Density = 2.616873 g / cm^3
# Si number density = 26.228423 Si / 1000 Ang^3
#
#
#
# Elastic Constant Matrix: (Units=GPa)
#
#
# Indices 1 2 3 4 5 6 
#
# 1 116.0833 55.6878 81.4033 0.0000 0.0000 0.0000
# 2 55.6878 236.4608 33.8207 0.0000 0.0000 0.0000
# 3 81.4033 33.8207 336.7711 0.0000 0.0000 0.0000
# 4 0.0000 0.0000 0.0000 6.1300 0.0000 0.0000
# 5 0.0000 0.0000 0.0000 0.0000 -105.6894 0.0000
# 6 0.0000 0.0000 0.0000 0.0000 0.0000 62.5229
#
#
#
# Elastic Compliance Matrix: (Units=1/GPa)
#
#
# Indices 1 2 3 4 5 6 
#
# 1 0.011531 -0.002351 -0.002551 0.000000 0.000000 0.000000
# 2 -0.002351 0.004770 0.000089 0.000000 0.000000 0.000000
# 3 -0.002551 0.000089 0.003577 0.000000 0.000000 0.000000
# 4 0.000000 0.000000 0.000000 0.163133 0.000000 0.000000
# 5 0.000000 0.000000 0.000000 0.000000 -0.009462 0.000000
# 6 0.000000 0.000000 0.000000 0.000000 0.000000 0.015994
#
#
# Mechanical properties :
#
#
# Convention : Reuss Voigt Hill
#
# Bulk Modulus (GPa) = 97.53576 114.57099 106.05337
# Shear Modulus (GPa) = 24.68082 27.15291 25.91687
#
# Velocity S-wave (km/s) = 3.07089 3.22102 3.14685
# Velocity P-wave (km/s) = 7.05986 7.59013 7.32979
#
# Compressibility (1/GPa) = 0.01025265
#
# Stress axis : x y z
#
# Youngs Moduli (GPa) = 86.72076 209.64837 279.55663
#
# Poissons Ratio (x) = 0.49284 0.71321
# Poissons Ratio (y) = 0.20386 -0.02494
# Poissons Ratio (z) = 0.22124 -0.01870
#
# Static dielectric constant tensor:
#      x y z
#    x 2.275330 0.000000 0.000000 
#    y 0.000000 2.030940 0.000000 
#    z 0.000000 0.000000 2.100470 
# 
# From -- ./inp_files/41268.got.cif
#   From: 2010.05.17/outbox.cif.g08.bks.cpg/sg52_21_cif.got.tgz:41268.got - 2010.06.03 12:15:38.
