data_PCOD9411741
_publ_section_title
;
Structure prediction by ZEFSAII (Michael W. Deem and Ramdas Pophale) SiO2 
 PCOD9411741
Probable space group: P N N A
;
_chemical_formula_sum "Si O2"
_cell_formula_units_Z 32
_cell_length_a 8.690034
_cell_length_b 7.688637
_cell_length_c 21.448013
_cell_angle_alpha 90.000000
_cell_angle_beta 90.000000
_cell_angle_gamma 90.000000
_cell_volume 1433.038628
_symmetry_space_group_name_H-M "P N N A"
_symmetry_group_IT_number 52
_symmetry_cell_setting 'orthorhombic'
loop_
_space_group_symop_operation_xyz
x,y,z
1/2-x,-y,z
x,1/2-y,1/2-z
1/2-x,1/2+y,1/2-z
-x,-y,-z
1/2+x,y,-z
-x,1/2+y,1/2+z
1/2+x,1/2-y,1/2+z
loop_
_atom_site_type_symbol
_atom_site_label
_atom_site_fract_x
_atom_site_fract_y
_atom_site_fract_z
Si Si1 0.681223 0.695869 0.043807
Si Si2 0.003276 0.697494 0.419980
Si Si3 0.126746 0.250000 0.250000
Si Si4 0.250000 0.500000 0.349884
Si Si5 0.429801 0.470752 0.839139
O O1 0.750000 0.500000 0.033733
O O2 0.574796 0.669443 0.104434
O O3 0.825151 0.818410 0.060508
O O4 0.591806 0.748683 0.982616
O O5 0.099374 0.540588 0.390828
O O6 0.998000 0.855068 0.369780
O O7 0.222469 0.336552 0.305012
O O8 0.022375 0.398981 0.218895
O O9 0.250000 0.500000 0.822862
#
# Coordination Sequence:
#
# PCOD9411741 Si02
#       5
#     8   8   4   4   8
#     4   9  19  38  67  98 126 165 206 266 323 385
#     4  10  22  40  64  96 130 163 216 261 325 379
#     4  12  26  44  62  90 132 176 214 260 314 376
#     4  12  28  40  62  92 130 176 212 266 310 386
#     4   9  21  42  68  93 123 171 216 260 317 381
#
# _framework density 22.330174
#
# number of rings (size 3 to 8) (size 9 to 14) (size 15 to 20)
#    0.000    2.500    0.000    4.500    7.000    5.000 
#    0.000    0.000    0.000    0.000    0.000    0.000 
#    0.000    0.000    0.000    0.000    0.000    0.000 
#
# Total GULP energy -178922.907687 kJ/mol
# GULP energy per Si atom -5591.340865 kJ/mol
# Density = 2.227935 g / cm^3
# Si number density = 22.330174 Si / 1000 Ang^3
#
#
#
# Elastic Constant Matrix: (Units=GPa)
#
#
# Indices 1 2 3 4 5 6 
#
# 1 74.2856 52.0694 24.0687 0.0000 0.0000 0.0000
# 2 52.0694 62.5021 8.8034 0.0000 0.0000 0.0000
# 3 24.0687 8.8034 44.5655 0.0000 0.0000 0.0000
# 4 0.0000 0.0000 0.0000 30.5089 0.0000 0.0000
# 5 0.0000 0.0000 0.0000 0.0000 36.3517 0.0000
# 6 0.0000 0.0000 0.0000 0.0000 0.0000 37.3463
#
#
#
# Elastic Compliance Matrix: (Units=1/GPa)
#
#
# Indices 1 2 3 4 5 6 
#
# 1 0.040910 -0.031856 -0.015802 0.000000 0.000000 0.000000
# 2 -0.031856 0.041263 0.009054 0.000000 0.000000 0.000000
# 3 -0.015802 0.009054 0.029185 0.000000 0.000000 0.000000
# 4 0.000000 0.000000 0.000000 0.032777 0.000000 0.000000
# 5 0.000000 0.000000 0.000000 0.000000 0.027509 0.000000
# 6 0.000000 0.000000 0.000000 0.000000 0.000000 0.026776
#
#
# Mechanical properties :
#
#
# Convention : Reuss Voigt Hill
#
# Bulk Modulus (GPa) = 29.28309 39.02623 34.15466
# Shear Modulus (GPa) = 17.42086 27.26884 22.34485
#
# Velocity S-wave (km/s) = 2.79614 3.49831 3.16675
# Velocity P-wave (km/s) = 4.85456 5.81656 5.35720
#
# Compressibility (1/GPa) = 0.03414941
#
# Stress axis : x y z
#
# Youngs Moduli (GPa) = 24.44368 24.23485 34.26458
#
# Poissons Ratio (x) = 0.77202 0.54144
# Poissons Ratio (y) = 0.77868 -0.31022
# Poissons Ratio (z) = 0.38626 -0.21941
#
# Static dielectric constant tensor:
#      x y z
#    x 1.779260 0.000000 0.000000 
#    y 0.000000 1.852830 0.000000 
#    z 0.000000 0.000000 1.771710 
# 
# From -- ./inp_files/35496.got.cif
#   From: 2010.05.17/outbox.cif.g08.bks.cpg/sg52_18_cif.got.tgz:35496.got - 2010.06.03 12:15:38.
