data_PCOD9411338
_publ_section_title
;
Structure prediction by ZEFSAII (Michael W. Deem and Ramdas Pophale) SiO2 
 PCOD9411338
Probable space group: P N N A
;
_chemical_formula_sum "Si O2"
_cell_formula_units_Z 48
_cell_length_a 7.872085
_cell_length_b 23.880571
_cell_length_c 11.290050
_cell_angle_alpha 90.000000
_cell_angle_beta 90.000000
_cell_angle_gamma 90.000000
_cell_volume 2122.415198
_symmetry_space_group_name_H-M "P N N A"
_symmetry_group_IT_number 52
_symmetry_cell_setting 'orthorhombic'
loop_
_space_group_symop_operation_xyz
x,y,z
1/2-x,-y,z
x,1/2-y,1/2-z
1/2-x,1/2+y,1/2-z
-x,-y,-z
1/2+x,y,-z
-x,1/2+y,1/2+z
1/2+x,1/2-y,1/2+z
loop_
_atom_site_type_symbol
_atom_site_label
_atom_site_fract_x
_atom_site_fract_y
_atom_site_fract_z
Si Si1 0.989727 0.440184 0.185851
Si Si2 0.287584 0.900579 0.525106
Si Si3 0.860497 0.750000 0.250000
Si Si4 0.919488 0.164042 0.637009
Si Si5 0.099049 0.615639 0.386031
Si Si6 0.210533 0.859706 0.862418
Si Si7 0.250000 0.000000 0.168075
O O1 0.141156 0.422556 0.098121
O O2 0.077469 0.489804 0.256873
O O3 0.917423 0.395693 0.280903
O O4 0.835794 0.442924 0.092286
O O5 0.438005 0.883182 0.610980
O O6 0.194270 0.843837 0.479637
O O7 0.751154 0.800568 0.198599
O O8 0.985494 0.777513 0.347361
O O9 0.844167 0.147860 0.765836
O O10 0.135748 0.647904 0.507084
O O11 0.202247 0.557370 0.397396
O O12 0.895036 0.610264 0.374515
#
# Coordination Sequence:
#
# PCOD9411338 Si02
#       7
#     8   8   4   8   8   8   4
#     4  11  23  43  67 102 138 186 235 292 347 429
#     4  10  21  43  68  93 145 178 223 303 338 416
#     4  10  22  44  72 106 128 190 228 290 384 408
#     4  10  21  42  67 101 137 178 237 294 352 419
#     4  11  24  45  67 106 141 185 238 301 338 438
#     4  11  25  47  71  99 151 175 244 298 351 429
#     4  12  26  44  74 102 142 196 238 274 396 398
#
# _framework density 22.615742999999998
#
# number of rings (size 3 to 8) (size 9 to 14) (size 15 to 20)
#    0.000    1.333    5.000    1.000    0.000    6.667 
#    0.000    0.833    0.000    0.000    0.000    0.000 
#    0.000    0.000    0.000    0.000    0.000    0.000 
#
# Total GULP energy -267780.469794 kJ/mol
# GULP energy per Si atom -5578.759787 kJ/mol
# Density = 2.256427 g / cm^3
# Si number density = 22.615743 Si / 1000 Ang^3
#
#
#
# Elastic Constant Matrix: (Units=GPa)
#
#
# Indices 1 2 3 4 5 6 
#
# 1 60.0964 22.8211 32.0466 0.0000 0.0000 0.0000
# 2 22.8211 79.9605 32.0684 0.0000 0.0000 0.0000
# 3 32.0466 32.0684 134.0199 0.0000 0.0000 0.0000
# 4 0.0000 0.0000 0.0000 12.2399 0.0000 0.0000
# 5 0.0000 0.0000 0.0000 0.0000 43.4911 0.0000
# 6 0.0000 0.0000 0.0000 0.0000 0.0000 13.8024
#
#
#
# Elastic Compliance Matrix: (Units=1/GPa)
#
#
# Indices 1 2 3 4 5 6 
#
# 1 0.020302 -0.004256 -0.003836 0.000000 0.000000 0.000000
# 2 -0.004256 0.014726 -0.002506 0.000000 0.000000 0.000000
# 3 -0.003836 -0.002506 0.008979 0.000000 0.000000 0.000000
# 4 0.000000 0.000000 0.000000 0.081700 0.000000 0.000000
# 5 0.000000 0.000000 0.000000 0.000000 0.022993 0.000000
# 6 0.000000 0.000000 0.000000 0.000000 0.000000 0.072451
#
#
# Mechanical properties :
#
#
# Convention : Reuss Voigt Hill
#
# Bulk Modulus (GPa) = 43.83994 49.77211 46.80603
# Shear Modulus (GPa) = 20.00406 26.38274 23.19340
#
# Velocity S-wave (km/s) = 2.97731 3.41921 3.20588
# Velocity P-wave (km/s) = 5.58981 6.13543 5.86896
#
# Compressibility (1/GPa) = 0.02281025
#
# Stress axis : x y z
#
# Youngs Moduli (GPa) = 49.25712 67.90801 111.37690
#
# Poissons Ratio (x) = 0.28899 0.42726
# Poissons Ratio (y) = 0.20962 0.27911
# Poissons Ratio (z) = 0.18896 0.17018
#
# Static dielectric constant tensor:
#      x y z
#    x 1.917170 0.000000 0.000000 
#    y 0.000000 1.845030 0.000000 
#    z 0.000000 0.000000 1.865180 
# 
# From -- ./inp_files/16995.got.cif
#   From: 2010.05.17/outbox.cif.g08.bks.cpg/sg52_9_cif.got.tgz:16995.got - 2010.06.03 12:15:38.
