data_PCOD9411126
_publ_section_title
;
Structure prediction by ZEFSAII (Michael W. Deem and Ramdas Pophale) SiO2 
 PCOD9411126
Probable space group: P N N A
;
_chemical_formula_sum "Si O2"
_cell_formula_units_Z 60
_cell_length_a 26.038019
_cell_length_b 7.725573
_cell_length_c 13.236071
_cell_angle_alpha 90.000000
_cell_angle_beta 90.000000
_cell_angle_gamma 90.000000
_cell_volume 2662.549731
_symmetry_space_group_name_H-M "P N N A"
_symmetry_group_IT_number 52
_symmetry_cell_setting 'orthorhombic'
loop_
_space_group_symop_operation_xyz
x,y,z
1/2-x,-y,z
x,1/2-y,1/2-z
1/2-x,1/2+y,1/2-z
-x,-y,-z
1/2+x,y,-z
-x,1/2+y,1/2+z
1/2+x,1/2-y,1/2+z
loop_
_atom_site_type_symbol
_atom_site_label
_atom_site_fract_x
_atom_site_fract_y
_atom_site_fract_z
Si Si1 0.271099 0.195611 0.010759
Si Si2 0.900889 0.995101 0.466551
Si Si3 0.964553 0.214480 0.142352
Si Si4 0.837788 0.112006 0.664032
Si Si5 0.630645 0.946867 0.087931
Si Si6 0.930329 0.860388 0.934962
Si Si7 0.314514 0.700331 0.861027
Si Si8 0.641924 0.250000 0.750000
O O1 0.289528 0.296629 0.109350
O O2 0.250000 0.000000 0.032256
O O3 0.229073 0.298036 0.946268
O O4 0.320981 0.169048 0.939579
O O5 0.943319 0.120948 0.419001
O O6 0.877454 0.072443 0.571280
O O7 0.925530 0.810764 0.495390
O O8 0.854108 0.954180 0.387277
O O9 0.989120 0.250000 0.250000
O O10 0.010180 0.114883 0.087624
O O11 0.911923 0.113680 0.165321
O O12 0.855635 0.250000 0.750000
O O13 0.828205 0.921704 0.712335
O O14 0.652625 0.128584 0.119557
O O15 0.596741 0.978050 0.987964
O O16 0.894818 0.816116 0.839433
O O17 0.292631 0.750000 0.750000
#
# Coordination Sequence:
#
# PCOD9411126 Si02
#       8
#     8   8   8   8   8   8   8   4
#     4  10  22  44  69 101 135 180 240 292 361 432
#     4  10  23  42  66  98 139 179 233 291 353 421
#     4  12  22  37  63 101 135 178 229 283 351 423
#     4  11  23  46  71 101 141 188 236 300 358 421
#     4  10  21  40  64  91 132 175 226 284 351 420
#     4  10  21  41  64  93 134 177 228 285 348 415
#     4  10  22  44  69  96 136 183 227 293 368 428
#     4  10  22  40  74 100 134 188 238 282 364 414
#
# _framework density 22.534790000000001
#
# number of rings (size 3 to 8) (size 9 to 14) (size 15 to 20)
#    0.000    1.600    2.000    2.400    0.000    2.133 
#    9.600    0.000    2.933    0.000    0.000    0.000 
#    0.000    0.000    0.000    0.000    0.000    0.000 
#
# Total GULP energy -334859.348227 kJ/mol
# GULP energy per Si atom -5580.989137 kJ/mol
# Density = 2.248350 g / cm^3
# Si number density = 22.534790 Si / 1000 Ang^3
#
#
#
# Elastic Constant Matrix: (Units=GPa)
#
#
# Indices 1 2 3 4 5 6 
#
# 1 81.3585 14.7656 6.2034 0.0000 0.0000 0.0000
# 2 14.7656 71.8909 18.7510 0.0000 0.0000 0.0000
# 3 6.2034 18.7510 87.4141 0.0000 0.0000 0.0000
# 4 0.0000 0.0000 0.0000 35.0310 0.0000 0.0000
# 5 0.0000 0.0000 0.0000 0.0000 -94.7904 0.0000
# 6 0.0000 0.0000 0.0000 0.0000 0.0000 0.9279
#
#
#
# Elastic Compliance Matrix: (Units=1/GPa)
#
#
# Indices 1 2 3 4 5 6 
#
# 1 0.012778 -0.002529 -0.000364 0.000000 0.000000 0.000000
# 2 -0.002529 0.015235 -0.003089 0.000000 0.000000 0.000000
# 3 -0.000364 -0.003089 0.012128 0.000000 0.000000 0.000000
# 4 0.000000 0.000000 0.000000 0.028546 0.000000 0.000000
# 5 0.000000 0.000000 0.000000 0.000000 -0.010550 0.000000
# 6 0.000000 0.000000 0.000000 0.000000 0.000000 1.077723
#
#
# Mechanical properties :
#
#
# Convention : Reuss Voigt Hill
#
# Bulk Modulus (GPa) = 35.49008 35.56705 35.52856
# Shear Modulus (GPa) = 4.32071 1.62993 2.97532
#
# Velocity S-wave (km/s) = 1.38619 0.85139 1.15030
# Velocity P-wave (km/s) = 4.28313 4.09682 4.19101
#
# Compressibility (1/GPa) = 0.02817689
#
# Stress axis : x y z
#
# Youngs Moduli (GPa) = 78.25876 65.63802 82.45270
#
# Poissons Ratio (x) = 0.16603 0.03003
# Poissons Ratio (y) = 0.19795 0.25466
# Poissons Ratio (z) = 0.02850 0.20272
#
# Static dielectric constant tensor:
#      x y z
#    x 1.815010 0.000000 0.000000 
#    y 0.000000 1.888590 0.000000 
#    z 0.000000 0.000000 1.935400 
# 
# From -- ./inp_files/22914.got.cif
#   From: 2010.05.17/outbox.cif.g08.bks.cpg/sg52_12_cif.got.tgz:22914.got - 2010.06.03 12:15:38.
