data_PCOD9411248
_publ_section_title
;
Structure prediction by ZEFSAII (Michael W. Deem and Ramdas Pophale) SiO2 
 PCOD9411248
Probable space group: P N N A
;
_chemical_formula_sum "Si O2"
_cell_formula_units_Z 32
_cell_length_a 4.755923
_cell_length_b 14.264981
_cell_length_c 17.912142
_cell_angle_alpha 90.000000
_cell_angle_beta 90.000000
_cell_angle_gamma 90.000000
_cell_volume 1215.216159
_symmetry_space_group_name_H-M "P N N A"
_symmetry_group_IT_number 52
_symmetry_cell_setting 'orthorhombic'
loop_
_space_group_symop_operation_xyz
x,y,z
1/2-x,-y,z
x,1/2-y,1/2-z
1/2-x,1/2+y,1/2-z
-x,-y,-z
1/2+x,y,-z
-x,1/2+y,1/2+z
1/2+x,1/2-y,1/2+z
loop_
_atom_site_type_symbol
_atom_site_label
_atom_site_fract_x
_atom_site_fract_y
_atom_site_fract_z
Si Si1 0.799131 0.135322 0.702025
Si Si2 0.123784 0.366724 0.448735
Si Si3 0.725540 0.750000 0.250000
Si Si4 0.750000 0.500000 0.677845
Si Si5 0.937678 0.855368 0.549734
O O1 0.509350 0.169427 0.741147
O O2 0.690765 0.099378 0.622995
O O3 0.037183 0.215959 0.689841
O O4 0.921982 0.064670 0.763807
O O5 0.435360 0.384769 0.478720
O O6 0.078957 0.432714 0.378367
O O7 0.079605 0.256681 0.432297
O O8 0.749157 0.876036 0.477130
#
# Coordination Sequence:
#
# PCOD9411248 Si02
#       5
#     8   8   4   4   8
#     4  11  24  41  65  98 129 173 220 267 329 380
#     4  10  22  39  61  90 127 169 206 252 319 390
#     4  10  22  42  64  88 130 172 220 260 304 396
#     4  12  26  40  64 100 140 162 200 274 340 390
#     4  10  21  41  66  88 121 173 228 265 302 381
#
# _framework density 26.332761999999999
#
# number of rings (size 3 to 8) (size 9 to 14) (size 15 to 20)
#    0.000    1.500    0.000    5.250    0.000   13.000 
#    0.000    1.250    0.000    0.000    0.000    0.000 
#    0.000    0.000    0.000    0.000    0.000    0.000 
#
# Total GULP energy -178520.801829 kJ/mol
# GULP energy per Si atom -5578.775057 kJ/mol
# Density = 2.627283 g / cm^3
# Si number density = 26.332762 Si / 1000 Ang^3
#
#
#
# Elastic Constant Matrix: (Units=GPa)
#
#
# Indices 1 2 3 4 5 6 
#
# 1 99.0693 23.3287 -11.1167 0.0000 0.0000 0.0000
# 2 23.3287 63.4985 60.0520 0.0000 0.0000 0.0000
# 3 -11.1167 60.0520 125.2157 0.0000 0.0000 0.0000
# 4 0.0000 0.0000 0.0000 19.1915 0.0000 0.0000
# 5 0.0000 0.0000 0.0000 0.0000 42.2995 0.0000
# 6 0.0000 0.0000 0.0000 0.0000 0.0000 3.8324
#
#
#
# Elastic Compliance Matrix: (Units=1/GPa)
#
#
# Indices 1 2 3 4 5 6 
#
# 1 0.013439 -0.011101 0.006517 0.000000 0.000000 0.000000
# 2 -0.011101 0.037989 -0.019205 0.000000 0.000000 0.000000
# 3 0.006517 -0.019205 0.017775 0.000000 0.000000 0.000000
# 4 0.000000 0.000000 0.000000 0.052106 0.000000 0.000000
# 5 0.000000 0.000000 0.000000 0.000000 0.023641 0.000000
# 6 0.000000 0.000000 0.000000 0.000000 0.000000 0.260931
#
#
# Mechanical properties :
#
#
# Convention : Reuss Voigt Hill
#
# Bulk Modulus (GPa) = 46.23940 48.03460 47.13700
# Shear Modulus (GPa) = 10.85384 27.43265 19.14325
#
# Velocity S-wave (km/s) = 2.03242 3.23115 2.69917
# Velocity P-wave (km/s) = 4.80681 5.67463 5.25865
#
# Compressibility (1/GPa) = 0.02162658
#
# Stress axis : x y z
#
# Youngs Moduli (GPa) = 74.40950 26.32355 56.25860
#
# Poissons Ratio (x) = 0.29221 -0.36663
# Poissons Ratio (y) = 0.82598 1.08042
# Poissons Ratio (z) = -0.48491 0.50553
#
# Static dielectric constant tensor:
#      x y z
#    x 1.966850 0.000000 0.000000 
#    y 0.000000 2.277250 0.000000 
#    z 0.000000 0.000000 2.050160 
# 
# From -- ./inp_files/23504.got.cif
#   From: 2010.05.17/outbox.cif.g08.bks.cpg/sg52_12_cif.got.tgz:23504.got - 2010.06.03 12:15:38.
