data_PCOD9411592
_publ_section_title
;
Structure prediction by ZEFSAII (Michael W. Deem and Ramdas Pophale) SiO2 
 PCOD9411592
Probable space group: P N N A
;
_chemical_formula_sum "Si O2"
_cell_formula_units_Z 56
_cell_length_a 5.629948
_cell_length_b 21.978581
_cell_length_c 21.631648
_cell_angle_alpha 90.000000
_cell_angle_beta 90.000000
_cell_angle_gamma 90.000000
_cell_volume 2676.662661
_symmetry_space_group_name_H-M "P N N A"
_symmetry_group_IT_number 52
_symmetry_cell_setting 'orthorhombic'
loop_
_space_group_symop_operation_xyz
x,y,z
1/2-x,-y,z
x,1/2-y,1/2-z
1/2-x,1/2+y,1/2-z
-x,-y,-z
1/2+x,y,-z
-x,1/2+y,1/2+z
1/2+x,1/2-y,1/2+z
loop_
_atom_site_type_symbol
_atom_site_label
_atom_site_fract_x
_atom_site_fract_y
_atom_site_fract_z
Si Si1 0.750000 0.000000 0.461222
Si Si2 0.094910 0.060420 0.759022
Si Si3 0.298386 0.634021 0.226982
Si Si4 0.518640 0.250000 0.250000
Si Si5 0.179055 0.828880 0.974559
Si Si6 0.735333 0.685990 0.025258
Si Si7 0.812735 0.337386 0.330238
Si Si8 0.317987 0.388513 0.866524
O O1 0.776647 0.058017 0.415808
O O2 0.500000 0.000000 0.500000
O O3 0.149792 0.103770 0.816918
O O4 0.183769 0.092721 0.695700
O O5 0.816062 0.069662 0.748054
O O6 0.250000 0.000000 0.764169
O O7 0.472862 0.652070 0.282879
O O8 0.420548 0.623017 0.160985
O O9 0.132282 0.693407 0.224523
O O10 0.676970 0.278766 0.304100
O O11 0.128757 0.832856 0.901628
O O12 0.210949 0.757123 0.990019
O O13 0.442797 0.854066 0.991252
O O14 0.762833 0.671422 0.097450
O O15 0.974836 0.660359 0.993682
#
# Coordination Sequence:
#
# PCOD9411592 Si02
#       8
#     4   8   8   4   8   8   8   8
#     4  12  28  44  66  92 132 192 246 300 336 390
#     4  10  23  43  64  97 126 172 226 292 350 402
#     4  10  24  38  68  97 130 180 213 297 351 421
#     4  10  22  38  64 104 140 168 226 286 356 426
#     4  10  24  41  66  94 133 177 212 269 337 421
#     4  10  23  39  57  88 126 175 224 270 328 403
#     4  10  23  40  63 102 130 176 225 280 353 423
#     4  11  24  40  63  91 129 175 235 286 344 395
#
# _framework density 20.921576999999999
#
# number of rings (size 3 to 8) (size 9 to 14) (size 15 to 20)
#    0.000    1.714    0.714    1.286   16.000    3.429 
#    0.000    0.000    0.000    0.857    0.000    0.000 
#    0.000    0.000    0.000    0.000    0.000    0.000 
#
# Total GULP energy -311998.421210 kJ/mol
# GULP energy per Si atom -5571.400379 kJ/mol
# Density = 2.087396 g / cm^3
# Si number density = 20.921577 Si / 1000 Ang^3
#
#
#
# Elastic Constant Matrix: (Units=GPa)
#
#
# Indices 1 2 3 4 5 6 
#
# 1 113.0884 37.8582 53.4424 0.0000 0.0000 0.0000
# 2 37.8582 59.9767 22.1876 0.0000 0.0000 0.0000
# 3 53.4424 22.1876 83.5300 0.0000 0.0000 0.0000
# 4 0.0000 0.0000 0.0000 31.6162 0.0000 0.0000
# 5 0.0000 0.0000 0.0000 0.0000 10.6939 0.0000
# 6 0.0000 0.0000 0.0000 0.0000 0.0000 19.5807
#
#
#
# Elastic Compliance Matrix: (Units=1/GPa)
#
#
# Indices 1 2 3 4 5 6 
#
# 1 0.014589 -0.006383 -0.007639 0.000000 0.000000 0.000000
# 2 -0.006383 0.021283 -0.001569 0.000000 0.000000 0.000000
# 3 -0.007639 -0.001569 0.017276 0.000000 0.000000 0.000000
# 4 0.000000 0.000000 0.000000 0.031629 0.000000 0.000000
# 5 0.000000 0.000000 0.000000 0.000000 0.093511 0.000000
# 6 0.000000 0.000000 0.000000 0.000000 0.000000 0.051071
#
#
# Mechanical properties :
#
#
# Convention : Reuss Voigt Hill
#
# Bulk Modulus (GPa) = 45.52564 53.73017 49.62790
# Shear Modulus (GPa) = 18.66622 21.91862 20.29242
#
# Velocity S-wave (km/s) = 2.99021 3.24026 3.11774
# Velocity P-wave (km/s) = 5.80768 6.30369 6.06076
#
# Compressibility (1/GPa) = 0.02196565
#
# Stress axis : x y z
#
# Youngs Moduli (GPa) = 68.54310 46.98622 57.88432
#
# Poissons Ratio (x) = 0.29992 0.44216
# Poissons Ratio (y) = 0.43752 0.09084
# Poissons Ratio (z) = 0.52358 0.07373
#
# Static dielectric constant tensor:
#      x y z
#    x 1.969670 0.000000 0.000000 
#    y 0.000000 1.552840 0.000000 
#    z 0.000000 0.000000 1.690140 
# 
# From -- ./inp_files/35263.got.cif
#   From: 2010.05.17/outbox.cif.g08.bks.cpg/sg52_18_cif.got.tgz:35263.got - 2010.06.03 12:15:38.
