data_PCOD9411309
_publ_section_title
;
Structure prediction by ZEFSAII (Michael W. Deem and Ramdas Pophale) SiO2 
 PCOD9411309
Probable space group: P N N A
;
_chemical_formula_sum "Si O2"
_cell_formula_units_Z 40
_cell_length_a 12.040465
_cell_length_b 11.701426
_cell_length_c 13.484980
_cell_angle_alpha 90.000000
_cell_angle_beta 90.000000
_cell_angle_gamma 90.000000
_cell_volume 1899.907061
_symmetry_space_group_name_H-M "P N N A"
_symmetry_group_IT_number 52
_symmetry_cell_setting 'orthorhombic'
loop_
_space_group_symop_operation_xyz
x,y,z
1/2-x,-y,z
x,1/2-y,1/2-z
1/2-x,1/2+y,1/2-z
-x,-y,-z
1/2+x,y,-z
-x,1/2+y,1/2+z
1/2+x,1/2-y,1/2+z
loop_
_atom_site_type_symbol
_atom_site_label
_atom_site_fract_x
_atom_site_fract_y
_atom_site_fract_z
Si Si1 0.512458 0.369990 0.533113
Si Si2 0.833151 0.229299 0.359966
Si Si3 0.022917 0.452381 0.109355
Si Si4 0.449577 0.293127 0.148716
Si Si5 0.209340 0.230509 0.432615
O O1 0.500000 0.500000 0.500000
O O2 0.414373 0.333948 0.607989
O O3 0.502639 0.274733 0.444564
O O4 0.633876 0.343377 0.576286
O O5 0.786425 0.250000 0.250000
O O6 0.749779 0.213362 0.452719
O O7 0.917252 0.121320 0.356993
O O8 0.042129 0.571110 0.162420
O O9 0.130204 0.371799 0.103653
O O10 0.000000 0.500000 0.000000
O O11 0.498956 0.250000 0.250000
O O12 0.320114 0.265006 0.131575
#
# Coordination Sequence:
#
# PCOD9411309 Si02
#       5
#     8   8   8   8   8
#     4  10  23  43  63  83 132 167 196 254 319 365
#     4  10  23  39  64  97 121 163 212 255 312 372
#     4  11  20  42  65  88 125 167 203 260 316 371
#     4  11  24  39  62  98 122 161 215 254 311 373
#     4  10  21  42  64  87 129 159 209 257 309 369
#
# _framework density 21.053661999999999
#
# number of rings (size 3 to 8) (size 9 to 14) (size 15 to 20)
#    0.000    1.600    6.000    0.600    2.800    7.200 
#    3.600    2.000    0.000    0.000    0.000    0.000 
#    0.000    0.000    0.000    0.000    0.000    0.000 
#
# Total GULP energy -223126.863598 kJ/mol
# GULP energy per Si atom -5578.171590 kJ/mol
# Density = 2.100574 g / cm^3
# Si number density = 21.053662 Si / 1000 Ang^3
#
#
#
# Elastic Constant Matrix: (Units=GPa)
#
#
# Indices 1 2 3 4 5 6 
#
# 1 79.7199 31.9251 -17.0373 0.0000 0.0000 0.0000
# 2 31.9251 143.3692 -4.8589 0.0000 0.0000 0.0000
# 3 -17.0373 -4.8589 69.1000 0.0000 0.0000 0.0000
# 4 0.0000 0.0000 0.0000 21.6440 0.0000 0.0000
# 5 0.0000 0.0000 0.0000 0.0000 -10.9513 0.0000
# 6 0.0000 0.0000 0.0000 0.0000 0.0000 11.7477
#
#
#
# Elastic Compliance Matrix: (Units=1/GPa)
#
#
# Indices 1 2 3 4 5 6 
#
# 1 0.014510 -0.003117 0.003358 0.000000 0.000000 0.000000
# 2 -0.003117 0.007661 -0.000230 0.000000 0.000000 0.000000
# 3 0.003358 -0.000230 0.015284 0.000000 0.000000 0.000000
# 4 0.000000 0.000000 0.000000 0.046202 0.000000 0.000000
# 5 0.000000 0.000000 0.000000 0.000000 -0.091313 0.000000
# 6 0.000000 0.000000 0.000000 0.000000 0.000000 0.085123
#
#
# Mechanical properties :
#
#
# Convention : Reuss Voigt Hill
#
# Bulk Modulus (GPa) = 26.68259 34.69409 30.68834
# Shear Modulus (GPa) = 55.59449 23.29875 39.44662
#
# Velocity S-wave (km/s) = 5.14426 3.33022 4.33323
# Velocity P-wave (km/s) = 6.92717 5.59481 6.29633
#
# Compressibility (1/GPa) = 0.03747762
#
# Stress axis : x y z
#
# Youngs Moduli (GPa) = 68.91795 130.52539 65.42933
#
# Poissons Ratio (x) = 0.40688 -0.21974
# Poissons Ratio (y) = 0.21483 0.01504
# Poissons Ratio (z) = -0.23145 0.03000
#
# Static dielectric constant tensor:
#      x y z
#    x 1.759680 0.000000 0.000000 
#    y 0.000000 1.147630 0.000000 
#    z 0.000000 0.000000 1.737040 
# 
# From -- ./inp_files/25835.got.cif
#   From: 2010.05.17/outbox.cif.g08.bks.cpg/sg52_13_cif.got.tgz:25835.got - 2010.06.03 12:15:38.
