data_PCOD9411799
_publ_section_title
;
Structure prediction by ZEFSAII (Michael W. Deem and Ramdas Pophale) SiO2 
 PCOD9411799
Probable space group: P N N A
;
_chemical_formula_sum "Si O2"
_cell_formula_units_Z 32
_cell_length_a 8.617627
_cell_length_b 25.290550
_cell_length_c 5.164880
_cell_angle_alpha 90.000000
_cell_angle_beta 90.000000
_cell_angle_gamma 90.000000
_cell_volume 1125.657326
_symmetry_space_group_name_H-M "P N N A"
_symmetry_group_IT_number 52
_symmetry_cell_setting 'orthorhombic'
loop_
_space_group_symop_operation_xyz
x,y,z
1/2-x,-y,z
x,1/2-y,1/2-z
1/2-x,1/2+y,1/2-z
-x,-y,-z
1/2+x,y,-z
-x,1/2+y,1/2+z
1/2+x,1/2-y,1/2+z
loop_
_atom_site_type_symbol
_atom_site_label
_atom_site_fract_x
_atom_site_fract_y
_atom_site_fract_z
Si Si1 0.714271 0.349900 0.970592
Si Si2 0.733434 0.750000 0.250000
Si Si3 0.032870 0.837374 0.880866
Si Si4 0.468964 0.932991 0.764592
Si Si5 0.750000 0.000000 0.850559
O O1 0.665030 0.295510 0.119386
O O2 0.882030 0.352143 0.107722
O O3 0.635923 0.405163 0.049953
O O4 0.649236 0.337443 0.686721
O O5 0.612302 0.781431 0.063154
O O6 0.050433 0.884362 0.081942
O O7 0.613065 0.970628 0.693602
O O8 0.350749 0.962165 0.959907
#
# Coordination Sequence:
#
# PCOD9411799 Si02
#       5
#     8   4   8   8   4
#     4  10  23  40  62  93 128 163 210 253 307 379
#     4   8  22  38  56  96 122 166 200 248 296 380
#     4  10  23  40  62  93 128 163 210 253 307 379
#     4  11  22  44  62  92 126 166 210 269 306 374
#     4  10  22  40  70  84 120 170 218 258 324 354
#
# _framework density 28.427833
#
# number of rings (size 3 to 8) (size 9 to 14) (size 15 to 20)
#    1.500    0.500    2.500    0.000    7.000    0.000 
#    0.000   11.250    0.000    0.000    0.000    0.000 
#    0.000    0.000    0.000    0.000    0.000    0.000 
#
# Total GULP energy -178701.804208 kJ/mol
# GULP energy per Si atom -5584.431381 kJ/mol
# Density = 2.836313 g / cm^3
# Si number density = 28.427833 Si / 1000 Ang^3
#
#
#
# Elastic Constant Matrix: (Units=GPa)
#
#
# Indices 1 2 3 4 5 6 
#
# 1 142.4476 51.3104 20.8798 0.0000 0.0000 0.0000
# 2 51.3104 135.5926 13.7655 0.0000 0.0000 0.0000
# 3 20.8798 13.7655 52.4543 0.0000 0.0000 0.0000
# 4 0.0000 0.0000 0.0000 15.0218 0.0000 0.0000
# 5 0.0000 0.0000 0.0000 0.0000 27.4192 0.0000
# 6 0.0000 0.0000 0.0000 0.0000 0.0000 76.4941
#
#
#
# Elastic Compliance Matrix: (Units=1/GPa)
#
#
# Indices 1 2 3 4 5 6 
#
# 1 0.008459 -0.002937 -0.002596 0.000000 0.000000 0.000000
# 2 -0.002937 0.008597 -0.001087 0.000000 0.000000 0.000000
# 3 -0.002596 -0.001087 0.020383 0.000000 0.000000 0.000000
# 4 0.000000 0.000000 0.000000 0.066570 0.000000 0.000000
# 5 0.000000 0.000000 0.000000 0.000000 0.036471 0.000000
# 6 0.000000 0.000000 0.000000 0.000000 0.000000 0.013073
#
#
# Mechanical properties :
#
#
# Convention : Reuss Voigt Hill
#
# Bulk Modulus (GPa) = 41.32619 55.82286 48.57453
# Shear Modulus (GPa) = 28.59448 40.08960 34.34204
#
# Velocity S-wave (km/s) = 3.17497 3.75937 3.47946
# Velocity P-wave (km/s) = 5.29239 6.20670 5.76769
#
# Compressibility (1/GPa) = 0.02419773
#
# Stress axis : x y z
#
# Youngs Moduli (GPa) = 118.22114 116.32083 49.06078
#
# Poissons Ratio (x) = 0.34167 0.12737
# Poissons Ratio (y) = 0.34726 0.05332
# Poissons Ratio (z) = 0.30693 0.12642
#
# Static dielectric constant tensor:
#      x y z
#    x 2.267360 0.000000 0.000000 
#    y 0.000000 2.223020 0.000000 
#    z 0.000000 0.000000 2.337720 
# 
# From -- ./inp_files/423.got.cif
#   From: 2010.05.17/outbox.cif.g08.bks.cpg/sg52_1_cif.got.tgz:423.got - 2010.06.03 12:15:38.
