data_PCOD9411893
_publ_section_title
;
Structure prediction by ZEFSAII (Michael W. Deem and Ramdas Pophale) SiO2 
 PCOD9411893
Probable space group: P N N A
;
_chemical_formula_sum "Si O2"
_cell_formula_units_Z 32
_cell_length_a 8.633852
_cell_length_b 13.031890
_cell_length_c 11.337592
_cell_angle_alpha 90.000000
_cell_angle_beta 90.000000
_cell_angle_gamma 90.000000
_cell_volume 1275.653807
_symmetry_space_group_name_H-M "P N N A"
_symmetry_group_IT_number 52
_symmetry_cell_setting 'orthorhombic'
loop_
_space_group_symop_operation_xyz
x,y,z
1/2-x,-y,z
x,1/2-y,1/2-z
1/2-x,1/2+y,1/2-z
-x,-y,-z
1/2+x,y,-z
-x,1/2+y,1/2+z
1/2+x,1/2-y,1/2+z
loop_
_atom_site_type_symbol
_atom_site_label
_atom_site_fract_x
_atom_site_fract_y
_atom_site_fract_z
Si Si1 0.009084 0.750000 0.750000
Si Si2 0.250000 0.500000 0.711481
Si Si3 0.609088 0.670105 0.852045
Si Si4 0.915235 0.524532 0.691142
Si Si5 0.764088 0.681641 0.095382
O O1 0.126195 0.754369 0.861530
O O2 0.920869 0.641462 0.738246
O O3 0.412114 0.498010 0.640373
O O4 0.251371 0.406656 0.805575
O O5 0.650453 0.750000 0.750000
O O6 0.587945 0.556993 0.798612
O O7 0.442114 0.712750 0.896291
O O8 0.723718 0.658937 0.961331
O O9 0.750000 0.500000 0.628944
#
# Coordination Sequence:
#
# PCOD9411893 Si02
#       5
#     4   4   8   8   8
#     4  10  22  44  66 102 146 186 228 296 370 424
#     4   8  20  38  62 100 138 178 230 300 354 396
#     4  11  25  43  68 109 141 190 244 297 363 435
#     4  10  23  39  67 102 142 183 238 295 353 431
#     4  10  22  41  70  98 144 185 235 299 359 424
#
# _framework density 25.085177000000002
#
# number of rings (size 3 to 8) (size 9 to 14) (size 15 to 20)
#    0.000    2.000    1.250    0.000   10.500    5.000 
#    0.000    1.250    0.000    0.000    0.000    0.000 
#    0.000    0.000    0.000    0.000    0.000    0.000 
#
# Total GULP energy -178545.117508 kJ/mol
# GULP energy per Si atom -5579.534922 kJ/mol
# Density = 2.502808 g / cm^3
# Si number density = 25.085177 Si / 1000 Ang^3
#
#
#
# Elastic Constant Matrix: (Units=GPa)
#
#
# Indices 1 2 3 4 5 6 
#
# 1 230.2443 48.4713 34.1397 0.0000 0.0000 0.0000
# 2 48.4713 153.6466 26.7870 0.0000 0.0000 0.0000
# 3 34.1397 26.7870 44.9149 0.0000 0.0000 0.0000
# 4 0.0000 0.0000 0.0000 6.0138 0.0000 0.0000
# 5 0.0000 0.0000 0.0000 0.0000 -13.9615 0.0000
# 6 0.0000 0.0000 0.0000 0.0000 0.0000 -7.8891
#
#
#
# Elastic Compliance Matrix: (Units=1/GPa)
#
#
# Indices 1 2 3 4 5 6 
#
# 1 0.005036 -0.001028 -0.003215 0.000000 0.000000 0.000000
# 2 -0.001028 0.007474 -0.003676 0.000000 0.000000 0.000000
# 3 -0.003215 -0.003676 0.026900 0.000000 0.000000 0.000000
# 4 0.000000 0.000000 0.000000 0.166283 0.000000 0.000000
# 5 0.000000 0.000000 0.000000 0.000000 -0.071625 0.000000
# 6 0.000000 0.000000 0.000000 0.000000 0.000000 -0.126757
#
#
# Mechanical properties :
#
#
# Convention : Reuss Voigt Hill
#
# Bulk Modulus (GPa) = 42.42236 71.95577 57.18906
# Shear Modulus (GPa) = 161.25953 18.12650 89.69301
#
# Velocity S-wave (km/s) = 8.02648 2.69103 5.98607
# Velocity P-wave (km/s) = 10.14136 6.19697 8.40386
#
# Compressibility (1/GPa) = 0.02357248
#
# Stress axis : x y z
#
# Youngs Moduli (GPa) = 198.55499 133.80307 37.17471
#
# Poissons Ratio (x) = 0.13760 0.11951
# Poissons Ratio (y) = 0.20419 0.13664
# Poissons Ratio (z) = 0.63832 0.49181
#
# Static dielectric constant tensor:
#      x y z
#    x 2.195340 0.000000 0.000000 
#    y 0.000000 2.023350 0.000000 
#    z 0.000000 0.000000 1.907860 
# 
# From -- ./inp_files/16460.got.cif
#   From: 2010.05.17/outbox.cif.g08.bks.cpg/sg52_9_cif.got.tgz:16460.got - 2010.06.03 12:15:38.
