data_PCOD9411846
_publ_section_title
;
Structure prediction by ZEFSAII (Michael W. Deem and Ramdas Pophale) SiO2 
 PCOD9411846
Probable space group: P N N A
;
_chemical_formula_sum "Si O2"
_cell_formula_units_Z 40
_cell_length_a 15.882361
_cell_length_b 21.215864
_cell_length_c 4.880961
_cell_angle_alpha 90.000000
_cell_angle_beta 90.000000
_cell_angle_gamma 90.000000
_cell_volume 1644.678910
_symmetry_space_group_name_H-M "P N N A"
_symmetry_group_IT_number 52
_symmetry_cell_setting 'orthorhombic'
loop_
_space_group_symop_operation_xyz
x,y,z
1/2-x,-y,z
x,1/2-y,1/2-z
1/2-x,1/2+y,1/2-z
-x,-y,-z
1/2+x,y,-z
-x,1/2+y,1/2+z
1/2+x,1/2-y,1/2+z
loop_
_atom_site_type_symbol
_atom_site_label
_atom_site_fract_x
_atom_site_fract_y
_atom_site_fract_z
Si Si1 0.750000 0.000000 0.207582
Si Si2 0.568391 0.367753 0.479638
Si Si3 0.143973 0.838088 0.424729
Si Si4 0.603214 0.917544 0.074484
Si Si5 0.525243 0.750000 0.250000
Si Si6 0.320800 0.621218 0.019244
O O1 0.670815 0.972587 0.038138
O O2 0.786330 0.943952 0.395179
O O3 0.494813 0.420274 0.497173
O O4 0.530028 0.303663 0.604181
O O5 0.602169 0.358848 0.174629
O O6 0.645894 0.385472 0.674426
O O7 0.110376 0.896912 0.608843
O O8 0.085704 0.782405 0.526737
O O9 0.242429 0.830934 0.489504
O O10 0.135527 0.859484 0.112472
#
# Coordination Sequence:
#
# PCOD9411846 Si02
#       6
#     4   8   8   8   4   8
#     4  10  24  44  68  92 140 188 214 274 340 386
#     4  11  24  41  65 100 130 164 226 281 325 393
#     4  10  22  41  65  92 126 172 217 256 324 410
#     4  10  22  41  65  95 128 171 221 264 323 395
#     4  10  24  44  68  90 134 176 206 280 346 376
#     4  11  24  42  65  98 131 168 226 272 323 404
#
# _framework density 24.320857
#
# number of rings (size 3 to 8) (size 9 to 14) (size 15 to 20)
#    0.000    1.600    0.000    4.800    0.000   17.600 
#    0.000    0.000    0.000    0.000    0.000    0.000 
#    0.000    0.000    0.000    0.000    0.000    0.000 
#
# Total GULP energy -223946.517094 kJ/mol
# GULP energy per Si atom -5598.662927 kJ/mol
# Density = 2.426550 g / cm^3
# Si number density = 24.320857 Si / 1000 Ang^3
#
#
#
# Elastic Constant Matrix: (Units=GPa)
#
#
# Indices 1 2 3 4 5 6 
#
# 1 113.8783 16.4789 3.7704 0.0000 0.0000 0.0000
# 2 16.4789 97.8163 6.2011 0.0000 0.0000 0.0000
# 3 3.7704 6.2011 71.3102 0.0000 0.0000 0.0000
# 4 0.0000 0.0000 0.0000 24.1212 0.0000 0.0000
# 5 0.0000 0.0000 0.0000 0.0000 42.2506 0.0000
# 6 0.0000 0.0000 0.0000 0.0000 0.0000 40.8639
#
#
#
# Elastic Compliance Matrix: (Units=1/GPa)
#
#
# Indices 1 2 3 4 5 6 
#
# 1 0.009009 -0.001496 -0.000346 0.000000 0.000000 0.000000
# 2 -0.001496 0.010528 -0.000836 0.000000 0.000000 0.000000
# 3 -0.000346 -0.000836 0.014114 0.000000 0.000000 0.000000
# 4 0.000000 0.000000 0.000000 0.041457 0.000000 0.000000
# 5 0.000000 0.000000 0.000000 0.000000 0.023668 0.000000
# 6 0.000000 0.000000 0.000000 0.000000 0.000000 0.024471
#
#
# Mechanical properties :
#
#
# Convention : Reuss Voigt Hill
#
# Bulk Modulus (GPa) = 35.34231 37.32287 36.33259
# Shear Modulus (GPa) = 36.22205 38.55077 37.38641
#
# Velocity S-wave (km/s) = 3.86338 3.98564 3.92499
# Velocity P-wave (km/s) = 5.87062 6.04647 5.95919
#
# Compressibility (1/GPa) = 0.02829470
#
# Stress axis : x y z
#
# Youngs Moduli (GPa) = 110.99733 94.98239 70.85024
#
# Poissons Ratio (x) = 0.14208 0.02453
# Poissons Ratio (y) = 0.16603 0.05926
# Poissons Ratio (z) = 0.03844 0.07945
#
# Static dielectric constant tensor:
#      x y z
#    x 1.955680 0.000000 0.000000 
#    y 0.000000 1.953080 0.000000 
#    z 0.000000 0.000000 1.866740 
# 
# From -- ./inp_files/2298.got.cif
#   From: 2010.05.17/outbox.cif.g08.bks.cpg/sg52_2_cif.got.tgz:2298.got - 2010.06.03 12:15:38.
