data_PCOD9411073
_publ_section_title
;
Structure prediction by ZEFSAII (Michael W. Deem and Ramdas Pophale) SiO2 
 PCOD9411073
Probable space group: P N N A
;
_chemical_formula_sum "Si O2"
_cell_formula_units_Z 48
_cell_length_a 32.650110
_cell_length_b 8.138094
_cell_length_c 9.026373
_cell_angle_alpha 90.000000
_cell_angle_beta 90.000000
_cell_angle_gamma 90.000000
_cell_volume 2398.394540
_symmetry_space_group_name_H-M "P N N A"
_symmetry_group_IT_number 52
_symmetry_cell_setting 'orthorhombic'
loop_
_space_group_symop_operation_xyz
x,y,z
1/2-x,-y,z
x,1/2-y,1/2-z
1/2-x,1/2+y,1/2-z
-x,-y,-z
1/2+x,y,-z
-x,1/2+y,1/2+z
1/2+x,1/2-y,1/2+z
loop_
_atom_site_type_symbol
_atom_site_label
_atom_site_fract_x
_atom_site_fract_y
_atom_site_fract_z
Si Si1 0.415574 0.303159 0.580663
Si Si2 0.411710 0.695622 0.580424
Si Si3 0.751297 0.301179 0.080783
Si Si4 0.830094 0.803054 0.581677
Si Si5 0.998553 0.191483 0.927176
Si Si6 0.166950 0.805795 0.418659
O O1 0.416826 0.250000 0.750000
O O2 0.414369 0.499692 0.576571
O O3 0.456854 0.242530 0.499263
O O4 0.374085 0.243113 0.504262
O O5 0.405208 0.750000 0.750000
O O6 0.373359 0.747584 0.483606
O O7 0.456502 0.759002 0.528820
O O8 0.750000 0.500000 0.072856
O O9 0.754482 0.250000 0.250000
O O10 0.708781 0.239034 0.011052
O O11 0.791398 0.240054 0.993517
O O12 0.825607 0.750000 0.750000
O O13 0.829833 0.998819 0.575916
O O14 0.996196 0.250000 0.750000
O O15 0.000000 0.000000 0.000000
O O16 0.164253 0.750000 0.250000
#
# Coordination Sequence:
#
# PCOD9411073 Si02
#       6
#     8   8   8   8   8   8
#     4  11  22  38  61  90 121 159 201 248 300 357
#     4  10  21  40  60  85 120 157 197 244 295 355
#     4  10  23  40  60  85 116 152 193 238 293 353
#     4  11  23  39  60  87 116 154 196 242 296 353
#     4   9  20  39  61  86 121 162 204 250 305 363
#     4  11  23  40  60  87 119 154 197 246 297 355
#
# _framework density 20.013386000000001
#
# number of rings (size 3 to 8) (size 9 to 14) (size 15 to 20)
#    0.000    1.667    0.000    4.000    0.000    7.333 
#    0.000   13.333    0.000    0.000    0.000    0.000 
#    0.000    0.000    0.000    0.000    0.000    0.000 
#
# Total GULP energy -267691.310863 kJ/mol
# GULP energy per Si atom -5576.902310 kJ/mol
# Density = 1.996783 g / cm^3
# Si number density = 20.013386 Si / 1000 Ang^3
#
#
#
# Elastic Constant Matrix: (Units=GPa)
#
#
# Indices 1 2 3 4 5 6 
#
# 1 216.0941 28.6484 105.2481 0.0000 0.0000 0.0000
# 2 28.6484 44.3851 17.9439 0.0000 0.0000 0.0000
# 3 105.2481 17.9439 147.4302 0.0000 0.0000 0.0000
# 4 0.0000 0.0000 0.0000 35.4203 0.0000 0.0000
# 5 0.0000 0.0000 0.0000 0.0000 46.6257 0.0000
# 6 0.0000 0.0000 0.0000 0.0000 0.0000 29.4662
#
#
#
# Elastic Compliance Matrix: (Units=1/GPa)
#
#
# Indices 1 2 3 4 5 6 
#
# 1 0.007407 -0.002780 -0.004949 0.000000 0.000000 0.000000
# 2 -0.002780 0.024739 -0.001027 0.000000 0.000000 0.000000
# 3 -0.004949 -0.001027 0.010441 0.000000 0.000000 0.000000
# 4 0.000000 0.000000 0.000000 0.028232 0.000000 0.000000
# 5 0.000000 0.000000 0.000000 0.000000 0.021447 0.000000
# 6 0.000000 0.000000 0.000000 0.000000 0.000000 0.033937
#
#
# Mechanical properties :
#
#
# Convention : Reuss Voigt Hill
#
# Bulk Modulus (GPa) = 39.87908 79.06558 59.47233
# Shear Modulus (GPa) = 32.87884 39.37370 36.12627
#
# Velocity S-wave (km/s) = 4.05760 4.44031 4.25326
# Velocity P-wave (km/s) = 6.47469 8.11669 7.34174
#
# Compressibility (1/GPa) = 0.02507580
#
# Stress axis : x y z
#
# Youngs Moduli (GPa) = 135.01480 40.42150 95.77703
#
# Poissons Ratio (x) = 0.11236 0.47401
# Poissons Ratio (y) = 0.37531 0.09833
# Poissons Ratio (z) = 0.66820 0.04150
#
# Static dielectric constant tensor:
#      x y z
#    x 1.725460 0.000000 0.000000 
#    y 0.000000 1.734370 0.000000 
#    z 0.000000 0.000000 1.671150 
# 
# From -- ./inp_files/15481.got.cif
#   From: 2010.05.17/outbox.cif.g08.bks.cpg/sg52_8_cif.got.tgz:15481.got - 2010.06.03 12:15:38.
