data_PCOD9411298
_publ_section_title
;
Structure prediction by ZEFSAII (Michael W. Deem and Ramdas Pophale) SiO2 
 PCOD9411298
Probable space group: P N N A
;
_chemical_formula_sum "Si O2"
_cell_formula_units_Z 64
_cell_length_a 8.312670
_cell_length_b 14.254699
_cell_length_c 20.212697
_cell_angle_alpha 90.000000
_cell_angle_beta 90.000000
_cell_angle_gamma 90.000000
_cell_volume 2395.095623
_symmetry_space_group_name_H-M "P N N A"
_symmetry_group_IT_number 52
_symmetry_cell_setting 'orthorhombic'
loop_
_space_group_symop_operation_xyz
x,y,z
1/2-x,-y,z
x,1/2-y,1/2-z
1/2-x,1/2+y,1/2-z
-x,-y,-z
1/2+x,y,-z
-x,1/2+y,1/2+z
1/2+x,1/2-y,1/2+z
loop_
_atom_site_type_symbol
_atom_site_label
_atom_site_fract_x
_atom_site_fract_y
_atom_site_fract_z
Si Si1 0.970893 0.856432 0.278837
Si Si2 0.287357 0.629251 0.292381
Si Si3 0.646084 0.226784 0.606863
Si Si4 0.388529 0.571705 0.037377
Si Si5 0.014539 0.205447 0.576588
Si Si6 0.352482 0.143601 0.781113
Si Si7 0.087991 0.609681 0.570611
Si Si8 0.082884 0.590492 0.423369
O O1 0.980055 0.750000 0.250000
O O2 0.810689 0.899841 0.247867
O O3 0.146133 0.894142 0.258535
O O4 0.943330 0.846618 0.356129
O O5 0.318032 0.763707 0.180342
O O6 0.468063 0.599802 0.273290
O O7 0.206417 0.594601 0.362284
O O8 0.550173 0.129689 0.600820
O O9 0.818513 0.199902 0.574894
O O10 0.546082 0.307712 0.570371
O O11 0.250000 0.500000 0.057624
O O12 0.500000 0.500000 0.000000
O O13 0.389916 0.654940 0.981628
O O14 0.029565 0.317628 0.582306
O O15 0.358555 0.250000 0.750000
O O16 0.329258 0.137816 0.860538
O O17 0.013659 0.505967 0.579454
O O18 0.160645 0.602546 0.496772
#
# Coordination Sequence:
#
# PCOD9411298 Si02
#       8
#     8   8   8   8   8   8   8   8
#     4  11  21  45  76 100 146 207 257 317 380 463
#     4  10  22  44  76 103 149 201 257 314 392 466
#     4  10  21  41  73 106 146 202 247 308 400 465
#     4  12  25  47  73 107 151 191 255 331 393 467
#     4  11  23  44  76 109 147 205 255 318 407 468
#     4  10  24  43  69 107 149 207 264 311 379 461
#     4  10  22  44  74 121 166 202 265 322 404 509
#     4  10  21  42  79 118 162 210 252 330 411 496
#
# _framework density 26.721271000000002
#
# number of rings (size 3 to 8) (size 9 to 14) (size 15 to 20)
#    0.000    1.500    5.000    0.375    1.750    4.500 
#   24.750    1.875    0.000    3.000    0.000    0.000 
#    0.000    0.000    0.000    0.000    0.000    0.000 
#
# Total GULP energy -357243.912568 kJ/mol
# GULP energy per Si atom -5581.936134 kJ/mol
# Density = 2.666045 g / cm^3
# Si number density = 26.721271 Si / 1000 Ang^3
#
#
#
# Elastic Constant Matrix: (Units=GPa)
#
#
# Indices 1 2 3 4 5 6 
#
# 1 142.5354 36.1069 52.5743 0.0000 0.0000 0.0000
# 2 36.1069 155.6451 35.0279 0.0000 0.0000 0.0000
# 3 52.5743 35.0279 163.4680 0.0000 0.0000 0.0000
# 4 0.0000 0.0000 0.0000 7.4869 0.0000 0.0000
# 5 0.0000 0.0000 0.0000 0.0000 43.7073 0.0000
# 6 0.0000 0.0000 0.0000 0.0000 0.0000 21.1753
#
#
#
# Elastic Compliance Matrix: (Units=1/GPa)
#
#
# Indices 1 2 3 4 5 6 
#
# 1 0.008233 -0.001381 -0.002352 0.000000 0.000000 0.000000
# 2 -0.001381 0.006982 -0.001052 0.000000 0.000000 0.000000
# 3 -0.002352 -0.001052 0.007099 0.000000 0.000000 0.000000
# 4 0.000000 0.000000 0.000000 0.133567 0.000000 0.000000
# 5 0.000000 0.000000 0.000000 0.000000 0.022879 0.000000
# 6 0.000000 0.000000 0.000000 0.000000 0.000000 0.047225
#
#
# Mechanical properties :
#
#
# Convention : Reuss Voigt Hill
#
# Bulk Modulus (GPa) = 78.46305 78.78518 78.62412
# Shear Modulus (GPa) = 20.85043 37.00320 28.92681
#
# Velocity S-wave (km/s) = 2.79640 3.72531 3.29377
# Velocity P-wave (km/s) = 6.31298 6.93195 6.62969
#
# Compressibility (1/GPa) = 0.01274485
#
# Stress axis : x y z
#
# Youngs Moduli (GPa) = 121.46094 143.22725 140.85869
#
# Poissons Ratio (x) = 0.19774 0.33131
# Poissons Ratio (y) = 0.16769 0.14819
# Poissons Ratio (z) = 0.28569 0.15068
#
# Static dielectric constant tensor:
#      x y z
#    x 2.221840 0.000000 0.000000 
#    y 0.000000 2.210440 0.000000 
#    z 0.000000 0.000000 2.152420 
# 
# From -- ./inp_files/31667.got.cif
#   From: 2010.05.17/outbox.cif.g08.bks.cpg/sg52_16_cif.got.tgz:31667.got - 2010.06.03 12:15:38.
