data_PCOD9411613
_publ_section_title
;
Structure prediction by ZEFSAII (Michael W. Deem and Ramdas Pophale) SiO2 
 PCOD9411613
Probable space group: P N N A
;
_chemical_formula_sum "Si O2"
_cell_formula_units_Z 44
_cell_length_a 12.840141
_cell_length_b 8.389305
_cell_length_c 17.718320
_cell_angle_alpha 90.000000
_cell_angle_beta 90.000000
_cell_angle_gamma 90.000000
_cell_volume 1908.614934
_symmetry_space_group_name_H-M "P N N A"
_symmetry_group_IT_number 52
_symmetry_cell_setting 'orthorhombic'
loop_
_space_group_symop_operation_xyz
x,y,z
1/2-x,-y,z
x,1/2-y,1/2-z
1/2-x,1/2+y,1/2-z
-x,-y,-z
1/2+x,y,-z
-x,1/2+y,1/2+z
1/2+x,1/2-y,1/2+z
loop_
_atom_site_type_symbol
_atom_site_label
_atom_site_fract_x
_atom_site_fract_y
_atom_site_fract_z
Si Si1 0.034973 0.853570 0.677352
Si Si2 0.750000 0.500000 0.144386
Si Si3 0.040667 0.092678 0.072508
Si Si4 0.865482 0.829042 0.476469
Si Si5 0.659060 0.870981 0.819530
Si Si6 0.090120 0.898715 0.409862
O O1 0.009989 0.750000 0.750000
O O2 0.146111 0.941041 0.686264
O O3 0.032713 0.732259 0.606004
O O4 0.946219 0.982246 0.657270
O O5 0.785605 0.647028 0.091072
O O6 0.069097 0.980149 0.142894
O O7 0.138663 0.184973 0.035084
O O8 0.000000 0.000000 0.000000
O O9 0.980719 0.825312 0.438373
O O10 0.866909 0.991769 0.524060
O O11 0.638759 0.750000 0.750000
O O12 0.669708 0.735462 0.884281
O O13 0.750000 0.000000 0.804603
#
# Coordination Sequence:
#
# PCOD9411613 Si02
#       6
#     8   4   8   8   8   8
#     4  10  22  44  67  95 137 183 223 276 348 424
#     4  10  22  38  68 100 138 168 224 276 356 396
#     4  11  23  43  73 102 130 180 242 286 338 408
#     4   9  19  37  67  99 128 168 222 288 338 397
#     4  12  28  44  66 102 143 183 230 286 354 425
#     4   9  19  41  67  90 130 176 226 276 347 402
#
# _framework density 23.053367000000001
#
# number of rings (size 3 to 8) (size 9 to 14) (size 15 to 20)
#    0.000    1.818    1.818    2.182    2.545    3.636 
#    3.273    1.818    0.000    0.000    0.000    0.000 
#    0.000    0.000    0.000    0.000    0.000    0.000 
#
# Total GULP energy -245388.086761 kJ/mol
# GULP energy per Si atom -5577.001972 kJ/mol
# Density = 2.300090 g / cm^3
# Si number density = 23.053367 Si / 1000 Ang^3
#
#
#
# Elastic Constant Matrix: (Units=GPa)
#
#
# Indices 1 2 3 4 5 6 
#
# 1 69.9101 32.9851 28.8133 0.0000 0.0000 0.0000
# 2 32.9851 137.8247 48.9120 0.0000 0.0000 0.0000
# 3 28.8133 48.9120 85.4488 0.0000 0.0000 0.0000
# 4 0.0000 0.0000 0.0000 48.3329 0.0000 0.0000
# 5 0.0000 0.0000 0.0000 0.0000 11.9229 0.0000
# 6 0.0000 0.0000 0.0000 0.0000 0.0000 22.1746
#
#
#
# Elastic Compliance Matrix: (Units=1/GPa)
#
#
# Indices 1 2 3 4 5 6 
#
# 1 0.017326 -0.002602 -0.004353 0.000000 0.000000 0.000000
# 2 -0.002602 0.009496 -0.004558 0.000000 0.000000 0.000000
# 3 -0.004353 -0.004558 0.015780 0.000000 0.000000 0.000000
# 4 0.000000 0.000000 0.000000 0.020690 0.000000 0.000000
# 5 0.000000 0.000000 0.000000 0.000000 0.083872 0.000000
# 6 0.000000 0.000000 0.000000 0.000000 0.000000 0.045097
#
#
# Mechanical properties :
#
#
# Convention : Reuss Voigt Hill
#
# Bulk Modulus (GPa) = 51.08388 57.17828 54.13108
# Shear Modulus (GPa) = 22.54167 28.65096 25.59632
#
# Velocity S-wave (km/s) = 3.13038 3.52918 3.33574
# Velocity P-wave (km/s) = 5.93909 6.43919 6.19419
#
# Compressibility (1/GPa) = 0.01957565
#
# Stress axis : x y z
#
# Youngs Moduli (GPa) = 57.71780 105.30839 63.37147
#
# Poissons Ratio (x) = 0.27398 0.27585
# Poissons Ratio (y) = 0.15016 0.28887
# Poissons Ratio (z) = 0.25124 0.48003
#
# Static dielectric constant tensor:
#      x y z
#    x 1.881370 0.000000 0.000000 
#    y 0.000000 1.914950 0.000000 
#    z 0.000000 0.000000 1.903710 
# 
# From -- ./inp_files/32966.got.cif
#   From: 2010.05.17/outbox.cif.g08.bks.cpg/sg52_17_cif.got.tgz:32966.got - 2010.06.03 12:15:38.
