data_PCOD9411203
_publ_section_title
;
Structure prediction by ZEFSAII (Michael W. Deem and Ramdas Pophale) SiO2 
 PCOD9411203
Probable space group: P N N A
;
_chemical_formula_sum "Si O2"
_cell_formula_units_Z 20
_cell_length_a 5.125028
_cell_length_b 5.353601
_cell_length_c 28.634740
_cell_angle_alpha 90.000000
_cell_angle_beta 90.000000
_cell_angle_gamma 90.000000
_cell_volume 785.661527
_symmetry_space_group_name_H-M "P N N A"
_symmetry_group_IT_number 52
_symmetry_cell_setting 'orthorhombic'
loop_
_space_group_symop_operation_xyz
x,y,z
1/2-x,-y,z
x,1/2-y,1/2-z
1/2-x,1/2+y,1/2-z
-x,-y,-z
1/2+x,y,-z
-x,1/2+y,1/2+z
1/2+x,1/2-y,1/2+z
loop_
_atom_site_type_symbol
_atom_site_label
_atom_site_fract_x
_atom_site_fract_y
_atom_site_fract_z
Si Si1 0.750000 0.500000 0.033865
Si Si2 0.075576 0.248693 0.800224
Si Si3 0.401154 0.257507 0.404124
O O1 0.678235 0.277967 0.070091
O O2 0.500000 0.500000 0.000000
O O3 0.250000 0.500000 0.803067
O O4 0.931422 0.250000 0.750000
O O5 0.921068 0.232029 0.848192
O O6 0.250000 0.000000 0.799381
O O7 0.250000 0.500000 0.421679
O O8 0.250000 0.000000 0.413272
#
# Coordination Sequence:
#
# PCOD9411203 Si02
#       3
#     4   8   8
#     4  12  28  54  80 116 154 206 268 332 398 468
#     4  10  21  40  70 107 152 202 254 314 387 470
#     4  12  27  47  77 111 153 203 260 326 396 473
#
# _framework density 25.456254999999999
#
# number of rings (size 3 to 8) (size 9 to 14) (size 15 to 20)
#    0.000    0.800    4.000    2.400    0.000    3.200 
#    0.000    0.000    0.000    0.000    0.000    0.000 
#    0.000    0.000    0.000    0.000    0.000    0.000 
#
# Total GULP energy -111873.839262 kJ/mol
# GULP energy per Si atom -5593.691963 kJ/mol
# Density = 2.539832 g / cm^3
# Si number density = 25.456255 Si / 1000 Ang^3
#
#
#
# Elastic Constant Matrix: (Units=GPa)
#
#
# Indices 1 2 3 4 5 6 
#
# 1 119.5958 71.3987 53.2402 0.0000 0.0000 0.0000
# 2 71.3987 227.1500 23.7353 0.0000 0.0000 0.0000
# 3 53.2402 23.7353 194.8031 0.0000 0.0000 0.0000
# 4 0.0000 0.0000 0.0000 -48.9117 0.0000 0.0000
# 5 0.0000 0.0000 0.0000 0.0000 49.9181 0.0000
# 6 0.0000 0.0000 0.0000 0.0000 0.0000 65.3477
#
#
#
# Elastic Compliance Matrix: (Units=1/GPa)
#
#
# Indices 1 2 3 4 5 6 
#
# 1 0.011593 -0.003356 -0.002760 0.000000 0.000000 0.000000
# 2 -0.003356 0.005430 0.000255 0.000000 0.000000 0.000000
# 3 -0.002760 0.000255 0.005856 0.000000 0.000000 0.000000
# 4 0.000000 0.000000 0.000000 -0.020445 0.000000 0.000000
# 5 0.000000 0.000000 0.000000 0.000000 0.020033 0.000000
# 6 0.000000 0.000000 0.000000 0.000000 0.000000 0.015303
#
#
# Mechanical properties :
#
#
# Convention : Reuss Voigt Hill
#
# Bulk Modulus (GPa) = 89.60134 93.14413 91.37273
# Shear Modulus (GPa) = 93.96594 39.48248 66.72421
#
# Velocity S-wave (km/s) = 6.08217 3.94254 5.12525
# Velocity P-wave (km/s) = 9.19774 7.57589 8.42593
#
# Compressibility (1/GPa) = 0.01116055
#
# Stress axis : x y z
#
# Youngs Moduli (GPa) = 86.25632 184.14630 170.75123
#
# Poissons Ratio (x) = 0.61794 0.47121
# Poissons Ratio (y) = 0.28945 -0.04362
# Poissons Ratio (z) = 0.23803 -0.04704
#
# Static dielectric constant tensor:
#      x y z
#    x 2.086970 0.000000 0.000000 
#    y 0.000000 2.029490 0.000000 
#    z 0.000000 0.000000 2.051990 
# 
# From -- ./inp_files/41278.got.cif
#   From: 2010.05.17/outbox.cif.g08.bks.cpg/sg52_21_cif.got.tgz:41278.got - 2010.06.03 12:15:38.
