data_PCOD9411917
_publ_section_title
;
Structure prediction by ZEFSAII (Michael W. Deem and Ramdas Pophale) SiO2 
 PCOD9411917
Probable space group: P N N A
;
_chemical_formula_sum "Si O2"
_cell_formula_units_Z 32
_cell_length_a 26.744715
_cell_length_b 9.421979
_cell_length_c 6.003542
_cell_angle_alpha 90.000000
_cell_angle_beta 90.000000
_cell_angle_gamma 90.000000
_cell_volume 1512.821401
_symmetry_space_group_name_H-M "P N N A"
_symmetry_group_IT_number 52
_symmetry_cell_setting 'orthorhombic'
loop_
_space_group_symop_operation_xyz
x,y,z
1/2-x,-y,z
x,1/2-y,1/2-z
1/2-x,1/2+y,1/2-z
-x,-y,-z
1/2+x,y,-z
-x,1/2+y,1/2+z
1/2+x,1/2-y,1/2+z
loop_
_atom_site_type_symbol
_atom_site_label
_atom_site_fract_x
_atom_site_fract_y
_atom_site_fract_z
Si Si1 0.205731 0.607571 0.874936
Si Si2 0.119270 0.997847 0.950331
Si Si3 0.394467 0.750000 0.250000
Si Si4 0.640384 0.750000 0.750000
Si Si5 0.464796 0.612047 0.876082
O O1 0.250000 0.500000 0.923332
O O2 0.224288 0.750000 0.750000
O O3 0.164957 0.536244 0.712605
O O4 0.175883 0.656860 0.092160
O O5 0.070569 0.037116 0.807215
O O6 0.133471 0.128614 0.111569
O O7 0.109824 0.857909 0.097034
O O8 0.428730 0.827857 0.431647
O O9 0.487909 0.750000 0.750000
O O10 0.500000 0.500000 0.000000
#
# Coordination Sequence:
#
# PCOD9411917 Si02
#       5
#     8   8   4   4   8
#     4  10  23  42  63  97 133 170 220 265 319 385
#     4  10  22  43  67  94 132 170 221 267 323 395
#     4  10  22  44  65  92 130 168 216 264 333 376
#     4  10  22  42  63 100 130 172 214 262 333 376
#     4  10  23  45  66  97 130 171 225 272 332 397
#
# _framework density 21.152529999999999
#
# number of rings (size 3 to 8) (size 9 to 14) (size 15 to 20)
#    0.000    2.000    0.000    1.500    0.000   13.000 
#   29.250    2.500    0.000    0.000    0.000    0.000 
#    0.000    0.000    0.000    0.000    0.000    0.000 
#
# Total GULP energy -178913.876153 kJ/mol
# GULP energy per Si atom -5591.058630 kJ/mol
# Density = 2.110439 g / cm^3
# Si number density = 21.152530 Si / 1000 Ang^3
#
#
#
# Elastic Constant Matrix: (Units=GPa)
#
#
# Indices 1 2 3 4 5 6 
#
# 1 48.9832 81.5432 45.3797 0.0000 0.0000 0.0000
# 2 81.5432 173.3624 92.1678 0.0000 0.0000 0.0000
# 3 45.3797 92.1678 147.0287 0.0000 0.0000 0.0000
# 4 0.0000 0.0000 0.0000 64.0261 0.0000 0.0000
# 5 0.0000 0.0000 0.0000 0.0000 -56.7678 0.0000
# 6 0.0000 0.0000 0.0000 0.0000 0.0000 2833.2550
#
#
#
# Elastic Compliance Matrix: (Units=1/GPa)
#
#
# Indices 1 2 3 4 5 6 
#
# 1 0.094461 -0.043392 -0.001954 0.000000 0.000000 0.000000
# 2 -0.043392 0.028585 -0.004526 0.000000 0.000000 0.000000
# 3 -0.001954 -0.004526 0.010242 0.000000 0.000000 0.000000
# 4 0.000000 0.000000 0.000000 0.015619 0.000000 0.000000
# 5 0.000000 0.000000 0.000000 0.000000 -0.017616 0.000000
# 6 0.000000 0.000000 0.000000 0.000000 0.000000 0.000353
#
#
# Mechanical properties :
#
#
# Convention : Reuss Voigt Hill
#
# Bulk Modulus (GPa) = 29.81210 89.72839 59.77024
# Shear Modulus (GPa) = 20.61272 578.12157 299.36715
#
# Velocity S-wave (km/s) = 3.12505 16.55005 11.90945
# Velocity P-wave (km/s) = 5.21016 20.19201 14.74556
#
# Compressibility (1/GPa) = 0.03354343
#
# Stress axis : x y z
#
# Youngs Moduli (GPa) = 10.58635 34.98376 97.64114
#
# Poissons Ratio (x) = 1.51803 0.19075
# Poissons Ratio (y) = 0.45937 0.44193
# Poissons Ratio (z) = 0.02068 0.15834
#
# Static dielectric constant tensor:
#      x y z
#    x 1.711370 0.000000 0.000000 
#    y 0.000000 1.783170 0.000000 
#    z 0.000000 0.000000 1.729620 
# 
# From -- ./inp_files/6154.got.cif
#   From: 2010.05.17/outbox.cif.g08.bks.cpg/sg52_4_cif.got.tgz:6154.got - 2010.06.03 12:15:38.
