data_PCOD9411581
_publ_section_title
;
Structure prediction by ZEFSAII (Michael W. Deem and Ramdas Pophale) SiO2 
 PCOD9411581
Probable space group: P N N A
;
_chemical_formula_sum "Si O2"
_cell_formula_units_Z 48
_cell_length_a 8.936672
_cell_length_b 11.356967
_cell_length_c 21.315397
_cell_angle_alpha 90.000000
_cell_angle_beta 90.000000
_cell_angle_gamma 90.000000
_cell_volume 2163.374011
_symmetry_space_group_name_H-M "P N N A"
_symmetry_group_IT_number 52
_symmetry_cell_setting 'orthorhombic'
loop_
_space_group_symop_operation_xyz
x,y,z
1/2-x,-y,z
x,1/2-y,1/2-z
1/2-x,1/2+y,1/2-z
-x,-y,-z
1/2+x,y,-z
-x,1/2+y,1/2+z
1/2+x,1/2-y,1/2+z
loop_
_atom_site_type_symbol
_atom_site_label
_atom_site_fract_x
_atom_site_fract_y
_atom_site_fract_z
Si Si1 0.790805 0.634369 0.876161
Si Si2 0.371054 0.107060 0.841409
Si Si3 0.801665 0.750000 0.750000
Si Si4 0.902751 0.328811 0.581371
Si Si5 0.191494 0.250000 0.750000
Si Si6 0.543474 0.928820 0.784767
Si Si7 0.428567 0.689946 0.453889
O O1 0.750000 0.500000 0.865920
O O2 0.861236 0.704925 0.817031
O O3 0.633913 0.699116 0.891830
O O4 0.896677 0.673649 0.934106
O O5 0.288150 0.218318 0.810595
O O6 0.449194 0.137335 0.906583
O O7 0.250000 0.000000 0.846161
O O8 0.494016 0.064055 0.789259
O O9 0.695404 0.865107 0.764914
O O10 0.960482 0.399216 0.640856
O O11 0.764714 0.634096 0.559237
O O12 0.015044 0.327992 0.523835
O O13 0.081632 0.138542 0.744488
#
# Coordination Sequence:
#
# PCOD9411581 Si02
#       7
#     8   8   4   8   4   8   8
#     4   9  21  38  61  91 120 164 204 257 317 375
#     4  10  22  38  61  94 125 167 207 261 317 385
#     4   9  18  37  58  86 121 153 196 260 309 375
#     4   9  22  41  63  90 127 165 210 266 309 376
#     4   9  20  35  58  86 125 159 204 254 303 377
#     4   9  19  39  60  83 126 165 199 250 324 368
#     4  10  23  40  62  94 123 165 213 266 309 381
#
# _framework density 22.187564999999999
#
# number of rings (size 3 to 8) (size 9 to 14) (size 15 to 20)
#    1.000    1.667    0.000    0.000    4.667    5.333 
#    0.000    1.667    0.000    6.000    0.000    0.000 
#    0.000    0.000    0.000    0.000    0.000    0.000 
#
# Total GULP energy -267358.107188 kJ/mol
# GULP energy per Si atom -5569.960566 kJ/mol
# Density = 2.213707 g / cm^3
# Si number density = 22.187565 Si / 1000 Ang^3
#
#
#
# Elastic Constant Matrix: (Units=GPa)
#
#
# Indices 1 2 3 4 5 6 
#
# 1 99.1665 16.2664 31.2042 0.0000 0.0000 0.0000
# 2 16.2664 77.0107 19.4232 0.0000 0.0000 0.0000
# 3 31.2042 19.4232 107.8623 0.0000 0.0000 0.0000
# 4 0.0000 0.0000 0.0000 16.6170 0.0000 0.0000
# 5 0.0000 0.0000 0.0000 0.0000 60.7339 0.0000
# 6 0.0000 0.0000 0.0000 0.0000 0.0000 20.9978
#
#
#
# Elastic Compliance Matrix: (Units=1/GPa)
#
#
# Indices 1 2 3 4 5 6 
#
# 1 0.011287 -0.001635 -0.002971 0.000000 0.000000 0.000000
# 2 -0.001635 0.013840 -0.002019 0.000000 0.000000 0.000000
# 3 -0.002971 -0.002019 0.010494 0.000000 0.000000 0.000000
# 4 0.000000 0.000000 0.000000 0.060179 0.000000 0.000000
# 5 0.000000 0.000000 0.000000 0.000000 0.016465 0.000000
# 6 0.000000 0.000000 0.000000 0.000000 0.000000 0.047624
#
#
# Mechanical properties :
#
#
# Convention : Reuss Voigt Hill
#
# Bulk Modulus (GPa) = 44.70049 46.42523 45.56286
# Shear Modulus (GPa) = 27.68603 34.14614 30.91608
#
# Velocity S-wave (km/s) = 3.53628 3.92723 3.73687
# Velocity P-wave (km/s) = 6.07158 6.44466 6.26090
#
# Compressibility (1/GPa) = 0.02237112
#
# Stress axis : x y z
#
# Youngs Moduli (GPa) = 88.59714 72.25544 95.29101
#
# Poissons Ratio (x) = 0.11812 0.28310
# Poissons Ratio (y) = 0.14484 0.19242
# Poissons Ratio (z) = 0.26322 0.14590
#
# Static dielectric constant tensor:
#      x y z
#    x 1.931570 0.000000 0.000000 
#    y 0.000000 1.907610 0.000000 
#    z 0.000000 0.000000 1.797220 
# 
# From -- ./inp_files/40188.got.cif
#   From: 2010.05.17/outbox.cif.g08.bks.cpg/sg52_21_cif.got.tgz:40188.got - 2010.06.03 12:15:38.
