data_PCOD9411425
_publ_section_title
;
Structure prediction by ZEFSAII (Michael W. Deem and Ramdas Pophale) SiO2 
 PCOD9411425
Probable space group: P N N A
;
_chemical_formula_sum "Si O2"
_cell_formula_units_Z 40
_cell_length_a 25.218327
_cell_length_b 6.525227
_cell_length_c 10.766526
_cell_angle_alpha 90.000000
_cell_angle_beta 90.000000
_cell_angle_gamma 90.000000
_cell_volume 1771.689005
_symmetry_space_group_name_H-M "P N N A"
_symmetry_group_IT_number 52
_symmetry_cell_setting 'orthorhombic'
loop_
_space_group_symop_operation_xyz
x,y,z
1/2-x,-y,z
x,1/2-y,1/2-z
1/2-x,1/2+y,1/2-z
-x,-y,-z
1/2+x,y,-z
-x,1/2+y,1/2+z
1/2+x,1/2-y,1/2+z
loop_
_atom_site_type_symbol
_atom_site_label
_atom_site_fract_x
_atom_site_fract_y
_atom_site_fract_z
Si Si1 0.021993 0.205926 0.929891
Si Si2 0.203439 0.360425 0.620832
Si Si3 0.918746 0.072212 0.573254
Si Si4 0.191645 0.394332 0.128995
Si Si5 0.599953 0.604422 0.356164
O O1 0.972656 0.328004 0.872826
O O2 0.064791 0.096328 0.846783
O O3 0.056305 0.363742 0.014332
O O4 0.000000 0.000000 0.000000
O O5 0.250000 0.500000 0.568224
O O6 0.219108 0.250000 0.750000
O O7 0.185922 0.214370 0.507070
O O8 0.158444 0.520491 0.658872
O O9 0.902578 0.249979 0.475876
O O10 0.863703 0.022036 0.642676
O O11 0.250000 0.500000 0.124992
O O12 0.192885 0.250000 0.250000
O O13 0.580150 0.750000 0.250000
#
# Coordination Sequence:
#
# PCOD9411425 Si02
#       5
#     8   8   8   8   8
#     4   9  20  41  70  99 143 184 243 297 366 435
#     4  12  24  43  71 105 143 187 245 304 373 447
#     4  10  21  44  70  98 142 188 241 302 360 434
#     4  12  26  47  74 104 149 196 248 308 372 442
#     4  11  22  38  70 104 142 181 236 305 368 433
#
# _framework density 22.577325999999999
#
# number of rings (size 3 to 8) (size 9 to 14) (size 15 to 20)
#    0.000    1.200    2.000    4.200    0.000    0.000 
#    0.000   11.000    4.400    0.000    0.000    0.000 
#    0.000    0.000    0.000    0.000    0.000    0.000 
#
# Total GULP energy -222946.212957 kJ/mol
# GULP energy per Si atom -5573.655324 kJ/mol
# Density = 2.252594 g / cm^3
# Si number density = 22.577326 Si / 1000 Ang^3
#
#
#
# Elastic Constant Matrix: (Units=GPa)
#
#
# Indices 1 2 3 4 5 6 
#
# 1 125.2373 53.9407 -6.9913 0.0000 0.0000 0.0000
# 2 53.9407 131.5554 30.6865 0.0000 0.0000 0.0000
# 3 -6.9913 30.6865 73.5812 0.0000 0.0000 0.0000
# 4 0.0000 0.0000 0.0000 40.5071 0.0000 0.0000
# 5 0.0000 0.0000 0.0000 0.0000 23.5345 0.0000
# 6 0.0000 0.0000 0.0000 0.0000 0.0000 95.2857
#
#
#
# Elastic Compliance Matrix: (Units=1/GPa)
#
#
# Indices 1 2 3 4 5 6 
#
# 1 0.010272 -0.004918 0.003027 0.000000 0.000000 0.000000
# 2 -0.004918 0.010775 -0.004961 0.000000 0.000000 0.000000
# 3 0.003027 -0.004961 0.015947 0.000000 0.000000 0.000000
# 4 0.000000 0.000000 0.000000 0.024687 0.000000 0.000000
# 5 0.000000 0.000000 0.000000 0.000000 0.042491 0.000000
# 6 0.000000 0.000000 0.000000 0.000000 0.000000 0.010495
#
#
# Mechanical properties :
#
#
# Convention : Reuss Voigt Hill
#
# Bulk Modulus (GPa) = 42.93630 53.96063 48.44846
# Shear Modulus (GPa) = 36.72872 48.71467 42.72170
#
# Velocity S-wave (km/s) = 4.03773 4.65012 4.35471
# Velocity P-wave (km/s) = 6.38721 7.26525 6.84033
#
# Compressibility (1/GPa) = 0.02329032
#
# Stress axis : x y z
#
# Youngs Moduli (GPa) = 97.35252 92.80801 62.70803
#
# Poissons Ratio (x) = 0.45641 -0.18981
# Poissons Ratio (y) = 0.47876 0.31109
# Poissons Ratio (z) = -0.29468 0.46041
#
# Static dielectric constant tensor:
#      x y z
#    x 1.875410 0.000000 0.000000 
#    y 0.000000 1.768000 0.000000 
#    z 0.000000 0.000000 1.902530 
# 
# From -- ./inp_files/22633.got.cif
#   From: 2010.05.17/outbox.cif.g08.bks.cpg/sg52_12_cif.got.tgz:22633.got - 2010.06.03 12:15:38.
