data_PCOD9411849
_publ_section_title
;
Structure prediction by ZEFSAII (Michael W. Deem and Ramdas Pophale) SiO2 
 PCOD9411849
Probable space group: P N N A
;
_chemical_formula_sum "Si O2"
_cell_formula_units_Z 32
_cell_length_a 11.773739
_cell_length_b 5.013479
_cell_length_c 22.754311
_cell_angle_alpha 90.000000
_cell_angle_beta 90.000000
_cell_angle_gamma 90.000000
_cell_volume 1343.127663
_symmetry_space_group_name_H-M "P N N A"
_symmetry_group_IT_number 52
_symmetry_cell_setting 'orthorhombic'
loop_
_space_group_symop_operation_xyz
x,y,z
1/2-x,-y,z
x,1/2-y,1/2-z
1/2-x,1/2+y,1/2-z
-x,-y,-z
1/2+x,y,-z
-x,1/2+y,1/2+z
1/2+x,1/2-y,1/2+z
loop_
_atom_site_type_symbol
_atom_site_label
_atom_site_fract_x
_atom_site_fract_y
_atom_site_fract_z
Si Si1 0.939344 0.699508 0.685473
Si Si2 0.167410 0.745509 0.640403
Si Si3 0.866502 0.317651 0.883823
Si Si4 0.833528 0.250503 0.011566
O O1 0.889572 0.750000 0.750000
O O2 0.874834 0.466582 0.649668
O O3 0.073642 0.646820 0.686649
O O4 0.942646 0.984476 0.653375
O O5 0.250000 0.500000 0.633135
O O6 0.108463 0.755326 0.575061
O O7 0.250000 0.000000 0.651627
O O8 0.750000 0.500000 0.884659
O O9 0.903157 0.271696 0.951242
O O10 0.750000 0.500000 0.013813
O O11 0.750000 0.000000 0.003424
#
# Coordination Sequence:
#
# PCOD9411849 Si02
#       4
#     8   8   8   8
#     4  12  26  41  62  93 123 165 218 247 295 379
#     4  10  22  41  65  93 126 159 197 257 316 366
#     4  11  23  42  64  88 124 163 203 260 311 356
#     4   9  18  36  62  91 120 154 200 249 311 376
#
# _framework density 23.824987
#
# number of rings (size 3 to 8) (size 9 to 14) (size 15 to 20)
#    0.000    1.500    0.000    6.000    0.000    5.000 
#    0.000    1.250    0.000    0.000    0.000    0.000 
#    0.000    0.000    0.000    0.000    0.000    0.000 
#
# Total GULP energy -178390.523754 kJ/mol
# GULP energy per Si atom -5574.703867 kJ/mol
# Density = 2.377076 g / cm^3
# Si number density = 23.824987 Si / 1000 Ang^3
#
#
#
# Elastic Constant Matrix: (Units=GPa)
#
#
# Indices 1 2 3 4 5 6 
#
# 1 39.3761 0.5527 5.8193 0.0000 0.0000 0.0000
# 2 0.5527 158.2321 16.5454 0.0000 0.0000 0.0000
# 3 5.8193 16.5454 100.0042 0.0000 0.0000 0.0000
# 4 0.0000 0.0000 0.0000 16.7344 0.0000 0.0000
# 5 0.0000 0.0000 0.0000 0.0000 -3.5677 0.0000
# 6 0.0000 0.0000 0.0000 0.0000 0.0000 29.9845
#
#
#
# Elastic Compliance Matrix: (Units=1/GPa)
#
#
# Indices 1 2 3 4 5 6 
#
# 1 0.025617 0.000068 -0.001502 0.000000 0.000000 0.000000
# 2 0.000068 0.006431 -0.001068 0.000000 0.000000 0.000000
# 3 -0.001502 -0.001068 0.010264 0.000000 0.000000 0.000000
# 4 0.000000 0.000000 0.000000 0.059757 0.000000 0.000000
# 5 0.000000 0.000000 0.000000 0.000000 -0.280291 0.000000
# 6 0.000000 0.000000 0.000000 0.000000 0.000000 0.033351
#
#
# Mechanical properties :
#
#
# Convention : Reuss Voigt Hill
#
# Bulk Modulus (GPa) = 26.80422 38.16078 32.48250
# Shear Modulus (GPa) = -39.23696 26.94323 -6.14687
#
# Velocity S-wave (km/s) = -4.06258 3.36651 -1.60798
# Velocity P-wave (km/s) = 3.27585 5.58239 3.19623
#
# Compressibility (1/GPa) = 0.03730756
#
# Stress axis : x y z
#
# Youngs Moduli (GPa) = 39.03639 155.49036 97.43104
#
# Poissons Ratio (x) = -0.01051 0.14633
# Poissons Ratio (y) = -0.00264 0.10405
# Poissons Ratio (z) = 0.05863 0.16606
#
# Static dielectric constant tensor:
#      x y z
#    x 1.910520 0.000000 0.000000 
#    y 0.000000 1.927450 0.000000 
#    z 0.000000 0.000000 2.004670 
# 
# From -- ./inp_files/39819.got.cif
#   From: 2010.05.17/outbox.cif.g08.bks.cpg/sg52_20_cif.got.tgz:39819.got - 2010.06.03 12:15:38.
