data_PCOD9411113
_publ_section_title
;
Structure prediction by ZEFSAII (Michael W. Deem and Ramdas Pophale) SiO2 
 PCOD9411113
Probable space group: P N N A
;
_chemical_formula_sum "Si O2"
_cell_formula_units_Z 48
_cell_length_a 13.391292
_cell_length_b 8.799327
_cell_length_c 19.802754
_cell_angle_alpha 90.000000
_cell_angle_beta 90.000000
_cell_angle_gamma 90.000000
_cell_volume 2333.444790
_symmetry_space_group_name_H-M "P N N A"
_symmetry_group_IT_number 52
_symmetry_cell_setting 'orthorhombic'
loop_
_space_group_symop_operation_xyz
x,y,z
1/2-x,-y,z
x,1/2-y,1/2-z
1/2-x,1/2+y,1/2-z
-x,-y,-z
1/2+x,y,-z
-x,1/2+y,1/2+z
1/2+x,1/2-y,1/2+z
loop_
_atom_site_type_symbol
_atom_site_label
_atom_site_fract_x
_atom_site_fract_y
_atom_site_fract_z
Si Si1 0.952207 0.499065 0.618848
Si Si2 0.501334 0.644164 0.902821
Si Si3 0.750000 0.500000 0.542821
Si Si4 0.037416 0.068761 0.743504
Si Si5 0.138333 0.991995 0.516217
Si Si6 0.250000 0.000000 0.805645
Si Si7 0.349219 0.322477 0.577678
O O1 0.845019 0.546946 0.588975
O O2 0.965058 0.317690 0.605909
O O3 0.969941 0.513060 0.699735
O O4 0.045964 0.586382 0.585073
O O5 0.491996 0.550641 0.833782
O O6 0.397145 0.640658 0.943788
O O7 0.572574 0.552441 0.952610
O O8 0.706122 0.624248 0.490691
O O9 0.026757 0.250000 0.750000
O O10 0.152252 0.032264 0.761618
O O11 0.130382 0.854117 0.569409
O O12 0.250000 0.000000 0.492911
O O13 0.218187 0.865872 0.857570
#
# Coordination Sequence:
#
# PCOD9411113 Si02
#       7
#     8   8   4   8   8   4   8
#     4  10  21  40  63  92 116 154 207 252 299 346
#     4  10  23  41  59  88 124 162 194 252 299 363
#     4  11  20  32  66  88 113 158 198 252 291 348
#     4   9  20  37  60  86 123 153 195 247 297 363
#     4  11  25  38  60  88 124 165 198 240 311 366
#     4   9  20  34  62  98 111 158 202 246 307 354
#     4  10  22  37  60  94 123 147 204 260 292 352
#
# _framework density 20.570446
#
# number of rings (size 3 to 8) (size 9 to 14) (size 15 to 20)
#    0.000    2.000    1.667    0.500   10.500    1.333 
#    1.500    2.500    0.000    0.000    0.000    0.000 
#    0.000    0.000    0.000    0.000    0.000    0.000 
#
# Total GULP energy -267883.932532 kJ/mol
# GULP energy per Si atom -5580.915261 kJ/mol
# Density = 2.052363 g / cm^3
# Si number density = 20.570446 Si / 1000 Ang^3
#
#
#
# Elastic Constant Matrix: (Units=GPa)
#
#
# Indices 1 2 3 4 5 6 
#
# 1 99.7867 16.1747 26.8075 0.0000 0.0000 0.0000
# 2 16.1747 26.4195 25.6715 0.0000 0.0000 0.0000
# 3 26.8075 25.6715 55.2931 0.0000 0.0000 0.0000
# 4 0.0000 0.0000 0.0000 13.1956 0.0000 0.0000
# 5 0.0000 0.0000 0.0000 0.0000 -22.4194 0.0000
# 6 0.0000 0.0000 0.0000 0.0000 0.0000 26.3835
#
#
#
# Elastic Compliance Matrix: (Units=1/GPa)
#
#
# Indices 1 2 3 4 5 6 
#
# 1 0.011651 -0.002996 -0.004258 0.000000 0.000000 0.000000
# 2 -0.002996 0.069732 -0.030923 0.000000 0.000000 0.000000
# 3 -0.004258 -0.030923 0.034507 0.000000 0.000000 0.000000
# 4 0.000000 0.000000 0.000000 0.075783 0.000000 0.000000
# 5 0.000000 0.000000 0.000000 0.000000 -0.044604 0.000000
# 6 0.000000 0.000000 0.000000 0.000000 0.000000 0.037903
#
#
# Mechanical properties :
#
#
# Convention : Reuss Voigt Hill
#
# Bulk Modulus (GPa) = 25.29279 35.42294 30.35786
# Shear Modulus (GPa) = 18.21477 10.95498 14.58487
#
# Velocity S-wave (km/s) = 2.97893 2.31023 2.66563
# Velocity P-wave (km/s) = 4.91472 4.93699 4.92587
#
# Compressibility (1/GPa) = 0.03953696
#
# Stress axis : x y z
#
# Youngs Moduli (GPa) = 85.83106 14.34055 28.97995
#
# Poissons Ratio (x) = 0.04296 0.12339
# Poissons Ratio (y) = 0.25713 0.89614
# Poissons Ratio (z) = 0.36545 0.44345
#
# Static dielectric constant tensor:
#      x y z
#    x 1.770590 0.000000 0.000000 
#    y 0.000000 1.738210 0.000000 
#    z 0.000000 0.000000 1.770510 
# 
# From -- ./inp_files/37224.got.cif
#   From: 2010.05.17/outbox.cif.g08.bks.cpg/sg52_19_cif.got.tgz:37224.got - 2010.06.03 12:15:38.
