data_PCOD9411363
_publ_section_title
;
Structure prediction by ZEFSAII (Michael W. Deem and Ramdas Pophale) SiO2 
 PCOD9411363
Probable space group: P N N A
;
_chemical_formula_sum "Si O2"
_cell_formula_units_Z 36
_cell_length_a 11.271674
_cell_length_b 13.118831
_cell_length_c 10.318178
_cell_angle_alpha 90.000000
_cell_angle_beta 90.000000
_cell_angle_gamma 90.000000
_cell_volume 1525.761221
_symmetry_space_group_name_H-M "P N N A"
_symmetry_group_IT_number 52
_symmetry_cell_setting 'orthorhombic'
loop_
_space_group_symop_operation_xyz
x,y,z
1/2-x,-y,z
x,1/2-y,1/2-z
1/2-x,1/2+y,1/2-z
-x,-y,-z
1/2+x,y,-z
-x,1/2+y,1/2+z
1/2+x,1/2-y,1/2+z
loop_
_atom_site_type_symbol
_atom_site_label
_atom_site_fract_x
_atom_site_fract_y
_atom_site_fract_z
Si Si1 0.640001 0.786498 0.395165
Si Si2 0.550994 0.043333 0.168721
Si Si3 0.563942 0.153660 0.902358
Si Si4 0.319003 0.335745 0.345407
Si Si5 0.250000 0.500000 0.866694
O O1 0.677603 0.750000 0.250000
O O2 0.496916 0.764763 0.401373
O O3 0.682174 0.713444 0.511597
O O4 0.684117 0.901065 0.427674
O O5 0.413286 0.075761 0.176357
O O6 0.645173 0.052703 0.282104
O O7 0.539534 0.922806 0.144626
O O8 0.592289 0.108613 0.044851
O O9 0.682044 0.142656 0.819231
O O10 0.365258 0.250000 0.250000
#
# Coordination Sequence:
#
# PCOD9411363 Si02
#       5
#     8   8   8   8   4
#     4  11  23  44  70 101 137 187 230 284 342 415
#     4  10  23  39  69 102 131 182 241 288 340 412
#     4  10  21  42  69  98 134 184 238 287 338 412
#     4  11  25  44  66  99 143 181 225 291 354 417
#     4  12  24  42  72 106 140 180 240 288 352 420
#
# _framework density 23.594778999999999
#
# number of rings (size 3 to 8) (size 9 to 14) (size 15 to 20)
#    0.000    1.333    2.222    2.667    6.222    4.444 
#    4.000    2.222    0.000    0.000    0.000    0.000 
#    0.000    0.000    0.000    0.000    0.000    0.000 
#
# Total GULP energy -200696.784643 kJ/mol
# GULP energy per Si atom -5574.910685 kJ/mol
# Density = 2.354108 g / cm^3
# Si number density = 23.594779 Si / 1000 Ang^3
#
#
#
# Elastic Constant Matrix: (Units=GPa)
#
#
# Indices 1 2 3 4 5 6 
#
# 1 120.0029 57.9244 0.5328 0.0000 0.0000 0.0000
# 2 57.9244 140.9254 19.0807 0.0000 0.0000 0.0000
# 3 0.5328 19.0807 43.6641 0.0000 0.0000 0.0000
# 4 0.0000 0.0000 0.0000 7.1120 0.0000 0.0000
# 5 0.0000 0.0000 0.0000 0.0000 13.7229 0.0000
# 6 0.0000 0.0000 0.0000 0.0000 0.0000 30.0479
#
#
#
# Elastic Compliance Matrix: (Units=1/GPa)
#
#
# Indices 1 2 3 4 5 6 
#
# 1 0.010538 -0.004585 0.001875 0.000000 0.000000 0.000000
# 2 -0.004585 0.009537 -0.004112 0.000000 0.000000 0.000000
# 3 0.001875 -0.004112 0.024676 0.000000 0.000000 0.000000
# 4 0.000000 0.000000 0.000000 0.140608 0.000000 0.000000
# 5 0.000000 0.000000 0.000000 0.000000 0.072871 0.000000
# 6 0.000000 0.000000 0.000000 0.000000 0.000000 0.033280
#
#
# Mechanical properties :
#
#
# Convention : Reuss Voigt Hill
#
# Bulk Modulus (GPa) = 32.14649 51.07425 41.61037
# Shear Modulus (GPa) = 15.84667 25.31351 20.58009
#
# Velocity S-wave (km/s) = 2.59437 3.27898 2.95656
# Velocity P-wave (km/s) = 4.75692 6.00242 5.41560
#
# Compressibility (1/GPa) = 0.03110760
#
# Stress axis : x y z
#
# Youngs Moduli (GPa) = 94.89356 104.85048 40.52513
#
# Poissons Ratio (x) = 0.48078 -0.07599
# Poissons Ratio (y) = 0.43512 0.16663
# Poissons Ratio (z) = -0.17794 0.43112
#
# Static dielectric constant tensor:
#      x y z
#    x 1.897990 0.000000 0.000000 
#    y 0.000000 2.198490 0.000000 
#    z 0.000000 0.000000 1.966590 
# 
# From -- ./inp_files/17788.got.cif
#   From: 2010.05.17/outbox.cif.g08.bks.cpg/sg52_9_cif.got.tgz:17788.got - 2010.06.03 12:15:38.
