data_PCOD9411410
_publ_section_title
;
Structure prediction by ZEFSAII (Michael W. Deem and Ramdas Pophale) SiO2 
 PCOD9411410
Probable space group: P N N A
;
_chemical_formula_sum "Si O2"
_cell_formula_units_Z 36
_cell_length_a 22.718297
_cell_length_b 6.252821
_cell_length_c 10.559392
_cell_angle_alpha 90.000000
_cell_angle_beta 90.000000
_cell_angle_gamma 90.000000
_cell_volume 1499.998006
_symmetry_space_group_name_H-M "P N N A"
_symmetry_group_IT_number 52
_symmetry_cell_setting 'orthorhombic'
loop_
_space_group_symop_operation_xyz
x,y,z
1/2-x,-y,z
x,1/2-y,1/2-z
1/2-x,1/2+y,1/2-z
-x,-y,-z
1/2+x,y,-z
-x,1/2+y,1/2+z
1/2+x,1/2-y,1/2+z
loop_
_atom_site_type_symbol
_atom_site_label
_atom_site_fract_x
_atom_site_fract_y
_atom_site_fract_z
Si Si1 0.960698 0.621269 0.884869
Si Si2 0.151765 0.663820 0.124757
Si Si3 0.386985 0.547595 0.546771
Si Si4 0.686424 0.067711 0.390983
Si Si5 0.097862 0.750000 0.750000
O O1 0.977672 0.750000 0.750000
O O2 0.911933 0.443838 0.845588
O O3 0.927379 0.798381 0.966485
O O4 0.000000 0.500000 0.000000
O O5 0.181774 0.750000 0.250000
O O6 0.184941 0.490880 0.040092
O O7 0.143106 0.874398 0.041124
O O8 0.337024 0.690707 0.615691
O O9 0.426251 0.414002 0.645842
O O10 0.750000 0.000000 0.340462
O O11 0.637695 0.911889 0.331690
#
# Coordination Sequence:
#
# PCOD9411410 Si02
#       5
#     8   8   8   8   4
#     4  11  24  47  74 105 138 183 239 303 362 434
#     4  10  21  44  67  92 137 183 220 286 358 416
#     4  10  22  44  69  95 141 182 233 284 359 424
#     4  10  23  39  64 101 136 181 232 289 340 418
#     4  10  22  38  66  98 136 188 228 286 354 418
#
# _framework density 24.000031
#
# number of rings (size 3 to 8) (size 9 to 14) (size 15 to 20)
#    0.000    1.778    2.222    0.667    3.111    3.556 
#   26.000    0.000    0.000    0.000    0.000    0.000 
#    0.000    0.000    0.000    0.000    0.000    0.000 
#
# Total GULP energy -200495.811998 kJ/mol
# GULP energy per Si atom -5569.328111 kJ/mol
# Density = 2.394541 g / cm^3
# Si number density = 24.000031 Si / 1000 Ang^3
#
#
#
# Elastic Constant Matrix: (Units=GPa)
#
#
# Indices 1 2 3 4 5 6 
#
# 1 34.6136 22.3146 7.3883 0.0000 0.0000 0.0000
# 2 22.3146 153.3703 47.1326 0.0000 0.0000 0.0000
# 3 7.3883 47.1326 117.6904 0.0000 0.0000 0.0000
# 4 0.0000 0.0000 0.0000 67.1054 0.0000 0.0000
# 5 0.0000 0.0000 0.0000 0.0000 53.7924 0.0000
# 6 0.0000 0.0000 0.0000 0.0000 0.0000 2.2315
#
#
#
# Elastic Compliance Matrix: (Units=1/GPa)
#
#
# Indices 1 2 3 4 5 6 
#
# 1 0.031883 -0.004588 -0.000164 0.000000 0.000000 0.000000
# 2 -0.004588 0.008096 -0.002954 0.000000 0.000000 0.000000
# 3 -0.000164 -0.002954 0.009690 0.000000 0.000000 0.000000
# 4 0.000000 0.000000 0.000000 0.014902 0.000000 0.000000
# 5 0.000000 0.000000 0.000000 0.000000 0.018590 0.000000
# 6 0.000000 0.000000 0.000000 0.000000 0.000000 0.448138
#
#
# Mechanical properties :
#
#
# Convention : Reuss Voigt Hill
#
# Bulk Modulus (GPa) = 29.19180 51.03837 40.11508
# Shear Modulus (GPa) = 8.95847 39.88177 24.42012
#
# Velocity S-wave (km/s) = 1.93411 4.08086 3.19329
# Velocity P-wave (km/s) = 4.14456 6.59672 5.50882
#
# Compressibility (1/GPa) = 0.03425620
#
# Stress axis : x y z
#
# Youngs Moduli (GPa) = 31.36425 123.52403 103.19694
#
# Poissons Ratio (x) = 0.56679 0.01692
# Poissons Ratio (y) = 0.14391 0.30485
# Poissons Ratio (z) = 0.00514 0.36490
#
# Static dielectric constant tensor:
#      x y z
#    x 2.237870 0.000000 0.000000 
#    y 0.000000 1.861610 0.000000 
#    z 0.000000 0.000000 2.111320 
# 
# From -- ./inp_files/22039.got.cif
#   From: 2010.05.17/outbox.cif.g08.bks.cpg/sg52_12_cif.got.tgz:22039.got - 2010.06.03 12:15:38.
