data_PCOD9411282
_publ_section_title
;
Structure prediction by ZEFSAII (Michael W. Deem and Ramdas Pophale) SiO2 
 PCOD9411282
Probable space group: P N N A
;
_chemical_formula_sum "Si O2"
_cell_formula_units_Z 56
_cell_length_a 8.455744
_cell_length_b 14.043609
_cell_length_c 18.496369
_cell_angle_alpha 90.000000
_cell_angle_beta 90.000000
_cell_angle_gamma 90.000000
_cell_volume 2196.428329
_symmetry_space_group_name_H-M "P N N A"
_symmetry_group_IT_number 52
_symmetry_cell_setting 'orthorhombic'
loop_
_space_group_symop_operation_xyz
x,y,z
1/2-x,-y,z
x,1/2-y,1/2-z
1/2-x,1/2+y,1/2-z
-x,-y,-z
1/2+x,y,-z
-x,1/2+y,1/2+z
1/2+x,1/2-y,1/2+z
loop_
_atom_site_type_symbol
_atom_site_label
_atom_site_fract_x
_atom_site_fract_y
_atom_site_fract_z
Si Si1 0.424491 0.039187 0.102563
Si Si2 0.108228 0.942950 0.646809
Si Si3 0.389717 0.076330 0.260241
Si Si4 0.179041 0.307994 0.132058
Si Si5 0.334362 0.767179 0.670635
Si Si6 0.443304 0.335218 0.620887
Si Si7 0.949258 0.231614 0.962786
O O1 0.525870 0.945154 0.109824
O O2 0.250000 0.000000 0.085554
O O3 0.425272 0.098253 0.177381
O O4 0.474698 0.118395 0.046779
O O5 0.205243 0.852455 0.676846
O O6 0.945197 0.894903 0.616904
O O7 0.250000 0.000000 0.604726
O O8 0.036185 0.020690 0.702660
O O9 0.310553 0.153330 0.312323
O O10 0.250000 0.000000 0.252284
O O11 0.278689 0.268917 0.063868
O O12 0.085080 0.216543 0.164004
O O13 0.409631 0.750000 0.750000
O O14 0.224852 0.676275 0.656445
O O15 0.432180 0.779413 0.595630
O O16 0.447832 0.267802 0.549258
#
# Coordination Sequence:
#
# PCOD9411282 Si02
#       7
#     8   8   8   8   8   8   8
#     4  11  23  41  68 103 141 189 246 286 360 442
#     4  10  21  41  69  97 145 176 233 304 367 426
#     4   9  20  39  67 103 136 184 232 305 354 427
#     4  10  22  42  70  99 139 185 245 294 363 437
#     4  11  26  43  68 106 143 189 244 306 371 431
#     4  11  24  48  69 102 145 196 237 299 373 444
#     4  12  25  42  72 101 150 189 241 300 369 458
#
# _framework density 25.495937000000001
#
# number of rings (size 3 to 8) (size 9 to 14) (size 15 to 20)
#    0.000    1.429    1.429    3.000    4.000    1.714 
#    2.571    0.000    0.000   65.143    0.000    0.000 
#    0.000    0.000    0.000    0.000    0.000    0.000 
#
# Total GULP energy -312619.562348 kJ/mol
# GULP energy per Si atom -5582.492185 kJ/mol
# Density = 2.543791 g / cm^3
# Si number density = 25.495937 Si / 1000 Ang^3
#
#
#
# Elastic Constant Matrix: (Units=GPa)
#
#
# Indices 1 2 3 4 5 6 
#
# 1 111.1264 20.5082 15.8657 0.0000 0.0000 0.0000
# 2 20.5082 59.0694 13.6713 0.0000 0.0000 0.0000
# 3 15.8657 13.6713 95.9796 0.0000 0.0000 0.0000
# 4 0.0000 0.0000 0.0000 20.8441 0.0000 0.0000
# 5 0.0000 0.0000 0.0000 0.0000 9.9065 0.0000
# 6 0.0000 0.0000 0.0000 0.0000 0.0000 62.1510
#
#
#
# Elastic Compliance Matrix: (Units=1/GPa)
#
#
# Indices 1 2 3 4 5 6 
#
# 1 0.009740 -0.003111 -0.001167 0.000000 0.000000 0.000000
# 2 -0.003111 0.018500 -0.002121 0.000000 0.000000 0.000000
# 3 -0.001167 -0.002121 0.010914 0.000000 0.000000 0.000000
# 4 0.000000 0.000000 0.000000 0.047975 0.000000 0.000000
# 5 0.000000 0.000000 0.000000 0.000000 0.100944 0.000000
# 6 0.000000 0.000000 0.000000 0.000000 0.000000 0.016090
#
#
# Mechanical properties :
#
#
# Convention : Reuss Voigt Hill
#
# Bulk Modulus (GPa) = 37.94254 40.69619 39.31937
# Shear Modulus (GPa) = 22.14879 32.98900 27.56890
#
# Velocity S-wave (km/s) = 2.95060 3.60097 3.29189
# Velocity P-wave (km/s) = 5.14997 5.76939 5.46846
#
# Compressibility (1/GPa) = 0.02635564
#
# Stress axis : x y z
#
# Youngs Moduli (GPa) = 102.67410 54.05306 91.62669
#
# Poissons Ratio (x) = 0.16818 0.10691
# Poissons Ratio (y) = 0.31946 0.19433
# Poissons Ratio (z) = 0.11980 0.11464
#
# Static dielectric constant tensor:
#      x y z
#    x 2.099110 0.000000 0.000000 
#    y 0.000000 2.021180 0.000000 
#    z 0.000000 0.000000 2.076930 
# 
# From -- ./inp_files/36018.got.cif
#   From: 2010.05.17/outbox.cif.g08.bks.cpg/sg52_19_cif.got.tgz:36018.got - 2010.06.03 12:15:38.
