data_PCOD9411332
_publ_section_title
;
Structure prediction by ZEFSAII (Michael W. Deem and Ramdas Pophale) SiO2 
 PCOD9411332
Probable space group: P N N A
;
_chemical_formula_sum "Si O2"
_cell_formula_units_Z 44
_cell_length_a 14.286507
_cell_length_b 5.270328
_cell_length_c 27.341197
_cell_angle_alpha 90.000000
_cell_angle_beta 90.000000
_cell_angle_gamma 90.000000
_cell_volume 2058.643886
_symmetry_space_group_name_H-M "P N N A"
_symmetry_group_IT_number 52
_symmetry_cell_setting 'orthorhombic'
loop_
_space_group_symop_operation_xyz
x,y,z
1/2-x,-y,z
x,1/2-y,1/2-z
1/2-x,1/2+y,1/2-z
-x,-y,-z
1/2+x,y,-z
-x,1/2+y,1/2+z
1/2+x,1/2-y,1/2+z
loop_
_atom_site_type_symbol
_atom_site_label
_atom_site_fract_x
_atom_site_fract_y
_atom_site_fract_z
Si Si1 0.017943 0.750000 0.250000
Si Si2 0.191529 0.747534 0.691105
Si Si3 0.641094 0.438901 0.682953
Si Si4 0.856508 0.087119 0.923280
Si Si5 0.549237 0.432409 0.949663
Si Si6 0.492690 0.052983 0.657528
O O1 0.083786 0.530549 0.270784
O O2 0.968398 0.646150 0.201163
O O3 0.250000 0.500000 0.677753
O O4 0.179805 0.750000 0.750000
O O5 0.088975 0.742564 0.667377
O O6 0.250000 0.000000 0.677374
O O7 0.750000 0.500000 0.692055
O O8 0.617629 0.599983 0.634270
O O9 0.597250 0.166587 0.668161
O O10 0.918417 0.859989 0.946116
O O11 0.750000 0.000000 0.925193
O O12 0.867600 0.362812 0.945881
O O13 0.490080 0.497679 0.900393
O O14 0.500000 0.500000 0.000000
#
# Coordination Sequence:
#
# PCOD9411332 Si02
#       6
#     4   8   8   8   8   8
#     4  12  22  36  64  92 140 166 222 244 334 378
#     4  10  23  40  65  91 125 166 216 270 330 385
#     4  10  23  37  59  94 138 175 211 255 315 394
#     4  10  21  42  66  95 129 171 215 261 322 390
#     4  11  23  43  67  94 126 171 217 272 327 387
#     4  11  25  41  63  96 130 173 219 269 329 390
#
# _framework density 21.373296
#
# number of rings (size 3 to 8) (size 9 to 14) (size 15 to 20)
#    0.000    1.455    1.818    2.727    8.909    0.000 
#    0.000    2.727    0.000    0.000    0.000    0.000 
#    0.000    0.000    0.000    0.000    0.000    0.000 
#
# Total GULP energy -245437.527025 kJ/mol
# GULP energy per Si atom -5578.125614 kJ/mol
# Density = 2.132465 g / cm^3
# Si number density = 21.373296 Si / 1000 Ang^3
#
#
#
# Elastic Constant Matrix: (Units=GPa)
#
#
# Indices 1 2 3 4 5 6 
#
# 1 74.9701 18.3897 33.5043 0.0000 0.0000 0.0000
# 2 18.3897 89.0244 26.1437 0.0000 0.0000 0.0000
# 3 33.5043 26.1437 131.3790 0.0000 0.0000 0.0000
# 4 0.0000 0.0000 0.0000 25.4375 0.0000 0.0000
# 5 0.0000 0.0000 0.0000 0.0000 8.1831 0.0000
# 6 0.0000 0.0000 0.0000 0.0000 0.0000 21.5389
#
#
#
# Elastic Compliance Matrix: (Units=1/GPa)
#
#
# Indices 1 2 3 4 5 6 
#
# 1 0.015435 -0.002159 -0.003507 0.000000 0.000000 0.000000
# 2 -0.002159 0.012232 -0.001884 0.000000 0.000000 0.000000
# 3 -0.003507 -0.001884 0.008881 0.000000 0.000000 0.000000
# 4 0.000000 0.000000 0.000000 0.039312 0.000000 0.000000
# 5 0.000000 0.000000 0.000000 0.000000 0.122204 0.000000
# 6 0.000000 0.000000 0.000000 0.000000 0.000000 0.046428
#
#
# Mechanical properties :
#
#
# Convention : Reuss Voigt Hill
#
# Bulk Modulus (GPa) = 46.62011 50.16098 48.39054
# Shear Modulus (GPa) = 18.74489 25.52096 22.13293
#
# Velocity S-wave (km/s) = 2.96467 3.45926 3.22147
# Velocity P-wave (km/s) = 5.79471 6.28294 6.04376
#
# Compressibility (1/GPa) = 0.02144997
#
# Stress axis : x y z
#
# Youngs Moduli (GPa) = 64.78650 81.75323 112.60398
#
# Poissons Ratio (x) = 0.17647 0.39487
# Poissons Ratio (y) = 0.13985 0.21210
# Poissons Ratio (z) = 0.22719 0.15399
#
# Static dielectric constant tensor:
#      x y z
#    x 1.803660 0.000000 0.000000 
#    y 0.000000 1.871660 0.000000 
#    z 0.000000 0.000000 1.787980 
# 
# From -- ./inp_files/42939.got.cif
#   From: 2010.05.17/outbox.cif.g08.bks.cpg/sg52_22_cif.got.tgz:42939.got - 2010.06.03 12:15:38.
