data_PCOD9411382
_publ_section_title
;
Structure prediction by ZEFSAII (Michael W. Deem and Ramdas Pophale) SiO2 
 PCOD9411382
Probable space group: P N N A
;
_chemical_formula_sum "Si O2"
_cell_formula_units_Z 48
_cell_length_a 20.467803
_cell_length_b 5.808767
_cell_length_c 19.383475
_cell_angle_alpha 90.000000
_cell_angle_beta 90.000000
_cell_angle_gamma 90.000000
_cell_volume 2304.553652
_symmetry_space_group_name_H-M "P N N A"
_symmetry_group_IT_number 52
_symmetry_cell_setting 'orthorhombic'
loop_
_space_group_symop_operation_xyz
x,y,z
1/2-x,-y,z
x,1/2-y,1/2-z
1/2-x,1/2+y,1/2-z
-x,-y,-z
1/2+x,y,-z
-x,1/2+y,1/2+z
1/2+x,1/2-y,1/2+z
loop_
_atom_site_type_symbol
_atom_site_label
_atom_site_fract_x
_atom_site_fract_y
_atom_site_fract_z
Si Si1 0.250000 0.000000 0.976246
Si Si2 0.177173 0.101030 0.482376
Si Si3 0.152570 0.685955 0.891097
Si Si4 0.473871 0.131985 0.825859
Si Si5 0.218555 0.750000 0.750000
Si Si6 0.213313 0.250000 0.250000
Si Si7 0.462463 0.250000 0.250000
Si Si8 0.894975 0.889844 0.650915
O O1 0.209217 0.830197 0.928212
O O2 0.305813 0.870394 0.019186
O O3 0.129517 0.019754 0.422341
O O4 0.250000 0.000000 0.471509
O O5 0.149008 0.031175 0.557421
O O6 0.084879 0.817510 0.877623
O O7 0.178269 0.647969 0.814235
O O8 0.462451 0.250000 0.750000
O O9 0.540818 0.235085 0.855708
O O10 0.490436 0.872233 0.805280
O O11 0.250000 0.500000 0.725221
O O12 0.250000 0.500000 0.248881
O O13 0.165661 0.245853 0.316125
O O14 0.416666 0.422231 0.207450
#
# Coordination Sequence:
#
# PCOD9411382 Si02
#       8
#     4   8   8   8   4   4   4   8
#     4  10  22  42  62  94 132 176 216 278 344 426
#     4  10  24  42  63  91 136 171 222 283 353 417
#     4  11  23  42  62  99 132 174 230 282 355 409
#     4  10  22  40  65  94 130 174 225 288 347 413
#     4  12  24  40  72 101 137 178 234 294 350 416
#     4  12  25  39  72 107 133 178 242 288 354 421
#     4  10  21  43  66  94 132 178 230 288 346 413
#     4  11  23  43  64  95 135 173 228 291 342 418
#
# _framework density 20.828329
#
# number of rings (size 3 to 8) (size 9 to 14) (size 15 to 20)
#    0.000    1.333    4.167    2.500    1.167    6.667 
#    0.000    1.667    0.000    0.000    0.000    0.000 
#    0.000    0.000    0.000    0.000    0.000    0.000 
#
# Total GULP energy -267318.522654 kJ/mol
# GULP energy per Si atom -5569.135889 kJ/mol
# Density = 2.078092 g / cm^3
# Si number density = 20.828329 Si / 1000 Ang^3
#
#
#
# Elastic Constant Matrix: (Units=GPa)
#
#
# Indices 1 2 3 4 5 6 
#
# 1 108.8347 31.7887 32.6833 0.0000 0.0000 0.0000
# 2 31.7887 66.7799 16.3094 0.0000 0.0000 0.0000
# 3 32.6833 16.3094 92.2532 0.0000 0.0000 0.0000
# 4 0.0000 0.0000 0.0000 12.4795 0.0000 0.0000
# 5 0.0000 0.0000 0.0000 0.0000 21.7205 0.0000
# 6 0.0000 0.0000 0.0000 0.0000 0.0000 13.8508
#
#
#
# Elastic Compliance Matrix: (Units=1/GPa)
#
#
# Indices 1 2 3 4 5 6 
#
# 1 0.011538 -0.004697 -0.003257 0.000000 0.000000 0.000000
# 2 -0.004697 0.017562 -0.001441 0.000000 0.000000 0.000000
# 3 -0.003257 -0.001441 0.012248 0.000000 0.000000 0.000000
# 4 0.000000 0.000000 0.000000 0.080132 0.000000 0.000000
# 5 0.000000 0.000000 0.000000 0.000000 0.046039 0.000000
# 6 0.000000 0.000000 0.000000 0.000000 0.000000 0.072198
#
#
# Mechanical properties :
#
#
# Convention : Reuss Voigt Hill
#
# Bulk Modulus (GPa) = 44.32863 47.71451 46.02157
# Shear Modulus (GPa) = 18.79502 22.08259 20.43881
#
# Velocity S-wave (km/s) = 3.00722 3.25963 3.13597
# Velocity P-wave (km/s) = 5.77814 6.09304 5.93768
#
# Compressibility (1/GPa) = 0.02255878
#
# Stress axis : x y z
#
# Youngs Moduli (GPa) = 86.66747 56.94013 81.64280
#
# Poissons Ratio (x) = 0.26745 0.26594
# Poissons Ratio (y) = 0.40707 0.11763
# Poissons Ratio (z) = 0.28231 0.08204
#
# Static dielectric constant tensor:
#      x y z
#    x 1.747670 0.000000 0.000000 
#    y 0.000000 1.880020 0.000000 
#    z 0.000000 0.000000 1.754720 
# 
# From -- ./inp_files/37874.got.cif
#   From: 2010.05.17/outbox.cif.g08.bks.cpg/sg52_19_cif.got.tgz:37874.got - 2010.06.03 12:15:38.
