data_PCOD9411646
_publ_section_title
;
Structure prediction by ZEFSAII (Michael W. Deem and Ramdas Pophale) SiO2 
 PCOD9411646
Probable space group: P N N A
;
_chemical_formula_sum "Si O2"
_cell_formula_units_Z 20
_cell_length_a 5.442256
_cell_length_b 7.606504
_cell_length_c 20.308229
_cell_angle_alpha 90.000000
_cell_angle_beta 90.000000
_cell_angle_gamma 90.000000
_cell_volume 840.690455
_symmetry_space_group_name_H-M "P N N A"
_symmetry_group_IT_number 52
_symmetry_cell_setting 'orthorhombic'
loop_
_space_group_symop_operation_xyz
x,y,z
1/2-x,-y,z
x,1/2-y,1/2-z
1/2-x,1/2+y,1/2-z
-x,-y,-z
1/2+x,y,-z
-x,1/2+y,1/2+z
1/2+x,1/2-y,1/2+z
loop_
_atom_site_type_symbol
_atom_site_label
_atom_site_fract_x
_atom_site_fract_y
_atom_site_fract_z
Si Si1 0.499728 0.950240 0.228274
Si Si2 0.745726 0.710320 0.460847
Si Si3 0.250000 0.500000 0.851849
O O1 0.497508 0.750000 0.250000
O O2 0.533602 0.047078 0.299383
O O3 0.250000 0.000000 0.193547
O O4 0.750000 0.000000 0.192579
O O5 0.750000 0.500000 0.450890
O O6 0.513404 0.752788 0.508235
O O7 0.704539 0.832775 0.397350
#
# Coordination Sequence:
#
# PCOD9411646 Si02
#       3
#     8   8   4
#     4  10  23  41  61  89 123 163 211 260 311 365
#     4  10  22  39  61  93 126 155 199 253 305 372
#     4  10  24  38  68  88 120 168 204 248 314 372
#
# _framework density 23.789967999999998
#
# number of rings (size 3 to 8) (size 9 to 14) (size 15 to 20)
#    1.200    0.800    0.000    2.400    5.600    1.600 
#    0.000    0.000    0.000    0.000    0.000    0.000 
#    0.000    0.000    0.000    0.000    0.000    0.000 
#
# Total GULP energy -111632.014879 kJ/mol
# GULP energy per Si atom -5581.600744 kJ/mol
# Density = 2.373582 g / cm^3
# Si number density = 23.789968 Si / 1000 Ang^3
#
#
#
# Elastic Constant Matrix: (Units=GPa)
#
#
# Indices 1 2 3 4 5 6 
#
# 1 192.6835 15.1575 0.1700 0.0000 0.0000 0.0000
# 2 15.1575 62.6349 -10.4749 0.0000 0.0000 0.0000
# 3 0.1700 -10.4749 80.8566 0.0000 0.0000 0.0000
# 4 0.0000 0.0000 0.0000 35.3634 0.0000 0.0000
# 5 0.0000 0.0000 0.0000 0.0000 -6.8972 0.0000
# 6 0.0000 0.0000 0.0000 0.0000 0.0000 21.1285
#
#
#
# Elastic Compliance Matrix: (Units=1/GPa)
#
#
# Indices 1 2 3 4 5 6 
#
# 1 0.005293 -0.001311 -0.000181 0.000000 0.000000 0.000000
# 2 -0.001311 0.016644 0.002159 0.000000 0.000000 0.000000
# 3 -0.000181 0.002159 0.012648 0.000000 0.000000 0.000000
# 4 0.000000 0.000000 0.000000 0.028278 0.000000 0.000000
# 5 0.000000 0.000000 0.000000 0.000000 -0.144987 0.000000
# 6 0.000000 0.000000 0.000000 0.000000 0.000000 0.047329
#
#
# Mechanical properties :
#
#
# Convention : Reuss Voigt Hill
#
# Bulk Modulus (GPa) = 27.84101 38.43114 33.13608
# Shear Modulus (GPa) = -206.99170 32.00710 -87.49230
#
# Velocity S-wave (km/s) = -9.33793 3.67195 -6.07098
# Velocity P-wave (km/s) = 10.22420 5.84526 5.93158
#
# Compressibility (1/GPa) = 0.03591823
#
# Stress axis : x y z
#
# Youngs Moduli (GPa) = 188.92290 60.08205 79.06611
#
# Poissons Ratio (x) = 0.07878 0.01431
# Poissons Ratio (y) = 0.24772 -0.17070
# Poissons Ratio (z) = 0.03419 -0.12971
#
# Static dielectric constant tensor:
#      x y z
#    x 2.091600 0.000000 0.000000 
#    y 0.000000 1.828620 0.000000 
#    z 0.000000 0.000000 1.864950 
# 
# From -- ./inp_files/29844.got.cif
#   From: 2010.05.17/outbox.cif.g08.bks.cpg/sg52_15_cif.got.tgz:29844.got - 2010.06.03 12:15:38.
