data_PCOD9411557
_publ_section_title
;
Structure prediction by ZEFSAII (Michael W. Deem and Ramdas Pophale) SiO2 
 PCOD9411557
Probable space group: P N N A
;
_chemical_formula_sum "Si O2"
_cell_formula_units_Z 32
_cell_length_a 15.591786
_cell_length_b 5.270726
_cell_length_c 18.491780
_cell_angle_alpha 90.000000
_cell_angle_beta 90.000000
_cell_angle_gamma 90.000000
_cell_volume 1519.655069
_symmetry_space_group_name_H-M "P N N A"
_symmetry_group_IT_number 52
_symmetry_cell_setting 'orthorhombic'
loop_
_space_group_symop_operation_xyz
x,y,z
1/2-x,-y,z
x,1/2-y,1/2-z
1/2-x,1/2+y,1/2-z
-x,-y,-z
1/2+x,y,-z
-x,1/2+y,1/2+z
1/2+x,1/2-y,1/2+z
loop_
_atom_site_type_symbol
_atom_site_label
_atom_site_fract_x
_atom_site_fract_y
_atom_site_fract_z
Si Si1 0.515234 0.512106 0.378465
Si Si2 0.177021 0.674902 0.527845
Si Si3 0.250000 0.500000 0.847412
Si Si4 0.066160 0.988816 0.434072
Si Si5 0.107606 0.250000 0.750000
O O1 0.590304 0.537107 0.440984
O O2 0.459247 0.262597 0.391237
O O3 0.557275 0.449175 0.300944
O O4 0.455076 0.759815 0.388195
O O5 0.250000 0.500000 0.492943
O O6 0.219450 0.778149 0.600632
O O7 0.152456 0.909655 0.475890
O O8 0.169774 0.411411 0.801216
O O9 0.000000 0.000000 0.500000
#
# Coordination Sequence:
#
# PCOD9411557 Si02
#       5
#     8   8   4   8   4
#     4  11  23  39  56  85 120 176 209 261 320 393
#     4  11  22  37  58  88 122 167 217 276 331 384
#     4  12  24  36  56  94 128 168 208 270 334 390
#     4  10  22  38  59  79 121 165 217 262 318 385
#     4  12  22  38  58  84 134 170 222 264 330 426
#
# _framework density 21.057410000000001
#
# number of rings (size 3 to 8) (size 9 to 14) (size 15 to 20)
#    0.000    1.000    2.500    7.500    3.500    3.000 
#    0.000    0.000    0.000    0.000    0.000    0.000 
#    3.750    0.000    1.000    0.000    0.000    0.000 
#
# Total GULP energy -178655.367999 kJ/mol
# GULP energy per Si atom -5582.980250 kJ/mol
# Density = 2.100948 g / cm^3
# Si number density = 21.057410 Si / 1000 Ang^3
#
#
#
# Elastic Constant Matrix: (Units=GPa)
#
#
# Indices 1 2 3 4 5 6 
#
# 1 86.4684 55.7031 51.2149 0.0000 0.0000 0.0000
# 2 55.7031 177.0296 62.2520 0.0000 0.0000 0.0000
# 3 51.2149 62.2520 93.8601 0.0000 0.0000 0.0000
# 4 0.0000 0.0000 0.0000 21.5551 0.0000 0.0000
# 5 0.0000 0.0000 0.0000 0.0000 -287.5396 0.0000
# 6 0.0000 0.0000 0.0000 0.0000 0.0000 44.1893
#
#
#
# Elastic Compliance Matrix: (Units=1/GPa)
#
#
# Indices 1 2 3 4 5 6 
#
# 1 0.018168 -0.002909 -0.007984 0.000000 0.000000 0.000000
# 2 -0.002909 0.007833 -0.003608 0.000000 0.000000 0.000000
# 3 -0.007984 -0.003608 0.017403 0.000000 0.000000 0.000000
# 4 0.000000 0.000000 0.000000 0.046393 0.000000 0.000000
# 5 0.000000 0.000000 0.000000 0.000000 -0.003478 0.000000
# 6 0.000000 0.000000 0.000000 0.000000 0.000000 0.022630
#
#
# Mechanical properties :
#
#
# Convention : Reuss Voigt Hill
#
# Bulk Modulus (GPa) = 69.43166 77.29978 73.36572
# Shear Modulus (GPa) = 35.02612 -31.81315 1.60648
#
# Velocity S-wave (km/s) = 4.08286 -3.89109 0.87439
# Velocity P-wave (km/s) = 7.43441 4.07447 5.99465
#
# Compressibility (1/GPa) = 0.01440265
#
# Stress axis : x y z
#
# Youngs Moduli (GPa) = 55.04261 127.66904 57.46031
#
# Poissons Ratio (x) = 0.37140 0.45875
# Poissons Ratio (y) = 0.16012 0.20730
# Poissons Ratio (z) = 0.43945 0.46059
#
# Static dielectric constant tensor:
#      x y z
#    x 1.842160 0.000000 0.000000 
#    y 0.000000 1.836550 0.000000 
#    z 0.000000 0.000000 2.185110 
# 
# From -- ./inp_files/32619.got.cif
#   From: 2010.05.17/outbox.cif.g08.bks.cpg/sg52_17_cif.got.tgz:32619.got - 2010.06.03 12:15:38.
