data_PCOD9411827
_publ_section_title
;
Structure prediction by ZEFSAII (Michael W. Deem and Ramdas Pophale) SiO2 
 PCOD9411827
Probable space group: P N N A
;
_chemical_formula_sum "Si O2"
_cell_formula_units_Z 64
_cell_length_a 8.923373
_cell_length_b 12.212159
_cell_length_c 29.198953
_cell_angle_alpha 90.000000
_cell_angle_beta 90.000000
_cell_angle_gamma 90.000000
_cell_volume 3181.916481
_symmetry_space_group_name_H-M "P N N A"
_symmetry_group_IT_number 52
_symmetry_cell_setting 'orthorhombic'
loop_
_space_group_symop_operation_xyz
x,y,z
1/2-x,-y,z
x,1/2-y,1/2-z
1/2-x,1/2+y,1/2-z
-x,-y,-z
1/2+x,y,-z
-x,1/2+y,1/2+z
1/2+x,1/2-y,1/2+z
loop_
_atom_site_type_symbol
_atom_site_label
_atom_site_fract_x
_atom_site_fract_y
_atom_site_fract_z
Si Si1 0.970955 0.290071 0.300511
Si Si2 0.200493 0.375240 0.553230
Si Si3 0.416180 0.546683 0.828682
Si Si4 0.752025 0.628876 0.944672
Si Si5 0.146907 0.209554 0.846869
Si Si6 0.161460 0.104548 0.344541
Si Si7 0.474744 0.246522 0.991447
Si Si8 0.928308 0.528006 0.277776
O O1 0.923254 0.250000 0.250000
O O2 0.822105 0.280606 0.331515
O O3 0.009144 0.418759 0.296477
O O4 0.103633 0.208454 0.315948
O O5 0.250000 0.500000 0.551021
O O6 0.144042 0.345848 0.603799
O O7 0.345965 0.302134 0.540992
O O8 0.071542 0.346717 0.516788
O O9 0.250000 0.500000 0.828019
O O10 0.418484 0.668994 0.846936
O O11 0.510453 0.460455 0.857934
O O12 0.466391 0.547212 0.775251
O O13 0.750000 0.500000 0.954146
O O14 0.753842 0.642670 0.889854
O O15 0.904424 0.681432 0.964333
O O16 0.612597 0.685030 0.969771
O O17 0.061132 0.133793 0.809888
O O18 0.250000 0.000000 0.322963
O O19 0.750000 0.500000 0.279062
#
# Coordination Sequence:
#
# PCOD9411827 Si02
#       8
#     8   8   8   8   8   8   8   8
#     4  11  18  37  61  85 124 169 207 257 312 373
#     4  11  23  41  64  93 126 162 210 262 324 385
#     4  11  20  37  61  92 123 166 208 254 314 374
#     4  10  22  41  63  91 126 160 210 263 324 386
#     4  11  21  33  63  98 124 148 215 269 314 367
#     4  11  24  38  60  89 129 172 208 254 318 385
#     4  10  23  42  65  90 121 168 208 263 329 384
#     4   9  18  33  60  92 121 156 206 265 308 348
#
# _framework density 20.113662999999999
#
# number of rings (size 3 to 8) (size 9 to 14) (size 15 to 20)
#    0.000    1.500    2.500    4.500    3.500    0.000 
#    0.000    1.250    0.000    0.000    0.000    0.000 
#    0.000    0.000    0.000    0.000    0.000    0.000 
#
# Total GULP energy -357328.814551 kJ/mol
# GULP energy per Si atom -5583.262727 kJ/mol
# Density = 2.006788 g / cm^3
# Si number density = 20.113663 Si / 1000 Ang^3
#
#
#
# Elastic Constant Matrix: (Units=GPa)
#
#
# Indices 1 2 3 4 5 6 
#
# 1 56.2760 14.5284 11.8260 0.0000 0.0000 0.0000
# 2 14.5284 103.7320 1.5365 0.0000 0.0000 0.0000
# 3 11.8260 1.5365 42.3058 0.0000 0.0000 0.0000
# 4 0.0000 0.0000 0.0000 76.2248 0.0000 0.0000
# 5 0.0000 0.0000 0.0000 0.0000 16.9175 0.0000
# 6 0.0000 0.0000 0.0000 0.0000 0.0000 31.4682
#
#
#
# Elastic Compliance Matrix: (Units=1/GPa)
#
#
# Indices 1 2 3 4 5 6 
#
# 1 0.019588 -0.002664 -0.005379 0.000000 0.000000 0.000000
# 2 -0.002664 0.010008 0.000381 0.000000 0.000000 0.000000
# 3 -0.005379 0.000381 0.025127 0.000000 0.000000 0.000000
# 4 0.000000 0.000000 0.000000 0.013119 0.000000 0.000000
# 5 0.000000 0.000000 0.000000 0.000000 0.059110 0.000000
# 6 0.000000 0.000000 0.000000 0.000000 0.000000 0.031778
#
#
# Mechanical properties :
#
#
# Convention : Reuss Voigt Hill
#
# Bulk Modulus (GPa) = 25.38082 28.67727 27.02905
# Shear Modulus (GPa) = 26.71147 36.55030 31.63088
#
# Velocity S-wave (km/s) = 3.64816 4.26747 3.96991
# Velocity P-wave (km/s) = 5.51285 6.21050 5.87205
#
# Compressibility (1/GPa) = 0.03939983
#
# Stress axis : x y z
#
# Youngs Moduli (GPa) = 51.05284 99.92350 39.79761
#
# Poissons Ratio (x) = 0.26617 0.21406
# Poissons Ratio (y) = 0.13599 -0.01517
# Poissons Ratio (z) = 0.27460 -0.03809
#
# Static dielectric constant tensor:
#      x y z
#    x 1.740690 0.000000 0.000000 
#    y 0.000000 1.711530 0.000000 
#    z 0.000000 0.000000 1.698760 
# 
# From -- ./inp_files/44623.got.cif
#   From: 2010.05.17/outbox.cif.g08.bks.cpg/sg52_23_cif.got.tgz:44623.got - 2010.06.03 12:15:38.
