data_PCOD9411513
_publ_section_title
;
Structure prediction by ZEFSAII (Michael W. Deem and Ramdas Pophale) SiO2 
 PCOD9411513
Probable space group: P N N A
;
_chemical_formula_sum "Si O2"
_cell_formula_units_Z 40
_cell_length_a 27.250812
_cell_length_b 5.389487
_cell_length_c 13.053461
_cell_angle_alpha 90.000000
_cell_angle_beta 90.000000
_cell_angle_gamma 90.000000
_cell_volume 1917.134366
_symmetry_space_group_name_H-M "P N N A"
_symmetry_group_IT_number 52
_symmetry_cell_setting 'orthorhombic'
loop_
_space_group_symop_operation_xyz
x,y,z
1/2-x,-y,z
x,1/2-y,1/2-z
1/2-x,1/2+y,1/2-z
-x,-y,-z
1/2+x,y,-z
-x,1/2+y,1/2+z
1/2+x,1/2-y,1/2+z
loop_
_atom_site_type_symbol
_atom_site_label
_atom_site_fract_x
_atom_site_fract_y
_atom_site_fract_z
Si Si1 0.985880 0.868779 0.394783
Si Si2 0.856870 0.804959 0.566025
Si Si3 0.066083 0.750000 0.750000
Si Si4 0.382891 0.867285 0.862592
Si Si5 0.219084 0.250000 0.250000
Si Si6 0.407211 0.301947 0.365727
O O1 0.034107 0.714135 0.369201
O O2 0.935939 0.717944 0.405581
O O3 0.000000 0.000000 0.500000
O O4 0.969886 0.055191 0.304206
O O5 0.845420 0.722868 0.448864
O O6 0.813290 0.804185 0.648575
O O7 0.890483 0.574857 0.603362
O O8 0.883582 0.072856 0.570751
O O9 0.103541 0.650076 0.663258
O O10 0.374143 0.750000 0.750000
O O11 0.250000 0.500000 0.269158
O O12 0.390651 0.250000 0.250000
#
# Coordination Sequence:
#
# PCOD9411513 Si02
#       6
#     8   8   4   8   4   8
#     4  11  22  34  54  84 132 190 228 277 307 360
#     4  12  25  43  69  97 130 170 216 274 341 412
#     4  10  22  37  52  84 130 190 236 274 319 360
#     4  10  23  40  59  90 135 186 234 267 324 376
#     4  12  26  51  76 104 134 156 206 282 373 428
#     4  12  23  37  60  96 133 176 228 269 320 384
#
# _framework density 20.864474000000001
#
# number of rings (size 3 to 8) (size 9 to 14) (size 15 to 20)
#    0.000    0.800    4.000    4.200    8.400    1.600 
#    0.000    0.000    0.000    1.200    0.000    0.000 
#    0.000    0.000    0.000    0.000    0.000    0.000 
#
# Total GULP energy -223270.884976 kJ/mol
# GULP energy per Si atom -5581.772124 kJ/mol
# Density = 2.081699 g / cm^3
# Si number density = 20.864474 Si / 1000 Ang^3
#
#
#
# Elastic Constant Matrix: (Units=GPa)
#
#
# Indices 1 2 3 4 5 6 
#
# 1 55.7375 14.9869 20.0522 0.0000 0.0000 0.0000
# 2 14.9869 53.2527 -12.6990 0.0000 0.0000 0.0000
# 3 20.0522 -12.6990 120.9624 0.0000 0.0000 0.0000
# 4 0.0000 0.0000 0.0000 39.3498 0.0000 0.0000
# 5 0.0000 0.0000 0.0000 0.0000 13.8653 0.0000
# 6 0.0000 0.0000 0.0000 0.0000 0.0000 23.1930
#
#
#
# Elastic Compliance Matrix: (Units=1/GPa)
#
#
# Indices 1 2 3 4 5 6 
#
# 1 0.021374 -0.007036 -0.004282 0.000000 0.000000 0.000000
# 2 -0.007036 0.021577 0.003432 0.000000 0.000000 0.000000
# 3 -0.004282 0.003432 0.009337 0.000000 0.000000 0.000000
# 4 0.000000 0.000000 0.000000 0.025413 0.000000 0.000000
# 5 0.000000 0.000000 0.000000 0.000000 0.072122 0.000000
# 6 0.000000 0.000000 0.000000 0.000000 0.000000 0.043116
#
#
# Mechanical properties :
#
#
# Convention : Reuss Voigt Hill
#
# Bulk Modulus (GPa) = 27.38620 30.51475 28.95047
# Shear Modulus (GPa) = 22.63630 29.12245 25.87937
#
# Velocity S-wave (km/s) = 3.29739 3.74008 3.52569
# Velocity P-wave (km/s) = 5.25845 5.77130 5.52083
#
# Compressibility (1/GPa) = 0.03651474
#
# Stress axis : x y z
#
# Youngs Moduli (GPa) = 46.78659 46.34574 107.09957
#
# Poissons Ratio (x) = 0.32610 0.45858
# Poissons Ratio (y) = 0.32920 -0.36753
# Poissons Ratio (z) = 0.20033 -0.15904
#
# Static dielectric constant tensor:
#      x y z
#    x 1.711290 0.000000 0.000000 
#    y 0.000000 1.868400 0.000000 
#    z 0.000000 0.000000 1.877510 
# 
# From -- ./inp_files/22649.got.cif
#   From: 2010.05.17/outbox.cif.g08.bks.cpg/sg52_12_cif.got.tgz:22649.got - 2010.06.03 12:15:38.
