data_PCOD9411081
_publ_section_title
;
Structure prediction by ZEFSAII (Michael W. Deem and Ramdas Pophale) SiO2 
 PCOD9411081
Probable space group: P N N A
;
_chemical_formula_sum "Si O2"
_cell_formula_units_Z 64
_cell_length_a 12.465692
_cell_length_b 8.850784
_cell_length_c 28.260879
_cell_angle_alpha 90.000000
_cell_angle_beta 90.000000
_cell_angle_gamma 90.000000
_cell_volume 3118.055204
_symmetry_space_group_name_H-M "P N N A"
_symmetry_group_IT_number 52
_symmetry_cell_setting 'orthorhombic'
loop_
_space_group_symop_operation_xyz
x,y,z
1/2-x,-y,z
x,1/2-y,1/2-z
1/2-x,1/2+y,1/2-z
-x,-y,-z
1/2+x,y,-z
-x,1/2+y,1/2+z
1/2+x,1/2-y,1/2+z
loop_
_atom_site_type_symbol
_atom_site_label
_atom_site_fract_x
_atom_site_fract_y
_atom_site_fract_z
Si Si1 0.473103 0.565830 0.577886
Si Si2 0.357221 0.059487 0.643881
Si Si3 0.629347 0.459835 0.982368
Si Si4 0.583773 0.069450 0.256711
Si Si5 0.352996 0.899582 0.013854
Si Si6 0.150507 0.889854 0.284793
Si Si7 0.357273 0.415261 0.659632
Si Si8 0.437871 0.112613 0.390025
O O1 0.373733 0.581679 0.542200
O O2 0.556801 0.475570 0.546152
O O3 0.449212 0.476833 0.625601
O O4 0.512922 0.730795 0.592133
O O5 0.350308 0.236789 0.653472
O O6 0.250000 0.000000 0.618934
O O7 0.362809 0.975390 0.694304
O O8 0.465266 0.006460 0.618247
O O9 0.750000 0.500000 0.005218
O O10 0.638626 0.279389 0.977481
O O11 0.632141 0.545878 0.932241
O O12 0.500000 0.500000 0.000000
O O13 0.597815 0.250000 0.250000
O O14 0.457606 0.038756 0.263270
O O15 0.624332 0.971680 0.213001
O O16 0.250000 0.000000 0.025730
O O17 0.173441 0.750000 0.250000
O O18 0.120240 0.857040 0.339705
O O19 0.250000 0.000000 0.284397
O O20 0.250000 0.500000 0.643620
#
# Coordination Sequence:
#
# PCOD9411081 Si02
#       8
#     8   8   8   8   8   8   8   8
#     4  11  23  43  67  95 135 175 234 290 365 430
#     4  11  23  38  61  94 132 175 226 284 353 431
#     4  12  26  48  74 107 143 194 246 312 381 455
#     4  10  21  40  61  86 126 171 221 279 349 424
#     4  11  25  44  70  99 138 183 237 298 373 449
#     4  10  22  40  64  94 130 173 223 280 349 422
#     4  12  23  39  61  92 129 172 225 283 355 432
#     4  11  23  45  68 100 138 184 238 300 359 446
#
# _framework density 20.525614999999998
#
# number of rings (size 3 to 8) (size 9 to 14) (size 15 to 20)
#    0.000    1.000    1.250    6.750    1.750    2.500 
#    2.250    6.250    0.000    0.000    0.000    0.000 
#    0.000    0.000    0.000    0.000    0.000    0.000 
#
# Total GULP energy -357000.414593 kJ/mol
# GULP energy per Si atom -5578.131478 kJ/mol
# Density = 2.047890 g / cm^3
# Si number density = 20.525615 Si / 1000 Ang^3
#
#
#
# Elastic Constant Matrix: (Units=GPa)
#
#
# Indices 1 2 3 4 5 6 
#
# 1 101.7853 50.5757 21.5049 0.0000 0.0000 0.0000
# 2 50.5757 129.2444 11.1268 0.0000 0.0000 0.0000
# 3 21.5049 11.1268 85.2763 0.0000 0.0000 0.0000
# 4 0.0000 0.0000 0.0000 51.4668 0.0000 0.0000
# 5 0.0000 0.0000 0.0000 0.0000 115.9663 0.0000
# 6 0.0000 0.0000 0.0000 0.0000 0.0000 29.5754
#
#
#
# Elastic Compliance Matrix: (Units=1/GPa)
#
#
# Indices 1 2 3 4 5 6 
#
# 1 0.012738 -0.004762 -0.002591 0.000000 0.000000 0.000000
# 2 -0.004762 0.009605 -0.000053 0.000000 0.000000 0.000000
# 3 -0.002591 -0.000053 0.012387 0.000000 0.000000 0.000000
# 4 0.000000 0.000000 0.000000 0.019430 0.000000 0.000000
# 5 0.000000 0.000000 0.000000 0.000000 0.008623 0.000000
# 6 0.000000 0.000000 0.000000 0.000000 0.000000 0.033812
#
#
# Mechanical properties :
#
#
# Convention : Reuss Voigt Hill
#
# Bulk Modulus (GPa) = 50.20119 53.63565 51.91842
# Shear Modulus (GPa) = 42.35676 54.94160 48.64918
#
# Velocity S-wave (km/s) = 4.54762 5.17933 4.87372
# Velocity P-wave (km/s) = 7.21702 7.87115 7.55117
#
# Compressibility (1/GPa) = 0.01991984
#
# Stress axis : x y z
#
# Youngs Moduli (GPa) = 78.50554 104.11162 80.73097
#
# Poissons Ratio (x) = 0.49573 0.20917
# Poissons Ratio (y) = 0.37381 0.00424
# Poissons Ratio (z) = 0.20340 0.00547
#
# Static dielectric constant tensor:
#      x y z
#    x 1.844620 0.000000 0.000000 
#    y 0.000000 1.687180 0.000000 
#    z 0.000000 0.000000 1.728710 
# 
# From -- ./inp_files/44860.got.cif
#   From: 2010.05.17/outbox.cif.g08.bks.cpg/sg52_23_cif.got.tgz:44860.got - 2010.06.03 12:15:38.
