data_PCOD9411770
_publ_section_title
;
Structure prediction by ZEFSAII (Michael W. Deem and Ramdas Pophale) SiO2 
 PCOD9411770
Probable space group: P N N A
;
_chemical_formula_sum "Si O2"
_cell_formula_units_Z 36
_cell_length_a 8.741094
_cell_length_b 8.381131
_cell_length_c 21.564663
_cell_angle_alpha 90.000000
_cell_angle_beta 90.000000
_cell_angle_gamma 90.000000
_cell_volume 1579.832687
_symmetry_space_group_name_H-M "P N N A"
_symmetry_group_IT_number 52
_symmetry_cell_setting 'orthorhombic'
loop_
_space_group_symop_operation_xyz
x,y,z
1/2-x,-y,z
x,1/2-y,1/2-z
1/2-x,1/2+y,1/2-z
-x,-y,-z
1/2+x,y,-z
-x,1/2+y,1/2+z
1/2+x,1/2-y,1/2+z
loop_
_atom_site_type_symbol
_atom_site_label
_atom_site_fract_x
_atom_site_fract_y
_atom_site_fract_z
Si Si1 0.691791 0.250000 0.250000
Si Si2 0.313644 0.681898 0.414923
Si Si3 0.622473 0.114440 0.467640
Si Si4 0.392097 0.420322 0.644910
Si Si5 0.468514 0.252253 0.152531
O O1 0.805827 0.335312 0.298424
O O2 0.570660 0.341181 0.204123
O O3 0.250000 0.500000 0.421993
O O4 0.303486 0.775698 0.479264
O O5 0.491426 0.681869 0.395169
O O6 0.211377 0.765653 0.361011
O O7 0.541688 0.212535 0.414027
O O8 0.750000 0.000000 0.438867
O O9 0.500000 0.000000 0.500000
O O10 0.250000 0.500000 0.607996
O O11 0.496455 0.567162 0.667723
#
# Coordination Sequence:
#
# PCOD9411770 Si02
#       5
#     4   8   8   8   8
#     4  10  22  40  66  98 132 178 238 290 346 424
#     4  10  23  45  70  99 139 188 236 293 363 439
#     4  12  26  44  68 107 144 183 238 306 370 428
#     4   9  21  40  67  99 131 179 235 281 348 424
#     4  10  23  43  66  96 143 179 237 287 359 439
#
# _framework density 22.787223999999998
#
# number of rings (size 3 to 8) (size 9 to 14) (size 15 to 20)
#    0.000    1.778    2.222    0.000    6.222    9.778 
#    0.000    0.000    0.000    0.000    0.000    0.000 
#    0.000    0.000    0.000    0.000    0.000    0.000 
#
# Total GULP energy -200687.607424 kJ/mol
# GULP energy per Si atom -5574.655762 kJ/mol
# Density = 2.273536 g / cm^3
# Si number density = 22.787224 Si / 1000 Ang^3
#
#
#
# Elastic Constant Matrix: (Units=GPa)
#
#
# Indices 1 2 3 4 5 6 
#
# 1 144.8160 20.2768 44.8655 0.0000 0.0000 0.0000
# 2 20.2768 48.9064 29.6917 0.0000 0.0000 0.0000
# 3 44.8655 29.6917 107.9843 0.0000 0.0000 0.0000
# 4 0.0000 0.0000 0.0000 28.0212 0.0000 0.0000
# 5 0.0000 0.0000 0.0000 0.0000 34.1297 0.0000
# 6 0.0000 0.0000 0.0000 0.0000 0.0000 31.5019
#
#
#
# Elastic Compliance Matrix: (Units=1/GPa)
#
#
# Indices 1 2 3 4 5 6 
#
# 1 0.008024 -0.001564 -0.002904 0.000000 0.000000 0.000000
# 2 -0.001564 0.024849 -0.006183 0.000000 0.000000 0.000000
# 3 -0.002904 -0.006183 0.012167 0.000000 0.000000 0.000000
# 4 0.000000 0.000000 0.000000 0.035687 0.000000 0.000000
# 5 0.000000 0.000000 0.000000 0.000000 0.029300 0.000000
# 6 0.000000 0.000000 0.000000 0.000000 0.000000 0.031744
#
#
# Mechanical properties :
#
#
# Convention : Reuss Voigt Hill
#
# Bulk Modulus (GPa) = 42.12421 54.59720 48.36071
# Shear Modulus (GPa) = 29.24219 32.52207 30.88213
#
# Velocity S-wave (km/s) = 3.58616 3.78194 3.68535
# Velocity P-wave (km/s) = 5.97273 6.56371 6.27518
#
# Compressibility (1/GPa) = 0.02373932
#
# Stress axis : x y z
#
# Youngs Moduli (GPa) = 124.62757 40.24263 82.18858
#
# Poissons Ratio (x) = 0.06293 0.23866
# Poissons Ratio (y) = 0.19490 0.50816
# Poissons Ratio (z) = 0.36189 0.24882
#
# Static dielectric constant tensor:
#      x y z
#    x 1.904650 0.000000 0.000000 
#    y 0.000000 1.958640 0.000000 
#    z 0.000000 0.000000 1.846950 
# 
# From -- ./inp_files/35558.got.cif
#   From: 2010.05.17/outbox.cif.g08.bks.cpg/sg52_18_cif.got.tgz:35558.got - 2010.06.03 12:15:38.
