data_PCOD9411184
_publ_section_title
;
Structure prediction by ZEFSAII (Michael W. Deem and Ramdas Pophale) SiO2 
 PCOD9411184
Probable space group: P N N A
;
_chemical_formula_sum "Si O2"
_cell_formula_units_Z 36
_cell_length_a 8.739703
_cell_length_b 8.559958
_cell_length_c 20.623174
_cell_angle_alpha 90.000000
_cell_angle_beta 90.000000
_cell_angle_gamma 90.000000
_cell_volume 1542.850388
_symmetry_space_group_name_H-M "P N N A"
_symmetry_group_IT_number 52
_symmetry_cell_setting 'orthorhombic'
loop_
_space_group_symop_operation_xyz
x,y,z
1/2-x,-y,z
x,1/2-y,1/2-z
1/2-x,1/2+y,1/2-z
-x,-y,-z
1/2+x,y,-z
-x,1/2+y,1/2+z
1/2+x,1/2-y,1/2+z
loop_
_atom_site_type_symbol
_atom_site_label
_atom_site_fract_x
_atom_site_fract_y
_atom_site_fract_z
Si Si1 0.308649 0.669110 0.640627
Si Si2 0.750000 0.500000 0.812706
Si Si3 0.167893 0.336545 0.487572
Si Si4 0.750000 0.000000 0.482051
Si Si5 0.544186 0.750000 0.750000
Si Si6 0.020765 0.846852 0.605225
O O1 0.250000 0.500000 0.660973
O O2 0.358980 0.657400 0.564991
O O3 0.441835 0.721970 0.687149
O O4 0.164812 0.786137 0.645985
O O5 0.651589 0.607696 0.766587
O O6 0.625076 0.405318 0.855336
O O7 0.250000 0.500000 0.469666
O O8 0.024044 0.300216 0.441360
O O9 0.249714 0.165307 0.480986
O O10 0.902733 0.015700 0.438054
#
# Coordination Sequence:
#
# PCOD9411184 Si02
#       6
#     8   4   8   4   4   8
#     4  10  26  46  76 105 151 203 246 305 370 462
#     4  12  29  48  76 112 146 198 249 330 368 436
#     4  10  22  42  73 116 152 190 244 310 381 448
#     4  10  21  40  68 104 156 202 233 296 374 472
#     4  12  30  48  74 104 148 196 266 304 376 452
#     4  11  24  45  77 109 149 194 249 311 389 445
#
# _framework density 23.333438000000001
#
# number of rings (size 3 to 8) (size 9 to 14) (size 15 to 20)
#    0.000    1.333    0.000    4.000    6.222   15.111 
#    0.000    0.000    2.444    0.000    0.000    0.000 
#    0.000    0.000    0.000    0.000    0.000    0.000 
#
# Total GULP energy -201287.007625 kJ/mol
# GULP energy per Si atom -5591.305767 kJ/mol
# Density = 2.328033 g / cm^3
# Si number density = 23.333438 Si / 1000 Ang^3
#
#
#
# Elastic Constant Matrix: (Units=GPa)
#
#
# Indices 1 2 3 4 5 6 
#
# 1 163.6191 74.0859 74.2321 0.0000 0.0000 0.0000
# 2 74.0859 168.2661 32.5304 0.0000 0.0000 0.0000
# 3 74.2321 32.5304 75.2280 0.0000 0.0000 0.0000
# 4 0.0000 0.0000 0.0000 29.7786 0.0000 0.0000
# 5 0.0000 0.0000 0.0000 0.0000 101.3363 0.0000
# 6 0.0000 0.0000 0.0000 0.0000 0.0000 -231.3441
#
#
#
# Elastic Compliance Matrix: (Units=1/GPa)
#
#
# Indices 1 2 3 4 5 6 
#
# 1 0.012668 -0.003449 -0.011009 0.000000 0.000000 0.000000
# 2 -0.003449 0.007424 0.000193 0.000000 0.000000 0.000000
# 3 -0.011009 0.000193 0.024073 0.000000 0.000000 0.000000
# 4 0.000000 0.000000 0.000000 0.033581 0.000000 0.000000
# 5 0.000000 0.000000 0.000000 0.000000 0.009868 0.000000
# 6 0.000000 0.000000 0.000000 0.000000 0.000000 -0.004323
#
#
# Mechanical properties :
#
#
# Convention : Reuss Voigt Hill
#
# Bulk Modulus (GPa) = 63.95905 85.42335 74.69120
# Shear Modulus (GPa) = 42.72270 -4.96153 18.88059
#
# Velocity S-wave (km/s) = 4.28362 -1.45979 2.84767
# Velocity P-wave (km/s) = 7.20668 5.81791 6.54921
#
# Compressibility (1/GPa) = 0.01563500
#
# Stress axis : x y z
#
# Youngs Moduli (GPa) = 78.93745 134.69224 41.54101
#
# Poissons Ratio (x) = 0.46460 0.45732
# Poissons Ratio (y) = 0.27228 -0.00803
# Poissons Ratio (z) = 0.86902 -0.02603
#
# Static dielectric constant tensor:
#      x y z
#    x 2.124320 0.000000 0.000000 
#    y 0.000000 1.904080 0.000000 
#    z 0.000000 0.000000 1.918570 
# 
# From -- ./inp_files/35623.got.cif
#   From: 2010.05.17/outbox.cif.g08.bks.cpg/sg52_18_cif.got.tgz:35623.got - 2010.06.03 12:15:38.
