data_PCOD9411018
_publ_section_title
;
Structure prediction by ZEFSAII (Michael W. Deem and Ramdas Pophale) SiO2 
 PCOD9411018
Probable space group: P N N A
;
_chemical_formula_sum "Si O2"
_cell_formula_units_Z 48
_cell_length_a 14.656219
_cell_length_b 8.717989
_cell_length_c 17.422907
_cell_angle_alpha 90.000000
_cell_angle_beta 90.000000
_cell_angle_gamma 90.000000
_cell_volume 2226.172845
_symmetry_space_group_name_H-M "P N N A"
_symmetry_group_IT_number 52
_symmetry_cell_setting 'orthorhombic'
loop_
_space_group_symop_operation_xyz
x,y,z
1/2-x,-y,z
x,1/2-y,1/2-z
1/2-x,1/2+y,1/2-z
-x,-y,-z
1/2+x,y,-z
-x,1/2+y,1/2+z
1/2+x,1/2-y,1/2+z
loop_
_atom_site_type_symbol
_atom_site_label
_atom_site_fract_x
_atom_site_fract_y
_atom_site_fract_z
Si Si1 0.649417 0.060989 0.539233
Si Si2 0.484007 0.342739 0.670015
Si Si3 0.676838 0.361355 0.179098
Si Si4 0.845790 0.913797 0.917743
Si Si5 0.648923 0.061600 0.087280
Si Si6 0.974643 0.483665 0.107852
O O1 0.667156 0.232805 0.568165
O O2 0.582021 0.980015 0.601598
O O3 0.750000 0.000000 0.524615
O O4 0.584678 0.037676 0.465122
O O5 0.483021 0.250000 0.750000
O O6 0.580279 0.422551 0.649847
O O7 0.407912 0.467795 0.649898
O O8 0.468711 0.200789 0.610908
O O9 0.750000 0.500000 0.170621
O O10 0.700055 0.250000 0.250000
O O11 0.664989 0.237053 0.111395
O O12 0.577895 0.442814 0.179807
O O13 0.750000 0.000000 0.904535
O O14 0.887085 0.963999 0.000737
O O15 0.750000 0.000000 0.085537
#
# Coordination Sequence:
#
# PCOD9411018 Si02
#       6
#     8   8   8   8   8   8
#     4  10  21  39  65  94 126 168 220 280 335 391
#     4  11  24  44  65  94 137 182 221 279 339 408
#     4  12  24  39  61  97 140 178 218 267 337 417
#     4  10  23  41  67 101 129 174 231 285 335 389
#     4  11  23  38  63  99 132 174 224 275 339 396
#     4  10  22  39  62  92 128 174 218 268 332 399
#
# _framework density 21.561668000000001
#
# number of rings (size 3 to 8) (size 9 to 14) (size 15 to 20)
#    0.000    1.333    1.667    3.500    4.667    2.667 
#    0.000    4.167    0.000    2.000    0.000    0.000 
#    0.000    0.000    0.000    0.000    0.000    0.000 
#
# Total GULP energy -267483.358298 kJ/mol
# GULP energy per Si atom -5572.569965 kJ/mol
# Density = 2.151259 g / cm^3
# Si number density = 21.561668 Si / 1000 Ang^3
#
#
#
# Elastic Constant Matrix: (Units=GPa)
#
#
# Indices 1 2 3 4 5 6 
#
# 1 126.8401 50.2472 28.3486 0.0000 0.0000 0.0000
# 2 50.2472 95.7498 16.2152 0.0000 0.0000 0.0000
# 3 28.3486 16.2152 57.1292 0.0000 0.0000 0.0000
# 4 0.0000 0.0000 0.0000 27.4679 0.0000 0.0000
# 5 0.0000 0.0000 0.0000 0.0000 56.8477 0.0000
# 6 0.0000 0.0000 0.0000 0.0000 0.0000 30.0849
#
#
#
# Elastic Compliance Matrix: (Units=1/GPa)
#
#
# Indices 1 2 3 4 5 6 
#
# 1 0.010726 -0.004966 -0.003913 0.000000 0.000000 0.000000
# 2 -0.004966 0.013270 -0.001302 0.000000 0.000000 0.000000
# 3 -0.003913 -0.001302 0.019815 0.000000 0.000000 0.000000
# 4 0.000000 0.000000 0.000000 0.036406 0.000000 0.000000
# 5 0.000000 0.000000 0.000000 0.000000 0.017591 0.000000
# 6 0.000000 0.000000 0.000000 0.000000 0.000000 0.033239
#
#
# Mechanical properties :
#
#
# Convention : Reuss Voigt Hill
#
# Bulk Modulus (GPa) = 42.64518 52.14902 47.39710
# Shear Modulus (GPa) = 31.40179 35.20730 33.30454
#
# Velocity S-wave (km/s) = 3.82038 4.04526 3.93443
# Velocity P-wave (km/s) = 6.26750 6.78655 6.53219
#
# Compressibility (1/GPa) = 0.02344931
#
# Stress axis : x y z
#
# Youngs Moduli (GPa) = 93.23411 75.35535 50.46569
#
# Poissons Ratio (x) = 0.37421 0.19746
# Poissons Ratio (y) = 0.46300 0.06573
# Poissons Ratio (z) = 0.36480 0.09814
#
# Static dielectric constant tensor:
#      x y z
#    x 1.811300 0.000000 0.000000 
#    y 0.000000 2.153840 0.000000 
#    z 0.000000 0.000000 1.985610 
# 
# From -- ./inp_files/33063.got.cif
#   From: 2010.05.17/outbox.cif.g08.bks.cpg/sg52_17_cif.got.tgz:33063.got - 2010.06.03 12:15:38.
