data_PCOD9411619
_publ_section_title
;
Structure prediction by ZEFSAII (Michael W. Deem and Ramdas Pophale) SiO2 
 PCOD9411619
Probable space group: P N N A
;
_chemical_formula_sum "Si O2"
_cell_formula_units_Z 40
_cell_length_a 24.896091
_cell_length_b 10.709156
_cell_length_c 6.859957
_cell_angle_alpha 90.000000
_cell_angle_beta 90.000000
_cell_angle_gamma 90.000000
_cell_volume 1828.975135
_symmetry_space_group_name_H-M "P N N A"
_symmetry_group_IT_number 52
_symmetry_cell_setting 'orthorhombic'
loop_
_space_group_symop_operation_xyz
x,y,z
1/2-x,-y,z
x,1/2-y,1/2-z
1/2-x,1/2+y,1/2-z
-x,-y,-z
1/2+x,y,-z
-x,1/2+y,1/2+z
1/2+x,1/2-y,1/2+z
loop_
_atom_site_type_symbol
_atom_site_label
_atom_site_fract_x
_atom_site_fract_y
_atom_site_fract_z
Si Si1 0.250000 0.500000 0.085103
Si Si2 0.843623 0.391309 0.185080
Si Si3 0.972093 0.881913 0.258370
Si Si4 0.698104 0.250000 0.750000
Si Si5 0.373754 0.582841 0.482209
Si Si6 0.923077 0.499978 0.903547
O O1 0.268326 0.624380 0.202628
O O2 0.202084 0.549588 0.949161
O O3 0.833279 0.250000 0.250000
O O4 0.848164 0.482199 0.371874
O O5 0.898371 0.398342 0.053470
O O6 0.000650 0.750000 0.250000
O O7 0.932499 0.896721 0.077568
O O8 0.019804 0.976544 0.300168
O O9 0.933991 0.887192 0.448120
O O10 0.661342 0.293998 0.565228
O O11 0.382295 0.525097 0.268775
#
# Coordination Sequence:
#
# PCOD9411619 Si02
#       6
#     4   8   8   4   8   8
#     4  12  30  50  78 112 142 196 256 310 374 448
#     4  11  28  46  73 105 150 188 249 310 372 437
#     4  10  22  38  71 101 146 187 240 296 365 445
#     4  12  28  50  82 106 148 196 252 308 380 438
#     4  11  24  45  74 103 144 195 235 311 367 445
#     4  10  22  46  64 109 139 190 243 294 369 442
#
# _framework density 21.870170999999999
#
# number of rings (size 3 to 8) (size 9 to 14) (size 15 to 20)
#    0.000    1.200    2.000    1.800   11.200    0.000 
#    0.000    0.000    0.000    0.000    0.000    0.000 
#    0.000    0.000    0.000    0.000    0.000    0.000 
#
# Total GULP energy -223067.370466 kJ/mol
# GULP energy per Si atom -5576.684262 kJ/mol
# Density = 2.182039 g / cm^3
# Si number density = 21.870171 Si / 1000 Ang^3
#
#
#
# Elastic Constant Matrix: (Units=GPa)
#
#
# Indices 1 2 3 4 5 6 
#
# 1 81.8334 41.8038 46.0700 0.0000 0.0000 0.0000
# 2 41.8038 128.9142 53.5985 0.0000 0.0000 0.0000
# 3 46.0700 53.5985 122.3180 0.0000 0.0000 0.0000
# 4 0.0000 0.0000 0.0000 17.4547 0.0000 0.0000
# 5 0.0000 0.0000 0.0000 0.0000 30.5037 0.0000
# 6 0.0000 0.0000 0.0000 0.0000 0.0000 26.5121
#
#
#
# Elastic Compliance Matrix: (Units=1/GPa)
#
#
# Indices 1 2 3 4 5 6 
#
# 1 0.016653 -0.003414 -0.004776 0.000000 0.000000 0.000000
# 2 -0.003414 0.010185 -0.003177 0.000000 0.000000 0.000000
# 3 -0.004776 -0.003177 0.011366 0.000000 0.000000 0.000000
# 4 0.000000 0.000000 0.000000 0.057291 0.000000 0.000000
# 5 0.000000 0.000000 0.000000 0.000000 0.032783 0.000000
# 6 0.000000 0.000000 0.000000 0.000000 0.000000 0.037719
#
#
# Mechanical properties :
#
#
# Convention : Reuss Voigt Hill
#
# Bulk Modulus (GPa) = 64.64294 68.44556 66.54425
# Shear Modulus (GPa) = 25.78799 27.66699 26.72749
#
# Velocity S-wave (km/s) = 3.43759 3.56062 3.49964
# Velocity P-wave (km/s) = 6.73630 6.94754 6.84273
#
# Compressibility (1/GPa) = 0.01546959
#
# Stress axis : x y z
#
# Youngs Moduli (GPa) = 60.04938 98.18131 87.97854
#
# Poissons Ratio (x) = 0.33523 0.42019
# Poissons Ratio (y) = 0.20504 0.27951
# Poissons Ratio (z) = 0.28680 0.31193
#
# Static dielectric constant tensor:
#      x y z
#    x 1.852810 0.000000 0.000000 
#    y 0.000000 1.834920 0.000000 
#    z 0.000000 0.000000 1.790220 
# 
# From -- ./inp_files/5642.got.cif
#   From: 2010.05.17/outbox.cif.g08.bks.cpg/sg52_3_cif.got.tgz:5642.got - 2010.06.03 12:15:38.
