data_PCOD9411144
_publ_section_title
;
Structure prediction by ZEFSAII (Michael W. Deem and Ramdas Pophale) SiO2 
 PCOD9411144
Probable space group: P N N A
;
_chemical_formula_sum "Si O2"
_cell_formula_units_Z 56
_cell_length_a 14.414524
_cell_length_b 11.767818
_cell_length_c 15.182493
_cell_angle_alpha 90.000000
_cell_angle_beta 90.000000
_cell_angle_gamma 90.000000
_cell_volume 2575.368255
_symmetry_space_group_name_H-M "P N N A"
_symmetry_group_IT_number 52
_symmetry_cell_setting 'orthorhombic'
loop_
_space_group_symop_operation_xyz
x,y,z
1/2-x,-y,z
x,1/2-y,1/2-z
1/2-x,1/2+y,1/2-z
-x,-y,-z
1/2+x,y,-z
-x,1/2+y,1/2+z
1/2+x,1/2-y,1/2+z
loop_
_atom_site_type_symbol
_atom_site_label
_atom_site_fract_x
_atom_site_fract_y
_atom_site_fract_z
Si Si1 0.853658 0.872403 0.518600
Si Si2 0.334958 0.708971 0.649011
Si Si3 0.856934 0.363384 0.973466
Si Si4 0.555016 0.286132 0.653692
Si Si5 0.640862 0.991888 0.932570
Si Si6 0.961111 0.202119 0.846668
Si Si7 0.636043 0.653476 0.399412
O O1 0.843878 0.808673 0.424554
O O2 0.750077 0.858003 0.560674
O O3 0.927794 0.816613 0.584799
O O4 0.873778 0.005278 0.506004
O O5 0.329137 0.750000 0.750000
O O6 0.435899 0.652596 0.637103
O O7 0.241529 0.637377 0.632546
O O8 0.931142 0.307102 0.908304
O O9 0.859253 0.277842 0.055303
O O10 0.590861 0.250000 0.750000
O O11 0.604856 0.388548 0.601762
O O12 0.449685 0.331925 0.666068
O O13 0.611523 0.897013 0.862676
O O14 0.750000 0.000000 0.940481
O O15 0.608747 0.937537 0.025460
O O16 0.959353 0.250000 0.750000
#
# Coordination Sequence:
#
# PCOD9411144 Si02
#       7
#     8   8   8   8   8   8   8
#     4  10  21  40  65  93 133 166 218 269 334 390
#     4  10  21  41  68  96 132 177 224 278 332 400
#     4   9  20  38  66  93 120 173 210 271 334 385
#     4  12  26  41  63 100 134 177 221 269 328 403
#     4  11  24  42  67  96 130 179 221 270 339 400
#     4  10  22  39  63  96 132 170 222 269 331 400
#     4  10  22  43  67  91 132 171 222 279 331 392
#
# _framework density 21.744464000000001
#
# number of rings (size 3 to 8) (size 9 to 14) (size 15 to 20)
#    0.000    1.714    0.000    5.143    2.000    5.714 
#    2.571    0.000   25.143    0.000    0.000    0.000 
#    0.000    0.000    0.000    0.000    0.000    0.000 
#
# Total GULP energy -312525.026720 kJ/mol
# GULP energy per Si atom -5580.804049 kJ/mol
# Density = 2.169497 g / cm^3
# Si number density = 21.744464 Si / 1000 Ang^3
#
#
#
# Elastic Constant Matrix: (Units=GPa)
#
#
# Indices 1 2 3 4 5 6 
#
# 1 75.1925 3.7333 24.7979 0.0000 0.0000 0.0000
# 2 3.7333 110.2265 37.4100 0.0000 0.0000 0.0000
# 3 24.7979 37.4100 79.8721 0.0000 0.0000 0.0000
# 4 0.0000 0.0000 0.0000 16.5863 0.0000 0.0000
# 5 0.0000 0.0000 0.0000 0.0000 25.4945 0.0000
# 6 0.0000 0.0000 0.0000 0.0000 0.0000 88.1980
#
#
#
# Elastic Compliance Matrix: (Units=1/GPa)
#
#
# Indices 1 2 3 4 5 6 
#
# 1 0.014965 0.001272 -0.005242 0.000000 0.000000 0.000000
# 2 0.001272 0.010895 -0.005498 0.000000 0.000000 0.000000
# 3 -0.005242 -0.005498 0.016723 0.000000 0.000000 0.000000
# 4 0.000000 0.000000 0.000000 0.060291 0.000000 0.000000
# 5 0.000000 0.000000 0.000000 0.000000 0.039224 0.000000
# 6 0.000000 0.000000 0.000000 0.000000 0.000000 0.011338
#
#
# Mechanical properties :
#
#
# Convention : Reuss Voigt Hill
#
# Bulk Modulus (GPa) = 42.28859 44.13040 43.20949
# Shear Modulus (GPa) = 27.73873 39.34575 33.54224
#
# Velocity S-wave (km/s) = 3.57552 4.25839 3.93181
# Velocity P-wave (km/s) = 6.04450 6.67215 6.36607
#
# Compressibility (1/GPa) = 0.02364704
#
# Stress axis : x y z
#
# Youngs Moduli (GPa) = 66.82349 91.78428 59.79927
#
# Poissons Ratio (x) = -0.11677 0.31347
# Poissons Ratio (y) = -0.08502 0.32878
# Poissons Ratio (z) = 0.35029 0.50463
#
# Static dielectric constant tensor:
#      x y z
#    x 1.888520 0.000000 0.000000 
#    y 0.000000 1.824700 0.000000 
#    z 0.000000 0.000000 1.786320 
# 
# From -- ./inp_files/27262.got.cif
#   From: 2010.05.17/outbox.cif.g08.bks.cpg/sg52_14_cif.got.tgz:27262.got - 2010.06.03 12:15:38.
