data_PCOD9411915
_publ_section_title
;
Structure prediction by ZEFSAII (Michael W. Deem and Ramdas Pophale) SiO2 
 PCOD9411915
Probable space group: P N N A
;
_chemical_formula_sum "Si O2"
_cell_formula_units_Z 48
_cell_length_a 12.813229
_cell_length_b 26.737729
_cell_length_c 6.460499
_cell_angle_alpha 90.000000
_cell_angle_beta 90.000000
_cell_angle_gamma 90.000000
_cell_volume 2213.345280
_symmetry_space_group_name_H-M "P N N A"
_symmetry_group_IT_number 52
_symmetry_cell_setting 'orthorhombic'
loop_
_space_group_symop_operation_xyz
x,y,z
1/2-x,-y,z
x,1/2-y,1/2-z
1/2-x,1/2+y,1/2-z
-x,-y,-z
1/2+x,y,-z
-x,1/2+y,1/2+z
1/2+x,1/2-y,1/2+z
loop_
_atom_site_type_symbol
_atom_site_label
_atom_site_fract_x
_atom_site_fract_y
_atom_site_fract_z
Si Si1 0.841174 0.969220 0.982392
Si Si2 0.514558 0.857319 0.409792
Si Si3 0.809558 0.296839 0.901884
Si Si4 0.682948 0.142306 0.897949
Si Si5 0.042726 0.968705 0.691254
Si Si6 0.620041 0.302096 0.207915
O O1 0.804877 0.912285 0.996719
O O2 0.946306 0.966026 0.850395
O O3 0.750000 0.000000 0.870353
O O4 0.868251 0.000317 0.189453
O O5 0.601357 0.814284 0.437235
O O6 0.426250 0.852770 0.231060
O O7 0.565377 0.911870 0.380008
O O8 0.449848 0.847524 0.621685
O O9 0.828748 0.250000 0.750000
O O10 0.778179 0.343272 0.752088
O O11 0.705523 0.289011 0.035745
O O12 0.675243 0.180273 0.085508
O O13 0.000000 0.000000 0.500000
O O14 0.560748 0.250000 0.250000
#
# Coordination Sequence:
#
# PCOD9411915 Si02
#       6
#     8   8   8   8   8   8
#     4  10  23  40  65  95 127 170 212 263 326 376
#     4  10  24  40  65  93 129 170 214 267 328 384
#     4  11  23  42  63 101 127 168 225 265 324 396
#     4  10  23  43  64  93 134 169 215 270 324 386
#     4  10  22  42  62  94 129 163 218 265 312 395
#     4  11  22  42  65  91 132 171 209 271 323 386
#
# _framework density 21.686631999999999
#
# number of rings (size 3 to 8) (size 9 to 14) (size 15 to 20)
#    0.000    1.667    1.667    1.500    4.667    2.000 
#    3.000    0.000    0.000    0.000    0.000    0.000 
#    0.000    0.000    0.000    0.000    0.000    0.000 
#
# Total GULP energy -267714.278597 kJ/mol
# GULP energy per Si atom -5577.380804 kJ/mol
# Density = 2.163727 g / cm^3
# Si number density = 21.686632 Si / 1000 Ang^3
#
#
#
# Elastic Constant Matrix: (Units=GPa)
#
#
# Indices 1 2 3 4 5 6 
#
# 1 64.9841 28.2620 0.3005 0.0000 0.0000 0.0000
# 2 28.2620 154.6217 38.4161 0.0000 0.0000 0.0000
# 3 0.3005 38.4161 64.0735 0.0000 0.0000 0.0000
# 4 0.0000 0.0000 0.0000 34.1464 0.0000 0.0000
# 5 0.0000 0.0000 0.0000 0.0000 -4.3048 0.0000
# 6 0.0000 0.0000 0.0000 0.0000 0.0000 20.6948
#
#
#
# Elastic Compliance Matrix: (Units=1/GPa)
#
#
# Indices 1 2 3 4 5 6 
#
# 1 0.016952 -0.003618 0.002090 0.000000 0.000000 0.000000
# 2 -0.003618 0.008371 -0.005002 0.000000 0.000000 0.000000
# 3 0.002090 -0.005002 0.018596 0.000000 0.000000 0.000000
# 4 0.000000 0.000000 0.000000 0.029286 0.000000 0.000000
# 5 0.000000 0.000000 0.000000 0.000000 -0.232297 0.000000
# 6 0.000000 0.000000 0.000000 0.000000 0.000000 0.048321
#
#
# Mechanical properties :
#
#
# Convention : Reuss Voigt Hill
#
# Bulk Modulus (GPa) = 32.40528 46.40404 39.40466
# Shear Modulus (GPa) = -57.19342 24.55400 -16.31971
#
# Velocity S-wave (km/s) = -5.14100 3.36850 -2.74619
# Velocity P-wave (km/s) = 4.50166 6.04756 2.85553
#
# Compressibility (1/GPa) = 0.03085917
#
# Stress axis : x y z
#
# Youngs Moduli (GPa) = 58.98991 119.45343 53.77369
#
# Poissons Ratio (x) = 0.43214 -0.11236
# Poissons Ratio (y) = 0.21341 0.26899
# Poissons Ratio (z) = -0.12326 0.59754
#
# Static dielectric constant tensor:
#      x y z
#    x 1.803850 0.000000 0.000000 
#    y 0.000000 1.892070 0.000000 
#    z 0.000000 0.000000 1.768350 
# 
# From -- ./inp_files/2439.got.cif
#   From: 2010.05.17/outbox.cif.g08.bks.cpg/sg52_2_cif.got.tgz:2439.got - 2010.06.03 12:15:38.
