data_PCOD9411429
_publ_section_title
;
Structure prediction by ZEFSAII (Michael W. Deem and Ramdas Pophale) SiO2 
 PCOD9411429
Probable space group: P N N A
;
_chemical_formula_sum "Si O2"
_cell_formula_units_Z 48
_cell_length_a 28.125151
_cell_length_b 8.973158
_cell_length_c 7.987979
_cell_angle_alpha 90.000000
_cell_angle_beta 90.000000
_cell_angle_gamma 90.000000
_cell_volume 2015.937633
_symmetry_space_group_name_H-M "P N N A"
_symmetry_group_IT_number 52
_symmetry_cell_setting 'orthorhombic'
loop_
_space_group_symop_operation_xyz
x,y,z
1/2-x,-y,z
x,1/2-y,1/2-z
1/2-x,1/2+y,1/2-z
-x,-y,-z
1/2+x,y,-z
-x,1/2+y,1/2+z
1/2+x,1/2-y,1/2+z
loop_
_atom_site_type_symbol
_atom_site_label
_atom_site_fract_x
_atom_site_fract_y
_atom_site_fract_z
Si Si1 0.551827 0.313502 0.554510
Si Si2 0.194832 0.975315 0.190020
Si Si3 0.654504 0.225383 0.011992
Si Si4 0.304894 0.973994 0.696654
Si Si5 0.053955 0.671300 0.560329
Si Si6 0.844365 0.218737 0.511692
O O1 0.552690 0.250000 0.750000
O O2 0.598949 0.235754 0.481255
O O3 0.498132 0.278139 0.496634
O O4 0.556754 0.490908 0.492027
O O5 0.168904 0.888219 0.335783
O O6 0.189556 0.861155 0.033599
O O7 0.250000 0.000000 0.221762
O O8 0.166674 0.123912 0.146220
O O9 0.667230 0.114963 0.163186
O O10 0.690033 0.362181 0.037429
O O11 0.250000 0.000000 0.732465
O O12 0.332194 0.122110 0.649124
O O13 0.055798 0.750000 0.750000
O O14 0.101217 0.735384 0.478592
#
# Coordination Sequence:
#
# PCOD9411429 Si02
#       6
#     8   8   8   8   8   8
#     4  10  22  41  74 104 142 189 236 305 380 440
#     4  11  24  41  62  97 139 184 231 288 355 425
#     4  11  24  44  68  98 140 189 229 296 365 431
#     4  11  25  43  66 102 138 186 245 298 360 427
#     4  10  21  44  73 106 141 186 243 304 371 446
#     4  11  24  41  69 102 133 186 239 292 354 438
#
# _framework density 23.810258000000001
#
# number of rings (size 3 to 8) (size 9 to 14) (size 15 to 20)
#    0.000    1.333    1.667    3.000    2.333    2.667 
#    0.000    4.167    0.000    0.000    0.000    0.000 
#    0.000    0.000    0.000    0.000    0.000    0.000 
#
# Total GULP energy -267741.191531 kJ/mol
# GULP energy per Si atom -5577.941490 kJ/mol
# Density = 2.375607 g / cm^3
# Si number density = 23.810258 Si / 1000 Ang^3
#
#
#
# Elastic Constant Matrix: (Units=GPa)
#
#
# Indices 1 2 3 4 5 6 
#
# 1 242.6209 31.8544 43.0356 0.0000 0.0000 0.0000
# 2 31.8544 116.2391 59.6818 0.0000 0.0000 0.0000
# 3 43.0356 59.6818 64.5882 0.0000 0.0000 0.0000
# 4 0.0000 0.0000 0.0000 72.5150 0.0000 0.0000
# 5 0.0000 0.0000 0.0000 0.0000 41.0609 0.0000
# 6 0.0000 0.0000 0.0000 0.0000 0.0000 39.4505
#
#
#
# Elastic Compliance Matrix: (Units=1/GPa)
#
#
# Indices 1 2 3 4 5 6 
#
# 1 0.004697 0.000608 -0.003691 0.000000 0.000000 0.000000
# 2 0.000608 0.016448 -0.015604 0.000000 0.000000 0.000000
# 3 -0.003691 -0.015604 0.032361 0.000000 0.000000 0.000000
# 4 0.000000 0.000000 0.000000 0.013790 0.000000 0.000000
# 5 0.000000 0.000000 0.000000 0.000000 0.024354 0.000000
# 6 0.000000 0.000000 0.000000 0.000000 0.000000 0.025348
#
#
# Mechanical properties :
#
#
# Convention : Reuss Voigt Hill
#
# Bulk Modulus (GPa) = 61.99084 76.95465 69.47274
# Shear Modulus (GPa) = 31.29928 49.86369 40.58149
#
# Velocity S-wave (km/s) = 3.62958 4.58122 4.13288
# Velocity P-wave (km/s) = 6.60734 7.77004 7.21216
#
# Compressibility (1/GPa) = 0.01613142
#
# Stress axis : x y z
#
# Youngs Moduli (GPa) = 212.92131 60.79852 30.90182
#
# Poissons Ratio (x) = -0.03698 0.11407
# Poissons Ratio (y) = -0.12951 0.48218
# Poissons Ratio (z) = 0.78598 0.94868
#
# Static dielectric constant tensor:
#      x y z
#    x 1.789870 0.000000 0.000000 
#    y 0.000000 2.088910 0.000000 
#    z 0.000000 0.000000 2.129990 
# 
# From -- ./inp_files/15555.got.cif
#   From: 2010.05.17/outbox.cif.g08.bks.cpg/sg52_8_cif.got.tgz:15555.got - 2010.06.03 12:15:38.
