data_PCOD9411454
_publ_section_title
;
Structure prediction by ZEFSAII (Michael W. Deem and Ramdas Pophale) SiO2 
 PCOD9411454
Probable space group: P N N A
;
_chemical_formula_sum "Si O2"
_cell_formula_units_Z 28
_cell_length_a 10.574953
_cell_length_b 5.291266
_cell_length_c 19.764264
_cell_angle_alpha 90.000000
_cell_angle_beta 90.000000
_cell_angle_gamma 90.000000
_cell_volume 1105.907203
_symmetry_space_group_name_H-M "P N N A"
_symmetry_group_IT_number 52
_symmetry_cell_setting 'orthorhombic'
loop_
_space_group_symop_operation_xyz
x,y,z
1/2-x,-y,z
x,1/2-y,1/2-z
1/2-x,1/2+y,1/2-z
-x,-y,-z
1/2+x,y,-z
-x,1/2+y,1/2+z
1/2+x,1/2-y,1/2+z
loop_
_atom_site_type_symbol
_atom_site_label
_atom_site_fract_x
_atom_site_fract_y
_atom_site_fract_z
Si Si1 0.250000 0.500000 0.174852
Si Si2 0.599466 0.261700 0.391386
Si Si3 0.030023 0.750000 0.250000
Si Si4 0.123278 0.750931 0.548765
Si Si5 0.750000 0.000000 0.918916
O O1 0.127354 0.541760 0.221705
O O2 0.274074 0.760112 0.132070
O O3 0.559211 0.285589 0.314578
O O4 0.749875 0.252010 0.404215
O O5 0.544916 0.513004 0.425719
O O6 0.556452 0.012059 0.432129
O O7 0.177011 0.676670 0.475906
#
# Coordination Sequence:
#
# PCOD9411454 Si02
#       5
#     4   8   4   8   4
#     4  12  27  44  64  86 135 190 230 270 296 386
#     4   9  20  38  67  98 134 162 207 271 334 403
#     4  12  28  46  62  96 134 186 230 254 324 392
#     4   9  19  41  70 105 126 155 205 282 354 387
#     4  10  21  46  70  92 131 174 222 280 332 374
#
# _framework density 25.318577999999999
#
# number of rings (size 3 to 8) (size 9 to 14) (size 15 to 20)
#    0.000    2.286    0.000    4.286    0.000   12.571 
#    0.000   20.000    0.000    0.000    0.000    0.000 
#    0.000    0.000    0.000    0.000    0.000    0.000 
#
# Total GULP energy -155923.093523 kJ/mol
# GULP energy per Si atom -5568.681912 kJ/mol
# Density = 2.526095 g / cm^3
# Si number density = 25.318578 Si / 1000 Ang^3
#
#
#
# Elastic Constant Matrix: (Units=GPa)
#
#
# Indices 1 2 3 4 5 6 
#
# 1 83.6772 4.6142 77.2866 0.0000 0.0000 0.0000
# 2 4.6142 280.1550 98.6256 0.0000 0.0000 0.0000
# 3 77.2866 98.6256 249.6787 0.0000 0.0000 0.0000
# 4 0.0000 0.0000 0.0000 40.5606 0.0000 0.0000
# 5 0.0000 0.0000 0.0000 0.0000 18.6929 0.0000
# 6 0.0000 0.0000 0.0000 0.0000 0.0000 17.9669
#
#
#
# Elastic Compliance Matrix: (Units=1/GPa)
#
#
# Indices 1 2 3 4 5 6 
#
# 1 0.017553 0.001886 -0.006179 0.000000 0.000000 0.000000
# 2 0.001886 0.004349 -0.002302 0.000000 0.000000 0.000000
# 3 -0.006179 -0.002302 0.006827 0.000000 0.000000 0.000000
# 4 0.000000 0.000000 0.000000 0.024654 0.000000 0.000000
# 5 0.000000 0.000000 0.000000 0.000000 0.053496 0.000000
# 6 0.000000 0.000000 0.000000 0.000000 0.000000 0.055658
#
#
# Mechanical properties :
#
#
# Convention : Reuss Voigt Hill
#
# Bulk Modulus (GPa) = 64.34759 108.28485 86.31622
# Shear Modulus (GPa) = 27.63866 44.30969 35.97417
#
# Velocity S-wave (km/s) = 3.30758 4.18794 3.77352
# Velocity P-wave (km/s) = 6.32907 8.13922 7.29054
#
# Compressibility (1/GPa) = 0.01554060
#
# Stress axis : x y z
#
# Youngs Moduli (GPa) = 56.96923 229.95790 146.48150
#
# Poissons Ratio (x) = -0.43369 0.90504
# Poissons Ratio (y) = -0.10744 0.33713
# Poissons Ratio (z) = 0.35198 0.52926
#
# Static dielectric constant tensor:
#      x y z
#    x 2.150800 0.000000 0.000000 
#    y 0.000000 2.276300 0.000000 
#    z 0.000000 0.000000 1.963470 
# 
# From -- ./inp_files/36386.got.cif
#   From: 2010.05.17/outbox.cif.g08.bks.cpg/sg52_19_cif.got.tgz:36386.got - 2010.06.03 12:15:38.
