data_PCOD9411506
_publ_section_title
;
Structure prediction by ZEFSAII (Michael W. Deem and Ramdas Pophale) SiO2 
 PCOD9411506
Probable space group: P N N A
;
_chemical_formula_sum "Si O2"
_cell_formula_units_Z 40
_cell_length_a 18.549952
_cell_length_b 5.779064
_cell_length_c 16.264713
_cell_angle_alpha 90.000000
_cell_angle_beta 90.000000
_cell_angle_gamma 90.000000
_cell_volume 1743.599350
_symmetry_space_group_name_H-M "P N N A"
_symmetry_group_IT_number 52
_symmetry_cell_setting 'orthorhombic'
loop_
_space_group_symop_operation_xyz
x,y,z
1/2-x,-y,z
x,1/2-y,1/2-z
1/2-x,1/2+y,1/2-z
-x,-y,-z
1/2+x,y,-z
-x,1/2+y,1/2+z
1/2+x,1/2-y,1/2+z
loop_
_atom_site_type_symbol
_atom_site_label
_atom_site_fract_x
_atom_site_fract_y
_atom_site_fract_z
Si Si1 0.782293 0.248869 0.932210
Si Si2 0.927741 0.904148 0.084238
Si Si3 0.230239 0.248648 0.879346
Si Si4 0.487373 0.803585 0.431365
Si Si5 0.928560 0.182916 0.658646
O O1 0.750000 0.500000 0.904032
O O2 0.864479 0.258762 0.903359
O O3 0.750000 0.000000 0.902851
O O4 0.768973 0.246536 0.030645
O O5 0.855564 0.777776 0.109390
O O6 0.996180 0.806250 0.134561
O O7 0.938175 0.863616 0.986493
O O8 0.938939 0.178811 0.094255
O O9 0.250000 0.500000 0.843636
O O10 0.250000 0.000000 0.839935
O O11 0.500000 0.000000 0.500000
O O12 0.446504 0.912995 0.355320
O O13 0.907810 0.250000 0.750000
#
# Coordination Sequence:
#
# PCOD9411506 Si02
#       5
#     8   8   8   8   8
#     4  10  23  40  61  91 133 175 223 278 339 414
#     4  10  22  38  65  96 125 177 230 292 339 404
#     4  10  22  36  63  96 130 164 215 289 355 400
#     4   9  20  35  64  90 125 162 226 285 331 391
#     4  11  25  41  63  93 136 186 226 277 347 429
#
# _framework density 22.941051000000002
#
# number of rings (size 3 to 8) (size 9 to 14) (size 15 to 20)
#    0.000    2.000    0.000    2.400   25.200    1.600 
#    0.000    0.000    0.000    1.200    0.000    0.000 
#    0.000    0.000    0.000    0.000    0.000    0.000 
#
# Total GULP energy -223008.657740 kJ/mol
# GULP energy per Si atom -5575.216443 kJ/mol
# Density = 2.288884 g / cm^3
# Si number density = 22.941051 Si / 1000 Ang^3
#
#
#
# Elastic Constant Matrix: (Units=GPa)
#
#
# Indices 1 2 3 4 5 6 
#
# 1 161.3092 61.5107 44.2642 0.0000 0.0000 0.0000
# 2 61.5107 188.6081 27.1676 0.0000 0.0000 0.0000
# 3 44.2642 27.1676 58.9666 0.0000 0.0000 0.0000
# 4 0.0000 0.0000 0.0000 -1.9595 0.0000 0.0000
# 5 0.0000 0.0000 0.0000 0.0000 3.7907 0.0000
# 6 0.0000 0.0000 0.0000 0.0000 0.0000 40.1844
#
#
#
# Elastic Compliance Matrix: (Units=1/GPa)
#
#
# Indices 1 2 3 4 5 6 
#
# 1 0.008440 -0.001971 -0.005428 0.000000 0.000000 0.000000
# 2 -0.001971 0.006139 -0.001349 0.000000 0.000000 0.000000
# 3 -0.005428 -0.001349 0.021655 0.000000 0.000000 0.000000
# 4 0.000000 0.000000 0.000000 -0.510322 0.000000 0.000000
# 5 0.000000 0.000000 0.000000 0.000000 0.263804 0.000000
# 6 0.000000 0.000000 0.000000 0.000000 0.000000 0.024885
#
#
# Mechanical properties :
#
#
# Convention : Reuss Voigt Hill
#
# Bulk Modulus (GPa) = 53.36518 74.97430 64.16974
# Shear Modulus (GPa) = -30.92962 26.79920 -2.06521
#
# Velocity S-wave (km/s) = -3.67580 3.42157 -0.94983
# Velocity P-wave (km/s) = 2.30153 6.95426 5.17971
#
# Compressibility (1/GPa) = 0.01873881
#
# Stress axis : x y z
#
# Youngs Moduli (GPa) = 118.48091 162.89178 46.17926
#
# Poissons Ratio (x) = 0.32102 0.25065
# Poissons Ratio (y) = 0.23350 0.06230
# Poissons Ratio (z) = 0.64309 0.21975
#
# Static dielectric constant tensor:
#      x y z
#    x 1.881030 0.000000 0.000000 
#    y 0.000000 2.128660 0.000000 
#    z 0.000000 0.000000 1.824080 
# 
# From -- ./inp_files/33443.got.cif
#   From: 2010.05.17/outbox.cif.g08.bks.cpg/sg52_17_cif.got.tgz:33443.got - 2010.06.03 12:15:38.
