data_PCOD9411158
_publ_section_title
;
Structure prediction by ZEFSAII (Michael W. Deem and Ramdas Pophale) SiO2 
 PCOD9411158
Probable space group: P N N A
;
_chemical_formula_sum "Si O2"
_cell_formula_units_Z 40
_cell_length_a 8.306815
_cell_length_b 13.002273
_cell_length_c 17.514379
_cell_angle_alpha 90.000000
_cell_angle_beta 90.000000
_cell_angle_gamma 90.000000
_cell_volume 1891.683876
_symmetry_space_group_name_H-M "P N N A"
_symmetry_group_IT_number 52
_symmetry_cell_setting 'orthorhombic'
loop_
_space_group_symop_operation_xyz
x,y,z
1/2-x,-y,z
x,1/2-y,1/2-z
1/2-x,1/2+y,1/2-z
-x,-y,-z
1/2+x,y,-z
-x,1/2+y,1/2+z
1/2+x,1/2-y,1/2+z
loop_
_atom_site_type_symbol
_atom_site_label
_atom_site_fract_x
_atom_site_fract_y
_atom_site_fract_z
Si Si1 0.902865 0.923653 0.729623
Si Si2 0.750000 0.500000 0.522242
Si Si3 0.839854 0.716522 0.327519
Si Si4 0.485118 0.761295 0.138646
Si Si5 0.997818 0.345629 0.533760
Si Si6 0.250000 0.500000 0.736517
O O1 0.924539 0.855002 0.807383
O O2 0.883887 0.839608 0.661399
O O3 0.078229 0.979653 0.721384
O O4 0.750000 0.000000 0.734234
O O5 0.660235 0.594336 0.562264
O O6 0.876244 0.561184 0.471737
O O7 0.924569 0.750000 0.250000
O O8 0.666613 0.769189 0.335380
O O9 0.942942 0.731698 0.402528
O O10 0.790955 0.598454 0.314784
O O11 0.505737 0.797041 0.050785
#
# Coordination Sequence:
#
# PCOD9411158 Si02
#       6
#     8   4   8   8   8   4
#     4  10  22  42  66  94 133 178 222 279 331 398
#     4  10  23  34  60  98 131 156 208 277 348 406
#     4  11  21  42  66  90 130 179 215 271 348 412
#     4  10  21  42  63  96 137 168 223 282 328 409
#     4  11  22  37  63  96 130 169 213 279 346 397
#     4  10  21  40  66  92 125 170 224 263 340 414
#
# _framework density 21.145181000000001
#
# number of rings (size 3 to 8) (size 9 to 14) (size 15 to 20)
#    0.000    1.600    6.000    0.600    9.800    0.000 
#    7.200    0.000    2.200    2.400    0.000    0.000 
#    0.000    0.000    0.000    0.000    0.000    0.000 
#
# Total GULP energy -222832.356364 kJ/mol
# GULP energy per Si atom -5570.808909 kJ/mol
# Density = 2.109705 g / cm^3
# Si number density = 21.145181 Si / 1000 Ang^3
#
#
#
# Elastic Constant Matrix: (Units=GPa)
#
#
# Indices 1 2 3 4 5 6 
#
# 1 112.3834 40.0286 28.5644 0.0000 0.0000 0.0000
# 2 40.0286 64.5234 26.2353 0.0000 0.0000 0.0000
# 3 28.5644 26.2353 134.7586 0.0000 0.0000 0.0000
# 4 0.0000 0.0000 0.0000 -2.4799 0.0000 0.0000
# 5 0.0000 0.0000 0.0000 0.0000 7.0056 0.0000
# 6 0.0000 0.0000 0.0000 0.0000 0.0000 24.6825
#
#
#
# Elastic Compliance Matrix: (Units=1/GPa)
#
#
# Indices 1 2 3 4 5 6 
#
# 1 0.011583 -0.006719 -0.001147 0.000000 0.000000 0.000000
# 2 -0.006719 0.020728 -0.002611 0.000000 0.000000 0.000000
# 3 -0.001147 -0.002611 0.008172 0.000000 0.000000 0.000000
# 4 0.000000 0.000000 0.000000 -0.403243 0.000000 0.000000
# 5 0.000000 0.000000 0.000000 0.000000 0.142743 0.000000
# 6 0.000000 0.000000 0.000000 0.000000 0.000000 0.040515
#
#
# Mechanical properties :
#
#
# Convention : Reuss Voigt Hill
#
# Bulk Modulus (GPa) = 51.20759 55.70244 53.45501
# Shear Modulus (GPa) = -32.88680 20.29745 -6.29467
#
# Velocity S-wave (km/s) = -3.94799 3.10160 -1.72724
# Velocity P-wave (km/s) = 1.86750 6.26312 4.62137
#
# Compressibility (1/GPa) = 0.01952835
#
# Stress axis : x y z
#
# Youngs Moduli (GPa) = 86.33377 48.24276 122.36644
#
# Poissons Ratio (x) = 0.32416 0.14036
# Poissons Ratio (y) = 0.58011 0.31953
# Poissons Ratio (z) = 0.09903 0.12597
#
# Static dielectric constant tensor:
#      x y z
#    x 1.968070 0.000000 0.000000 
#    y 0.000000 1.806490 0.000000 
#    z 0.000000 0.000000 1.768980 
# 
# From -- ./inp_files/31099.got.cif
#   From: 2010.05.17/outbox.cif.g08.bks.cpg/sg52_16_cif.got.tgz:31099.got - 2010.06.03 12:15:38.
