data_PCOD9411036
_publ_section_title
;
Structure prediction by ZEFSAII (Michael W. Deem and Ramdas Pophale) SiO2 
 PCOD9411036
Probable space group: P N N A
;
_chemical_formula_sum "Si O2"
_cell_formula_units_Z 48
_cell_length_a 9.208560
_cell_length_b 20.283277
_cell_length_c 11.994793
_cell_angle_alpha 90.000000
_cell_angle_beta 90.000000
_cell_angle_gamma 90.000000
_cell_volume 2240.384717
_symmetry_space_group_name_H-M "P N N A"
_symmetry_group_IT_number 52
_symmetry_cell_setting 'orthorhombic'
loop_
_space_group_symop_operation_xyz
x,y,z
1/2-x,-y,z
x,1/2-y,1/2-z
1/2-x,1/2+y,1/2-z
-x,-y,-z
1/2+x,y,-z
-x,1/2+y,1/2+z
1/2+x,1/2-y,1/2+z
loop_
_atom_site_type_symbol
_atom_site_label
_atom_site_fract_x
_atom_site_fract_y
_atom_site_fract_z
Si Si1 0.653599 0.750000 0.750000
Si Si2 0.536281 0.065990 0.394314
Si Si3 0.413953 0.782332 0.572903
Si Si4 0.250000 0.500000 0.716652
Si Si5 0.594228 0.624090 0.391152
Si Si6 0.697201 0.328074 0.585987
Si Si7 0.170310 0.750000 0.750000
Si Si8 0.750000 0.500000 0.926504
O O1 0.548902 0.754995 0.643749
O O2 0.750421 0.688846 0.710433
O O3 0.546770 0.141609 0.431417
O O4 0.632150 0.040595 0.290439
O O5 0.366452 0.048784 0.368816
O O6 0.629781 0.034479 0.495573
O O7 0.378107 0.739023 0.464422
O O8 0.272629 0.775036 0.650093
O O9 0.333283 0.442811 0.650452
O O10 0.679614 0.650032 0.499495
O O11 0.425478 0.616509 0.416994
O O12 0.598027 0.683731 0.299235
#
# Coordination Sequence:
#
# PCOD9411036 Si02
#       8
#     4   8   8   4   8   8   4   4
#     4  11  23  42  66 102 132 172 226 290 336 402
#     4  10  21  40  61  92 129 178 219 276 342 397
#     4  10  21  39  66  95 129 165 221 283 329 389
#     4  11  24  42  66  95 136 180 221 268 341 412
#     4  11  23  43  64  98 134 174 224 274 333 402
#     4  11  24  42  65  99 130 175 228 279 338 394
#     4   9  19  38  64  88 126 168 212 276 322 384
#     4   9  22  38  56  89 130 168 229 276 327 414
#
# _framework density 21.424892
#
# number of rings (size 3 to 8) (size 9 to 14) (size 15 to 20)
#    0.000    1.667    3.333    0.500    2.333    2.000 
#    9.000    0.000    0.000    0.000    0.000    0.000 
#    0.000    0.000    0.000    0.000    0.000    0.000 
#
# Total GULP energy -267313.912046 kJ/mol
# GULP energy per Si atom -5569.039834 kJ/mol
# Density = 2.137613 g / cm^3
# Si number density = 21.424892 Si / 1000 Ang^3
#
#
#
# Elastic Constant Matrix: (Units=GPa)
#
#
# Indices 1 2 3 4 5 6 
#
# 1 88.2178 -13.0321 -2.3123 0.0000 0.0000 0.0000
# 2 -13.0321 50.6627 -2.5818 0.0000 0.0000 0.0000
# 3 -2.3123 -2.5818 46.0627 0.0000 0.0000 0.0000
# 4 0.0000 0.0000 0.0000 18.8365 0.0000 0.0000
# 5 0.0000 0.0000 0.0000 0.0000 24.1055 0.0000
# 6 0.0000 0.0000 0.0000 0.0000 0.0000 55.0258
#
#
#
# Elastic Compliance Matrix: (Units=1/GPa)
#
#
# Indices 1 2 3 4 5 6 
#
# 1 0.011810 0.003077 0.000765 0.000000 0.000000 0.000000
# 2 0.003077 0.020597 0.001309 0.000000 0.000000 0.000000
# 3 0.000765 0.001309 0.021821 0.000000 0.000000 0.000000
# 4 0.000000 0.000000 0.000000 0.053088 0.000000 0.000000
# 5 0.000000 0.000000 0.000000 0.000000 0.041484 0.000000
# 6 0.000000 0.000000 0.000000 0.000000 0.000000 0.018173
#
#
# Mechanical properties :
#
#
# Convention : Reuss Voigt Hill
#
# Bulk Modulus (GPa) = 15.49656 16.56565 16.03110
# Shear Modulus (GPa) = 28.06121 33.11818 30.58969
#
# Velocity S-wave (km/s) = 3.62297 3.93591 3.78268
# Velocity P-wave (km/s) = 4.97493 5.32953 5.15528
#
# Compressibility (1/GPa) = 0.06453046
#
# Stress axis : x y z
#
# Youngs Moduli (GPa) = 84.67266 48.55175 45.82673
#
# Poissons Ratio (x) = -0.14939 -0.03507
# Poissons Ratio (y) = -0.26053 -0.05998
# Poissons Ratio (z) = -0.06480 -0.06355
#
# Static dielectric constant tensor:
#      x y z
#    x 1.882480 0.000000 0.000000 
#    y 0.000000 1.831280 0.000000 
#    z 0.000000 0.000000 1.714070 
# 
# From -- ./inp_files/17010.got.cif
#   From: 2010.05.17/outbox.cif.g08.bks.cpg/sg52_9_cif.got.tgz:17010.got - 2010.06.03 12:15:38.
