data_PCOD9411972
_publ_section_title
;
Structure prediction by ZEFSAII (Michael W. Deem and Ramdas Pophale) SiO2 
 PCOD9411972
Probable space group: P N N A
;
_chemical_formula_sum "Si O2"
_cell_formula_units_Z 20
_cell_length_a 13.278244
_cell_length_b 11.873551
_cell_length_c 5.875692
_cell_angle_alpha 90.000000
_cell_angle_beta 90.000000
_cell_angle_gamma 90.000000
_cell_volume 926.361056
_symmetry_space_group_name_H-M "P N N A"
_symmetry_group_IT_number 52
_symmetry_cell_setting 'orthorhombic'
loop_
_space_group_symop_operation_xyz
x,y,z
1/2-x,-y,z
x,1/2-y,1/2-z
1/2-x,1/2+y,1/2-z
-x,-y,-z
1/2+x,y,-z
-x,1/2+y,1/2+z
1/2+x,1/2-y,1/2+z
loop_
_atom_site_type_symbol
_atom_site_label
_atom_site_fract_x
_atom_site_fract_y
_atom_site_fract_z
Si Si1 0.785115 0.750000 0.250000
Si Si2 0.445157 0.931765 0.801473
Si Si3 0.405343 0.160567 0.563081
O O1 0.855261 0.846640 0.146533
O O2 0.708595 0.794174 0.445175
O O3 0.526698 0.860461 0.656737
O O4 0.399161 0.034219 0.657878
O O5 0.500000 0.000000 0.000000
O O6 0.451665 0.250000 0.750000
#
# Coordination Sequence:
#
# PCOD9411972 Si02
#       3
#     4   8   8
#     4  10  22  42  68  94 142 182 230 292 364 432
#     4  11  21  41  69  99 137 180 240 298 346 429
#     4   9  22  41  63  96 138 181 230 290 360 426
#
# _framework density 21.589856000000001
#
# number of rings (size 3 to 8) (size 9 to 14) (size 15 to 20)
#    1.200    0.800    0.000    3.600    0.000    0.000 
#    0.000   28.000    0.000    0.000    0.000    0.000 
#    0.000    0.000    0.000    0.000    0.000    0.000 
#
# Total GULP energy -111363.234514 kJ/mol
# GULP energy per Si atom -5568.161726 kJ/mol
# Density = 2.154072 g / cm^3
# Si number density = 21.589856 Si / 1000 Ang^3
#
#
#
# Elastic Constant Matrix: (Units=GPa)
#
#
# Indices 1 2 3 4 5 6 
#
# 1 180.3187 95.6454 71.2018 0.0000 0.0000 0.0000
# 2 95.6454 187.9981 58.5582 0.0000 0.0000 0.0000
# 3 71.2018 58.5582 82.5164 0.0000 0.0000 0.0000
# 4 0.0000 0.0000 0.0000 41.8056 0.0000 0.0000
# 5 0.0000 0.0000 0.0000 0.0000 -25.8018 0.0000
# 6 0.0000 0.0000 0.0000 0.0000 0.0000 54.9472
#
#
#
# Elastic Compliance Matrix: (Units=1/GPa)
#
#
# Indices 1 2 3 4 5 6 
#
# 1 0.009526 -0.002935 -0.006137 0.000000 0.000000 0.000000
# 2 -0.002935 0.007733 -0.002955 0.000000 0.000000 0.000000
# 3 -0.006137 -0.002955 0.019511 0.000000 0.000000 0.000000
# 4 0.000000 0.000000 0.000000 0.023920 0.000000 0.000000
# 5 0.000000 0.000000 0.000000 0.000000 -0.038757 0.000000
# 6 0.000000 0.000000 0.000000 0.000000 0.000000 0.018199
#
#
# Mechanical properties :
#
#
# Convention : Reuss Voigt Hill
#
# Bulk Modulus (GPa) = 78.64042 100.18267 89.41155
# Shear Modulus (GPa) = 73.07293 29.21872 51.14582
#
# Velocity S-wave (km/s) = 5.82404 3.68279 4.87249
# Velocity P-wave (km/s) = 9.04045 8.03662 8.55327
#
# Compressibility (1/GPa) = 0.01271611
#
# Stress axis : x y z
#
# Youngs Moduli (GPa) = 104.98022 129.31958 51.25203
#
# Poissons Ratio (x) = 0.37951 0.31453
# Poissons Ratio (y) = 0.30809 0.15147
# Poissons Ratio (z) = 0.64425 0.38218
#
# Static dielectric constant tensor:
#      x y z
#    x 1.785080 0.000000 0.000000 
#    y 0.000000 1.774010 0.000000 
#    z 0.000000 0.000000 1.948840 
# 
# From -- ./inp_files/657.got.cif
#   From: 2010.05.17/outbox.cif.g08.bks.cpg/sg52_1_cif.got.tgz:657.got - 2010.06.03 12:15:38.
