data_PCOD9411530
_publ_section_title
;
Structure prediction by ZEFSAII (Michael W. Deem and Ramdas Pophale) SiO2 
 PCOD9411530
Probable space group: P N N A
;
_chemical_formula_sum "Si O2"
_cell_formula_units_Z 40
_cell_length_a 21.294632
_cell_length_b 10.628726
_cell_length_c 9.332112
_cell_angle_alpha 90.000000
_cell_angle_beta 90.000000
_cell_angle_gamma 90.000000
_cell_volume 2112.181785
_symmetry_space_group_name_H-M "P N N A"
_symmetry_group_IT_number 52
_symmetry_cell_setting 'orthorhombic'
loop_
_space_group_symop_operation_xyz
x,y,z
1/2-x,-y,z
x,1/2-y,1/2-z
1/2-x,1/2+y,1/2-z
-x,-y,-z
1/2+x,y,-z
-x,1/2+y,1/2+z
1/2+x,1/2-y,1/2+z
loop_
_atom_site_type_symbol
_atom_site_label
_atom_site_fract_x
_atom_site_fract_y
_atom_site_fract_z
Si Si1 0.322980 0.867843 0.918484
Si Si2 0.892244 0.054403 0.296846
Si Si3 0.995105 0.250000 0.250000
Si Si4 0.594589 0.144120 0.533807
Si Si5 0.790817 0.250000 0.250000
Si Si6 0.702415 0.395072 0.742213
O O1 0.365140 0.743532 0.941267
O O2 0.256170 0.827618 0.851938
O O3 0.359376 0.961936 0.815640
O O4 0.313285 0.921814 0.077117
O O5 0.837245 0.155160 0.333996
O O6 0.949218 0.131627 0.227168
O O7 0.917319 0.973999 0.430990
O O8 0.037424 0.214363 0.387428
O O9 0.640123 0.102611 0.662815
O O10 0.750000 0.500000 0.796660
O O11 0.726360 0.250000 0.750000
#
# Coordination Sequence:
#
# PCOD9411530 Si02
#       6
#     8   8   4   8   4   8
#     4  11  21  39  62  91 127 158 202 261 320 371
#     4  11  24  38  68  89 121 168 210 261 311 377
#     4  11  24  46  60  88 126 167 222 254 304 381
#     4  11  22  42  62  90 122 169 204 261 311 376
#     4  11  22  36  64 100 124 149 212 262 322 383
#     4  10  22  37  62  91 130 164 200 257 328 385
#
# _framework density 18.937763
#
# number of rings (size 3 to 8) (size 9 to 14) (size 15 to 20)
#    0.000    1.200    5.000    2.400    5.600    0.800 
#    0.000    0.000    0.000    0.000    0.000    0.000 
#    0.000    0.000    0.000    0.000    0.000    0.000 
#
# Total GULP energy -223283.236896 kJ/mol
# GULP energy per Si atom -5582.080922 kJ/mol
# Density = 1.889466 g / cm^3
# Si number density = 18.937763 Si / 1000 Ang^3
#
#
#
# Elastic Constant Matrix: (Units=GPa)
#
#
# Indices 1 2 3 4 5 6 
#
# 1 122.1453 61.2754 48.1536 0.0000 0.0000 0.0000
# 2 61.2754 84.7848 56.1594 0.0000 0.0000 0.0000
# 3 48.1536 56.1594 86.7005 0.0000 0.0000 0.0000
# 4 0.0000 0.0000 0.0000 24.5668 0.0000 0.0000
# 5 0.0000 0.0000 0.0000 0.0000 13.5828 0.0000
# 6 0.0000 0.0000 0.0000 0.0000 0.0000 -21.9161
#
#
#
# Elastic Compliance Matrix: (Units=1/GPa)
#
#
# Indices 1 2 3 4 5 6 
#
# 1 0.013037 -0.008102 -0.001993 0.000000 0.000000 0.000000
# 2 -0.008102 0.025693 -0.012142 0.000000 0.000000 0.000000
# 3 -0.001993 -0.012142 0.020506 0.000000 0.000000 0.000000
# 4 0.000000 0.000000 0.000000 0.040705 0.000000 0.000000
# 5 0.000000 0.000000 0.000000 0.000000 0.073623 0.000000
# 6 0.000000 0.000000 0.000000 0.000000 0.000000 -0.045628
#
#
# Mechanical properties :
#
#
# Convention : Reuss Voigt Hill
#
# Bulk Modulus (GPa) = 67.74474 69.42306 68.58390
# Shear Modulus (GPa) = 28.19591 11.78283 19.98937
#
# Velocity S-wave (km/s) = 3.86278 2.49707 3.25242
# Velocity P-wave (km/s) = 7.46624 6.71207 7.09918
#
# Compressibility (1/GPa) = 0.01476129
#
# Stress axis : x y z
#
# Youngs Moduli (GPa) = 76.70403 38.92106 48.76659
#
# Poissons Ratio (x) = 0.31535 0.09718
# Poissons Ratio (y) = 0.62147 0.59214
# Poissons Ratio (z) = 0.15285 0.47260
#
# Static dielectric constant tensor:
#      x y z
#    x 1.655720 0.000000 0.000000 
#    y 0.000000 1.693820 0.000000 
#    z 0.000000 0.000000 1.645700 
# 
# From -- ./inp_files/11689.got.cif
#   From: 2010.05.17/outbox.cif.g08.bks.cpg/sg52_6_cif.got.tgz:11689.got - 2010.06.03 12:15:38.
