data_PCOD9411186
_publ_section_title
;
Structure prediction by ZEFSAII (Michael W. Deem and Ramdas Pophale) SiO2 
 PCOD9411186
Probable space group: P N N A
;
_chemical_formula_sum "Si O2"
_cell_formula_units_Z 40
_cell_length_a 12.357856
_cell_length_b 18.898907
_cell_length_c 7.400885
_cell_angle_alpha 90.000000
_cell_angle_beta 90.000000
_cell_angle_gamma 90.000000
_cell_volume 1728.476479
_symmetry_space_group_name_H-M "P N N A"
_symmetry_group_IT_number 52
_symmetry_cell_setting 'orthorhombic'
loop_
_space_group_symop_operation_xyz
x,y,z
1/2-x,-y,z
x,1/2-y,1/2-z
1/2-x,1/2+y,1/2-z
-x,-y,-z
1/2+x,y,-z
-x,1/2+y,1/2+z
1/2+x,1/2-y,1/2+z
loop_
_atom_site_type_symbol
_atom_site_label
_atom_site_fract_x
_atom_site_fract_y
_atom_site_fract_z
Si Si1 0.186905 0.585547 0.156318
Si Si2 0.680895 0.056632 0.285619
Si Si3 0.036836 0.330345 0.805498
Si Si4 0.023682 0.476991 0.295968
Si Si5 0.393573 0.833214 0.285001
O O1 0.137195 0.511298 0.230097
O O2 0.277768 0.631886 0.258967
O O3 0.079865 0.634103 0.176203
O O4 0.239445 0.574761 0.954772
O O5 0.627740 0.125536 0.193173
O O6 0.750000 0.000000 0.170730
O O7 0.570154 0.012894 0.325991
O O8 0.027842 0.250000 0.750000
O O9 0.088459 0.336627 0.001637
O O10 0.022796 0.392023 0.288517
O O11 0.000000 0.500000 0.500000
O O12 0.404623 0.750000 0.250000
#
# Coordination Sequence:
#
# PCOD9411186 Si02
#       5
#     8   8   8   8   8
#     4  10  21  43  71  91 128 184 239 284 351 437
#     4  10  21  40  68  95 126 182 245 284 350 436
#     4  10  22  41  67  96 136 181 227 297 360 423
#     4  11  25  43  69 104 144 186 239 313 369 437
#     4  11  24  40  64 100 138 180 232 287 372 436
#
# _framework density 23.141764999999999
#
# number of rings (size 3 to 8) (size 9 to 14) (size 15 to 20)
#    0.000    1.600    0.000    4.800    5.600    7.200 
#    0.000    7.000    0.000    0.000    0.000    0.000 
#    0.000    0.000    0.000    0.000    0.000    0.000 
#
# Total GULP energy -222855.800266 kJ/mol
# GULP energy per Si atom -5571.395007 kJ/mol
# Density = 2.308909 g / cm^3
# Si number density = 23.141765 Si / 1000 Ang^3
#
#
#
# Elastic Constant Matrix: (Units=GPa)
#
#
# Indices 1 2 3 4 5 6 
#
# 1 115.3045 54.2722 11.5096 0.0000 0.0000 0.0000
# 2 54.2722 228.4306 14.4048 0.0000 0.0000 0.0000
# 3 11.5096 14.4048 68.3644 0.0000 0.0000 0.0000
# 4 0.0000 0.0000 0.0000 33.5187 0.0000 0.0000
# 5 0.0000 0.0000 0.0000 0.0000 -7.5706 0.0000
# 6 0.0000 0.0000 0.0000 0.0000 0.0000 32.5715
#
#
#
# Elastic Compliance Matrix: (Units=1/GPa)
#
#
# Indices 1 2 3 4 5 6 
#
# 1 0.009858 -0.002268 -0.001182 0.000000 0.000000 0.000000
# 2 -0.002268 0.004958 -0.000663 0.000000 0.000000 0.000000
# 3 -0.001182 -0.000663 0.014966 0.000000 0.000000 0.000000
# 4 0.000000 0.000000 0.000000 0.029834 0.000000 0.000000
# 5 0.000000 0.000000 0.000000 0.000000 -0.132091 0.000000
# 6 0.000000 0.000000 0.000000 0.000000 0.000000 0.030702
#
#
# Mechanical properties :
#
#
# Convention : Reuss Voigt Hill
#
# Bulk Modulus (GPa) = 46.38749 63.60810 54.99780
# Shear Modulus (GPa) = -189.66809 33.83146 -77.91831
#
# Velocity S-wave (km/s) = -9.06295 3.82766 -5.80888
# Velocity P-wave (km/s) = 9.45662 6.86153 4.60148
#
# Compressibility (1/GPa) = 0.02155753
#
# Stress axis : x y z
#
# Youngs Moduli (GPa) = 101.44050 201.68374 66.81741
#
# Poissons Ratio (x) = 0.45734 0.07897
# Poissons Ratio (y) = 0.23003 0.04430
# Poissons Ratio (z) = 0.11989 0.13371
#
# Static dielectric constant tensor:
#      x y z
#    x 1.934080 0.000000 0.000000 
#    y 0.000000 1.125130 0.000000 
#    z 0.000000 0.000000 1.956120 
# 
# From -- ./inp_files/8525.got.cif
#   From: 2010.05.17/outbox.cif.g08.bks.cpg/sg52_5_cif.got.tgz:8525.got - 2010.06.03 12:15:38.
