data_PCOD9411356
_publ_section_title
;
Structure prediction by ZEFSAII (Michael W. Deem and Ramdas Pophale) SiO2 
 PCOD9411356
Probable space group: P N N A
;
_chemical_formula_sum "Si O2"
_cell_formula_units_Z 56
_cell_length_a 17.723027
_cell_length_b 12.193776
_cell_length_c 10.599669
_cell_angle_alpha 90.000000
_cell_angle_beta 90.000000
_cell_angle_gamma 90.000000
_cell_volume 2290.701053
_symmetry_space_group_name_H-M "P N N A"
_symmetry_group_IT_number 52
_symmetry_cell_setting 'orthorhombic'
loop_
_space_group_symop_operation_xyz
x,y,z
1/2-x,-y,z
x,1/2-y,1/2-z
1/2-x,1/2+y,1/2-z
-x,-y,-z
1/2+x,y,-z
-x,1/2+y,1/2+z
1/2+x,1/2-y,1/2+z
loop_
_atom_site_type_symbol
_atom_site_label
_atom_site_fract_x
_atom_site_fract_y
_atom_site_fract_z
Si Si1 0.474445 0.356336 0.487552
Si Si2 0.055408 0.342521 0.078980
Si Si3 0.069025 0.996809 0.651053
Si Si4 0.339645 0.371024 0.055525
Si Si5 0.206067 0.200001 0.075286
Si Si6 0.119818 0.026931 0.933501
Si Si7 0.553190 0.750000 0.750000
Si Si8 0.250000 0.000000 0.260640
O O1 0.491191 0.250467 0.570338
O O2 0.390875 0.403191 0.513699
O O3 0.549294 0.427066 0.516399
O O4 0.488789 0.334482 0.339017
O O5 0.132182 0.275339 0.107828
O O6 0.013754 0.438562 0.158123
O O7 0.062831 0.395928 0.938531
O O8 0.124499 0.918282 0.570455
O O9 0.105058 0.016383 0.786271
O O10 0.269283 0.288963 0.040509
O O11 0.397536 0.308365 0.144837
O O12 0.317081 0.473814 0.143577
O O13 0.233515 0.111335 0.181523
O O14 0.184513 0.112990 0.965218
#
# Coordination Sequence:
#
# PCOD9411356 Si02
#       8
#     8   8   8   8   8   8   4   4
#     4  10  21  42  69 106 137 186 237 302 370 430
#     4  10  23  45  69 105 146 191 241 305 375 441
#     4  11  24  46  71 109 148 194 252 304 381 449
#     4  12  25  44  74 105 147 192 245 310 374 447
#     4  11  25  48  72 105 147 199 248 307 385 443
#     4  10  24  44  70 104 147 189 244 299 373 455
#     4  12  20  40  72  98 136 184 230 306 358 442
#     4  12  24  48  74 110 140 188 264 310 372 456
#
# _framework density 24.446666
#
# number of rings (size 3 to 8) (size 9 to 14) (size 15 to 20)
#    0.000    1.143    2.857    2.571    2.000    2.286 
#   18.000    3.571    3.143    0.000    0.000    0.000 
#    0.000    0.000    0.000    0.000    0.000    0.000 
#
# Total GULP energy -312454.963807 kJ/mol
# GULP energy per Si atom -5579.552925 kJ/mol
# Density = 2.439102 g / cm^3
# Si number density = 24.446666 Si / 1000 Ang^3
#
#
#
# Elastic Constant Matrix: (Units=GPa)
#
#
# Indices 1 2 3 4 5 6 
#
# 1 100.1052 57.7520 26.1425 0.0000 0.0000 0.0000
# 2 57.7520 120.4525 38.2221 0.0000 0.0000 0.0000
# 3 26.1425 38.2221 114.3314 0.0000 0.0000 0.0000
# 4 0.0000 0.0000 0.0000 34.0786 0.0000 0.0000
# 5 0.0000 0.0000 0.0000 0.0000 18.2570 0.0000
# 6 0.0000 0.0000 0.0000 0.0000 0.0000 54.8097
#
#
#
# Elastic Compliance Matrix: (Units=1/GPa)
#
#
# Indices 1 2 3 4 5 6 
#
# 1 0.013924 -0.006338 -0.001065 0.000000 0.000000 0.000000
# 2 -0.006338 0.012172 -0.002620 0.000000 0.000000 0.000000
# 3 -0.001065 -0.002620 0.009866 0.000000 0.000000 0.000000
# 4 0.000000 0.000000 0.000000 0.029344 0.000000 0.000000
# 5 0.000000 0.000000 0.000000 0.000000 0.054774 0.000000
# 6 0.000000 0.000000 0.000000 0.000000 0.000000 0.018245
#
#
# Mechanical properties :
#
#
# Convention : Reuss Voigt Hill
#
# Bulk Modulus (GPa) = 62.82946 64.34693 63.58819
# Shear Modulus (GPa) = 30.54806 35.61387 33.08097
#
# Velocity S-wave (km/s) = 3.53877 3.82094 3.68256
# Velocity P-wave (km/s) = 6.51565 6.77087 6.64448
#
# Compressibility (1/GPa) = 0.01591610
#
# Stress axis : x y z
#
# Youngs Moduli (GPa) = 71.81768 82.15370 101.35897
#
# Poissons Ratio (x) = 0.52070 0.10794
# Poissons Ratio (y) = 0.45519 0.26557
# Poissons Ratio (z) = 0.07648 0.21525
#
# Static dielectric constant tensor:
#      x y z
#    x 2.013820 0.000000 0.000000 
#    y 0.000000 2.512770 0.000000 
#    z 0.000000 0.000000 1.944870 
# 
# From -- ./inp_files/21729.got.cif
#   From: 2010.05.17/outbox.cif.g08.bks.cpg/sg52_11_cif.got.tgz:21729.got - 2010.06.03 12:15:38.
