data_PCOD9411438
_publ_section_title
;
Structure prediction by ZEFSAII (Michael W. Deem and Ramdas Pophale) SiO2 
 PCOD9411438
Probable space group: P N N A
;
_chemical_formula_sum "Si O2"
_cell_formula_units_Z 40
_cell_length_a 18.105109
_cell_length_b 11.777788
_cell_length_c 8.890322
_cell_angle_alpha 90.000000
_cell_angle_beta 90.000000
_cell_angle_gamma 90.000000
_cell_volume 1895.755687
_symmetry_space_group_name_H-M "P N N A"
_symmetry_group_IT_number 52
_symmetry_cell_setting 'orthorhombic'
loop_
_space_group_symop_operation_xyz
x,y,z
1/2-x,-y,z
x,1/2-y,1/2-z
1/2-x,1/2+y,1/2-z
-x,-y,-z
1/2+x,y,-z
-x,1/2+y,1/2+z
1/2+x,1/2-y,1/2+z
loop_
_atom_site_type_symbol
_atom_site_label
_atom_site_fract_x
_atom_site_fract_y
_atom_site_fract_z
Si Si1 0.317332 0.831703 0.607404
Si Si2 0.157788 0.919485 0.521489
Si Si3 0.079220 0.187022 0.101047
Si Si4 0.830659 0.035910 0.835389
Si Si5 0.064045 0.725346 0.425419
O O1 0.329006 0.750000 0.750000
O O2 0.230425 0.856422 0.584165
O O3 0.356782 0.765181 0.471857
O O4 0.351192 0.959797 0.605391
O O5 0.173577 0.940333 0.343517
O O6 0.087347 0.837547 0.517320
O O7 0.053131 0.250000 0.250000
O O8 0.114229 0.067401 0.140730
O O9 0.009817 0.173893 0.992356
O O10 0.865145 0.142745 0.921404
O O11 0.750000 0.000000 0.890116
O O12 0.049841 0.750000 0.250000
#
# Coordination Sequence:
#
# PCOD9411438 Si02
#       5
#     8   8   8   8   8
#     4  11  23  43  69  97 135 178 233 281 346 407
#     4  10  21  45  68  96 133 180 226 285 345 408
#     4  12  23  42  66 101 139 184 224 282 344 416
#     4  11  20  42  73 100 132 176 235 284 338 412
#     4  10  24  42  66  99 138 184 226 280 345 411
#
# _framework density 21.099767
#
# number of rings (size 3 to 8) (size 9 to 14) (size 15 to 20)
#    0.000    1.200    4.000    2.400    0.000    3.200 
#   18.000    0.000    0.000    0.000    0.000    0.000 
#    0.000    0.000    0.000    0.000    0.000    0.000 
#
# Total GULP energy -223561.568780 kJ/mol
# GULP energy per Si atom -5589.039219 kJ/mol
# Density = 2.105174 g / cm^3
# Si number density = 21.099767 Si / 1000 Ang^3
#
#
#
# Elastic Constant Matrix: (Units=GPa)
#
#
# Indices 1 2 3 4 5 6 
#
# 1 37.3899 6.7793 19.0673 0.0000 0.0000 0.0000
# 2 6.7793 91.3080 37.2153 0.0000 0.0000 0.0000
# 3 19.0673 37.2153 52.1836 0.0000 0.0000 0.0000
# 4 0.0000 0.0000 0.0000 31.9701 0.0000 0.0000
# 5 0.0000 0.0000 0.0000 0.0000 8.3934 0.0000
# 6 0.0000 0.0000 0.0000 0.0000 0.0000 10.0839
#
#
#
# Elastic Compliance Matrix: (Units=1/GPa)
#
#
# Indices 1 2 3 4 5 6 
#
# 1 0.033664 0.003544 -0.014828 0.000000 0.000000 0.000000
# 2 0.003544 0.015813 -0.012572 0.000000 0.000000 0.000000
# 3 -0.014828 -0.012572 0.033547 0.000000 0.000000 0.000000
# 4 0.000000 0.000000 0.000000 0.031279 0.000000 0.000000
# 5 0.000000 0.000000 0.000000 0.000000 0.119142 0.000000
# 6 0.000000 0.000000 0.000000 0.000000 0.000000 0.099168
#
#
# Mechanical properties :
#
#
# Convention : Reuss Voigt Hill
#
# Bulk Modulus (GPa) = 28.31889 34.11171 31.21530
# Shear Modulus (GPa) = 12.75198 17.94413 15.34805
#
# Velocity S-wave (km/s) = 2.46105 2.91940 2.69997
# Velocity P-wave (km/s) = 4.63964 5.25031 4.95440
#
# Compressibility (1/GPa) = 0.03531212
#
# Stress axis : x y z
#
# Youngs Moduli (GPa) = 29.70508 63.23920 29.80879
#
# Poissons Ratio (x) = -0.22413 0.44201
# Poissons Ratio (y) = -0.10528 0.37476
# Poissons Ratio (z) = 0.44047 0.79506
#
# Static dielectric constant tensor:
#      x y z
#    x 1.708960 0.000000 0.000000 
#    y 0.000000 1.788700 0.000000 
#    z 0.000000 0.000000 1.752080 
# 
# From -- ./inp_files/11605.got.cif
#   From: 2010.05.17/outbox.cif.g08.bks.cpg/sg52_6_cif.got.tgz:11605.got - 2010.06.03 12:15:38.
