data_PCOD9411746
_publ_section_title
;
Structure prediction by ZEFSAII (Michael W. Deem and Ramdas Pophale) SiO2 
 PCOD9411746
Probable space group: P N N A
;
_chemical_formula_sum "Si O2"
_cell_formula_units_Z 48
_cell_length_a 9.036755
_cell_length_b 26.276375
_cell_length_c 8.035651
_cell_angle_alpha 90.000000
_cell_angle_beta 90.000000
_cell_angle_gamma 90.000000
_cell_volume 1908.090748
_symmetry_space_group_name_H-M "P N N A"
_symmetry_group_IT_number 52
_symmetry_cell_setting 'orthorhombic'
loop_
_space_group_symop_operation_xyz
x,y,z
1/2-x,-y,z
x,1/2-y,1/2-z
1/2-x,1/2+y,1/2-z
-x,-y,-z
1/2+x,y,-z
-x,1/2+y,1/2+z
1/2+x,1/2-y,1/2+z
loop_
_atom_site_type_symbol
_atom_site_label
_atom_site_fract_x
_atom_site_fract_y
_atom_site_fract_z
Si Si1 0.850429 0.048260 0.407786
Si Si2 0.181698 0.450768 0.246488
Si Si3 0.884659 0.648003 0.536132
Si Si4 0.999489 0.205067 0.517407
Si Si5 0.770104 0.160997 0.313861
Si Si6 0.122370 0.687445 0.353169
O O1 0.807522 0.055434 0.603194
O O2 0.022829 0.042455 0.351869
O O3 0.792920 0.101349 0.336431
O O4 0.750000 0.000000 0.353568
O O5 0.250000 0.500000 0.339233
O O6 0.157739 0.404041 0.371303
O O7 0.201539 0.309933 0.355264
O O8 0.814306 0.664823 0.358703
O O9 0.055382 0.646866 0.484279
O O10 0.927548 0.187844 0.345297
O O11 0.951768 0.261267 0.574862
O O12 0.923732 0.172821 0.667814
O O13 0.167856 0.190156 0.550403
#
# Coordination Sequence:
#
# PCOD9411746 Si02
#       6
#     8   8   8   8   8   8
#     4  11  23  42  69 101 133 175 223 270 332 408
#     4  11  24  44  70 101 134 173 220 277 339 407
#     4  11  24  42  65  97 136 171 216 276 336 394
#     4  10  22  40  65  94 130 177 226 271 322 393
#     4  11  23  41  66  97 132 175 221 271 331 396
#     4  10  22  41  63  94 134 175 221 274 329 387
#
# _framework density 25.156033999999998
#
# number of rings (size 3 to 8) (size 9 to 14) (size 15 to 20)
#    0.000    1.333    0.000    6.000    0.000    8.000 
#    0.000    2.500    0.000    0.000    0.000    0.000 
#    0.000    0.000    0.000    0.000    0.000    0.000 
#
# Total GULP energy -267682.298230 kJ/mol
# GULP energy per Si atom -5576.714546 kJ/mol
# Density = 2.509878 g / cm^3
# Si number density = 25.156034 Si / 1000 Ang^3
#
#
#
# Elastic Constant Matrix: (Units=GPa)
#
#
# Indices 1 2 3 4 5 6 
#
# 1 171.9112 38.8537 49.3807 0.0000 0.0000 0.0000
# 2 38.8537 130.7823 7.9841 0.0000 0.0000 0.0000
# 3 49.3807 7.9841 78.0453 0.0000 0.0000 0.0000
# 4 0.0000 0.0000 0.0000 25.8689 0.0000 0.0000
# 5 0.0000 0.0000 0.0000 0.0000 40.8580 0.0000
# 6 0.0000 0.0000 0.0000 0.0000 0.0000 35.6245
#
#
#
# Elastic Compliance Matrix: (Units=1/GPa)
#
#
# Indices 1 2 3 4 5 6 
#
# 1 0.007583 -0.001972 -0.004596 0.000000 0.000000 0.000000
# 2 -0.001972 0.008207 0.000408 0.000000 0.000000 0.000000
# 3 -0.004596 0.000408 0.015679 0.000000 0.000000 0.000000
# 4 0.000000 0.000000 0.000000 0.038657 0.000000 0.000000
# 5 0.000000 0.000000 0.000000 0.000000 0.024475 0.000000
# 6 0.000000 0.000000 0.000000 0.000000 0.000000 0.028071
#
#
# Mechanical properties :
#
#
# Convention : Reuss Voigt Hill
#
# Bulk Modulus (GPa) = 52.22090 63.68621 57.95355
# Shear Modulus (GPa) = 35.36698 39.43830 37.40264
#
# Velocity S-wave (km/s) = 3.75361 3.96377 3.86012
# Velocity P-wave (km/s) = 6.29205 6.80589 6.55401
#
# Compressibility (1/GPa) = 0.01914942
#
# Stress axis : x y z
#
# Youngs Moduli (GPa) = 131.87570 121.84295 63.77824
#
# Poissons Ratio (x) = 0.24030 0.29313
# Poissons Ratio (y) = 0.26008 -0.02604
# Poissons Ratio (z) = 0.60611 -0.04974
#
# Static dielectric constant tensor:
#      x y z
#    x 2.113660 0.000000 0.000000 
#    y 0.000000 2.082050 0.000000 
#    z 0.000000 0.000000 2.058290 
# 
# From -- ./inp_files/8870.got.cif
#   From: 2010.05.17/outbox.cif.g08.bks.cpg/sg52_5_cif.got.tgz:8870.got - 2010.06.03 12:15:38.
