data_PCOD9411528
_publ_section_title
;
Structure prediction by ZEFSAII (Michael W. Deem and Ramdas Pophale) SiO2 
 PCOD9411528
Probable space group: P N N A
;
_chemical_formula_sum "Si O2"
_cell_formula_units_Z 64
_cell_length_a 8.823151
_cell_length_b 14.501576
_cell_length_c 25.234167
_cell_angle_alpha 90.000000
_cell_angle_beta 90.000000
_cell_angle_gamma 90.000000
_cell_volume 3228.701442
_symmetry_space_group_name_H-M "P N N A"
_symmetry_group_IT_number 52
_symmetry_cell_setting 'orthorhombic'
loop_
_space_group_symop_operation_xyz
x,y,z
1/2-x,-y,z
x,1/2-y,1/2-z
1/2-x,1/2+y,1/2-z
-x,-y,-z
1/2+x,y,-z
-x,1/2+y,1/2+z
1/2+x,1/2-y,1/2+z
loop_
_atom_site_type_symbol
_atom_site_label
_atom_site_fract_x
_atom_site_fract_y
_atom_site_fract_z
Si Si1 0.570783 0.508123 0.318823
Si Si2 0.852876 0.907560 0.625689
Si Si3 0.347440 0.595346 0.246211
Si Si4 0.413609 0.201262 0.411264
Si Si5 0.851520 0.374628 0.525032
Si Si6 0.577176 0.808001 0.800657
Si Si7 0.573384 0.014865 0.442487
Si Si8 0.525935 0.435625 0.567488
O O1 0.750000 0.500000 0.323367
O O2 0.509007 0.568154 0.269960
O O3 0.506584 0.404563 0.311709
O O4 0.499487 0.558174 0.370214
O O5 0.863685 0.872551 0.685741
O O6 0.757270 0.838359 0.589866
O O7 0.750000 0.000000 0.627758
O O8 0.005653 0.940113 0.598364
O O9 0.250000 0.500000 0.245270
O O10 0.247732 0.662048 0.283203
O O11 0.420434 0.279209 0.455591
O O12 0.434102 0.247131 0.353493
O O13 0.524986 0.116163 0.421971
O O14 0.680017 0.386332 0.546619
O O15 0.947156 0.458023 0.551007
O O16 0.881923 0.392628 0.463035
O O17 0.517863 0.750000 0.750000
O O18 0.750000 0.000000 0.447090
O O19 0.500000 0.000000 0.500000
#
# Coordination Sequence:
#
# PCOD9411528 Si02
#       8
#     8   8   8   8   8   8   8   8
#     4  11  24  39  61  92 136 172 212 259 329 388
#     4   9  19  38  64  92 119 162 213 268 324 384
#     4   9  19  37  63  89 121 163 211 254 317 391
#     4  11  21  40  68  94 124 170 221 276 326 389
#     4  10  22  37  61  91 123 168 216 259 322 378
#     4  11  21  40  67  95 124 165 222 269 318 390
#     4  11  25  45  65  93 133 175 227 283 337 397
#     4  10  22  39  59  90 131 171 213 262 313 394
#
# _framework density 19.822210999999999
#
# number of rings (size 3 to 8) (size 9 to 14) (size 15 to 20)
#    0.000    1.750    2.500    1.875    8.750    2.500 
#    0.000    3.125    0.000    0.000    0.000    0.000 
#    0.000    0.000    0.000    0.000    0.000    0.000 
#
# Total GULP energy -357206.524258 kJ/mol
# GULP energy per Si atom -5581.351942 kJ/mol
# Density = 1.977709 g / cm^3
# Si number density = 19.822211 Si / 1000 Ang^3
#
#
#
# Elastic Constant Matrix: (Units=GPa)
#
#
# Indices 1 2 3 4 5 6 
#
# 1 127.9447 37.3296 44.3750 0.0000 0.0000 0.0000
# 2 37.3296 96.1211 40.4270 0.0000 0.0000 0.0000
# 3 44.3750 40.4270 90.9677 0.0000 0.0000 0.0000
# 4 0.0000 0.0000 0.0000 33.3406 0.0000 0.0000
# 5 0.0000 0.0000 0.0000 0.0000 23.6718 0.0000
# 6 0.0000 0.0000 0.0000 0.0000 0.0000 14.7763
#
#
#
# Elastic Compliance Matrix: (Units=1/GPa)
#
#
# Indices 1 2 3 4 5 6 
#
# 1 0.009772 -0.002202 -0.003789 0.000000 0.000000 0.000000
# 2 -0.002202 0.013291 -0.004833 0.000000 0.000000 0.000000
# 3 -0.003789 -0.004833 0.014989 0.000000 0.000000 0.000000
# 4 0.000000 0.000000 0.000000 0.029993 0.000000 0.000000
# 5 0.000000 0.000000 0.000000 0.000000 0.042244 0.000000
# 6 0.000000 0.000000 0.000000 0.000000 0.000000 0.067676
#
#
# Mechanical properties :
#
#
# Convention : Reuss Voigt Hill
#
# Bulk Modulus (GPa) = 60.95273 62.14410 61.54841
# Shear Modulus (GPa) = 24.38067 27.21785 25.79926
#
# Velocity S-wave (km/s) = 3.51089 3.70955 3.61159
# Velocity P-wave (km/s) = 6.87398 7.05454 6.96485
#
# Compressibility (1/GPa) = 0.01640616
#
# Stress axis : x y z
#
# Youngs Moduli (GPa) = 102.33064 75.23787 66.71690
#
# Poissons Ratio (x) = 0.16566 0.25276
# Poissons Ratio (y) = 0.22531 0.32242
# Poissons Ratio (z) = 0.38768 0.36360
#
# Static dielectric constant tensor:
#      x y z
#    x 1.685110 0.000000 0.000000 
#    y 0.000000 1.712140 0.000000 
#    z 0.000000 0.000000 1.711940 
# 
# From -- ./inp_files/39677.got.cif
#   From: 2010.05.17/outbox.cif.g08.bks.cpg/sg52_20_cif.got.tgz:39677.got - 2010.06.03 12:15:38.
