data_PCOD9411087
_publ_section_title
;
Structure prediction by ZEFSAII (Michael W. Deem and Ramdas Pophale) SiO2 
 PCOD9411087
Probable space group: P N N A
;
_chemical_formula_sum "Si O2"
_cell_formula_units_Z 64
_cell_length_a 11.514843
_cell_length_b 30.559284
_cell_length_c 9.183054
_cell_angle_alpha 90.000000
_cell_angle_beta 90.000000
_cell_angle_gamma 90.000000
_cell_volume 3231.382239
_symmetry_space_group_name_H-M "P N N A"
_symmetry_group_IT_number 52
_symmetry_cell_setting 'orthorhombic'
loop_
_space_group_symop_operation_xyz
x,y,z
1/2-x,-y,z
x,1/2-y,1/2-z
1/2-x,1/2+y,1/2-z
-x,-y,-z
1/2+x,y,-z
-x,1/2+y,1/2+z
1/2+x,1/2-y,1/2+z
loop_
_atom_site_type_symbol
_atom_site_label
_atom_site_fract_x
_atom_site_fract_y
_atom_site_fract_z
Si Si1 0.297109 0.826192 0.941695
Si Si2 0.991473 0.798110 0.276862
Si Si3 0.361469 0.618867 0.284897
Si Si4 0.375754 0.381713 0.753779
Si Si5 0.760100 0.733815 0.086954
Si Si6 0.126808 0.484985 0.327627
Si Si7 0.871022 0.481801 0.336171
Si Si8 0.829196 0.148384 0.560204
O O1 0.418703 0.814377 0.863339
O O2 0.214172 0.848870 0.822791
O O3 0.253478 0.779196 0.998801
O O4 0.309528 0.858578 0.073746
O O5 0.047969 0.750000 0.250000
O O6 0.068827 0.838432 0.329095
O O7 0.890037 0.785584 0.393001
O O8 0.493095 0.634798 0.265084
O O9 0.367338 0.567281 0.315839
O O10 0.281380 0.631495 0.148884
O O11 0.365666 0.429403 0.680465
O O12 0.355100 0.384029 0.927099
O O13 0.726302 0.750000 0.250000
O O14 0.688993 0.695202 0.017968
O O15 0.250000 0.500000 0.259853
O O16 0.127514 0.502945 0.494296
O O17 0.996474 0.497032 0.271710
O O18 0.750000 0.500000 0.272489
#
# Coordination Sequence:
#
# PCOD9411087 Si02
#       8
#     8   8   8   8   8   8   8   8
#     4  10  21  40  61  93 123 172 225 266 320 372
#     4   9  21  39  59  83 127 172 216 267 315 372
#     4  11  26  38  66 101 125 166 217 269 326 388
#     4  11  23  41  65  92 135 164 216 266 325 388
#     4   9  19  40  58  85 123 175 214 261 312 371
#     4   9  18  39  61  92 128 151 201 265 321 389
#     4   9  18  36  63  93 118 162 201 257 320 391
#     4  12  23  41  61  92 134 169 216 271 322 376
#
# _framework density 19.805765999999998
#
# number of rings (size 3 to 8) (size 9 to 14) (size 15 to 20)
#    0.000    2.250    2.500    2.250    3.500    1.000 
#    2.250    0.625    0.000    3.000    0.000    0.000 
#    0.000    0.000    0.000    0.000    0.000    0.000 
#
# Total GULP energy -356464.298743 kJ/mol
# GULP energy per Si atom -5569.754668 kJ/mol
# Density = 1.976069 g / cm^3
# Si number density = 19.805766 Si / 1000 Ang^3
#
#
#
# Elastic Constant Matrix: (Units=GPa)
#
#
# Indices 1 2 3 4 5 6 
#
# 1 82.6598 23.1535 25.2928 0.0000 0.0000 0.0000
# 2 23.1535 62.4404 20.9725 0.0000 0.0000 0.0000
# 3 25.2928 20.9725 62.8723 0.0000 0.0000 0.0000
# 4 0.0000 0.0000 0.0000 24.9780 0.0000 0.0000
# 5 0.0000 0.0000 0.0000 0.0000 21.2641 0.0000
# 6 0.0000 0.0000 0.0000 0.0000 0.0000 67.3011
#
#
#
# Elastic Compliance Matrix: (Units=1/GPa)
#
#
# Indices 1 2 3 4 5 6 
#
# 1 0.014582 -0.003870 -0.004575 0.000000 0.000000 0.000000
# 2 -0.003870 0.019063 -0.004802 0.000000 0.000000 0.000000
# 3 -0.004575 -0.004802 0.019348 0.000000 0.000000 0.000000
# 4 0.000000 0.000000 0.000000 0.040035 0.000000 0.000000
# 5 0.000000 0.000000 0.000000 0.000000 0.047028 0.000000
# 6 0.000000 0.000000 0.000000 0.000000 0.000000 0.014859
#
#
# Mechanical properties :
#
#
# Convention : Reuss Voigt Hill
#
# Bulk Modulus (GPa) = 37.73894 38.53447 38.13670
# Shear Modulus (GPa) = 26.28234 31.94554 29.11394
#
# Velocity S-wave (km/s) = 3.64676 4.02050 3.83818
# Velocity P-wave (km/s) = 6.06858 6.40711 6.24014
#
# Compressibility (1/GPa) = 0.02649783
#
# Stress axis : x y z
#
# Youngs Moduli (GPa) = 68.57861 52.45664 51.68607
#
# Poissons Ratio (x) = 0.20303 0.23647
# Poissons Ratio (y) = 0.26543 0.24820
# Poissons Ratio (z) = 0.31375 0.25190
#
# Static dielectric constant tensor:
#      x y z
#    x 1.750560 0.000000 0.000000 
#    y 0.000000 1.703740 0.000000 
#    z 0.000000 0.000000 1.709970 
# 
# From -- ./inp_files/9142.got.cif
#   From: 2010.05.17/outbox.cif.g08.bks.cpg/sg52_5_cif.got.tgz:9142.got - 2010.06.03 12:15:38.
