data_PCOD9411866
_publ_section_title
;
Structure prediction by ZEFSAII (Michael W. Deem and Ramdas Pophale) SiO2 
 PCOD9411866
Probable space group: P N N A
;
_chemical_formula_sum "Si O2"
_cell_formula_units_Z 36
_cell_length_a 21.654189
_cell_length_b 5.560852
_cell_length_c 14.346583
_cell_angle_alpha 90.000000
_cell_angle_beta 90.000000
_cell_angle_gamma 90.000000
_cell_volume 1727.554411
_symmetry_space_group_name_H-M "P N N A"
_symmetry_group_IT_number 52
_symmetry_cell_setting 'orthorhombic'
loop_
_space_group_symop_operation_xyz
x,y,z
1/2-x,-y,z
x,1/2-y,1/2-z
1/2-x,1/2+y,1/2-z
-x,-y,-z
1/2+x,y,-z
-x,1/2+y,1/2+z
1/2+x,1/2-y,1/2+z
loop_
_atom_site_type_symbol
_atom_site_label
_atom_site_fract_x
_atom_site_fract_y
_atom_site_fract_z
Si Si1 0.250000 0.500000 0.308528
Si Si2 0.117265 0.379627 0.348864
Si Si3 0.408063 0.907513 0.536973
Si Si4 0.784834 0.748335 0.137371
Si Si5 0.465469 0.203147 0.058516
O O1 0.243241 0.750000 0.250000
O O2 0.187027 0.468022 0.364533
O O3 0.115446 0.250000 0.250000
O O4 0.098473 0.208997 0.434108
O O5 0.069486 0.597298 0.353735
O O6 0.353477 0.793635 0.596658
O O7 0.476180 0.870496 0.581373
O O8 0.412621 0.187230 0.509128
O O9 0.750000 0.500000 0.108852
O O10 0.787724 0.750000 0.250000
O O11 0.750000 0.000000 0.110174
O O12 0.500000 0.000000 0.000000
#
# Coordination Sequence:
#
# PCOD9411866 Si02
#       5
#     4   8   8   8   8
#     4  10  24  40  58  92 134 168 220 260 308 390
#     4  10  23  40  62  93 132 174 216 267 325 398
#     4  10  22  41  66  94 129 174 219 275 340 397
#     4  10  24  45  68  99 132 170 227 283 338 404
#     4   9  21  41  62  92 131 165 225 272 326 405
#
# _framework density 20.838709000000001
#
# number of rings (size 3 to 8) (size 9 to 14) (size 15 to 20)
#    0.000    2.222    0.000    0.000   14.000    0.000 
#   14.000    0.000    0.000    0.000    0.000    0.000 
#    0.000    0.000    0.000    0.000    0.000    0.000 
#
# Total GULP energy -200405.446347 kJ/mol
# GULP energy per Si atom -5566.817954 kJ/mol
# Density = 2.079128 g / cm^3
# Si number density = 20.838709 Si / 1000 Ang^3
#
#
#
# Elastic Constant Matrix: (Units=GPa)
#
#
# Indices 1 2 3 4 5 6 
#
# 1 155.3112 51.2158 46.6813 0.0000 0.0000 0.0000
# 2 51.2158 110.4027 23.4085 0.0000 0.0000 0.0000
# 3 46.6813 23.4085 43.8267 0.0000 0.0000 0.0000
# 4 0.0000 0.0000 0.0000 14.9823 0.0000 0.0000
# 5 0.0000 0.0000 0.0000 0.0000 31.5737 0.0000
# 6 0.0000 0.0000 0.0000 0.0000 0.0000 37.8999
#
#
#
# Elastic Compliance Matrix: (Units=1/GPa)
#
#
# Indices 1 2 3 4 5 6 
#
# 1 0.010149 -0.002725 -0.009355 0.000000 0.000000 0.000000
# 2 -0.002725 0.010946 -0.002944 0.000000 0.000000 0.000000
# 3 -0.009355 -0.002944 0.034354 0.000000 0.000000 0.000000
# 4 0.000000 0.000000 0.000000 0.066745 0.000000 0.000000
# 5 0.000000 0.000000 0.000000 0.000000 0.031672 0.000000
# 6 0.000000 0.000000 0.000000 0.000000 0.000000 0.026385
#
#
# Mechanical properties :
#
#
# Convention : Reuss Voigt Hill
#
# Bulk Modulus (GPa) = 39.36797 61.35019 50.35908
# Shear Modulus (GPa) = 22.85556 29.44019 26.14788
#
# Velocity S-wave (km/s) = 3.31537 3.76275 3.54612
# Velocity P-wave (km/s) = 5.79554 6.95573 6.40197
#
# Compressibility (1/GPa) = 0.02540136
#
# Stress axis : x y z
#
# Youngs Moduli (GPa) = 98.53351 91.35781 29.10899
#
# Poissons Ratio (x) = 0.24891 0.27230
# Poissons Ratio (y) = 0.26846 0.08571
# Poissons Ratio (z) = 0.92174 0.26899
#
# Static dielectric constant tensor:
#      x y z
#    x 1.767970 0.000000 0.000000 
#    y 0.000000 -2.675350 0.000000 
#    z 0.000000 0.000000 1.713300 
# 
# From -- ./inp_files/28472.got.cif
#   From: 2010.05.17/outbox.cif.g08.bks.cpg/sg52_15_cif.got.tgz:28472.got - 2010.06.03 12:15:38.
