data_PCOD9411511
_publ_section_title
;
Structure prediction by ZEFSAII (Michael W. Deem and Ramdas Pophale) SiO2 
 PCOD9411511
Probable space group: P N N A
;
_chemical_formula_sum "Si O2"
_cell_formula_units_Z 44
_cell_length_a 14.838360
_cell_length_b 15.947935
_cell_length_c 8.254450
_cell_angle_alpha 90.000000
_cell_angle_beta 90.000000
_cell_angle_gamma 90.000000
_cell_volume 1953.342960
_symmetry_space_group_name_H-M "P N N A"
_symmetry_group_IT_number 52
_symmetry_cell_setting 'orthorhombic'
loop_
_space_group_symop_operation_xyz
x,y,z
1/2-x,-y,z
x,1/2-y,1/2-z
1/2-x,1/2+y,1/2-z
-x,-y,-z
1/2+x,y,-z
-x,1/2+y,1/2+z
1/2+x,1/2-y,1/2+z
loop_
_atom_site_type_symbol
_atom_site_label
_atom_site_fract_x
_atom_site_fract_y
_atom_site_fract_z
Si Si1 0.977221 0.191056 0.414361
Si Si2 0.704535 0.703382 0.918404
Si Si3 0.750000 0.000000 0.856978
Si Si4 0.569570 0.250000 0.250000
Si Si5 0.750000 0.000000 0.338600
Si Si6 0.136337 0.433153 0.109647
Si Si7 0.777695 0.641569 0.384888
O O1 0.972843 0.250000 0.250000
O O2 0.021014 0.234684 0.576483
O O3 0.041623 0.112226 0.374832
O O4 0.881492 0.166405 0.490560
O O5 0.680424 0.750000 0.750000
O O6 0.786785 0.640568 0.880361
O O7 0.737445 0.773523 0.045693
O O8 0.663040 0.995623 0.740156
O O9 0.720604 0.078782 0.963528
O O10 0.632206 0.329913 0.293305
O O11 0.836775 0.974918 0.441741
O O12 0.724430 0.918346 0.236064
#
# Coordination Sequence:
#
# PCOD9411511 Si02
#       7
#     8   8   4   4   4   8   8
#     4  12  26  41  70 102 137 180 238 296 341 404
#     4  12  24  42  72 101 136 183 249 288 337 420
#     4  10  22  38  72 102 138 184 222 286 366 418
#     4  12  22  44  72 100 132 182 242 292 338 422
#     4  10  22  36  70  96 134 178 220 278 362 426
#     4  11  22  45  67  97 136 186 228 284 355 418
#     4  11  21  40  71 102 129 180 232 288 351 410
#
# _framework density 22.525486000000001
#
# number of rings (size 3 to 8) (size 9 to 14) (size 15 to 20)
#    0.000    0.727    6.364    1.636    3.818    0.000 
#    0.000    3.636    8.000    5.455    0.000    0.000 
#    0.000    0.000    0.000    0.000    0.000    0.000 
#
# Total GULP energy -245300.655702 kJ/mol
# GULP energy per Si atom -5575.014902 kJ/mol
# Density = 2.247422 g / cm^3
# Si number density = 22.525486 Si / 1000 Ang^3
#
#
#
# Elastic Constant Matrix: (Units=GPa)
#
#
# Indices 1 2 3 4 5 6 
#
# 1 74.3364 15.5747 30.4099 0.0000 0.0000 0.0000
# 2 15.5747 76.6335 31.2356 0.0000 0.0000 0.0000
# 3 30.4099 31.2356 153.4530 0.0000 0.0000 0.0000
# 4 0.0000 0.0000 0.0000 67.6623 0.0000 0.0000
# 5 0.0000 0.0000 0.0000 0.0000 31.4121 0.0000
# 6 0.0000 0.0000 0.0000 0.0000 0.0000 16.2222
#
#
#
# Elastic Compliance Matrix: (Units=1/GPa)
#
#
# Indices 1 2 3 4 5 6 
#
# 1 0.014913 -0.001991 -0.002550 0.000000 0.000000 0.000000
# 2 -0.001991 0.014496 -0.002556 0.000000 0.000000 0.000000
# 3 -0.002550 -0.002556 0.007542 0.000000 0.000000 0.000000
# 4 0.000000 0.000000 0.000000 0.014779 0.000000 0.000000
# 5 0.000000 0.000000 0.000000 0.000000 0.031835 0.000000
# 6 0.000000 0.000000 0.000000 0.000000 0.000000 0.061644
#
#
# Mechanical properties :
#
#
# Convention : Reuss Voigt Hill
#
# Bulk Modulus (GPa) = 43.94451 50.98480 47.46466
# Shear Modulus (GPa) = 29.94213 38.20617 34.07415
#
# Velocity S-wave (km/s) = 3.64985 4.12288 3.89356
# Velocity P-wave (km/s) = 6.10844 6.73406 6.42887
#
# Compressibility (1/GPa) = 0.02275597
#
# Stress axis : x y z
#
# Youngs Moduli (GPa) = 67.05678 68.98613 132.58654
#
# Poissons Ratio (x) = 0.13738 0.33808
# Poissons Ratio (y) = 0.13354 0.33889
# Poissons Ratio (z) = 0.17099 0.17633
#
# Static dielectric constant tensor:
#      x y z
#    x 1.866390 0.000000 0.000000 
#    y 0.000000 2.129560 0.000000 
#    z 0.000000 0.000000 1.943150 
# 
# From -- ./inp_files/10404.got.cif
#   From: 2010.05.17/outbox.cif.g08.bks.cpg/sg52_6_cif.got.tgz:10404.got - 2010.06.03 12:15:38.
