data_PCOD9411752
_publ_section_title
;
Structure prediction by ZEFSAII (Michael W. Deem and Ramdas Pophale) SiO2 
 PCOD9411752
Probable space group: P N N A
;
_chemical_formula_sum "Si O2"
_cell_formula_units_Z 36
_cell_length_a 5.412553
_cell_length_b 11.655840
_cell_length_c 23.895651
_cell_angle_alpha 90.000000
_cell_angle_beta 90.000000
_cell_angle_gamma 90.000000
_cell_volume 1507.525288
_symmetry_space_group_name_H-M "P N N A"
_symmetry_group_IT_number 52
_symmetry_cell_setting 'orthorhombic'
loop_
_space_group_symop_operation_xyz
x,y,z
1/2-x,-y,z
x,1/2-y,1/2-z
1/2-x,1/2+y,1/2-z
-x,-y,-z
1/2+x,y,-z
-x,1/2+y,1/2+z
1/2+x,1/2-y,1/2+z
loop_
_atom_site_type_symbol
_atom_site_label
_atom_site_fract_x
_atom_site_fract_y
_atom_site_fract_z
Si Si1 0.500217 0.738178 0.983015
Si Si2 0.400628 0.750000 0.750000
Si Si3 0.250000 0.000000 0.344575
Si Si4 0.799253 0.250772 0.865626
Si Si5 0.250000 0.500000 0.773420
Si Si6 0.501752 0.926482 0.079758
O O1 0.518424 0.771623 0.918123
O O2 0.248677 0.675831 0.997804
O O3 0.511298 0.851497 0.022929
O O4 0.570958 0.755417 0.805750
O O5 0.251599 0.628962 0.747083
O O6 0.275461 0.881591 0.376626
O O7 0.497286 0.004998 0.308023
O O8 0.566680 0.166448 0.872266
O O9 0.750000 0.000000 0.087980
O O10 0.250000 0.000000 0.078035
#
# Coordination Sequence:
#
# PCOD9411752 Si02
#       6
#     8   4   4   8   4   8
#     4  10  22  40  66 101 141 184 230 292 371 428
#     4  10  24  52  76 110 152 192 266 300 380 446
#     4  10  24  48  74  95 146 193 236 306 372 416
#     4  10  24  47  74 104 143 201 241 307 367 443
#     4  10  24  48  76 101 146 197 240 316 360 440
#     4  11  24  44  69 107 151 185 232 307 375 436
#
# _framework density 23.880195000000001
#
# number of rings (size 3 to 8) (size 9 to 14) (size 15 to 20)
#    0.000    1.778    0.000    2.667    0.000   24.889 
#   20.000    4.444    0.000    1.333    0.000    1.556 
#    0.000    0.000    0.000    0.000    0.000    0.000 
#
# Total GULP energy -200959.819664 kJ/mol
# GULP energy per Si atom -5582.217213 kJ/mol
# Density = 2.382584 g / cm^3
# Si number density = 23.880195 Si / 1000 Ang^3
#
#
#
# Elastic Constant Matrix: (Units=GPa)
#
#
# Indices 1 2 3 4 5 6 
#
# 1 153.3870 16.0732 45.9702 0.0000 0.0000 0.0000
# 2 16.0732 148.8874 33.8165 0.0000 0.0000 0.0000
# 3 45.9702 33.8165 145.5949 0.0000 0.0000 0.0000
# 4 0.0000 0.0000 0.0000 37.9433 0.0000 0.0000
# 5 0.0000 0.0000 0.0000 0.0000 37.8458 0.0000
# 6 0.0000 0.0000 0.0000 0.0000 0.0000 12.5884
#
#
#
# Elastic Compliance Matrix: (Units=1/GPa)
#
#
# Indices 1 2 3 4 5 6 
#
# 1 0.007212 -0.000276 -0.002213 0.000000 0.000000 0.000000
# 2 -0.000276 0.007101 -0.001562 0.000000 0.000000 0.000000
# 3 -0.002213 -0.001562 0.007930 0.000000 0.000000 0.000000
# 4 0.000000 0.000000 0.000000 0.026355 0.000000 0.000000
# 5 0.000000 0.000000 0.000000 0.000000 0.026423 0.000000
# 6 0.000000 0.000000 0.000000 0.000000 0.000000 0.079438
#
#
# Mechanical properties :
#
#
# Convention : Reuss Voigt Hill
#
# Bulk Modulus (GPa) = 70.71870 71.06545 70.89207
# Shear Modulus (GPa) = 29.89097 41.14280 35.51688
#
# Velocity S-wave (km/s) = 3.54178 4.15527 3.86073
# Velocity P-wave (km/s) = 6.81204 7.26949 7.04448
#
# Compressibility (1/GPa) = 0.01414053
#
# Stress axis : x y z
#
# Youngs Moduli (GPa) = 138.66595 140.82336 126.10464
#
# Poissons Ratio (x) = 0.03886 0.27906
# Poissons Ratio (y) = 0.03826 0.19700
# Poissons Ratio (z) = 0.30685 0.22000
#
# Static dielectric constant tensor:
#      x y z
#    x 1.973090 0.000000 0.000000 
#    y 0.000000 2.006520 0.000000 
#    z 0.000000 0.000000 1.927360 
# 
# From -- ./inp_files/38585.got.cif
#   From: 2010.05.17/outbox.cif.g08.bks.cpg/sg52_20_cif.got.tgz:38585.got - 2010.06.03 12:15:38.
