data_PCOD9411461
_publ_section_title
;
Structure prediction by ZEFSAII (Michael W. Deem and Ramdas Pophale) SiO2 
 PCOD9411461
Probable space group: P N N A
;
_chemical_formula_sum "Si O2"
_cell_formula_units_Z 52
_cell_length_a 21.934335
_cell_length_b 11.022982
_cell_length_c 8.992247
_cell_angle_alpha 90.000000
_cell_angle_beta 90.000000
_cell_angle_gamma 90.000000
_cell_volume 2174.161485
_symmetry_space_group_name_H-M "P N N A"
_symmetry_group_IT_number 52
_symmetry_cell_setting 'orthorhombic'
loop_
_space_group_symop_operation_xyz
x,y,z
1/2-x,-y,z
x,1/2-y,1/2-z
1/2-x,1/2+y,1/2-z
-x,-y,-z
1/2+x,y,-z
-x,1/2+y,1/2+z
1/2+x,1/2-y,1/2+z
loop_
_atom_site_type_symbol
_atom_site_label
_atom_site_fract_x
_atom_site_fract_y
_atom_site_fract_z
Si Si1 0.847416 0.084459 0.992251
Si Si2 0.955547 0.261750 0.492237
Si Si3 0.236937 0.819877 0.470797
Si Si4 0.622977 0.307575 0.024518
Si Si5 0.548889 0.250000 0.750000
Si Si6 0.750000 0.000000 0.798156
Si Si7 0.366183 0.435592 0.842763
Si Si8 0.460386 0.750000 0.750000
O O1 0.855678 0.065868 0.167328
O O2 0.913480 0.131670 0.941009
O O3 0.801656 0.197574 0.970875
O O4 0.810985 0.984588 0.898194
O O5 0.912371 0.166635 0.405613
O O6 0.002738 0.311947 0.368249
O O7 0.991754 0.198084 0.627310
O O8 0.305064 0.793054 0.522364
O O9 0.240586 0.887757 0.313549
O O10 0.198217 0.906749 0.579186
O O11 0.610181 0.434659 0.105730
O O12 0.588590 0.206242 0.123940
O O13 0.593782 0.319265 0.861610
#
# Coordination Sequence:
#
# PCOD9411461 Si02
#       8
#     8   8   8   8   4   4   8   4
#     4  11  26  43  76  99 142 187 238 299 357 431
#     4  10  21  48  69  98 137 189 250 282 361 418
#     4  11  24  45  70 102 144 187 229 297 377 419
#     4  11  25  43  68 103 145 179 237 294 367 424
#     4  10  22  44  68  96 138 192 228 296 356 434
#     4  12  26  40  68 118 134 174 240 296 366 432
#     4  11  23  46  76  98 135 193 242 298 347 449
#     4  10  26  38  70 102 138 188 232 300 352 430
#
# _framework density 23.917266999999999
#
# number of rings (size 3 to 8) (size 9 to 14) (size 15 to 20)
#    0.000    1.231    3.077    1.846   10.769    2.462 
#    2.769    0.769    0.000    0.000    0.000    0.000 
#    0.000    0.000    0.000    0.000    0.000    0.000 
#
# Total GULP energy -290079.365764 kJ/mol
# GULP energy per Si atom -5578.449342 kJ/mol
# Density = 2.386283 g / cm^3
# Si number density = 23.917267 Si / 1000 Ang^3
#
#
#
# Elastic Constant Matrix: (Units=GPa)
#
#
# Indices 1 2 3 4 5 6 
#
# 1 166.4383 16.2708 81.3684 0.0000 0.0000 0.0000
# 2 16.2708 67.3031 44.3909 0.0000 0.0000 0.0000
# 3 81.3684 44.3909 165.7766 0.0000 0.0000 0.0000
# 4 0.0000 0.0000 0.0000 32.9626 0.0000 0.0000
# 5 0.0000 0.0000 0.0000 0.0000 56.1079 0.0000
# 6 0.0000 0.0000 0.0000 0.0000 0.0000 10.5561
#
#
#
# Elastic Compliance Matrix: (Units=1/GPa)
#
#
# Indices 1 2 3 4 5 6 
#
# 1 0.007940 0.000791 -0.004109 0.000000 0.000000 0.000000
# 2 0.000791 0.018124 -0.005241 0.000000 0.000000 0.000000
# 3 -0.004109 -0.005241 0.009452 0.000000 0.000000 0.000000
# 4 0.000000 0.000000 0.000000 0.030337 0.000000 0.000000
# 5 0.000000 0.000000 0.000000 0.000000 0.017823 0.000000
# 6 0.000000 0.000000 0.000000 0.000000 0.000000 0.094732
#
#
# Mechanical properties :
#
#
# Convention : Reuss Voigt Hill
#
# Bulk Modulus (GPa) = 54.35599 75.95314 65.15457
# Shear Modulus (GPa) = 24.79435 37.09119 30.94277
#
# Velocity S-wave (km/s) = 3.22323 3.94231 3.60076
# Velocity P-wave (km/s) = 6.05213 7.24900 6.67743
#
# Compressibility (1/GPa) = 0.01839724
#
# Stress axis : x y z
#
# Youngs Moduli (GPa) = 125.95072 55.17563 105.79379
#
# Poissons Ratio (x) = -0.04362 0.43467
# Poissons Ratio (y) = -0.09957 0.55448
# Poissons Ratio (z) = 0.51749 0.28918
#
# Static dielectric constant tensor:
#      x y z
#    x 1.941620 0.000000 0.000000 
#    y 0.000000 2.066960 0.000000 
#    z 0.000000 0.000000 1.903950 
# 
# From -- ./inp_files/13404.got.cif
#   From: 2010.05.17/outbox.cif.g08.bks.cpg/sg52_7_cif.got.tgz:13404.got - 2010.06.03 12:15:38.
