data_PCOD9411868
_publ_section_title
;
Structure prediction by ZEFSAII (Michael W. Deem and Ramdas Pophale) SiO2 
 PCOD9411868
Probable space group: P N N A
;
_chemical_formula_sum "Si O2"
_cell_formula_units_Z 48
_cell_length_a 14.013994
_cell_length_b 8.973801
_cell_length_c 18.243142
_cell_angle_alpha 90.000000
_cell_angle_beta 90.000000
_cell_angle_gamma 90.000000
_cell_volume 2294.235525
_symmetry_space_group_name_H-M "P N N A"
_symmetry_group_IT_number 52
_symmetry_cell_setting 'orthorhombic'
loop_
_space_group_symop_operation_xyz
x,y,z
1/2-x,-y,z
x,1/2-y,1/2-z
1/2-x,1/2+y,1/2-z
-x,-y,-z
1/2+x,y,-z
-x,1/2+y,1/2+z
1/2+x,1/2-y,1/2+z
loop_
_atom_site_type_symbol
_atom_site_label
_atom_site_fract_x
_atom_site_fract_y
_atom_site_fract_z
Si Si1 0.359846 0.538599 0.000215
Si Si2 0.574697 0.259642 0.372479
Si Si3 0.574560 0.797293 0.990514
Si Si4 0.090764 0.209970 0.100141
Si Si5 0.638021 0.467631 0.252480
Si Si6 0.250000 0.500000 0.458300
Si Si7 0.990123 0.250000 0.250000
O O1 0.250000 0.500000 0.000682
O O2 0.377577 0.666843 0.939250
O O3 0.409951 0.378562 0.990995
O O4 0.389296 0.620578 0.074846
O O5 0.471665 0.298713 0.408262
O O6 0.621489 0.406115 0.335476
O O7 0.590670 0.146157 0.305407
O O8 0.671018 0.894028 0.997884
O O9 0.493035 0.850113 0.046656
O O10 0.184719 0.113395 0.087230
O O11 0.054451 0.208715 0.181613
O O12 0.750000 0.500000 0.240352
O O13 0.580310 0.614894 0.236164
#
# Coordination Sequence:
#
# PCOD9411868 Si02
#       7
#     8   8   8   8   8   4   4
#     4  11  21  43  70  99 126 181 241 284 347 416
#     4  10  22  41  66  97 137 177 225 287 345 408
#     4  11  23  44  70 100 138 181 236 296 351 411
#     4  11  25  45  67 100 137 187 231 298 348 414
#     4  11  23  41  66 102 139 182 224 278 355 431
#     4  12  24  44  66 106 140 178 244 286 358 412
#     4  12  24  46  64  96 146 180 230 284 358 418
#
# _framework density 20.922001000000002
#
# number of rings (size 3 to 8) (size 9 to 14) (size 15 to 20)
#    0.000    1.000    1.667    7.000    0.000    2.667 
#    9.000    1.667    0.000    0.000    0.000    0.000 
#    0.000    0.000    0.000    0.000    0.000    0.000 
#
# Total GULP energy -267903.115039 kJ/mol
# GULP energy per Si atom -5581.314897 kJ/mol
# Density = 2.087438 g / cm^3
# Si number density = 20.922001 Si / 1000 Ang^3
#
#
#
# Elastic Constant Matrix: (Units=GPa)
#
#
# Indices 1 2 3 4 5 6 
#
# 1 143.3652 32.6250 37.3612 0.0000 0.0000 0.0000
# 2 32.6250 56.8064 -14.5503 0.0000 0.0000 0.0000
# 3 37.3612 -14.5503 68.1346 0.0000 0.0000 0.0000
# 4 0.0000 0.0000 0.0000 31.9246 0.0000 0.0000
# 5 0.0000 0.0000 0.0000 0.0000 1.4913 0.0000
# 6 0.0000 0.0000 0.0000 0.0000 0.0000 350.5351
#
#
#
# Elastic Compliance Matrix: (Units=1/GPa)
#
#
# Indices 1 2 3 4 5 6 
#
# 1 0.010849 -0.008203 -0.007701 0.000000 0.000000 0.000000
# 2 -0.008203 0.024825 0.009800 0.000000 0.000000 0.000000
# 3 -0.007701 0.009800 0.020992 0.000000 0.000000 0.000000
# 4 0.000000 0.000000 0.000000 0.031324 0.000000 0.000000
# 5 0.000000 0.000000 0.000000 0.000000 0.670561 0.000000
# 6 0.000000 0.000000 0.000000 0.000000 0.000000 0.002853
#
#
# Mechanical properties :
#
#
# Convention : Reuss Voigt Hill
#
# Bulk Modulus (GPa) = 22.49344 42.13089 32.31216
# Shear Modulus (GPa) = 6.34171 90.98155 48.66163
#
# Velocity S-wave (km/s) = 1.74290 6.60155 4.82795
# Velocity P-wave (km/s) = 3.85029 8.84806 6.82323
#
# Compressibility (1/GPa) = 0.04445741
#
# Stress axis : x y z
#
# Youngs Moduli (GPa) = 92.17672 40.28219 47.63687
#
# Poissons Ratio (x) = 0.33044 0.36683
# Poissons Ratio (y) = 0.75613 -0.46682
# Poissons Ratio (z) = 0.70982 -0.39475
#
# Static dielectric constant tensor:
#      x y z
#    x 1.738150 0.000000 0.000000 
#    y 0.000000 2.048970 0.000000 
#    z 0.000000 0.000000 1.764230 
# 
# From -- ./inp_files/33096.got.cif
#   From: 2010.05.17/outbox.cif.g08.bks.cpg/sg52_17_cif.got.tgz:33096.got - 2010.06.03 12:15:38.
