data_PCOD9411540
_publ_section_title
;
Structure prediction by ZEFSAII (Michael W. Deem and Ramdas Pophale) SiO2 
 PCOD9411540
Probable space group: P N N A
;
_chemical_formula_sum "Si O2"
_cell_formula_units_Z 56
_cell_length_a 23.644258
_cell_length_b 21.749164
_cell_length_c 6.374437
_cell_angle_alpha 90.000000
_cell_angle_beta 90.000000
_cell_angle_gamma 90.000000
_cell_volume 3278.008618
_symmetry_space_group_name_H-M "P N N A"
_symmetry_group_IT_number 52
_symmetry_cell_setting 'orthorhombic'
loop_
_space_group_symop_operation_xyz
x,y,z
1/2-x,-y,z
x,1/2-y,1/2-z
1/2-x,1/2+y,1/2-z
-x,-y,-z
1/2+x,y,-z
-x,1/2+y,1/2+z
1/2+x,1/2-y,1/2+z
loop_
_atom_site_type_symbol
_atom_site_label
_atom_site_fract_x
_atom_site_fract_y
_atom_site_fract_z
Si Si1 0.597467 0.643591 0.456858
Si Si2 0.750000 0.500000 0.745869
Si Si3 0.684532 0.051574 0.372358
Si Si4 0.497375 0.187720 0.633731
Si Si5 0.062503 0.750000 0.250000
Si Si6 0.436091 0.574962 0.007157
Si Si7 0.966316 0.467184 0.688336
Si Si8 0.705624 0.925996 0.135235
O O1 0.554139 0.658327 0.267754
O O2 0.597374 0.703264 0.605248
O O3 0.573189 0.585423 0.588544
O O4 0.659029 0.626315 0.371757
O O5 0.718563 0.548047 0.595594
O O6 0.707989 0.463108 0.896800
O O7 0.623131 0.080268 0.387982
O O8 0.734151 0.086866 0.246736
O O9 0.680733 0.984940 0.260026
O O10 0.515105 0.250000 0.750000
O O11 0.475320 0.208653 0.405900
O O12 0.546091 0.137451 0.620517
O O13 0.486780 0.561011 0.844586
O O14 0.434130 0.518590 0.173019
O O15 0.000000 0.500000 0.500000
#
# Coordination Sequence:
#
# PCOD9411540 Si02
#       8
#     8   4   8   8   4   8   8   8
#     4  11  20  36  57  81 114 144 189 235 284 336
#     4   8  16  34  50  80 108 150 178 208 276 338
#     4   9  19  32  50  80 116 147 176 221 281 337
#     4  10  22  38  54  82 108 147 189 227 276 333
#     4  10  22  38  54  80 104 152 190 230 282 326
#     4  11  21  34  54  85 120 144 180 226 290 343
#     4  11  21  31  52  90 118 146 170 232 290 345
#     4   9  19  33  51  80 113 143 183 226 271 335
#
# _framework density 17.083542000000001
#
# number of rings (size 3 to 8) (size 9 to 14) (size 15 to 20)
#    0.000    2.286    2.857    1.714    2.000    3.429 
#    0.000    0.000    0.000    0.000   24.143    0.000 
#    0.000    0.000    0.000    0.000    0.000    0.000 
#
# Total GULP energy -312344.147837 kJ/mol
# GULP energy per Si atom -5577.574069 kJ/mol
# Density = 1.704466 g / cm^3
# Si number density = 17.083542 Si / 1000 Ang^3
#
#
#
# Elastic Constant Matrix: (Units=GPa)
#
#
# Indices 1 2 3 4 5 6 
#
# 1 104.6880 48.4308 22.7765 0.0000 0.0000 0.0000
# 2 48.4308 80.0668 22.1170 0.0000 0.0000 0.0000
# 3 22.7765 22.1170 79.0736 0.0000 0.0000 0.0000
# 4 0.0000 0.0000 0.0000 21.2367 0.0000 0.0000
# 5 0.0000 0.0000 0.0000 0.0000 6.4931 0.0000
# 6 0.0000 0.0000 0.0000 0.0000 0.0000 19.0213
#
#
#
# Elastic Compliance Matrix: (Units=1/GPa)
#
#
# Indices 1 2 3 4 5 6 
#
# 1 0.013480 -0.007674 -0.001736 0.000000 0.000000 0.000000
# 2 -0.007674 0.017904 -0.002797 0.000000 0.000000 0.000000
# 3 -0.001736 -0.002797 0.013929 0.000000 0.000000 0.000000
# 4 0.000000 0.000000 0.000000 0.047088 0.000000 0.000000
# 5 0.000000 0.000000 0.000000 0.000000 0.154009 0.000000
# 6 0.000000 0.000000 0.000000 0.000000 0.000000 0.052573
#
#
# Mechanical properties :
#
#
# Convention : Reuss Voigt Hill
#
# Bulk Modulus (GPa) = 47.85244 50.05299 48.95271
# Shear Modulus (GPa) = 15.13477 20.71717 17.92597
#
# Velocity S-wave (km/s) = 2.97968 3.48616 3.24282
# Velocity P-wave (km/s) = 6.31741 6.75033 6.53745
#
# Compressibility (1/GPa) = 0.02089758
#
# Stress axis : x y z
#
# Youngs Moduli (GPa) = 74.18259 55.85249 71.79257
#
# Poissons Ratio (x) = 0.42863 0.12466
# Poissons Ratio (y) = 0.56930 0.20083
# Poissons Ratio (z) = 0.12881 0.15624
#
# Static dielectric constant tensor:
#      x y z
#    x 1.570130 0.000000 0.000000 
#    y 0.000000 1.580970 0.000000 
#    z 0.000000 0.000000 1.606580 
# 
# From -- ./inp_files/5255.got.cif
#   From: 2010.05.17/outbox.cif.g08.bks.cpg/sg52_3_cif.got.tgz:5255.got - 2010.06.03 12:15:38.
