data_PCOD9411326
_publ_section_title
;
Structure prediction by ZEFSAII (Michael W. Deem and Ramdas Pophale) SiO2 
 PCOD9411326
Probable space group: P N N A
;
_chemical_formula_sum "Si O2"
_cell_formula_units_Z 56
_cell_length_a 16.445788
_cell_length_b 13.808749
_cell_length_c 11.701149
_cell_angle_alpha 90.000000
_cell_angle_beta 90.000000
_cell_angle_gamma 90.000000
_cell_volume 2657.281309
_symmetry_space_group_name_H-M "P N N A"
_symmetry_group_IT_number 52
_symmetry_cell_setting 'orthorhombic'
loop_
_space_group_symop_operation_xyz
x,y,z
1/2-x,-y,z
x,1/2-y,1/2-z
1/2-x,1/2+y,1/2-z
-x,-y,-z
1/2+x,y,-z
-x,1/2+y,1/2+z
1/2+x,1/2-y,1/2+z
loop_
_atom_site_type_symbol
_atom_site_label
_atom_site_fract_x
_atom_site_fract_y
_atom_site_fract_z
Si Si1 0.345444 0.836167 0.114761
Si Si2 0.912509 0.867234 0.646798
Si Si3 0.702174 0.634133 0.459450
Si Si4 0.922332 0.959128 0.061102
Si Si5 0.599604 0.803546 0.370393
Si Si6 0.662372 0.009120 0.459765
Si Si7 0.159121 0.137602 0.760080
O O1 0.387785 0.889624 0.222090
O O2 0.350219 0.721157 0.125275
O O3 0.256010 0.865871 0.074290
O O4 0.400637 0.862804 0.007204
O O5 0.899462 0.951026 0.554781
O O6 0.002521 0.821900 0.634058
O O7 0.647330 0.539403 0.452535
O O8 0.642294 0.726694 0.455102
O O9 0.764847 0.632493 0.350198
O O10 0.916393 0.925330 0.191054
O O11 0.000000 0.000000 0.000000
O O12 0.618782 0.750000 0.250000
O O13 0.635853 0.909078 0.399538
O O14 0.676847 0.089410 0.361218
O O15 0.750000 0.000000 0.518978
O O16 0.139086 0.250000 0.750000
#
# Coordination Sequence:
#
# PCOD9411326 Si02
#       7
#     8   8   8   8   8   8   8
#     4  10  21  42  66  90 127 177 220 265 331 410
#     4  11  24  42  66  93 133 181 220 272 342 413
#     4  11  23  40  67  97 124 167 229 274 332 406
#     4  11  23  39  66  94 129 172 217 275 340 403
#     4  12  23  41  66  97 133 176 225 283 341 403
#     4  12  24  39  65  99 131 169 222 277 331 404
#     4  11  22  40  64  98 128 164 216 283 334 393
#
# _framework density 21.074171
#
# number of rings (size 3 to 8) (size 9 to 14) (size 15 to 20)
#    0.000    0.857    1.429    9.429    2.000    1.143 
#    0.000    0.000    3.143    0.000    0.000    0.000 
#    0.000    0.000    0.000    0.000    0.000    0.000 
#
# Total GULP energy -312384.215157 kJ/mol
# GULP energy per Si atom -5578.289556 kJ/mol
# Density = 2.102621 g / cm^3
# Si number density = 21.074171 Si / 1000 Ang^3
#
#
#
# Elastic Constant Matrix: (Units=GPa)
#
#
# Indices 1 2 3 4 5 6 
#
# 1 98.6476 19.0360 29.8398 0.0000 0.0000 0.0000
# 2 19.0360 90.6695 9.4661 0.0000 0.0000 0.0000
# 3 29.8398 9.4661 69.4085 0.0000 0.0000 0.0000
# 4 0.0000 0.0000 0.0000 33.1033 0.0000 0.0000
# 5 0.0000 0.0000 0.0000 0.0000 17.5522 0.0000
# 6 0.0000 0.0000 0.0000 0.0000 0.0000 1.8072
#
#
#
# Elastic Compliance Matrix: (Units=1/GPa)
#
#
# Indices 1 2 3 4 5 6 
#
# 1 0.012003 -0.002010 -0.004886 0.000000 0.000000 0.000000
# 2 -0.002010 0.011525 -0.000708 0.000000 0.000000 0.000000
# 3 -0.004886 -0.000708 0.016605 0.000000 0.000000 0.000000
# 4 0.000000 0.000000 0.000000 0.030209 0.000000 0.000000
# 5 0.000000 0.000000 0.000000 0.000000 0.056973 0.000000
# 6 0.000000 0.000000 0.000000 0.000000 0.000000 0.553357
#
#
# Mechanical properties :
#
#
# Convention : Reuss Voigt Hill
#
# Bulk Modulus (GPa) = 40.12036 41.71214 40.91625
# Shear Modulus (GPa) = 7.10039 23.85145 15.47592
#
# Velocity S-wave (km/s) = 1.83754 3.36785 2.71284
# Velocity P-wave (km/s) = 4.85604 5.91263 5.41019
#
# Compressibility (1/GPa) = 0.02492500
#
# Stress axis : x y z
#
# Youngs Moduli (GPa) = 83.31284 86.76849 60.22427
#
# Poissons Ratio (x) = 0.17439 0.29426
# Poissons Ratio (y) = 0.16745 0.04262
# Poissons Ratio (z) = 0.40708 0.06141
#
# Static dielectric constant tensor:
#      x y z
#    x 1.819480 0.000000 0.000000 
#    y 0.000000 1.775400 0.000000 
#    z 0.000000 0.000000 1.822060 
# 
# From -- ./inp_files/19612.got.cif
#   From: 2010.05.17/outbox.cif.g08.bks.cpg/sg52_10_cif.got.tgz:19612.got - 2010.06.03 12:15:38.
