data_PCOD9411905
_publ_section_title
;
Structure prediction by ZEFSAII (Michael W. Deem and Ramdas Pophale) SiO2 
 PCOD9411905
Probable space group: P N N A
;
_chemical_formula_sum "Si O2"
_cell_formula_units_Z 48
_cell_length_a 17.400852
_cell_length_b 13.506764
_cell_length_c 9.518287
_cell_angle_alpha 90.000000
_cell_angle_beta 90.000000
_cell_angle_gamma 90.000000
_cell_volume 2237.075392
_symmetry_space_group_name_H-M "P N N A"
_symmetry_group_IT_number 52
_symmetry_cell_setting 'orthorhombic'
loop_
_space_group_symop_operation_xyz
x,y,z
1/2-x,-y,z
x,1/2-y,1/2-z
1/2-x,1/2+y,1/2-z
-x,-y,-z
1/2+x,y,-z
-x,1/2+y,1/2+z
1/2+x,1/2-y,1/2+z
loop_
_atom_site_type_symbol
_atom_site_label
_atom_site_fract_x
_atom_site_fract_y
_atom_site_fract_z
Si Si1 0.058394 0.750000 0.750000
Si Si2 0.162908 0.277829 0.974586
Si Si3 0.458373 0.577846 0.103412
Si Si4 0.321130 0.891272 0.792604
Si Si5 0.662959 0.543128 0.708793
Si Si6 0.732196 0.750000 0.750000
Si Si7 0.848189 0.410345 0.394601
O O1 0.111129 0.692631 0.637373
O O2 0.010840 0.657179 0.812363
O O3 0.130909 0.184038 0.888062
O O4 0.204649 0.343493 0.854422
O O5 0.094131 0.348392 0.014949
O O6 0.212924 0.250727 0.111535
O O7 0.398810 0.518129 0.202881
O O8 0.500000 0.500000 0.000000
O O9 0.242961 0.895240 0.882145
O O10 0.360330 0.998310 0.785735
O O11 0.750000 0.500000 0.715230
O O12 0.677886 0.654815 0.758288
O O13 0.634999 0.548552 0.548308
#
# Coordination Sequence:
#
# PCOD9411905 Si02
#       7
#     4   8   8   8   8   4   8
#     4  12  29  48  70  98 157 210 246 296 387 478
#     4  11  22  43  71 104 142 186 238 307 371 438
#     4  12  30  50  67 106 155 202 247 298 384 476
#     4  10  22  41  75 108 139 174 247 320 367 426
#     4  12  25  46  78 111 144 186 259 325 376 442
#     4  12  23  40  78 112 137 186 248 316 385 416
#     4  11  23  44  72 109 144 185 248 307 378 444
#
# _framework density 21.456586000000001
#
# number of rings (size 3 to 8) (size 9 to 14) (size 15 to 20)
#    0.000    0.667    5.000    2.500    4.667    3.333 
#    6.000    0.000    0.000    0.000    0.000    0.000 
#    0.000    0.000    0.000    0.000    0.000    0.000 
#
# Total GULP energy -267808.429882 kJ/mol
# GULP energy per Si atom -5579.342289 kJ/mol
# Density = 2.140775 g / cm^3
# Si number density = 21.456586 Si / 1000 Ang^3
#
#
#
# Elastic Constant Matrix: (Units=GPa)
#
#
# Indices 1 2 3 4 5 6 
#
# 1 77.2220 62.7749 40.1652 0.0000 0.0000 0.0000
# 2 62.7749 160.9438 39.5892 0.0000 0.0000 0.0000
# 3 40.1652 39.5892 103.2369 0.0000 0.0000 0.0000
# 4 0.0000 0.0000 0.0000 -7.3465 0.0000 0.0000
# 5 0.0000 0.0000 0.0000 0.0000 34.0876 0.0000
# 6 0.0000 0.0000 0.0000 0.0000 0.0000 30.5352
#
#
#
# Elastic Compliance Matrix: (Units=1/GPa)
#
#
# Indices 1 2 3 4 5 6 
#
# 1 0.021645 -0.007035 -0.005724 0.000000 0.000000 0.000000
# 2 -0.007035 0.009147 -0.000771 0.000000 0.000000 0.000000
# 3 -0.005724 -0.000771 0.012209 0.000000 0.000000 0.000000
# 4 0.000000 0.000000 0.000000 -0.136120 0.000000 0.000000
# 5 0.000000 0.000000 0.000000 0.000000 0.029336 0.000000
# 6 0.000000 0.000000 0.000000 0.000000 0.000000 0.032749
#
#
# Mechanical properties :
#
#
# Convention : Reuss Voigt Hill
#
# Bulk Modulus (GPa) = 62.72395 69.60681 66.16538
# Shear Modulus (GPa) = 3734.86917 24.71350 1879.79133
#
# Velocity S-wave (km/s) = 41.76652 3.39749 29.63094
# Velocity P-wave (km/s) = 48.53060 6.92111 34.66353
#
# Compressibility (1/GPa) = 0.01594287
#
# Stress axis : x y z
#
# Youngs Moduli (GPa) = 46.19946 109.32858 81.90796
#
# Poissons Ratio (x) = 0.76909 0.46881
# Poissons Ratio (y) = 0.32500 0.06312
# Poissons Ratio (z) = 0.26443 0.08426
#
# Static dielectric constant tensor:
#      x y z
#    x 1.827830 0.000000 0.000000 
#    y 0.000000 1.877030 0.000000 
#    z 0.000000 0.000000 1.953790 
# 
# From -- ./inp_files/12167.got.cif
#   From: 2010.05.17/outbox.cif.g08.bks.cpg/sg52_7_cif.got.tgz:12167.got - 2010.06.03 12:15:38.
