data_PCOD9411542
_publ_section_title
;
Structure prediction by ZEFSAII (Michael W. Deem and Ramdas Pophale) SiO2 
 PCOD9411542
Probable space group: P N N A
;
_chemical_formula_sum "Si O2"
_cell_formula_units_Z 64
_cell_length_a 19.444500
_cell_length_b 20.974549
_cell_length_c 9.014876
_cell_angle_alpha 90.000000
_cell_angle_beta 90.000000
_cell_angle_gamma 90.000000
_cell_volume 3676.623584
_symmetry_space_group_name_H-M "P N N A"
_symmetry_group_IT_number 52
_symmetry_cell_setting 'orthorhombic'
loop_
_space_group_symop_operation_xyz
x,y,z
1/2-x,-y,z
x,1/2-y,1/2-z
1/2-x,1/2+y,1/2-z
-x,-y,-z
1/2+x,y,-z
-x,1/2+y,1/2+z
1/2+x,1/2-y,1/2+z
loop_
_atom_site_type_symbol
_atom_site_label
_atom_site_fract_x
_atom_site_fract_y
_atom_site_fract_z
Si Si1 0.860201 0.283289 0.399797
Si Si2 0.723182 0.680488 0.689302
Si Si3 0.573717 0.020830 0.069647
Si Si4 0.432268 0.548238 0.130907
Si Si5 0.513577 0.083122 0.323357
Si Si6 0.571354 0.899062 0.263295
Si Si7 0.603527 0.840352 0.568487
Si Si8 0.190763 0.446761 0.330596
O O1 0.829596 0.250000 0.250000
O O2 0.809318 0.309285 0.525842
O O3 0.907778 0.339588 0.337799
O O4 0.899385 0.227695 0.488191
O O5 0.747790 0.750000 0.750000
O O6 0.665664 0.659159 0.812763
O O7 0.776900 0.623562 0.668428
O O8 0.554551 0.080480 0.172105
O O9 0.594626 0.962971 0.179118
O O10 0.633807 0.037194 0.956268
O O11 0.500000 0.000000 0.000000
O O12 0.461537 0.477673 0.165805
O O13 0.489213 0.593264 0.211461
O O14 0.355165 0.550182 0.183837
O O15 0.437602 0.568571 0.961184
O O16 0.466269 0.143810 0.345928
O O17 0.604703 0.889071 0.427121
O O18 0.250000 0.500000 0.335920
#
# Coordination Sequence:
#
# PCOD9411542 Si02
#       8
#     8   8   8   8   8   8   8   8
#     4   9  18  34  58  85 112 151 196 243 287 345
#     4  10  22  38  56  82 120 160 196 239 297 361
#     4  11  21  35  56  85 116 151 185 246 303 340
#     4   9  18  33  53  81 110 146 179 237 295 338
#     4   9  17  33  56  79 112 140 183 238 295 336
#     4   9  17  33  57  84 114 140 186 243 296 335
#     4   9  18  33  58  86 108 149 196 236 283 352
#     4  12  23  36  57  88 113 155 203 239 295 366
#
# _framework density 17.407276
#
# number of rings (size 3 to 8) (size 9 to 14) (size 15 to 20)
#    0.000    2.250    2.500    2.250    1.750    0.000 
#    0.000    8.750    0.000    0.000    0.000    0.000 
#    0.000    0.000    0.000    0.000    0.000    0.000 
#
# Total GULP energy -356279.219822 kJ/mol
# GULP energy per Si atom -5566.862810 kJ/mol
# Density = 1.736766 g / cm^3
# Si number density = 17.407276 Si / 1000 Ang^3
#
#
#
# Elastic Constant Matrix: (Units=GPa)
#
#
# Indices 1 2 3 4 5 6 
#
# 1 98.5573 56.4802 60.4829 0.0000 0.0000 0.0000
# 2 56.4802 71.9562 46.1740 0.0000 0.0000 0.0000
# 3 60.4829 46.1740 99.1558 0.0000 0.0000 0.0000
# 4 0.0000 0.0000 0.0000 24.2920 0.0000 0.0000
# 5 0.0000 0.0000 0.0000 0.0000 19.3776 0.0000
# 6 0.0000 0.0000 0.0000 0.0000 0.0000 18.0906
#
#
#
# Elastic Compliance Matrix: (Units=1/GPa)
#
#
# Indices 1 2 3 4 5 6 
#
# 1 0.021847 -0.012260 -0.007617 0.000000 0.000000 0.000000
# 2 -0.012260 0.026700 -0.004955 0.000000 0.000000 0.000000
# 3 -0.007617 -0.004955 0.017039 0.000000 0.000000 0.000000
# 4 0.000000 0.000000 0.000000 0.041166 0.000000 0.000000
# 5 0.000000 0.000000 0.000000 0.000000 0.051606 0.000000
# 6 0.000000 0.000000 0.000000 0.000000 0.000000 0.055277
#
#
# Mechanical properties :
#
#
# Convention : Reuss Voigt Hill
#
# Bulk Modulus (GPa) = 62.80840 66.21593 64.51217
# Shear Modulus (GPa) = 18.61462 19.45420 19.03441
#
# Velocity S-wave (km/s) = 3.27365 3.34666 3.31036
# Velocity P-wave (km/s) = 7.10275 7.28391 7.19390
#
# Compressibility (1/GPa) = 0.01592144
#
# Stress axis : x y z
#
# Youngs Moduli (GPa) = 45.77366 37.45258 58.69039
#
# Poissons Ratio (x) = 0.45918 0.44703
# Poissons Ratio (y) = 0.56120 0.29081
# Poissons Ratio (z) = 0.34864 0.18558
#
# Static dielectric constant tensor:
#      x y z
#    x 1.573130 0.000000 0.000000 
#    y 0.000000 1.625530 0.000000 
#    z 0.000000 0.000000 1.649610 
# 
# From -- ./inp_files/12655.got.cif
#   From: 2010.05.17/outbox.cif.g08.bks.cpg/sg52_7_cif.got.tgz:12655.got - 2010.06.03 12:15:38.
