data_PCOD9411563
_publ_section_title
;
Structure prediction by ZEFSAII (Michael W. Deem and Ramdas Pophale) SiO2 
 PCOD9411563
Probable space group: P N N A
;
_chemical_formula_sum "Si O2"
_cell_formula_units_Z 32
_cell_length_a 12.274340
_cell_length_b 5.203138
_cell_length_c 24.276659
_cell_angle_alpha 90.000000
_cell_angle_beta 90.000000
_cell_angle_gamma 90.000000
_cell_volume 1550.430888
_symmetry_space_group_name_H-M "P N N A"
_symmetry_group_IT_number 52
_symmetry_cell_setting 'orthorhombic'
loop_
_space_group_symop_operation_xyz
x,y,z
1/2-x,-y,z
x,1/2-y,1/2-z
1/2-x,1/2+y,1/2-z
-x,-y,-z
1/2+x,y,-z
-x,1/2+y,1/2+z
1/2+x,1/2-y,1/2+z
loop_
_atom_site_type_symbol
_atom_site_label
_atom_site_fract_x
_atom_site_fract_y
_atom_site_fract_z
Si Si1 0.356045 0.386268 0.299828
Si Si2 0.983242 0.515533 0.935045
Si Si3 0.750000 0.000000 0.612718
Si Si4 0.954944 0.008366 0.130265
Si Si5 0.750000 0.000000 0.211055
O O1 0.250000 0.500000 0.270802
O O2 0.418899 0.250000 0.250000
O O3 0.440893 0.566635 0.330372
O O4 0.300815 0.214715 0.347179
O O5 0.855127 0.575205 0.923293
O O6 0.017966 0.251634 0.903903
O O7 0.053040 0.749593 0.909970
O O8 0.000000 0.500000 0.000000
O O9 0.853257 0.974285 0.170386
O O10 0.739730 0.750000 0.250000
#
# Coordination Sequence:
#
# PCOD9411563 Si02
#       5
#     8   8   4   8   4
#     4  11  20  35  61  92 128 166 198 258 326 387
#     4  11  24  43  67  95 128 175 220 278 333 382
#     4  10  22  38  59  92 131 160 208 270 320 390
#     4  11  25  43  65  97 132 168 228 269 322 398
#     4  12  26  46  69  96 137 186 222 274 330 396
#
# _framework density 20.639424000000002
#
# number of rings (size 3 to 8) (size 9 to 14) (size 15 to 20)
#    0.000    1.000    3.750    3.000    0.000    5.000 
#    0.000    0.000    0.000    0.000    0.000    0.000 
#    0.000    0.000    0.000    0.000    0.000    0.000 
#
# Total GULP energy -178589.505074 kJ/mol
# GULP energy per Si atom -5580.922034 kJ/mol
# Density = 2.059245 g / cm^3
# Si number density = 20.639424 Si / 1000 Ang^3
#
#
#
# Elastic Constant Matrix: (Units=GPa)
#
#
# Indices 1 2 3 4 5 6 
#
# 1 104.9300 15.7829 59.5037 0.0000 0.0000 0.0000
# 2 15.7829 111.1991 49.5077 0.0000 0.0000 0.0000
# 3 59.5037 49.5077 156.6683 0.0000 0.0000 0.0000
# 4 0.0000 0.0000 0.0000 36.8113 0.0000 0.0000
# 5 0.0000 0.0000 0.0000 0.0000 -116.7157 0.0000
# 6 0.0000 0.0000 0.0000 0.0000 0.0000 17.0695
#
#
#
# Elastic Compliance Matrix: (Units=1/GPa)
#
#
# Indices 1 2 3 4 5 6 
#
# 1 0.012160 0.000384 -0.004740 0.000000 0.000000 0.000000
# 2 0.000384 0.010477 -0.003457 0.000000 0.000000 0.000000
# 3 -0.004740 -0.003457 0.009276 0.000000 0.000000 0.000000
# 4 0.000000 0.000000 0.000000 0.027166 0.000000 0.000000
# 5 0.000000 0.000000 0.000000 0.000000 -0.008568 0.000000
# 6 0.000000 0.000000 0.000000 0.000000 0.000000 0.058584
#
#
# Mechanical properties :
#
#
# Convention : Reuss Voigt Hill
#
# Bulk Modulus (GPa) = 61.39399 69.15400 65.27399
# Shear Modulus (GPa) = 38.41736 3.96658 21.19197
#
# Velocity S-wave (km/s) = 4.31903 1.38781 3.20780
# Velocity P-wave (km/s) = 7.39476 6.01220 6.73903
#
# Compressibility (1/GPa) = 0.01628824
#
# Stress axis : x y z
#
# Youngs Moduli (GPa) = 82.23456 95.44372 107.80975
#
# Poissons Ratio (x) = -0.03669 0.51102
# Poissons Ratio (y) = -0.03161 0.37269
# Poissons Ratio (z) = 0.38980 0.32994
#
# Static dielectric constant tensor:
#      x y z
#    x 1.748550 0.000000 0.000000 
#    y 0.000000 1.860350 0.000000 
#    z 0.000000 0.000000 1.702340 
# 
# From -- ./inp_files/36482.got.cif
#   From: 2010.05.17/outbox.cif.g08.bks.cpg/sg52_19_cif.got.tgz:36482.got - 2010.06.03 12:15:38.
