data_PCOD9411789
_publ_section_title
;
Structure prediction by ZEFSAII (Michael W. Deem and Ramdas Pophale) SiO2 
 PCOD9411789
Probable space group: P N N A
;
_chemical_formula_sum "Si O2"
_cell_formula_units_Z 64
_cell_length_a 29.790212
_cell_length_b 7.312591
_cell_length_c 11.333255
_cell_angle_alpha 90.000000
_cell_angle_beta 90.000000
_cell_angle_gamma 90.000000
_cell_volume 2468.877479
_symmetry_space_group_name_H-M "P N N A"
_symmetry_group_IT_number 52
_symmetry_cell_setting 'orthorhombic'
loop_
_space_group_symop_operation_xyz
x,y,z
1/2-x,-y,z
x,1/2-y,1/2-z
1/2-x,1/2+y,1/2-z
-x,-y,-z
1/2+x,y,-z
-x,1/2+y,1/2+z
1/2+x,1/2-y,1/2+z
loop_
_atom_site_type_symbol
_atom_site_label
_atom_site_fract_x
_atom_site_fract_y
_atom_site_fract_z
Si Si1 0.879849 0.508032 0.522877
Si Si2 0.713791 0.654788 0.493698
Si Si3 0.450313 0.027626 0.236072
Si Si4 0.963613 0.535599 0.396836
Si Si5 0.715932 0.380322 0.850579
Si Si6 0.201138 0.028794 0.738889
Si Si7 0.641648 0.437885 0.024518
Si Si8 0.451357 0.918777 0.492133
O O1 0.835638 0.386991 0.547043
O O2 0.913623 0.515587 0.634907
O O3 0.915169 0.446399 0.419761
O O4 0.863153 0.713916 0.485652
O O5 0.750000 0.500000 0.515528
O O6 0.746918 0.809064 0.551795
O O7 0.702115 0.600481 0.354662
O O8 0.446966 0.250000 0.250000
O O9 0.503650 0.994592 0.210513
O O10 0.442043 0.906363 0.351912
O O11 0.952740 0.747727 0.419863
O O12 0.000000 0.500000 0.500000
O O13 0.750000 0.500000 0.774011
O O14 0.696043 0.250000 0.750000
O O15 0.674148 0.472400 0.915235
O O16 0.196593 0.250000 0.750000
O O17 0.165071 0.987969 0.640541
O O18 0.250000 0.000000 0.685298
O O19 0.593001 0.526777 0.025380
O O20 0.500000 0.000000 0.500000
#
# Coordination Sequence:
#
# PCOD9411789 Si02
#       8
#     8   8   8   8   8   8   8   8
#     4  10  22  40  69 104 142 189 253 299 384 451
#     4  11  22  44  71 106 147 191 251 309 368 449
#     4  11  23  42  70  98 141 195 240 316 382 439
#     4   9  21  42  65  98 137 180 233 299 369 443
#     4  12  28  47  73 110 156 200 252 312 376 451
#     4  11  22  43  75 105 144 197 249 314 377 447
#     4  11  24  43  70 106 146 192 255 303 380 454
#     4  11  24  42  68 105 140 184 250 303 365 454
#
# _framework density 25.922709999999999
#
# number of rings (size 3 to 8) (size 9 to 14) (size 15 to 20)
#    0.000    1.250    3.750    1.500    1.750    6.500 
#    0.000    0.000    0.000    0.000    0.000    0.000 
#    0.000    0.000    0.000    0.000    0.000    0.000 
#
# Total GULP energy -356411.021817 kJ/mol
# GULP energy per Si atom -5568.922216 kJ/mol
# Density = 2.586371 g / cm^3
# Si number density = 25.922710 Si / 1000 Ang^3
#
#
#
# Elastic Constant Matrix: (Units=GPa)
#
#
# Indices 1 2 3 4 5 6 
#
# 1 220.6664 24.6278 45.6304 0.0000 0.0000 0.0000
# 2 24.6278 83.1863 8.9141 0.0000 0.0000 0.0000
# 3 45.6304 8.9141 126.1767 0.0000 0.0000 0.0000
# 4 0.0000 0.0000 0.0000 0.2286 0.0000 0.0000
# 5 0.0000 0.0000 0.0000 0.0000 18.3333 0.0000
# 6 0.0000 0.0000 0.0000 0.0000 0.0000 32.4557
#
#
#
# Elastic Compliance Matrix: (Units=1/GPa)
#
#
# Indices 1 2 3 4 5 6 
#
# 1 0.005035 -0.001305 -0.001729 0.000000 0.000000 0.000000
# 2 -0.001305 0.012451 -0.000408 0.000000 0.000000 0.000000
# 3 -0.001729 -0.000408 0.008579 0.000000 0.000000 0.000000
# 4 0.000000 0.000000 0.000000 4.374381 0.000000 0.000000
# 5 0.000000 0.000000 0.000000 0.000000 0.054545 0.000000
# 6 0.000000 0.000000 0.000000 0.000000 0.000000 0.030811
#
#
# Mechanical properties :
#
#
# Convention : Reuss Voigt Hill
#
# Bulk Modulus (GPa) = 52.13100 65.37490 58.75295
# Shear Modulus (GPa) = 1.11134 33.59400 17.35267
#
# Velocity S-wave (km/s) = 0.65547 3.60381 2.59008
# Velocity P-wave (km/s) = 4.55266 6.52614 5.62660
#
# Compressibility (1/GPa) = 0.01918245
#
# Stress axis : x y z
#
# Youngs Moduli (GPa) = 198.61530 80.31257 116.55950
#
# Poissons Ratio (x) = 0.10484 0.20148
# Poissons Ratio (y) = 0.25927 0.04751
# Poissons Ratio (z) = 0.34332 0.03273
#
# Static dielectric constant tensor:
#      x y z
#    x 2.095940 0.000000 0.000000 
#    y 0.000000 0.450870 0.000000 
#    z 0.000000 0.000000 2.135620 
# 
# From -- ./inp_files/23229.got.cif
#   From: 2010.05.17/outbox.cif.g08.bks.cpg/sg52_12_cif.got.tgz:23229.got - 2010.06.03 12:15:38.
