data_PCOD9411880
_publ_section_title
;
Structure prediction by ZEFSAII (Michael W. Deem and Ramdas Pophale) SiO2 
 PCOD9411880
Probable space group: P N N A
;
_chemical_formula_sum "Si O2"
_cell_formula_units_Z 40
_cell_length_a 21.047530
_cell_length_b 11.611580
_cell_length_c 5.925123
_cell_angle_alpha 90.000000
_cell_angle_beta 90.000000
_cell_angle_gamma 90.000000
_cell_volume 1448.070900
_symmetry_space_group_name_H-M "P N N A"
_symmetry_group_IT_number 52
_symmetry_cell_setting 'orthorhombic'
loop_
_space_group_symop_operation_xyz
x,y,z
1/2-x,-y,z
x,1/2-y,1/2-z
1/2-x,1/2+y,1/2-z
-x,-y,-z
1/2+x,y,-z
-x,1/2+y,1/2+z
1/2+x,1/2-y,1/2+z
loop_
_atom_site_type_symbol
_atom_site_label
_atom_site_fract_x
_atom_site_fract_y
_atom_site_fract_z
Si Si1 0.967585 0.615092 0.255351
Si Si2 0.929706 0.934474 0.779390
Si Si3 0.227771 0.750000 0.750000
Si Si4 0.371561 0.432058 0.742207
Si Si5 0.473657 0.250000 0.750000
Si Si6 0.798747 0.912604 0.599761
O O1 0.959573 0.750000 0.250000
O O2 0.914081 0.531564 0.384552
O O3 0.037887 0.562207 0.286494
O O4 0.947414 0.587636 0.993794
O O5 0.856736 0.890966 0.766953
O O6 0.979253 0.838033 0.879313
O O7 0.180658 0.654361 0.635850
O O8 0.268230 0.809230 0.547653
O O9 0.423216 0.343269 0.845193
O O10 0.328881 0.502184 0.913417
O O11 0.750000 0.000000 0.719719
#
# Coordination Sequence:
#
# PCOD9411880 Si02
#       6
#     8   8   4   8   4   8
#     4  10  23  41  67  96 142 189 231 298 361 432
#     4  10  23  40  63 106 139 177 241 290 363 424
#     4   9  20  42  68  96 132 183 232 288 360 429
#     4   9  20  39  67  94 128 177 234 277 360 424
#     4   9  20  36  62  94 130 167 218 300 336 409
#     4  10  22  41  68  99 139 184 233 290 357 436
#
# _framework density 27.622958000000001
#
# number of rings (size 3 to 8) (size 9 to 14) (size 15 to 20)
#    0.000    2.400    0.000    0.000    7.000    1.600 
#    3.600    5.000    0.000    0.000    0.000    0.000 
#    0.000    0.000    0.000    0.000    0.000    0.000 
#
# Total GULP energy -222793.657082 kJ/mol
# GULP energy per Si atom -5569.841427 kJ/mol
# Density = 2.756009 g / cm^3
# Si number density = 27.622958 Si / 1000 Ang^3
#
#
#
# Elastic Constant Matrix: (Units=GPa)
#
#
# Indices 1 2 3 4 5 6 
#
# 1 188.3624 97.0526 46.2475 0.0000 0.0000 0.0000
# 2 97.0526 214.9536 49.0311 0.0000 0.0000 0.0000
# 3 46.2475 49.0311 71.0753 0.0000 0.0000 0.0000
# 4 0.0000 0.0000 0.0000 44.5203 0.0000 0.0000
# 5 0.0000 0.0000 0.0000 0.0000 30.1944 0.0000
# 6 0.0000 0.0000 0.0000 0.0000 0.0000 79.2702
#
#
#
# Elastic Compliance Matrix: (Units=1/GPa)
#
#
# Indices 1 2 3 4 5 6 
#
# 1 0.007416 -0.002668 -0.002986 0.000000 0.000000 0.000000
# 2 -0.002668 0.006480 -0.002735 0.000000 0.000000 0.000000
# 3 -0.002986 -0.002735 0.017899 0.000000 0.000000 0.000000
# 4 0.000000 0.000000 0.000000 0.022462 0.000000 0.000000
# 5 0.000000 0.000000 0.000000 0.000000 0.033119 0.000000
# 6 0.000000 0.000000 0.000000 0.000000 0.000000 0.012615
#
#
# Mechanical properties :
#
#
# Convention : Reuss Voigt Hill
#
# Bulk Modulus (GPa) = 66.57828 95.45042 81.01435
# Shear Modulus (GPa) = 41.05994 49.60098 45.33046
#
# Velocity S-wave (km/s) = 3.85962 4.24210 4.05537
# Velocity P-wave (km/s) = 6.63454 7.65661 7.16382
#
# Compressibility (1/GPa) = 0.01501991
#
# Stress axis : x y z
#
# Youngs Moduli (GPa) = 134.83711 154.31231 55.86975
#
# Poissons Ratio (x) = 0.41163 0.16680
# Poissons Ratio (y) = 0.35968 0.15279
# Poissons Ratio (z) = 0.40256 0.42201
#
# Static dielectric constant tensor:
#      x y z
#    x 2.165530 0.000000 0.000000 
#    y 0.000000 2.149110 0.000000 
#    z 0.000000 0.000000 3.815860 
# 
# From -- ./inp_files/13216.got.cif
#   From: 2010.05.17/outbox.cif.g08.bks.cpg/sg52_7_cif.got.tgz:13216.got - 2010.06.03 12:15:38.
