data_PCOD9411932
_publ_section_title
;
Structure prediction by ZEFSAII (Michael W. Deem and Ramdas Pophale) SiO2 
 PCOD9411932
Probable space group: P N N A
;
_chemical_formula_sum "Si O2"
_cell_formula_units_Z 48
_cell_length_a 11.107733
_cell_length_b 21.342546
_cell_length_c 9.063671
_cell_angle_alpha 90.000000
_cell_angle_beta 90.000000
_cell_angle_gamma 90.000000
_cell_volume 2148.700035
_symmetry_space_group_name_H-M "P N N A"
_symmetry_group_IT_number 52
_symmetry_cell_setting 'orthorhombic'
loop_
_space_group_symop_operation_xyz
x,y,z
1/2-x,-y,z
x,1/2-y,1/2-z
1/2-x,1/2+y,1/2-z
-x,-y,-z
1/2+x,y,-z
-x,1/2+y,1/2+z
1/2+x,1/2-y,1/2+z
loop_
_atom_site_type_symbol
_atom_site_label
_atom_site_fract_x
_atom_site_fract_y
_atom_site_fract_z
Si Si1 0.718194 0.096743 0.218628
Si Si2 0.447954 0.099754 0.593069
Si Si3 0.897689 0.685263 0.697485
Si Si4 0.522824 0.966709 0.703640
Si Si5 0.474231 0.804776 0.865785
Si Si6 0.812117 0.096134 0.899722
O O1 0.809346 0.097979 0.354752
O O2 0.610319 0.047465 0.235084
O O3 0.647639 0.161810 0.192760
O O4 0.794240 0.084497 0.071987
O O5 0.510598 0.157615 0.678839
O O6 0.454251 0.088463 0.417707
O O7 0.516121 0.036454 0.642644
O O8 0.837148 0.750000 0.750000
O O9 0.954786 0.706271 0.540571
O O10 0.807477 0.628401 0.662592
O O11 0.630213 0.963142 0.819860
O O12 0.500325 0.750000 0.750000
O O13 0.583444 0.853201 0.871432
#
# Coordination Sequence:
#
# PCOD9411932 Si02
#       6
#     8   8   8   8   8   8
#     4  10  22  44  66  96 134 171 228 284 339 413
#     4  11  24  45  65 102 138 173 235 278 355 419
#     4  11  25  41  63  98 133 177 224 280 335 412
#     4  10  25  43  71  97 136 184 220 291 353 421
#     4  10  22  42  65  95 132 178 228 278 337 404
#     4  10  22  45  65  96 130 174 227 277 346 405
#
# _framework density 22.339089999999999
#
# number of rings (size 3 to 8) (size 9 to 14) (size 15 to 20)
#    0.000    1.667    1.667    1.000    7.000    2.000 
#    6.000    0.000    0.000    0.000    0.000    0.000 
#    0.000    0.000    0.000    0.000    0.000    0.000 
#
# Total GULP energy -267982.111356 kJ/mol
# GULP energy per Si atom -5582.960653 kJ/mol
# Density = 2.228825 g / cm^3
# Si number density = 22.339090 Si / 1000 Ang^3
#
#
#
# Elastic Constant Matrix: (Units=GPa)
#
#
# Indices 1 2 3 4 5 6 
#
# 1 87.5035 9.0267 47.5303 0.0000 0.0000 0.0000
# 2 9.0267 51.3141 37.8894 0.0000 0.0000 0.0000
# 3 47.5303 37.8894 114.6018 0.0000 0.0000 0.0000
# 4 0.0000 0.0000 0.0000 34.3367 0.0000 0.0000
# 5 0.0000 0.0000 0.0000 0.0000 26.0669 0.0000
# 6 0.0000 0.0000 0.0000 0.0000 0.0000 19.2259
#
#
#
# Elastic Compliance Matrix: (Units=1/GPa)
#
#
# Indices 1 2 3 4 5 6 
#
# 1 0.015007 0.002587 -0.007079 0.000000 0.000000 0.000000
# 2 0.002587 0.026228 -0.009745 0.000000 0.000000 0.000000
# 3 -0.007079 -0.009745 0.014884 0.000000 0.000000 0.000000
# 4 0.000000 0.000000 0.000000 0.029123 0.000000 0.000000
# 5 0.000000 0.000000 0.000000 0.000000 0.038363 0.000000
# 6 0.000000 0.000000 0.000000 0.000000 0.000000 0.052013
#
#
# Mechanical properties :
#
#
# Convention : Reuss Voigt Hill
#
# Bulk Modulus (GPa) = 36.17252 49.14578 42.65915
# Shear Modulus (GPa) = 23.44057 26.52409 24.98233
#
# Velocity S-wave (km/s) = 3.24282 3.44952 3.34776
# Velocity P-wave (km/s) = 5.49989 6.15737 5.83789
#
# Compressibility (1/GPa) = 0.02764530
#
# Stress axis : x y z
#
# Youngs Moduli (GPa) = 66.63750 38.12740 67.18765
#
# Poissons Ratio (x) = -0.09865 0.47564
# Poissons Ratio (y) = -0.17242 0.65471
# Poissons Ratio (z) = 0.47175 0.37153
#
# Static dielectric constant tensor:
#      x y z
#    x 1.795300 0.000000 0.000000 
#    y 0.000000 1.843610 0.000000 
#    z 0.000000 0.000000 1.879260 
# 
# From -- ./inp_files/8849.got.cif
#   From: 2010.05.17/outbox.cif.g08.bks.cpg/sg52_5_cif.got.tgz:8849.got - 2010.06.03 12:15:38.
