data_PCOD9411494
_publ_section_title
;
Structure prediction by ZEFSAII (Michael W. Deem and Ramdas Pophale) SiO2 
 PCOD9411494
Probable space group: P N N A
;
_chemical_formula_sum "Si O2"
_cell_formula_units_Z 48
_cell_length_a 13.541917
_cell_length_b 6.494901
_cell_length_c 23.737004
_cell_angle_alpha 90.000000
_cell_angle_beta 90.000000
_cell_angle_gamma 90.000000
_cell_volume 2087.750451
_symmetry_space_group_name_H-M "P N N A"
_symmetry_group_IT_number 52
_symmetry_cell_setting 'orthorhombic'
loop_
_space_group_symop_operation_xyz
x,y,z
1/2-x,-y,z
x,1/2-y,1/2-z
1/2-x,1/2+y,1/2-z
-x,-y,-z
1/2+x,y,-z
-x,1/2+y,1/2+z
1/2+x,1/2-y,1/2+z
loop_
_atom_site_type_symbol
_atom_site_label
_atom_site_fract_x
_atom_site_fract_y
_atom_site_fract_z
Si Si1 0.969850 0.911627 0.647066
Si Si2 0.362338 0.743731 0.879146
Si Si3 0.250000 0.000000 0.354171
Si Si4 0.312362 0.313254 0.441565
Si Si5 0.250000 0.500000 0.973359
Si Si6 0.919917 0.250000 0.250000
Si Si7 0.001174 0.549425 0.567514
Si Si8 0.250000 0.500000 0.790562
O O1 0.975386 0.778693 0.588907
O O2 0.013936 0.762346 0.694812
O O3 0.861801 0.984726 0.668631
O O4 0.044686 0.101695 0.639183
O O5 0.315007 0.645620 0.934859
O O6 0.402301 0.964883 0.899714
O O7 0.280867 0.691475 0.831147
O O8 0.247660 0.796273 0.392490
O O9 0.250000 0.500000 0.466570
O O10 0.410359 0.403882 0.415336
O O11 0.322140 0.137926 0.488302
O O12 0.845222 0.441545 0.245385
O O13 0.000000 0.500000 0.500000
#
# Coordination Sequence:
#
# PCOD9411494 Si02
#       8
#     8   8   4   8   4   4   8   4
#     4  11  24  44  66  95 132 175 229 281 346 410
#     4  10  22  41  60  96 135 175 217 275 340 410
#     4  11  22  41  64  82 132 169 216 285 330 400
#     4  11  21  36  56  87 123 176 218 266 326 391
#     4  10  22  36  58  86 134 174 220 264 330 402
#     4  10  24  46  74 102 130 172 228 286 354 416
#     4  12  24  36  63  97 134 176 227 275 334 412
#     4   9  22  43  70  98 136 173 216 289 358 412
#
# _framework density 22.991253
#
# number of rings (size 3 to 8) (size 9 to 14) (size 15 to 20)
#    0.000    1.333    3.333    2.000    4.667    1.333 
#    0.000    3.333    0.000    0.000    0.000    0.000 
#    0.000    0.000    0.000    0.000    0.000    0.000 
#
# Total GULP energy -267740.098304 kJ/mol
# GULP energy per Si atom -5577.918715 kJ/mol
# Density = 2.293892 g / cm^3
# Si number density = 22.991253 Si / 1000 Ang^3
#
#
#
# Elastic Constant Matrix: (Units=GPa)
#
#
# Indices 1 2 3 4 5 6 
#
# 1 106.0238 9.7290 18.8438 0.0000 0.0000 0.0000
# 2 9.7290 50.4344 13.5098 0.0000 0.0000 0.0000
# 3 18.8438 13.5098 65.4241 0.0000 0.0000 0.0000
# 4 0.0000 0.0000 0.0000 22.4434 0.0000 0.0000
# 5 0.0000 0.0000 0.0000 0.0000 22.2448 0.0000
# 6 0.0000 0.0000 0.0000 0.0000 0.0000 44.9923
#
#
#
# Elastic Compliance Matrix: (Units=1/GPa)
#
#
# Indices 1 2 3 4 5 6 
#
# 1 0.010012 -0.001227 -0.002630 0.000000 0.000000 0.000000
# 2 -0.001227 0.021139 -0.004012 0.000000 0.000000 0.000000
# 3 -0.002630 -0.004012 0.016871 0.000000 0.000000 0.000000
# 4 0.000000 0.000000 0.000000 0.044557 0.000000 0.000000
# 5 0.000000 0.000000 0.000000 0.000000 0.044954 0.000000
# 6 0.000000 0.000000 0.000000 0.000000 0.000000 0.022226
#
#
# Mechanical properties :
#
#
# Convention : Reuss Voigt Hill
#
# Bulk Modulus (GPa) = 30.97504 34.00528 32.49016
# Shear Modulus (GPa) = 26.84449 29.92274 28.38361
#
# Velocity S-wave (km/s) = 3.42072 3.61152 3.51741
# Velocity P-wave (km/s) = 5.39477 5.67569 5.53701
#
# Compressibility (1/GPa) = 0.03228406
#
# Stress axis : x y z
#
# Youngs Moduli (GPa) = 99.88101 47.30586 59.27359
#
# Poissons Ratio (x) = 0.05803 0.15591
# Poissons Ratio (y) = 0.12253 0.23779
# Poissons Ratio (z) = 0.26272 0.18978
#
# Static dielectric constant tensor:
#      x y z
#    x 1.954970 0.000000 0.000000 
#    y 0.000000 1.899010 0.000000 
#    z 0.000000 0.000000 1.880080 
# 
# From -- ./inp_files/43063.got.cif
#   From: 2010.05.17/outbox.cif.g08.bks.cpg/sg52_22_cif.got.tgz:43063.got - 2010.06.03 12:15:38.
