data_PCOD9411577
_publ_section_title
;
Structure prediction by ZEFSAII (Michael W. Deem and Ramdas Pophale) SiO2 
 PCOD9411577
Probable space group: P N N A
;
_chemical_formula_sum "Si O2"
_cell_formula_units_Z 20
_cell_length_a 5.414102
_cell_length_b 11.227030
_cell_length_c 13.040769
_cell_angle_alpha 90.000000
_cell_angle_beta 90.000000
_cell_angle_gamma 90.000000
_cell_volume 792.673827
_symmetry_space_group_name_H-M "P N N A"
_symmetry_group_IT_number 52
_symmetry_cell_setting 'orthorhombic'
loop_
_space_group_symop_operation_xyz
x,y,z
1/2-x,-y,z
x,1/2-y,1/2-z
1/2-x,1/2+y,1/2-z
-x,-y,-z
1/2+x,y,-z
-x,1/2+y,1/2+z
1/2+x,1/2-y,1/2+z
loop_
_atom_site_type_symbol
_atom_site_label
_atom_site_fract_x
_atom_site_fract_y
_atom_site_fract_z
Si Si1 0.763261 0.750000 0.250000
Si Si2 0.538515 0.301989 0.469477
Si Si3 0.497668 0.425345 0.877130
O O1 0.585268 0.638399 0.227949
O O2 0.927701 0.730628 0.350605
O O3 0.784674 0.365012 0.506850
O O4 0.527847 0.182526 0.541682
O O5 0.750000 0.500000 0.867881
O O6 0.250000 0.500000 0.905479
#
# Coordination Sequence:
#
# PCOD9411577 Si02
#       3
#     4   8   8
#     4  10  24  40  64  96 132 166 208 268 324 372
#     4  10  22  38  61  91 128 161 204 260 315 368
#     4  11  24  42  67  97 128 166 216 267 315 375
#
# _framework density 25.231059999999999
#
# number of rings (size 3 to 8) (size 9 to 14) (size 15 to 20)
#    0.000    1.600    0.000    4.800    0.000   33.600 
#    0.000    0.000    0.000   28.800    0.000    2.800 
#    0.000    0.000    0.000    0.000    0.000    0.000 
#
# Total GULP energy -111904.773808 kJ/mol
# GULP energy per Si atom -5595.238690 kJ/mol
# Density = 2.517363 g / cm^3
# Si number density = 25.231060 Si / 1000 Ang^3
#
#
#
# Elastic Constant Matrix: (Units=GPa)
#
#
# Indices 1 2 3 4 5 6 
#
# 1 240.9628 50.5826 47.8681 0.0000 0.0000 0.0000
# 2 50.5826 110.5949 20.7377 0.0000 0.0000 0.0000
# 3 47.8681 20.7377 139.2890 0.0000 0.0000 0.0000
# 4 0.0000 0.0000 0.0000 40.5996 0.0000 0.0000
# 5 0.0000 0.0000 0.0000 0.0000 62.2573 0.0000
# 6 0.0000 0.0000 0.0000 0.0000 0.0000 -0.7753
#
#
#
# Elastic Compliance Matrix: (Units=1/GPa)
#
#
# Indices 1 2 3 4 5 6 
#
# 1 0.004832 -0.001953 -0.001370 0.000000 0.000000 0.000000
# 2 -0.001953 0.010091 -0.000831 0.000000 0.000000 0.000000
# 3 -0.001370 -0.000831 0.007774 0.000000 0.000000 0.000000
# 4 0.000000 0.000000 0.000000 0.024631 0.000000 0.000000
# 5 0.000000 0.000000 0.000000 0.000000 0.016062 0.000000
# 6 0.000000 0.000000 0.000000 0.000000 0.000000 -1.289775
#
#
# Mechanical properties :
#
#
# Convention : Reuss Voigt Hill
#
# Bulk Modulus (GPa) = 69.49860 81.02481 75.26171
# Shear Modulus (GPa) = -4.12106 45.19353 20.53624
#
# Velocity S-wave (km/s) = -1.27940 4.23683 2.85604
# Velocity P-wave (km/s) = 5.04204 7.49114 6.38511
#
# Compressibility (1/GPa) = 0.01438878
#
# Stress axis : x y z
#
# Youngs Moduli (GPa) = 206.94697 99.09624 128.63693
#
# Poissons Ratio (x) = 0.19356 0.17621
# Poissons Ratio (y) = 0.40421 0.10692
# Poissons Ratio (z) = 0.28348 0.08236
#
# Static dielectric constant tensor:
#      x y z
#    x 2.078670 0.000000 0.000000 
#    y 0.000000 2.021450 0.000000 
#    z 0.000000 0.000000 1.986480 
# 
# From -- ./inp_files/15802.got.cif
#   From: 2010.05.17/outbox.cif.g08.bks.cpg/sg52_8_cif.got.tgz:15802.got - 2010.06.03 12:15:38.
