data_PCOD9411194
_publ_section_title
;
Structure prediction by ZEFSAII (Michael W. Deem and Ramdas Pophale) SiO2 
 PCOD9411194
Probable space group: P N N A
;
_chemical_formula_sum "Si O2"
_cell_formula_units_Z 20
_cell_length_a 5.134193
_cell_length_b 9.467913
_cell_length_c 17.317758
_cell_angle_alpha 90.000000
_cell_angle_beta 90.000000
_cell_angle_gamma 90.000000
_cell_volume 841.817821
_symmetry_space_group_name_H-M "P N N A"
_symmetry_group_IT_number 52
_symmetry_cell_setting 'orthorhombic'
loop_
_space_group_symop_operation_xyz
x,y,z
1/2-x,-y,z
x,1/2-y,1/2-z
1/2-x,1/2+y,1/2-z
-x,-y,-z
1/2+x,y,-z
-x,1/2+y,1/2+z
1/2+x,1/2-y,1/2+z
loop_
_atom_site_type_symbol
_atom_site_label
_atom_site_fract_x
_atom_site_fract_y
_atom_site_fract_z
Si Si1 0.507752 0.409981 0.220069
Si Si2 0.844938 0.809822 0.444977
Si Si3 0.750000 0.000000 0.055151
O O1 0.250000 0.500000 0.236012
O O2 0.483441 0.250000 0.250000
O O3 0.560012 0.397697 0.128228
O O4 0.750000 0.500000 0.252181
O O5 0.576049 0.828955 0.492149
O O6 0.791150 0.653009 0.408238
O O7 0.500000 0.000000 0.000000
#
# Coordination Sequence:
#
# PCOD9411194 Si02
#       3
#     8   8   4
#     4  12  28  49  72 104 144 193 236 293 361 427
#     4  10  21  40  69 104 137 178 234 294 350 414
#     4   8  16  32  56  96 132 166 210 268 342 400
#
# _framework density 23.758109000000001
#
# number of rings (size 3 to 8) (size 9 to 14) (size 15 to 20)
#    0.000    1.600    0.000    3.600    2.800    4.800 
#   14.400    0.000    0.000    0.000    0.000    0.000 
#    0.000    0.000    0.000    0.000    0.000    0.000 
#
# Total GULP energy -111577.361488 kJ/mol
# GULP energy per Si atom -5578.868074 kJ/mol
# Density = 2.370403 g / cm^3
# Si number density = 23.758109 Si / 1000 Ang^3
#
#
#
# Elastic Constant Matrix: (Units=GPa)
#
#
# Indices 1 2 3 4 5 6 
#
# 1 235.5114 103.5637 31.9661 0.0000 0.0000 0.0000
# 2 103.5637 158.7395 46.8694 0.0000 0.0000 0.0000
# 3 31.9661 46.8694 86.8533 0.0000 0.0000 0.0000
# 4 0.0000 0.0000 0.0000 33.8914 0.0000 0.0000
# 5 0.0000 0.0000 0.0000 0.0000 -25.8558 0.0000
# 6 0.0000 0.0000 0.0000 0.0000 0.0000 39.0512
#
#
#
# Elastic Compliance Matrix: (Units=1/GPa)
#
#
# Indices 1 2 3 4 5 6 
#
# 1 0.005955 -0.003852 -0.000113 0.000000 0.000000 0.000000
# 2 -0.003852 0.009985 -0.003971 0.000000 0.000000 0.000000
# 3 -0.000113 -0.003971 0.013698 0.000000 0.000000 0.000000
# 4 0.000000 0.000000 0.000000 0.029506 0.000000 0.000000
# 5 0.000000 0.000000 0.000000 0.000000 -0.038676 0.000000
# 6 0.000000 0.000000 0.000000 0.000000 0.000000 0.025607
#
#
# Mechanical properties :
#
#
# Convention : Reuss Voigt Hill
#
# Bulk Modulus (GPa) = 72.63790 93.98916 83.31353
# Shear Modulus (GPa) = 75.14722 29.33102 52.23912
#
# Velocity S-wave (km/s) = 5.63017 3.51746 4.69421
# Velocity P-wave (km/s) = 8.53846 7.49289 8.03271
#
# Compressibility (1/GPa) = 0.01376692
#
# Stress axis : x y z
#
# Youngs Moduli (GPa) = 167.91876 100.15026 73.00320
#
# Poissons Ratio (x) = 0.38577 0.00826
# Poissons Ratio (y) = 0.64680 0.28987
# Poissons Ratio (z) = 0.01901 0.39766
#
# Static dielectric constant tensor:
#      x y z
#    x 1.832320 0.000000 0.000000 
#    y 0.000000 2.094950 0.000000 
#    z 0.000000 0.000000 1.920900 
# 
# From -- ./inp_files/23295.got.cif
#   From: 2010.05.17/outbox.cif.g08.bks.cpg/sg52_12_cif.got.tgz:23295.got - 2010.06.03 12:15:38.
