data_PCOD9411266
_publ_section_title
;
Structure prediction by ZEFSAII (Michael W. Deem and Ramdas Pophale) SiO2 
 PCOD9411266
Probable space group: P N N A
;
_chemical_formula_sum "Si O2"
_cell_formula_units_Z 32
_cell_length_a 11.174055
_cell_length_b 15.393335
_cell_length_c 7.352505
_cell_angle_alpha 90.000000
_cell_angle_beta 90.000000
_cell_angle_gamma 90.000000
_cell_volume 1264.674769
_symmetry_space_group_name_H-M "P N N A"
_symmetry_group_IT_number 52
_symmetry_cell_setting 'orthorhombic'
loop_
_space_group_symop_operation_xyz
x,y,z
1/2-x,-y,z
x,1/2-y,1/2-z
1/2-x,1/2+y,1/2-z
-x,-y,-z
1/2+x,y,-z
-x,1/2+y,1/2+z
1/2+x,1/2-y,1/2+z
loop_
_atom_site_type_symbol
_atom_site_label
_atom_site_fract_x
_atom_site_fract_y
_atom_site_fract_z
Si Si1 0.070386 0.250000 0.750000
Si Si2 0.538403 0.421683 0.673375
Si Si3 0.635868 0.445668 0.285638
Si Si4 0.826015 0.750000 0.750000
Si Si5 0.127416 0.785651 0.952856
O O1 0.135609 0.343342 0.760253
O O2 0.983074 0.251860 0.574915
O O3 0.623950 0.444530 0.505745
O O4 0.487444 0.505722 0.775994
O O5 0.599351 0.339552 0.770853
O O6 0.415880 0.383504 0.583136
O O7 0.750000 0.500000 0.218535
O O8 0.742023 0.733560 0.575330
O O9 0.137047 0.750000 0.750000
#
# Coordination Sequence:
#
# PCOD9411266 Si02
#       5
#     4   8   8   4   8
#     4   9  22  43  74 102 144 195 244 297 366 444
#     4  10  21  41  68 108 149 190 250 299 357 445
#     4  10  21  41  72 109 143 197 245 298 375 439
#     4  11  22  41  72 110 144 195 242 299 362 430
#     4  10  21  44  70 105 150 194 235 296 372 432
#
# _framework density 25.302947
#
# number of rings (size 3 to 8) (size 9 to 14) (size 15 to 20)
#    0.000    2.000    1.250    1.500    0.000    3.000 
#   20.250    1.250    0.000   18.000    0.000    0.000 
#    0.000    0.000    0.000    0.000    0.000    0.000 
#
# Total GULP energy -178754.115103 kJ/mol
# GULP energy per Si atom -5586.066097 kJ/mol
# Density = 2.524536 g / cm^3
# Si number density = 25.302947 Si / 1000 Ang^3
#
#
#
# Elastic Constant Matrix: (Units=GPa)
#
#
# Indices 1 2 3 4 5 6 
#
# 1 118.5741 83.7539 22.6156 0.0000 0.0000 0.0000
# 2 83.7539 215.8483 41.8961 0.0000 0.0000 0.0000
# 3 22.6156 41.8961 126.9910 0.0000 0.0000 0.0000
# 4 0.0000 0.0000 0.0000 36.3867 0.0000 0.0000
# 5 0.0000 0.0000 0.0000 0.0000 28.2313 0.0000
# 6 0.0000 0.0000 0.0000 0.0000 0.0000 43.5067
#
#
#
# Elastic Compliance Matrix: (Units=1/GPa)
#
#
# Indices 1 2 3 4 5 6 
#
# 1 0.011664 -0.004405 -0.000624 0.000000 0.000000 0.000000
# 2 -0.004405 0.006613 -0.001397 0.000000 0.000000 0.000000
# 3 -0.000624 -0.001397 0.008447 0.000000 0.000000 0.000000
# 4 0.000000 0.000000 0.000000 0.027483 0.000000 0.000000
# 5 0.000000 0.000000 0.000000 0.000000 0.035422 0.000000
# 6 0.000000 0.000000 0.000000 0.000000 0.000000 0.022985
#
#
# Mechanical properties :
#
#
# Convention : Reuss Voigt Hill
#
# Bulk Modulus (GPa) = 72.08984 84.21605 78.15295
# Shear Modulus (GPa) = 38.43524 42.50146 40.46835
#
# Velocity S-wave (km/s) = 3.90167 4.10287 4.00353
# Velocity P-wave (km/s) = 6.98927 7.46994 7.23360
#
# Compressibility (1/GPa) = 0.01387158
#
# Stress axis : x y z
#
# Youngs Moduli (GPa) = 85.73555 151.21219 118.38916
#
# Poissons Ratio (x) = 0.66604 0.07388
# Poissons Ratio (y) = 0.37764 0.16543
# Poissons Ratio (z) = 0.05350 0.21130
#
# Static dielectric constant tensor:
#      x y z
#    x 2.145600 0.000000 0.000000 
#    y 0.000000 2.037680 0.000000 
#    z 0.000000 0.000000 2.010520 
# 
# From -- ./inp_files/8351.got.cif
#   From: 2010.05.17/outbox.cif.g08.bks.cpg/sg52_5_cif.got.tgz:8351.got - 2010.06.03 12:15:38.
