data_PCOD9411757
_publ_section_title
;
Structure prediction by ZEFSAII (Michael W. Deem and Ramdas Pophale) SiO2 
 PCOD9411757
Probable space group: P N N A
;
_chemical_formula_sum "Si O2"
_cell_formula_units_Z 40
_cell_length_a 9.599936
_cell_length_b 8.436913
_cell_length_c 21.501509
_cell_angle_alpha 90.000000
_cell_angle_beta 90.000000
_cell_angle_gamma 90.000000
_cell_volume 1741.489454
_symmetry_space_group_name_H-M "P N N A"
_symmetry_group_IT_number 52
_symmetry_cell_setting 'orthorhombic'
loop_
_space_group_symop_operation_xyz
x,y,z
1/2-x,-y,z
x,1/2-y,1/2-z
1/2-x,1/2+y,1/2-z
-x,-y,-z
1/2+x,y,-z
-x,1/2+y,1/2+z
1/2+x,1/2-y,1/2+z
loop_
_atom_site_type_symbol
_atom_site_label
_atom_site_fract_x
_atom_site_fract_y
_atom_site_fract_z
Si Si1 0.750000 0.000000 0.732497
Si Si2 0.323229 0.838495 0.053057
Si Si3 0.169574 0.158084 0.906315
Si Si4 0.539407 0.250000 0.750000
Si Si5 0.935368 0.337073 0.118563
Si Si6 0.410534 0.160803 0.379194
O O1 0.641237 0.105871 0.769580
O O2 0.833803 0.115434 0.684997
O O3 0.466705 0.793468 0.085838
O O4 0.208756 0.706215 0.071550
O O5 0.250000 0.000000 0.074295
O O6 0.354126 0.855298 0.980131
O O7 0.277753 0.301952 0.897991
O O8 0.024299 0.200252 0.874046
O O9 0.250000 0.000000 0.884202
O O10 0.453145 0.312843 0.807746
O O11 0.002407 0.505291 0.101113
#
# Coordination Sequence:
#
# PCOD9411757 Si02
#       6
#     4   8   8   4   8   8
#     4  10  22  42  64  98 114 170 220 264 312 386
#     4  11  22  39  64  93 128 171 217 261 315 388
#     4  11  25  40  61  95 133 171 210 263 329 382
#     4  10  22  40  66  90 128 160 216 260 310 378
#     4  11  23  41  63  95 127 167 212 264 322 377
#     4  11  21  42  62  92 128 159 220 260 312 385
#
# _framework density 22.968845000000002
#
# number of rings (size 3 to 8) (size 9 to 14) (size 15 to 20)
#    0.000    1.200    4.000    3.000    1.400    9.600 
#    0.000    5.000    0.000    0.000    0.000    0.000 
#    0.000    0.000    0.000    0.000    0.000    0.000 
#
# Total GULP energy -223857.461602 kJ/mol
# GULP energy per Si atom -5596.436540 kJ/mol
# Density = 2.291657 g / cm^3
# Si number density = 22.968845 Si / 1000 Ang^3
#
#
#
# Elastic Constant Matrix: (Units=GPa)
#
#
# Indices 1 2 3 4 5 6 
#
# 1 114.7466 13.9923 11.5172 0.0000 0.0000 0.0000
# 2 13.9923 75.5393 12.8823 0.0000 0.0000 0.0000
# 3 11.5172 12.8823 28.0520 0.0000 0.0000 0.0000
# 4 0.0000 0.0000 0.0000 -8.4987 0.0000 0.0000
# 5 0.0000 0.0000 0.0000 0.0000 4.2549 0.0000
# 6 0.0000 0.0000 0.0000 0.0000 0.0000 43.2656
#
#
#
# Elastic Compliance Matrix: (Units=1/GPa)
#
#
# Indices 1 2 3 4 5 6 
#
# 1 0.009180 -0.001148 -0.003242 0.000000 0.000000 0.000000
# 2 -0.001148 0.014506 -0.006191 0.000000 0.000000 0.000000
# 3 -0.003242 -0.006191 0.039822 0.000000 0.000000 0.000000
# 4 0.000000 0.000000 0.000000 -0.117665 0.000000 0.000000
# 5 0.000000 0.000000 0.000000 0.000000 0.235023 0.000000
# 6 0.000000 0.000000 0.000000 0.000000 0.000000 0.023113
#
#
# Mechanical properties :
#
#
# Convention : Reuss Voigt Hill
#
# Bulk Modulus (GPa) = 23.61378 32.79127 28.20252
# Shear Modulus (GPa) = 20.89814 19.80077 20.34945
#
# Velocity S-wave (km/s) = 3.01964 2.93929 2.97974
# Velocity P-wave (km/s) = 4.73928 5.08199 4.91362
#
# Compressibility (1/GPa) = 0.04234816
#
# Stress axis : x y z
#
# Youngs Moduli (GPa) = 108.93007 68.93487 25.11173
#
# Poissons Ratio (x) = 0.07911 0.08141
# Poissons Ratio (y) = 0.12501 0.15546
# Poissons Ratio (z) = 0.35316 0.42675
#
# Static dielectric constant tensor:
#      x y z
#    x 1.833200 0.000000 0.000000 
#    y 0.000000 1.916370 0.000000 
#    z 0.000000 0.000000 1.782100 
# 
# From -- ./inp_files/39264.got.cif
#   From: 2010.05.17/outbox.cif.g08.bks.cpg/sg52_20_cif.got.tgz:39264.got - 2010.06.03 12:15:38.
