data_PCOD9411518
_publ_section_title
;
Structure prediction by ZEFSAII (Michael W. Deem and Ramdas Pophale) SiO2 
 PCOD9411518
Probable space group: P N N A
;
_chemical_formula_sum "Si O2"
_cell_formula_units_Z 40
_cell_length_a 5.538397
_cell_length_b 18.149373
_cell_length_c 16.405735
_cell_angle_alpha 90.000000
_cell_angle_beta 90.000000
_cell_angle_gamma 90.000000
_cell_volume 1649.078774
_symmetry_space_group_name_H-M "P N N A"
_symmetry_group_IT_number 52
_symmetry_cell_setting 'orthorhombic'
loop_
_space_group_symop_operation_xyz
x,y,z
1/2-x,-y,z
x,1/2-y,1/2-z
1/2-x,1/2+y,1/2-z
-x,-y,-z
1/2+x,y,-z
-x,1/2+y,1/2+z
1/2+x,1/2-y,1/2+z
loop_
_atom_site_type_symbol
_atom_site_label
_atom_site_fract_x
_atom_site_fract_y
_atom_site_fract_z
Si Si1 0.805226 0.587016 0.666735
Si Si2 0.950152 0.183608 0.695395
Si Si3 0.246831 0.721132 0.449249
Si Si4 0.359760 0.419562 0.803638
Si Si5 0.445980 0.916719 0.468594
O O1 0.750000 0.500000 0.656794
O O2 0.652652 0.625478 0.738899
O O3 0.764849 0.638038 0.588676
O O4 0.066694 0.594531 0.710414
O O5 0.050145 0.250000 0.750000
O O6 0.175132 0.139667 0.661180
O O7 0.778814 0.224742 0.629985
O O8 0.497208 0.729756 0.499462
O O9 0.250000 0.500000 0.807713
O O10 0.569745 0.421015 0.871237
O O11 0.198536 0.882756 0.500825
O O12 0.500000 0.000000 0.500000
#
# Coordination Sequence:
#
# PCOD9411518 Si02
#       5
#     8   8   8   8   8
#     4  11  26  46  79 117 157 203 269 337 405 474
#     4  10  26  48  73 109 150 204 256 324 394 482
#     4  11  29  54  80 111 157 216 274 326 398 478
#     4  12  24  40  76 108 156 203 256 318 402 480
#     4  10  22  37  57  94 151 189 232 288 356 451
#
# _framework density 24.255966000000001
#
# number of rings (size 3 to 8) (size 9 to 14) (size 15 to 20)
#    0.000    1.200    4.000    0.000   14.000    3.200 
#    0.000    0.000    0.000    0.000    0.000    0.000 
#    0.000    0.000    0.000    0.000    0.000    0.000 
#
# Total GULP energy -223355.406762 kJ/mol
# GULP energy per Si atom -5583.885169 kJ/mol
# Density = 2.420076 g / cm^3
# Si number density = 24.255966 Si / 1000 Ang^3
#
#
#
# Elastic Constant Matrix: (Units=GPa)
#
#
# Indices 1 2 3 4 5 6 
#
# 1 139.6846 49.4264 51.1727 0.0000 0.0000 0.0000
# 2 49.4264 186.2188 44.9689 0.0000 0.0000 0.0000
# 3 51.1727 44.9689 86.3862 0.0000 0.0000 0.0000
# 4 0.0000 0.0000 0.0000 38.2929 0.0000 0.0000
# 5 0.0000 0.0000 0.0000 0.0000 44.7007 0.0000
# 6 0.0000 0.0000 0.0000 0.0000 0.0000 36.4685
#
#
#
# Elastic Compliance Matrix: (Units=1/GPa)
#
#
# Indices 1 2 3 4 5 6 
#
# 1 0.009418 -0.001318 -0.004893 0.000000 0.000000 0.000000
# 2 -0.001318 0.006327 -0.002513 0.000000 0.000000 0.000000
# 3 -0.004893 -0.002513 0.015782 0.000000 0.000000 0.000000
# 4 0.000000 0.000000 0.000000 0.026115 0.000000 0.000000
# 5 0.000000 0.000000 0.000000 0.000000 0.022371 0.000000
# 6 0.000000 0.000000 0.000000 0.000000 0.000000 0.027421
#
#
# Mechanical properties :
#
#
# Convention : Reuss Voigt Hill
#
# Bulk Modulus (GPa) = 71.02356 78.15842 74.59099
# Shear Modulus (GPa) = 38.58829 41.67386 40.13107
#
# Velocity S-wave (km/s) = 3.99291 4.14948 4.07195
# Velocity P-wave (km/s) = 7.11352 7.43302 7.27503
#
# Compressibility (1/GPa) = 0.01407984
#
# Stress axis : x y z
#
# Youngs Moduli (GPa) = 106.18175 158.06194 63.36289
#
# Poissons Ratio (x) = 0.20836 0.31001
# Poissons Ratio (y) = 0.13997 0.15920
# Poissons Ratio (z) = 0.51951 0.39713
#
# Static dielectric constant tensor:
#      x y z
#    x 2.950450 0.000000 0.000000 
#    y 0.000000 1.933360 0.000000 
#    z 0.000000 0.000000 1.914670 
# 
# From -- ./inp_files/30131.got.cif
#   From: 2010.05.17/outbox.cif.g08.bks.cpg/sg52_16_cif.got.tgz:30131.got - 2010.06.03 12:15:38.
