data_PCOD9411797
_publ_section_title
;
Structure prediction by ZEFSAII (Michael W. Deem and Ramdas Pophale) SiO2 
 PCOD9411797
Probable space group: P N N A
;
_chemical_formula_sum "Si O2"
_cell_formula_units_Z 32
_cell_length_a 17.337185
_cell_length_b 13.764164
_cell_length_c 4.826167
_cell_angle_alpha 90.000000
_cell_angle_beta 90.000000
_cell_angle_gamma 90.000000
_cell_volume 1151.677196
_symmetry_space_group_name_H-M "P N N A"
_symmetry_group_IT_number 52
_symmetry_cell_setting 'orthorhombic'
loop_
_space_group_symop_operation_xyz
x,y,z
1/2-x,-y,z
x,1/2-y,1/2-z
1/2-x,1/2+y,1/2-z
-x,-y,-z
1/2+x,y,-z
-x,1/2+y,1/2+z
1/2+x,1/2-y,1/2+z
loop_
_atom_site_type_symbol
_atom_site_label
_atom_site_fract_x
_atom_site_fract_y
_atom_site_fract_z
Si Si1 0.228092 0.750000 0.750000
Si Si2 0.643729 0.351805 0.905663
Si Si3 0.122058 0.903835 0.875205
Si Si4 0.750000 0.500000 0.976143
Si Si5 0.480810 0.139459 0.355683
O O1 0.286416 0.821297 0.602981
O O2 0.174560 0.810368 0.957765
O O3 0.623359 0.250000 0.750000
O O4 0.693463 0.437790 0.764222
O O5 0.569444 0.385849 0.077199
O O6 0.182512 0.964151 0.688087
O O7 0.061851 0.867855 0.644958
O O8 0.066438 0.925612 0.135093
O O9 0.482123 0.250000 0.250000
#
# Coordination Sequence:
#
# PCOD9411797 Si02
#       5
#     4   8   8   4   8
#     4  10  22  40  70 106 146 200 258 316 392 462
#     4  11  25  47  76 111 160 211 266 330 402 474
#     4  11  25  44  73 109 154 202 261 321 391 472
#     4  10  28  50  72 122 160 212 268 334 400 480
#     4  12  23  45  76 111 150 207 263 323 397 474
#
# _framework density 27.785561000000001
#
# number of rings (size 3 to 8) (size 9 to 14) (size 15 to 20)
#    0.000    1.000    3.750    1.500    7.000    3.000 
#    4.500    0.000    0.000    0.000    0.000    0.000 
#    0.000    0.000    0.000    0.000    0.000    0.000 
#
# Total GULP energy -178635.516516 kJ/mol
# GULP energy per Si atom -5582.359891 kJ/mol
# Density = 2.772232 g / cm^3
# Si number density = 27.785561 Si / 1000 Ang^3
#
#
#
# Elastic Constant Matrix: (Units=GPa)
#
#
# Indices 1 2 3 4 5 6 
#
# 1 249.7761 65.9254 57.5448 0.0000 0.0000 0.0000
# 2 65.9254 56.8907 10.1165 0.0000 0.0000 0.0000
# 3 57.5448 10.1165 121.1925 0.0000 0.0000 0.0000
# 4 0.0000 0.0000 0.0000 30.9727 0.0000 0.0000
# 5 0.0000 0.0000 0.0000 0.0000 -32.1400 0.0000
# 6 0.0000 0.0000 0.0000 0.0000 0.0000 61.0976
#
#
#
# Elastic Compliance Matrix: (Units=1/GPa)
#
#
# Indices 1 2 3 4 5 6 
#
# 1 0.006419 -0.007000 -0.002463 0.000000 0.000000 0.000000
# 2 -0.007000 0.025476 0.001197 0.000000 0.000000 0.000000
# 3 -0.002463 0.001197 0.009321 0.000000 0.000000 0.000000
# 4 0.000000 0.000000 0.000000 0.032286 0.000000 0.000000
# 5 0.000000 0.000000 0.000000 0.000000 -0.031114 0.000000
# 6 0.000000 0.000000 0.000000 0.000000 0.000000 0.016367
#
#
# Mechanical properties :
#
#
# Convention : Reuss Voigt Hill
#
# Bulk Modulus (GPa) = 40.51280 77.22585 58.86932
# Shear Modulus (GPa) = 59.86855 31.60423 45.73639
#
# Velocity S-wave (km/s) = 4.64687 3.37624 4.06155
# Velocity P-wave (km/s) = 6.58813 6.56144 6.57480
#
# Compressibility (1/GPa) = 0.02468356
#
# Stress axis : x y z
#
# Youngs Moduli (GPa) = 155.79530 39.25215 107.28360
#
# Poissons Ratio (x) = 0.27476 0.26428
# Poissons Ratio (y) = 1.09056 -0.12843
# Poissons Ratio (z) = 0.38379 -0.04699
#
# Static dielectric constant tensor:
#      x y z
#    x 2.051110 0.000000 0.000000 
#    y 0.000000 -1.082540 0.000000 
#    z 0.000000 0.000000 1.708730 
# 
# From -- ./inp_files/1971.got.cif
#   From: 2010.05.17/outbox.cif.g08.bks.cpg/sg52_1_cif.got.tgz:1971.got - 2010.06.03 12:15:38.
