data_PCOD9411500
_publ_section_title
;
Structure prediction by ZEFSAII (Michael W. Deem and Ramdas Pophale) SiO2 
 PCOD9411500
Probable space group: P N N A
;
_chemical_formula_sum "Si O2"
_cell_formula_units_Z 44
_cell_length_a 13.709876
_cell_length_b 9.451487
_cell_length_c 16.783235
_cell_angle_alpha 90.000000
_cell_angle_beta 90.000000
_cell_angle_gamma 90.000000
_cell_volume 2174.750021
_symmetry_space_group_name_H-M "P N N A"
_symmetry_group_IT_number 52
_symmetry_cell_setting 'orthorhombic'
loop_
_space_group_symop_operation_xyz
x,y,z
1/2-x,-y,z
x,1/2-y,1/2-z
1/2-x,1/2+y,1/2-z
-x,-y,-z
1/2+x,y,-z
-x,1/2+y,1/2+z
1/2+x,1/2-y,1/2+z
loop_
_atom_site_type_symbol
_atom_site_label
_atom_site_fract_x
_atom_site_fract_y
_atom_site_fract_z
Si Si1 0.250000 0.500000 0.150086
Si Si2 0.645852 0.884226 0.502166
Si Si3 0.986874 0.905344 0.124072
Si Si4 0.450167 0.912409 0.274789
Si Si5 0.050744 0.094748 0.591786
Si Si6 0.347991 0.420030 0.511394
O O1 0.336471 0.567477 0.201277
O O2 0.300012 0.393067 0.087109
O O3 0.531129 0.873030 0.524853
O O4 0.674546 0.739505 0.460664
O O5 0.645177 0.030590 0.452515
O O6 0.079532 0.909104 0.064062
O O7 0.946712 0.745745 0.135618
O O8 0.020878 0.983388 0.203412
O O9 0.903512 0.994414 0.079683
O O10 0.468482 0.750000 0.250000
O O11 0.510994 0.971380 0.350313
O O12 0.250000 0.500000 0.488542
#
# Coordination Sequence:
#
# PCOD9411500 Si02
#       6
#     4   8   8   8   8   8
#     4  10  24  34  60  96 124 164 198 262 316 374
#     4   9  19  36  57  85 121 156 212 243 305 370
#     4  10  22  38  60  89 123 167 210 255 317 367
#     4  11  23  37  61  89 128 163 208 251 322 373
#     4   9  19  38  60  80 120 168 203 252 298 371
#     4  10  22  36  61  89 122 161 209 264 305 372
#
# _framework density 20.232211
#
# number of rings (size 3 to 8) (size 9 to 14) (size 15 to 20)
#    0.000    2.182    0.000    1.636    6.364    5.818 
#    0.000    0.000    2.000    0.000    0.000    0.000 
#    0.000    0.000    0.000    0.000    0.000    0.000 
#
# Total GULP energy -245299.940936 kJ/mol
# GULP energy per Si atom -5574.998658 kJ/mol
# Density = 2.018616 g / cm^3
# Si number density = 20.232211 Si / 1000 Ang^3
#
#
#
# Elastic Constant Matrix: (Units=GPa)
#
#
# Indices 1 2 3 4 5 6 
#
# 1 42.3171 35.9388 15.2218 0.0000 0.0000 0.0000
# 2 35.9388 184.4483 48.3086 0.0000 0.0000 0.0000
# 3 15.2218 48.3086 87.1070 0.0000 0.0000 0.0000
# 4 0.0000 0.0000 0.0000 27.9264 0.0000 0.0000
# 5 0.0000 0.0000 0.0000 0.0000 15.3039 0.0000
# 6 0.0000 0.0000 0.0000 0.0000 0.0000 20.7986
#
#
#
# Elastic Compliance Matrix: (Units=1/GPa)
#
#
# Indices 1 2 3 4 5 6 
#
# 1 0.028685 -0.005003 -0.002238 0.000000 0.000000 0.000000
# 2 -0.005003 0.007215 -0.003127 0.000000 0.000000 0.000000
# 3 -0.002238 -0.003127 0.013606 0.000000 0.000000 0.000000
# 4 0.000000 0.000000 0.000000 0.035808 0.000000 0.000000
# 5 0.000000 0.000000 0.000000 0.000000 0.065343 0.000000
# 6 0.000000 0.000000 0.000000 0.000000 0.000000 0.048080
#
#
# Mechanical properties :
#
#
# Convention : Reuss Voigt Hill
#
# Bulk Modulus (GPa) = 34.75920 56.97895 45.86908
# Shear Modulus (GPa) = 21.82797 27.09934 24.46365
#
# Velocity S-wave (km/s) = 3.28818 3.66377 3.48105
# Velocity P-wave (km/s) = 5.62438 6.79126 6.23518
#
# Compressibility (1/GPa) = 0.02876936
#
# Stress axis : x y z
#
# Youngs Moduli (GPa) = 34.86136 138.59143 73.49898
#
# Poissons Ratio (x) = 0.69337 0.16450
# Poissons Ratio (y) = 0.17441 0.22986
# Poissons Ratio (z) = 0.07802 0.43342
#
# Static dielectric constant tensor:
#      x y z
#    x 1.737360 0.000000 0.000000 
#    y 0.000000 1.812150 0.000000 
#    z 0.000000 0.000000 1.712240 
# 
# From -- ./inp_files/32987.got.cif
#   From: 2010.05.17/outbox.cif.g08.bks.cpg/sg52_17_cif.got.tgz:32987.got - 2010.06.03 12:15:38.
