data_PCOD9411311
_publ_section_title
;
Structure prediction by ZEFSAII (Michael W. Deem and Ramdas Pophale) SiO2 
 PCOD9411311
Probable space group: P N N A
;
_chemical_formula_sum "Si O2"
_cell_formula_units_Z 48
_cell_length_a 11.983465
_cell_length_b 8.269048
_cell_length_c 23.824223
_cell_angle_alpha 90.000000
_cell_angle_beta 90.000000
_cell_angle_gamma 90.000000
_cell_volume 2360.786267
_symmetry_space_group_name_H-M "P N N A"
_symmetry_group_IT_number 52
_symmetry_cell_setting 'orthorhombic'
loop_
_space_group_symop_operation_xyz
x,y,z
1/2-x,-y,z
x,1/2-y,1/2-z
1/2-x,1/2+y,1/2-z
-x,-y,-z
1/2+x,y,-z
-x,1/2+y,1/2+z
1/2+x,1/2-y,1/2+z
loop_
_atom_site_type_symbol
_atom_site_label
_atom_site_fract_x
_atom_site_fract_y
_atom_site_fract_z
Si Si1 0.694314 0.325116 0.149645
Si Si2 0.750000 0.000000 0.838781
Si Si3 0.059967 0.415844 0.423671
Si Si4 0.074806 0.808953 0.826175
Si Si5 0.689196 0.750000 0.750000
Si Si6 0.014131 0.026887 0.729683
Si Si7 0.354122 0.873730 0.960080
O O1 0.750000 0.500000 0.142078
O O2 0.792097 0.210982 0.173611
O O3 0.597389 0.356905 0.195122
O O4 0.661959 0.257775 0.088620
O O5 0.855542 0.995260 0.879554
O O6 0.754809 0.841043 0.799219
O O7 0.129349 0.332760 0.473968
O O8 0.976735 0.304687 0.387994
O O9 0.973622 0.547997 0.446020
O O10 0.023510 0.649081 0.798247
O O11 0.045836 0.974937 0.793436
O O12 0.605800 0.889640 0.727796
O O13 0.250000 0.000000 0.956289
#
# Coordination Sequence:
#
# PCOD9411311 Si02
#       7
#     8   4   8   8   4   8   8
#     4  10  22  40  62  99 135 161 210 273 337 388
#     4  12  26  42  64  96 130 172 220 266 324 392
#     4  11  23  42  68  94 125 171 228 263 316 390
#     4  10  21  42  64  93 134 169 209 267 326 391
#     4  12  26  40  64  88 136 168 216 266 318 400
#     4  10  23  40  61  95 131 171 209 261 333 390
#     4  11  22  42  70  93 122 171 222 272 320 381
#
# _framework density 20.332208000000001
#
# number of rings (size 3 to 8) (size 9 to 14) (size 15 to 20)
#    0.000    1.333    4.167    1.000    2.333    4.000 
#    3.000    5.000    0.000    0.000    0.000    0.000 
#    0.000    0.000    0.000    0.000    0.000    0.000 
#
# Total GULP energy -267761.182490 kJ/mol
# GULP energy per Si atom -5578.357969 kJ/mol
# Density = 2.028593 g / cm^3
# Si number density = 20.332208 Si / 1000 Ang^3
#
#
#
# Elastic Constant Matrix: (Units=GPa)
#
#
# Indices 1 2 3 4 5 6 
#
# 1 77.4161 13.6091 35.9473 0.0000 0.0000 0.0000
# 2 13.6091 60.9282 36.1721 0.0000 0.0000 0.0000
# 3 35.9473 36.1721 128.7073 0.0000 0.0000 0.0000
# 4 0.0000 0.0000 0.0000 27.7978 0.0000 0.0000
# 5 0.0000 0.0000 0.0000 0.0000 5.8185 0.0000
# 6 0.0000 0.0000 0.0000 0.0000 0.0000 22.3028
#
#
#
# Elastic Compliance Matrix: (Units=1/GPa)
#
#
# Indices 1 2 3 4 5 6 
#
# 1 0.014896 -0.001029 -0.003871 0.000000 0.000000 0.000000
# 2 -0.001029 0.019771 -0.005269 0.000000 0.000000 0.000000
# 3 -0.003871 -0.005269 0.010332 0.000000 0.000000 0.000000
# 4 0.000000 0.000000 0.000000 0.035974 0.000000 0.000000
# 5 0.000000 0.000000 0.000000 0.000000 0.171865 0.000000
# 6 0.000000 0.000000 0.000000 0.000000 0.000000 0.044837
#
#
# Mechanical properties :
#
#
# Convention : Reuss Voigt Hill
#
# Bulk Modulus (GPa) = 40.55182 48.72317 44.63750
# Shear Modulus (GPa) = 15.32650 23.27203 19.29927
#
# Velocity S-wave (km/s) = 2.74853 3.38685 3.08425
# Velocity P-wave (km/s) = 5.48274 6.26976 5.88941
#
# Compressibility (1/GPa) = 0.02465980
#
# Stress axis : x y z
#
# Youngs Moduli (GPa) = 67.13403 50.57985 96.79075
#
# Poissons Ratio (x) = 0.05204 0.37469
# Poissons Ratio (y) = 0.06907 0.50999
# Poissons Ratio (z) = 0.25988 0.26651
#
# Static dielectric constant tensor:
#      x y z
#    x 1.767160 0.000000 0.000000 
#    y 0.000000 1.719140 0.000000 
#    z 0.000000 0.000000 1.865220 
# 
# From -- ./inp_files/40192.got.cif
#   From: 2010.05.17/outbox.cif.g08.bks.cpg/sg52_21_cif.got.tgz:40192.got - 2010.06.03 12:15:38.
