data_PCOD9411778
_publ_section_title
;
Structure prediction by ZEFSAII (Michael W. Deem and Ramdas Pophale) SiO2 
 PCOD9411778
Probable space group: P N N A
;
_chemical_formula_sum "Si O2"
_cell_formula_units_Z 40
_cell_length_a 4.913706
_cell_length_b 12.630678
_cell_length_c 24.967170
_cell_angle_alpha 90.000000
_cell_angle_beta 90.000000
_cell_angle_gamma 90.000000
_cell_volume 1549.548414
_symmetry_space_group_name_H-M "P N N A"
_symmetry_group_IT_number 52
_symmetry_cell_setting 'orthorhombic'
loop_
_space_group_symop_operation_xyz
x,y,z
1/2-x,-y,z
x,1/2-y,1/2-z
1/2-x,1/2+y,1/2-z
-x,-y,-z
1/2+x,y,-z
-x,1/2+y,1/2+z
1/2+x,1/2-y,1/2+z
loop_
_atom_site_type_symbol
_atom_site_label
_atom_site_fract_x
_atom_site_fract_y
_atom_site_fract_z
Si Si1 0.250000 0.500000 0.540906
Si Si2 0.498093 0.425311 0.282835
Si Si3 0.750000 0.500000 0.904691
Si Si4 0.619583 0.383560 0.166922
Si Si5 0.428751 0.802629 0.463730
Si Si6 0.984667 0.810211 0.109293
O O1 0.500000 0.500000 0.500000
O O2 0.185795 0.400222 0.578838
O O3 0.250000 0.500000 0.265525
O O4 0.590506 0.363371 0.229482
O O5 0.412611 0.358555 0.334111
O O6 0.750000 0.500000 0.298187
O O7 0.658677 0.590469 0.863186
O O8 0.579537 0.424831 0.944112
O O9 0.750000 0.500000 0.160802
O O10 0.713089 0.284555 0.131570
O O11 0.739505 0.788114 0.482724
O O12 0.248898 0.726885 0.424801
#
# Coordination Sequence:
#
# PCOD9411778 Si02
#       6
#     4   8   4   8   8   8
#     4  12  28  52  75 108 151 202 260 312 360 436
#     4  11  24  47  73 107 145 188 242 303 371 448
#     4  10  22  40  67  98 141 190 228 298 366 436
#     4  10  23  46  73 110 150 189 242 307 382 454
#     4  11  25  42  66 100 139 187 241 298 357 426
#     4  11  25  47  77 106 148 197 251 306 378 435
#
# _framework density 25.813972
#
# number of rings (size 3 to 8) (size 9 to 14) (size 15 to 20)
#    0.000    1.200    2.000    2.400    7.000    1.600 
#    7.200    2.000    0.000    0.000    0.000    0.000 
#    0.000    0.000    0.000    0.000    0.000    0.000 
#
# Total GULP energy -223318.558162 kJ/mol
# GULP energy per Si atom -5582.963954 kJ/mol
# Density = 2.575522 g / cm^3
# Si number density = 25.813972 Si / 1000 Ang^3
#
#
#
# Elastic Constant Matrix: (Units=GPa)
#
#
# Indices 1 2 3 4 5 6 
#
# 1 87.8285 3.4745 -2.5783 0.0000 0.0000 0.0000
# 2 3.4745 132.1031 63.3222 0.0000 0.0000 0.0000
# 3 -2.5783 63.3222 178.0453 0.0000 0.0000 0.0000
# 4 0.0000 0.0000 0.0000-2848.7018 0.0000 0.0000
# 5 0.0000 0.0000 0.0000 0.0000 24.4718 0.0000
# 6 0.0000 0.0000 0.0000 0.0000 0.0000 23.7910
#
#
#
# Elastic Compliance Matrix: (Units=1/GPa)
#
#
# Indices 1 2 3 4 5 6 
#
# 1 0.011414 -0.000457 0.000328 0.000000 0.000000 0.000000
# 2 -0.000457 0.009144 -0.003259 0.000000 0.000000 0.000000
# 3 0.000328 -0.003259 0.006780 0.000000 0.000000 0.000000
# 4 0.000000 0.000000 0.000000 -0.000351 0.000000 0.000000
# 5 0.000000 0.000000 0.000000 0.000000 0.040863 0.000000
# 6 0.000000 0.000000 0.000000 0.000000 0.000000 0.042033
#
#
# Mechanical properties :
#
#
# Convention : Reuss Voigt Hill
#
# Bulk Modulus (GPa) = 48.63464 58.49040 53.56252
# Shear Modulus (GPa) = 40.48166 -537.83723 -248.67778
#
# Velocity S-wave (km/s) = 3.96436 -14.45004 -9.82567
# Velocity P-wave (km/s) = 6.31159 15.99053 10.38896
#
# Compressibility (1/GPa) = 0.02056148
#
# Stress axis : x y z
#
# Youngs Moduli (GPa) = 87.61514 109.36280 147.48722
#
# Poissons Ratio (x) = 0.05002 -0.04837
# Poissons Ratio (y) = 0.04007 0.48061
# Poissons Ratio (z) = -0.02873 0.35638
#
# Static dielectric constant tensor:
#      x y z
#    x 2.085220 0.000000 0.000000 
#    y 0.000000 2.180720 0.000000 
#    z 0.000000 0.000000 2.028760 
# 
# From -- ./inp_files/38678.got.cif
#   From: 2010.05.17/outbox.cif.g08.bks.cpg/sg52_20_cif.got.tgz:38678.got - 2010.06.03 12:15:38.
