data_PCOD9411204
_publ_section_title
;
Structure prediction by ZEFSAII (Michael W. Deem and Ramdas Pophale) SiO2 
 PCOD9411204
Probable space group: P N N A
;
_chemical_formula_sum "Si O2"
_cell_formula_units_Z 60
_cell_length_a 16.936471
_cell_length_b 8.969096
_cell_length_c 18.908803
_cell_angle_alpha 90.000000
_cell_angle_beta 90.000000
_cell_angle_gamma 90.000000
_cell_volume 2872.338587
_symmetry_space_group_name_H-M "P N N A"
_symmetry_group_IT_number 52
_symmetry_cell_setting 'orthorhombic'
loop_
_space_group_symop_operation_xyz
x,y,z
1/2-x,-y,z
x,1/2-y,1/2-z
1/2-x,1/2+y,1/2-z
-x,-y,-z
1/2+x,y,-z
-x,1/2+y,1/2+z
1/2+x,1/2-y,1/2+z
loop_
_atom_site_type_symbol
_atom_site_label
_atom_site_fract_x
_atom_site_fract_y
_atom_site_fract_z
Si Si1 0.656762 0.694722 0.048482
Si Si2 0.611219 0.969018 0.315569
Si Si3 0.834344 0.053386 0.859831
Si Si4 0.250000 0.000000 0.786467
Si Si5 0.669141 0.595525 0.895018
Si Si6 0.050134 0.574658 0.232778
Si Si7 0.593960 0.017582 0.005860
Si Si8 0.175038 0.259033 0.608982
O O1 0.610860 0.636776 0.116788
O O2 0.630717 0.864496 0.035856
O O3 0.749911 0.693048 0.066891
O O4 0.643506 0.597742 0.977569
O O5 0.683027 0.931300 0.263728
O O6 0.529991 0.983656 0.274394
O O7 0.631010 0.131018 0.348416
O O8 0.821808 0.227964 0.878149
O O9 0.897123 0.028804 0.798812
O O10 0.750000 0.000000 0.834858
O O11 0.864557 0.969141 0.929606
O O12 0.290050 0.877126 0.835625
O O13 0.750000 0.500000 0.886516
O O14 0.601265 0.551926 0.838895
O O15 0.032930 0.750000 0.250000
O O16 0.618117 0.153655 0.055714
O O17 0.500000 0.000000 0.000000
#
# Coordination Sequence:
#
# PCOD9411204 Si02
#       8
#     8   8   8   4   8   8   8   8
#     4  11  23  45  63 101 134 174 226 271 328 409
#     4  12  26  41  68 100 134 178 221 278 337 398
#     4  10  22  43  69  95 129 172 225 271 331 401
#     4  12  24  40  70  96 132 176 226 260 338 410
#     4  10  21  40  70  94 128 173 219 271 329 396
#     4  10  23  42  66  94 132 175 221 269 335 395
#     4  11  25  42  70 100 132 175 222 281 337 401
#     4  12  23  43  70  94 134 181 222 270 336 408
#
# _framework density 20.888902999999999
#
# number of rings (size 3 to 8) (size 9 to 14) (size 15 to 20)
#    0.000    1.067    2.667    4.000    7.467    0.533 
#    4.800    0.000    0.000    0.000    0.000    0.000 
#    0.000    0.000    0.000    0.000    0.000    0.000 
#
# Total GULP energy -335682.417111 kJ/mol
# GULP energy per Si atom -5594.706952 kJ/mol
# Density = 2.084136 g / cm^3
# Si number density = 20.888903 Si / 1000 Ang^3
#
#
#
# Elastic Constant Matrix: (Units=GPa)
#
#
# Indices 1 2 3 4 5 6 
#
# 1 111.5715 7.5613 34.1270 0.0000 0.0000 0.0000
# 2 7.5613 27.4094 18.5491 0.0000 0.0000 0.0000
# 3 34.1270 18.5491 118.1840 0.0000 0.0000 0.0000
# 4 0.0000 0.0000 0.0000 5.9421 0.0000 0.0000
# 5 0.0000 0.0000 0.0000 0.0000 1.8869 0.0000
# 6 0.0000 0.0000 0.0000 0.0000 0.0000 27.6960
#
#
#
# Elastic Compliance Matrix: (Units=1/GPa)
#
#
# Indices 1 2 3 4 5 6 
#
# 1 0.009850 -0.000887 -0.002705 0.000000 0.000000 0.000000
# 2 -0.000887 0.040899 -0.006163 0.000000 0.000000 0.000000
# 3 -0.002705 -0.006163 0.010210 0.000000 0.000000 0.000000
# 4 0.000000 0.000000 0.000000 0.168292 0.000000 0.000000
# 5 0.000000 0.000000 0.000000 0.000000 0.529973 0.000000
# 6 0.000000 0.000000 0.000000 0.000000 0.000000 0.036106
#
#
# Mechanical properties :
#
#
# Convention : Reuss Voigt Hill
#
# Bulk Modulus (GPa) = 24.12577 41.95998 33.04288
# Shear Modulus (GPa) = 6.03386 20.23348 13.13367
#
# Velocity S-wave (km/s) = 1.70142 3.11565 2.51019
# Velocity P-wave (km/s) = 3.92866 5.75099 4.92485
#
# Compressibility (1/GPa) = 0.04144945
#
# Stress axis : x y z
#
# Youngs Moduli (GPa) = 101.51847 24.45032 97.94437
#
# Poissons Ratio (x) = 0.02168 0.26497
# Poissons Ratio (y) = 0.09001 0.60365
# Poissons Ratio (z) = 0.27463 0.15069
#
# Static dielectric constant tensor:
#      x y z
#    x 1.608380 0.000000 0.000000 
#    y 0.000000 1.635000 0.000000 
#    z 0.000000 0.000000 1.751220 
# 
# From -- ./inp_files/33769.got.cif
#   From: 2010.05.17/outbox.cif.g08.bks.cpg/sg52_17_cif.got.tgz:33769.got - 2010.06.03 12:15:38.
