data_PCOD9411341
_publ_section_title
;
Structure prediction by ZEFSAII (Michael W. Deem and Ramdas Pophale) SiO2 
 PCOD9411341
Probable space group: P N N A
;
_chemical_formula_sum "Si O2"
_cell_formula_units_Z 56
_cell_length_a 9.574082
_cell_length_b 20.081654
_cell_length_c 14.921083
_cell_angle_alpha 90.000000
_cell_angle_beta 90.000000
_cell_angle_gamma 90.000000
_cell_volume 2868.778180
_symmetry_space_group_name_H-M "P N N A"
_symmetry_group_IT_number 52
_symmetry_cell_setting 'orthorhombic'
loop_
_space_group_symop_operation_xyz
x,y,z
1/2-x,-y,z
x,1/2-y,1/2-z
1/2-x,1/2+y,1/2-z
-x,-y,-z
1/2+x,y,-z
-x,1/2+y,1/2+z
1/2+x,1/2-y,1/2+z
loop_
_atom_site_type_symbol
_atom_site_label
_atom_site_fract_x
_atom_site_fract_y
_atom_site_fract_z
Si Si1 0.098272 0.684596 0.187259
Si Si2 0.427300 0.695091 0.173587
Si Si3 0.882449 0.410282 0.267327
Si Si4 0.379178 0.546279 0.538555
Si Si5 0.800598 0.158159 0.042316
Si Si6 0.434532 0.935962 0.768081
Si Si7 0.540229 0.254421 0.475042
O O1 0.070567 0.750000 0.250000
O O2 0.264237 0.677489 0.179524
O O3 0.024020 0.702527 0.094191
O O4 0.037881 0.614875 0.221851
O O5 0.454481 0.750000 0.250000
O O6 0.528724 0.635312 0.201250
O O7 0.449626 0.724096 0.074576
O O8 0.863731 0.374913 0.366202
O O9 0.722907 0.420360 0.235810
O O10 0.952061 0.483898 0.268276
O O11 0.250000 0.500000 0.568447
O O12 0.500000 0.500000 0.500000
O O13 0.293661 0.603865 0.487548
O O14 0.436987 0.580786 0.626712
O O15 0.689705 0.217549 0.058067
O O16 0.927392 0.186405 0.985459
#
# Coordination Sequence:
#
# PCOD9411341 Si02
#       7
#     8   8   8   8   8   8   8
#     4  11  25  44  64  98 136 177 227 285 344 413
#     4  11  24  41  67 101 136 176 233 288 345 411
#     4  10  21  42  67  95 129 179 221 278 340 414
#     4  11  21  39  59  96 136 177 222 272 343 422
#     4  11  22  39  67  97 141 176 228 283 344 409
#     4  10  22  43  63  93 132 176 228 271 342 412
#     4  12  24  43  66 102 136 182 233 287 346 411
#
# _framework density 19.520505
#
# number of rings (size 3 to 8) (size 9 to 14) (size 15 to 20)
#    0.000    1.143    5.714    2.571    2.000    1.143 
#    2.571    0.714    0.000    0.000    0.000    0.000 
#    0.000    0.000    0.000    0.000    0.000    0.000 
#
# Total GULP energy -312364.076314 kJ/mol
# GULP energy per Si atom -5577.929934 kJ/mol
# Density = 1.947608 g / cm^3
# Si number density = 19.520505 Si / 1000 Ang^3
#
#
#
# Elastic Constant Matrix: (Units=GPa)
#
#
# Indices 1 2 3 4 5 6 
#
# 1 99.1419 74.8990 50.3959 0.0000 0.0000 0.0000
# 2 74.8990 121.6796 59.0903 0.0000 0.0000 0.0000
# 3 50.3959 59.0903 98.0729 0.0000 0.0000 0.0000
# 4 0.0000 0.0000 0.0000 42.8876 0.0000 0.0000
# 5 0.0000 0.0000 0.0000 0.0000 24.9977 0.0000
# 6 0.0000 0.0000 0.0000 0.0000 0.0000 44.9468
#
#
#
# Elastic Compliance Matrix: (Units=1/GPa)
#
#
# Indices 1 2 3 4 5 6 
#
# 1 0.019919 -0.010306 -0.004026 0.000000 0.000000 0.000000
# 2 -0.010306 0.016949 -0.004917 0.000000 0.000000 0.000000
# 3 -0.004026 -0.004917 0.015228 0.000000 0.000000 0.000000
# 4 0.000000 0.000000 0.000000 0.023317 0.000000 0.000000
# 5 0.000000 0.000000 0.000000 0.000000 0.040004 0.000000
# 6 0.000000 0.000000 0.000000 0.000000 0.000000 0.022249
#
#
# Mechanical properties :
#
#
# Convention : Reuss Voigt Hill
#
# Bulk Modulus (GPa) = 73.53449 76.40722 74.97085
# Shear Modulus (GPa) = 27.67093 31.53370 29.60232
#
# Velocity S-wave (km/s) = 3.76910 4.02358 3.89842
# Velocity P-wave (km/s) = 7.52952 7.79824 7.66506
#
# Compressibility (1/GPa) = 0.01359906
#
# Stress axis : x y z
#
# Youngs Moduli (GPa) = 50.20385 58.99880 65.66957
#
# Poissons Ratio (x) = 0.60802 0.26440
# Poissons Ratio (y) = 0.51738 0.32287
# Poissons Ratio (z) = 0.20213 0.29008
#
# Static dielectric constant tensor:
#      x y z
#    x 1.717780 0.000000 0.000000 
#    y 0.000000 1.819860 0.000000 
#    z 0.000000 0.000000 1.695640 
# 
# From -- ./inp_files/24958.got.cif
#   From: 2010.05.17/outbox.cif.g08.bks.cpg/sg52_13_cif.got.tgz:24958.got - 2010.06.03 12:15:38.
