data_PCOD9411597
_publ_section_title
;
Structure prediction by ZEFSAII (Michael W. Deem and Ramdas Pophale) SiO2 
 PCOD9411597
Probable space group: P N N A
;
_chemical_formula_sum "Si O2"
_cell_formula_units_Z 48
_cell_length_a 9.060978
_cell_length_b 14.433841
_cell_length_c 16.767045
_cell_angle_alpha 90.000000
_cell_angle_beta 90.000000
_cell_angle_gamma 90.000000
_cell_volume 2192.873214
_symmetry_space_group_name_H-M "P N N A"
_symmetry_group_IT_number 52
_symmetry_cell_setting 'orthorhombic'
loop_
_space_group_symop_operation_xyz
x,y,z
1/2-x,-y,z
x,1/2-y,1/2-z
1/2-x,1/2+y,1/2-z
-x,-y,-z
1/2+x,y,-z
-x,1/2+y,1/2+z
1/2+x,1/2-y,1/2+z
loop_
_atom_site_type_symbol
_atom_site_label
_atom_site_fract_x
_atom_site_fract_y
_atom_site_fract_z
Si Si1 0.976033 0.314081 0.321254
Si Si2 0.716413 0.106444 0.110738
Si Si3 0.953593 0.727272 0.061540
Si Si4 0.105906 0.471308 0.223241
Si Si5 0.202521 0.314901 0.099550
Si Si6 0.424097 0.848290 0.720830
O O1 0.913369 0.250000 0.250000
O O2 0.003935 0.411223 0.279287
O O3 0.128332 0.267575 0.348796
O O4 0.866493 0.333332 0.393888
O O5 0.589991 0.163525 0.064423
O O6 0.671339 0.116514 0.204512
O O7 0.750000 0.000000 0.089904
O O8 0.126242 0.706019 0.079222
O O9 0.861327 0.682111 0.135565
O O10 0.892813 0.683539 0.981057
O O11 0.250000 0.500000 0.272157
O O12 0.164150 0.407016 0.150847
O O13 0.027188 0.565609 0.200627
O O14 0.495563 0.750000 0.750000
#
# Coordination Sequence:
#
# PCOD9411597 Si02
#       6
#     8   8   8   8   8   8
#     4  10  22  38  64  94 128 166 214 271 319 394
#     4  11  22  41  67  99 128 170 223 273 335 395
#     4  11  24  43  64  90 135 178 215 277 330 394
#     4  11  22  39  67 102 128 167 222 266 330 398
#     4  11  25  43  65  93 134 177 221 266 336 393
#     4  10  22  40  69  94 134 170 215 274 337 389
#
# _framework density 21.889091000000001
#
# number of rings (size 3 to 8) (size 9 to 14) (size 15 to 20)
#    0.000    1.333    3.333    2.500    4.667    2.000 
#    0.000    4.167    0.000    0.000    0.000    0.000 
#    0.000    0.000    0.000    0.000    0.000    0.000 
#
# Total GULP energy -267630.229775 kJ/mol
# GULP energy per Si atom -5575.629787 kJ/mol
# Density = 2.183927 g / cm^3
# Si number density = 21.889091 Si / 1000 Ang^3
#
#
#
# Elastic Constant Matrix: (Units=GPa)
#
#
# Indices 1 2 3 4 5 6 
#
# 1 109.0076 51.8571 17.7937 0.0000 0.0000 0.0000
# 2 51.8571 152.5088 5.2355 0.0000 0.0000 0.0000
# 3 17.7937 5.2355 65.2655 0.0000 0.0000 0.0000
# 4 0.0000 0.0000 0.0000 12.6433 0.0000 0.0000
# 5 0.0000 0.0000 0.0000 0.0000 31.6384 0.0000
# 6 0.0000 0.0000 0.0000 0.0000 0.0000 31.7415
#
#
#
# Elastic Compliance Matrix: (Units=1/GPa)
#
#
# Indices 1 2 3 4 5 6 
#
# 1 0.011437 -0.003792 -0.002814 0.000000 0.000000 0.000000
# 2 -0.003792 0.007833 0.000406 0.000000 0.000000 0.000000
# 3 -0.002814 0.000406 0.016057 0.000000 0.000000 0.000000
# 4 0.000000 0.000000 0.000000 0.079093 0.000000 0.000000
# 5 0.000000 0.000000 0.000000 0.000000 0.031607 0.000000
# 6 0.000000 0.000000 0.000000 0.000000 0.000000 0.031504
#
#
# Mechanical properties :
#
#
# Convention : Reuss Voigt Hill
#
# Bulk Modulus (GPa) = 43.62047 52.95050 48.28549
# Shear Modulus (GPa) = 25.30694 31.99768 28.65231
#
# Velocity S-wave (km/s) = 3.40390 3.82751 3.62190
# Velocity P-wave (km/s) = 5.95146 6.61634 6.29269
#
# Compressibility (1/GPa) = 0.02292502
#
# Stress axis : x y z
#
# Youngs Moduli (GPa) = 87.43494 127.67218 62.27935
#
# Poissons Ratio (x) = 0.48417 0.17525
# Poissons Ratio (y) = 0.33158 -0.02526
# Poissons Ratio (z) = 0.24604 -0.05178
#
# Static dielectric constant tensor:
#      x y z
#    x 1.891960 0.000000 0.000000 
#    y 0.000000 1.817470 0.000000 
#    z 0.000000 0.000000 1.803370 
# 
# From -- ./inp_files/31242.got.cif
#   From: 2010.05.17/outbox.cif.g08.bks.cpg/sg52_16_cif.got.tgz:31242.got - 2010.06.03 12:15:38.
