data_PCOD9411289
_publ_section_title
;
Structure prediction by ZEFSAII (Michael W. Deem and Ramdas Pophale) SiO2 
 PCOD9411289
Probable space group: P N N A
;
_chemical_formula_sum "Si O2"
_cell_formula_units_Z 48
_cell_length_a 8.856615
_cell_length_b 18.666789
_cell_length_c 13.721403
_cell_angle_alpha 90.000000
_cell_angle_beta 90.000000
_cell_angle_gamma 90.000000
_cell_volume 2268.484961
_symmetry_space_group_name_H-M "P N N A"
_symmetry_group_IT_number 52
_symmetry_cell_setting 'orthorhombic'
loop_
_space_group_symop_operation_xyz
x,y,z
1/2-x,-y,z
x,1/2-y,1/2-z
1/2-x,1/2+y,1/2-z
-x,-y,-z
1/2+x,y,-z
-x,1/2+y,1/2+z
1/2+x,1/2-y,1/2+z
loop_
_atom_site_type_symbol
_atom_site_label
_atom_site_fract_x
_atom_site_fract_y
_atom_site_fract_z
Si Si1 0.564122 0.321496 0.338067
Si Si2 0.313959 0.680374 0.882433
Si Si3 0.368197 0.934875 0.240651
Si Si4 0.577385 0.482889 0.398551
Si Si5 0.719515 0.211032 0.851044
Si Si6 0.462205 0.659054 0.075305
O O1 0.612406 0.331837 0.224630
O O2 0.684161 0.267334 0.383906
O O3 0.557386 0.399335 0.381092
O O4 0.400827 0.285525 0.360371
O O5 0.140158 0.659589 0.901040
O O6 0.417371 0.641981 0.963900
O O7 0.319368 0.872256 0.164511
O O8 0.391696 0.894867 0.344051
O O9 0.250000 0.000000 0.248372
O O10 0.513071 0.971462 0.191841
O O11 0.750000 0.500000 0.408723
O O12 0.500000 0.500000 0.500000
O O13 0.685601 0.250000 0.750000
O O14 0.615378 0.261640 0.917110
#
# Coordination Sequence:
#
# PCOD9411289 Si02
#       6
#     8   8   8   8   8   8
#     4  11  24  44  69  95 144 175 231 289 350 410
#     4  11  25  43  69 107 134 184 235 295 345 414
#     4  11  24  46  71 100 137 183 232 283 355 417
#     4  12  28  44  66  98 139 182 228 279 350 422
#     4  10  21  41  70  94 131 177 222 280 342 402
#     4  11  26  43  73 103 141 177 242 285 353 414
#
# _framework density 21.159497999999999
#
# number of rings (size 3 to 8) (size 9 to 14) (size 15 to 20)
#    0.000    1.000    3.333    2.500   14.000    0.000 
#    0.000    4.167    0.000    0.000    0.000    0.000 
#    0.000    0.000    0.000    0.000    0.000    0.000 
#
# Total GULP energy -267793.880898 kJ/mol
# GULP energy per Si atom -5579.039185 kJ/mol
# Density = 2.111134 g / cm^3
# Si number density = 21.159498 Si / 1000 Ang^3
#
#
#
# Elastic Constant Matrix: (Units=GPa)
#
#
# Indices 1 2 3 4 5 6 
#
# 1 121.8860 20.7555 41.0770 0.0000 0.0000 0.0000
# 2 20.7555 116.8840 38.0152 0.0000 0.0000 0.0000
# 3 41.0770 38.0152 95.2903 0.0000 0.0000 0.0000
# 4 0.0000 0.0000 0.0000 16.8475 0.0000 0.0000
# 5 0.0000 0.0000 0.0000 0.0000 31.8900 0.0000
# 6 0.0000 0.0000 0.0000 0.0000 0.0000 25.2128
#
#
#
# Elastic Compliance Matrix: (Units=1/GPa)
#
#
# Indices 1 2 3 4 5 6 
#
# 1 0.009616 -0.000413 -0.003981 0.000000 0.000000 0.000000
# 2 -0.000413 0.009849 -0.003751 0.000000 0.000000 0.000000
# 3 -0.003981 -0.003751 0.013707 0.000000 0.000000 0.000000
# 4 0.000000 0.000000 0.000000 0.059356 0.000000 0.000000
# 5 0.000000 0.000000 0.000000 0.000000 0.031358 0.000000
# 6 0.000000 0.000000 0.000000 0.000000 0.000000 0.039662
#
#
# Mechanical properties :
#
#
# Convention : Reuss Voigt Hill
#
# Bulk Modulus (GPa) = 59.23300 59.30618 59.26959
# Shear Modulus (GPa) = 26.95937 30.40424 28.68181
#
# Velocity S-wave (km/s) = 3.57333 3.79477 3.68571
# Velocity P-wave (km/s) = 6.71411 6.87673 6.79590
#
# Compressibility (1/GPa) = 0.01688248
#
# Stress axis : x y z
#
# Youngs Moduli (GPa) = 103.99124 101.53504 72.95751
#
# Poissons Ratio (x) = 0.04193 0.29041
# Poissons Ratio (y) = 0.04294 0.27367
# Poissons Ratio (z) = 0.41394 0.38087
#
# Static dielectric constant tensor:
#      x y z
#    x 1.788350 0.000000 0.000000 
#    y 0.000000 1.778790 0.000000 
#    z 0.000000 0.000000 1.824930 
# 
# From -- ./inp_files/24734.got.cif
#   From: 2010.05.17/outbox.cif.g08.bks.cpg/sg52_13_cif.got.tgz:24734.got - 2010.06.03 12:15:38.
