data_PCOD9411788
_publ_section_title
;
Structure prediction by ZEFSAII (Michael W. Deem and Ramdas Pophale) SiO2 
 PCOD9411788
Probable space group: P N N A
;
_chemical_formula_sum "Si O2"
_cell_formula_units_Z 40
_cell_length_a 23.207403
_cell_length_b 9.501991
_cell_length_c 8.298960
_cell_angle_alpha 90.000000
_cell_angle_beta 90.000000
_cell_angle_gamma 90.000000
_cell_volume 1830.057899
_symmetry_space_group_name_H-M "P N N A"
_symmetry_group_IT_number 52
_symmetry_cell_setting 'orthorhombic'
loop_
_space_group_symop_operation_xyz
x,y,z
1/2-x,-y,z
x,1/2-y,1/2-z
1/2-x,1/2+y,1/2-z
-x,-y,-z
1/2+x,y,-z
-x,1/2+y,1/2+z
1/2+x,1/2-y,1/2+z
loop_
_atom_site_type_symbol
_atom_site_label
_atom_site_fract_x
_atom_site_fract_y
_atom_site_fract_z
Si Si1 0.126708 0.706453 0.062905
Si Si2 0.747548 0.171001 0.577006
Si Si3 0.061942 0.041521 0.565034
Si Si4 0.126409 0.214514 0.060810
Si Si5 0.436298 0.462100 0.563212
O O1 0.124647 0.750000 0.250000
O O2 0.192059 0.718695 0.999617
O O3 0.107734 0.546221 0.039819
O O4 0.080978 0.801564 0.968660
O O5 0.747479 0.250000 0.750000
O O6 0.688353 0.228466 0.500794
O O7 0.750000 0.000000 0.592871
O O8 0.076753 0.203025 0.534839
O O9 0.067096 0.999745 0.749914
O O10 0.000000 0.000000 0.500000
O O11 0.121450 0.250000 0.250000
O O12 0.112484 0.052251 0.030580
O O13 0.500000 0.500000 0.500000
#
# Coordination Sequence:
#
# PCOD9411788 Si02
#       5
#     8   8   8   8   8
#     4  11  23  42  68  96 132 172 222 272 325 393
#     4  10  22  40  69 101 134 174 224 271 328 396
#     4  12  24  43  66  93 133 174 218 276 335 396
#     4  11  23  42  68  96 132 172 222 272 325 393
#     4  12  26  43  64  99 133 174 222 270 337 398
#
# _framework density 21.857230999999999
#
# number of rings (size 3 to 8) (size 9 to 14) (size 15 to 20)
#    0.000    0.800    2.000    6.000    8.400    0.000 
#    0.000    6.000    0.000    0.000    0.000    0.000 
#    0.000    0.000    0.000    0.000    0.000    0.000 
#
# Total GULP energy -223652.292312 kJ/mol
# GULP energy per Si atom -5591.307308 kJ/mol
# Density = 2.180748 g / cm^3
# Si number density = 21.857231 Si / 1000 Ang^3
#
#
#
# Elastic Constant Matrix: (Units=GPa)
#
#
# Indices 1 2 3 4 5 6 
#
# 1 134.5125 5.8282 2.2725 0.0000 0.0000 0.0000
# 2 5.8282 72.0797 -4.5053 0.0000 0.0000 0.0000
# 3 2.2725 -4.5053 88.7744 0.0000 0.0000 0.0000
# 4 0.0000 0.0000 0.0000 39.9797 0.0000 0.0000
# 5 0.0000 0.0000 0.0000 0.0000 15.8126 0.0000
# 6 0.0000 0.0000 0.0000 0.0000 0.0000 39.6846
#
#
#
# Elastic Compliance Matrix: (Units=1/GPa)
#
#
# Indices 1 2 3 4 5 6 
#
# 1 0.007465 -0.000617 -0.000222 0.000000 0.000000 0.000000
# 2 -0.000617 0.013969 0.000725 0.000000 0.000000 0.000000
# 3 -0.000222 0.000725 0.011307 0.000000 0.000000 0.000000
# 4 0.000000 0.000000 0.000000 0.025013 0.000000 0.000000
# 5 0.000000 0.000000 0.000000 0.000000 0.063241 0.000000
# 6 0.000000 0.000000 0.000000 0.000000 0.000000 0.025199
#
#
# Mechanical properties :
#
#
# Convention : Reuss Voigt Hill
#
# Bulk Modulus (GPa) = 30.75967 33.61750 32.18859
# Shear Modulus (GPa) = 31.79452 38.54678 35.17065
#
# Velocity S-wave (km/s) = 3.81812 4.20405 4.01572
# Velocity P-wave (km/s) = 5.79145 6.24333 6.02163
#
# Compressibility (1/GPa) = 0.03251010
#
# Stress axis : x y z
#
# Youngs Moduli (GPa) = 133.96265 71.58835 88.44093
#
# Poissons Ratio (x) = 0.04420 0.01967
# Poissons Ratio (y) = 0.08272 -0.06409
# Poissons Ratio (z) = 0.02980 -0.05188
#
# Static dielectric constant tensor:
#      x y z
#    x 1.837410 0.000000 0.000000 
#    y 0.000000 1.739870 0.000000 
#    z 0.000000 0.000000 1.775000 
# 
# From -- ./inp_files/14822.got.cif
#   From: 2010.05.17/outbox.cif.g08.bks.cpg/sg52_8_cif.got.tgz:14822.got - 2010.06.03 12:15:38.
