data_PCOD9411293
_publ_section_title
;
Structure prediction by ZEFSAII (Michael W. Deem and Ramdas Pophale) SiO2 
 PCOD9411293
Probable space group: P N N A
;
_chemical_formula_sum "Si O2"
_cell_formula_units_Z 28
_cell_length_a 8.726427
_cell_length_b 5.700748
_cell_length_c 26.152042
_cell_angle_alpha 90.000000
_cell_angle_beta 90.000000
_cell_angle_gamma 90.000000
_cell_volume 1300.989851
_symmetry_space_group_name_H-M "P N N A"
_symmetry_group_IT_number 52
_symmetry_cell_setting 'orthorhombic'
loop_
_space_group_symop_operation_xyz
x,y,z
1/2-x,-y,z
x,1/2-y,1/2-z
1/2-x,1/2+y,1/2-z
-x,-y,-z
1/2+x,y,-z
-x,1/2+y,1/2+z
1/2+x,1/2-y,1/2+z
loop_
_atom_site_type_symbol
_atom_site_label
_atom_site_fract_x
_atom_site_fract_y
_atom_site_fract_z
Si Si1 0.483472 0.183947 0.860775
Si Si2 0.493105 0.174568 0.047645
Si Si3 0.250000 0.000000 0.778575
Si Si4 0.750000 0.000000 0.599176
Si Si5 0.250000 0.500000 0.922439
O O1 0.639895 0.337284 0.864998
O O2 0.357121 0.352695 0.885336
O O3 0.499297 0.977264 0.901212
O O4 0.402532 0.071185 0.811236
O O5 0.350500 0.340193 0.060907
O O6 0.642580 0.335158 0.044515
O O7 0.500000 0.000000 0.000000
O O8 0.283629 0.750000 0.750000
#
# Coordination Sequence:
#
# PCOD9411293 Si02
#       5
#     8   8   4   4   4
#     4  11  23  45  73 108 148 190 249 321 377 463
#     4  11  24  42  69 105 151 203 251 305 388 464
#     4  12  27  48  87 116 146 203 270 329 402 470
#     4  10  26  43  73 104 158 195 248 316 391 450
#     4  10  21  41  70  98 152 196 252 301 375 448
#
# _framework density 21.522074
#
# number of rings (size 3 to 8) (size 9 to 14) (size 15 to 20)
#    0.000    1.143    2.857    1.714    4.000   11.429 
#    0.000    4.286    6.286    0.000    0.000    0.000 
#    0.000    0.000    0.000    0.000    0.000    0.000 
#
# Total GULP energy -156368.401398 kJ/mol
# GULP energy per Si atom -5584.585764 kJ/mol
# Density = 2.147309 g / cm^3
# Si number density = 21.522074 Si / 1000 Ang^3
#
#
#
# Elastic Constant Matrix: (Units=GPa)
#
#
# Indices 1 2 3 4 5 6 
#
# 1 119.5810 62.6991 36.9093 0.0000 0.0000 0.0000
# 2 62.6991 157.1614 65.0255 0.0000 0.0000 0.0000
# 3 36.9093 65.0255 100.5128 0.0000 0.0000 0.0000
# 4 0.0000 0.0000 0.0000 54.0236 0.0000 0.0000
# 5 0.0000 0.0000 0.0000 0.0000 27.4662 0.0000
# 6 0.0000 0.0000 0.0000 0.0000 0.0000 -392.0001
#
#
#
# Elastic Compliance Matrix: (Units=1/GPa)
#
#
# Indices 1 2 3 4 5 6 
#
# 1 0.010760 -0.003629 -0.001603 0.000000 0.000000 0.000000
# 2 -0.003629 0.009913 -0.005080 0.000000 0.000000 0.000000
# 3 -0.001603 -0.005080 0.013824 0.000000 0.000000 0.000000
# 4 0.000000 0.000000 0.000000 0.018510 0.000000 0.000000
# 5 0.000000 0.000000 0.000000 0.000000 0.036408 0.000000
# 6 0.000000 0.000000 0.000000 0.000000 0.000000 -0.002551
#
#
# Mechanical properties :
#
#
# Convention : Reuss Voigt Hill
#
# Bulk Modulus (GPa) = 72.08971 78.50254 75.29612
# Shear Modulus (GPa) = 44.59711 -47.92729 -1.66509
#
# Velocity S-wave (km/s) = 4.55703 -4.72411 -0.88054
# Velocity P-wave (km/s) = 7.82670 2.60734 5.83333
#
# Compressibility (1/GPa) = 0.01387161
#
# Stress axis : x y z
#
# Youngs Moduli (GPa) = 92.93322 100.88003 72.33659
#
# Poissons Ratio (x) = 0.36614 0.11598
# Poissons Ratio (y) = 0.33730 0.36748
# Poissons Ratio (z) = 0.14900 0.51249
#
# Static dielectric constant tensor:
#      x y z
#    x 1.978400 0.000000 0.000000 
#    y 0.000000 1.842670 0.000000 
#    z 0.000000 0.000000 1.770220 
# 
# From -- ./inp_files/41997.got.cif
#   From: 2010.05.17/outbox.cif.g08.bks.cpg/sg52_21_cif.got.tgz:41997.got - 2010.06.03 12:15:38.
