data_PCOD9411547
_publ_section_title
;
Structure prediction by ZEFSAII (Michael W. Deem and Ramdas Pophale) SiO2 
 PCOD9411547
Probable space group: P N N A
;
_chemical_formula_sum "Si O2"
_cell_formula_units_Z 48
_cell_length_a 8.906744
_cell_length_b 12.674153
_cell_length_c 22.827334
_cell_angle_alpha 90.000000
_cell_angle_beta 90.000000
_cell_angle_gamma 90.000000
_cell_volume 2576.873556
_symmetry_space_group_name_H-M "P N N A"
_symmetry_group_IT_number 52
_symmetry_cell_setting 'orthorhombic'
loop_
_space_group_symop_operation_xyz
x,y,z
1/2-x,-y,z
x,1/2-y,1/2-z
1/2-x,1/2+y,1/2-z
-x,-y,-z
1/2+x,y,-z
-x,1/2+y,1/2+z
1/2+x,1/2-y,1/2+z
loop_
_atom_site_type_symbol
_atom_site_label
_atom_site_fract_x
_atom_site_fract_y
_atom_site_fract_z
Si Si1 0.033271 0.752318 0.154901
Si Si2 0.188555 0.792868 0.666213
Si Si3 0.637182 0.632913 0.947040
Si Si4 0.991304 0.587400 0.928461
Si Si5 0.894605 0.426277 0.750199
Si Si6 0.646133 0.585571 0.280565
O O1 0.853368 0.745273 0.147225
O O2 0.098929 0.736232 0.090219
O O3 0.089777 0.654602 0.195743
O O4 0.084659 0.854727 0.191638
O O5 0.098734 0.685090 0.681034
O O6 0.224510 0.858237 0.725259
O O7 0.084091 0.862006 0.624463
O O8 0.816318 0.618344 0.938950
O O9 0.532023 0.538379 0.920614
O O10 0.587874 0.621867 0.014555
O O11 0.750000 0.500000 0.753107
O O12 0.020664 0.514778 0.747907
O O13 0.750000 0.500000 0.312473
#
# Coordination Sequence:
#
# PCOD9411547 Si02
#       6
#     8   8   8   8   8   8
#     4  11  22  38  57  86 117 154 192 237 286 342
#     4  11  22  35  62  85 114 155 195 234 286 342
#     4  10  22  38  58  85 119 147 193 235 292 341
#     4  10  22  38  59  87 114 153 187 240 290 344
#     4  11  24  36  57  84 122 154 189 237 288 338
#     4  11  20  38  56  86 117 154 192 230 284 348
#
# _framework density 18.627223999999998
#
# number of rings (size 3 to 8) (size 9 to 14) (size 15 to 20)
#    0.000    1.333    3.333    3.000    7.000    2.667 
#    0.000    0.000    0.000    2.000    0.000    0.000 
#    0.000    0.000    0.000    0.000    0.000    0.000 
#
# Total GULP energy -267331.379501 kJ/mol
# GULP energy per Si atom -5569.403740 kJ/mol
# Density = 1.858483 g / cm^3
# Si number density = 18.627224 Si / 1000 Ang^3
#
#
#
# Elastic Constant Matrix: (Units=GPa)
#
#
# Indices 1 2 3 4 5 6 
#
# 1 61.5174 22.4033 3.3896 0.0000 0.0000 0.0000
# 2 22.4033 83.7398 26.7842 0.0000 0.0000 0.0000
# 3 3.3896 26.7842 71.1691 0.0000 0.0000 0.0000
# 4 0.0000 0.0000 0.0000 27.9828 0.0000 0.0000
# 5 0.0000 0.0000 0.0000 0.0000 33.2409 0.0000
# 6 0.0000 0.0000 0.0000 0.0000 0.0000 -8.6403
#
#
#
# Elastic Compliance Matrix: (Units=1/GPa)
#
#
# Indices 1 2 3 4 5 6 
#
# 1 0.018085 -0.005187 0.001091 0.000000 0.000000 0.000000
# 2 -0.005187 0.015064 -0.005422 0.000000 0.000000 0.000000
# 3 0.001091 -0.005422 0.016040 0.000000 0.000000 0.000000
# 4 0.000000 0.000000 0.000000 0.035736 0.000000 0.000000
# 5 0.000000 0.000000 0.000000 0.000000 0.030083 0.000000
# 6 0.000000 0.000000 0.000000 0.000000 0.000000 -0.115737
#
#
# Mechanical properties :
#
#
# Convention : Reuss Voigt Hill
#
# Bulk Modulus (GPa) = 33.16628 35.73115 34.44871
# Shear Modulus (GPa) = 176.31969 21.43998 98.87983
#
# Velocity S-wave (km/s) = 9.73974 3.39632 7.29375
# Velocity P-wave (km/s) = 12.01363 5.88251 9.45862
#
# Compressibility (1/GPa) = 0.03015111
#
# Stress axis : x y z
#
# Youngs Moduli (GPa) = 55.29592 66.38448 62.34535
#
# Poissons Ratio (x) = 0.34435 -0.06801
# Poissons Ratio (y) = 0.28683 0.33804
# Poissons Ratio (z) = -0.06032 0.35995
#
# Static dielectric constant tensor:
#      x y z
#    x 1.962430 0.000000 0.000000 
#    y 0.000000 1.734360 0.000000 
#    z 0.000000 0.000000 1.661380 
# 
# From -- ./inp_files/39453.got.cif
#   From: 2010.05.17/outbox.cif.g08.bks.cpg/sg52_20_cif.got.tgz:39453.got - 2010.06.03 12:15:38.
