data_PCOD9411845
_publ_section_title
;
Structure prediction by ZEFSAII (Michael W. Deem and Ramdas Pophale) SiO2 
 PCOD9411845
Probable space group: P N N A
;
_chemical_formula_sum "Si O2"
_cell_formula_units_Z 48
_cell_length_a 30.100871
_cell_length_b 8.559519
_cell_length_c 9.650557
_cell_angle_alpha 90.000000
_cell_angle_beta 90.000000
_cell_angle_gamma 90.000000
_cell_volume 2486.456141
_symmetry_space_group_name_H-M "P N N A"
_symmetry_group_IT_number 52
_symmetry_cell_setting 'orthorhombic'
loop_
_space_group_symop_operation_xyz
x,y,z
1/2-x,-y,z
x,1/2-y,1/2-z
1/2-x,1/2+y,1/2-z
-x,-y,-z
1/2+x,y,-z
-x,1/2+y,1/2+z
1/2+x,1/2-y,1/2+z
loop_
_atom_site_type_symbol
_atom_site_label
_atom_site_fract_x
_atom_site_fract_y
_atom_site_fract_z
Si Si1 0.070118 0.219533 0.024316
Si Si2 0.061191 0.504578 0.227866
Si Si3 0.514596 0.250000 0.250000
Si Si4 0.666840 0.240193 0.582419
Si Si5 0.295009 0.088543 0.459672
Si Si6 0.262229 0.676212 0.617535
Si Si7 0.859480 0.250000 0.750000
O O1 0.067337 0.388993 0.098464
O O2 0.122614 0.189412 0.017018
O O3 0.051637 0.098406 0.136627
O O4 0.044991 0.208953 0.880676
O O5 0.106001 0.604616 0.257586
O O6 0.019173 0.614230 0.204498
O O7 0.663972 0.250000 0.750000
O O8 0.709040 0.329958 0.522422
O O9 0.673884 0.063647 0.526047
O O10 0.276225 0.195643 0.584232
O O11 0.324848 0.207151 0.371026
O O12 0.250000 0.000000 0.400778
O O13 0.250000 0.500000 0.650627
O O14 0.287047 0.750000 0.750000
#
# Coordination Sequence:
#
# PCOD9411845 Si02
#       7
#     8   8   4   8   8   8   4
#     4  11  21  41  63  92 126 157 207 257 310 377
#     4  10  22  41  65  88 128 160 204 256 309 377
#     4  11  24  38  66  96 116 168 194 258 320 377
#     4  11  22  40  64  92 123 169 212 259 312 361
#     4  10  23  36  60  89 126 157 217 254 306 360
#     4  11  26  42  63  88 131 172 207 260 312 371
#     4  11  20  38  64  94 122 160 214 258 308 357
#
# _framework density 19.304582
#
# number of rings (size 3 to 8) (size 9 to 14) (size 15 to 20)
#    0.000    1.333    3.333    2.500   10.500    0.000 
#    0.000    0.000    0.000    0.000    0.000    0.000 
#    0.000    0.000    0.000    0.000    0.000    0.000 
#
# Total GULP energy -267372.145068 kJ/mol
# GULP energy per Si atom -5570.253022 kJ/mol
# Density = 1.926064 g / cm^3
# Si number density = 19.304582 Si / 1000 Ang^3
#
#
#
# Elastic Constant Matrix: (Units=GPa)
#
#
# Indices 1 2 3 4 5 6 
#
# 1 57.7068 1.0262 24.7520 0.0000 0.0000 0.0000
# 2 1.0262 63.9350 4.8335 0.0000 0.0000 0.0000
# 3 24.7520 4.8335 61.1628 0.0000 0.0000 0.0000
# 4 0.0000 0.0000 0.0000 25.9171 0.0000 0.0000
# 5 0.0000 0.0000 0.0000 0.0000 -7.0619 0.0000
# 6 0.0000 0.0000 0.0000 0.0000 0.0000 7.9854
#
#
#
# Elastic Compliance Matrix: (Units=1/GPa)
#
#
# Indices 1 2 3 4 5 6 
#
# 1 0.020975 0.000307 -0.008513 0.000000 0.000000 0.000000
# 2 0.000307 0.015739 -0.001368 0.000000 0.000000 0.000000
# 3 -0.008513 -0.001368 0.019903 0.000000 0.000000 0.000000
# 4 0.000000 0.000000 0.000000 0.038585 0.000000 0.000000
# 5 0.000000 0.000000 0.000000 0.000000 -0.141605 0.000000
# 6 0.000000 0.000000 0.000000 0.000000 0.000000 0.125228
#
#
# Mechanical properties :
#
#
# Convention : Reuss Voigt Hill
#
# Bulk Modulus (GPa) = 26.68827 27.11424 26.90126
# Shear Modulus (GPa) = 45.26447 15.51431 30.38939
#
# Velocity S-wave (km/s) = 4.84752 2.83796 3.97193
# Velocity P-wave (km/s) = 6.72206 4.98144 5.91611
#
# Compressibility (1/GPa) = 0.03746964
#
# Stress axis : x y z
#
# Youngs Moduli (GPa) = 47.67636 63.53489 50.24408
#
# Poissons Ratio (x) = -0.01950 0.42770
# Poissons Ratio (y) = -0.01463 0.06874
# Poissons Ratio (z) = 0.40585 0.08692
#
# Static dielectric constant tensor:
#      x y z
#    x 1.687390 0.000000 0.000000 
#    y 0.000000 1.721440 0.000000 
#    z 0.000000 0.000000 1.662130 
# 
# From -- ./inp_files/15602.got.cif
#   From: 2010.05.17/outbox.cif.g08.bks.cpg/sg52_8_cif.got.tgz:15602.got - 2010.06.03 12:15:38.
