data_PCOD9411404
_publ_section_title
;
Structure prediction by ZEFSAII (Michael W. Deem and Ramdas Pophale) SiO2 
 PCOD9411404
Probable space group: P N N A
;
_chemical_formula_sum "Si O2"
_cell_formula_units_Z 32
_cell_length_a 26.544452
_cell_length_b 8.930908
_cell_length_c 5.633587
_cell_angle_alpha 90.000000
_cell_angle_beta 90.000000
_cell_angle_gamma 90.000000
_cell_volume 1335.532267
_symmetry_space_group_name_H-M "P N N A"
_symmetry_group_IT_number 52
_symmetry_cell_setting 'orthorhombic'
loop_
_space_group_symop_operation_xyz
x,y,z
1/2-x,-y,z
x,1/2-y,1/2-z
1/2-x,1/2+y,1/2-z
-x,-y,-z
1/2+x,y,-z
-x,1/2+y,1/2+z
1/2+x,1/2-y,1/2+z
loop_
_atom_site_type_symbol
_atom_site_label
_atom_site_fract_x
_atom_site_fract_y
_atom_site_fract_z
Si Si1 0.498585 0.818052 0.500869
Si Si2 0.250000 0.000000 0.419462
Si Si3 0.344810 0.599965 0.385268
Si Si4 0.387325 0.196679 0.002293
Si Si5 0.725405 0.250000 0.250000
O O1 0.476363 0.750000 0.750000
O O2 0.556635 0.763481 0.502848
O O3 0.500000 0.000000 0.500000
O O4 0.478130 0.750000 0.250000
O O5 0.198919 0.028223 0.277233
O O6 0.256633 0.149035 0.573350
O O7 0.362093 0.750000 0.250000
O O8 0.386342 0.482164 0.466380
O O9 0.312332 0.641998 0.613283
O O10 0.363008 0.250000 0.250000
O O11 0.365221 0.250000 0.750000
#
# Coordination Sequence:
#
# PCOD9411404 Si02
#       5
#     8   4   8   8   4
#     4  10  21  43  73 105 141 179 227 281 347 426
#     4  10  22  40  60  94 120 176 230 288 340 408
#     4  10  23  42  62  91 133 177 236 288 349 408
#     4  10  24  43  66 100 136 179 228 282 350 414
#     4  10  22  40  62  88 126 172 236 286 348 402
#
# _framework density 23.960487000000001
#
# number of rings (size 3 to 8) (size 9 to 14) (size 15 to 20)
#    0.000    2.000    0.000    1.500    7.000    5.000 
#    2.250   15.000    0.000    0.000    0.000    0.000 
#    0.000    0.000    0.000    0.000    0.000    0.000 
#
# Total GULP energy -178704.771921 kJ/mol
# GULP energy per Si atom -5584.524123 kJ/mol
# Density = 2.390595 g / cm^3
# Si number density = 23.960487 Si / 1000 Ang^3
#
#
#
# Elastic Constant Matrix: (Units=GPa)
#
#
# Indices 1 2 3 4 5 6 
#
# 1 83.5262 66.9363 19.0780 0.0000 0.0000 0.0000
# 2 66.9363 162.6098 51.3315 0.0000 0.0000 0.0000
# 3 19.0780 51.3315 190.3438 0.0000 0.0000 0.0000
# 4 0.0000 0.0000 0.0000 -12.1463 0.0000 0.0000
# 5 0.0000 0.0000 0.0000 0.0000 4.5648 0.0000
# 6 0.0000 0.0000 0.0000 0.0000 0.0000 61.7443
#
#
#
# Elastic Compliance Matrix: (Units=1/GPa)
#
#
# Indices 1 2 3 4 5 6 
#
# 1 0.017874 -0.007424 0.000211 0.000000 0.000000 0.000000
# 2 -0.007424 0.009806 -0.001900 0.000000 0.000000 0.000000
# 3 0.000211 -0.001900 0.005745 0.000000 0.000000 0.000000
# 4 0.000000 0.000000 0.000000 -0.082329 0.000000 0.000000
# 5 0.000000 0.000000 0.000000 0.000000 0.219069 0.000000
# 6 0.000000 0.000000 0.000000 0.000000 0.000000 0.016196
#
#
# Mechanical properties :
#
#
# Convention : Reuss Voigt Hill
#
# Bulk Modulus (GPa) = 65.80252 79.01906 72.41079
# Shear Modulus (GPa) = 23.84907 30.77482 27.31194
#
# Velocity S-wave (km/s) = 3.15834 3.58774 3.37987
# Velocity P-wave (km/s) = 6.38926 7.08611 6.74669
#
# Compressibility (1/GPa) = 0.01519699
#
# Stress axis : x y z
#
# Youngs Moduli (GPa) = 55.94853 101.98351 174.06459
#
# Poissons Ratio (x) = 0.75712 -0.03666
# Poissons Ratio (y) = 0.41536 0.33076
# Poissons Ratio (z) = -0.01178 0.19379
#
# Static dielectric constant tensor:
#      x y z
#    x 2.004850 0.000000 0.000000 
#    y 0.000000 1.952290 0.000000 
#    z 0.000000 0.000000 2.006430 
# 
# From -- ./inp_files/6161.got.cif
#   From: 2010.05.17/outbox.cif.g08.bks.cpg/sg52_4_cif.got.tgz:6161.got - 2010.06.03 12:15:38.
