data_PCOD9411620
_publ_section_title
;
Structure prediction by ZEFSAII (Michael W. Deem and Ramdas Pophale) SiO2 
 PCOD9411620
Probable space group: P N N A
;
_chemical_formula_sum "Si O2"
_cell_formula_units_Z 48
_cell_length_a 13.230918
_cell_length_b 9.368323
_cell_length_c 15.740384
_cell_angle_alpha 90.000000
_cell_angle_beta 90.000000
_cell_angle_gamma 90.000000
_cell_volume 1951.044418
_symmetry_space_group_name_H-M "P N N A"
_symmetry_group_IT_number 52
_symmetry_cell_setting 'orthorhombic'
loop_
_space_group_symop_operation_xyz
x,y,z
1/2-x,-y,z
x,1/2-y,1/2-z
1/2-x,1/2+y,1/2-z
-x,-y,-z
1/2+x,y,-z
-x,1/2+y,1/2+z
1/2+x,1/2-y,1/2+z
loop_
_atom_site_type_symbol
_atom_site_label
_atom_site_fract_x
_atom_site_fract_y
_atom_site_fract_z
Si Si1 0.751129 0.338828 0.386638
Si Si2 0.576447 0.621351 0.115412
Si Si3 0.643526 0.236939 0.648918
Si Si4 0.808123 0.310818 0.963156
Si Si5 0.071329 0.976860 0.081643
Si Si6 0.931104 0.599672 0.265843
O O1 0.750000 0.500000 0.421853
O O2 0.855936 0.262361 0.359122
O O3 0.725633 0.235050 0.464319
O O4 0.672862 0.355801 0.311511
O O5 0.460228 0.664148 0.119093
O O6 0.590384 0.494824 0.183179
O O7 0.618114 0.591008 0.020101
O O8 0.642065 0.250000 0.750000
O O9 0.741806 0.152483 0.617235
O O10 0.644747 0.393001 0.604875
O O11 0.874043 0.172923 0.936760
O O12 0.998834 0.975167 0.163763
O O13 0.000000 0.000000 0.000000
O O14 0.985486 0.750000 0.250000
#
# Coordination Sequence:
#
# PCOD9411620 Si02
#       6
#     8   8   8   8   8   8
#     4  10  22  38  72 108 148 193 254 317 390 460
#     4  10  25  45  70 114 152 204 263 329 394 466
#     4  12  22  41  75 115 153 203 259 325 393 468
#     4  10  24  42  75 111 151 198 259 312 397 480
#     4  12  22  44  75 107 150 199 259 318 384 475
#     4  12  27  44  74 108 149 200 266 327 389 466
#
# _framework density 24.602205999999999
#
# number of rings (size 3 to 8) (size 9 to 14) (size 15 to 20)
#    1.000    0.000    3.333    4.500    2.333    0.667 
#    0.000    0.833    3.667    0.000    0.000    0.000 
#    0.000    0.000    0.000    0.000    0.000    0.000 
#
# Total GULP energy -268145.294789 kJ/mol
# GULP energy per Si atom -5586.360308 kJ/mol
# Density = 2.454621 g / cm^3
# Si number density = 24.602206 Si / 1000 Ang^3
#
#
#
# Elastic Constant Matrix: (Units=GPa)
#
#
# Indices 1 2 3 4 5 6 
#
# 1 117.5017 28.8034 60.3855 0.0000 0.0000 0.0000
# 2 28.8034 111.1642 46.2515 0.0000 0.0000 0.0000
# 3 60.3855 46.2515 141.2493 0.0000 0.0000 0.0000
# 4 0.0000 0.0000 0.0000 -19.5690 0.0000 0.0000
# 5 0.0000 0.0000 0.0000 0.0000 42.2002 0.0000
# 6 0.0000 0.0000 0.0000 0.0000 0.0000 -8.4313
#
#
#
# Elastic Compliance Matrix: (Units=1/GPa)
#
#
# Indices 1 2 3 4 5 6 
#
# 1 0.011009 -0.001035 -0.004367 0.000000 0.000000 0.000000
# 2 -0.001035 0.010512 -0.002999 0.000000 0.000000 0.000000
# 3 -0.004367 -0.002999 0.009929 0.000000 0.000000 0.000000
# 4 0.000000 0.000000 0.000000 -0.051101 0.000000 0.000000
# 5 0.000000 0.000000 0.000000 0.000000 0.023697 0.000000
# 6 0.000000 0.000000 0.000000 0.000000 0.000000 -0.118605
#
#
# Mechanical properties :
#
#
# Convention : Reuss Voigt Hill
#
# Bulk Modulus (GPa) = 68.28126 71.19957 69.74041
# Shear Modulus (GPa) = -53.83627 18.47163 -17.68232
#
# Velocity S-wave (km/s) = -4.68297 2.74307 -2.68382
# Velocity P-wave (km/s) = 1.19411 6.24786 4.33646
#
# Compressibility (1/GPa) = 0.01464531
#
# Stress axis : x y z
#
# Youngs Moduli (GPa) = 90.83703 95.12990 100.71589
#
# Poissons Ratio (x) = 0.09849 0.43986
# Poissons Ratio (y) = 0.09405 0.30209
# Poissons Ratio (z) = 0.39671 0.28534
#
# Static dielectric constant tensor:
#      x y z
#    x 2.151380 0.000000 0.000000 
#    y 0.000000 6.935200 0.000000 
#    z 0.000000 0.000000 2.042030 
# 
# From -- ./inp_files/33057.got.cif
#   From: 2010.05.17/outbox.cif.g08.bks.cpg/sg52_17_cif.got.tgz:33057.got - 2010.06.03 12:15:38.
