data_PCOD9411924
_publ_section_title
;
Structure prediction by ZEFSAII (Michael W. Deem and Ramdas Pophale) SiO2 
 PCOD9411924
Probable space group: P N N A
;
_chemical_formula_sum "Si O2"
_cell_formula_units_Z 60
_cell_length_a 11.656774
_cell_length_b 16.347065
_cell_length_c 15.013994
_cell_angle_alpha 90.000000
_cell_angle_beta 90.000000
_cell_angle_gamma 90.000000
_cell_volume 2860.977247
_symmetry_space_group_name_H-M "P N N A"
_symmetry_group_IT_number 52
_symmetry_cell_setting 'orthorhombic'
loop_
_space_group_symop_operation_xyz
x,y,z
1/2-x,-y,z
x,1/2-y,1/2-z
1/2-x,1/2+y,1/2-z
-x,-y,-z
1/2+x,y,-z
-x,1/2+y,1/2+z
1/2+x,1/2-y,1/2+z
loop_
_atom_site_type_symbol
_atom_site_label
_atom_site_fract_x
_atom_site_fract_y
_atom_site_fract_z
Si Si1 0.853570 0.242496 0.096087
Si Si2 0.111091 0.219244 0.843263
Si Si3 0.034023 0.250000 0.250000
Si Si4 0.824679 0.624951 0.862549
Si Si5 0.525672 0.046358 0.144731
Si Si6 0.420759 0.444772 0.158750
Si Si7 0.478585 0.832832 0.518321
Si Si8 0.150445 0.567717 0.517584
O O1 0.734837 0.260901 0.145191
O O2 0.951364 0.222976 0.169219
O O3 0.824610 0.162938 0.036156
O O4 0.909170 0.317775 0.042040
O O5 0.061332 0.250000 0.750000
O O6 0.114427 0.121901 0.849876
O O7 0.033134 0.252459 0.922001
O O8 0.113983 0.322729 0.214234
O O9 0.690041 0.614906 0.844997
O O10 0.877427 0.534321 0.866805
O O11 0.867159 0.663431 0.955433
O O12 0.470524 0.045411 0.242253
O O13 0.587484 0.966251 0.106665
O O14 0.431241 0.064134 0.068743
O O15 0.507846 0.408009 0.086038
O O16 0.250000 0.500000 0.501767
#
# Coordination Sequence:
#
# PCOD9411924 Si02
#       8
#     8   8   4   8   8   8   8   8
#     4  11  22  40  63  91 126 167 210 264 320 383
#     4  12  22  40  62  90 124 161 210 260 319 375
#     4  10  22  42  64  94 130 168 214 262 320 384
#     4  10  24  42  65  93 125 169 209 263 318 386
#     4  11  24  40  62  94 125 170 207 263 320 385
#     4  11  23  44  65  92 129 162 214 260 323 375
#     4  11  23  41  65  92 123 165 213 265 317 382
#     4  11  23  40  63  93 130 170 211 261 324 390
#
# _framework density 20.971855000000001
#
# number of rings (size 3 to 8) (size 9 to 14) (size 15 to 20)
#    0.000    1.067    4.667    2.000    1.867    1.067 
#    4.800    0.000    2.933    0.000    0.000    0.000 
#    0.000    0.000    0.000    0.000    0.000    0.000 
#
# Total GULP energy -334947.369988 kJ/mol
# GULP energy per Si atom -5582.456166 kJ/mol
# Density = 2.092412 g / cm^3
# Si number density = 20.971855 Si / 1000 Ang^3
#
#
#
# Elastic Constant Matrix: (Units=GPa)
#
#
# Indices 1 2 3 4 5 6 
#
# 1 52.2101 -9.7695 16.4748 0.0000 0.0000 0.0000
# 2 -9.7695 49.8220 8.6484 0.0000 0.0000 0.0000
# 3 16.4748 8.6484 109.7213 0.0000 0.0000 0.0000
# 4 0.0000 0.0000 0.0000 28.0226 0.0000 0.0000
# 5 0.0000 0.0000 0.0000 0.0000 13.6479 0.0000
# 6 0.0000 0.0000 0.0000 0.0000 0.0000 18.8277
#
#
#
# Elastic Compliance Matrix: (Units=1/GPa)
#
#
# Indices 1 2 3 4 5 6 
#
# 1 0.021167 0.004768 -0.003554 0.000000 0.000000 0.000000
# 2 0.004768 0.021424 -0.002404 0.000000 0.000000 0.000000
# 3 -0.003554 -0.002404 0.009837 0.000000 0.000000 0.000000
# 4 0.000000 0.000000 0.000000 0.035685 0.000000 0.000000
# 5 0.000000 0.000000 0.000000 0.000000 0.073271 0.000000
# 6 0.000000 0.000000 0.000000 0.000000 0.000000 0.053113
#
#
# Mechanical properties :
#
#
# Convention : Reuss Voigt Hill
#
# Bulk Modulus (GPa) = 19.98169 26.94008 23.46088
# Shear Modulus (GPa) = 21.40763 25.19297 23.30030
#
# Velocity S-wave (km/s) = 3.19843 3.46970 3.33682
# Velocity P-wave (km/s) = 4.81544 5.37824 5.10460
#
# Compressibility (1/GPa) = 0.05004582
#
# Stress axis : x y z
#
# Youngs Moduli (GPa) = 47.24350 46.67726 101.65528
#
# Poissons Ratio (x) = -0.22253 0.36129
# Poissons Ratio (y) = -0.22523 0.24443
# Poissons Ratio (z) = 0.16790 0.11224
#
# Static dielectric constant tensor:
#      x y z
#    x 1.764890 0.000000 0.000000 
#    y 0.000000 1.742460 0.000000 
#    z 0.000000 0.000000 1.749940 
# 
# From -- ./inp_files/26328.got.cif
#   From: 2010.05.17/outbox.cif.g08.bks.cpg/sg52_14_cif.got.tgz:26328.got - 2010.06.03 12:15:38.
