data_PCOD9411200
_publ_section_title
;
Structure prediction by ZEFSAII (Michael W. Deem and Ramdas Pophale) SiO2 
 PCOD9411200
Probable space group: P N N A
;
_chemical_formula_sum "Si O2"
_cell_formula_units_Z 36
_cell_length_a 13.724008
_cell_length_b 5.674509
_cell_length_c 21.486190
_cell_angle_alpha 90.000000
_cell_angle_beta 90.000000
_cell_angle_gamma 90.000000
_cell_volume 1673.280167
_symmetry_space_group_name_H-M "P N N A"
_symmetry_group_IT_number 52
_symmetry_cell_setting 'orthorhombic'
loop_
_space_group_symop_operation_xyz
x,y,z
1/2-x,-y,z
x,1/2-y,1/2-z
1/2-x,1/2+y,1/2-z
-x,-y,-z
1/2+x,y,-z
-x,1/2+y,1/2+z
1/2+x,1/2-y,1/2+z
loop_
_atom_site_type_symbol
_atom_site_label
_atom_site_fract_x
_atom_site_fract_y
_atom_site_fract_z
Si Si1 0.960743 0.199597 0.547287
Si Si2 0.401131 0.385414 0.574724
Si Si3 0.750000 0.000000 0.162890
Si Si4 0.090270 0.250000 0.750000
Si Si5 0.457315 0.931396 0.341362
Si Si6 0.806021 0.750000 0.750000
O O1 0.893776 0.339157 0.498850
O O2 0.051755 0.352877 0.573212
O O3 0.909439 0.109950 0.609272
O O4 0.000000 0.000000 0.500000
O O5 0.304073 0.333771 0.613516
O O6 0.477260 0.229301 0.613793
O O7 0.835590 0.892242 0.204933
O O8 0.022447 0.426510 0.790517
O O9 0.377868 0.774425 0.308276
O O10 0.750000 0.500000 0.746736
#
# Coordination Sequence:
#
# PCOD9411200 Si02
#       6
#     8   8   4   4   8   4
#     4   9  20  42  68  91 125 192 234 279 360 430
#     4  10  21  40  69  96 138 186 231 296 352 444
#     4  12  22  36  62 110 148 172 248 288 360 432
#     4  12  23  39  68 108 152 200 226 307 377 464
#     4  11  23  45  71  93 140 191 232 289 389 440
#     4  12  29  47  74 106 142 182 254 323 359 442
#
# _framework density 21.514627999999998
#
# number of rings (size 3 to 8) (size 9 to 14) (size 15 to 20)
#    0.000    1.333    2.222    3.333    3.111    0.000 
#    0.000    6.667    0.000    0.000    0.000    0.000 
#    0.000    0.000    0.000    0.000    0.000    0.000 
#
# Total GULP energy -200513.553352 kJ/mol
# GULP energy per Si atom -5569.820926 kJ/mol
# Density = 2.146566 g / cm^3
# Si number density = 21.514628 Si / 1000 Ang^3
#
#
#
# Elastic Constant Matrix: (Units=GPa)
#
#
# Indices 1 2 3 4 5 6 
#
# 1 66.8723 23.0986 55.5818 0.0000 0.0000 0.0000
# 2 23.0986 74.5134 35.1623 0.0000 0.0000 0.0000
# 3 55.5818 35.1623 140.4474 0.0000 0.0000 0.0000
# 4 0.0000 0.0000 0.0000 50.3916 0.0000 0.0000
# 5 0.0000 0.0000 0.0000 0.0000 -25.1153 0.0000
# 6 0.0000 0.0000 0.0000 0.0000 0.0000 33.2858
#
#
#
# Elastic Compliance Matrix: (Units=1/GPa)
#
#
# Indices 1 2 3 4 5 6 
#
# 1 0.022940 -0.003206 -0.008276 0.000000 0.000000 0.000000
# 2 -0.003206 0.015666 -0.002653 0.000000 0.000000 0.000000
# 3 -0.008276 -0.002653 0.011060 0.000000 0.000000 0.000000
# 4 0.000000 0.000000 0.000000 0.019845 0.000000 0.000000
# 5 0.000000 0.000000 0.000000 0.000000 -0.039816 0.000000
# 6 0.000000 0.000000 0.000000 0.000000 0.000000 0.030043
#
#
# Mechanical properties :
#
#
# Convention : Reuss Voigt Hill
#
# Bulk Modulus (GPa) = 46.73902 56.61315 51.67609
# Shear Modulus (GPa) = 52.55492 22.91180 37.73336
#
# Velocity S-wave (km/s) = 4.94778 3.26688 4.19244
# Velocity P-wave (km/s) = 7.37646 6.37189 6.89250
#
# Compressibility (1/GPa) = 0.02139540
#
# Stress axis : x y z
#
# Youngs Moduli (GPa) = 43.59260 63.83097 90.41985
#
# Poissons Ratio (x) = 0.20464 0.74829
# Poissons Ratio (y) = 0.13975 0.23993
# Poissons Ratio (z) = 0.36076 0.16937
#
# Static dielectric constant tensor:
#      x y z
#    x 1.813500 0.000000 0.000000 
#    y 0.000000 2.046930 0.000000 
#    z 0.000000 0.000000 1.743780 
# 
# From -- ./inp_files/37091.got.cif
#   From: 2010.05.17/outbox.cif.g08.bks.cpg/sg52_19_cif.got.tgz:37091.got - 2010.06.03 12:15:38.
