data_PCOD9411269
_publ_section_title
;
Structure prediction by ZEFSAII (Michael W. Deem and Ramdas Pophale) SiO2 
 PCOD9411269
Probable space group: P N N A
;
_chemical_formula_sum "Si O2"
_cell_formula_units_Z 56
_cell_length_a 22.705528
_cell_length_b 10.685688
_cell_length_c 11.074041
_cell_angle_alpha 90.000000
_cell_angle_beta 90.000000
_cell_angle_gamma 90.000000
_cell_volume 2686.830206
_symmetry_space_group_name_H-M "P N N A"
_symmetry_group_IT_number 52
_symmetry_cell_setting 'orthorhombic'
loop_
_space_group_symop_operation_xyz
x,y,z
1/2-x,-y,z
x,1/2-y,1/2-z
1/2-x,1/2+y,1/2-z
-x,-y,-z
1/2+x,y,-z
-x,1/2+y,1/2+z
1/2+x,1/2-y,1/2+z
loop_
_atom_site_type_symbol
_atom_site_label
_atom_site_fract_x
_atom_site_fract_y
_atom_site_fract_z
Si Si1 0.418496 0.897696 0.238179
Si Si2 0.046273 0.901096 0.743817
Si Si3 0.195574 0.373374 0.673221
Si Si4 0.296168 0.890757 0.376773
Si Si5 0.109456 0.985451 0.987979
Si Si6 0.208639 0.718238 0.495535
Si Si7 0.340777 0.024801 0.606685
O O1 0.426576 0.750000 0.250000
O O2 0.480571 0.945419 0.292091
O O3 0.352743 0.910329 0.291820
O O4 0.419510 0.955403 0.105147
O O5 0.051531 0.750000 0.750000
O O6 0.066763 0.942561 0.878929
O O7 0.092191 0.954888 0.646296
O O8 0.181848 0.250000 0.750000
O O9 0.148271 0.405419 0.571605
O O10 0.254980 0.349739 0.600409
O O11 0.190062 0.484049 0.770032
O O12 0.256481 0.764397 0.394215
O O13 0.250000 0.000000 0.346493
O O14 0.323885 0.920318 0.508772
O O15 0.154019 0.873848 0.030987
O O16 0.183480 0.846575 0.551373
#
# Coordination Sequence:
#
# PCOD9411269 Si02
#       7
#     8   8   8   8   8   8   8
#     4  11  25  43  63  89 129 178 226 268 322 398
#     4  10  21  41  68  94 124 168 224 283 330 387
#     4  11  23  31  57  93 130 157 205 268 341 393
#     4  10  23  40  62  92 132 171 207 269 326 398
#     4  11  24  40  66  93 128 174 218 277 326 396
#     4  11  22  37  63 100 129 166 215 267 342 405
#     4  10  22  37  62  92 131 169 210 273 333 393
#
# _framework density 20.842402
#
# number of rings (size 3 to 8) (size 9 to 14) (size 15 to 20)
#    0.000    1.429    2.857    1.714    6.000    2.857 
#    0.000    2.143    0.000    1.714    0.000    0.000 
#    0.000    0.000    0.000    0.000    0.000    0.000 
#
# Total GULP energy -312264.755361 kJ/mol
# GULP energy per Si atom -5576.156346 kJ/mol
# Density = 2.079496 g / cm^3
# Si number density = 20.842402 Si / 1000 Ang^3
#
#
#
# Elastic Constant Matrix: (Units=GPa)
#
#
# Indices 1 2 3 4 5 6 
#
# 1 151.7834 22.2184 34.6088 0.0000 0.0000 0.0000
# 2 22.2184 58.0296 8.1592 0.0000 0.0000 0.0000
# 3 34.6088 8.1592 50.2026 0.0000 0.0000 0.0000
# 4 0.0000 0.0000 0.0000 19.5521 0.0000 0.0000
# 5 0.0000 0.0000 0.0000 0.0000 5.7087 0.0000
# 6 0.0000 0.0000 0.0000 0.0000 0.0000 10.2152
#
#
#
# Elastic Compliance Matrix: (Units=1/GPa)
#
#
# Indices 1 2 3 4 5 6 
#
# 1 0.008126 -0.002378 -0.005215 0.000000 0.000000 0.000000
# 2 -0.002378 0.018331 -0.001340 0.000000 0.000000 0.000000
# 3 -0.005215 -0.001340 0.023732 0.000000 0.000000 0.000000
# 4 0.000000 0.000000 0.000000 0.051145 0.000000 0.000000
# 5 0.000000 0.000000 0.000000 0.000000 0.175171 0.000000
# 6 0.000000 0.000000 0.000000 0.000000 0.000000 0.097893
#
#
# Mechanical properties :
#
#
# Convention : Reuss Voigt Hill
#
# Bulk Modulus (GPa) = 30.93755 43.33204 37.13479
# Shear Modulus (GPa) = 12.40574 20.09716 16.25145
#
# Velocity S-wave (km/s) = 2.44235 3.10860 2.79539
# Velocity P-wave (km/s) = 4.77800 5.80689 5.31739
#
# Compressibility (1/GPa) = 0.03232318
#
# Stress axis : x y z
#
# Youngs Moduli (GPa) = 123.06875 54.55112 42.13663
#
# Poissons Ratio (x) = 0.12971 0.21975
# Poissons Ratio (y) = 0.29264 0.05647
# Poissons Ratio (z) = 0.64182 0.07310
#
# Static dielectric constant tensor:
#      x y z
#    x 1.798230 0.000000 0.000000 
#    y 0.000000 1.814280 0.000000 
#    z 0.000000 0.000000 1.698220 
# 
# From -- ./inp_files/21711.got.cif
#   From: 2010.05.17/outbox.cif.g08.bks.cpg/sg52_11_cif.got.tgz:21711.got - 2010.06.03 12:15:38.
