data_PCOD9411643
_publ_section_title
;
Structure prediction by ZEFSAII (Michael W. Deem and Ramdas Pophale) SiO2 
 PCOD9411643
Probable space group: P N N A
;
_chemical_formula_sum "Si O2"
_cell_formula_units_Z 64
_cell_length_a 14.632524
_cell_length_b 24.550747
_cell_length_c 8.306828
_cell_angle_alpha 90.000000
_cell_angle_beta 90.000000
_cell_angle_gamma 90.000000
_cell_volume 2984.139863
_symmetry_space_group_name_H-M "P N N A"
_symmetry_group_IT_number 52
_symmetry_cell_setting 'orthorhombic'
loop_
_space_group_symop_operation_xyz
x,y,z
1/2-x,-y,z
x,1/2-y,1/2-z
1/2-x,1/2+y,1/2-z
-x,-y,-z
1/2+x,y,-z
-x,1/2+y,1/2+z
1/2+x,1/2-y,1/2+z
loop_
_atom_site_type_symbol
_atom_site_label
_atom_site_fract_x
_atom_site_fract_y
_atom_site_fract_z
Si Si1 0.254399 0.915686 0.565723
Si Si2 0.841419 0.689221 0.936482
Si Si3 0.792300 0.229270 0.064708
Si Si4 0.083204 0.131690 0.117505
Si Si5 0.500070 0.257463 0.553634
Si Si6 0.064983 0.959167 0.905918
Si Si7 0.397096 0.493792 0.944779
Si Si8 0.260163 0.399867 0.557971
O O1 0.279232 0.854708 0.524018
O O2 0.158334 0.939585 0.503401
O O3 0.252640 0.917871 0.758266
O O4 0.334532 0.955431 0.504951
O O5 0.871249 0.659530 0.773176
O O6 0.936215 0.709802 0.015615
O O7 0.780405 0.743575 0.944307
O O8 0.776672 0.250000 0.250000
O O9 0.785613 0.164143 0.059180
O O10 0.894309 0.245752 0.013059
O O11 0.042912 0.183203 0.017730
O O12 0.997533 0.092196 0.150007
O O13 0.163952 0.097775 0.033158
O O14 0.504199 0.250000 0.750000
O O15 0.098726 0.990157 0.747781
O O16 0.153145 0.935433 0.000295
O O17 0.000000 0.000000 0.000000
O O18 0.500000 0.500000 0.000000
#
# Coordination Sequence:
#
# PCOD9411643 Si02
#       8
#     8   8   8   8   8   8   8   8
#     4  10  22  39  61  92 119 162 212 255 316 382
#     4  11  22  37  64  95 124 161 205 257 317 373
#     4  11  20  37  64  91 124 165 206 247 314 387
#     4  11  22  39  62  92 126 160 210 263 313 368
#     4   9  20  35  58  88 123 161 200 246 308 381
#     4  11  24  42  65  91 121 172 217 257 323 381
#     4  10  22  41  64  87 123 159 210 270 315 370
#     4  11  22  39  64  87 126 164 208 260 307 384
#
# _framework density 21.446715999999999
#
# number of rings (size 3 to 8) (size 9 to 14) (size 15 to 20)
#    0.000    1.500    3.750    1.500    0.000    3.500 
#    0.000    1.250    5.500    0.000    0.000    0.000 
#    0.000    0.000    0.000    0.000    0.000    0.000 
#
# Total GULP energy -357195.618224 kJ/mol
# GULP energy per Si atom -5581.181535 kJ/mol
# Density = 2.139790 g / cm^3
# Si number density = 21.446716 Si / 1000 Ang^3
#
#
#
# Elastic Constant Matrix: (Units=GPa)
#
#
# Indices 1 2 3 4 5 6 
#
# 1 122.2210 20.1204 0.3987 0.0000 0.0000 0.0000
# 2 20.1204 78.9438 -2.3582 0.0000 0.0000 0.0000
# 3 0.3987 -2.3582 12.0590 0.0000 0.0000 0.0000
# 4 0.0000 0.0000 0.0000 27.5390 0.0000 0.0000
# 5 0.0000 0.0000 0.0000 0.0000 29.2887 0.0000
# 6 0.0000 0.0000 0.0000 0.0000 0.0000 38.9257
#
#
#
# Elastic Compliance Matrix: (Units=1/GPa)
#
#
# Indices 1 2 3 4 5 6 
#
# 1 0.008546 -0.002199 -0.000713 0.000000 0.000000 0.000000
# 2 -0.002199 0.013308 0.002675 0.000000 0.000000 0.000000
# 3 -0.000713 0.002675 0.083472 0.000000 0.000000 0.000000
# 4 0.000000 0.000000 0.000000 0.036312 0.000000 0.000000
# 5 0.000000 0.000000 0.000000 0.000000 0.034143 0.000000
# 6 0.000000 0.000000 0.000000 0.000000 0.000000 0.025690
#
#
# Mechanical properties :
#
#
# Convention : Reuss Voigt Hill
#
# Bulk Modulus (GPa) = 9.53726 27.72730 18.63228
# Shear Modulus (GPa) = 21.10632 32.15487 26.63060
#
# Velocity S-wave (km/s) = 3.14049 3.87627 3.52761
# Velocity P-wave (km/s) = 4.19605 5.74373 5.02978
#
# Compressibility (1/GPa) = 0.10485190
#
# Stress axis : x y z
#
# Youngs Moduli (GPa) = 117.00954 75.14426 11.98006
#
# Poissons Ratio (x) = 0.16528 0.00854
# Poissons Ratio (y) = 0.25736 -0.03205
# Poissons Ratio (z) = 0.08339 -0.20102
#
# Static dielectric constant tensor:
#      x y z
#    x 1.806640 0.000000 0.000000 
#    y 0.000000 1.618540 0.000000 
#    z 0.000000 0.000000 1.786290 
# 
# From -- ./inp_files/11001.got.cif
#   From: 2010.05.17/outbox.cif.g08.bks.cpg/sg52_6_cif.got.tgz:11001.got - 2010.06.03 12:15:38.
