data_PCOD9411142
_publ_section_title
;
Structure prediction by ZEFSAII (Michael W. Deem and Ramdas Pophale) SiO2 
 PCOD9411142
Probable space group: P N N A
;
_chemical_formula_sum "Si O2"
_cell_formula_units_Z 48
_cell_length_a 9.238228
_cell_length_b 14.805662
_cell_length_c 16.538494
_cell_angle_alpha 90.000000
_cell_angle_beta 90.000000
_cell_angle_gamma 90.000000
_cell_volume 2262.103476
_symmetry_space_group_name_H-M "P N N A"
_symmetry_group_IT_number 52
_symmetry_cell_setting 'orthorhombic'
loop_
_space_group_symop_operation_xyz
x,y,z
1/2-x,-y,z
x,1/2-y,1/2-z
1/2-x,1/2+y,1/2-z
-x,-y,-z
1/2+x,y,-z
-x,1/2+y,1/2+z
1/2+x,1/2-y,1/2+z
loop_
_atom_site_type_symbol
_atom_site_label
_atom_site_fract_x
_atom_site_fract_y
_atom_site_fract_z
Si Si1 0.707342 0.302307 0.093712
Si Si2 0.519374 0.682902 0.679225
Si Si3 0.888362 0.961064 0.287876
Si Si4 0.049731 0.268096 0.072110
Si Si5 0.713094 0.397924 0.620662
Si Si6 0.356594 0.581449 0.188708
O O1 0.629088 0.222953 0.144881
O O2 0.670735 0.392185 0.144931
O O3 0.877554 0.284981 0.080620
O O4 0.617169 0.304687 0.010956
O O5 0.571398 0.750000 0.750000
O O6 0.488671 0.590490 0.725254
O O7 0.641097 0.662330 0.613895
O O8 0.750000 0.000000 0.243191
O O9 0.984641 0.039851 0.323721
O O10 0.088906 0.161824 0.079404
O O11 0.136873 0.324667 0.140979
O O12 0.750000 0.500000 0.593373
O O13 0.674492 0.402899 0.716457
O O14 0.250000 0.500000 0.160581
#
# Coordination Sequence:
#
# PCOD9411142 Si02
#       6
#     8   8   8   8   8   8
#     4  11  27  42  64  93 133 181 210 270 329 388
#     4  10  21  40  65  91 129 166 208 262 322 377
#     4  11  22  41  66 102 132 160 218 270 326 391
#     4  12  26  44  63  94 136 173 223 265 327 395
#     4  11  23  42  68  98 124 171 219 269 320 382
#     4  11  23  40  70 102 129 170 212 270 330 389
#
# _framework density 21.219189
#
# number of rings (size 3 to 8) (size 9 to 14) (size 15 to 20)
#    0.000    1.000    5.000    2.500    7.000    2.667 
#    0.000    4.167    0.000    0.000    0.000    0.000 
#    0.000    0.000    0.000    0.000    0.000    0.000 
#
# Total GULP energy -267993.425308 kJ/mol
# GULP energy per Si atom -5583.196361 kJ/mol
# Density = 2.117089 g / cm^3
# Si number density = 21.219189 Si / 1000 Ang^3
#
#
#
# Elastic Constant Matrix: (Units=GPa)
#
#
# Indices 1 2 3 4 5 6 
#
# 1 129.5419 18.5748 4.8767 0.0000 0.0000 0.0000
# 2 18.5748 64.7213 -10.9594 0.0000 0.0000 0.0000
# 3 4.8767 -10.9594 30.5642 0.0000 0.0000 0.0000
# 4 0.0000 0.0000 0.0000 10.2874 0.0000 0.0000
# 5 0.0000 0.0000 0.0000 0.0000 30.0645 0.0000
# 6 0.0000 0.0000 0.0000 0.0000 0.0000 7.7505
#
#
#
# Elastic Compliance Matrix: (Units=1/GPa)
#
#
# Indices 1 2 3 4 5 6 
#
# 1 0.008199 -0.002741 -0.002291 0.000000 0.000000 0.000000
# 2 -0.002741 0.017366 0.006664 0.000000 0.000000 0.000000
# 3 -0.002291 0.006664 0.035473 0.000000 0.000000 0.000000
# 4 0.000000 0.000000 0.000000 0.097206 0.000000 0.000000
# 5 0.000000 0.000000 0.000000 0.000000 0.033262 0.000000
# 6 0.000000 0.000000 0.000000 0.000000 0.000000 0.129024
#
#
# Mechanical properties :
#
#
# Convention : Reuss Voigt Hill
#
# Bulk Modulus (GPa) = 15.55147 27.75684 21.65415
# Shear Modulus (GPa) = 14.76234 23.77616 19.26925
#
# Velocity S-wave (km/s) = 2.64049 3.35102 3.01675
# Velocity P-wave (km/s) = 4.07935 5.29923 4.72879
#
# Compressibility (1/GPa) = 0.06430261
#
# Stress axis : x y z
#
# Youngs Moduli (GPa) = 121.96942 57.58380 28.19030
#
# Poissons Ratio (x) = 0.15784 0.06458
# Poissons Ratio (y) = 0.33431 -0.18787
# Poissons Ratio (z) = 0.27943 -0.38375
#
# Static dielectric constant tensor:
#      x y z
#    x 1.844290 0.000000 0.000000 
#    y 0.000000 1.733450 0.000000 
#    z 0.000000 0.000000 1.746720 
# 
# From -- ./inp_files/31219.got.cif
#   From: 2010.05.17/outbox.cif.g08.bks.cpg/sg52_16_cif.got.tgz:31219.got - 2010.06.03 12:15:38.
