data_PCOD9411910
_publ_section_title
;
Structure prediction by ZEFSAII (Michael W. Deem and Ramdas Pophale) SiO2 
 PCOD9411910
Probable space group: P N N A
;
_chemical_formula_sum "Si O2"
_cell_formula_units_Z 44
_cell_length_a 25.863124
_cell_length_b 14.650445
_cell_length_c 5.118061
_cell_angle_alpha 90.000000
_cell_angle_beta 90.000000
_cell_angle_gamma 90.000000
_cell_volume 1939.265432
_symmetry_space_group_name_H-M "P N N A"
_symmetry_group_IT_number 52
_symmetry_cell_setting 'orthorhombic'
loop_
_space_group_symop_operation_xyz
x,y,z
1/2-x,-y,z
x,1/2-y,1/2-z
1/2-x,1/2+y,1/2-z
-x,-y,-z
1/2+x,y,-z
-x,1/2+y,1/2+z
1/2+x,1/2-y,1/2+z
loop_
_atom_site_type_symbol
_atom_site_label
_atom_site_fract_x
_atom_site_fract_y
_atom_site_fract_z
Si Si1 0.063939 0.459937 0.289436
Si Si2 0.451286 0.074559 0.711440
Si Si3 0.704075 0.250000 0.250000
Si Si4 0.334191 0.854849 0.353010
Si Si5 0.364965 0.309500 0.508665
Si Si6 0.238242 0.902948 0.054977
O O1 0.056238 0.489598 0.588892
O O2 0.117196 0.408279 0.247734
O O3 0.012251 0.403954 0.213180
O O4 0.063919 0.544434 0.081440
O O5 0.415110 0.147714 0.851961
O O6 0.666933 0.167992 0.342735
O O7 0.742272 0.308564 0.429006
O O8 0.335089 0.750000 0.250000
O O9 0.279129 0.903131 0.295700
O O10 0.343020 0.250000 0.750000
O O11 0.322865 0.386033 0.421072
O O12 0.375514 0.250000 0.250000
O O13 0.250000 0.000000 0.919835
#
# Coordination Sequence:
#
# PCOD9411910 Si02
#       6
#     8   8   4   8   8   8
#     4  10  22  43  69  97 134 171 237 284 338 423
#     4  10  23  43  68  98 131 181 226 287 347 414
#     4  10  22  42  60  98 132 170 232 290 346 414
#     4  10  23  39  63  93 132 174 226 289 344 410
#     4  12  25  43  67  96 142 178 228 291 341 416
#     4  11  24  41  65  96 134 187 229 286 354 421
#
# _framework density 22.689005000000002
#
# number of rings (size 3 to 8) (size 9 to 14) (size 15 to 20)
#    0.000    1.455    0.909    3.818    7.636    1.455 
#    0.000    0.000    2.000    0.000    0.000    0.000 
#    0.000    0.000    0.000    0.000    0.000    0.000 
#
# Total GULP energy -244990.912648 kJ/mol
# GULP energy per Si atom -5567.975287 kJ/mol
# Density = 2.263736 g / cm^3
# Si number density = 22.689005 Si / 1000 Ang^3
#
#
#
# Elastic Constant Matrix: (Units=GPa)
#
#
# Indices 1 2 3 4 5 6 
#
# 1 131.0557 51.4154 29.0959 0.0000 0.0000 0.0000
# 2 51.4154 67.8965 10.1261 0.0000 0.0000 0.0000
# 3 29.0959 10.1261 74.2195 0.0000 0.0000 0.0000
# 4 0.0000 0.0000 0.0000 34.8689 0.0000 0.0000
# 5 0.0000 0.0000 0.0000 0.0000 912.7483 0.0000
# 6 0.0000 0.0000 0.0000 0.0000 0.0000 -33.5824
#
#
#
# Elastic Compliance Matrix: (Units=1/GPa)
#
#
# Indices 1 2 3 4 5 6 
#
# 1 0.011654 -0.008313 -0.003435 0.000000 0.000000 0.000000
# 2 -0.008313 0.020964 0.000399 0.000000 0.000000 0.000000
# 3 -0.003435 0.000399 0.014766 0.000000 0.000000 0.000000
# 4 0.000000 0.000000 0.000000 0.028679 0.000000 0.000000
# 5 0.000000 0.000000 0.000000 0.000000 0.001096 0.000000
# 6 0.000000 0.000000 0.000000 0.000000 0.000000 -0.029778
#
#
# Mechanical properties :
#
#
# Convention : Reuss Voigt Hill
#
# Bulk Modulus (GPa) = 40.50881 50.49404 45.50143
# Shear Modulus (GPa) = 63.85114 194.97591 129.41353
#
# Velocity S-wave (km/s) = 5.31065 9.28012 7.56054
# Velocity P-wave (km/s) = 7.44961 11.71028 9.81395
#
# Compressibility (1/GPa) = 0.02468599
#
# Stress axis : x y z
#
# Youngs Moduli (GPa) = 85.80595 47.70090 67.72511
#
# Poissons Ratio (x) = 0.39654 0.23261
# Poissons Ratio (y) = 0.71331 -0.02700
# Poissons Ratio (z) = 0.29470 -0.01902
#
# Static dielectric constant tensor:
#      x y z
#    x 1.881820 0.000000 0.000000 
#    y 0.000000 1.878550 0.000000 
#    z 0.000000 0.000000 2.700520 
# 
# From -- ./inp_files/5746.got.cif
#   From: 2010.05.17/outbox.cif.g08.bks.cpg/sg52_3_cif.got.tgz:5746.got - 2010.06.03 12:15:38.
