data_PCOD9411564
_publ_section_title
;
Structure prediction by ZEFSAII (Michael W. Deem and Ramdas Pophale) SiO2 
 PCOD9411564
Probable space group: P N N A
;
_chemical_formula_sum "Si O2"
_cell_formula_units_Z 48
_cell_length_a 5.819604
_cell_length_b 14.006923
_cell_length_c 28.899659
_cell_angle_alpha 90.000000
_cell_angle_beta 90.000000
_cell_angle_gamma 90.000000
_cell_volume 2355.748337
_symmetry_space_group_name_H-M "P N N A"
_symmetry_group_IT_number 52
_symmetry_cell_setting 'orthorhombic'
loop_
_space_group_symop_operation_xyz
x,y,z
1/2-x,-y,z
x,1/2-y,1/2-z
1/2-x,1/2+y,1/2-z
-x,-y,-z
1/2+x,y,-z
-x,1/2+y,1/2+z
1/2+x,1/2-y,1/2+z
loop_
_atom_site_type_symbol
_atom_site_label
_atom_site_fract_x
_atom_site_fract_y
_atom_site_fract_z
Si Si1 0.504051 0.265195 0.187583
Si Si2 0.138180 0.098957 0.355930
Si Si3 0.242114 0.110746 0.974087
Si Si4 0.389678 0.141832 0.738715
Si Si5 0.379065 0.269422 0.611342
Si Si6 0.155124 0.102237 0.175138
O O1 0.348869 0.334263 0.157377
O O2 0.627584 0.333222 0.225544
O O3 0.710648 0.231962 0.155169
O O4 0.347049 0.172996 0.196453
O O5 0.999793 0.093683 0.306775
O O6 0.982973 0.162304 0.390575
O O7 0.250000 0.000000 0.371202
O O8 0.259484 0.187921 0.933258
O O9 0.250000 0.000000 0.957613
O O10 0.488918 0.122326 0.001673
O O11 0.480283 0.250000 0.750000
O O12 0.461572 0.087929 0.784994
O O13 0.569970 0.343972 0.629199
O O14 0.250000 0.000000 0.162789
#
# Coordination Sequence:
#
# PCOD9411564 Si02
#       6
#     8   8   8   8   8   8
#     4  10  22  38  60  77 126 162 205 275 304 387
#     4  10  22  40  62  87 119 169 217 266 317 377
#     4  10  24  43  70 103 136 175 214 261 338 425
#     4  11  20  38  50  82 116 166 217 251 321 359
#     4  10  23  39  62  95 123 163 211 260 328 390
#     4  11  24  37  56  88 121 165 213 268 321 382
#
# _framework density 20.375692000000001
#
# number of rings (size 3 to 8) (size 9 to 14) (size 15 to 20)
#    0.000    1.667    5.000    0.500    9.333    3.333 
#    3.000    0.000    0.000    1.000    0.000    0.000 
#    0.000    0.000    0.000    0.000    0.000    0.000 
#
# Total GULP energy -267304.716906 kJ/mol
# GULP energy per Si atom -5568.848269 kJ/mol
# Density = 2.032932 g / cm^3
# Si number density = 20.375692 Si / 1000 Ang^3
#
#
#
# Elastic Constant Matrix: (Units=GPa)
#
#
# Indices 1 2 3 4 5 6 
#
# 1 86.8586 40.4139 12.1939 0.0000 0.0000 0.0000
# 2 40.4139 105.9972 30.9826 0.0000 0.0000 0.0000
# 3 12.1939 30.9826 43.5352 0.0000 0.0000 0.0000
# 4 0.0000 0.0000 0.0000 -1.8480 0.0000 0.0000
# 5 0.0000 0.0000 0.0000 0.0000 17.4495 0.0000
# 6 0.0000 0.0000 0.0000 0.0000 0.0000 -39.0458
#
#
#
# Elastic Compliance Matrix: (Units=1/GPa)
#
#
# Indices 1 2 3 4 5 6 
#
# 1 0.013997 -0.005291 -0.000155 0.000000 0.000000 0.000000
# 2 -0.005291 0.013913 -0.008419 0.000000 0.000000 0.000000
# 3 -0.000155 -0.008419 0.029005 0.000000 0.000000 0.000000
# 4 0.000000 0.000000 0.000000 -0.541138 0.000000 0.000000
# 5 0.000000 0.000000 0.000000 0.000000 0.057308 0.000000
# 6 0.000000 0.000000 0.000000 0.000000 0.000000 -0.025611
#
#
# Mechanical properties :
#
#
# Convention : Reuss Voigt Hill
#
# Bulk Modulus (GPa) = 34.26552 44.84132 39.55342
# Shear Modulus (GPa) = -12.04620 5.49785 -3.27417
#
# Velocity S-wave (km/s) = -2.43411 1.64441 -1.26901
# Velocity P-wave (km/s) = 2.99225 5.06562 4.16017
#
# Compressibility (1/GPa) = 0.02918385
#
# Stress axis : x y z
#
# Youngs Moduli (GPa) = 71.44563 71.87773 34.47706
#
# Poissons Ratio (x) = 0.38033 0.00533
# Poissons Ratio (y) = 0.37804 0.29026
# Poissons Ratio (z) = 0.01105 0.60514
#
# Static dielectric constant tensor:
#      x y z
#    x 2.226390 0.000000 0.000000 
#    y 0.000000 1.702170 0.000000 
#    z 0.000000 0.000000 1.749770 
# 
# From -- ./inp_files/43753.got.cif
#   From: 2010.05.17/outbox.cif.g08.bks.cpg/sg52_22_cif.got.tgz:43753.got - 2010.06.03 12:15:38.
