data_PCOD9411779
_publ_section_title
;
Structure prediction by ZEFSAII (Michael W. Deem and Ramdas Pophale) SiO2 
 PCOD9411779
Probable space group: P N N A
;
_chemical_formula_sum "Si O2"
_cell_formula_units_Z 48
_cell_length_a 13.059622
_cell_length_b 18.308415
_cell_length_c 9.468972
_cell_angle_alpha 90.000000
_cell_angle_beta 90.000000
_cell_angle_gamma 90.000000
_cell_volume 2264.040478
_symmetry_space_group_name_H-M "P N N A"
_symmetry_group_IT_number 52
_symmetry_cell_setting 'orthorhombic'
loop_
_space_group_symop_operation_xyz
x,y,z
1/2-x,-y,z
x,1/2-y,1/2-z
1/2-x,1/2+y,1/2-z
-x,-y,-z
1/2+x,y,-z
-x,1/2+y,1/2+z
1/2+x,1/2-y,1/2+z
loop_
_atom_site_type_symbol
_atom_site_label
_atom_site_fract_x
_atom_site_fract_y
_atom_site_fract_z
Si Si1 0.627137 0.368092 0.373475
Si Si2 0.350256 0.450738 0.417750
Si Si3 0.413375 0.165265 0.277306
Si Si4 0.269687 0.250000 0.750000
Si Si5 0.487626 0.918381 0.143734
Si Si6 0.750000 0.000000 0.278633
Si Si7 0.394581 0.377100 0.899096
O O1 0.526014 0.351206 0.283822
O O2 0.701133 0.299628 0.352934
O O3 0.587058 0.378125 0.533287
O O4 0.683148 0.440569 0.311208
O O5 0.250000 0.500000 0.427106
O O6 0.335334 0.382902 0.315189
O O7 0.439744 0.501078 0.351009
O O8 0.401850 0.422760 0.563595
O O9 0.392170 0.250000 0.250000
O O10 0.412961 0.139272 0.438182
O O11 0.336280 0.306862 0.837709
O O12 0.506520 0.887289 0.298198
O O13 0.674115 0.949557 0.371909
#
# Coordination Sequence:
#
# PCOD9411779 Si02
#       7
#     8   8   8   4   8   4   8
#     4  10  22  44  69  97 137 177 227 275 349 401
#     4  10  23  41  68  98 136 178 228 282 342 402
#     4  11  25  45  66  93 142 183 221 286 350 402
#     4  10  24  40  72  96 134 186 216 286 344 420
#     4  10  23  40  70 102 126 180 227 290 329 412
#     4  10  22  40  68 102 132 176 234 280 330 416
#     4  11  25  41  67 100 135 176 233 275 345 405
#
# _framework density 21.201034
#
# number of rings (size 3 to 8) (size 9 to 14) (size 15 to 20)
#    0.000    1.667    0.833    3.000   12.833    2.667 
#    3.000    0.000    1.833    0.000    0.000    0.000 
#    0.000    0.000    0.000    0.000    0.000    0.000 
#
# Total GULP energy -268332.033057 kJ/mol
# GULP energy per Si atom -5590.250689 kJ/mol
# Density = 2.115278 g / cm^3
# Si number density = 21.201034 Si / 1000 Ang^3
#
#
#
# Elastic Constant Matrix: (Units=GPa)
#
#
# Indices 1 2 3 4 5 6 
#
# 1 56.0261 25.3724 20.4947 0.0000 0.0000 0.0000
# 2 25.3724 140.3978 55.8122 0.0000 0.0000 0.0000
# 3 20.4947 55.8122 123.7769 0.0000 0.0000 0.0000
# 4 0.0000 0.0000 0.0000 27.0987 0.0000 0.0000
# 5 0.0000 0.0000 0.0000 0.0000 6.2701 0.0000
# 6 0.0000 0.0000 0.0000 0.0000 0.0000 37.6528
#
#
#
# Elastic Compliance Matrix: (Units=1/GPa)
#
#
# Indices 1 2 3 4 5 6 
#
# 1 0.019851 -0.002779 -0.002034 0.000000 0.000000 0.000000
# 2 -0.002779 0.009067 -0.003628 0.000000 0.000000 0.000000
# 3 -0.002034 -0.003628 0.010052 0.000000 0.000000 0.000000
# 4 0.000000 0.000000 0.000000 0.036902 0.000000 0.000000
# 5 0.000000 0.000000 0.000000 0.000000 0.159488 0.000000
# 6 0.000000 0.000000 0.000000 0.000000 0.000000 0.026558
#
#
# Mechanical properties :
#
#
# Convention : Reuss Voigt Hill
#
# Bulk Modulus (GPa) = 45.27341 58.17327 51.72334
# Shear Modulus (GPa) = 17.47248 28.77241 23.12245
#
# Velocity S-wave (km/s) = 2.87389 3.68791 3.30605
# Velocity P-wave (km/s) = 5.69324 6.75520 6.24683
#
# Compressibility (1/GPa) = 0.02208802
#
# Stress axis : x y z
#
# Youngs Moduli (GPa) = 50.37446 110.28762 99.48386
#
# Poissons Ratio (x) = 0.30648 0.20234
# Poissons Ratio (y) = 0.13999 0.36096
# Poissons Ratio (z) = 0.10246 0.40016
#
# Static dielectric constant tensor:
#      x y z
#    x 1.806110 0.000000 0.000000 
#    y 0.000000 1.786680 0.000000 
#    z 0.000000 0.000000 1.774310 
# 
# From -- ./inp_files/10525.got.cif
#   From: 2010.05.17/outbox.cif.g08.bks.cpg/sg52_6_cif.got.tgz:10525.got - 2010.06.03 12:15:38.
