data_PCOD9411641
_publ_section_title
;
Structure prediction by ZEFSAII (Michael W. Deem and Ramdas Pophale) SiO2 
 PCOD9411641
Probable space group: P N N A
;
_chemical_formula_sum "Si O2"
_cell_formula_units_Z 32
_cell_length_a 15.534436
_cell_length_b 7.145083
_cell_length_c 13.428360
_cell_angle_alpha 90.000000
_cell_angle_beta 90.000000
_cell_angle_gamma 90.000000
_cell_volume 1490.478597
_symmetry_space_group_name_H-M "P N N A"
_symmetry_group_IT_number 52
_symmetry_cell_setting 'orthorhombic'
loop_
_space_group_symop_operation_xyz
x,y,z
1/2-x,-y,z
x,1/2-y,1/2-z
1/2-x,1/2+y,1/2-z
-x,-y,-z
1/2+x,y,-z
-x,1/2+y,1/2+z
1/2+x,1/2-y,1/2+z
loop_
_atom_site_type_symbol
_atom_site_label
_atom_site_fract_x
_atom_site_fract_y
_atom_site_fract_z
Si Si1 0.153009 0.467067 0.775318
Si Si2 0.582521 0.372570 0.023327
Si Si3 0.002040 0.913826 0.169465
Si Si4 0.825251 0.850843 0.855410
O O1 0.250000 0.500000 0.744671
O O2 0.142141 0.250000 0.750000
O O3 0.136318 0.482917 0.892053
O O4 0.073432 0.547452 0.713482
O O5 0.539133 0.188852 0.074130
O O6 0.500000 0.500000 0.000000
O O7 0.646933 0.305952 0.936715
O O8 0.024148 0.750000 0.250000
O O9 0.087626 0.028996 0.153931
O O10 0.804739 0.750000 0.750000
O O11 0.750000 0.000000 0.882522
#
# Coordination Sequence:
#
# PCOD9411641 Si02
#       4
#     8   8   8   8
#     4   9  20  36  58  85 112 144 192 249 302 357
#     4  10  22  39  61  89 122 163 206 259 320 380
#     4   9  20  41  62  86 118 154 204 260 314 374
#     4  12  25  40  60  88 124 169 211 256 313 385
#
# _framework density 21.469615000000001
#
# number of rings (size 3 to 8) (size 9 to 14) (size 15 to 20)
#    0.000    2.500    0.000    4.500    0.000   10.000 
#    0.000    0.000    0.000    0.000    0.000    0.000 
#    0.000    0.000    0.000    0.000    0.000    0.000 
#
# Total GULP energy -178293.228800 kJ/mol
# GULP energy per Si atom -5571.663400 kJ/mol
# Density = 2.142075 g / cm^3
# Si number density = 21.469615 Si / 1000 Ang^3
#
#
#
# Elastic Constant Matrix: (Units=GPa)
#
#
# Indices 1 2 3 4 5 6 
#
# 1 171.9624 23.9687 29.0173 0.0000 0.0000 0.0000
# 2 23.9687 52.4172 23.7665 0.0000 0.0000 0.0000
# 3 29.0173 23.7665 97.3315 0.0000 0.0000 0.0000
# 4 0.0000 0.0000 0.0000 18.3951 0.0000 0.0000
# 5 0.0000 0.0000 0.0000 0.0000 25.3652 0.0000
# 6 0.0000 0.0000 0.0000 0.0000 0.0000 40.7651
#
#
#
# Elastic Compliance Matrix: (Units=1/GPa)
#
#
# Indices 1 2 3 4 5 6 
#
# 1 0.006361 -0.002304 -0.001334 0.000000 0.000000 0.000000
# 2 -0.002304 0.022287 -0.004755 0.000000 0.000000 0.000000
# 3 -0.001334 -0.004755 0.011833 0.000000 0.000000 0.000000
# 4 0.000000 0.000000 0.000000 0.054362 0.000000 0.000000
# 5 0.000000 0.000000 0.000000 0.000000 0.039424 0.000000
# 6 0.000000 0.000000 0.000000 0.000000 0.000000 0.024531
#
#
# Mechanical properties :
#
#
# Convention : Reuss Voigt Hill
#
# Bulk Modulus (GPa) = 42.20242 52.80177 47.50209
# Shear Modulus (GPa) = 27.25034 33.23565 30.24299
#
# Velocity S-wave (km/s) = 3.56652 3.93877 3.75726
# Velocity P-wave (km/s) = 6.05472 6.73293 6.40281
#
# Compressibility (1/GPa) = 0.02369533
#
# Stress axis : x y z
#
# Youngs Moduli (GPa) = 157.19655 44.86852 84.50952
#
# Poissons Ratio (x) = 0.10338 0.11273
# Poissons Ratio (y) = 0.36219 0.40186
# Poissons Ratio (z) = 0.20969 0.21336
#
# Static dielectric constant tensor:
#      x y z
#    x 1.963290 0.000000 0.000000 
#    y 0.000000 1.865130 0.000000 
#    z 0.000000 0.000000 1.871370 
# 
# From -- ./inp_files/18848.got.cif
#   From: 2010.05.17/outbox.cif.g08.bks.cpg/sg52_10_cif.got.tgz:18848.got - 2010.06.03 12:15:38.
