data_PCOD9411407
_publ_section_title
;
Structure prediction by ZEFSAII (Michael W. Deem and Ramdas Pophale) SiO2 
 PCOD9411407
Probable space group: P N N A
;
_chemical_formula_sum "Si O2"
_cell_formula_units_Z 60
_cell_length_a 5.579902
_cell_length_b 23.665041
_cell_length_c 18.471897
_cell_angle_alpha 90.000000
_cell_angle_beta 90.000000
_cell_angle_gamma 90.000000
_cell_volume 2439.188316
_symmetry_space_group_name_H-M "P N N A"
_symmetry_group_IT_number 52
_symmetry_cell_setting 'orthorhombic'
loop_
_space_group_symop_operation_xyz
x,y,z
1/2-x,-y,z
x,1/2-y,1/2-z
1/2-x,1/2+y,1/2-z
-x,-y,-z
1/2+x,y,-z
-x,1/2+y,1/2+z
1/2+x,1/2-y,1/2+z
loop_
_atom_site_type_symbol
_atom_site_label
_atom_site_fract_x
_atom_site_fract_y
_atom_site_fract_z
Si Si1 0.860513 0.069443 0.671843
Si Si2 0.536908 0.334557 0.481090
Si Si3 0.138488 0.323817 0.811250
Si Si4 0.417701 0.903753 0.461990
Si Si5 0.750000 0.000000 0.248026
Si Si6 0.656428 0.804128 0.834698
Si Si7 0.500102 0.391815 0.713126
Si Si8 0.485174 0.774738 0.413769
O O1 0.659570 0.064037 0.610967
O O2 0.730217 0.083556 0.746576
O O3 0.004894 0.125647 0.647592
O O4 0.046406 0.022850 0.697679
O O5 0.285533 0.363643 0.500007
O O6 0.526574 0.323992 0.395722
O O7 0.514263 0.274473 0.525365
O O8 0.360699 0.353714 0.771009
O O9 0.270554 0.281640 0.866689
O O10 0.972350 0.306500 0.742760
O O11 0.687272 0.917909 0.487486
O O12 0.428082 0.835875 0.447380
O O13 0.836400 0.053442 0.200073
O O14 0.883620 0.847028 0.840899
O O15 0.773474 0.744838 0.859147
#
# Coordination Sequence:
#
# PCOD9411407 Si02
#       8
#     8   8   8   8   4   8   8   8
#     4  10  22  43  67  97 131 175 230 299 367 433
#     4  10  23  43  62  91 137 197 246 279 342 419
#     4  10  22  42  63  93 140 183 237 298 354 410
#     4  12  25  43  68  98 140 193 249 289 340 426
#     4  10  22  42  78  90 132 176 220 304 392 452
#     4  10  24  41  61  99 140 182 241 300 343 422
#     4  10  21  44  64 100 127 169 231 297 377 422
#     4  11  23  46  63  98 145 206 242 283 354 429
#
# _framework density 24.598344999999998
#
# number of rings (size 3 to 8) (size 9 to 14) (size 15 to 20)
#    0.000    1.600    1.333    2.800    5.600    2.667 
#    7.200    0.667    0.000    0.000    0.000    3.733 
#    0.000    0.533    0.000    0.000    0.000    0.000 
#
# Total GULP energy -335363.578951 kJ/mol
# GULP energy per Si atom -5589.392983 kJ/mol
# Density = 2.454236 g / cm^3
# Si number density = 24.598345 Si / 1000 Ang^3
#
#
#
# Elastic Constant Matrix: (Units=GPa)
#
#
# Indices 1 2 3 4 5 6 
#
# 1 131.9111 10.1704 25.9446 0.0000 0.0000 0.0000
# 2 10.1704 61.7207 1.7094 0.0000 0.0000 0.0000
# 3 25.9446 1.7094 75.6023 0.0000 0.0000 0.0000
# 4 0.0000 0.0000 0.0000 20.3539 0.0000 0.0000
# 5 0.0000 0.0000 0.0000 0.0000 51.5068 0.0000
# 6 0.0000 0.0000 0.0000 0.0000 0.0000 47.5002
#
#
#
# Elastic Compliance Matrix: (Units=1/GPa)
#
#
# Indices 1 2 3 4 5 6 
#
# 1 0.008229 -0.001279 -0.002795 0.000000 0.000000 0.000000
# 2 -0.001279 0.016411 0.000068 0.000000 0.000000 0.000000
# 3 -0.002795 0.000068 0.014185 0.000000 0.000000 0.000000
# 4 0.000000 0.000000 0.000000 0.049131 0.000000 0.000000
# 5 0.000000 0.000000 0.000000 0.000000 0.019415 0.000000
# 6 0.000000 0.000000 0.000000 0.000000 0.000000 0.021053
#
#
# Mechanical properties :
#
#
# Convention : Reuss Voigt Hill
#
# Bulk Modulus (GPa) = 32.45402 38.32032 35.38717
# Shear Modulus (GPa) = 34.08184 39.29951 36.69067
#
# Velocity S-wave (km/s) = 3.72631 4.00140 3.86630
# Velocity P-wave (km/s) = 5.63348 6.07951 5.86074
#
# Compressibility (1/GPa) = 0.03081282
#
# Stress axis : x y z
#
# Youngs Moduli (GPa) = 121.51849 60.93538 70.49806
#
# Poissons Ratio (x) = 0.07791 0.19705
# Poissons Ratio (y) = 0.15537 -0.00478
# Poissons Ratio (z) = 0.33966 -0.00413
#
# Static dielectric constant tensor:
#      x y z
#    x 2.032410 0.000000 0.000000 
#    y 0.000000 2.043160 0.000000 
#    z 0.000000 0.000000 1.946480 
# 
# From -- ./inp_files/30351.got.cif
#   From: 2010.05.17/outbox.cif.g08.bks.cpg/sg52_16_cif.got.tgz:30351.got - 2010.06.03 12:15:38.
