data_PCOD9411833
_publ_section_title
;
Structure prediction by ZEFSAII (Michael W. Deem and Ramdas Pophale) SiO2 
 PCOD9411833
Probable space group: P N N A
;
_chemical_formula_sum "Si O2"
_cell_formula_units_Z 52
_cell_length_a 18.952034
_cell_length_b 21.012169
_cell_length_c 5.348887
_cell_angle_alpha 90.000000
_cell_angle_beta 90.000000
_cell_angle_gamma 90.000000
_cell_volume 2130.051653
_symmetry_space_group_name_H-M "P N N A"
_symmetry_group_IT_number 52
_symmetry_cell_setting 'orthorhombic'
loop_
_space_group_symop_operation_xyz
x,y,z
1/2-x,-y,z
x,1/2-y,1/2-z
1/2-x,1/2+y,1/2-z
-x,-y,-z
1/2+x,y,-z
-x,1/2+y,1/2+z
1/2+x,1/2-y,1/2+z
loop_
_atom_site_type_symbol
_atom_site_label
_atom_site_fract_x
_atom_site_fract_y
_atom_site_fract_z
Si Si1 0.250000 0.500000 0.054290
Si Si2 0.881493 0.547523 0.277422
Si Si3 0.337719 0.121987 0.379798
Si Si4 0.533902 0.250000 0.250000
Si Si5 0.234433 0.750000 0.250000
Si Si6 0.418808 0.410589 0.608110
Si Si7 0.037064 0.139067 0.438503
Si Si8 0.855327 0.670215 0.567706
O O1 0.281709 0.435525 0.179890
O O2 0.183120 0.474926 0.896012
O O3 0.912777 0.486404 0.414144
O O4 0.849421 0.599938 0.460693
O O5 0.943894 0.581072 0.119812
O O6 0.307355 0.193058 0.379654
O O7 0.370175 0.107708 0.652177
O O8 0.392787 0.118115 0.151039
O O9 0.497978 0.199359 0.435223
O O10 0.584237 0.294480 0.413651
O O11 0.285312 0.711217 0.436906
O O12 0.494598 0.386640 0.701250
O O13 0.113269 0.164606 0.346620
#
# Coordination Sequence:
#
# PCOD9411833 Si02
#       8
#     4   8   8   4   4   8   8   8
#     4  10  24  50  72 108 150 192 250 310 378 460
#     4  10  25  43  75 109 143 196 244 316 378 443
#     4  11  29  48  73 107 145 202 242 309 377 446
#     4  10  22  41  64 108 137 184 244 294 378 418
#     4  12  26  47  70 108 149 194 256 308 376 462
#     4  11  28  49  72 108 150 194 249 301 383 453
#     4  11  23  46  70 108 143 194 250 312 372 454
#     4  11  24  42  74 106 138 190 242 319 366 439
#
# _framework density 24.412555999999999
#
# number of rings (size 3 to 8) (size 9 to 14) (size 15 to 20)
#    0.000    1.231    1.538    1.385   17.231    2.462 
#    2.769    0.000    0.000    0.000    0.000    0.000 
#    0.000    0.000    0.000    0.000    0.000    0.000 
#
# Total GULP energy -291048.722488 kJ/mol
# GULP energy per Si atom -5597.090817 kJ/mol
# Density = 2.435699 g / cm^3
# Si number density = 24.412556 Si / 1000 Ang^3
#
#
#
# Elastic Constant Matrix: (Units=GPa)
#
#
# Indices 1 2 3 4 5 6 
#
# 1 76.9438 53.4676 18.1139 0.0000 0.0000 0.0000
# 2 53.4676 203.2545 54.9835 0.0000 0.0000 0.0000
# 3 18.1139 54.9835 71.9235 0.0000 0.0000 0.0000
# 4 0.0000 0.0000 0.0000 47.1901 0.0000 0.0000
# 5 0.0000 0.0000 0.0000 0.0000 43.4697 0.0000
# 6 0.0000 0.0000 0.0000 0.0000 0.0000 38.3211
#
#
#
# Elastic Compliance Matrix: (Units=1/GPa)
#
#
# Indices 1 2 3 4 5 6 
#
# 1 0.015963 -0.003923 -0.001021 0.000000 0.000000 0.000000
# 2 -0.003923 0.007167 -0.004491 0.000000 0.000000 0.000000
# 3 -0.001021 -0.004491 0.017594 0.000000 0.000000 0.000000
# 4 0.000000 0.000000 0.000000 0.021191 0.000000 0.000000
# 5 0.000000 0.000000 0.000000 0.000000 0.023005 0.000000
# 6 0.000000 0.000000 0.000000 0.000000 0.000000 0.026095
#
#
# Mechanical properties :
#
#
# Convention : Reuss Voigt Hill
#
# Bulk Modulus (GPa) = 45.75901 67.25021 56.50461
# Shear Modulus (GPa) = 36.45145 40.83329 38.64237
#
# Velocity S-wave (km/s) = 3.86831 4.09422 3.98287
# Velocity P-wave (km/s) = 6.22387 7.06805 6.65935
#
# Compressibility (1/GPa) = 0.02185362
#
# Stress axis : x y z
#
# Youngs Moduli (GPa) = 62.64521 139.53417 56.83778
#
# Poissons Ratio (x) = 0.54738 0.05805
# Poissons Ratio (y) = 0.24575 0.25525
# Poissons Ratio (z) = 0.06398 0.62661
#
# Static dielectric constant tensor:
#      x y z
#    x 1.975880 0.000000 0.000000 
#    y 0.000000 1.924410 0.000000 
#    z 0.000000 0.000000 1.989590 
# 
# From -- ./inp_files/4465.got.cif
#   From: 2010.05.17/outbox.cif.g08.bks.cpg/sg52_3_cif.got.tgz:4465.got - 2010.06.03 12:15:38.
