data_PCOD9411897
_publ_section_title
;
Structure prediction by ZEFSAII (Michael W. Deem and Ramdas Pophale) SiO2 
 PCOD9411897
Probable space group: P N N A
;
_chemical_formula_sum "Si O2"
_cell_formula_units_Z 32
_cell_length_a 4.821259
_cell_length_b 21.388021
_cell_length_c 13.264926
_cell_angle_alpha 90.000000
_cell_angle_beta 90.000000
_cell_angle_gamma 90.000000
_cell_volume 1367.841878
_symmetry_space_group_name_H-M "P N N A"
_symmetry_group_IT_number 52
_symmetry_cell_setting 'orthorhombic'
loop_
_space_group_symop_operation_xyz
x,y,z
1/2-x,-y,z
x,1/2-y,1/2-z
1/2-x,1/2+y,1/2-z
-x,-y,-z
1/2+x,y,-z
-x,1/2+y,1/2+z
1/2+x,1/2-y,1/2+z
loop_
_atom_site_type_symbol
_atom_site_label
_atom_site_fract_x
_atom_site_fract_y
_atom_site_fract_z
Si Si1 0.871780 0.750000 0.250000
Si Si2 0.214777 0.368694 0.241864
Si Si3 0.750000 0.000000 0.815742
Si Si4 0.411400 0.093760 0.932551
Si Si5 0.982426 0.201206 0.427870
O O1 0.668960 0.756555 0.345373
O O2 0.068988 0.688445 0.248458
O O3 0.338705 0.438984 0.251947
O O4 0.015574 0.365437 0.339191
O O5 0.033047 0.361130 0.140270
O O6 0.987144 0.973132 0.889107
O O7 0.101380 0.104787 0.968578
O O8 0.785287 0.208465 0.524514
#
# Coordination Sequence:
#
# PCOD9411897 Si02
#       5
#     4   8   4   8   8
#     4  12  26  50  74 112 142 204 252 312 368 464
#     4  10  25  46  76 109 154 193 260 302 380 445
#     4   8  22  44  76 108 156 198 242 322 366 456
#     4  10  22  41  71 112 150 190 236 303 378 446
#     4  12  27  50  75 106 151 193 249 315 372 446
#
# _framework density 23.394517
#
# number of rings (size 3 to 8) (size 9 to 14) (size 15 to 20)
#    1.500    0.000    2.500    1.500    3.500    2.000 
#    4.500    1.250    0.000    0.000    0.000    0.000 
#    0.000    0.000    0.000    0.000    0.000    0.000 
#
# Total GULP energy -178334.858299 kJ/mol
# GULP energy per Si atom -5572.964322 kJ/mol
# Density = 2.334127 g / cm^3
# Si number density = 23.394517 Si / 1000 Ang^3
#
#
#
# Elastic Constant Matrix: (Units=GPa)
#
#
# Indices 1 2 3 4 5 6 
#
# 1 87.8200 24.3739 15.2544 0.0000 0.0000 0.0000
# 2 24.3739 147.5015 34.5569 0.0000 0.0000 0.0000
# 3 15.2544 34.5569 108.7593 0.0000 0.0000 0.0000
# 4 0.0000 0.0000 0.0000 45.9508 0.0000 0.0000
# 5 0.0000 0.0000 0.0000 0.0000 19.2724 0.0000
# 6 0.0000 0.0000 0.0000 0.0000 0.0000 26.5701
#
#
#
# Elastic Compliance Matrix: (Units=1/GPa)
#
#
# Indices 1 2 3 4 5 6 
#
# 1 0.012065 -0.001726 -0.001144 0.000000 0.000000 0.000000
# 2 -0.001726 0.007572 -0.002164 0.000000 0.000000 0.000000
# 3 -0.001144 -0.002164 0.010043 0.000000 0.000000 0.000000
# 4 0.000000 0.000000 0.000000 0.021762 0.000000 0.000000
# 5 0.000000 0.000000 0.000000 0.000000 0.051888 0.000000
# 6 0.000000 0.000000 0.000000 0.000000 0.000000 0.037636
#
#
# Mechanical properties :
#
#
# Convention : Reuss Voigt Hill
#
# Bulk Modulus (GPa) = 50.98844 54.71679 52.85262
# Shear Modulus (GPa) = 31.73211 36.35170 34.04190
#
# Velocity S-wave (km/s) = 3.68692 3.94617 3.81875
# Velocity P-wave (km/s) = 6.32193 6.64850 6.48727
#
# Compressibility (1/GPa) = 0.01961229
#
# Stress axis : x y z
#
# Youngs Moduli (GPa) = 82.88740 132.07114 99.57612
#
# Poissons Ratio (x) = 0.22791 0.11390
# Poissons Ratio (y) = 0.14303 0.21546
# Poissons Ratio (z) = 0.09481 0.28577
#
# Static dielectric constant tensor:
#      x y z
#    x 1.922160 0.000000 0.000000 
#    y 0.000000 2.022050 0.000000 
#    z 0.000000 0.000000 1.908250 
# 
# From -- ./inp_files/23598.got.cif
#   From: 2010.05.17/outbox.cif.g08.bks.cpg/sg52_12_cif.got.tgz:23598.got - 2010.06.03 12:15:38.
