data_PCOD9411188
_publ_section_title
;
Structure prediction by ZEFSAII (Michael W. Deem and Ramdas Pophale) SiO2 
 PCOD9411188
Probable space group: P N N A
;
_chemical_formula_sum "Si O2"
_cell_formula_units_Z 32
_cell_length_a 23.536710
_cell_length_b 10.854897
_cell_length_c 5.519887
_cell_angle_alpha 90.000000
_cell_angle_beta 90.000000
_cell_angle_gamma 90.000000
_cell_volume 1410.267996
_symmetry_space_group_name_H-M "P N N A"
_symmetry_group_IT_number 52
_symmetry_cell_setting 'orthorhombic'
loop_
_space_group_symop_operation_xyz
x,y,z
1/2-x,-y,z
x,1/2-y,1/2-z
1/2-x,1/2+y,1/2-z
-x,-y,-z
1/2+x,y,-z
-x,1/2+y,1/2+z
1/2+x,1/2-y,1/2+z
loop_
_atom_site_type_symbol
_atom_site_label
_atom_site_fract_x
_atom_site_fract_y
_atom_site_fract_z
Si Si1 0.262795 0.750000 0.750000
Si Si2 0.658540 0.124134 0.834019
Si Si3 0.750000 0.500000 0.014554
Si Si4 0.530857 0.250000 0.250000
Si Si5 0.064432 0.497692 0.605415
Si Si6 0.040585 0.750000 0.750000
O O1 0.301961 0.682264 0.546940
O O2 0.230668 0.873395 0.652523
O O3 0.627880 0.250000 0.750000
O O4 0.699598 0.056363 0.646513
O O5 0.611677 0.025742 0.907214
O O6 0.567196 0.373895 0.238746
O O7 0.494537 0.248005 0.497944
O O8 0.074454 0.623210 0.743795
O O9 0.000000 0.500000 0.500000
#
# Coordination Sequence:
#
# PCOD9411188 Si02
#       6
#     4   8   4   4   8   4
#     4  10  21  44  73 106 134 186 239 299 368 444
#     4  10  22  42  72 105 136 194 237 298 362 442
#     4  10  22  44  76 102 146 174 250 302 376 430
#     4  10  21  40  68  95 140 191 244 293 350 426
#     4  10  22  40  70  98 143 186 243 293 354 433
#     4  10  22  42  61 101 140 191 237 298 354 414
#
# _framework density 22.690722000000001
#
# number of rings (size 3 to 8) (size 9 to 14) (size 15 to 20)
#    0.000    2.000    0.000    2.250    7.000    0.000 
#   18.000   10.000   19.250    0.000    0.000    0.000 
#    0.000    0.000    0.000    0.000    0.000    0.000 
#
# Total GULP energy -178380.311197 kJ/mol
# GULP energy per Si atom -5574.384725 kJ/mol
# Density = 2.263908 g / cm^3
# Si number density = 22.690722 Si / 1000 Ang^3
#
#
#
# Elastic Constant Matrix: (Units=GPa)
#
#
# Indices 1 2 3 4 5 6 
#
# 1 62.9334 51.3104 22.2559 0.0000 0.0000 0.0000
# 2 51.3104 247.4940 47.7486 0.0000 0.0000 0.0000
# 3 22.2559 47.7486 83.5284 0.0000 0.0000 0.0000
# 4 0.0000 0.0000 0.0000 53.9352 0.0000 0.0000
# 5 0.0000 0.0000 0.0000 0.0000 13.7990 0.0000
# 6 0.0000 0.0000 0.0000 0.0000 0.0000 80.0189
#
#
#
# Elastic Compliance Matrix: (Units=1/GPa)
#
#
# Indices 1 2 3 4 5 6 
#
# 1 0.019904 -0.003488 -0.003309 0.000000 0.000000 0.000000
# 2 -0.003488 0.005153 -0.002016 0.000000 0.000000 0.000000
# 3 -0.003309 -0.002016 0.014006 0.000000 0.000000 0.000000
# 4 0.000000 0.000000 0.000000 0.018541 0.000000 0.000000
# 5 0.000000 0.000000 0.000000 0.000000 0.072469 0.000000
# 6 0.000000 0.000000 0.000000 0.000000 0.000000 0.012497
#
#
# Mechanical properties :
#
#
# Convention : Reuss Voigt Hill
#
# Bulk Modulus (GPa) = 46.65105 70.73172 58.69138
# Shear Modulus (GPa) = 29.87893 47.72669 38.80281
#
# Velocity S-wave (km/s) = 3.63270 4.59121 4.13979
# Velocity P-wave (km/s) = 6.18057 7.70360 6.98373
#
# Compressibility (1/GPa) = 0.02143575
#
# Stress axis : x y z
#
# Youngs Moduli (GPa) = 50.24117 194.07705 71.39666
#
# Poissons Ratio (x) = 0.67694 0.23628
# Poissons Ratio (y) = 0.17524 0.14394
# Poissons Ratio (z) = 0.16627 0.39128
#
# Static dielectric constant tensor:
#      x y z
#    x 2.367250 0.000000 0.000000 
#    y 0.000000 1.896000 0.000000 
#    z 0.000000 0.000000 2.442220 
# 
# From -- ./inp_files/3993.got.cif
#   From: 2010.05.17/outbox.cif.g08.bks.cpg/sg52_2_cif.got.tgz:3993.got - 2010.06.03 12:15:38.
