data_PCOD9411639
_publ_section_title
;
Structure prediction by ZEFSAII (Michael W. Deem and Ramdas Pophale) SiO2 
 PCOD9411639
Probable space group: P N N A
;
_chemical_formula_sum "Si O2"
_cell_formula_units_Z 32
_cell_length_a 11.341135
_cell_length_b 5.197270
_cell_length_c 20.789216
_cell_angle_alpha 90.000000
_cell_angle_beta 90.000000
_cell_angle_gamma 90.000000
_cell_volume 1225.377526
_symmetry_space_group_name_H-M "P N N A"
_symmetry_group_IT_number 52
_symmetry_cell_setting 'orthorhombic'
loop_
_space_group_symop_operation_xyz
x,y,z
1/2-x,-y,z
x,1/2-y,1/2-z
1/2-x,1/2+y,1/2-z
-x,-y,-z
1/2+x,y,-z
-x,1/2+y,1/2+z
1/2+x,1/2-y,1/2+z
loop_
_atom_site_type_symbol
_atom_site_label
_atom_site_fract_x
_atom_site_fract_y
_atom_site_fract_z
Si Si1 0.671328 0.755339 0.519751
Si Si2 0.117941 0.490775 0.154488
Si Si3 0.429088 0.346276 0.612980
Si Si4 0.625829 0.350603 0.183003
O O1 0.750000 0.500000 0.526195
O O2 0.619767 0.847215 0.587817
O O3 0.580324 0.705857 0.462440
O O4 0.750000 0.000000 0.499157
O O5 0.250000 0.500000 0.179935
O O6 0.063048 0.212515 0.135335
O O7 0.013777 0.595173 0.197706
O O8 0.379769 0.621271 0.631852
O O9 0.350391 0.131123 0.651321
O O10 0.678260 0.250000 0.250000
#
# Coordination Sequence:
#
# PCOD9411639 Si02
#       4
#     8   8   8   8
#     4  11  23  38  62  91 121 153 198 249 304 361
#     4   9  23  37  60  90 124 152 196 237 300 363
#     4  10  22  39  62  83 124 154 198 246 301 345
#     4  10  22  39  61  86 119 159 200 240 291 355
#
# _framework density 26.1144
#
# number of rings (size 3 to 8) (size 9 to 14) (size 15 to 20)
#    1.500    0.500    0.000    3.000    7.000    1.000 
#    4.500    0.000    0.000   15.000    0.000    0.000 
#    0.000    0.000    0.000    0.000    0.000    0.000 
#
# Total GULP energy -178842.442095 kJ/mol
# GULP energy per Si atom -5588.826315 kJ/mol
# Density = 2.605496 g / cm^3
# Si number density = 26.114400 Si / 1000 Ang^3
#
#
#
# Elastic Constant Matrix: (Units=GPa)
#
#
# Indices 1 2 3 4 5 6 
#
# 1 72.7830 32.8080 -25.4349 0.0000 0.0000 0.0000
# 2 32.8080 174.1181 7.8406 0.0000 0.0000 0.0000
# 3 -25.4349 7.8406 34.2753 0.0000 0.0000 0.0000
# 4 0.0000 0.0000 0.0000 18.8651 0.0000 0.0000
# 5 0.0000 0.0000 0.0000 0.0000 14.4593 0.0000
# 6 0.0000 0.0000 0.0000 0.0000 0.0000 46.7904
#
#
#
# Elastic Compliance Matrix: (Units=1/GPa)
#
#
# Indices 1 2 3 4 5 6 
#
# 1 0.022099 -0.004954 0.017532 0.000000 0.000000 0.000000
# 2 -0.004954 0.006913 -0.005257 0.000000 0.000000 0.000000
# 3 0.017532 -0.005257 0.043389 0.000000 0.000000 0.000000
# 4 0.000000 0.000000 0.000000 0.053008 0.000000 0.000000
# 5 0.000000 0.000000 0.000000 0.000000 0.069160 0.000000
# 6 0.000000 0.000000 0.000000 0.000000 0.000000 0.021372
#
#
# Mechanical properties :
#
#
# Convention : Reuss Voigt Hill
#
# Bulk Modulus (GPa) = 11.48839 34.62266 23.05552
# Shear Modulus (GPa) = 21.70964 33.75380 27.73172
#
# Velocity S-wave (km/s) = 2.88640 3.59909 3.26227
# Velocity P-wave (km/s) = 3.93919 5.52794 4.79976
#
# Compressibility (1/GPa) = 0.08704442
#
# Stress axis : x y z
#
# Youngs Moduli (GPa) = 45.25033 144.64807 23.04753
#
# Poissons Ratio (x) = 0.71652 -0.40408
# Poissons Ratio (y) = 0.22415 0.12117
# Poissons Ratio (z) = -0.79335 0.76047
#
# Static dielectric constant tensor:
#      x y z
#    x 2.280710 0.000000 0.000000 
#    y 0.000000 2.303040 0.000000 
#    z 0.000000 0.000000 1.944580 
# 
# From -- ./inp_files/32685.got.cif
#   From: 2010.05.17/outbox.cif.g08.bks.cpg/sg52_17_cif.got.tgz:32685.got - 2010.06.03 12:15:38.
