data_PCOD9411218
_publ_section_title
;
Structure prediction by ZEFSAII (Michael W. Deem and Ramdas Pophale) SiO2 
 PCOD9411218
Probable space group: P N N A
;
_chemical_formula_sum "Si O2"
_cell_formula_units_Z 48
_cell_length_a 12.697589
_cell_length_b 30.303694
_cell_length_c 4.939192
_cell_angle_alpha 90.000000
_cell_angle_beta 90.000000
_cell_angle_gamma 90.000000
_cell_volume 1900.521322
_symmetry_space_group_name_H-M "P N N A"
_symmetry_group_IT_number 52
_symmetry_cell_setting 'orthorhombic'
loop_
_space_group_symop_operation_xyz
x,y,z
1/2-x,-y,z
x,1/2-y,1/2-z
1/2-x,1/2+y,1/2-z
-x,-y,-z
1/2+x,y,-z
-x,1/2+y,1/2+z
1/2+x,1/2-y,1/2+z
loop_
_atom_site_type_symbol
_atom_site_label
_atom_site_fract_x
_atom_site_fract_y
_atom_site_fract_z
Si Si1 0.509870 0.621014 0.966560
Si Si2 0.325279 0.470344 0.437457
Si Si3 0.446366 0.965499 0.701394
Si Si4 0.407569 0.799369 0.210697
Si Si5 0.229727 0.200838 0.707701
Si Si6 0.144928 0.618988 0.560456
O O1 0.422437 0.583556 0.908075
O O2 0.569893 0.633016 0.689904
O O3 0.473299 0.662124 0.148468
O O4 0.590300 0.597744 0.173596
O O5 0.250000 0.500000 0.243743
O O6 0.351802 0.509739 0.651658
O O7 0.447732 0.457444 0.378427
O O8 0.280468 0.420837 0.461485
O O9 0.500000 0.000000 0.500000
O O10 0.451799 0.750000 0.250000
O O11 0.301200 0.801856 0.393691
O O12 0.375086 0.803081 0.897521
O O13 0.273152 0.250000 0.750000
O O14 0.299708 0.161745 0.817787
#
# Coordination Sequence:
#
# PCOD9411218 Si02
#       6
#     8   8   8   8   8   8
#     4  11  23  40  65  92 129 169 212 270 330 388
#     4  10  23  39  61  93 130 174 223 268 328 404
#     4  10  21  41  60  89 134 169 215 280 325 384
#     4  10  22  41  64  92 123 167 214 261 330 398
#     4  10  22  41  63  91 128 163 211 271 325 389
#     4  11  23  41  61  96 128 166 221 266 328 397
#
# _framework density 25.256226999999999
#
# number of rings (size 3 to 8) (size 9 to 14) (size 15 to 20)
#    0.000    1.667    1.667    2.000    2.333    2.667 
#    0.000    1.667    0.000    0.000    0.000    0.000 
#    0.000    0.000    0.000    0.000    0.000    0.000 
#
# Total GULP energy -267521.499447 kJ/mol
# GULP energy per Si atom -5573.364572 kJ/mol
# Density = 2.519874 g / cm^3
# Si number density = 25.256227 Si / 1000 Ang^3
#
#
#
# Elastic Constant Matrix: (Units=GPa)
#
#
# Indices 1 2 3 4 5 6 
#
# 1 37.7498 34.2364 -2.8917 0.0000 0.0000 0.0000
# 2 34.2364 200.3672 13.4073 0.0000 0.0000 0.0000
# 3 -2.8917 13.4073 98.9192 0.0000 0.0000 0.0000
# 4 0.0000 0.0000 0.0000 34.0405 0.0000 0.0000
# 5 0.0000 0.0000 0.0000 0.0000 28.9892 0.0000
# 6 0.0000 0.0000 0.0000 0.0000 0.0000 31.9976
#
#
#
# Elastic Compliance Matrix: (Units=1/GPa)
#
#
# Indices 1 2 3 4 5 6 
#
# 1 0.031620 -0.005515 0.001672 0.000000 0.000000 0.000000
# 2 -0.005515 0.005998 -0.000974 0.000000 0.000000 0.000000
# 3 0.001672 -0.000974 0.010290 0.000000 0.000000 0.000000
# 4 0.000000 0.000000 0.000000 0.029377 0.000000 0.000000
# 5 0.000000 0.000000 0.000000 0.000000 0.034496 0.000000
# 6 0.000000 0.000000 0.000000 0.000000 0.000000 0.031252
#
#
# Mechanical properties :
#
#
# Convention : Reuss Voigt Hill
#
# Bulk Modulus (GPa) = 26.12737 47.39336 36.76036
# Shear Modulus (GPa) = 30.22515 38.49107 34.35811
#
# Velocity S-wave (km/s) = 3.46315 3.90811 3.69234
# Velocity P-wave (km/s) = 5.13406 6.25861 5.72402
#
# Compressibility (1/GPa) = 0.03827404
#
# Stress axis : x y z
#
# Youngs Moduli (GPa) = 31.62581 166.71366 97.18004
#
# Poissons Ratio (x) = 0.91937 -0.16247
# Poissons Ratio (y) = 0.17441 0.09467
# Poissons Ratio (z) = -0.05287 0.16241
#
# Static dielectric constant tensor:
#      x y z
#    x 5.267060 0.000000 0.000000 
#    y 0.000000 1.681970 0.000000 
#    z 0.000000 0.000000 2.139290 
# 
# From -- ./inp_files/2451.got.cif
#   From: 2010.05.17/outbox.cif.g08.bks.cpg/sg52_2_cif.got.tgz:2451.got - 2010.06.03 12:15:38.
