data_PCOD9411163
_publ_section_title
;
Structure prediction by ZEFSAII (Michael W. Deem and Ramdas Pophale) SiO2 
 PCOD9411163
Probable space group: P N N A
;
_chemical_formula_sum "Si O2"
_cell_formula_units_Z 44
_cell_length_a 31.339313
_cell_length_b 7.793947
_cell_length_c 8.019367
_cell_angle_alpha 90.000000
_cell_angle_beta 90.000000
_cell_angle_gamma 90.000000
_cell_volume 1958.786081
_symmetry_space_group_name_H-M "P N N A"
_symmetry_group_IT_number 52
_symmetry_cell_setting 'orthorhombic'
loop_
_space_group_symop_operation_xyz
x,y,z
1/2-x,-y,z
x,1/2-y,1/2-z
1/2-x,1/2+y,1/2-z
-x,-y,-z
1/2+x,y,-z
-x,1/2+y,1/2+z
1/2+x,1/2-y,1/2+z
loop_
_atom_site_type_symbol
_atom_site_label
_atom_site_fract_x
_atom_site_fract_y
_atom_site_fract_z
Si Si1 0.544384 0.707724 0.435753
Si Si2 0.859493 0.655555 0.000142
Si Si3 0.202801 0.250000 0.750000
Si Si4 0.750000 0.500000 0.499042
Si Si5 0.593188 0.750000 0.750000
Si Si6 0.953205 0.794555 0.058525
Si Si7 0.664520 0.986193 0.830886
O O1 0.560779 0.750000 0.250000
O O2 0.563169 0.808969 0.596947
O O3 0.551382 0.501764 0.459841
O O4 0.493814 0.748000 0.445094
O O5 0.844049 0.838291 0.927983
O O6 0.843746 0.522858 0.863109
O O7 0.831238 0.622015 0.162982
O O8 0.909804 0.688814 0.020947
O O9 0.232150 0.350047 0.619596
O O10 0.711479 0.567431 0.614822
O O11 0.626037 0.640482 0.637864
O O12 0.963714 0.750000 0.250000
#
# Coordination Sequence:
#
# PCOD9411163 Si02
#       7
#     8   8   4   4   4   8   8
#     4  11  27  43  65 102 140 180 227 283 345 393
#     4  10  21  40  66  98 124 178 223 267 322 420
#     4  10  22  41  70  94 132 162 228 271 340 398
#     4  10  24  46  62 102 130 172 224 280 336 420
#     4  12  24  45  62 102 138 174 220 293 334 408
#     4  11  23  43  68  97 136 176 232 276 324 415
#     4  10  24  41  67  90 137 170 221 273 346 399
#
# _framework density 22.462889000000001
#
# number of rings (size 3 to 8) (size 9 to 14) (size 15 to 20)
#    0.000    1.455    3.636    0.000    5.091    5.818 
#    1.636    0.000    0.000    0.000    0.000    0.000 
#    0.000    0.000    0.000    0.000    0.000    0.000 
#
# Total GULP energy -245204.610061 kJ/mol
# GULP energy per Si atom -5572.832047 kJ/mol
# Density = 2.241176 g / cm^3
# Si number density = 22.462889 Si / 1000 Ang^3
#
#
#
# Elastic Constant Matrix: (Units=GPa)
#
#
# Indices 1 2 3 4 5 6 
#
# 1 174.3825 27.1664 70.8247 0.0000 0.0000 0.0000
# 2 27.1664 42.3409 3.8007 0.0000 0.0000 0.0000
# 3 70.8247 3.8007 110.7425 0.0000 0.0000 0.0000
# 4 0.0000 0.0000 0.0000 21.7650 0.0000 0.0000
# 5 0.0000 0.0000 0.0000 0.0000 34.5770 0.0000
# 6 0.0000 0.0000 0.0000 0.0000 0.0000 12.5218
#
#
#
# Elastic Compliance Matrix: (Units=1/GPa)
#
#
# Indices 1 2 3 4 5 6 
#
# 1 0.008727 -0.005114 -0.005406 0.000000 0.000000 0.000000
# 2 -0.005114 0.026688 0.002355 0.000000 0.000000 0.000000
# 3 -0.005406 0.002355 0.012406 0.000000 0.000000 0.000000
# 4 0.000000 0.000000 0.000000 0.045945 0.000000 0.000000
# 5 0.000000 0.000000 0.000000 0.000000 0.028921 0.000000
# 6 0.000000 0.000000 0.000000 0.000000 0.000000 0.079861
#
#
# Mechanical properties :
#
#
# Convention : Reuss Voigt Hill
#
# Bulk Modulus (GPa) = 31.75524 59.00551 45.38037
# Shear Modulus (GPa) = 21.79847 28.81770 25.30808
#
# Velocity S-wave (km/s) = 3.11854 3.58565 3.36022
# Velocity P-wave (km/s) = 5.20908 6.59299 5.94146
#
# Compressibility (1/GPa) = 0.03149087
#
# Stress axis : x y z
#
# Youngs Moduli (GPa) = 114.59162 37.47055 80.60457
#
# Poissons Ratio (x) = 0.19162 0.43571
# Poissons Ratio (y) = 0.58601 -0.18979
# Poissons Ratio (z) = 0.61943 -0.08823
#
# Static dielectric constant tensor:
#      x y z
#    x 1.873870 0.000000 0.000000 
#    y 0.000000 1.833020 0.000000 
#    z 0.000000 0.000000 1.865240 
# 
# From -- ./inp_files/15439.got.cif
#   From: 2010.05.17/outbox.cif.g08.bks.cpg/sg52_8_cif.got.tgz:15439.got - 2010.06.03 12:15:38.
