data_PCOD9411358
_publ_section_title
;
Structure prediction by ZEFSAII (Michael W. Deem and Ramdas Pophale) SiO2 
 PCOD9411358
Probable space group: P N N A
;
_chemical_formula_sum "Si O2"
_cell_formula_units_Z 36
_cell_length_a 21.819310
_cell_length_b 6.410985
_cell_length_c 12.026320
_cell_angle_alpha 90.000000
_cell_angle_beta 90.000000
_cell_angle_gamma 90.000000
_cell_volume 1682.280957
_symmetry_space_group_name_H-M "P N N A"
_symmetry_group_IT_number 52
_symmetry_cell_setting 'orthorhombic'
loop_
_space_group_symop_operation_xyz
x,y,z
1/2-x,-y,z
x,1/2-y,1/2-z
1/2-x,1/2+y,1/2-z
-x,-y,-z
1/2+x,y,-z
-x,1/2+y,1/2+z
1/2+x,1/2-y,1/2+z
loop_
_atom_site_type_symbol
_atom_site_label
_atom_site_fract_x
_atom_site_fract_y
_atom_site_fract_z
Si Si1 0.373861 0.139051 0.133820
Si Si2 0.700537 0.165863 0.371583
Si Si3 0.971181 0.815232 0.926951
Si Si4 0.918088 0.063316 0.431656
Si Si5 0.750000 0.500000 0.540052
O O1 0.386461 0.250000 0.250000
O O2 0.301583 0.105298 0.115985
O O3 0.414781 0.927286 0.134459
O O4 0.393722 0.284243 0.029414
O O5 0.716177 0.250000 0.250000
O O6 0.708468 0.352729 0.459539
O O7 0.750000 0.000000 0.410453
O O8 0.637584 0.035563 0.363144
O O9 0.028107 0.692145 0.870787
O O10 0.945476 0.639832 0.008966
O O11 0.000000 0.000000 0.000000
#
# Coordination Sequence:
#
# PCOD9411358 Si02
#       5
#     8   8   8   8   4
#     4  11  24  41  69  99 135 180 224 273 340 407
#     4  12  24  42  70 100 129 176 226 282 350 402
#     4   9  20  42  68  90 134 172 220 276 335 392
#     4  10  21  42  69  94 131 173 218 285 333 395
#     4  12  24  42  66 100 140 174 228 286 328 406
#
# _framework density 21.399515999999998
#
# number of rings (size 3 to 8) (size 9 to 14) (size 15 to 20)
#    0.000    1.333    5.556    0.000    0.000    2.667 
#    0.000   12.222    4.889    0.000    0.000    0.000 
#    0.000    0.000    0.000    0.000    0.000    0.000 
#
# Total GULP energy -200796.431296 kJ/mol
# GULP energy per Si atom -5577.678647 kJ/mol
# Density = 2.135081 g / cm^3
# Si number density = 21.399516 Si / 1000 Ang^3
#
#
#
# Elastic Constant Matrix: (Units=GPa)
#
#
# Indices 1 2 3 4 5 6 
#
# 1 102.7505 33.8885 -2.9147 0.0000 0.0000 0.0000
# 2 33.8885 105.9836 10.5647 0.0000 0.0000 0.0000
# 3 -2.9147 10.5647 44.5497 0.0000 0.0000 0.0000
# 4 0.0000 0.0000 0.0000 21.7745 0.0000 0.0000
# 5 0.0000 0.0000 0.0000 0.0000 -16.4943 0.0000
# 6 0.0000 0.0000 0.0000 0.0000 0.0000 47.2429
#
#
#
# Elastic Compliance Matrix: (Units=1/GPa)
#
#
# Indices 1 2 3 4 5 6 
#
# 1 0.010989 -0.003672 0.001590 0.000000 0.000000 0.000000
# 2 -0.003672 0.010891 -0.002823 0.000000 0.000000 0.000000
# 3 0.001590 -0.002823 0.023220 0.000000 0.000000 0.000000
# 4 0.000000 0.000000 0.000000 0.045925 0.000000 0.000000
# 5 0.000000 0.000000 0.000000 0.000000 -0.060627 0.000000
# 6 0.000000 0.000000 0.000000 0.000000 0.000000 0.021167
#
#
# Mechanical properties :
#
#
# Convention : Reuss Voigt Hill
#
# Bulk Modulus (GPa) = 28.33731 37.37342 32.85537
# Shear Modulus (GPa) = 68.36287 24.62096 46.49191
#
# Velocity S-wave (km/s) = 5.65821 3.39564 4.66614
# Velocity P-wave (km/s) = 7.48050 5.73379 6.66462
#
# Compressibility (1/GPa) = 0.03528916
#
# Stress axis : x y z
#
# Youngs Moduli (GPa) = 91.00422 91.81919 43.06579
#
# Poissons Ratio (x) = 0.33717 -0.06846
# Poissons Ratio (y) = 0.33417 0.12157
# Poissons Ratio (z) = -0.14467 0.25920
#
# Static dielectric constant tensor:
#      x y z
#    x 1.828140 0.000000 0.000000 
#    y 0.000000 1.747600 0.000000 
#    z 0.000000 0.000000 1.737250 
# 
# From -- ./inp_files/22061.got.cif
#   From: 2010.05.17/outbox.cif.g08.bks.cpg/sg52_12_cif.got.tgz:22061.got - 2010.06.03 12:15:38.
