data_PCOD9411176
_publ_section_title
;
Structure prediction by ZEFSAII (Michael W. Deem and Ramdas Pophale) SiO2 
 PCOD9411176
Probable space group: P N N A
;
_chemical_formula_sum "Si O2"
_cell_formula_units_Z 28
_cell_length_a 17.593166
_cell_length_b 15.223632
_cell_length_c 5.166720
_cell_angle_alpha 90.000000
_cell_angle_beta 90.000000
_cell_angle_gamma 90.000000
_cell_volume 1383.812356
_symmetry_space_group_name_H-M "P N N A"
_symmetry_group_IT_number 52
_symmetry_cell_setting 'orthorhombic'
loop_
_space_group_symop_operation_xyz
x,y,z
1/2-x,-y,z
x,1/2-y,1/2-z
1/2-x,1/2+y,1/2-z
-x,-y,-z
1/2+x,y,-z
-x,1/2+y,1/2+z
1/2+x,1/2-y,1/2+z
loop_
_atom_site_type_symbol
_atom_site_label
_atom_site_fract_x
_atom_site_fract_y
_atom_site_fract_z
Si Si1 0.973690 0.750000 0.750000
Si Si2 0.659870 0.001515 0.006042
Si Si3 0.378059 0.299596 0.504783
Si Si4 0.575372 0.065300 0.504976
O O1 0.937897 0.834392 0.604613
O O2 0.031296 0.710305 0.536918
O O3 0.614994 0.056828 0.224574
O O4 0.750000 0.000000 0.040452
O O5 0.633194 0.029265 0.721258
O O6 0.636962 0.900668 0.027672
O O7 0.352151 0.250000 0.250000
O O8 0.343408 0.250000 0.750000
O O9 0.500000 0.000000 0.500000
#
# Coordination Sequence:
#
# PCOD9411176 Si02
#       4
#     4   8   8   8
#     4  10  24  38  70 106 128 174 238 294 332 392
#     4  12  26  46  67 100 145 185 222 286 366 422
#     4  10  21  40  67  94 131 175 227 276 346 402
#     4  12  24  44  74 101 135 183 240 287 340 418
#
# _framework density 20.233958000000001
#
# number of rings (size 3 to 8) (size 9 to 14) (size 15 to 20)
#    0.857    0.000    2.857    5.143    4.000    0.000 
#    7.714    0.000    0.000    0.000    0.000    0.000 
#    0.000    0.000    0.000    0.000    0.000    0.000 
#
# Total GULP energy -156061.190732 kJ/mol
# GULP energy per Si atom -5573.613955 kJ/mol
# Density = 2.018790 g / cm^3
# Si number density = 20.233958 Si / 1000 Ang^3
#
#
#
# Elastic Constant Matrix: (Units=GPa)
#
#
# Indices 1 2 3 4 5 6 
#
# 1 84.4066 20.4250 7.1211 0.0000 0.0000 0.0000
# 2 20.4250 158.6720 11.5510 0.0000 0.0000 0.0000
# 3 7.1211 11.5510 117.8172 0.0000 0.0000 0.0000
# 4 0.0000 0.0000 0.0000 33.4476 0.0000 0.0000
# 5 0.0000 0.0000 0.0000 0.0000 25.0849 0.0000
# 6 0.0000 0.0000 0.0000 0.0000 0.0000 -5.8843
#
#
#
# Elastic Compliance Matrix: (Units=1/GPa)
#
#
# Indices 1 2 3 4 5 6 
#
# 1 0.012269 -0.001536 -0.000591 0.000000 0.000000 0.000000
# 2 -0.001536 0.006540 -0.000548 0.000000 0.000000 0.000000
# 3 -0.000591 -0.000548 0.008577 0.000000 0.000000 0.000000
# 4 0.000000 0.000000 0.000000 0.029898 0.000000 0.000000
# 5 0.000000 0.000000 0.000000 0.000000 0.039865 0.000000
# 6 0.000000 0.000000 0.000000 0.000000 0.000000 -0.169944
#
#
# Mechanical properties :
#
#
# Convention : Reuss Voigt Hill
#
# Bulk Modulus (GPa) = 45.38225 48.78778 47.08501
# Shear Modulus (GPa) = -83.19589 31.98289 -25.60650
#
# Velocity S-wave (km/s) = -6.41921 3.98006 -3.56128
# Velocity P-wave (km/s) = 5.69774 6.72944 2.53191
#
# Compressibility (1/GPa) = 0.02203505
#
# Stress axis : x y z
#
# Youngs Moduli (GPa) = 81.50605 152.90552 116.58816
#
# Poissons Ratio (x) = 0.23491 0.06890
# Poissons Ratio (y) = 0.12522 0.06393
# Poissons Ratio (z) = 0.04817 0.08384
#
# Static dielectric constant tensor:
#      x y z
#    x 1.786860 0.000000 0.000000 
#    y 0.000000 1.700980 0.000000 
#    z 0.000000 0.000000 1.718110 
# 
# From -- ./inp_files/4005.got.cif
#   From: 2010.05.17/outbox.cif.g08.bks.cpg/sg52_3_cif.got.tgz:4005.got - 2010.06.03 12:15:38.
