data_PCOD9411357
_publ_section_title
;
Structure prediction by ZEFSAII (Michael W. Deem and Ramdas Pophale) SiO2 
 PCOD9411357
Probable space group: P N N A
;
_chemical_formula_sum "Si O2"
_cell_formula_units_Z 40
_cell_length_a 7.435921
_cell_length_b 17.076217
_cell_length_c 14.145449
_cell_angle_alpha 90.000000
_cell_angle_beta 90.000000
_cell_angle_gamma 90.000000
_cell_volume 1796.152344
_symmetry_space_group_name_H-M "P N N A"
_symmetry_group_IT_number 52
_symmetry_cell_setting 'orthorhombic'
loop_
_space_group_symop_operation_xyz
x,y,z
1/2-x,-y,z
x,1/2-y,1/2-z
1/2-x,1/2+y,1/2-z
-x,-y,-z
1/2+x,y,-z
-x,1/2+y,1/2+z
1/2+x,1/2-y,1/2+z
loop_
_atom_site_type_symbol
_atom_site_label
_atom_site_fract_x
_atom_site_fract_y
_atom_site_fract_z
Si Si1 0.589238 0.295961 0.575023
Si Si2 0.245679 0.332110 0.706369
Si Si3 0.119169 0.436076 0.555243
Si Si4 0.886879 0.184130 0.567742
Si Si5 0.719603 0.408939 0.108305
O O1 0.418706 0.315562 0.640031
O O2 0.672676 0.375242 0.529288
O O3 0.734789 0.236254 0.618620
O O4 0.509708 0.247878 0.486032
O O5 0.180227 0.250000 0.750000
O O6 0.096956 0.377795 0.644175
O O7 0.313001 0.381698 0.795586
O O8 0.250000 0.500000 0.601110
O O9 0.000000 0.500000 0.500000
O O10 0.795915 0.134505 0.483456
O O11 0.015507 0.123094 0.620619
O O12 0.750000 0.500000 0.095128
#
# Coordination Sequence:
#
# PCOD9411357 Si02
#       5
#     8   8   8   8   8
#     4  11  20  41  67  95 132 187 229 284 360 446
#     4  12  23  42  70  97 142 183 238 294 358 442
#     4  12  23  40  69 102 138 180 233 297 370 429
#     4  10  21  42  69  93 132 187 235 277 369 442
#     4  11  23  40  71  99 136 178 234 304 361 424
#
# _framework density 22.269826999999999
#
# number of rings (size 3 to 8) (size 9 to 14) (size 15 to 20)
#    0.000    0.800    6.000    2.400    0.000    0.000 
#    0.000    5.000    0.000    0.000    0.000    0.000 
#    0.000    0.000    0.000    0.000    0.000    0.000 
#
# Total GULP energy -222786.411192 kJ/mol
# GULP energy per Si atom -5569.660280 kJ/mol
# Density = 2.221914 g / cm^3
# Si number density = 22.269827 Si / 1000 Ang^3
#
#
#
# Elastic Constant Matrix: (Units=GPa)
#
#
# Indices 1 2 3 4 5 6 
#
# 1 56.2190 46.0866 15.2645 0.0000 0.0000 0.0000
# 2 46.0866 196.6672 53.7008 0.0000 0.0000 0.0000
# 3 15.2645 53.7008 79.8997 0.0000 0.0000 0.0000
# 4 0.0000 0.0000 0.0000 61.8969 0.0000 0.0000
# 5 0.0000 0.0000 0.0000 0.0000 15.2230 0.0000
# 6 0.0000 0.0000 0.0000 0.0000 0.0000 36.4863
#
#
#
# Elastic Compliance Matrix: (Units=1/GPa)
#
#
# Indices 1 2 3 4 5 6 
#
# 1 0.022071 -0.004924 -0.000907 0.000000 0.000000 0.000000
# 2 -0.004924 0.007326 -0.003983 0.000000 0.000000 0.000000
# 3 -0.000907 -0.003983 0.015366 0.000000 0.000000 0.000000
# 4 0.000000 0.000000 0.000000 0.016156 0.000000 0.000000
# 5 0.000000 0.000000 0.000000 0.000000 0.065690 0.000000
# 6 0.000000 0.000000 0.000000 0.000000 0.000000 0.027408
#
#
# Mechanical properties :
#
#
# Convention : Reuss Voigt Hill
#
# Bulk Modulus (GPa) = 39.78649 62.54331 51.16490
# Shear Modulus (GPa) = 27.46897 37.23684 32.35290
#
# Velocity S-wave (km/s) = 3.51588 4.09354 3.81566
# Velocity P-wave (km/s) = 5.86398 7.10549 6.51438
#
# Compressibility (1/GPa) = 0.02513416
#
# Stress axis : x y z
#
# Youngs Moduli (GPa) = 45.30901 136.49351 65.07823
#
# Poissons Ratio (x) = 0.67215 0.05901
# Poissons Ratio (y) = 0.22312 0.25922
# Poissons Ratio (z) = 0.04109 0.54369
#
# Static dielectric constant tensor:
#      x y z
#    x 1.964690 0.000000 0.000000 
#    y 0.000000 1.812910 0.000000 
#    z 0.000000 0.000000 1.821330 
# 
# From -- ./inp_files/24438.got.cif
#   From: 2010.05.17/outbox.cif.g08.bks.cpg/sg52_13_cif.got.tgz:24438.got - 2010.06.03 12:15:38.
