data_PCOD9411844
_publ_section_title
;
Structure prediction by ZEFSAII (Michael W. Deem and Ramdas Pophale) SiO2 
 PCOD9411844
Probable space group: P N N A
;
_chemical_formula_sum "Si O2"
_cell_formula_units_Z 60
_cell_length_a 25.928652
_cell_length_b 11.229264
_cell_length_c 10.028960
_cell_angle_alpha 90.000000
_cell_angle_beta 90.000000
_cell_angle_gamma 90.000000
_cell_volume 2920.028769
_symmetry_space_group_name_H-M "P N N A"
_symmetry_group_IT_number 52
_symmetry_cell_setting 'orthorhombic'
loop_
_space_group_symop_operation_xyz
x,y,z
1/2-x,-y,z
x,1/2-y,1/2-z
1/2-x,1/2+y,1/2-z
-x,-y,-z
1/2+x,y,-z
-x,1/2+y,1/2+z
1/2+x,1/2-y,1/2+z
loop_
_atom_site_type_symbol
_atom_site_label
_atom_site_fract_x
_atom_site_fract_y
_atom_site_fract_z
Si Si1 0.203819 0.750000 0.250000
Si Si2 0.464086 0.142269 0.359203
Si Si3 0.130802 0.178023 0.611762
Si Si4 0.982269 0.213262 0.128722
Si Si5 0.636175 0.981373 0.747929
Si Si6 0.934801 0.002518 0.266497
Si Si7 0.718612 0.383826 0.935747
Si Si8 0.077005 0.113796 0.017816
O O1 0.168440 0.862941 0.212372
O O2 0.241482 0.704882 0.133665
O O3 0.464961 0.250000 0.250000
O O4 0.466785 0.198713 0.508424
O O5 0.412066 0.067472 0.337972
O O6 0.513178 0.058917 0.324559
O O7 0.127940 0.250000 0.750000
O O8 0.109412 0.045103 0.635471
O O9 0.187713 0.175510 0.554736
O O10 0.095026 0.250649 0.508877
O O11 0.020814 0.250000 0.250000
O O12 0.017205 0.116127 0.055117
O O13 0.943591 0.139266 0.227022
O O14 0.675246 0.067342 0.668260
O O15 0.611824 0.048231 0.874124
O O16 0.919669 0.948889 0.123961
O O17 0.750000 0.500000 0.979803
#
# Coordination Sequence:
#
# PCOD9411844 Si02
#       8
#     4   8   8   8   8   8   8   8
#     4  10  22  44  62  98 118 156 212 280 336 392
#     4  12  21  39  61  90 133 176 213 252 318 397
#     4  10  22  41  65  87 118 167 216 259 319 400
#     4  12  26  35  56  94 136 172 214 264 302 377
#     4  11  23  35  69  93 123 165 210 269 332 390
#     4  11  22  40  60  87 135 174 214 251 315 398
#     4  10  23  43  65  87 122 155 206 276 339 377
#     4  11  21  38  60  94 123 173 213 251 315 384
#
# _framework density 20.547740999999998
#
# number of rings (size 3 to 8) (size 9 to 14) (size 15 to 20)
#    0.000    1.067    4.667    2.400    3.733    0.533 
#    0.000    2.667    0.000    0.000    0.000    0.000 
#    0.000    0.000    0.000    0.000    0.000    0.000 
#
# Total GULP energy -334719.611038 kJ/mol
# GULP energy per Si atom -5578.660184 kJ/mol
# Density = 2.050097 g / cm^3
# Si number density = 20.547741 Si / 1000 Ang^3
#
#
#
# Elastic Constant Matrix: (Units=GPa)
#
#
# Indices 1 2 3 4 5 6 
#
# 1 80.2845 23.5381 32.4153 0.0000 0.0000 0.0000
# 2 23.5381 90.9919 53.8439 0.0000 0.0000 0.0000
# 3 32.4153 53.8439 127.4341 0.0000 0.0000 0.0000
# 4 0.0000 0.0000 0.0000 18.0225 0.0000 0.0000
# 5 0.0000 0.0000 0.0000 0.0000 26.2240 0.0000
# 6 0.0000 0.0000 0.0000 0.0000 0.0000 148.0540
#
#
#
# Elastic Compliance Matrix: (Units=1/GPa)
#
#
# Indices 1 2 3 4 5 6 
#
# 1 0.014160 -0.002042 -0.002739 0.000000 0.000000 0.000000
# 2 -0.002042 0.014948 -0.005797 0.000000 0.000000 0.000000
# 3 -0.002739 -0.005797 0.010993 0.000000 0.000000 0.000000
# 4 0.000000 0.000000 0.000000 0.055486 0.000000 0.000000
# 5 0.000000 0.000000 0.000000 0.000000 0.038133 0.000000
# 6 0.000000 0.000000 0.000000 0.000000 0.000000 0.006754
#
#
# Mechanical properties :
#
#
# Convention : Reuss Voigt Hill
#
# Bulk Modulus (GPa) = 52.78120 57.58944 55.18532
# Shear Modulus (GPa) = 29.77140 51.05431 40.41286
#
# Velocity S-wave (km/s) = 3.81056 4.99005 4.43965
# Velocity P-wave (km/s) = 6.71590 7.82872 7.29356
#
# Compressibility (1/GPa) = 0.01894614
#
# Stress axis : x y z
#
# Youngs Moduli (GPa) = 70.61963 66.89707 90.96617
#
# Poissons Ratio (x) = 0.13662 0.24916
# Poissons Ratio (y) = 0.14422 0.52729
# Poissons Ratio (z) = 0.19343 0.38777
#
# Static dielectric constant tensor:
#      x y z
#    x 1.846540 0.000000 0.000000 
#    y 0.000000 2.133960 0.000000 
#    z 0.000000 0.000000 1.930710 
# 
# From -- ./inp_files/15087.got.cif
#   From: 2010.05.17/outbox.cif.g08.bks.cpg/sg52_8_cif.got.tgz:15087.got - 2010.06.03 12:15:38.
