data_PCOD9411068
_publ_section_title
;
Structure prediction by ZEFSAII (Michael W. Deem and Ramdas Pophale) SiO2 
 PCOD9411068
Probable space group: P N N A
;
_chemical_formula_sum "Si O2"
_cell_formula_units_Z 52
_cell_length_a 20.679895
_cell_length_b 9.144059
_cell_length_c 14.969561
_cell_angle_alpha 90.000000
_cell_angle_beta 90.000000
_cell_angle_gamma 90.000000
_cell_volume 2830.716740
_symmetry_space_group_name_H-M "P N N A"
_symmetry_group_IT_number 52
_symmetry_cell_setting 'orthorhombic'
loop_
_space_group_symop_operation_xyz
x,y,z
1/2-x,-y,z
x,1/2-y,1/2-z
1/2-x,1/2+y,1/2-z
-x,-y,-z
1/2+x,y,-z
-x,1/2+y,1/2+z
1/2+x,1/2-y,1/2+z
loop_
_atom_site_type_symbol
_atom_site_label
_atom_site_fract_x
_atom_site_fract_y
_atom_site_fract_z
Si Si1 0.951810 0.509981 0.272961
Si Si2 0.230973 0.665089 0.902515
Si Si3 0.365142 0.818351 0.902346
Si Si4 0.683282 0.578044 0.528545
Si Si5 0.571812 0.838697 0.841134
Si Si6 0.134796 0.750000 0.750000
Si Si7 0.474958 0.612354 0.926882
O O1 0.907558 0.633923 0.317914
O O2 0.913551 0.363790 0.295415
O O3 0.958304 0.532081 0.166856
O O4 0.022375 0.531148 0.315392
O O5 0.250000 0.500000 0.928641
O O6 0.297603 0.745626 0.875968
O O7 0.180962 0.667748 0.820170
O O8 0.200382 0.769764 0.978491
O O9 0.410483 0.701886 0.953715
O O10 0.349476 0.962348 0.960268
O O11 0.750000 0.500000 0.556437
O O12 0.635074 0.607913 0.609225
O O13 0.585029 0.750000 0.750000
O O14 0.531027 0.729544 0.904647
O O15 0.500000 0.500000 0.000000
#
# Coordination Sequence:
#
# PCOD9411068 Si02
#       7
#     8   8   8   8   8   4   8
#     4  10  22  39  57  92 122 163 204 250 305 374
#     4  11  25  36  57  90 127 165 199 253 303 376
#     4  10  21  40  58  87 128 161 204 250 310 370
#     4  10  22  42  64  88 118 160 211 249 312 370
#     4   9  21  42  64  83 120 161 200 257 314 359
#     4  12  24  34  62  88 132 166 204 240 308 384
#     4  10  22  35  62  90 123 161 206 256 304 358
#
# _framework density 18.369906
#
# number of rings (size 3 to 8) (size 9 to 14) (size 15 to 20)
#    0.000    1.846    1.538    2.308    8.615    3.692 
#    0.000    0.769    5.077    0.000    0.000    0.000 
#    0.000    0.000    0.000    0.000    0.000    0.000 
#
# Total GULP energy -290230.075188 kJ/mol
# GULP energy per Si atom -5581.347600 kJ/mol
# Density = 1.832809 g / cm^3
# Si number density = 18.369906 Si / 1000 Ang^3
#
#
#
# Elastic Constant Matrix: (Units=GPa)
#
#
# Indices 1 2 3 4 5 6 
#
# 1 130.8031 47.8375 69.3923 0.0000 0.0000 0.0000
# 2 47.8375 99.0053 36.3324 0.0000 0.0000 0.0000
# 3 69.3923 36.3324 69.5742 0.0000 0.0000 0.0000
# 4 0.0000 0.0000 0.0000 20.9346 0.0000 0.0000
# 5 0.0000 0.0000 0.0000 0.0000 22.6727 0.0000
# 6 0.0000 0.0000 0.0000 0.0000 0.0000 35.5489
#
#
#
# Elastic Compliance Matrix: (Units=1/GPa)
#
#
# Indices 1 2 3 4 5 6 
#
# 1 0.016691 -0.002419 -0.015384 0.000000 0.000000 0.000000
# 2 -0.002419 0.012846 -0.004295 0.000000 0.000000 0.000000
# 3 -0.015384 -0.004295 0.031960 0.000000 0.000000 0.000000
# 4 0.000000 0.000000 0.000000 0.047768 0.000000 0.000000
# 5 0.000000 0.000000 0.000000 0.000000 0.044106 0.000000
# 6 0.000000 0.000000 0.000000 0.000000 0.000000 0.028130
#
#
# Mechanical properties :
#
#
# Convention : Reuss Voigt Hill
#
# Bulk Modulus (GPa) = 57.80464 67.38968 62.59716
# Shear Modulus (GPa) = 21.60146 25.55261 23.57703
#
# Velocity S-wave (km/s) = 3.43288 3.73366 3.58643
# Velocity P-wave (km/s) = 6.87374 7.43986 7.16239
#
# Compressibility (1/GPa) = 0.01729965
#
# Stress axis : x y z
#
# Youngs Moduli (GPa) = 59.91074 77.84739 31.28872
#
# Poissons Ratio (x) = 0.18834 0.48136
# Poissons Ratio (y) = 0.14494 0.13439
# Poissons Ratio (z) = 0.92170 0.33437
#
# Static dielectric constant tensor:
#      x y z
#    x 1.630180 0.000000 0.000000 
#    y 0.000000 2.563880 0.000000 
#    z 0.000000 0.000000 1.620490 
# 
# From -- ./inp_files/28706.got.cif
#   From: 2010.05.17/outbox.cif.g08.bks.cpg/sg52_15_cif.got.tgz:28706.got - 2010.06.03 12:15:38.
