data_PCOD9411809
_publ_section_title
;
Structure prediction by ZEFSAII (Michael W. Deem and Ramdas Pophale) SiO2 
 PCOD9411809
Probable space group: P N N A
;
_chemical_formula_sum "Si O2"
_cell_formula_units_Z 32
_cell_length_a 18.697810
_cell_length_b 14.733765
_cell_length_c 5.018535
_cell_angle_alpha 90.000000
_cell_angle_beta 90.000000
_cell_angle_gamma 90.000000
_cell_volume 1382.551884
_symmetry_space_group_name_H-M "P N N A"
_symmetry_group_IT_number 52
_symmetry_cell_setting 'orthorhombic'
loop_
_space_group_symop_operation_xyz
x,y,z
1/2-x,-y,z
x,1/2-y,1/2-z
1/2-x,1/2+y,1/2-z
-x,-y,-z
1/2+x,y,-z
-x,1/2+y,1/2+z
1/2+x,1/2-y,1/2+z
loop_
_atom_site_type_symbol
_atom_site_label
_atom_site_fract_x
_atom_site_fract_y
_atom_site_fract_z
Si Si1 0.607080 0.566388 0.414564
Si Si2 0.252481 0.153046 0.110288
Si Si3 0.668959 0.089804 0.408686
Si Si4 0.534830 0.423912 0.811981
O O1 0.665544 0.628430 0.553327
O O2 0.649672 0.512059 0.184815
O O3 0.577820 0.482706 0.593384
O O4 0.535786 0.619053 0.319408
O O5 0.246252 0.250000 0.250000
O O6 0.218177 0.089626 0.333600
O O7 0.207317 0.140095 0.837455
O O8 0.592863 0.130346 0.514613
O O9 0.500000 0.500000 0.000000
#
# Coordination Sequence:
#
# PCOD9411809 Si02
#       4
#     8   8   8   8
#     4  10  22  40  72 102 133 178 242 290 338 416
#     4  12  27  42  66 103 150 185 223 291 364 424
#     4  11  23  42  69 100 133 186 237 287 342 423
#     4   9  20  39  70 102 130 169 242 295 335 395
#
# _framework density 23.145606000000001
#
# number of rings (size 3 to 8) (size 9 to 14) (size 15 to 20)
#    0.000    1.500    2.500    1.500   10.500    0.000 
#    0.000    0.000   16.500    0.000    0.000    0.000 
#    0.000    0.000    0.000    0.000    0.000    0.000 
#
# Total GULP energy -178723.609675 kJ/mol
# GULP energy per Si atom -5585.112802 kJ/mol
# Density = 2.309293 g / cm^3
# Si number density = 23.145606 Si / 1000 Ang^3
#
#
#
# Elastic Constant Matrix: (Units=GPa)
#
#
# Indices 1 2 3 4 5 6 
#
# 1 219.9693 53.7295 96.0414 0.0000 0.0000 0.0000
# 2 53.7295 45.5036 18.8922 0.0000 0.0000 0.0000
# 3 96.0414 18.8922 149.3526 0.0000 0.0000 0.0000
# 4 0.0000 0.0000 0.0000 23.9487 0.0000 0.0000
# 5 0.0000 0.0000 0.0000 0.0000 56.2909 0.0000
# 6 0.0000 0.0000 0.0000 0.0000 0.0000 11.7218
#
#
#
# Elastic Compliance Matrix: (Units=1/GPa)
#
#
# Indices 1 2 3 4 5 6 
#
# 1 0.008467 -0.008166 -0.004412 0.000000 0.000000 0.000000
# 2 -0.008166 0.031070 0.001321 0.000000 0.000000 0.000000
# 3 -0.004412 0.001321 0.009365 0.000000 0.000000 0.000000
# 4 0.000000 0.000000 0.000000 0.041756 0.000000 0.000000
# 5 0.000000 0.000000 0.000000 0.000000 0.017765 0.000000
# 6 0.000000 0.000000 0.000000 0.000000 0.000000 0.085311
#
#
# Mechanical properties :
#
#
# Convention : Reuss Voigt Hill
#
# Bulk Modulus (GPa) = 37.89474 83.57241 60.73358
# Shear Modulus (GPa) = 22.21790 34.80309 28.51050
#
# Velocity S-wave (km/s) = 3.10162 3.88191 3.51349
# Velocity P-wave (km/s) = 5.40690 7.50186 6.53883
#
# Compressibility (1/GPa) = 0.02638888
#
# Stress axis : x y z
#
# Youngs Moduli (GPa) = 118.10746 32.18555 106.77565
#
# Poissons Ratio (x) = 0.26282 0.47106
# Poissons Ratio (y) = 0.96444 -0.14104
# Poissons Ratio (z) = 0.52105 -0.04251
#
# Static dielectric constant tensor:
#      x y z
#    x 2.034200 0.000000 0.000000 
#    y 0.000000 1.946710 0.000000 
#    z 0.000000 0.000000 1.999530 
# 
# From -- ./inp_files/2994.got.cif
#   From: 2010.05.17/outbox.cif.g08.bks.cpg/sg52_2_cif.got.tgz:2994.got - 2010.06.03 12:15:38.
