data_PCOD9411508
_publ_section_title
;
Structure prediction by ZEFSAII (Michael W. Deem and Ramdas Pophale) SiO2 
 PCOD9411508
Probable space group: P N N A
;
_chemical_formula_sum "Si O2"
_cell_formula_units_Z 48
_cell_length_a 21.205353
_cell_length_b 13.844407
_cell_length_c 8.333761
_cell_angle_alpha 90.000000
_cell_angle_beta 90.000000
_cell_angle_gamma 90.000000
_cell_volume 2446.588365
_symmetry_space_group_name_H-M "P N N A"
_symmetry_group_IT_number 52
_symmetry_cell_setting 'orthorhombic'
loop_
_space_group_symop_operation_xyz
x,y,z
1/2-x,-y,z
x,1/2-y,1/2-z
1/2-x,1/2+y,1/2-z
-x,-y,-z
1/2+x,y,-z
-x,1/2+y,1/2+z
1/2+x,1/2-y,1/2+z
loop_
_atom_site_type_symbol
_atom_site_label
_atom_site_fract_x
_atom_site_fract_y
_atom_site_fract_z
Si Si1 0.630852 0.736530 0.073979
Si Si2 0.208685 0.412415 0.195871
Si Si3 0.305193 0.250000 0.250000
Si Si4 0.608264 0.982857 0.498308
Si Si5 0.495734 0.833251 0.048542
Si Si6 0.608797 0.250000 0.750000
Si Si7 0.502016 0.032499 0.250515
O O1 0.661485 0.750000 0.250000
O O2 0.628341 0.622159 0.056706
O O3 0.560072 0.776878 0.077108
O O4 0.657783 0.783214 0.909111
O O5 0.250000 0.500000 0.274315
O O6 0.262005 0.332820 0.173921
O O7 0.152669 0.345067 0.268498
O O8 0.170614 0.458823 0.047975
O O9 0.562962 0.963920 0.651084
O O10 0.562110 0.031017 0.368376
O O11 0.439048 0.761905 0.100240
O O12 0.498355 0.929266 0.159940
O O13 0.492010 0.878634 0.871679
#
# Coordination Sequence:
#
# PCOD9411508 Si02
#       7
#     8   8   4   8   8   4   8
#     4  12  23  41  70 102 137 175 231 289 356 420
#     4  11  24  44  70  90 131 192 231 274 344 414
#     4  11  26  46  72  98 136 189 236 292 338 431
#     4  11  21  43  63  94 134 179 222 282 342 415
#     4  11  21  39  62 106 135 170 219 293 358 418
#     4  11  22  42  66  98 134 167 234 288 342 415
#     4  10  22  36  66  96 137 174 217 283 355 409
#
# _framework density 19.619156
#
# number of rings (size 3 to 8) (size 9 to 14) (size 15 to 20)
#    0.000    1.000    5.833    1.000    2.333    0.000 
#    0.000    3.333    0.000    0.000    0.000    0.000 
#    0.000    0.000    0.000    0.000    0.000    0.000 
#
# Total GULP energy -267280.899911 kJ/mol
# GULP energy per Si atom -5568.352081 kJ/mol
# Density = 1.957450 g / cm^3
# Si number density = 19.619156 Si / 1000 Ang^3
#
#
#
# Elastic Constant Matrix: (Units=GPa)
#
#
# Indices 1 2 3 4 5 6 
#
# 1 93.5945 27.3748 49.8986 0.0000 0.0000 0.0000
# 2 27.3748 80.0705 28.6568 0.0000 0.0000 0.0000
# 3 49.8986 28.6568 121.2240 0.0000 0.0000 0.0000
# 4 0.0000 0.0000 0.0000 34.0570 0.0000 0.0000
# 5 0.0000 0.0000 0.0000 0.0000 52.5216 0.0000
# 6 0.0000 0.0000 0.0000 0.0000 0.0000 25.4826
#
#
#
# Elastic Compliance Matrix: (Units=1/GPa)
#
#
# Indices 1 2 3 4 5 6 
#
# 1 0.014338 -0.003048 -0.005182 0.000000 0.000000 0.000000
# 2 -0.003048 0.014291 -0.002124 0.000000 0.000000 0.000000
# 3 -0.005182 -0.002124 0.010884 0.000000 0.000000 0.000000
# 4 0.000000 0.000000 0.000000 0.029363 0.000000 0.000000
# 5 0.000000 0.000000 0.000000 0.000000 0.019040 0.000000
# 6 0.000000 0.000000 0.000000 0.000000 0.000000 0.039242
#
#
# Mechanical properties :
#
#
# Convention : Reuss Voigt Hill
#
# Bulk Modulus (GPa) = 53.17051 56.30547 54.73799
# Shear Modulus (GPa) = 32.43949 35.00949 33.72449
#
# Velocity S-wave (km/s) = 4.07069 4.22886 4.15053
# Velocity P-wave (km/s) = 7.01813 7.25299 7.13653
#
# Compressibility (1/GPa) = 0.01880742
#
# Stress axis : x y z
#
# Youngs Moduli (GPa) = 69.74377 69.97397 91.87719
#
# Poissons Ratio (x) = 0.21325 0.47606
# Poissons Ratio (y) = 0.21255 0.19514
# Poissons Ratio (z) = 0.36138 0.14862
#
# Static dielectric constant tensor:
#      x y z
#    x 1.695720 0.000000 0.000000 
#    y 0.000000 1.682490 0.000000 
#    z 0.000000 0.000000 1.783430 
# 
# From -- ./inp_files/13339.got.cif
#   From: 2010.05.17/outbox.cif.g08.bks.cpg/sg52_7_cif.got.tgz:13339.got - 2010.06.03 12:15:38.
