data_PCOD9411740
_publ_section_title
;
Structure prediction by ZEFSAII (Michael W. Deem and Ramdas Pophale) SiO2 
 PCOD9411740
Probable space group: P N N A
;
_chemical_formula_sum "Si O2"
_cell_formula_units_Z 36
_cell_length_a 10.973583
_cell_length_b 15.955643
_cell_length_c 11.224492
_cell_angle_alpha 90.000000
_cell_angle_beta 90.000000
_cell_angle_gamma 90.000000
_cell_volume 1965.302733
_symmetry_space_group_name_H-M "P N N A"
_symmetry_group_IT_number 52
_symmetry_cell_setting 'orthorhombic'
loop_
_space_group_symop_operation_xyz
x,y,z
1/2-x,-y,z
x,1/2-y,1/2-z
1/2-x,1/2+y,1/2-z
-x,-y,-z
1/2+x,y,-z
-x,1/2+y,1/2+z
1/2+x,1/2-y,1/2+z
loop_
_atom_site_type_symbol
_atom_site_label
_atom_site_fract_x
_atom_site_fract_y
_atom_site_fract_z
Si Si1 0.638352 0.154738 0.771354
Si Si2 0.071776 0.414803 0.528144
Si Si3 0.250000 0.500000 0.710655
Si Si4 0.012458 0.988673 0.641620
Si Si5 0.572882 0.843298 0.773407
O O1 0.593823 0.250000 0.750000
O O2 0.576350 0.084832 0.687938
O O3 0.783176 0.154538 0.753046
O O4 0.615674 0.126165 0.906746
O O5 0.181948 0.435532 0.620161
O O6 0.000000 0.500000 0.500000
O O7 0.969701 0.360150 0.592729
O O8 0.356063 0.467053 0.799038
O O9 0.979502 0.079298 0.697723
O O10 0.000000 0.000000 0.500000
O O11 0.526371 0.750000 0.750000
#
# Coordination Sequence:
#
# PCOD9411740 Si02
#       5
#     8   8   4   8   8
#     4  11  24  41  64  96 123 168 209 262 318 373
#     4  11  20  40  68  89 126 160 218 255 307 377
#     4  10  22  40  64  96 118 172 216 252 320 368
#     4  11  25  42  63  92 130 165 209 259 320 379
#     4  10  23  41  63  90 121 166 205 255 315 364
#
# _framework density 18.317786999999999
#
# number of rings (size 3 to 8) (size 9 to 14) (size 15 to 20)
#    0.000    1.333    4.444    2.000    6.222    0.000 
#    0.000    4.444    0.000    0.000    0.000    0.000 
#    0.000    0.000    0.000    0.000    0.000    0.000 
#
# Total GULP energy -200670.955187 kJ/mol
# GULP energy per Si atom -5574.193200 kJ/mol
# Density = 1.827610 g / cm^3
# Si number density = 18.317787 Si / 1000 Ang^3
#
#
#
# Elastic Constant Matrix: (Units=GPa)
#
#
# Indices 1 2 3 4 5 6 
#
# 1 73.8665 32.8886 29.1697 0.0000 0.0000 0.0000
# 2 32.8886 137.9072 47.1914 0.0000 0.0000 0.0000
# 3 29.1697 47.1914 136.4063 0.0000 0.0000 0.0000
# 4 0.0000 0.0000 0.0000 -2.2378 0.0000 0.0000
# 5 0.0000 0.0000 0.0000 0.0000 16.6628 0.0000
# 6 0.0000 0.0000 0.0000 0.0000 0.0000 7.1250
#
#
#
# Elastic Compliance Matrix: (Units=1/GPa)
#
#
# Indices 1 2 3 4 5 6 
#
# 1 0.015784 -0.002960 -0.002351 0.000000 0.000000 0.000000
# 2 -0.002960 0.008780 -0.002405 0.000000 0.000000 0.000000
# 3 -0.002351 -0.002405 0.008666 0.000000 0.000000 0.000000
# 4 0.000000 0.000000 0.000000 -0.446869 0.000000 0.000000
# 5 0.000000 0.000000 0.000000 0.000000 0.060014 0.000000
# 6 0.000000 0.000000 0.000000 0.000000 0.000000 0.140350
#
#
# Mechanical properties :
#
#
# Convention : Reuss Voigt Hill
#
# Bulk Modulus (GPa) = 56.18426 62.96439 59.57432
# Shear Modulus (GPa) = -26.05382 20.23870 -2.90756
#
# Velocity S-wave (km/s) = -3.77546 3.32756 -1.26124
# Velocity P-wave (km/s) = 3.42536 7.01509 5.52017
#
# Compressibility (1/GPa) = 0.01779858
#
# Stress axis : x y z
#
# Youngs Moduli (GPa) = 63.35415 113.89612 115.39625
#
# Poissons Ratio (x) = 0.33709 0.27135
# Poissons Ratio (y) = 0.18751 0.27748
# Poissons Ratio (z) = 0.14897 0.27388
#
# Static dielectric constant tensor:
#      x y z
#    x 1.667260 0.000000 0.000000 
#    y 0.000000 1.632600 0.000000 
#    z 0.000000 0.000000 1.616360 
# 
# From -- ./inp_files/17932.got.cif
#   From: 2010.05.17/outbox.cif.g08.bks.cpg/sg52_9_cif.got.tgz:17932.got - 2010.06.03 12:15:38.
