data_PCOD9411488
_publ_section_title
;
Structure prediction by ZEFSAII (Michael W. Deem and Ramdas Pophale) SiO2 
 PCOD9411488
Probable space group: P N N A
;
_chemical_formula_sum "Si O2"
_cell_formula_units_Z 48
_cell_length_a 12.622923
_cell_length_b 13.631189
_cell_length_c 13.829806
_cell_angle_alpha 90.000000
_cell_angle_beta 90.000000
_cell_angle_gamma 90.000000
_cell_volume 2379.631781
_symmetry_space_group_name_H-M "P N N A"
_symmetry_group_IT_number 52
_symmetry_cell_setting 'orthorhombic'
loop_
_space_group_symop_operation_xyz
x,y,z
1/2-x,-y,z
x,1/2-y,1/2-z
1/2-x,1/2+y,1/2-z
-x,-y,-z
1/2+x,y,-z
-x,1/2+y,1/2+z
1/2+x,1/2-y,1/2+z
loop_
_atom_site_type_symbol
_atom_site_label
_atom_site_fract_x
_atom_site_fract_y
_atom_site_fract_z
Si Si1 0.133142 0.252630 0.863273
Si Si2 0.871536 0.228175 0.425657
Si Si3 0.547819 0.103371 0.528251
Si Si4 0.707926 0.610341 0.674358
Si Si5 0.512167 0.890633 0.965213
Si Si6 0.754761 0.179097 0.616802
O O1 0.102885 0.250000 0.750000
O O2 0.261054 0.262907 0.870009
O O3 0.094654 0.156599 0.922257
O O4 0.075907 0.336381 0.928832
O O5 0.933401 0.328317 0.448673
O O6 0.836384 0.184395 0.529548
O O7 0.963936 0.153864 0.397970
O O8 0.658237 0.111097 0.584569
O O9 0.500000 0.000000 0.500000
O O10 0.750000 0.500000 0.659144
O O11 0.596414 0.616368 0.621175
O O12 0.774967 0.704951 0.634255
O O13 0.697022 0.635271 0.786637
O O14 0.500000 0.000000 0.000000
#
# Coordination Sequence:
#
# PCOD9411488 Si02
#       6
#     8   8   8   8   8   8
#     4  10  23  42  64  93 127 170 216 264 319 396
#     4   9  21  40  62  83 132 164 207 262 326 376
#     4  10  22  39  67  90 126 169 214 259 332 384
#     4  10  22  35  63  89 126 157 213 266 319 372
#     4  10  23  37  65  91 128 167 212 259 327 390
#     4   9  21  39  56  94 121 163 211 262 310 391
#
# _framework density 20.171188999999998
#
# number of rings (size 3 to 8) (size 9 to 14) (size 15 to 20)
#    0.000    2.333    0.000    0.000   18.667    2.000 
#    3.000    3.333    0.000    0.000    0.000    0.000 
#    0.000    0.000    0.000    0.000    0.000    0.000 
#
# Total GULP energy -267465.086945 kJ/mol
# GULP energy per Si atom -5572.189311 kJ/mol
# Density = 2.012528 g / cm^3
# Si number density = 20.171189 Si / 1000 Ang^3
#
#
#
# Elastic Constant Matrix: (Units=GPa)
#
#
# Indices 1 2 3 4 5 6 
#
# 1 74.9899 37.5796 4.8021 0.0000 0.0000 0.0000
# 2 37.5796 112.9625 11.1420 0.0000 0.0000 0.0000
# 3 4.8021 11.1420 75.2522 0.0000 0.0000 0.0000
# 4 0.0000 0.0000 0.0000 18.3582 0.0000 0.0000
# 5 0.0000 0.0000 0.0000 0.0000 9.7578 0.0000
# 6 0.0000 0.0000 0.0000 0.0000 0.0000 24.7816
#
#
#
# Elastic Compliance Matrix: (Units=1/GPa)
#
#
# Indices 1 2 3 4 5 6 
#
# 1 0.016007 -0.005302 -0.000236 0.000000 0.000000 0.000000
# 2 -0.005302 0.010740 -0.001252 0.000000 0.000000 0.000000
# 3 -0.000236 -0.001252 0.013489 0.000000 0.000000 0.000000
# 4 0.000000 0.000000 0.000000 0.054472 0.000000 0.000000
# 5 0.000000 0.000000 0.000000 0.000000 0.102483 0.000000
# 6 0.000000 0.000000 0.000000 0.000000 0.000000 0.040353
#
#
# Mechanical properties :
#
#
# Convention : Reuss Voigt Hill
#
# Bulk Modulus (GPa) = 37.51534 41.13911 39.32722
# Shear Modulus (GPa) = 19.23016 24.55822 21.89419
#
# Velocity S-wave (km/s) = 3.09098 3.49304 3.29814
# Velocity P-wave (km/s) = 5.60158 6.05869 5.83461
#
# Compressibility (1/GPa) = 0.02665577
#
# Stress axis : x y z
#
# Youngs Moduli (GPa) = 62.47196 93.11207 74.13397
#
# Poissons Ratio (x) = 0.49366 0.01753
# Poissons Ratio (y) = 0.33122 0.09280
# Poissons Ratio (z) = 0.01477 0.11656
#
# Static dielectric constant tensor:
#      x y z
#    x 1.731090 0.000000 0.000000 
#    y 0.000000 1.769850 0.000000 
#    z 0.000000 0.000000 1.712630 
# 
# From -- ./inp_files/26081.got.cif
#   From: 2010.05.17/outbox.cif.g08.bks.cpg/sg52_14_cif.got.tgz:26081.got - 2010.06.03 12:15:38.
