data_PCOD9411101
_publ_section_title
;
Structure prediction by ZEFSAII (Michael W. Deem and Ramdas Pophale) SiO2 
 PCOD9411101
Probable space group: P N N A
;
_chemical_formula_sum "Si O2"
_cell_formula_units_Z 48
_cell_length_a 16.179299
_cell_length_b 9.114140
_cell_length_c 16.050590
_cell_angle_alpha 90.000000
_cell_angle_beta 90.000000
_cell_angle_gamma 90.000000
_cell_volume 2366.826360
_symmetry_space_group_name_H-M "P N N A"
_symmetry_group_IT_number 52
_symmetry_cell_setting 'orthorhombic'
loop_
_space_group_symop_operation_xyz
x,y,z
1/2-x,-y,z
x,1/2-y,1/2-z
1/2-x,1/2+y,1/2-z
-x,-y,-z
1/2+x,y,-z
-x,1/2+y,1/2+z
1/2+x,1/2-y,1/2+z
loop_
_atom_site_type_symbol
_atom_site_label
_atom_site_fract_x
_atom_site_fract_y
_atom_site_fract_z
Si Si1 0.242484 0.324525 0.666354
Si Si2 0.449121 0.671182 0.667543
Si Si3 0.769934 0.169814 0.500178
Si Si4 0.000429 0.154009 0.168256
Si Si5 0.834682 0.583299 0.584438
Si Si6 0.429719 0.310021 0.486285
O O1 0.250000 0.500000 0.665996
O O2 0.274868 0.250000 0.750000
O O3 0.145829 0.283471 0.658335
O O4 0.284345 0.249069 0.588151
O O5 0.483787 0.750000 0.750000
O O6 0.453124 0.497939 0.682584
O O7 0.499810 0.698051 0.583592
O O8 0.698474 0.267086 0.543103
O O9 0.859071 0.195746 0.541180
O O10 0.750000 0.000000 0.493200
O O11 0.988904 0.250000 0.250000
O O12 0.097719 0.118150 0.154258
O O13 0.968021 0.211303 0.078093
O O14 0.750000 0.500000 0.610294
O O15 0.883978 0.470275 0.522812
#
# Coordination Sequence:
#
# PCOD9411101 Si02
#       6
#     8   8   8   8   8   8
#     4  11  22  37  57  84 119 154 193 240 294 356
#     4  10  22  40  62  86 115 155 198 243 295 351
#     4  11  22  36  58  86 114 151 196 244 295 346
#     4  11  22  37  61  90 117 152 196 243 296 353
#     4   9  19  40  61  79 110 157 200 235 288 356
#     4  10  21  40  63  83 117 159 196 239 294 358
#
# _framework density 20.280324
#
# number of rings (size 3 to 8) (size 9 to 14) (size 15 to 20)
#    0.000    1.667    0.000    7.000    0.000    6.667 
#    0.000   10.833    0.000    0.000    0.000    0.000 
#    0.000    0.000    0.000    0.000    0.000    0.000 
#
# Total GULP energy -268028.192243 kJ/mol
# GULP energy per Si atom -5583.920672 kJ/mol
# Density = 2.023416 g / cm^3
# Si number density = 20.280324 Si / 1000 Ang^3
#
#
#
# Elastic Constant Matrix: (Units=GPa)
#
#
# Indices 1 2 3 4 5 6 
#
# 1 93.6786 -1.0630 29.3452 0.0000 0.0000 0.0000
# 2 -1.0630 90.9496 31.6212 0.0000 0.0000 0.0000
# 3 29.3452 31.6212 96.9119 0.0000 0.0000 0.0000
# 4 0.0000 0.0000 0.0000 33.2613 0.0000 0.0000
# 5 0.0000 0.0000 0.0000 0.0000 10.6680 0.0000
# 6 0.0000 0.0000 0.0000 0.0000 0.0000 16.3618
#
#
#
# Elastic Compliance Matrix: (Units=1/GPa)
#
#
# Indices 1 2 3 4 5 6 
#
# 1 0.011992 0.001582 -0.004147 0.000000 0.000000 0.000000
# 2 0.001582 0.012611 -0.004594 0.000000 0.000000 0.000000
# 3 -0.004147 -0.004594 0.013073 0.000000 0.000000 0.000000
# 4 0.000000 0.000000 0.000000 0.030065 0.000000 0.000000
# 5 0.000000 0.000000 0.000000 0.000000 0.093738 0.000000
# 6 0.000000 0.000000 0.000000 0.000000 0.000000 0.061118
#
#
# Mechanical properties :
#
#
# Convention : Reuss Voigt Hill
#
# Bulk Modulus (GPa) = 42.81208 44.59410 43.70309
# Shear Modulus (GPa) = 20.43307 26.83400 23.63354
#
# Velocity S-wave (km/s) = 3.17761 3.64146 3.41742
# Velocity P-wave (km/s) = 5.88378 6.30214 6.09655
#
# Compressibility (1/GPa) = 0.02335789
#
# Stress axis : x y z
#
# Youngs Moduli (GPa) = 83.38932 79.29731 76.49111
#
# Poissons Ratio (x) = -0.12546 0.31724
# Poissons Ratio (y) = -0.13193 0.35139
# Poissons Ratio (z) = 0.34585 0.36428
#
# Static dielectric constant tensor:
#      x y z
#    x 1.754880 0.000000 0.000000 
#    y 0.000000 1.716450 0.000000 
#    z 0.000000 0.000000 1.765530 
# 
# From -- ./inp_files/28029.got.cif
#   From: 2010.05.17/outbox.cif.g08.bks.cpg/sg52_15_cif.got.tgz:28029.got - 2010.06.03 12:15:38.
