data_PCOD9411060
_publ_section_title
;
Structure prediction by ZEFSAII (Michael W. Deem and Ramdas Pophale) SiO2 
 PCOD9411060
Probable space group: P N N A
;
_chemical_formula_sum "Si O2"
_cell_formula_units_Z 56
_cell_length_a 22.486510
_cell_length_b 14.301593
_cell_length_c 9.452294
_cell_angle_alpha 90.000000
_cell_angle_beta 90.000000
_cell_angle_gamma 90.000000
_cell_volume 3039.790772
_symmetry_space_group_name_H-M "P N N A"
_symmetry_group_IT_number 52
_symmetry_cell_setting 'orthorhombic'
loop_
_space_group_symop_operation_xyz
x,y,z
1/2-x,-y,z
x,1/2-y,1/2-z
1/2-x,1/2+y,1/2-z
-x,-y,-z
1/2+x,y,-z
-x,1/2+y,1/2+z
1/2+x,1/2-y,1/2+z
loop_
_atom_site_type_symbol
_atom_site_label
_atom_site_fract_x
_atom_site_fract_y
_atom_site_fract_z
Si Si1 0.067394 0.500000 0.457537
Si Si2 0.880318 0.637949 0.757974
Si Si3 0.350228 1.000000 0.770357
Si Si4 0.880317 0.137949 0.742033
Si Si5 0.250000 0.349794 0.673239
Si Si6 0.927932 0.500000 0.988721
Si Si7 0.250001 0.650447 0.328753
O O1 0.081079 0.409288 0.364025
O O2 0.110244 0.499995 0.590361
O O3 0.081081 0.590717 0.364038
O O4 0.000000 0.500000 0.500000
O O5 0.883833 0.750000 0.750000
O O6 0.904566 0.590413 0.900772
O O7 0.812125 0.608082 0.724540
O O8 0.307052 0.910016 0.777994
O O9 0.307054 0.089985 0.778003
O O10 0.394120 0.000003 0.637520
O O11 0.883830 0.250000 0.750000
O O12 0.904566 0.090409 0.599239
O O13 0.812124 0.108081 0.775466
O O14 0.250000 0.250000 0.750000
O O15 0.249998 0.343314 0.500470
O O16 0.000000 0.500000 0.000000
O O17 0.250000 0.750000 0.250000
#
# Coordination Sequence:
#
# PCOD9411060 Si02
#       7
#     8   8   8   8   8   8   8
#     4  11  22  41  64  90 124 171 212 258 306 373
#     4  10  23  42  68  92 123 165 215 259 312 379
#     4  11  24  39  64  95 131 165 202 266 330 362
#     4  10  23  42  68  92 123 165 215 259 312 379
#     4  11  25  41  64 100 134 159 205 265 326 382
#     4  11  26  44  62  93 133 165 221 261 304 376
#     4  10  21  39  69  97 123 160 216 252 316 386
#
# _framework density 18.422319999999999
#
# number of rings (size 3 to 8) (size 9 to 14) (size 15 to 20)
#    0.000    1.429    2.857    1.714    8.000    4.571 
#    0.000    2.857    0.000    0.000    0.000    0.000 
#    0.000    0.000    0.000    0.000    0.000    0.000 
#
# Total GULP energy -312532.682192 kJ/mol
# GULP energy per Si atom -5580.940753 kJ/mol
# Density = 1.838039 g / cm^3
# Si number density = 18.422320 Si / 1000 Ang^3
#
#
#
# Elastic Constant Matrix: (Units=GPa)
#
#
# Indices 1 2 3 4 5 6 
#
# 1 130.5718 43.8195 38.2975 0.0000 0.0000 0.0000
# 2 43.8195 154.1908 47.9856 0.0000 0.0000 0.0000
# 3 38.2975 47.9856 131.8202 0.0000 0.0000 0.0000
# 4 0.0000 0.0000 0.0000 25.2008 0.0000 0.0000
# 5 0.0000 0.0000 0.0000 0.0000 16.7570 0.0000
# 6 0.0000 0.0000 0.0000 0.0000 0.0000 22.0924
#
#
#
# Elastic Compliance Matrix: (Units=1/GPa)
#
#
# Indices 1 2 3 4 5 6 
#
# 1 0.008856 -0.001935 -0.001868 0.000000 0.000000 0.000000
# 2 -0.001935 0.007737 -0.002254 0.000000 0.000000 0.000000
# 3 -0.001868 -0.002254 0.008949 0.000000 0.000000 0.000000
# 4 0.000000 0.000000 0.000000 0.039681 0.000000 0.000000
# 5 0.000000 0.000000 0.000000 0.000000 0.059676 0.000000
# 6 0.000000 0.000000 0.000000 0.000000 0.000000 0.045264
#
#
# Mechanical properties :
#
#
# Convention : Reuss Voigt Hill
#
# Bulk Modulus (GPa) = 74.47845 75.19866 74.83856
# Shear Modulus (GPa) = 26.77286 31.90874 29.34080
#
# Velocity S-wave (km/s) = 3.81633 4.16633 3.99516
# Velocity P-wave (km/s) = 7.74179 8.00327 7.87362
#
# Compressibility (1/GPa) = 0.01342670
#
# Stress axis : x y z
#
# Youngs Moduli (GPa) = 112.91595 129.24912 111.73820
#
# Poissons Ratio (x) = 0.25014 0.20878
# Poissons Ratio (y) = 0.21853 0.25188
# Poissons Ratio (z) = 0.21098 0.29135
#
# Static dielectric constant tensor:
#      x y z
#    x 1.641760 0.000000 0.000000 
#    y 0.000000 1.599710 0.000000 
#    z 0.000000 0.000000 1.614760 
# 
# From -- ./inp_files/13446.got.cif
#   From: 2010.05.17/outbox.cif.g08.bks.cpg/sg52_7_cif.got.tgz:13446.got - 2010.06.03 12:15:38.
