data_PCOD9411614
_publ_section_title
;
Structure prediction by ZEFSAII (Michael W. Deem and Ramdas Pophale) SiO2 
 PCOD9411614
Probable space group: P N N A
;
_chemical_formula_sum "Si O2"
_cell_formula_units_Z 60
_cell_length_a 28.047590
_cell_length_b 19.663518
_cell_length_c 5.143107
_cell_angle_alpha 90.000000
_cell_angle_beta 90.000000
_cell_angle_gamma 90.000000
_cell_volume 2836.497010
_symmetry_space_group_name_H-M "P N N A"
_symmetry_group_IT_number 52
_symmetry_cell_setting 'orthorhombic'
loop_
_space_group_symop_operation_xyz
x,y,z
1/2-x,-y,z
x,1/2-y,1/2-z
1/2-x,1/2+y,1/2-z
-x,-y,-z
1/2+x,y,-z
-x,1/2+y,1/2+z
1/2+x,1/2-y,1/2+z
loop_
_atom_site_type_symbol
_atom_site_label
_atom_site_fract_x
_atom_site_fract_y
_atom_site_fract_z
Si Si1 0.900757 0.096016 0.136416
Si Si2 0.925325 0.960954 0.400615
Si Si3 0.791123 0.680207 0.584642
Si Si4 0.824840 0.893107 0.407450
Si Si5 0.696319 0.882010 0.820552
Si Si6 0.977938 0.443923 0.692918
Si Si7 0.369602 0.295859 0.003164
Si Si8 0.250000 0.500000 0.014025
O O1 0.901573 0.142123 0.394199
O O2 0.906794 0.016408 0.192833
O O3 0.850737 0.105755 0.990868
O O4 0.946536 0.111024 0.957441
O O5 0.879484 0.914986 0.437106
O O6 0.973786 0.920052 0.334720
O O7 0.943179 0.011848 0.625636
O O8 0.793902 0.750000 0.750000
O O9 0.818152 0.664572 0.314431
O O10 0.736652 0.659269 0.527843
O O11 0.809254 0.628458 0.804599
O O12 0.787735 0.955139 0.347979
O O13 0.678866 0.832074 0.591935
O O14 0.717964 0.949690 0.691765
O O15 0.000000 0.500000 0.500000
O O16 0.363447 0.250000 0.750000
O O17 0.385345 0.250000 0.250000
#
# Coordination Sequence:
#
# PCOD9411614 Si02
#       8
#     8   8   8   8   8   8   8   4
#     4  11  22  38  67  93 142 168 215 276 336 409
#     4  10  22  38  68 106 132 170 217 275 362 400
#     4  11  27  44  64  92 129 185 240 267 317 385
#     4  11  25  41  68  96 135 175 216 288 323 404
#     4  11  25  41  64  95 138 175 213 286 327 409
#     4   9  20  39  65 102 135 168 211 272 347 431
#     4  12  25  41  62  92 128 185 230 263 327 396
#     4  10  24  38  60 102 136 168 220 266 366 390
#
# _framework density 21.152850000000001
#
# number of rings (size 3 to 8) (size 9 to 14) (size 15 to 20)
#    0.000    1.333    1.333    3.200   13.067    0.533 
#    0.000    0.000    0.000    0.800   10.400    0.000 
#    0.000    0.000    0.000    0.000    0.000    0.000 
#
# Total GULP energy -334678.334497 kJ/mol
# GULP energy per Si atom -5577.972242 kJ/mol
# Density = 2.110471 g / cm^3
# Si number density = 21.152850 Si / 1000 Ang^3
#
#
#
# Elastic Constant Matrix: (Units=GPa)
#
#
# Indices 1 2 3 4 5 6 
#
# 1 152.9941 45.4094 56.1712 0.0000 0.0000 0.0000
# 2 45.4094 59.2039 10.0618 0.0000 0.0000 0.0000
# 3 56.1712 10.0618 86.0485 0.0000 0.0000 0.0000
# 4 0.0000 0.0000 0.0000 26.1691 0.0000 0.0000
# 5 0.0000 0.0000 0.0000 0.0000 25.7861 0.0000
# 6 0.0000 0.0000 0.0000 0.0000 0.0000 17.1919
#
#
#
# Elastic Compliance Matrix: (Units=1/GPa)
#
#
# Indices 1 2 3 4 5 6 
#
# 1 0.011071 -0.007410 -0.006360 0.000000 0.000000 0.000000
# 2 -0.007410 0.022193 0.002242 0.000000 0.000000 0.000000
# 3 -0.006360 0.002242 0.015511 0.000000 0.000000 0.000000
# 4 0.000000 0.000000 0.000000 0.038213 0.000000 0.000000
# 5 0.000000 0.000000 0.000000 0.000000 0.038781 0.000000
# 6 0.000000 0.000000 0.000000 0.000000 0.000000 0.058167
#
#
# Mechanical properties :
#
#
# Convention : Reuss Voigt Hill
#
# Bulk Modulus (GPa) = 38.88257 57.94792 48.41524
# Shear Modulus (GPa) = 23.19480 26.26970 24.73225
#
# Velocity S-wave (km/s) = 3.31499 3.52788 3.42309
# Velocity P-wave (km/s) = 5.75098 6.63694 6.20978
#
# Compressibility (1/GPa) = 0.02571846
#
# Stress axis : x y z
#
# Youngs Moduli (GPa) = 90.32756 45.05832 64.46993
#
# Poissons Ratio (x) = 0.33390 0.41005
# Poissons Ratio (y) = 0.66936 -0.14456
# Poissons Ratio (z) = 0.57452 -0.10103
#
# Static dielectric constant tensor:
#      x y z
#    x 1.809460 0.000000 0.000000 
#    y 0.000000 1.829620 0.000000 
#    z 0.000000 0.000000 1.878700 
# 
# From -- ./inp_files/5277.got.cif
#   From: 2010.05.17/outbox.cif.g08.bks.cpg/sg52_3_cif.got.tgz:5277.got - 2010.06.03 12:15:38.
