data_PCOD9411066
_publ_section_title
;
Structure prediction by ZEFSAII (Michael W. Deem and Ramdas Pophale) SiO2 
 PCOD9411066
Probable space group: P N N A
;
_chemical_formula_sum "Si O2"
_cell_formula_units_Z 32
_cell_length_a 13.738906
_cell_length_b 7.302978
_cell_length_c 11.166798
_cell_angle_alpha 90.000000
_cell_angle_beta 90.000000
_cell_angle_gamma 90.000000
_cell_volume 1120.419876
_symmetry_space_group_name_H-M "P N N A"
_symmetry_group_IT_number 52
_symmetry_cell_setting 'orthorhombic'
loop_
_space_group_symop_operation_xyz
x,y,z
1/2-x,-y,z
x,1/2-y,1/2-z
1/2-x,1/2+y,1/2-z
-x,-y,-z
1/2+x,y,-z
-x,1/2+y,1/2+z
1/2+x,1/2-y,1/2+z
loop_
_atom_site_type_symbol
_atom_site_label
_atom_site_fract_x
_atom_site_fract_y
_atom_site_fract_z
Si Si1 0.550337 0.502537 0.688937
Si Si2 0.250581 0.291755 0.936993
Si Si3 0.250000 0.500000 0.170934
Si Si4 0.913113 0.750000 0.250000
Si Si5 0.031756 0.834501 0.584410
O O1 0.654044 0.517537 0.750303
O O2 0.503875 0.691675 0.652234
O O3 0.543554 0.329095 0.604326
O O4 0.466074 0.451419 0.789112
O O5 0.250000 0.500000 0.888522
O O6 0.170896 0.200893 0.853572
O O7 0.363703 0.240823 0.931905
O O8 0.234713 0.330128 0.078993
O O9 0.000000 0.000000 0.500000
#
# Coordination Sequence:
#
# PCOD9411066 Si02
#       5
#     8   8   4   4   8
#     4  11  24  41  76 107 154 200 278 327 414 482
#     4  10  21  39  73 101 153 197 267 322 417 499
#     4  10  22  46  74 106 146 216 264 336 406 494
#     4  12  24  40  66 126 150 206 260 352 410 512
#     4  11  21  43  75 107 147 214 260 332 407 490
#
# _framework density 28.56072
#
# number of rings (size 3 to 8) (size 9 to 14) (size 15 to 20)
#    0.750    0.500    5.000    1.500    0.000    2.000 
#    0.000    1.250    0.000    0.000    0.000    0.000 
#    0.000    0.000    0.000    0.000    0.000    0.000 
#
# Total GULP energy -178138.257777 kJ/mol
# GULP energy per Si atom -5566.820556 kJ/mol
# Density = 2.849571 g / cm^3
# Si number density = 28.560720 Si / 1000 Ang^3
#
#
#
# Elastic Constant Matrix: (Units=GPa)
#
#
# Indices 1 2 3 4 5 6 
#
# 1 325.0779 54.0835 98.0795 0.0000 0.0000 0.0000
# 2 54.0835 118.3921 51.5249 0.0000 0.0000 0.0000
# 3 98.0795 51.5249 153.2575 0.0000 0.0000 0.0000
# 4 0.0000 0.0000 0.0000 32.2212 0.0000 0.0000
# 5 0.0000 0.0000 0.0000 0.0000 54.4194 0.0000
# 6 0.0000 0.0000 0.0000 0.0000 0.0000 44.8897
#
#
#
# Elastic Compliance Matrix: (Units=1/GPa)
#
#
# Indices 1 2 3 4 5 6 
#
# 1 0.003877 -0.000810 -0.002209 0.000000 0.000000 0.000000
# 2 -0.000810 0.010063 -0.002865 0.000000 0.000000 0.000000
# 3 -0.002209 -0.002865 0.008902 0.000000 0.000000 0.000000
# 4 0.000000 0.000000 0.000000 0.031035 0.000000 0.000000
# 5 0.000000 0.000000 0.000000 0.000000 0.018376 0.000000
# 6 0.000000 0.000000 0.000000 0.000000 0.000000 0.022277
#
#
# Mechanical properties :
#
#
# Convention : Reuss Voigt Hill
#
# Bulk Modulus (GPa) = 90.29573 111.56703 100.93138
# Shear Modulus (GPa) = 45.45851 52.50870 48.98361
#
# Velocity S-wave (km/s) = 3.99387 4.29242 4.14583
# Velocity P-wave (km/s) = 7.27681 7.98213 7.63762
#
# Compressibility (1/GPa) = 0.01107472
#
# Stress axis : x y z
#
# Youngs Moduli (GPa) = 257.90155 99.37077 112.33478
#
# Poissons Ratio (x) = 0.08047 0.24817
# Poissons Ratio (y) = 0.20886 0.32184
# Poissons Ratio (z) = 0.56975 0.28470
#
# Static dielectric constant tensor:
#      x y z
#    x 2.479120 0.000000 0.000000 
#    y 0.000000 1.876140 0.000000 
#    z 0.000000 0.000000 2.472150 
# 
# From -- ./inp_files/19031.got.cif
#   From: 2010.05.17/outbox.cif.g08.bks.cpg/sg52_10_cif.got.tgz:19031.got - 2010.06.03 12:15:38.
