data_PCOD9411925
_publ_section_title
;
Structure prediction by ZEFSAII (Michael W. Deem and Ramdas Pophale) SiO2 
 PCOD9411925
Probable space group: P N N A
;
_chemical_formula_sum "Si O2"
_cell_formula_units_Z 28
_cell_length_a 31.002100
_cell_length_b 7.701138
_cell_length_c 4.920443
_cell_angle_alpha 90.000000
_cell_angle_beta 90.000000
_cell_angle_gamma 90.000000
_cell_volume 1174.762903
_symmetry_space_group_name_H-M "P N N A"
_symmetry_group_IT_number 52
_symmetry_cell_setting 'orthorhombic'
loop_
_space_group_symop_operation_xyz
x,y,z
1/2-x,-y,z
x,1/2-y,1/2-z
1/2-x,1/2+y,1/2-z
-x,-y,-z
1/2+x,y,-z
-x,1/2+y,1/2+z
1/2+x,1/2-y,1/2+z
loop_
_atom_site_type_symbol
_atom_site_label
_atom_site_fract_x
_atom_site_fract_y
_atom_site_fract_z
Si Si1 0.344818 0.562648 0.105736
Si Si2 0.203350 0.565693 0.602325
Si Si3 0.010758 0.750000 0.250000
Si Si4 0.060790 0.069078 0.371802
O O1 0.340396 0.750000 0.250000
O O2 0.328423 0.437524 0.345766
O O3 0.393509 0.508967 0.007864
O O4 0.315371 0.554383 0.841671
O O5 0.250000 0.500000 0.508916
O O6 0.207001 0.750000 0.750000
O O7 0.041922 0.585655 0.318231
O O8 0.978246 0.849322 0.451011
O O9 0.075780 0.250000 0.250000
#
# Coordination Sequence:
#
# PCOD9411925 Si02
#       4
#     8   8   4   8
#     4  11  25  44  71 102 140 181 230 287 346 417
#     4  12  26  46  72 102 138 179 228 284 353 421
#     4  10  22  42  64  96 134 182 238 284 348 410
#     4  10  23  40  66  95 138 179 238 281 355 399
#
# _framework density 23.834596999999999
#
# number of rings (size 3 to 8) (size 9 to 14) (size 15 to 20)
#    0.000    1.143    0.000    5.143   12.000    0.000 
#    0.000    0.000    0.000    0.000    0.000    0.000 
#    0.000    0.000    0.000    0.000    0.000    0.000 
#
# Total GULP energy -155913.260447 kJ/mol
# GULP energy per Si atom -5568.330730 kJ/mol
# Density = 2.378035 g / cm^3
# Si number density = 23.834597 Si / 1000 Ang^3
#
#
#
# Elastic Constant Matrix: (Units=GPa)
#
#
# Indices 1 2 3 4 5 6 
#
# 1 90.4387 40.8325 5.7754 0.0000 0.0000 0.0000
# 2 40.8325 150.6955 26.7613 0.0000 0.0000 0.0000
# 3 5.7754 26.7613 60.9474 0.0000 0.0000 0.0000
# 4 0.0000 0.0000 0.0000 28.7712 0.0000 0.0000
# 5 0.0000 0.0000 0.0000 0.0000 33.3439 0.0000
# 6 0.0000 0.0000 0.0000 0.0000 0.0000 26.4193
#
#
#
# Elastic Compliance Matrix: (Units=1/GPa)
#
#
# Indices 1 2 3 4 5 6 
#
# 1 0.012605 -0.003474 0.000331 0.000000 0.000000 0.000000
# 2 -0.003474 0.008155 -0.003251 0.000000 0.000000 0.000000
# 3 0.000331 -0.003251 0.017804 0.000000 0.000000 0.000000
# 4 0.000000 0.000000 0.000000 0.034757 0.000000 0.000000
# 5 0.000000 0.000000 0.000000 0.000000 0.029991 0.000000
# 6 0.000000 0.000000 0.000000 0.000000 0.000000 0.037851
#
#
# Mechanical properties :
#
#
# Convention : Reuss Voigt Hill
#
# Bulk Modulus (GPa) = 38.79860 49.86889 44.33375
# Shear Modulus (GPa) = 30.76126 32.95437 31.85782
#
# Velocity S-wave (km/s) = 3.59641 3.72240 3.65995
# Velocity P-wave (km/s) = 5.79303 6.28040 6.04163
#
# Compressibility (1/GPa) = 0.02577413
#
# Stress axis : x y z
#
# Youngs Moduli (GPa) = 79.33597 122.62946 56.16757
#
# Poissons Ratio (x) = 0.42603 -0.01859
# Poissons Ratio (y) = 0.27562 0.18262
# Poissons Ratio (z) = -0.02626 0.39872
#
# Static dielectric constant tensor:
#      x y z
#    x 2.045790 0.000000 0.000000 
#    y 0.000000 1.971300 0.000000 
#    z 0.000000 0.000000 1.921520 
# 
# From -- ./inp_files/6089.got.cif
#   From: 2010.05.17/outbox.cif.g08.bks.cpg/sg52_4_cif.got.tgz:6089.got - 2010.06.03 12:15:38.
