data_PCOD9411806
_publ_section_title
;
Structure prediction by ZEFSAII (Michael W. Deem and Ramdas Pophale) SiO2 
 PCOD9411806
Probable space group: P N N A
;
_chemical_formula_sum "Si O2"
_cell_formula_units_Z 16
_cell_length_a 9.025889
_cell_length_b 5.107377
_cell_length_c 13.210115
_cell_angle_alpha 90.000000
_cell_angle_beta 90.000000
_cell_angle_gamma 90.000000
_cell_volume 608.968044
_symmetry_space_group_name_H-M "P N N A"
_symmetry_group_IT_number 52
_symmetry_cell_setting 'orthorhombic'
loop_
_space_group_symop_operation_xyz
x,y,z
1/2-x,-y,z
x,1/2-y,1/2-z
1/2-x,1/2+y,1/2-z
-x,-y,-z
1/2+x,y,-z
-x,1/2+y,1/2+z
1/2+x,1/2-y,1/2+z
loop_
_atom_site_type_symbol
_atom_site_label
_atom_site_fract_x
_atom_site_fract_y
_atom_site_fract_z
Si Si1 0.081668 0.919240 0.658479
Si Si2 0.853895 0.255585 0.559877
O O1 0.019523 0.750000 0.750000
O O2 0.085931 0.745508 0.555524
O O3 0.250000 0.000000 0.681478
O O4 0.988420 0.177741 0.632402
O O5 0.750000 0.500000 0.582259
O O6 0.750000 0.000000 0.564041
#
# Coordination Sequence:
#
# PCOD9411806 Si02
#       2
#     8   8
#     4  10  22  40  71 108 146 193 253 307 368 452
#     4  10  23  44  69 102 150 196 237 305 383 445
#
# _framework density 26.273956999999999
#
# number of rings (size 3 to 8) (size 9 to 14) (size 15 to 20)
#    0.000    2.000    0.000    1.500    0.000   22.000 
#    0.000    5.000    0.000    6.000    0.000    0.000 
#    0.000    0.000    0.000    0.000    0.000    0.000 
#
# Total GULP energy -89863.572353 kJ/mol
# GULP energy per Si atom -5616.473272 kJ/mol
# Density = 2.621416 g / cm^3
# Si number density = 26.273957 Si / 1000 Ang^3
#
#
#
# Elastic Constant Matrix: (Units=GPa)
#
#
# Indices 1 2 3 4 5 6 
#
# 1 148.9238 96.3659 53.5432 0.0000 0.0000 0.0000
# 2 96.3659 228.0242 87.8524 0.0000 0.0000 0.0000
# 3 53.5432 87.8524 132.6441 0.0000 0.0000 0.0000
# 4 0.0000 0.0000 0.0000 39.4114 0.0000 0.0000
# 5 0.0000 0.0000 0.0000 0.0000 3.9662 0.0000
# 6 0.0000 0.0000 0.0000 0.0000 0.0000 56.1641
#
#
#
# Elastic Compliance Matrix: (Units=1/GPa)
#
#
# Indices 1 2 3 4 5 6 
#
# 1 0.009481 -0.003400 -0.001575 0.000000 0.000000 0.000000
# 2 -0.003400 0.007107 -0.003335 0.000000 0.000000 0.000000
# 3 -0.001575 -0.003335 0.010384 0.000000 0.000000 0.000000
# 4 0.000000 0.000000 0.000000 0.025373 0.000000 0.000000
# 5 0.000000 0.000000 0.000000 0.000000 0.252133 0.000000
# 6 0.000000 0.000000 0.000000 0.000000 0.000000 0.017805
#
#
# Mechanical properties :
#
#
# Convention : Reuss Voigt Hill
#
# Bulk Modulus (GPa) = 96.60137 109.45724 103.02930
# Shear Modulus (GPa) = 14.60477 38.03037 26.31757
#
# Velocity S-wave (km/s) = 2.36024 3.80867 3.16833
# Velocity P-wave (km/s) = 6.65390 7.81612 7.25831
#
# Compressibility (1/GPa) = 0.01035182
#
# Stress axis : x y z
#
# Youngs Moduli (GPa) = 105.47085 140.70288 96.30609
#
# Poissons Ratio (x) = 0.47838 0.15172
# Poissons Ratio (y) = 0.35860 0.32116
# Poissons Ratio (z) = 0.16616 0.46921
#
# Static dielectric constant tensor:
#      x y z
#    x 2.084120 0.000000 0.000000 
#    y 0.000000 2.070780 0.000000 
#    z 0.000000 0.000000 2.062690 
# 
# From -- ./inp_files/23796.got.cif
#   From: 2010.05.17/outbox.cif.g08.bks.cpg/sg52_12_cif.got.tgz:23796.got - 2010.06.03 12:15:38.
