data_PCOD9411390
_publ_section_title
;
Structure prediction by ZEFSAII (Michael W. Deem and Ramdas Pophale) SiO2 
 PCOD9411390
Probable space group: P N N A
;
_chemical_formula_sum "Si O2"
_cell_formula_units_Z 48
_cell_length_a 9.472715
_cell_length_b 24.892368
_cell_length_c 8.218935
_cell_angle_alpha 90.000000
_cell_angle_beta 90.000000
_cell_angle_gamma 90.000000
_cell_volume 1938.010964
_symmetry_space_group_name_H-M "P N N A"
_symmetry_group_IT_number 52
_symmetry_cell_setting 'orthorhombic'
loop_
_space_group_symop_operation_xyz
x,y,z
1/2-x,-y,z
x,1/2-y,1/2-z
1/2-x,1/2+y,1/2-z
-x,-y,-z
1/2+x,y,-z
-x,1/2+y,1/2+z
1/2+x,1/2-y,1/2+z
loop_
_atom_site_type_symbol
_atom_site_label
_atom_site_fract_x
_atom_site_fract_y
_atom_site_fract_z
Si Si1 0.668483 0.054208 0.986604
Si Si2 0.513484 0.301957 0.420823
Si Si3 0.007220 0.410562 0.789014
Si Si4 0.766400 0.764677 0.576440
Si Si5 0.760207 0.111039 0.502142
Si Si6 0.923595 0.112123 0.164689
O O1 0.565622 0.051783 0.145713
O O2 0.792827 0.094867 0.045643
O O3 0.750000 0.000000 0.953888
O O4 0.559488 0.073474 0.850324
O O5 0.514821 0.349369 0.285651
O O6 0.656554 0.269067 0.436873
O O7 0.390869 0.258338 0.412531
O O8 0.483464 0.333992 0.587096
O O9 0.117993 0.415402 0.936036
O O10 0.850307 0.417517 0.856993
O O11 0.833863 0.750000 0.750000
O O12 0.771600 0.828008 0.553396
O O13 0.860479 0.114799 0.342982
#
# Coordination Sequence:
#
# PCOD9411390 Si02
#       6
#     8   8   8   8   8   8
#     4  10  21  43  69  97 126 163 214 270 329 410
#     4  11  24  42  58  90 126 168 220 258 314 378
#     4  10  23  42  60  87 130 164 206 264 325 376
#     4  12  25  38  62  90 124 174 222 263 305 373
#     4  11  23  39  59  88 125 165 211 262 316 366
#     4  10  23  40  66  93 125 169 209 269 330 384
#
# _framework density 24.767664
#
# number of rings (size 3 to 8) (size 9 to 14) (size 15 to 20)
#    0.000    1.333    1.667    4.500    4.667    4.000 
#    0.000    4.167    0.000    0.000    0.000    0.000 
#    0.000    0.000    0.000    0.000    0.000    0.000 
#
# Total GULP energy -268790.372733 kJ/mol
# GULP energy per Si atom -5599.799432 kJ/mol
# Density = 2.471129 g / cm^3
# Si number density = 24.767664 Si / 1000 Ang^3
#
#
#
# Elastic Constant Matrix: (Units=GPa)
#
#
# Indices 1 2 3 4 5 6 
#
# 1 114.3725 -2.6377 22.9222 0.0000 0.0000 0.0000
# 2 -2.6377 36.7572 0.2718 0.0000 0.0000 0.0000
# 3 22.9222 0.2718 74.9809 0.0000 0.0000 0.0000
# 4 0.0000 0.0000 0.0000 6.3168 0.0000 0.0000
# 5 0.0000 0.0000 0.0000 0.0000 45.3768 0.0000
# 6 0.0000 0.0000 0.0000 0.0000 0.0000 32.1066
#
#
#
# Elastic Compliance Matrix: (Units=1/GPa)
#
#
# Indices 1 2 3 4 5 6 
#
# 1 0.009332 0.000691 -0.002855 0.000000 0.000000 0.000000
# 2 0.000691 0.027257 -0.000310 0.000000 0.000000 0.000000
# 3 -0.002855 -0.000310 0.014211 0.000000 0.000000 0.000000
# 4 0.000000 0.000000 0.000000 0.158307 0.000000 0.000000
# 5 0.000000 0.000000 0.000000 0.000000 0.022038 0.000000
# 6 0.000000 0.000000 0.000000 0.000000 0.000000 0.031146
#
#
# Mechanical properties :
#
#
# Convention : Reuss Voigt Hill
#
# Bulk Modulus (GPa) = 21.80987 29.69145 25.75066
# Shear Modulus (GPa) = 17.69764 30.46368 24.08066
#
# Velocity S-wave (km/s) = 2.67600 3.51091 3.12149
# Velocity P-wave (km/s) = 4.28636 5.33379 4.83850
#
# Compressibility (1/GPa) = 0.04585081
#
# Stress axis : x y z
#
# Youngs Moduli (GPa) = 107.16368 36.68724 70.36945
#
# Poissons Ratio (x) = -0.02534 0.20092
# Poissons Ratio (y) = -0.07402 0.02181
# Poissons Ratio (z) = 0.30598 0.01137
#
# Static dielectric constant tensor:
#      x y z
#    x 1.969830 0.000000 0.000000 
#    y 0.000000 1.977770 0.000000 
#    z 0.000000 0.000000 2.037360 
# 
# From -- ./inp_files/7717.got.cif
#   From: 2010.05.17/outbox.cif.g08.bks.cpg/sg52_4_cif.got.tgz:7717.got - 2010.06.03 12:15:38.
