data_PCOD9411261
_publ_section_title
;
Structure prediction by ZEFSAII (Michael W. Deem and Ramdas Pophale) SiO2 
 PCOD9411261
Probable space group: P N N A
;
_chemical_formula_sum "Si O2"
_cell_formula_units_Z 40
_cell_length_a 10.507906
_cell_length_b 7.827975
_cell_length_c 23.330637
_cell_angle_alpha 90.000000
_cell_angle_beta 90.000000
_cell_angle_gamma 90.000000
_cell_volume 1919.076139
_symmetry_space_group_name_H-M "P N N A"
_symmetry_group_IT_number 52
_symmetry_cell_setting 'orthorhombic'
loop_
_space_group_symop_operation_xyz
x,y,z
1/2-x,-y,z
x,1/2-y,1/2-z
1/2-x,1/2+y,1/2-z
-x,-y,-z
1/2+x,y,-z
-x,1/2+y,1/2+z
1/2+x,1/2-y,1/2+z
loop_
_atom_site_type_symbol
_atom_site_label
_atom_site_fract_x
_atom_site_fract_y
_atom_site_fract_z
Si Si1 0.720260 0.811282 0.405054
Si Si2 0.124214 0.607205 0.484173
Si Si3 0.992107 0.668329 0.367372
Si Si4 0.991152 0.278276 0.319236
Si Si5 0.737395 0.705693 0.684729
O O1 0.663066 0.711268 0.459318
O O2 0.850771 0.729778 0.381280
O O3 0.619017 0.816814 0.353630
O O4 0.750000 0.000000 0.425561
O O5 0.250000 0.500000 0.469583
O O6 0.000000 0.500000 0.500000
O O7 0.074459 0.688891 0.425771
O O8 0.978694 0.477359 0.340074
O O9 0.093243 0.763522 0.326831
O O10 0.978377 0.250000 0.250000
O O11 0.131778 0.222377 0.342088
O O12 0.750000 0.500000 0.675983
O O13 0.757843 0.750000 0.750000
#
# Coordination Sequence:
#
# PCOD9411261 Si02
#       5
#     8   8   8   8   8
#     4  12  27  42  60 100 137 172 226 280 337 399
#     4  12  22  44  74  93 126 177 225 272 332 408
#     4  11  23  42  69  95 130 178 225 269 338 408
#     4  10  21  41  67  95 127 172 226 275 333 408
#     4   9  20  37  63  93 124 163 217 268 325 400
#
# _framework density 20.843361999999999
#
# number of rings (size 3 to 8) (size 9 to 14) (size 15 to 20)
#    0.000    1.200    4.000    2.400    0.000    8.000 
#    0.000    1.000    0.000    0.000    0.000    0.000 
#    0.000    0.000    0.000    0.000    0.000    0.000 
#
# Total GULP energy -222709.606179 kJ/mol
# GULP energy per Si atom -5567.740154 kJ/mol
# Density = 2.079592 g / cm^3
# Si number density = 20.843362 Si / 1000 Ang^3
#
#
#
# Elastic Constant Matrix: (Units=GPa)
#
#
# Indices 1 2 3 4 5 6 
#
# 1 175.5638 41.1221 46.4198 0.0000 0.0000 0.0000
# 2 41.1221 47.8227 15.6886 0.0000 0.0000 0.0000
# 3 46.4198 15.6886 89.3640 0.0000 0.0000 0.0000
# 4 0.0000 0.0000 0.0000 14.9770 0.0000 0.0000
# 5 0.0000 0.0000 0.0000 0.0000 42.8491 0.0000
# 6 0.0000 0.0000 0.0000 0.0000 0.0000 2.4304
#
#
#
# Elastic Compliance Matrix: (Units=1/GPa)
#
#
# Indices 1 2 3 4 5 6 
#
# 1 0.007854 -0.005746 -0.003071 0.000000 0.000000 0.000000
# 2 -0.005746 0.026392 -0.001649 0.000000 0.000000 0.000000
# 3 -0.003071 -0.001649 0.013075 0.000000 0.000000 0.000000
# 4 0.000000 0.000000 0.000000 0.066769 0.000000 0.000000
# 5 0.000000 0.000000 0.000000 0.000000 0.023338 0.000000
# 6 0.000000 0.000000 0.000000 0.000000 0.000000 0.411460
#
#
# Mechanical properties :
#
#
# Convention : Reuss Voigt Hill
#
# Bulk Modulus (GPa) = 37.89329 57.69017 47.79173
# Shear Modulus (GPa) = 8.64133 26.01930 17.33032
#
# Velocity S-wave (km/s) = 2.03834 3.53700 2.88662
# Velocity P-wave (km/s) = 4.87435 6.66472 5.83857
#
# Compressibility (1/GPa) = 0.02638989
#
# Stress axis : x y z
#
# Youngs Moduli (GPa) = 127.32775 37.88986 76.48317
#
# Poissons Ratio (x) = 0.21771 0.23487
# Poissons Ratio (y) = 0.73162 0.12610
# Poissons Ratio (z) = 0.39101 0.06247
#
# Static dielectric constant tensor:
#      x y z
#    x 1.824070 0.000000 0.000000 
#    y 0.000000 1.803720 0.000000 
#    z 0.000000 0.000000 2.484780 
# 
# From -- ./inp_files/39229.got.cif
#   From: 2010.05.17/outbox.cif.g08.bks.cpg/sg52_20_cif.got.tgz:39229.got - 2010.06.03 12:15:38.
