data_PCOD9411842
_publ_section_title
;
Structure prediction by ZEFSAII (Michael W. Deem and Ramdas Pophale) SiO2 
 PCOD9411842
Probable space group: P N N A
;
_chemical_formula_sum "Si O2"
_cell_formula_units_Z 40
_cell_length_a 24.709153
_cell_length_b 8.844794
_cell_length_c 8.831906
_cell_angle_alpha 90.000000
_cell_angle_beta 90.000000
_cell_angle_gamma 90.000000
_cell_volume 1930.189812
_symmetry_space_group_name_H-M "P N N A"
_symmetry_group_IT_number 52
_symmetry_cell_setting 'orthorhombic'
loop_
_space_group_symop_operation_xyz
x,y,z
1/2-x,-y,z
x,1/2-y,1/2-z
1/2-x,1/2+y,1/2-z
-x,-y,-z
1/2+x,y,-z
-x,1/2+y,1/2+z
1/2+x,1/2-y,1/2+z
loop_
_atom_site_type_symbol
_atom_site_label
_atom_site_fract_x
_atom_site_fract_y
_atom_site_fract_z
Si Si1 0.397154 0.854021 0.535682
Si Si2 0.409860 0.515054 0.659012
Si Si3 0.472128 0.573812 0.216213
Si Si4 0.125403 0.606894 0.361974
Si Si5 0.202674 0.096531 0.314021
O O1 0.411305 0.680672 0.578003
O O2 0.379952 0.946706 0.684314
O O3 0.449176 0.931904 0.456050
O O4 0.347613 0.861301 0.420015
O O5 0.469212 0.468066 0.718632
O O6 0.383817 0.393564 0.543655
O O7 0.463626 0.750000 0.250000
O O8 0.430094 0.470588 0.306573
O O9 0.131431 0.750000 0.250000
O O10 0.175841 0.500033 0.321267
O O11 0.226788 0.250000 0.250000
O O12 0.250000 0.000000 0.388996
#
# Coordination Sequence:
#
# PCOD9411842 Si02
#       5
#     8   8   8   8   8
#     4  10  22  41  64  95 135 168 224 276 334 402
#     4  11  22  38  66  93 138 181 211 280 330 387
#     4  11  22  38  59  94 136 185 222 259 319 403
#     4  11  23  40  63  95 132 171 228 269 323 404
#     4  11  22  45  70  93 123 166 217 276 344 404
#
# _framework density 20.723351000000001
#
# number of rings (size 3 to 8) (size 9 to 14) (size 15 to 20)
#    0.000    1.200    4.000    3.000    2.800    3.200 
#    0.000    1.000    4.400    0.000    0.000    0.000 
#    0.000    0.000    0.000    0.000    0.000    0.000 
#
# Total GULP energy -222979.076118 kJ/mol
# GULP energy per Si atom -5574.476903 kJ/mol
# Density = 2.067618 g / cm^3
# Si number density = 20.723351 Si / 1000 Ang^3
#
#
#
# Elastic Constant Matrix: (Units=GPa)
#
#
# Indices 1 2 3 4 5 6 
#
# 1 64.7937 35.0067 15.2755 0.0000 0.0000 0.0000
# 2 35.0067 88.9773 34.1274 0.0000 0.0000 0.0000
# 3 15.2755 34.1274 130.7000 0.0000 0.0000 0.0000
# 4 0.0000 0.0000 0.0000 29.0948 0.0000 0.0000
# 5 0.0000 0.0000 0.0000 0.0000 7.5543 0.0000
# 6 0.0000 0.0000 0.0000 0.0000 0.0000 22.8000
#
#
#
# Elastic Compliance Matrix: (Units=1/GPa)
#
#
# Indices 1 2 3 4 5 6 
#
# 1 0.019611 -0.007597 -0.000308 0.000000 0.000000 0.000000
# 2 -0.007597 0.015433 -0.003142 0.000000 0.000000 0.000000
# 3 -0.000308 -0.003142 0.008507 0.000000 0.000000 0.000000
# 4 0.000000 0.000000 0.000000 0.034370 0.000000 0.000000
# 5 0.000000 0.000000 0.000000 0.000000 0.132376 0.000000
# 6 0.000000 0.000000 0.000000 0.000000 0.000000 0.043860
#
#
# Mechanical properties :
#
#
# Convention : Reuss Voigt Hill
#
# Bulk Modulus (GPa) = 46.60582 50.36558 48.48570
# Shear Modulus (GPa) = 17.64264 25.22723 21.43493
#
# Velocity S-wave (km/s) = 2.92094 3.49282 3.21960
# Velocity P-wave (km/s) = 5.82359 6.37361 6.10480
#
# Compressibility (1/GPa) = 0.02145655
#
# Stress axis : x y z
#
# Youngs Moduli (GPa) = 50.99178 64.79649 117.54340
#
# Poissons Ratio (x) = 0.49229 0.03623
# Poissons Ratio (y) = 0.38741 0.36930
# Poissons Ratio (z) = 0.01572 0.20358
#
# Static dielectric constant tensor:
#      x y z
#    x 1.701800 0.000000 0.000000 
#    y 0.000000 1.782420 0.000000 
#    z 0.000000 0.000000 1.817130 
# 
# From -- ./inp_files/13992.got.cif
#   From: 2010.05.17/outbox.cif.g08.bks.cpg/sg52_7_cif.got.tgz:13992.got - 2010.06.03 12:15:38.
