data_PCOD9411467
_publ_section_title
;
Structure prediction by ZEFSAII (Michael W. Deem and Ramdas Pophale) SiO2 
 PCOD9411467
Probable space group: P N N A
;
_chemical_formula_sum "Si O2"
_cell_formula_units_Z 40
_cell_length_a 15.587642
_cell_length_b 5.311089
_cell_length_c 28.885987
_cell_angle_alpha 90.000000
_cell_angle_beta 90.000000
_cell_angle_gamma 90.000000
_cell_volume 2391.394430
_symmetry_space_group_name_H-M "P N N A"
_symmetry_group_IT_number 52
_symmetry_cell_setting 'orthorhombic'
loop_
_space_group_symop_operation_xyz
x,y,z
1/2-x,-y,z
x,1/2-y,1/2-z
1/2-x,1/2+y,1/2-z
-x,-y,-z
1/2+x,y,-z
-x,1/2+y,1/2+z
1/2+x,1/2-y,1/2+z
loop_
_atom_site_type_symbol
_atom_site_label
_atom_site_fract_x
_atom_site_fract_y
_atom_site_fract_z
Si Si1 0.343437 0.865612 0.349868
Si Si2 0.250000 0.500000 0.410146
Si Si3 0.308601 0.750000 0.250000
Si Si4 0.943886 0.484871 0.453500
Si Si5 0.028758 0.981822 0.424788
Si Si6 0.176335 0.675141 0.008602
O O1 0.325037 0.611637 0.378747
O O2 0.361635 0.805778 0.296520
O O3 0.250000 0.000000 0.349678
O O4 0.412576 0.020849 0.378904
O O5 0.216458 0.710015 0.444925
O O6 0.250000 0.500000 0.258734
O O7 0.852917 0.394184 0.473766
O O8 0.000000 0.500000 0.500000
O O9 0.963142 0.748278 0.428631
O O10 0.980197 0.246858 0.425561
O O11 0.092713 0.968041 0.470042
O O12 0.250000 0.500000 0.987988
#
# Coordination Sequence:
#
# PCOD9411467 Si02
#       6
#     8   4   4   8   8   8
#     4  11  20  32  48  69  93 125 166 204 254 291
#     4  12  18  30  48  66  94 120 176 194 250 286
#     4  10  22  32  48  70  96 116 156 216 244 288
#     4  10  22  32  45  64  92 117 162 206 244 280
#     4  11  20  34  47  64  90 124 160 202 246 293
#     4  11  21  29  46  68  88 127 163 212 242 291
#
# _framework density 16.726641999999998
#
# number of rings (size 3 to 8) (size 9 to 14) (size 15 to 20)
#    0.000    1.200    5.000    4.800    2.800    0.000 
#    0.000    0.000    0.000    0.000    0.000    0.000 
#    0.000    0.000    0.000    0.000    3.800    0.900 
#
# Total GULP energy -223132.688987 kJ/mol
# GULP energy per Si atom -5578.317225 kJ/mol
# Density = 1.668857 g / cm^3
# Si number density = 16.726642 Si / 1000 Ang^3
#
#
#
# Elastic Constant Matrix: (Units=GPa)
#
#
# Indices 1 2 3 4 5 6 
#
# 1 55.7294 29.9327 33.7023 0.0000 0.0000 0.0000
# 2 29.9327 101.3384 30.6321 0.0000 0.0000 0.0000
# 3 33.7023 30.6321 93.3940 0.0000 0.0000 0.0000
# 4 0.0000 0.0000 0.0000 9.6863 0.0000 0.0000
# 5 0.0000 0.0000 0.0000 0.0000 -27.9624 0.0000
# 6 0.0000 0.0000 0.0000 0.0000 0.0000 34.2210
#
#
#
# Elastic Compliance Matrix: (Units=1/GPa)
#
#
# Indices 1 2 3 4 5 6 
#
# 1 0.025212 -0.005214 -0.007388 0.000000 0.000000 0.000000
# 2 -0.005214 0.012032 -0.002065 0.000000 0.000000 0.000000
# 3 -0.007388 -0.002065 0.014051 0.000000 0.000000 0.000000
# 4 0.000000 0.000000 0.000000 0.103238 0.000000 0.000000
# 5 0.000000 0.000000 0.000000 0.000000 -0.035762 0.000000
# 6 0.000000 0.000000 0.000000 0.000000 0.000000 0.029222
#
#
# Mechanical properties :
#
#
# Convention : Reuss Voigt Hill
#
# Bulk Modulus (GPa) = 45.53442 48.77733 47.15588
# Shear Modulus (GPa) = 27.07872 13.60195 20.34034
#
# Velocity S-wave (km/s) = 4.02792 2.85474 3.49097
# Velocity P-wave (km/s) = 6.99385 6.33173 6.67101
#
# Compressibility (1/GPa) = 0.02196141
#
# Stress axis : x y z
#
# Youngs Moduli (GPa) = 39.66349 83.11088 71.17104
#
# Poissons Ratio (x) = 0.43332 0.52581
# Poissons Ratio (y) = 0.20680 0.14696
# Poissons Ratio (z) = 0.29303 0.17162
#
# Static dielectric constant tensor:
#      x y z
#    x 1.624050 0.000000 0.000000 
#    y 0.000000 1.670690 0.000000 
#    z 0.000000 0.000000 1.560600 
# 
# From -- ./inp_files/42900.got.cif
#   From: 2010.05.17/outbox.cif.g08.bks.cpg/sg52_22_cif.got.tgz:42900.got - 2010.06.03 12:15:38.
