data_PCOD9411539
_publ_section_title
;
Structure prediction by ZEFSAII (Michael W. Deem and Ramdas Pophale) SiO2 
 PCOD9411539
Probable space group: P N N A
;
_chemical_formula_sum "Si O2"
_cell_formula_units_Z 60
_cell_length_a 14.009451
_cell_length_b 9.204394
_cell_length_c 19.541867
_cell_angle_alpha 90.000000
_cell_angle_beta 90.000000
_cell_angle_gamma 90.000000
_cell_volume 2519.894568
_symmetry_space_group_name_H-M "P N N A"
_symmetry_group_IT_number 52
_symmetry_cell_setting 'orthorhombic'
loop_
_space_group_symop_operation_xyz
x,y,z
1/2-x,-y,z
x,1/2-y,1/2-z
1/2-x,1/2+y,1/2-z
-x,-y,-z
1/2+x,y,-z
-x,1/2+y,1/2+z
1/2+x,1/2-y,1/2+z
loop_
_atom_site_type_symbol
_atom_site_label
_atom_site_fract_x
_atom_site_fract_y
_atom_site_fract_z
Si Si1 0.347181 0.750000 0.250000
Si Si2 0.550012 0.669852 0.643468
Si Si3 0.632724 0.984029 0.667584
Si Si4 0.795224 0.847796 0.448776
Si Si5 0.051534 0.330785 0.050509
Si Si6 0.330628 0.587852 0.375681
Si Si7 0.126684 0.819852 0.988762
Si Si8 0.340752 0.929302 0.872213
O O1 0.403725 0.883833 0.283810
O O2 0.290765 0.689052 0.315298
O O3 0.615783 0.537192 0.665579
O O4 0.570798 0.660484 0.560460
O O5 0.443073 0.614399 0.657903
O O6 0.586285 0.823845 0.673168
O O7 0.594123 0.038901 0.594464
O O8 0.750000 0.000000 0.671066
O O9 0.902254 0.858302 0.476827
O O10 0.724486 0.768325 0.503368
O O11 0.798885 0.727378 0.391603
O O12 0.750000 0.000000 0.431105
O O13 0.099716 0.182877 0.079263
O O14 0.940802 0.294682 0.051531
O O15 0.250000 0.500000 0.416116
O O16 0.140161 0.962415 0.939344
O O17 0.250000 0.000000 0.833874
#
# Coordination Sequence:
#
# PCOD9411539 Si02
#       8
#     4   8   8   8   8   8   8   8
#     4  10  24  44  58  86 124 158 194 270 322 362
#     4  12  21  36  61  90 118 167 213 245 300 374
#     4  11  24  39  60  91 127 166 210 252 311 376
#     4  11  22  33  52  79 118 170 212 242 292 347
#     4  11  21  37  53  86 128 164 206 247 294 360
#     4  11  22  37  62  86 118 160 205 250 311 375
#     4  11  21  36  56  82 128 169 202 253 295 352
#     4  10  22  38  53  82 123 163 209 247 297 357
#
# _framework density 23.810518999999999
#
# number of rings (size 3 to 8) (size 9 to 14) (size 15 to 20)
#    0.000    1.067    2.667    6.000    1.867    2.667 
#    0.000    0.000    0.000    0.000    0.000    1.867 
#    0.000    0.000    0.000    0.000    0.000    0.000 
#
# Total GULP energy -334450.590662 kJ/mol
# GULP energy per Si atom -5574.176511 kJ/mol
# Density = 2.375633 g / cm^3
# Si number density = 23.810519 Si / 1000 Ang^3
#
#
#
# Elastic Constant Matrix: (Units=GPa)
#
#
# Indices 1 2 3 4 5 6 
#
# 1 119.5410 53.1157 -7.0528 0.0000 0.0000 0.0000
# 2 53.1157 187.7539 11.2761 0.0000 0.0000 0.0000
# 3 -7.0528 11.2761 11.7053 0.0000 0.0000 0.0000
# 4 0.0000 0.0000 0.0000 39.7850 0.0000 0.0000
# 5 0.0000 0.0000 0.0000 0.0000 -1.0810 0.0000
# 6 0.0000 0.0000 0.0000 0.0000 0.0000 33.3501
#
#
#
# Elastic Compliance Matrix: (Units=1/GPa)
#
#
# Indices 1 2 3 4 5 6 
#
# 1 0.010526 -0.003565 0.009777 0.000000 0.000000 0.000000
# 2 -0.003565 0.006861 -0.008757 0.000000 0.000000 0.000000
# 3 0.009777 -0.008757 0.099758 0.000000 0.000000 0.000000
# 4 0.000000 0.000000 0.000000 0.025135 0.000000 0.000000
# 5 0.000000 0.000000 0.000000 0.000000 -0.925036 0.000000
# 6 0.000000 0.000000 0.000000 0.000000 0.000000 0.029985
#
#
# Mechanical properties :
#
#
# Convention : Reuss Voigt Hill
#
# Bulk Modulus (GPa) = 8.92427 48.18649 28.55538
# Shear Modulus (GPa) = -7.03899 31.85489 12.40795
#
# Velocity S-wave (km/s) = -1.72124 3.66163 2.28526
# Velocity P-wave (km/s) = 0.44051 6.17723 4.35684
#
# Compressibility (1/GPa) = 0.11205397
#
# Stress axis : x y z
#
# Youngs Moduli (GPa) = 95.00102 145.75969 10.02425
#
# Poissons Ratio (x) = 0.51964 -0.09800
# Poissons Ratio (y) = 0.33868 0.08778
# Poissons Ratio (z) = -0.92880 1.27643
#
# Static dielectric constant tensor:
#      x y z
#    x 2.001160 0.000000 0.000000 
#    y 0.000000 1.986280 0.000000 
#    z 0.000000 0.000000 1.986540 
# 
# From -- ./inp_files/40630.got.cif
#   From: 2010.05.17/outbox.cif.g08.bks.cpg/sg52_21_cif.got.tgz:40630.got - 2010.06.03 12:15:38.
