data_PCOD9411049
_publ_section_title
;
Structure prediction by ZEFSAII (Michael W. Deem and Ramdas Pophale) SiO2 
 PCOD9411049
Probable space group: P N N A
;
_chemical_formula_sum "Si O2"
_cell_formula_units_Z 28
_cell_length_a 9.110227
_cell_length_b 12.577213
_cell_length_c 8.912201
_cell_angle_alpha 90.000000
_cell_angle_beta 90.000000
_cell_angle_gamma 90.000000
_cell_volume 1021.171269
_symmetry_space_group_name_H-M "P N N A"
_symmetry_group_IT_number 52
_symmetry_cell_setting 'orthorhombic'
loop_
_space_group_symop_operation_xyz
x,y,z
1/2-x,-y,z
x,1/2-y,1/2-z
1/2-x,1/2+y,1/2-z
-x,-y,-z
1/2+x,y,-z
-x,1/2+y,1/2+z
1/2+x,1/2-y,1/2+z
loop_
_atom_site_type_symbol
_atom_site_label
_atom_site_fract_x
_atom_site_fract_y
_atom_site_fract_z
Si Si1 0.447999 0.906827 0.191928
Si Si2 0.861897 0.363949 0.566855
Si Si3 0.750000 0.000000 0.453070
Si Si4 0.505126 0.143681 0.457706
O O1 0.601380 0.883052 0.108355
O O2 0.458945 0.867179 0.362827
O O3 0.358805 0.072523 0.450839
O O4 0.416928 0.030549 0.151850
O O5 0.692401 0.351273 0.611230
O O6 0.957452 0.258895 0.593970
O O7 0.859306 0.915370 0.377446
#
# Coordination Sequence:
#
# PCOD9411049 Si02
#       4
#     8   8   4   8
#     4  10  22  40  66 102 139 178 239 299 359 437
#     4  10  21  39  67  98 134 183 237 291 356 436
#     4  10  24  40  62  98 140 188 246 288 354 460
#     4  11  22  43  67  98 148 190 234 305 369 430
#
# _framework density 27.419492999999999
#
# number of rings (size 3 to 8) (size 9 to 14) (size 15 to 20)
#    0.000    1.714    0.000    4.286    0.000    4.571 
#    0.000   17.143    0.000    3.429    0.000    0.000 
#    0.000    0.000    0.000    0.000    0.000    0.000 
#
# Total GULP energy -156653.559297 kJ/mol
# GULP energy per Si atom -5594.769975 kJ/mol
# Density = 2.735709 g / cm^3
# Si number density = 27.419493 Si / 1000 Ang^3
#
#
#
# Elastic Constant Matrix: (Units=GPa)
#
#
# Indices 1 2 3 4 5 6 
#
# 1 178.8347 66.8367 78.0271 0.0000 0.0000 0.0000
# 2 66.8367 236.6760 18.3755 0.0000 0.0000 0.0000
# 3 78.0271 18.3755 163.1720 0.0000 0.0000 0.0000
# 4 0.0000 0.0000 0.0000 13.7496 0.0000 0.0000
# 5 0.0000 0.0000 0.0000 0.0000 33.5216 0.0000
# 6 0.0000 0.0000 0.0000 0.0000 0.0000 66.5204
#
#
#
# Elastic Compliance Matrix: (Units=1/GPa)
#
#
# Indices 1 2 3 4 5 6 
#
# 1 0.007864 -0.001946 -0.003541 0.000000 0.000000 0.000000
# 2 -0.001946 0.004744 0.000396 0.000000 0.000000 0.000000
# 3 -0.003541 0.000396 0.007777 0.000000 0.000000 0.000000
# 4 0.000000 0.000000 0.000000 0.072730 0.000000 0.000000
# 5 0.000000 0.000000 0.000000 0.000000 0.029832 0.000000
# 6 0.000000 0.000000 0.000000 0.000000 0.000000 0.015033
#
#
# Mechanical properties :
#
#
# Convention : Reuss Voigt Hill
#
# Bulk Modulus (GPa) = 98.00682 100.57348 99.29015
# Shear Modulus (GPa) = 32.98964 50.45453 41.72208
#
# Velocity S-wave (km/s) = 3.47240 4.29429 3.90503
# Velocity P-wave (km/s) = 7.20402 7.83244 7.52479
#
# Compressibility (1/GPa) = 0.01020337
#
# Stress axis : x y z
#
# Youngs Moduli (GPa) = 127.15948 210.79590 128.57860
#
# Poissons Ratio (x) = 0.41018 0.45535
# Poissons Ratio (y) = 0.24743 -0.05095
# Poissons Ratio (z) = 0.45032 -0.08353
#
# Static dielectric constant tensor:
#      x y z
#    x 2.089410 0.000000 0.000000 
#    y 0.000000 2.230690 0.000000 
#    z 0.000000 0.000000 2.233550 
# 
# From -- ./inp_files/7113.got.cif
#   From: 2010.05.17/outbox.cif.g08.bks.cpg/sg52_4_cif.got.tgz:7113.got - 2010.06.03 12:15:38.
