data_PCOD9411469
_publ_section_title
;
Structure prediction by ZEFSAII (Michael W. Deem and Ramdas Pophale) SiO2 
 PCOD9411469
Probable space group: P N N A
;
_chemical_formula_sum "Si O2"
_cell_formula_units_Z 40
_cell_length_a 5.380371
_cell_length_b 20.719688
_cell_length_c 15.087837
_cell_angle_alpha 90.000000
_cell_angle_beta 90.000000
_cell_angle_gamma 90.000000
_cell_volume 1681.986161
_symmetry_space_group_name_H-M "P N N A"
_symmetry_group_IT_number 52
_symmetry_cell_setting 'orthorhombic'
loop_
_space_group_symop_operation_xyz
x,y,z
1/2-x,-y,z
x,1/2-y,1/2-z
1/2-x,1/2+y,1/2-z
-x,-y,-z
1/2+x,y,-z
-x,1/2+y,1/2+z
1/2+x,1/2-y,1/2+z
loop_
_atom_site_type_symbol
_atom_site_label
_atom_site_fract_x
_atom_site_fract_y
_atom_site_fract_z
Si Si1 0.132584 0.863860 0.295756
Si Si2 0.223017 0.759379 0.445576
Si Si3 0.175380 0.384092 0.384526
Si Si4 0.175520 0.429223 0.657586
Si Si5 0.963590 0.072372 0.533249
O O1 0.166822 0.800799 0.356396
O O2 0.342887 0.872157 0.222517
O O3 0.127243 0.921210 0.367058
O O4 0.891068 0.876676 0.234200
O O5 0.492354 0.772177 0.488713
O O6 0.236241 0.683569 0.423602
O O7 0.407961 0.432649 0.391123
O O8 0.897885 0.406141 0.405726
O O9 0.250000 0.500000 0.692404
O O10 0.737905 0.101927 0.476562
O O11 0.000000 0.000000 0.500000
#
# Coordination Sequence:
#
# PCOD9411469 Si02
#       5
#     8   8   8   8   8
#     4  10  25  39  68  98 137 184 224 272 337 419
#     4  12  26  45  68  98 140 180 237 294 354 406
#     4  10  24  43  68  96 136 179 236 287 343 410
#     4  10  23  40  71 101 136 171 235 278 345 413
#     4  10  22  33  52  84 133 171 208 247 311 384
#
# _framework density 23.781407999999999
#
# number of rings (size 3 to 8) (size 9 to 14) (size 15 to 20)
#    1.200    0.400    0.000    3.600    8.400    1.600 
#    3.600    0.000    0.000   12.000    0.000    0.000 
#    0.000    0.000    0.000    0.000    0.000    0.000 
#
# Total GULP energy -222928.729861 kJ/mol
# GULP energy per Si atom -5573.218247 kJ/mol
# Density = 2.372728 g / cm^3
# Si number density = 23.781408 Si / 1000 Ang^3
#
#
#
# Elastic Constant Matrix: (Units=GPa)
#
#
# Indices 1 2 3 4 5 6 
#
# 1 182.7194 51.1583 16.9531 0.0000 0.0000 0.0000
# 2 51.1583 76.2359 -1.3292 0.0000 0.0000 0.0000
# 3 16.9531 -1.3292 79.4317 0.0000 0.0000 0.0000
# 4 0.0000 0.0000 0.0000 37.7358 0.0000 0.0000
# 5 0.0000 0.0000 0.0000 0.0000 -39.5001 0.0000
# 6 0.0000 0.0000 0.0000 0.0000 0.0000 34.6081
#
#
#
# Elastic Compliance Matrix: (Units=1/GPa)
#
#
# Indices 1 2 3 4 5 6 
#
# 1 0.006926 -0.004675 -0.001556 0.000000 0.000000 0.000000
# 2 -0.004675 0.016276 0.001270 0.000000 0.000000 0.000000
# 3 -0.001556 0.001270 0.012943 0.000000 0.000000 0.000000
# 4 0.000000 0.000000 0.000000 0.026500 0.000000 0.000000
# 5 0.000000 0.000000 0.000000 0.000000 -0.025316 0.000000
# 6 0.000000 0.000000 0.000000 0.000000 0.000000 0.028895
#
#
# Mechanical properties :
#
#
# Convention : Reuss Voigt Hill
#
# Bulk Modulus (GPa) = 38.13459 52.43906 45.28683
# Shear Modulus (GPa) = 58.90128 24.67575 41.78852
#
# Velocity S-wave (km/s) = 4.98212 3.22468 4.19644
# Velocity P-wave (km/s) = 7.01182 5.99692 6.52414
#
# Compressibility (1/GPa) = 0.02622291
#
# Stress axis : x y z
#
# Youngs Moduli (GPa) = 144.37921 61.43832 77.26253
#
# Poissons Ratio (x) = 0.28722 0.12026
# Poissons Ratio (y) = 0.67497 -0.09813
# Poissons Ratio (z) = 0.22472 -0.07804
#
# Static dielectric constant tensor:
#      x y z
#    x 1.852890 0.000000 0.000000 
#    y 0.000000 2.082400 0.000000 
#    z 0.000000 0.000000 1.945550 
# 
# From -- ./inp_files/23624.got.cif
#   From: 2010.05.17/outbox.cif.g08.bks.cpg/sg52_12_cif.got.tgz:23624.got - 2010.06.03 12:15:38.
