data_PCOD9411609
_publ_section_title
;
Structure prediction by ZEFSAII (Michael W. Deem and Ramdas Pophale) SiO2 
 PCOD9411609
Probable space group: P N N A
;
_chemical_formula_sum "Si O2"
_cell_formula_units_Z 60
_cell_length_a 30.625368
_cell_length_b 17.386764
_cell_length_c 5.113872
_cell_angle_alpha 90.000000
_cell_angle_beta 90.000000
_cell_angle_gamma 90.000000
_cell_volume 2723.014341
_symmetry_space_group_name_H-M "P N N A"
_symmetry_group_IT_number 52
_symmetry_cell_setting 'orthorhombic'
loop_
_space_group_symop_operation_xyz
x,y,z
1/2-x,-y,z
x,1/2-y,1/2-z
1/2-x,1/2+y,1/2-z
-x,-y,-z
1/2+x,y,-z
-x,1/2+y,1/2+z
1/2+x,1/2-y,1/2+z
loop_
_atom_site_type_symbol
_atom_site_label
_atom_site_fract_x
_atom_site_fract_y
_atom_site_fract_z
Si Si1 0.898971 0.750000 0.750000
Si Si2 0.549950 0.839308 0.828831
Si Si3 0.449917 0.836409 0.864542
Si Si4 0.164806 0.376551 0.142144
Si Si5 0.601858 0.882003 0.329832
Si Si6 0.759588 0.409234 0.749126
Si Si7 0.372379 0.947957 0.833531
Si Si8 0.697877 0.662299 0.248681
O O1 0.932021 0.684061 0.652226
O O2 0.863389 0.700408 0.912843
O O3 0.551297 0.750000 0.750000
O O4 0.499190 0.863196 0.832067
O O5 0.579180 0.882937 0.613424
O O6 0.568565 0.848027 0.118428
O O7 0.445583 0.750000 0.750000
O O8 0.415329 0.897795 0.764091
O O9 0.213338 0.364695 0.248289
O O10 0.141809 0.426332 0.372880
O O11 0.164827 0.422890 0.871433
O O12 0.646767 0.835162 0.323691
O O13 0.615428 0.965112 0.221506
O O14 0.750000 0.500000 0.715409
O O15 0.791334 0.376793 0.525473
O O16 0.780462 0.390216 0.027655
O O17 0.714778 0.750000 0.250000
#
# Coordination Sequence:
#
# PCOD9411609 Si02
#       8
#     4   8   8   8   8   8   8   8
#     4  10  22  38  66  90 136 164 218 272 326 394
#     4  11  25  40  68  92 129 168 228 273 327 399
#     4  10  22  40  63  96 130 174 216 275 335 390
#     4  11  23  40  66  98 129 173 221 262 332 399
#     4  12  25  45  66  97 130 178 220 276 331 393
#     4  12  25  45  70 101 138 180 225 282 341 404
#     4  11  23  42  67  95 138 172 216 270 336 397
#     4  12  26  44  69  96 140 178 230 282 334 395
#
# _framework density 22.034405
#
# number of rings (size 3 to 8) (size 9 to 14) (size 15 to 20)
#    0.000    0.800    1.333    6.000    5.600    1.067 
#    0.000    0.000    0.000    0.000    0.000    0.000 
#    0.000    0.000    0.000    0.000    0.000    0.000 
#
# Total GULP energy -335167.811018 kJ/mol
# GULP energy per Si atom -5586.130184 kJ/mol
# Density = 2.198425 g / cm^3
# Si number density = 22.034405 Si / 1000 Ang^3
#
#
#
# Elastic Constant Matrix: (Units=GPa)
#
#
# Indices 1 2 3 4 5 6 
#
# 1 99.1348 -7.6573 -3.1871 0.0000 0.0000 0.0000
# 2 -7.6573 58.6188 -4.9255 0.0000 0.0000 0.0000
# 3 -3.1871 -4.9255 67.7798 0.0000 0.0000 0.0000
# 4 0.0000 0.0000 0.0000 27.8220 0.0000 0.0000
# 5 0.0000 0.0000 0.0000 0.0000 25.9179 0.0000
# 6 0.0000 0.0000 0.0000 0.0000 0.0000 21.9047
#
#
#
# Elastic Compliance Matrix: (Units=1/GPa)
#
#
# Indices 1 2 3 4 5 6 
#
# 1 0.010213 0.001383 0.000581 0.000000 0.000000 0.000000
# 2 0.001383 0.017351 0.001326 0.000000 0.000000 0.000000
# 3 0.000581 0.001326 0.014877 0.000000 0.000000 0.000000
# 4 0.000000 0.000000 0.000000 0.035943 0.000000 0.000000
# 5 0.000000 0.000000 0.000000 0.000000 0.038583 0.000000
# 6 0.000000 0.000000 0.000000 0.000000 0.000000 0.045652
#
#
# Mechanical properties :
#
#
# Convention : Reuss Voigt Hill
#
# Bulk Modulus (GPa) = 20.39960 21.55484 20.97722
# Shear Modulus (GPa) = 29.00551 31.21582 30.11066
#
# Velocity S-wave (km/s) = 3.63212 3.76797 3.70067
# Velocity P-wave (km/s) = 5.18343 5.36039 5.27265
#
# Compressibility (1/GPa) = 0.04902057
#
# Stress axis : x y z
#
# Youngs Moduli (GPa) = 97.91673 57.63213 67.21645
#
# Poissons Ratio (x) = -0.07970 -0.03903
# Poissons Ratio (y) = -0.13541 -0.08913
# Poissons Ratio (z) = -0.05686 -0.07642
#
# Static dielectric constant tensor:
#      x y z
#    x 1.801490 0.000000 0.000000 
#    y 0.000000 1.826130 0.000000 
#    z 0.000000 0.000000 1.951420 
# 
# From -- ./inp_files/5961.got.cif
#   From: 2010.05.17/outbox.cif.g08.bks.cpg/sg52_3_cif.got.tgz:5961.got - 2010.06.03 12:15:38.
