data_PCOD9411181
_publ_section_title
;
Structure prediction by ZEFSAII (Michael W. Deem and Ramdas Pophale) SiO2 
 PCOD9411181
Probable space group: P N N A
;
_chemical_formula_sum "Si O2"
_cell_formula_units_Z 48
_cell_length_a 12.678891
_cell_length_b 11.258224
_cell_length_c 16.094424
_cell_angle_alpha 90.000000
_cell_angle_beta 90.000000
_cell_angle_gamma 90.000000
_cell_volume 2297.346970
_symmetry_space_group_name_H-M "P N N A"
_symmetry_group_IT_number 52
_symmetry_cell_setting 'orthorhombic'
loop_
_space_group_symop_operation_xyz
x,y,z
1/2-x,-y,z
x,1/2-y,1/2-z
1/2-x,1/2+y,1/2-z
-x,-y,-z
1/2+x,y,-z
-x,1/2+y,1/2+z
1/2+x,1/2-y,1/2+z
loop_
_atom_site_type_symbol
_atom_site_label
_atom_site_fract_x
_atom_site_fract_y
_atom_site_fract_z
Si Si1 0.637754 0.469389 0.790471
Si Si2 0.086838 0.195587 0.920745
Si Si3 0.617988 0.788687 0.654166
Si Si4 0.163969 0.241110 0.095654
Si Si5 0.497751 0.539372 0.362771
Si Si6 0.282968 0.368025 0.693483
O O1 0.750000 0.500000 0.746618
O O2 0.637965 0.571914 0.859123
O O3 0.636596 0.341134 0.834449
O O4 0.540632 0.498441 0.729816
O O5 0.191614 0.161361 0.871779
O O6 0.002209 0.268743 0.868870
O O7 0.023154 0.069844 0.923258
O O8 0.121246 0.264711 0.003335
O O9 0.635494 0.750000 0.750000
O O10 0.709946 0.725089 0.601469
O O11 0.099971 0.121922 0.114338
O O12 0.604685 0.612895 0.350624
O O13 0.250000 0.500000 0.729935
O O14 0.289755 0.250000 0.750000
#
# Coordination Sequence:
#
# PCOD9411181 Si02
#       6
#     8   8   8   8   8   8
#     4  10  21  40  68 100 126 173 232 280 337 410
#     4  11  25  40  64  95 134 174 219 279 348 408
#     4  11  22  43  70  93 131 179 232 276 336 423
#     4  11  24  39  63  99 134 166 220 286 347 399
#     4  11  22  42  66  92 130 172 222 277 337 416
#     4  10  23  42  64  92 129 173 227 275 338 422
#
# _framework density 20.893664999999999
#
# number of rings (size 3 to 8) (size 9 to 14) (size 15 to 20)
#    0.000    1.333    1.667    4.500    4.667    0.667 
#    3.000    2.500    0.000    0.000    0.000    0.000 
#    0.000    0.000    0.000    0.000    0.000    0.000 
#
# Total GULP energy -267390.642113 kJ/mol
# GULP energy per Si atom -5570.638377 kJ/mol
# Density = 2.084611 g / cm^3
# Si number density = 20.893665 Si / 1000 Ang^3
#
#
#
# Elastic Constant Matrix: (Units=GPa)
#
#
# Indices 1 2 3 4 5 6 
#
# 1 124.9273 -1.4636 16.2311 0.0000 0.0000 0.0000
# 2 -1.4636 45.8603 2.8084 0.0000 0.0000 0.0000
# 3 16.2311 2.8084 52.2577 0.0000 0.0000 0.0000
# 4 0.0000 0.0000 0.0000 0.5930 0.0000 0.0000
# 5 0.0000 0.0000 0.0000 0.0000 21.6869 0.0000
# 6 0.0000 0.0000 0.0000 0.0000 0.0000 33.1998
#
#
#
# Elastic Compliance Matrix: (Units=1/GPa)
#
#
# Indices 1 2 3 4 5 6 
#
# 1 0.008350 0.000427 -0.002616 0.000000 0.000000 0.000000
# 2 0.000427 0.021899 -0.001309 0.000000 0.000000 0.000000
# 3 -0.002616 -0.001309 0.020019 0.000000 0.000000 0.000000
# 4 0.000000 0.000000 0.000000 1.686286 0.000000 0.000000
# 5 0.000000 0.000000 0.000000 0.000000 0.046111 0.000000
# 6 0.000000 0.000000 0.000000 0.000000 0.000000 0.030121
#
#
# Mechanical properties :
#
#
# Convention : Reuss Voigt Hill
#
# Bulk Modulus (GPa) = 23.11091 28.68857 25.89974
# Shear Modulus (GPa) = 2.72597 24.79391 13.75994
#
# Velocity S-wave (km/s) = 1.14347 3.44855 2.56905
# Velocity P-wave (km/s) = 3.58170 5.44217 4.60683
#
# Compressibility (1/GPa) = 0.04326961
#
# Stress axis : x y z
#
# Youngs Moduli (GPa) = 119.76664 45.66386 49.95279
#
# Poissons Ratio (x) = -0.01948 0.13069
# Poissons Ratio (y) = -0.05110 0.06541
# Poissons Ratio (z) = 0.31334 0.05979
#
# Static dielectric constant tensor:
#      x y z
#    x 1.748100 0.000000 0.000000 
#    y 0.000000 1.839760 0.000000 
#    z 0.000000 0.000000 1.837760 
# 
# From -- ./inp_files/32221.got.cif
#   From: 2010.05.17/outbox.cif.g08.bks.cpg/sg52_17_cif.got.tgz:32221.got - 2010.06.03 12:15:38.
