data_PCOD9411259
_publ_section_title
;
Structure prediction by ZEFSAII (Michael W. Deem and Ramdas Pophale) SiO2 
 PCOD9411259
Probable space group: P N N A
;
_chemical_formula_sum "Si O2"
_cell_formula_units_Z 40
_cell_length_a 10.914744
_cell_length_b 7.547331
_cell_length_c 19.972389
_cell_angle_alpha 90.000000
_cell_angle_beta 90.000000
_cell_angle_gamma 90.000000
_cell_volume 1645.269198
_symmetry_space_group_name_H-M "P N N A"
_symmetry_group_IT_number 52
_symmetry_cell_setting 'orthorhombic'
loop_
_space_group_symop_operation_xyz
x,y,z
1/2-x,-y,z
x,1/2-y,1/2-z
1/2-x,1/2+y,1/2-z
-x,-y,-z
1/2+x,y,-z
-x,1/2+y,1/2+z
1/2+x,1/2-y,1/2+z
loop_
_atom_site_type_symbol
_atom_site_label
_atom_site_fract_x
_atom_site_fract_y
_atom_site_fract_z
Si Si1 0.191134 0.693170 0.604292
Si Si2 0.340245 0.250000 0.750000
Si Si3 0.250000 0.500000 0.150417
Si Si4 0.947287 0.464312 0.743059
Si Si5 0.079056 0.441021 0.405653
Si Si6 0.313655 0.262014 0.039151
O O1 0.250000 0.500000 0.592109
O O2 0.229164 0.753646 0.678624
O O3 0.211895 0.806813 0.537619
O O4 0.045668 0.663639 0.602927
O O5 0.426029 0.425994 0.748189
O O6 0.145414 0.445076 0.203843
O O7 0.337514 0.405042 0.095626
O O8 0.958156 0.250000 0.750000
O O9 0.894195 0.490647 0.668888
O O10 0.188206 0.322583 0.432901
O O11 0.080808 0.613737 0.453296
#
# Coordination Sequence:
#
# PCOD9411259 Si02
#       6
#     8   4   4   8   8   8
#     4  11  23  45  71  90 129 186 231 286 338 403
#     4  10  26  48  62  98 128 184 244 278 328 418
#     4  12  22  36  60 114 136 162 224 284 356 416
#     4  11  22  40  71  99 141 179 215 285 347 412
#     4  10  21  41  67  94 126 176 230 261 342 425
#     4  11  22  38  66 101 133 173 216 285 351 409
#
# _framework density 24.31213
#
# number of rings (size 3 to 8) (size 9 to 14) (size 15 to 20)
#    0.000    1.200    4.000    4.200    1.400    0.000 
#    9.000    4.000    0.000    0.000    0.000    0.000 
#    0.000    0.000    0.000    0.000    0.000    0.000 
#
# Total GULP energy -223173.239377 kJ/mol
# GULP energy per Si atom -5579.330984 kJ/mol
# Density = 2.425679 g / cm^3
# Si number density = 24.312130 Si / 1000 Ang^3
#
#
#
# Elastic Constant Matrix: (Units=GPa)
#
#
# Indices 1 2 3 4 5 6 
#
# 1 32.2361 11.9581 10.2150 0.0000 0.0000 0.0000
# 2 11.9581 79.0365 36.9261 0.0000 0.0000 0.0000
# 3 10.2150 36.9261 257.3388 0.0000 0.0000 0.0000
# 4 0.0000 0.0000 0.0000 30.6426 0.0000 0.0000
# 5 0.0000 0.0000 0.0000 0.0000 30.4438 0.0000
# 6 0.0000 0.0000 0.0000 0.0000 0.0000 10.4665
#
#
#
# Elastic Compliance Matrix: (Units=1/GPa)
#
#
# Indices 1 2 3 4 5 6 
#
# 1 0.032962 -0.004690 -0.000635 0.000000 0.000000 0.000000
# 2 -0.004690 0.014229 -0.001856 0.000000 0.000000 0.000000
# 3 -0.000635 -0.001856 0.004177 0.000000 0.000000 0.000000
# 4 0.000000 0.000000 0.000000 0.032634 0.000000 0.000000
# 5 0.000000 0.000000 0.000000 0.000000 0.032847 0.000000
# 6 0.000000 0.000000 0.000000 0.000000 0.000000 0.095543
#
#
# Mechanical properties :
#
#
# Convention : Reuss Voigt Hill
#
# Bulk Modulus (GPa) = 27.02253 54.09000 40.55626
# Shear Modulus (GPa) = 20.91247 34.94471 27.92859
#
# Velocity S-wave (km/s) = 2.93604 3.79534 3.39300
# Velocity P-wave (km/s) = 4.75739 6.44225 5.66283
#
# Compressibility (1/GPa) = 0.03700616
#
# Stress axis : x y z
#
# Youngs Moduli (GPa) = 30.33762 70.27929 239.38284
#
# Poissons Ratio (x) = 0.32963 0.15211
# Poissons Ratio (y) = 0.14229 0.44419
# Poissons Ratio (z) = 0.01928 0.13041
#
# Static dielectric constant tensor:
#      x y z
#    x 2.027270 0.000000 0.000000 
#    y 0.000000 2.711490 0.000000 
#    z 0.000000 0.000000 1.954600 
# 
# From -- ./inp_files/36689.got.cif
#   From: 2010.05.17/outbox.cif.g08.bks.cpg/sg52_19_cif.got.tgz:36689.got - 2010.06.03 12:15:38.
