data_PCOD9411867
_publ_section_title
;
Structure prediction by ZEFSAII (Michael W. Deem and Ramdas Pophale) SiO2 
 PCOD9411867
Probable space group: P N N A
;
_chemical_formula_sum "Si O2"
_cell_formula_units_Z 32
_cell_length_a 14.661359
_cell_length_b 16.801147
_cell_length_c 5.232565
_cell_angle_alpha 90.000000
_cell_angle_beta 90.000000
_cell_angle_gamma 90.000000
_cell_volume 1288.925428
_symmetry_space_group_name_H-M "P N N A"
_symmetry_group_IT_number 52
_symmetry_cell_setting 'orthorhombic'
loop_
_space_group_symop_operation_xyz
x,y,z
1/2-x,-y,z
x,1/2-y,1/2-z
1/2-x,1/2+y,1/2-z
-x,-y,-z
1/2+x,y,-z
-x,1/2+y,1/2+z
1/2+x,1/2-y,1/2+z
loop_
_atom_site_type_symbol
_atom_site_label
_atom_site_fract_x
_atom_site_fract_y
_atom_site_fract_z
Si Si1 0.612945 0.053925 0.431116
Si Si2 0.785246 0.162598 0.297129
Si Si3 0.350720 0.036312 0.066260
Si Si4 0.522163 0.698651 0.999393
O O1 0.710487 0.100693 0.402970
O O2 0.539807 0.121066 0.489512
O O3 0.597671 0.009909 0.162105
O O4 0.612861 0.990180 0.659608
O O5 0.743207 0.250000 0.250000
O O6 0.832655 0.124775 0.042851
O O7 0.870971 0.177545 0.480077
O O8 0.250000 0.000000 0.067936
O O9 0.503936 0.750000 0.750000
O O10 0.499513 0.750000 0.250000
#
# Coordination Sequence:
#
# PCOD9411867 Si02
#       4
#     8   8   8   8
#     4  11  23  43  67  92 133 174 215 273 330 388
#     4  10  24  44  70  98 134 176 221 280 339 393
#     4  10  22  41  66  97 128 169 222 267 325 402
#     4  11  25  42  65 101 134 173 229 271 324 404
#
# _framework density 24.826882999999999
#
# number of rings (size 3 to 8) (size 9 to 14) (size 15 to 20)
#    0.000    1.500    0.000    4.500    0.000   17.000 
#    0.000    0.000    0.000    4.500    0.000    0.000 
#    0.000    0.000    0.000    0.000    0.000    0.000 
#
# Total GULP energy -179324.693516 kJ/mol
# GULP energy per Si atom -5603.896672 kJ/mol
# Density = 2.477038 g / cm^3
# Si number density = 24.826883 Si / 1000 Ang^3
#
#
#
# Elastic Constant Matrix: (Units=GPa)
#
#
# Indices 1 2 3 4 5 6 
#
# 1 95.2529 33.3851 39.5536 0.0000 0.0000 0.0000
# 2 33.3851 175.3360 89.6355 0.0000 0.0000 0.0000
# 3 39.5536 89.6355 207.5997 0.0000 0.0000 0.0000
# 4 0.0000 0.0000 0.0000 38.9099 0.0000 0.0000
# 5 0.0000 0.0000 0.0000 0.0000 42.0949 0.0000
# 6 0.0000 0.0000 0.0000 0.0000 0.0000 53.5124
#
#
#
# Elastic Compliance Matrix: (Units=1/GPa)
#
#
# Indices 1 2 3 4 5 6 
#
# 1 0.011659 -0.001391 -0.001621 0.000000 0.000000 0.000000
# 2 -0.001391 0.007485 -0.002967 0.000000 0.000000 0.000000
# 3 -0.001621 -0.002967 0.006407 0.000000 0.000000 0.000000
# 4 0.000000 0.000000 0.000000 0.025700 0.000000 0.000000
# 5 0.000000 0.000000 0.000000 0.000000 0.023756 0.000000
# 6 0.000000 0.000000 0.000000 0.000000 0.000000 0.018687
#
#
# Mechanical properties :
#
#
# Convention : Reuss Voigt Hill
#
# Bulk Modulus (GPa) = 73.56647 89.25968 81.41308
# Shear Modulus (GPa) = 45.37928 47.94442 46.66185
#
# Velocity S-wave (km/s) = 4.27995 4.39925 4.34001
# Velocity P-wave (km/s) = 7.35663 7.86355 7.61431
#
# Compressibility (1/GPa) = 0.01359315
#
# Stress axis : x y z
#
# Youngs Moduli (GPa) = 85.77062 133.60250 156.08818
#
# Poissons Ratio (x) = 0.18590 0.25295
# Poissons Ratio (y) = 0.11935 0.46306
# Poissons Ratio (z) = 0.13900 0.39635
#
# Static dielectric constant tensor:
#      x y z
#    x 1.967160 0.000000 0.000000 
#    y 0.000000 2.115930 0.000000 
#    z 0.000000 0.000000 1.983130 
# 
# From -- ./inp_files/2086.got.cif
#   From: 2010.05.17/outbox.cif.g08.bks.cpg/sg52_2_cif.got.tgz:2086.got - 2010.06.03 12:15:38.
