data_PCOD9411899
_publ_section_title
;
Structure prediction by ZEFSAII (Michael W. Deem and Ramdas Pophale) SiO2 
 PCOD9411899
Probable space group: P N N A
;
_chemical_formula_sum "Si O2"
_cell_formula_units_Z 64
_cell_length_a 15.068469
_cell_length_b 16.000759
_cell_length_c 11.378211
_cell_angle_alpha 90.000000
_cell_angle_beta 90.000000
_cell_angle_gamma 90.000000
_cell_volume 2743.365648
_symmetry_space_group_name_H-M "P N N A"
_symmetry_group_IT_number 52
_symmetry_cell_setting 'orthorhombic'
loop_
_space_group_symop_operation_xyz
x,y,z
1/2-x,-y,z
x,1/2-y,1/2-z
1/2-x,1/2+y,1/2-z
-x,-y,-z
1/2+x,y,-z
-x,1/2+y,1/2+z
1/2+x,1/2-y,1/2+z
loop_
_atom_site_type_symbol
_atom_site_label
_atom_site_fract_x
_atom_site_fract_y
_atom_site_fract_z
Si Si1 0.013018 0.626240 0.542966
Si Si2 0.825811 0.572549 0.501673
Si Si3 0.448370 0.685038 0.100008
Si Si4 0.720589 0.154902 0.763197
Si Si5 0.119859 0.651213 0.766021
Si Si6 0.799190 0.579766 0.248284
Si Si7 0.914230 0.349984 0.720938
Si Si8 0.459842 0.564456 0.905331
O O1 0.930879 0.560618 0.533842
O O2 0.970242 0.715946 0.588858
O O3 0.087595 0.608666 0.643135
O O4 0.060439 0.639454 0.416901
O O5 0.750000 0.500000 0.518010
O O6 0.798232 0.636920 0.601911
O O7 0.832276 0.616117 0.372384
O O8 0.367387 0.651966 0.181910
O O9 0.538003 0.640711 0.146344
O O10 0.433058 0.649320 0.972241
O O11 0.745739 0.250000 0.750000
O O12 0.816460 0.114033 0.742721
O O13 0.122540 0.750000 0.750000
O O14 0.218918 0.630659 0.807388
O O15 0.750000 0.500000 0.297628
O O16 0.869626 0.541224 0.160028
O O17 0.926345 0.250000 0.750000
O O18 0.976588 0.407159 0.800983
O O19 0.500000 0.500000 0.000000
#
# Coordination Sequence:
#
# PCOD9411899 Si02
#       8
#     8   8   8   8   8   8   8   8
#     4  11  20  44  72 100 143 182 244 309 368 437
#     4  11  23  41  69 106 137 182 245 300 371 436
#     4  11  22  41  71 100 141 191 237 297 368 445
#     4  11  22  42  69 102 138 182 236 303 364 435
#     4  10  22  41  72 106 135 182 241 300 361 431
#     4  11  25  46  65  96 142 183 236 294 358 433
#     4  11  24  43  69 102 138 187 250 303 361 441
#     4  12  27  45  68 100 143 197 241 297 372 444
#
# _framework density 23.329007000000001
#
# number of rings (size 3 to 8) (size 9 to 14) (size 15 to 20)
#    0.000    1.000    5.000    1.875    0.000    4.500 
#    4.500    1.875    0.000    0.000    0.000    0.000 
#    0.000    0.000    0.000    0.000    0.000    0.000 
#
# Total GULP energy -356359.413126 kJ/mol
# GULP energy per Si atom -5568.115830 kJ/mol
# Density = 2.327591 g / cm^3
# Si number density = 23.329007 Si / 1000 Ang^3
#
#
#
# Elastic Constant Matrix: (Units=GPa)
#
#
# Indices 1 2 3 4 5 6 
#
# 1 155.2183 35.9899 46.2863 0.0000 0.0000 0.0000
# 2 35.9899 44.4141 20.1970 0.0000 0.0000 0.0000
# 3 46.2863 20.1970 100.1983 0.0000 0.0000 0.0000
# 4 0.0000 0.0000 0.0000 35.0755 0.0000 0.0000
# 5 0.0000 0.0000 0.0000 0.0000 -3.6352 0.0000
# 6 0.0000 0.0000 0.0000 0.0000 0.0000 34.9585
#
#
#
# Elastic Compliance Matrix: (Units=1/GPa)
#
#
# Indices 1 2 3 4 5 6 
#
# 1 0.008604 -0.005686 -0.002829 0.000000 0.000000 0.000000
# 2 -0.005686 0.028545 -0.003127 0.000000 0.000000 0.000000
# 3 -0.002829 -0.003127 0.011917 0.000000 0.000000 0.000000
# 4 0.000000 0.000000 0.000000 0.028510 0.000000 0.000000
# 5 0.000000 0.000000 0.000000 0.000000 -0.275088 0.000000
# 6 0.000000 0.000000 0.000000 0.000000 0.000000 0.028605
#
#
# Mechanical properties :
#
#
# Convention : Reuss Voigt Hill
#
# Bulk Modulus (GPa) = 38.78538 56.08634 47.43586
# Shear Modulus (GPa) = -36.48890 26.43694 -5.02598
#
# Velocity S-wave (km/s) = -3.95916 3.36999 -1.46938
# Velocity P-wave (km/s) = 2.05875 6.26387 4.18316
#
# Compressibility (1/GPa) = 0.02578291
#
# Stress axis : x y z
#
# Youngs Moduli (GPa) = 116.21872 35.03236 83.91211
#
# Poissons Ratio (x) = 0.19920 0.23736
# Poissons Ratio (y) = 0.66083 0.26241
# Poissons Ratio (z) = 0.32874 0.10955
#
# Static dielectric constant tensor:
#      x y z
#    x 2.051600 0.000000 0.000000 
#    y 0.000000 1.932840 0.000000 
#    z 0.000000 0.000000 1.816140 
# 
# From -- ./inp_files/19875.got.cif
#   From: 2010.05.17/outbox.cif.g08.bks.cpg/sg52_10_cif.got.tgz:19875.got - 2010.06.03 12:15:38.
