data_PCOD9411307
_publ_section_title
;
Structure prediction by ZEFSAII (Michael W. Deem and Ramdas Pophale) SiO2 
 PCOD9411307
Probable space group: P N N A
;
_chemical_formula_sum "Si O2"
_cell_formula_units_Z 32
_cell_length_a 9.444038
_cell_length_b 15.208497
_cell_length_c 11.929172
_cell_angle_alpha 90.000000
_cell_angle_beta 90.000000
_cell_angle_gamma 90.000000
_cell_volume 1713.382484
_symmetry_space_group_name_H-M "P N N A"
_symmetry_group_IT_number 52
_symmetry_cell_setting 'orthorhombic'
loop_
_space_group_symop_operation_xyz
x,y,z
1/2-x,-y,z
x,1/2-y,1/2-z
1/2-x,1/2+y,1/2-z
-x,-y,-z
1/2+x,y,-z
-x,1/2+y,1/2+z
1/2+x,1/2-y,1/2+z
loop_
_atom_site_type_symbol
_atom_site_label
_atom_site_fract_x
_atom_site_fract_y
_atom_site_fract_z
Si Si1 0.250000 0.000000 0.222187
Si Si2 0.423372 0.929486 0.421588
Si Si3 0.619530 0.250000 0.250000
Si Si4 0.155648 0.686069 0.348861
Si Si5 0.306887 0.318181 0.950764
O O1 0.378650 0.973645 0.305272
O O2 0.215259 0.911630 0.155139
O O3 0.281784 0.890705 0.478824
O O4 0.539464 0.852518 0.414189
O O5 0.500000 0.000000 0.500000
O O6 0.509872 0.314813 0.313319
O O7 0.714191 0.295823 0.157081
O O8 0.219111 0.750000 0.250000
O O9 0.175163 0.736072 0.465396
#
# Coordination Sequence:
#
# PCOD9411307 Si02
#       5
#     4   8   4   8   8
#     4  12  22  38  70  96 130 180 224 276 344 396
#     4  12  20  37  64  98 121 166 228 275 317 392
#     4  10  22  42  64  92 134 176 218 278 328 402
#     4  10  21  42  63  93 138 169 216 290 335 387
#     4  12  22  39  68  90 134 173 215 274 343 386
#
# _framework density 18.676508999999999
#
# number of rings (size 3 to 8) (size 9 to 14) (size 15 to 20)
#    0.750    0.000    7.500    1.500    0.000    2.000 
#    0.000    1.250    5.500    0.000    0.000    0.000 
#    0.000    0.000    0.000    0.000    0.000    0.000 
#
# Total GULP energy -178550.538731 kJ/mol
# GULP energy per Si atom -5579.704335 kJ/mol
# Density = 1.863400 g / cm^3
# Si number density = 18.676509 Si / 1000 Ang^3
#
#
#
# Elastic Constant Matrix: (Units=GPa)
#
#
# Indices 1 2 3 4 5 6 
#
# 1 89.3076 35.0847 20.5659 0.0000 0.0000 0.0000
# 2 35.0847 123.7617 34.6674 0.0000 0.0000 0.0000
# 3 20.5659 34.6674 57.4035 0.0000 0.0000 0.0000
# 4 0.0000 0.0000 0.0000 29.6332 0.0000 0.0000
# 5 0.0000 0.0000 0.0000 0.0000 -69.4387 0.0000
# 6 0.0000 0.0000 0.0000 0.0000 0.0000 29.5752
#
#
#
# Elastic Compliance Matrix: (Units=1/GPa)
#
#
# Indices 1 2 3 4 5 6 
#
# 1 0.012996 -0.002865 -0.002926 0.000000 0.000000 0.000000
# 2 -0.002865 0.010357 -0.005228 0.000000 0.000000 0.000000
# 3 -0.002926 -0.005228 0.021626 0.000000 0.000000 0.000000
# 4 0.000000 0.000000 0.000000 0.033746 0.000000 0.000000
# 5 0.000000 0.000000 0.000000 0.000000 -0.014401 0.000000
# 6 0.000000 0.000000 0.000000 0.000000 0.000000 0.033812
#
#
# Mechanical properties :
#
#
# Convention : Reuss Voigt Hill
#
# Bulk Modulus (GPa) = 43.58972 50.12322 46.85647
# Shear Modulus (GPa) = 39.11691 9.96425 24.54058
#
# Velocity S-wave (km/s) = 4.58148 2.31231 3.62882
# Velocity P-wave (km/s) = 7.16774 5.83308 6.53458
#
# Compressibility (1/GPa) = 0.02294119
#
# Stress axis : x y z
#
# Youngs Moduli (GPa) = 76.94388 96.55624 46.23974
#
# Poissons Ratio (x) = 0.27660 0.13531
# Poissons Ratio (y) = 0.22042 0.24176
# Poissons Ratio (z) = 0.22515 0.50483
#
# Static dielectric constant tensor:
#      x y z
#    x 1.675350 0.000000 0.000000 
#    y 0.000000 1.671050 0.000000 
#    z 0.000000 0.000000 1.634540 
# 
# From -- ./inp_files/16447.got.cif
#   From: 2010.05.17/outbox.cif.g08.bks.cpg/sg52_9_cif.got.tgz:16447.got - 2010.06.03 12:15:38.
