data_PCOD9411368
_publ_section_title
;
Structure prediction by ZEFSAII (Michael W. Deem and Ramdas Pophale) SiO2 
 PCOD9411368
Probable space group: P N N A
;
_chemical_formula_sum "Si O2"
_cell_formula_units_Z 48
_cell_length_a 9.586240
_cell_length_b 7.763313
_cell_length_c 27.476021
_cell_angle_alpha 90.000000
_cell_angle_beta 90.000000
_cell_angle_gamma 90.000000
_cell_volume 2044.792454
_symmetry_space_group_name_H-M "P N N A"
_symmetry_group_IT_number 52
_symmetry_cell_setting 'orthorhombic'
loop_
_space_group_symop_operation_xyz
x,y,z
1/2-x,-y,z
x,1/2-y,1/2-z
1/2-x,1/2+y,1/2-z
-x,-y,-z
1/2+x,y,-z
-x,1/2+y,1/2+z
1/2+x,1/2-y,1/2+z
loop_
_atom_site_type_symbol
_atom_site_label
_atom_site_fract_x
_atom_site_fract_y
_atom_site_fract_z
Si Si1 0.911735 0.546712 0.736251
Si Si2 0.253127 0.820297 0.048866
Si Si3 0.896206 0.084031 0.151241
Si Si4 0.750000 0.500000 0.095148
Si Si5 0.533414 0.976142 0.332952
Si Si6 0.076102 0.700387 0.545467
Si Si7 0.250000 0.500000 0.111943
O O1 0.750000 0.500000 0.738056
O O2 0.919826 0.750000 0.750000
O O3 0.979443 0.510184 0.684050
O O4 0.004034 0.459122 0.778888
O O5 0.412645 0.771206 0.035653
O O6 0.201158 0.659064 0.079325
O O7 0.250000 0.000000 0.077808
O O8 0.154043 0.856765 0.002977
O O9 0.896762 0.286957 0.165391
O O10 0.916501 0.077324 0.092857
O O11 0.750000 0.000000 0.164086
O O12 0.632041 0.417296 0.130692
O O13 0.838117 0.369028 0.062400
O O14 0.381217 0.946842 0.355951
#
# Coordination Sequence:
#
# PCOD9411368 Si02
#       7
#     8   8   8   4   8   8   4
#     4  10  22  44  69 104 144 184 242 303 372 455
#     4  12  27  46  73 107 151 197 256 311 380 442
#     4  10  22  45  65  96 143 185 243 303 365 437
#     4  10  21  42  70 102 146 188 248 303 370 444
#     4  10  22  44  70 105 146 192 243 306 374 460
#     4  11  25  47  68 109 142 198 256 312 370 456
#     4  12  23  48  78 108 152 200 248 311 384 454
#
# _framework density 23.474264999999999
#
# number of rings (size 3 to 8) (size 9 to 14) (size 15 to 20)
#    0.000    1.333    4.167    1.500    3.500    2.000 
#    9.000    0.000    0.000    0.000    0.000    0.000 
#    0.000    0.000    0.000    0.000    0.000    0.000 
#
# Total GULP energy -268315.062239 kJ/mol
# GULP energy per Si atom -5589.897130 kJ/mol
# Density = 2.342084 g / cm^3
# Si number density = 23.474265 Si / 1000 Ang^3
#
#
#
# Elastic Constant Matrix: (Units=GPa)
#
#
# Indices 1 2 3 4 5 6 
#
# 1 121.1524 13.2625 12.8667 0.0000 0.0000 0.0000
# 2 13.2625 70.0919 18.3193 0.0000 0.0000 0.0000
# 3 12.8667 18.3193 97.5719 0.0000 0.0000 0.0000
# 4 0.0000 0.0000 0.0000 68.3640 0.0000 0.0000
# 5 0.0000 0.0000 0.0000 0.0000 31.9028 0.0000
# 6 0.0000 0.0000 0.0000 0.0000 0.0000 36.6265
#
#
#
# Elastic Compliance Matrix: (Units=1/GPa)
#
#
# Indices 1 2 3 4 5 6 
#
# 1 0.008497 -0.001383 -0.000861 0.000000 0.000000 0.000000
# 2 -0.001383 0.015228 -0.002677 0.000000 0.000000 0.000000
# 3 -0.000861 -0.002677 0.010865 0.000000 0.000000 0.000000
# 4 0.000000 0.000000 0.000000 0.014628 0.000000 0.000000
# 5 0.000000 0.000000 0.000000 0.000000 0.031345 0.000000
# 6 0.000000 0.000000 0.000000 0.000000 0.000000 0.027303
#
#
# Mechanical properties :
#
#
# Convention : Reuss Voigt Hill
#
# Bulk Modulus (GPa) = 40.40524 41.96812 41.18668
# Shear Modulus (GPa) = 39.69640 43.66984 41.68312
#
# Velocity S-wave (km/s) = 4.11671 4.31783 4.21847
# Velocity P-wave (km/s) = 6.31240 6.54029 6.42735
#
# Compressibility (1/GPa) = 0.02474927
#
# Stress axis : x y z
#
# Youngs Moduli (GPa) = 117.69053 65.66750 92.03914
#
# Poissons Ratio (x) = 0.09080 0.07923
# Poissons Ratio (y) = 0.16274 0.24637
# Poissons Ratio (z) = 0.10132 0.17578
#
# Static dielectric constant tensor:
#      x y z
#    x 1.829830 0.000000 0.000000 
#    y 0.000000 2.378760 0.000000 
#    z 0.000000 0.000000 1.932440 
# 
# From -- ./inp_files/44422.got.cif
#   From: 2010.05.17/outbox.cif.g08.bks.cpg/sg52_23_cif.got.tgz:44422.got - 2010.06.03 12:15:38.
