data_PCOD9411032
_publ_section_title
;
Structure prediction by ZEFSAII (Michael W. Deem and Ramdas Pophale) SiO2 
 PCOD9411032
Probable space group: P N N A
;
_chemical_formula_sum "Si O2"
_cell_formula_units_Z 40
_cell_length_a 13.848770
_cell_length_b 11.154436
_cell_length_c 12.589902
_cell_angle_alpha 90.000000
_cell_angle_beta 90.000000
_cell_angle_gamma 90.000000
_cell_volume 1944.827864
_symmetry_space_group_name_H-M "P N N A"
_symmetry_group_IT_number 52
_symmetry_cell_setting 'orthorhombic'
loop_
_space_group_symop_operation_xyz
x,y,z
1/2-x,-y,z
x,1/2-y,1/2-z
1/2-x,1/2+y,1/2-z
-x,-y,-z
1/2+x,y,-z
-x,1/2+y,1/2+z
1/2+x,1/2-y,1/2+z
loop_
_atom_site_type_symbol
_atom_site_label
_atom_site_fract_x
_atom_site_fract_y
_atom_site_fract_z
Si Si1 0.187346 0.885810 0.770914
Si Si2 0.188701 0.875164 0.207533
Si Si3 0.420159 0.103176 0.985460
Si Si4 0.974462 0.149499 0.398184
Si Si5 0.136814 0.519865 0.087699
O O1 0.230213 0.750000 0.750000
O O2 0.160571 0.913345 0.893375
O O3 0.086498 0.876201 0.707316
O O4 0.250000 0.000000 0.732315
O O5 0.236942 0.750000 0.250000
O O6 0.250000 0.000000 0.200737
O O7 0.118938 0.901600 0.307246
O O8 0.133657 0.866216 0.095883
O O9 0.476122 0.216330 0.938343
O O10 0.500000 0.000000 0.000000
O O11 0.082103 0.102891 0.391307
O O12 0.913069 0.079620 0.487451
O O13 0.250000 0.500000 0.070825
#
# Coordination Sequence:
#
# PCOD9411032 Si02
#       5
#     8   8   8   8   8
#     4  10  22  43  65  96 131 174 219 271 326 394
#     4  11  23  41  64  93 130 167 218 269 321 396
#     4  11  23  41  62  92 134 169 215 269 335 389
#     4  10  21  41  64  92 133 165 216 270 317 389
#     4  10  21  39  66  94 124 169 218 262 321 385
#
# _framework density 20.567373
#
# number of rings (size 3 to 8) (size 9 to 14) (size 15 to 20)
#    0.000    1.600    2.000    2.400    0.000    3.200 
#   14.400    1.000    0.000    0.000    0.000    0.000 
#    0.000    0.000    0.000    0.000    0.000    0.000 
#
# Total GULP energy -222825.531836 kJ/mol
# GULP energy per Si atom -5570.638296 kJ/mol
# Density = 2.052056 g / cm^3
# Si number density = 20.567373 Si / 1000 Ang^3
#
#
#
# Elastic Constant Matrix: (Units=GPa)
#
#
# Indices 1 2 3 4 5 6 
#
# 1 96.5350 72.9230 31.9865 0.0000 0.0000 0.0000
# 2 72.9230 170.0934 27.2070 0.0000 0.0000 0.0000
# 3 31.9865 27.2070 147.2130 0.0000 0.0000 0.0000
# 4 0.0000 0.0000 0.0000 25.9815 0.0000 0.0000
# 5 0.0000 0.0000 0.0000 0.0000 14.4204 0.0000
# 6 0.0000 0.0000 0.0000 0.0000 0.0000 42.4328
#
#
#
# Elastic Compliance Matrix: (Units=1/GPa)
#
#
# Indices 1 2 3 4 5 6 
#
# 1 0.016031 -0.006508 -0.002280 0.000000 0.000000 0.000000
# 2 -0.006508 0.008700 -0.000194 0.000000 0.000000 0.000000
# 3 -0.002280 -0.000194 0.007324 0.000000 0.000000 0.000000
# 4 0.000000 0.000000 0.000000 0.038489 0.000000 0.000000
# 5 0.000000 0.000000 0.000000 0.000000 0.069346 0.000000
# 6 0.000000 0.000000 0.000000 0.000000 0.000000 0.023567
#
#
# Mechanical properties :
#
#
# Convention : Reuss Voigt Hill
#
# Bulk Modulus (GPa) = 70.96901 75.34162 73.15532
# Shear Modulus (GPa) = 26.86467 35.34860 31.10663
#
# Velocity S-wave (km/s) = 3.61803 4.15019 3.89321
# Velocity P-wave (km/s) = 7.21346 7.72506 7.47364
#
# Compressibility (1/GPa) = 0.01409066
#
# Stress axis : x y z
#
# Youngs Moduli (GPa) = 62.38033 114.93911 136.53378
#
# Poissons Ratio (x) = 0.74802 0.31135
# Poissons Ratio (y) = 0.40597 0.02647
# Poissons Ratio (z) = 0.14225 0.02228
#
# Static dielectric constant tensor:
#      x y z
#    x 1.628510 0.000000 0.000000 
#    y 0.000000 1.946670 0.000000 
#    z 0.000000 0.000000 1.809530 
# 
# From -- ./inp_files/19247.got.cif
#   From: 2010.05.17/outbox.cif.g08.bks.cpg/sg52_10_cif.got.tgz:19247.got - 2010.06.03 12:15:38.
