data_PCOD9411121
_publ_section_title
;
Structure prediction by ZEFSAII (Michael W. Deem and Ramdas Pophale) SiO2 
 PCOD9411121
Probable space group: P N N A
;
_chemical_formula_sum "Si O2"
_cell_formula_units_Z 48
_cell_length_a 15.859355
_cell_length_b 14.190071
_cell_length_c 8.889244
_cell_angle_alpha 90.000000
_cell_angle_beta 90.000000
_cell_angle_gamma 90.000000
_cell_volume 2000.483236
_symmetry_space_group_name_H-M "P N N A"
_symmetry_group_IT_number 52
_symmetry_cell_setting 'orthorhombic'
loop_
_space_group_symop_operation_xyz
x,y,z
1/2-x,-y,z
x,1/2-y,1/2-z
1/2-x,1/2+y,1/2-z
-x,-y,-z
1/2+x,y,-z
-x,1/2+y,1/2+z
1/2+x,1/2-y,1/2+z
loop_
_atom_site_type_symbol
_atom_site_label
_atom_site_fract_x
_atom_site_fract_y
_atom_site_fract_z
Si Si1 0.151480 0.502546 0.507775
Si Si2 0.451840 0.111586 0.471990
Si Si3 0.097625 0.789072 0.908788
Si Si4 0.826400 0.561049 0.922721
Si Si5 0.123216 0.139974 0.714974
Si Si6 0.551035 0.116959 0.781528
O O1 0.250000 0.500000 0.465007
O O2 0.133760 0.609932 0.552612
O O3 0.136612 0.428999 0.644302
O O4 0.083494 0.469844 0.382488
O O5 0.633201 0.250000 0.250000
O O6 0.396019 0.206297 0.470380
O O7 0.398031 0.019557 0.440890
O O8 0.530773 0.124722 0.360837
O O9 0.131567 0.750000 0.750000
O O10 0.996265 0.808978 0.887657
O O11 0.750000 0.500000 0.866620
O O12 0.863653 0.638543 0.809877
O O13 0.812371 0.607165 0.084344
O O14 0.016944 0.896459 0.646843
#
# Coordination Sequence:
#
# PCOD9411121 Si02
#       6
#     8   8   8   8   8   8
#     4  12  25  40  63  96 130 162 200 259 320 367
#     4  10  22  41  65  90 121 167 214 254 303 366
#     4  10  21  40  64  90 123 165 210 258 305 364
#     4  11  23  42  66  93 127 164 202 258 319 370
#     4  11  23  40  64  93 124 164 213 255 300 370
#     4  10  21  41  63  86 120 164 211 250 298 367
#
# _framework density 23.994199999999999
#
# number of rings (size 3 to 8) (size 9 to 14) (size 15 to 20)
#    0.000    1.333    0.000    7.500    0.000    6.000 
#    0.000    0.000    0.000    4.000    0.000    0.000 
#    0.000    0.000    0.000    0.000    0.000    0.000 
#
# Total GULP energy -268178.567679 kJ/mol
# GULP energy per Si atom -5587.053493 kJ/mol
# Density = 2.393959 g / cm^3
# Si number density = 23.994200 Si / 1000 Ang^3
#
#
#
# Elastic Constant Matrix: (Units=GPa)
#
#
# Indices 1 2 3 4 5 6 
#
# 1 61.4054 29.1775 13.7303 0.0000 0.0000 0.0000
# 2 29.1775 187.2250 46.6880 0.0000 0.0000 0.0000
# 3 13.7303 46.6880 101.3513 0.0000 0.0000 0.0000
# 4 0.0000 0.0000 0.0000 37.5956 0.0000 0.0000
# 5 0.0000 0.0000 0.0000 0.0000 6.9706 0.0000
# 6 0.0000 0.0000 0.0000 0.0000 0.0000 17.7426
#
#
#
# Elastic Compliance Matrix: (Units=1/GPa)
#
#
# Indices 1 2 3 4 5 6 
#
# 1 0.017732 -0.002445 -0.001276 0.000000 0.000000 0.000000
# 2 -0.002445 0.006372 -0.002604 0.000000 0.000000 0.000000
# 3 -0.001276 -0.002604 0.011239 0.000000 0.000000 0.000000
# 4 0.000000 0.000000 0.000000 0.026599 0.000000 0.000000
# 5 0.000000 0.000000 0.000000 0.000000 0.143459 0.000000
# 6 0.000000 0.000000 0.000000 0.000000 0.000000 0.056361
#
#
# Mechanical properties :
#
#
# Convention : Reuss Voigt Hill
#
# Bulk Modulus (GPa) = 44.06631 58.79703 51.43167
# Shear Modulus (GPa) = 17.73197 29.82084 23.77641
#
# Velocity S-wave (km/s) = 2.72142 3.52921 3.15131
# Velocity P-wave (km/s) = 5.31791 6.41600 5.89259
#
# Compressibility (1/GPa) = 0.02269307
#
# Stress axis : x y z
#
# Youngs Moduli (GPa) = 56.39390 156.94752 88.97611
#
# Poissons Ratio (x) = 0.38379 0.11352
# Poissons Ratio (y) = 0.13790 0.23168
# Poissons Ratio (z) = 0.07195 0.40866
#
# Static dielectric constant tensor:
#      x y z
#    x 1.982330 0.000000 0.000000 
#    y 0.000000 1.971630 0.000000 
#    z 0.000000 0.000000 1.972690 
# 
# From -- ./inp_files/12051.got.cif
#   From: 2010.05.17/outbox.cif.g08.bks.cpg/sg52_7_cif.got.tgz:12051.got - 2010.06.03 12:15:38.
