data_PCOD9411409
_publ_section_title
;
Structure prediction by ZEFSAII (Michael W. Deem and Ramdas Pophale) SiO2 
 PCOD9411409
Probable space group: P N N A
;
_chemical_formula_sum "Si O2"
_cell_formula_units_Z 60
_cell_length_a 28.273975
_cell_length_b 8.954029
_cell_length_c 12.120390
_cell_angle_alpha 90.000000
_cell_angle_beta 90.000000
_cell_angle_gamma 90.000000
_cell_volume 3068.470559
_symmetry_space_group_name_H-M "P N N A"
_symmetry_group_IT_number 52
_symmetry_cell_setting 'orthorhombic'
loop_
_space_group_symop_operation_xyz
x,y,z
1/2-x,-y,z
x,1/2-y,1/2-z
1/2-x,1/2+y,1/2-z
-x,-y,-z
1/2+x,y,-z
-x,1/2+y,1/2+z
1/2+x,1/2-y,1/2+z
loop_
_atom_site_type_symbol
_atom_site_label
_atom_site_fract_x
_atom_site_fract_y
_atom_site_fract_z
Si Si1 0.329801 0.750000 0.750000
Si Si2 0.113378 0.662212 0.602697
Si Si3 0.198013 0.439509 0.547622
Si Si4 0.431456 0.090720 0.245678
Si Si5 0.631174 0.328294 0.638610
Si Si6 0.445380 0.604027 0.036454
Si Si7 0.896908 0.018189 0.324097
Si Si8 0.021226 0.843248 0.036400
O O1 0.301176 0.674689 0.650664
O O2 0.362952 0.620964 0.801290
O O3 0.159850 0.567268 0.578903
O O4 0.127710 0.830962 0.631691
O O5 0.086457 0.578063 0.704409
O O6 0.074779 0.669672 0.507068
O O7 0.250000 0.500000 0.527394
O O8 0.174187 0.368152 0.440199
O O9 0.404384 0.250000 0.250000
O O10 0.475330 0.138267 0.167994
O O11 0.400476 0.967340 0.181261
O O12 0.446292 0.015594 0.362438
O O13 0.647999 0.250000 0.750000
O O14 0.596438 0.217593 0.571770
O O15 0.433083 0.529733 0.919058
O O16 0.490621 0.709340 0.015370
O O17 0.000000 0.000000 0.000000
#
# Coordination Sequence:
#
# PCOD9411409 Si02
#       8
#     4   8   8   8   8   8   8   8
#     4  10  22  40  66  98 128 172 210 266 334 392
#     4  10  23  41  61  96 134 169 209 283 327 385
#     4  11  22  42  73  98 130 171 218 271 340 401
#     4  11  24  40  63  92 129 174 218 274 331 384
#     4  10  21  44  67  91 127 169 222 271 326 387
#     4  11  23  42  67  92 127 181 226 271 323 404
#     4  10  22  41  65  89 131 173 216 264 332 388
#     4  12  24  40  63  92 132 169 226 272 329 384
#
# _framework density 19.553715
#
# number of rings (size 3 to 8) (size 9 to 14) (size 15 to 20)
#    0.000    1.333    4.000    0.800    1.867    7.467 
#    0.000    0.667    0.000    0.000    0.000    0.000 
#    0.000    0.000    0.000    0.000    0.000    0.000 
#
# Total GULP energy -334843.950263 kJ/mol
# GULP energy per Si atom -5580.732504 kJ/mol
# Density = 1.950921 g / cm^3
# Si number density = 19.553715 Si / 1000 Ang^3
#
#
#
# Elastic Constant Matrix: (Units=GPa)
#
#
# Indices 1 2 3 4 5 6 
#
# 1 98.4659 55.1802 67.2231 0.0000 0.0000 0.0000
# 2 55.1802 139.8181 66.7387 0.0000 0.0000 0.0000
# 3 67.2231 66.7387 148.1483 0.0000 0.0000 0.0000
# 4 0.0000 0.0000 0.0000 37.3617 0.0000 0.0000
# 5 0.0000 0.0000 0.0000 0.0000 19.2228 0.0000
# 6 0.0000 0.0000 0.0000 0.0000 0.0000 23.7238
#
#
#
# Elastic Compliance Matrix: (Units=1/GPa)
#
#
# Indices 1 2 3 4 5 6 
#
# 1 0.016047 -0.003640 -0.005642 0.000000 0.000000 0.000000
# 2 -0.003640 0.009937 -0.002825 0.000000 0.000000 0.000000
# 3 -0.005642 -0.002825 0.010582 0.000000 0.000000 0.000000
# 4 0.000000 0.000000 0.000000 0.026765 0.000000 0.000000
# 5 0.000000 0.000000 0.000000 0.000000 0.052022 0.000000
# 6 0.000000 0.000000 0.000000 0.000000 0.000000 0.042152
#
#
# Mechanical properties :
#
#
# Convention : Reuss Voigt Hill
#
# Bulk Modulus (GPa) = 80.94846 84.96849 82.95847
# Shear Modulus (GPa) = 26.90528 29.21433 28.05980
#
# Velocity S-wave (km/s) = 3.71343 3.86949 3.79226
# Velocity P-wave (km/s) = 7.73782 7.96945 7.85449
#
# Compressibility (1/GPa) = 0.01235354
#
# Stress axis : x y z
#
# Youngs Moduli (GPa) = 62.31524 100.63256 94.49612
#
# Poissons Ratio (x) = 0.36633 0.53312
# Poissons Ratio (y) = 0.22685 0.26693
# Poissons Ratio (z) = 0.35156 0.28426
#
# Static dielectric constant tensor:
#      x y z
#    x 1.631770 0.000000 0.000000 
#    y 0.000000 1.745300 0.000000 
#    z 0.000000 0.000000 1.756950 
# 
# From -- ./inp_files/22885.got.cif
#   From: 2010.05.17/outbox.cif.g08.bks.cpg/sg52_12_cif.got.tgz:22885.got - 2010.06.03 12:15:38.
