data_PCOD9411220
_publ_section_title
;
Structure prediction by ZEFSAII (Michael W. Deem and Ramdas Pophale) SiO2 
 PCOD9411220
Probable space group: P N N A
;
_chemical_formula_sum "Si O2"
_cell_formula_units_Z 44
_cell_length_a 24.236810
_cell_length_b 12.181584
_cell_length_c 6.942139
_cell_angle_alpha 90.000000
_cell_angle_beta 90.000000
_cell_angle_gamma 90.000000
_cell_volume 2049.616118
_symmetry_space_group_name_H-M "P N N A"
_symmetry_group_IT_number 52
_symmetry_cell_setting 'orthorhombic'
loop_
_space_group_symop_operation_xyz
x,y,z
1/2-x,-y,z
x,1/2-y,1/2-z
1/2-x,1/2+y,1/2-z
-x,-y,-z
1/2+x,y,-z
-x,1/2+y,1/2+z
1/2+x,1/2-y,1/2+z
loop_
_atom_site_type_symbol
_atom_site_label
_atom_site_fract_x
_atom_site_fract_y
_atom_site_fract_z
Si Si1 0.464743 0.125214 0.239555
Si Si2 0.333987 0.929007 0.222858
Si Si3 0.576679 0.433125 0.450967
Si Si4 0.181382 0.750000 0.750000
Si Si5 0.282991 0.154727 0.123807
Si Si6 0.388807 0.447287 0.931556
O O1 0.443356 0.250000 0.250000
O O2 0.445442 0.080643 0.450704
O O3 0.526053 0.132826 0.145282
O O4 0.441205 0.033042 0.093293
O O5 0.318818 0.045450 0.124767
O O6 0.355657 0.970000 0.428322
O O7 0.275721 0.868554 0.222194
O O8 0.379358 0.870885 0.087057
O O9 0.602198 0.490025 0.265739
O O10 0.219854 0.691089 0.595071
O O11 0.143671 0.663141 0.868143
O O12 0.310264 0.250000 0.250000
#
# Coordination Sequence:
#
# PCOD9411220 Si02
#       6
#     8   8   8   4   8   8
#     4  10  22  38  62  90 123 155 203 260 308 371
#     4  10  23  41  61  86 131 157 200 261 311 364
#     4  10  21  41  61  89 123 162 201 253 316 373
#     4  12  22  36  68  94 116 162 222 254 312 366
#     4  11  23  42  60  91 122 161 209 260 308 369
#     4  11  21  37  66  90 117 162 202 258 305 371
#
# _framework density 21.467433
#
# number of rings (size 3 to 8) (size 9 to 14) (size 15 to 20)
#    0.000    1.455    3.636    1.636    2.545    1.455 
#    4.909    0.000    0.000    0.000    0.000    0.000 
#    0.000    0.000    0.000    0.000    0.000    0.000 
#
# Total GULP energy -245075.341535 kJ/mol
# GULP energy per Si atom -5569.894126 kJ/mol
# Density = 2.141857 g / cm^3
# Si number density = 21.467433 Si / 1000 Ang^3
#
#
#
# Elastic Constant Matrix: (Units=GPa)
#
#
# Indices 1 2 3 4 5 6 
#
# 1 63.0126 -7.4140 -11.0888 0.0000 0.0000 0.0000
# 2 -7.4140 43.0007 4.7276 0.0000 0.0000 0.0000
# 3 -11.0888 4.7276 96.5234 0.0000 0.0000 0.0000
# 4 0.0000 0.0000 0.0000 20.6348 0.0000 0.0000
# 5 0.0000 0.0000 0.0000 0.0000 21.5750 0.0000
# 6 0.0000 0.0000 0.0000 0.0000 0.0000-1769.5380
#
#
#
# Elastic Compliance Matrix: (Units=1/GPa)
#
#
# Indices 1 2 3 4 5 6 
#
# 1 0.016492 0.002649 0.001765 0.000000 0.000000 0.000000
# 2 0.002649 0.023807 -0.000862 0.000000 0.000000 0.000000
# 3 0.001765 -0.000862 0.010605 0.000000 0.000000 0.000000
# 4 0.000000 0.000000 0.000000 0.048462 0.000000 0.000000
# 5 0.000000 0.000000 0.000000 0.000000 0.046350 0.000000
# 6 0.000000 0.000000 0.000000 0.000000 0.000000 -0.000565
#
#
# Mechanical properties :
#
#
# Convention : Reuss Voigt Hill
#
# Bulk Modulus (GPa) = 17.23853 19.44294 18.34073
# Shear Modulus (GPa) = 31.76981 -331.04485 -149.63752
#
# Velocity S-wave (km/s) = 3.85113 -12.43152 -8.35798
# Velocity P-wave (km/s) = 5.27470 14.03497 9.19668
#
# Compressibility (1/GPa) = 0.05800960
#
# Stress axis : x y z
#
# Youngs Moduli (GPa) = 60.63493 42.00453 94.29387
#
# Poissons Ratio (x) = -0.11129 -0.16642
# Poissons Ratio (y) = -0.16065 0.08125
# Poissons Ratio (z) = -0.10701 0.03619
#
# Static dielectric constant tensor:
#      x y z
#    x 1.872760 0.000000 0.000000 
#    y 0.000000 1.777740 0.000000 
#    z 0.000000 0.000000 1.690780 
# 
# From -- ./inp_files/5757.got.cif
#   From: 2010.05.17/outbox.cif.g08.bks.cpg/sg52_3_cif.got.tgz:5757.got - 2010.06.03 12:15:38.
