data_PCOD9411697
_publ_section_title
;
Structure prediction by ZEFSAII (Michael W. Deem and Ramdas Pophale) SiO2 
 PCOD9411697
Probable space group: P N N A
;
_chemical_formula_sum "Si O2"
_cell_formula_units_Z 36
_cell_length_a 12.827601
_cell_length_b 25.268345
_cell_length_c 5.143158
_cell_angle_alpha 90.000000
_cell_angle_beta 90.000000
_cell_angle_gamma 90.000000
_cell_volume 1667.063362
_symmetry_space_group_name_H-M "P N N A"
_symmetry_group_IT_number 52
_symmetry_cell_setting 'orthorhombic'
loop_
_space_group_symop_operation_xyz
x,y,z
1/2-x,-y,z
x,1/2-y,1/2-z
1/2-x,1/2+y,1/2-z
-x,-y,-z
1/2+x,y,-z
-x,1/2+y,1/2+z
1/2+x,1/2-y,1/2+z
loop_
_atom_site_type_symbol
_atom_site_label
_atom_site_fract_x
_atom_site_fract_y
_atom_site_fract_z
Si Si1 0.861228 0.250000 0.750000
Si Si2 0.040384 0.531496 0.250134
Si Si3 0.682910 0.164089 0.754252
Si Si4 0.750000 0.000000 0.530636
Si Si5 0.505085 0.250000 0.750000
Si Si6 0.355146 0.901328 0.751521
O O1 0.784815 0.199958 0.789363
O O2 0.933008 0.241430 0.499652
O O3 0.163546 0.528355 0.210832
O O4 0.000000 0.500000 0.500000
O O5 0.979574 0.586981 0.251305
O O6 0.000000 0.500000 0.000000
O O7 0.582003 0.200797 0.800710
O O8 0.674623 0.142031 0.462738
O O9 0.678570 0.117365 0.964786
O O10 0.800647 0.955121 0.347653
#
# Coordination Sequence:
#
# PCOD9411697 Si02
#       6
#     4   8   8   4   4   8
#     4  11  24  45  72  98 126 169 214 263 336 402
#     4  10  22  40  60  88 127 170 215 262 313 370
#     4  11  25  43  66 100 132 162 218 274 323 397
#     4  10  24  42  66  94 134 180 224 268 316 382
#     4  11  24  45  68  94 132 169 206 271 336 394
#     4  11  23  41  65  96 133 173 216 271 325 381
#
# _framework density 21.594859
#
# number of rings (size 3 to 8) (size 9 to 14) (size 15 to 20)
#    0.000    1.333    0.000    5.333    0.000   16.889 
#    0.000    2.222    0.000    0.000    0.000    0.000 
#    0.000    0.000    0.000    0.000    0.000    0.000 
#
# Total GULP energy -201410.328483 kJ/mol
# GULP energy per Si atom -5594.731347 kJ/mol
# Density = 2.154571 g / cm^3
# Si number density = 21.594859 Si / 1000 Ang^3
#
#
#
# Elastic Constant Matrix: (Units=GPa)
#
#
# Indices 1 2 3 4 5 6 
#
# 1 152.7693 41.5826 46.8032 0.0000 0.0000 0.0000
# 2 41.5826 61.2346 2.9592 0.0000 0.0000 0.0000
# 3 46.8032 2.9592 127.2819 0.0000 0.0000 0.0000
# 4 0.0000 0.0000 0.0000 42.9213 0.0000 0.0000
# 5 0.0000 0.0000 0.0000 0.0000 -10.3527 0.0000
# 6 0.0000 0.0000 0.0000 0.0000 0.0000 11.5218
#
#
#
# Elastic Compliance Matrix: (Units=1/GPa)
#
#
# Indices 1 2 3 4 5 6 
#
# 1 0.009195 -0.006088 -0.003240 0.000000 0.000000 0.000000
# 2 -0.006088 0.020379 0.001765 0.000000 0.000000 0.000000
# 3 -0.003240 0.001765 0.009007 0.000000 0.000000 0.000000
# 4 0.000000 0.000000 0.000000 0.023298 0.000000 0.000000
# 5 0.000000 0.000000 0.000000 0.000000 -0.096593 0.000000
# 6 0.000000 0.000000 0.000000 0.000000 0.000000 0.086792
#
#
# Mechanical properties :
#
#
# Convention : Reuss Voigt Hill
#
# Bulk Modulus (GPa) = 42.63279 58.21955 50.42617
# Shear Modulus (GPa) = 66.64600 25.48079 46.06340
#
# Velocity S-wave (km/s) = 5.56138 3.43876 4.62353
# Velocity P-wave (km/s) = 7.81176 6.54104 7.20447
#
# Compressibility (1/GPa) = 0.02345612
#
# Stress axis : x y z
#
# Youngs Moduli (GPa) = 108.74992 49.06916 111.02674
#
# Poissons Ratio (x) = 0.29872 0.35970
# Poissons Ratio (y) = 0.66205 -0.19593
# Poissons Ratio (z) = 0.35232 -0.08659
#
# Static dielectric constant tensor:
#      x y z
#    x 1.823230 0.000000 0.000000 
#    y 0.000000 1.780850 0.000000 
#    z 0.000000 0.000000 1.735100 
# 
# From -- ./inp_files/1280.got.cif
#   From: 2010.05.17/outbox.cif.g08.bks.cpg/sg52_1_cif.got.tgz:1280.got - 2010.06.03 12:15:38.
