data_PCOD9411671
_publ_section_title
;
Structure prediction by ZEFSAII (Michael W. Deem and Ramdas Pophale) SiO2 
 PCOD9411671
Probable space group: P N N A
;
_chemical_formula_sum "Si O2"
_cell_formula_units_Z 36
_cell_length_a 7.543005
_cell_length_b 9.289337
_cell_length_c 22.870926
_cell_angle_alpha 90.000000
_cell_angle_beta 90.000000
_cell_angle_gamma 90.000000
_cell_volume 1602.554702
_symmetry_space_group_name_H-M "P N N A"
_symmetry_group_IT_number 52
_symmetry_cell_setting 'orthorhombic'
loop_
_space_group_symop_operation_xyz
x,y,z
1/2-x,-y,z
x,1/2-y,1/2-z
1/2-x,1/2+y,1/2-z
-x,-y,-z
1/2+x,y,-z
-x,1/2+y,1/2+z
1/2+x,1/2-y,1/2+z
loop_
_atom_site_type_symbol
_atom_site_label
_atom_site_fract_x
_atom_site_fract_y
_atom_site_fract_z
Si Si1 0.750000 0.000000 0.150903
Si Si2 0.082712 0.586219 0.271236
Si Si3 0.461703 0.645005 0.962632
Si Si4 0.586475 0.740161 0.429815
Si Si5 0.033643 0.507480 0.852926
O O1 0.647907 0.892324 0.108029
O O2 0.902619 0.923189 0.189961
O O3 0.250000 0.500000 0.298757
O O4 0.118068 0.750000 0.250000
O O5 0.042025 0.502499 0.211079
O O6 0.258441 0.668412 0.948192
O O7 0.536204 0.616604 0.897676
O O8 0.500000 0.500000 0.000000
O O9 0.501696 0.776772 0.006348
O O10 0.483168 0.845176 0.385737
O O11 0.250000 0.500000 0.846629
#
# Coordination Sequence:
#
# PCOD9411671 Si02
#       5
#     4   8   8   8   8
#     4  12  28  48  70 102 160 200 244 312 396 456
#     4  12  28  46  75 109 142 196 257 313 383 454
#     4   9  18  37  65 100 132 178 242 289 360 444
#     4  10  22  39  67 102 140 195 233 303 379 437
#     4   9  18  39  70  95 138 184 242 307 366 436
#
# _framework density 22.464131999999999
#
# number of rings (size 3 to 8) (size 9 to 14) (size 15 to 20)
#    0.000    1.778    1.111    4.667    3.111    4.444 
#    4.000    0.000    0.000    0.000    0.000    0.000 
#    0.000    0.000    0.000    0.000    0.000    0.000 
#
# Total GULP energy -200530.294727 kJ/mol
# GULP energy per Si atom -5570.285965 kJ/mol
# Density = 2.241300 g / cm^3
# Si number density = 22.464132 Si / 1000 Ang^3
#
#
#
# Elastic Constant Matrix: (Units=GPa)
#
#
# Indices 1 2 3 4 5 6 
#
# 1 67.4204 18.7825 6.3094 0.0000 0.0000 0.0000
# 2 18.7825 80.2576 20.2195 0.0000 0.0000 0.0000
# 3 6.3094 20.2195 105.1481 0.0000 0.0000 0.0000
# 4 0.0000 0.0000 0.0000 25.4884 0.0000 0.0000
# 5 0.0000 0.0000 0.0000 0.0000 9.6545 0.0000
# 6 0.0000 0.0000 0.0000 0.0000 0.0000 25.6275
#
#
#
# Elastic Compliance Matrix: (Units=1/GPa)
#
#
# Indices 1 2 3 4 5 6 
#
# 1 0.015873 -0.003652 -0.000250 0.000000 0.000000 0.000000
# 2 -0.003652 0.013934 -0.002460 0.000000 0.000000 0.000000
# 3 -0.000250 -0.002460 0.009999 0.000000 0.000000 0.000000
# 4 0.000000 0.000000 0.000000 0.039234 0.000000 0.000000
# 5 0.000000 0.000000 0.000000 0.000000 0.103579 0.000000
# 6 0.000000 0.000000 0.000000 0.000000 0.000000 0.039021
#
#
# Mechanical properties :
#
#
# Convention : Reuss Voigt Hill
#
# Bulk Modulus (GPa) = 36.92593 38.16099 37.54346
# Shear Modulus (GPa) = 20.54309 25.98838 23.26574
#
# Velocity S-wave (km/s) = 3.02732 3.40499 3.22170
# Velocity P-wave (km/s) = 5.35658 5.69939 5.53064
#
# Compressibility (1/GPa) = 0.02708124
#
# Stress axis : x y z
#
# Youngs Moduli (GPa) = 62.99992 71.76524 100.01466
#
# Poissons Ratio (x) = 0.26206 0.02503
# Poissons Ratio (y) = 0.23006 0.24608
# Poissons Ratio (z) = 0.01577 0.17657
#
# Static dielectric constant tensor:
#      x y z
#    x 1.924260 0.000000 0.000000 
#    y 0.000000 1.874070 0.000000 
#    z 0.000000 0.000000 1.943350 
# 
# From -- ./inp_files/35574.got.cif
#   From: 2010.05.17/outbox.cif.g08.bks.cpg/sg52_18_cif.got.tgz:35574.got - 2010.06.03 12:15:38.
