data_PCOD9411728
_publ_section_title
;
Structure prediction by ZEFSAII (Michael W. Deem and Ramdas Pophale) SiO2 
 PCOD9411728
Probable space group: P N N A
;
_chemical_formula_sum "Si O2"
_cell_formula_units_Z 40
_cell_length_a 12.563452
_cell_length_b 8.936124
_cell_length_c 17.090494
_cell_angle_alpha 90.000000
_cell_angle_beta 90.000000
_cell_angle_gamma 90.000000
_cell_volume 1918.725235
_symmetry_space_group_name_H-M "P N N A"
_symmetry_group_IT_number 52
_symmetry_cell_setting 'orthorhombic'
loop_
_space_group_symop_operation_xyz
x,y,z
1/2-x,-y,z
x,1/2-y,1/2-z
1/2-x,1/2+y,1/2-z
-x,-y,-z
1/2+x,y,-z
-x,1/2+y,1/2+z
1/2+x,1/2-y,1/2+z
loop_
_atom_site_type_symbol
_atom_site_label
_atom_site_fract_x
_atom_site_fract_y
_atom_site_fract_z
Si Si1 0.082294 0.931012 0.899023
Si Si2 0.754611 0.675886 0.835364
Si Si3 0.642641 0.071710 0.262398
Si Si4 0.504738 0.341273 0.831767
Si Si5 0.355629 0.417886 0.424359
O O1 0.071517 0.753237 0.887271
O O2 0.137630 0.000286 0.823973
O O3 0.135772 0.947722 0.983021
O O4 0.966306 0.011841 0.895701
O O5 0.750000 0.500000 0.823634
O O6 0.741745 0.750000 0.750000
O O7 0.877025 0.686699 0.864031
O O8 0.669333 0.750194 0.894179
O O9 0.644254 0.250000 0.250000
O O10 0.750000 0.000000 0.298788
O O11 0.541696 0.004404 0.310791
O O12 0.502993 0.250000 0.750000
O O13 0.250000 0.500000 0.392772
#
# Coordination Sequence:
#
# PCOD9411728 Si02
#       5
#     8   8   8   8   8
#     4  10  22  40  63  92 130 170 218 263 329 399
#     4  11  24  38  65  96 129 167 220 278 332 389
#     4  11  23  40  66  97 126 170 221 271 331 392
#     4   9  20  39  62  92 126 160 211 275 321 384
#     4  11  22  40  63  91 129 175 212 265 333 398
#
# _framework density 20.847173999999999
#
# number of rings (size 3 to 8) (size 9 to 14) (size 15 to 20)
#    0.000    1.600    2.000    3.000    8.400    0.000 
#    0.000    6.000    0.000    0.000    0.000    0.000 
#    0.000    0.000    0.000    0.000    0.000    0.000 
#
# Total GULP energy -222876.103143 kJ/mol
# GULP energy per Si atom -5571.902579 kJ/mol
# Density = 2.079972 g / cm^3
# Si number density = 20.847174 Si / 1000 Ang^3
#
#
#
# Elastic Constant Matrix: (Units=GPa)
#
#
# Indices 1 2 3 4 5 6 
#
# 1 105.1572 39.8685 29.0954 0.0000 0.0000 0.0000
# 2 39.8685 145.0232 4.7367 0.0000 0.0000 0.0000
# 3 29.0954 4.7367 36.5634 0.0000 0.0000 0.0000
# 4 0.0000 0.0000 0.0000 21.4788 0.0000 0.0000
# 5 0.0000 0.0000 0.0000 0.0000 15.4347 0.0000
# 6 0.0000 0.0000 0.0000 0.0000 0.0000 23.3486
#
#
#
# Elastic Compliance Matrix: (Units=1/GPa)
#
#
# Indices 1 2 3 4 5 6 
#
# 1 0.013702 -0.003425 -0.010460 0.000000 0.000000 0.000000
# 2 -0.003425 0.007781 0.001718 0.000000 0.000000 0.000000
# 3 -0.010460 0.001718 0.035451 0.000000 0.000000 0.000000
# 4 0.000000 0.000000 0.000000 0.046557 0.000000 0.000000
# 5 0.000000 0.000000 0.000000 0.000000 0.064789 0.000000
# 6 0.000000 0.000000 0.000000 0.000000 0.000000 0.042829
#
#
# Mechanical properties :
#
#
# Convention : Reuss Voigt Hill
#
# Bulk Modulus (GPa) = 30.67577 48.23833 39.45705
# Shear Modulus (GPa) = 20.29953 26.25531 23.27742
#
# Velocity S-wave (km/s) = 3.12385 3.55268 3.34514
# Velocity P-wave (km/s) = 5.26857 6.32597 5.82133
#
# Compressibility (1/GPa) = 0.03259902
#
# Stress axis : x y z
#
# Youngs Moduli (GPa) = 72.98032 128.51823 28.20813
#
# Poissons Ratio (x) = 0.44021 0.29506
# Poissons Ratio (y) = 0.24998 -0.04845
# Poissons Ratio (z) = 0.76337 -0.22075
#
# Static dielectric constant tensor:
#      x y z
#    x 1.874600 0.000000 0.000000 
#    y 0.000000 1.819860 0.000000 
#    z 0.000000 0.000000 1.709680 
# 
# From -- ./inp_files/31917.got.cif
#   From: 2010.05.17/outbox.cif.g08.bks.cpg/sg52_16_cif.got.tgz:31917.got - 2010.06.03 12:15:38.
