data_PCOD9411310
_publ_section_title
;
Structure prediction by ZEFSAII (Michael W. Deem and Ramdas Pophale) SiO2 
 PCOD9411310
Probable space group: P N N A
;
_chemical_formula_sum "Si O2"
_cell_formula_units_Z 48
_cell_length_a 9.065535
_cell_length_b 15.555461
_cell_length_c 18.436771
_cell_angle_alpha 90.000000
_cell_angle_beta 90.000000
_cell_angle_gamma 90.000000
_cell_volume 2599.927195
_symmetry_space_group_name_H-M "P N N A"
_symmetry_group_IT_number 52
_symmetry_cell_setting 'orthorhombic'
loop_
_space_group_symop_operation_xyz
x,y,z
1/2-x,-y,z
x,1/2-y,1/2-z
1/2-x,1/2+y,1/2-z
-x,-y,-z
1/2+x,y,-z
-x,1/2+y,1/2+z
1/2+x,1/2-y,1/2+z
loop_
_atom_site_type_symbol
_atom_site_label
_atom_site_fract_x
_atom_site_fract_y
_atom_site_fract_z
Si Si1 0.540429 0.922419 0.905182
Si Si2 0.907684 0.602948 0.070052
Si Si3 0.558587 0.594947 0.077874
Si Si4 0.250000 0.000000 0.213299
Si Si5 0.363751 0.831653 0.300836
Si Si6 0.250000 0.500000 0.524674
Si Si7 0.936860 0.262984 0.836459
O O1 0.612620 0.975443 0.838635
O O2 0.377617 0.953658 0.928613
O O3 0.537393 0.824888 0.878772
O O4 0.654597 0.937523 0.971877
O O5 0.732202 0.602158 0.066081
O O6 0.970430 0.507333 0.084303
O O7 0.955184 0.665219 0.133873
O O8 0.975243 0.629753 0.992917
O O9 0.498664 0.640351 0.149376
O O10 0.200922 0.084555 0.258544
O O11 0.400765 0.750000 0.250000
O O12 0.228605 0.797157 0.349444
O O13 0.950147 0.250000 0.750000
#
# Coordination Sequence:
#
# PCOD9411310 Si02
#       7
#     8   8   8   4   8   4   8
#     4  10  21  42  64  91 124 161 210 256 319 374
#     4  10  22  41  61  88 124 156 212 258 312 376
#     4  10  22  40  63  89 119 168 202 259 317 369
#     4  11  20  42  64  88 131 164 204 260 305 388
#     4  11  22  39  64  93 123 167 209 249 317 381
#     4   9  22  42  66  92 117 168 208 258 317 376
#     4  11  22  40  61  94 125 164 207 261 317 376
#
# _framework density 18.462056
#
# number of rings (size 3 to 8) (size 9 to 14) (size 15 to 20)
#    0.000    1.667    3.333    2.000    0.000    6.000 
#    9.000    0.000    0.000    0.000    0.000    0.000 
#    0.000    0.000    0.000    0.000    0.000    0.000 
#
# Total GULP energy -267861.076802 kJ/mol
# GULP energy per Si atom -5580.439100 kJ/mol
# Density = 1.842004 g / cm^3
# Si number density = 18.462056 Si / 1000 Ang^3
#
#
#
# Elastic Constant Matrix: (Units=GPa)
#
#
# Indices 1 2 3 4 5 6 
#
# 1 88.7592 26.9548 40.3890 0.0000 0.0000 0.0000
# 2 26.9548 65.5213 31.7651 0.0000 0.0000 0.0000
# 3 40.3890 31.7651 61.1589 0.0000 0.0000 0.0000
# 4 0.0000 0.0000 0.0000 25.6187 0.0000 0.0000
# 5 0.0000 0.0000 0.0000 0.0000 14.7154 0.0000
# 6 0.0000 0.0000 0.0000 0.0000 0.0000 23.0124
#
#
#
# Elastic Compliance Matrix: (Units=1/GPa)
#
#
# Indices 1 2 3 4 5 6 
#
# 1 0.016298 -0.001987 -0.009731 0.000000 0.000000 0.000000
# 2 -0.001987 0.020641 -0.009408 0.000000 0.000000 0.000000
# 3 -0.009731 -0.009408 0.027664 0.000000 0.000000 0.000000
# 4 0.000000 0.000000 0.000000 0.039034 0.000000 0.000000
# 5 0.000000 0.000000 0.000000 0.000000 0.067956 0.000000
# 6 0.000000 0.000000 0.000000 0.000000 0.000000 0.043455
#
#
# Mechanical properties :
#
#
# Convention : Reuss Voigt Hill
#
# Bulk Modulus (GPa) = 44.74340 45.96190 45.35265
# Shear Modulus (GPa) = 18.88577 20.42468 19.65522
#
# Velocity S-wave (km/s) = 3.20183 3.32973 3.26640
# Velocity P-wave (km/s) = 6.16092 6.30334 6.23254
#
# Compressibility (1/GPa) = 0.02234966
#
# Stress axis : x y z
#
# Youngs Moduli (GPa) = 61.35774 48.44747 36.14859
#
# Poissons Ratio (x) = 0.09627 0.35176
# Poissons Ratio (y) = 0.12193 0.34010
# Poissons Ratio (z) = 0.59707 0.45581
#
# Static dielectric constant tensor:
#      x y z
#    x 1.621110 0.000000 0.000000 
#    y 0.000000 1.632280 0.000000 
#    z 0.000000 0.000000 1.643310 
# 
# From -- ./inp_files/31284.got.cif
#   From: 2010.05.17/outbox.cif.g08.bks.cpg/sg52_16_cif.got.tgz:31284.got - 2010.06.03 12:15:38.
