data_PCOD9411769
_publ_section_title
;
Structure prediction by ZEFSAII (Michael W. Deem and Ramdas Pophale) SiO2 
 PCOD9411769
Probable space group: P N N A
;
_chemical_formula_sum "Si O2"
_cell_formula_units_Z 32
_cell_length_a 23.216780
_cell_length_b 10.409071
_cell_length_c 5.815125
_cell_angle_alpha 90.000000
_cell_angle_beta 90.000000
_cell_angle_gamma 90.000000
_cell_volume 1405.312831
_symmetry_space_group_name_H-M "P N N A"
_symmetry_group_IT_number 52
_symmetry_cell_setting 'orthorhombic'
loop_
_space_group_symop_operation_xyz
x,y,z
1/2-x,-y,z
x,1/2-y,1/2-z
1/2-x,1/2+y,1/2-z
-x,-y,-z
1/2+x,y,-z
-x,1/2+y,1/2+z
1/2+x,1/2-y,1/2+z
loop_
_atom_site_type_symbol
_atom_site_label
_atom_site_fract_x
_atom_site_fract_y
_atom_site_fract_z
Si Si1 0.095807 0.425067 0.896986
Si Si2 0.207749 0.112970 0.868842
Si Si3 0.663724 0.250000 0.750000
Si Si4 0.505485 0.750000 0.750000
Si Si5 0.387392 0.284004 0.005254
O O1 0.142878 0.427511 0.694463
O O2 0.035516 0.368622 0.813450
O O3 0.097673 0.565275 0.005340
O O4 0.122988 0.321401 0.070590
O O5 0.221112 0.250000 0.750000
O O6 0.250000 0.000000 0.801769
O O7 0.204732 0.144077 0.136639
O O8 0.550133 0.716640 0.544413
O O9 0.364040 0.250000 0.750000
O O10 0.356022 0.250000 0.250000
#
# Coordination Sequence:
#
# PCOD9411769 Si02
#       5
#     8   8   4   4   8
#     4  11  22  43  65  92 135 176 224 281 337 411
#     4  10  23  43  67  94 130 171 226 287 349 416
#     4  10  22  40  70  95 126 177 224 276 354 400
#     4  10  22  40  66  97 132 187 220 280 330 408
#     4  10  26  40  63 101 138 181 226 277 337 395
#
# _framework density 22.770731000000001
#
# number of rings (size 3 to 8) (size 9 to 14) (size 15 to 20)
#    0.750    1.000    3.750    0.750    5.250    6.000 
#    0.000    0.000    0.000    0.000    0.000    0.000 
#    0.000    0.000    0.000    0.000    0.000    0.000 
#
# Total GULP energy -178424.605653 kJ/mol
# GULP energy per Si atom -5575.768927 kJ/mol
# Density = 2.271890 g / cm^3
# Si number density = 22.770731 Si / 1000 Ang^3
#
#
#
# Elastic Constant Matrix: (Units=GPa)
#
#
# Indices 1 2 3 4 5 6 
#
# 1 50.9281 3.2424 6.5691 0.0000 0.0000 0.0000
# 2 3.2424 102.7352 17.4147 0.0000 0.0000 0.0000
# 3 6.5691 17.4147 98.7024 0.0000 0.0000 0.0000
# 4 0.0000 0.0000 0.0000 29.6739 0.0000 0.0000
# 5 0.0000 0.0000 0.0000 0.0000 -9.5662 0.0000
# 6 0.0000 0.0000 0.0000 0.0000 0.0000 9.4913
#
#
#
# Elastic Compliance Matrix: (Units=1/GPa)
#
#
# Indices 1 2 3 4 5 6 
#
# 1 0.019823 -0.000414 -0.001246 0.000000 0.000000 0.000000
# 2 -0.000414 0.010043 -0.001744 0.000000 0.000000 0.000000
# 3 -0.001246 -0.001744 0.010522 0.000000 0.000000 0.000000
# 4 0.000000 0.000000 0.000000 0.033700 0.000000 0.000000
# 5 0.000000 0.000000 0.000000 0.000000 -0.104535 0.000000
# 6 0.000000 0.000000 0.000000 0.000000 0.000000 0.105360
#
#
# Mechanical properties :
#
#
# Convention : Reuss Voigt Hill
#
# Bulk Modulus (GPa) = 29.78173 34.09091 31.93632
# Shear Modulus (GPa) = 53.81276 20.92908 37.37092
#
# Velocity S-wave (km/s) = 4.86659 3.03499 4.05555
# Velocity P-wave (km/s) = 6.68473 5.22355 5.99880
#
# Compressibility (1/GPa) = 0.03357763
#
# Stress axis : x y z
#
# Youngs Moduli (GPa) = 50.44738 99.57666 95.03749
#
# Poissons Ratio (x) = 0.04126 0.11843
# Poissons Ratio (y) = 0.02090 0.16577
# Poissons Ratio (z) = 0.06287 0.17369
#
# Static dielectric constant tensor:
#      x y z
#    x 1.836360 0.000000 0.000000 
#    y 0.000000 1.847010 0.000000 
#    z 0.000000 0.000000 1.967990 
# 
# From -- ./inp_files/3942.got.cif
#   From: 2010.05.17/outbox.cif.g08.bks.cpg/sg52_2_cif.got.tgz:3942.got - 2010.06.03 12:15:38.
