data_PCOD9411237
_publ_section_title
;
Structure prediction by ZEFSAII (Michael W. Deem and Ramdas Pophale) SiO2 
 PCOD9411237
Probable space group: P N N A
;
_chemical_formula_sum "Si O2"
_cell_formula_units_Z 48
_cell_length_a 25.103368
_cell_length_b 20.484190
_cell_length_c 5.023672
_cell_angle_alpha 90.000000
_cell_angle_beta 90.000000
_cell_angle_gamma 90.000000
_cell_volume 2583.283466
_symmetry_space_group_name_H-M "P N N A"
_symmetry_group_IT_number 52
_symmetry_cell_setting 'orthorhombic'
loop_
_space_group_symop_operation_xyz
x,y,z
1/2-x,-y,z
x,1/2-y,1/2-z
1/2-x,1/2+y,1/2-z
-x,-y,-z
1/2+x,y,-z
-x,1/2+y,1/2+z
1/2+x,1/2-y,1/2+z
loop_
_atom_site_type_symbol
_atom_site_label
_atom_site_fract_x
_atom_site_fract_y
_atom_site_fract_z
Si Si1 0.741257 0.678368 0.236554
Si Si2 0.687039 0.498401 0.858935
Si Si3 0.421586 0.250000 0.250000
Si Si4 0.596340 0.293935 0.515277
Si Si5 0.505154 0.750000 0.250000
Si Si6 0.170113 0.648257 0.255908
Si Si7 0.165130 0.084264 0.833061
O O1 0.766140 0.750000 0.250000
O O2 0.710291 0.660372 0.503105
O O3 0.787081 0.625954 0.203361
O O4 0.698290 0.678262 0.003296
O O5 0.750000 0.500000 0.937077
O O6 0.666667 0.571169 0.796454
O O7 0.683315 0.455665 0.591796
O O8 0.652734 0.466453 0.097188
O O9 0.457951 0.232692 0.502428
O O10 0.383657 0.311901 0.309458
O O11 0.624207 0.250000 0.750000
O O12 0.537310 0.196574 0.858848
O O13 0.623591 0.361456 0.435183
O O14 0.591954 0.250000 0.250000
#
# Coordination Sequence:
#
# PCOD9411237 Si02
#       7
#     8   8   4   8   4   8   8
#     4  12  21  36  55  90 126 162 195 259 289 363
#     4  12  23  40  57  87 132 182 205 236 292 380
#     4  12  22  42  65  90 113 164 200 282 316 354
#     4  10  21  41  64  98 117 152 207 266 320 379
#     4  10  22  42  69  88 119 148 208 280 334 362
#     4  12  24  38  59  88 126 162 214 236 305 376
#     4  12  23  37  65  86 132 170 201 246 313 366
#
# _framework density 18.581004
#
# number of rings (size 3 to 8) (size 9 to 14) (size 15 to 20)
#    0.500    0.000    5.833    4.000    0.000    1.333 
#    0.000    0.000    0.000    6.000    0.000    0.000 
#    0.000    0.000    0.000    0.000    0.000    0.000 
#
# Total GULP energy -267928.483373 kJ/mol
# GULP energy per Si atom -5581.843404 kJ/mol
# Density = 1.853871 g / cm^3
# Si number density = 18.581004 Si / 1000 Ang^3
#
#
#
# Elastic Constant Matrix: (Units=GPa)
#
#
# Indices 1 2 3 4 5 6 
#
# 1 61.5414 31.1618 2.4387 0.0000 0.0000 0.0000
# 2 31.1618 141.6172 21.1561 0.0000 0.0000 0.0000
# 3 2.4387 21.1561 93.1776 0.0000 0.0000 0.0000
# 4 0.0000 0.0000 0.0000 37.6410 0.0000 0.0000
# 5 0.0000 0.0000 0.0000 0.0000 13.4071 0.0000
# 6 0.0000 0.0000 0.0000 0.0000 0.0000 5.6498
#
#
#
# Elastic Compliance Matrix: (Units=1/GPa)
#
#
# Indices 1 2 3 4 5 6 
#
# 1 0.018305 -0.004095 0.000451 0.000000 0.000000 0.000000
# 2 -0.004095 0.008225 -0.001760 0.000000 0.000000 0.000000
# 3 0.000451 -0.001760 0.011120 0.000000 0.000000 0.000000
# 4 0.000000 0.000000 0.000000 0.026567 0.000000 0.000000
# 5 0.000000 0.000000 0.000000 0.000000 0.074587 0.000000
# 6 0.000000 0.000000 0.000000 0.000000 0.000000 0.176998
#
#
# Mechanical properties :
#
#
# Convention : Reuss Voigt Hill
#
# Bulk Modulus (GPa) = 37.25683 45.09439 41.17561
# Shear Modulus (GPa) = 14.90050 27.44488 21.17269
#
# Velocity S-wave (km/s) = 2.83489 3.84740 3.37928
# Velocity P-wave (km/s) = 5.55068 6.63765 6.11835
#
# Compressibility (1/GPa) = 0.02684071
#
# Stress axis : x y z
#
# Youngs Moduli (GPa) = 54.62988 121.57468 89.92728
#
# Poissons Ratio (x) = 0.49787 -0.04053
# Poissons Ratio (y) = 0.22372 0.15831
# Poissons Ratio (z) = -0.02462 0.21402
#
# Static dielectric constant tensor:
#      x y z
#    x 1.637590 0.000000 0.000000 
#    y 0.000000 1.654550 0.000000 
#    z 0.000000 0.000000 1.654790 
# 
# From -- ./inp_files/5147.got.cif
#   From: 2010.05.17/outbox.cif.g08.bks.cpg/sg52_3_cif.got.tgz:5147.got - 2010.06.03 12:15:38.
