data_PCOD9411105
_publ_section_title
;
Structure prediction by ZEFSAII (Michael W. Deem and Ramdas Pophale) SiO2 
 PCOD9411105
Probable space group: P N N A
;
_chemical_formula_sum "Si O2"
_cell_formula_units_Z 32
_cell_length_a 15.545089
_cell_length_b 18.839973
_cell_length_c 4.896729
_cell_angle_alpha 90.000000
_cell_angle_beta 90.000000
_cell_angle_gamma 90.000000
_cell_volume 1434.100405
_symmetry_space_group_name_H-M "P N N A"
_symmetry_group_IT_number 52
_symmetry_cell_setting 'orthorhombic'
loop_
_space_group_symop_operation_xyz
x,y,z
1/2-x,-y,z
x,1/2-y,1/2-z
1/2-x,1/2+y,1/2-z
-x,-y,-z
1/2+x,y,-z
-x,1/2+y,1/2+z
1/2+x,1/2-y,1/2+z
loop_
_atom_site_type_symbol
_atom_site_label
_atom_site_fract_x
_atom_site_fract_y
_atom_site_fract_z
Si Si1 0.067460 0.938834 0.565855
Si Si2 0.925399 0.834461 0.761830
Si Si3 0.314189 0.437802 0.449087
Si Si4 0.314444 0.665096 0.756380
O O1 0.124769 0.967565 0.813598
O O2 0.011227 0.873049 0.670942
O O3 0.127366 0.918237 0.309819
O O4 0.000000 0.000000 0.500000
O O5 0.935830 0.750000 0.750000
O O6 0.845208 0.854178 0.561147
O O7 0.897069 0.851425 0.067800
O O8 0.250000 0.500000 0.360728
O O9 0.262997 0.375915 0.610108
O O10 0.298414 0.750000 0.750000
#
# Coordination Sequence:
#
# PCOD9411105 Si02
#       4
#     8   8   8   8
#     4  12  24  40  63  92 127 166 212 263 316 377
#     4  10  21  40  63  88 122 163 205 253 312 375
#     4  12  24  40  63  92 127 166 213 265 316 379
#     4  10  21  40  63  88 122 163 205 253 314 377
#
# _framework density 22.313641000000001
#
# number of rings (size 3 to 8) (size 9 to 14) (size 15 to 20)
#    0.000    1.000    0.000    7.500    0.000    1.000 
#    0.000    2.500    0.000    0.000    0.000    0.000 
#    0.000    0.000    0.000    0.000    0.000    0.000 
#
# Total GULP energy -179092.344010 kJ/mol
# GULP energy per Si atom -5596.635750 kJ/mol
# Density = 2.226285 g / cm^3
# Si number density = 22.313641 Si / 1000 Ang^3
#
#
#
# Elastic Constant Matrix: (Units=GPa)
#
#
# Indices 1 2 3 4 5 6 
#
# 1 101.8252 53.0749 19.1335 0.0000 0.0000 0.0000
# 2 53.0749 94.1932 28.4034 0.0000 0.0000 0.0000
# 3 19.1335 28.4034 85.0732 0.0000 0.0000 0.0000
# 4 0.0000 0.0000 0.0000 25.9819 0.0000 0.0000
# 5 0.0000 0.0000 0.0000 0.0000 -30.2902 0.0000
# 6 0.0000 0.0000 0.0000 0.0000 0.0000 4.8341
#
#
#
# Elastic Compliance Matrix: (Units=1/GPa)
#
#
# Indices 1 2 3 4 5 6 
#
# 1 0.013929 -0.007677 -0.000570 0.000000 0.000000 0.000000
# 2 -0.007677 0.016036 -0.003627 0.000000 0.000000 0.000000
# 3 -0.000570 -0.003627 0.013094 0.000000 0.000000 0.000000
# 4 0.000000 0.000000 0.000000 0.038488 0.000000 0.000000
# 5 0.000000 0.000000 0.000000 0.000000 -0.033014 0.000000
# 6 0.000000 0.000000 0.000000 0.000000 0.000000 0.206866
#
#
# Mechanical properties :
#
#
# Convention : Reuss Voigt Hill
#
# Bulk Modulus (GPa) = 51.78363 53.59058 52.68710
# Shear Modulus (GPa) = 17.50798 12.13714 14.82256
#
# Velocity S-wave (km/s) = 2.80417 2.33477 2.58016
# Velocity P-wave (km/s) = 5.80879 5.59797 5.70435
#
# Compressibility (1/GPa) = 0.01931112
#
# Stress axis : x y z
#
# Youngs Moduli (GPa) = 71.79126 62.35980 76.37218
#
# Poissons Ratio (x) = 0.47873 0.04351
# Poissons Ratio (y) = 0.55114 0.27703
# Poissons Ratio (z) = 0.04090 0.22620
#
# Static dielectric constant tensor:
#      x y z
#    x 1.839200 0.000000 0.000000 
#    y 0.000000 1.568810 0.000000 
#    z 0.000000 0.000000 1.796770 
# 
# From -- ./inp_files/1043.got.cif
#   From: 2010.05.17/outbox.cif.g08.bks.cpg/sg52_1_cif.got.tgz:1043.got - 2010.06.03 12:15:38.
