data_PCOD9411834
_publ_section_title
;
Structure prediction by ZEFSAII (Michael W. Deem and Ramdas Pophale) SiO2 
 PCOD9411834
Probable space group: P N N A
;
_chemical_formula_sum "Si O2"
_cell_formula_units_Z 32
_cell_length_a 14.632370
_cell_length_b 5.510834
_cell_length_c 18.151015
_cell_angle_alpha 90.000000
_cell_angle_beta 90.000000
_cell_angle_gamma 90.000000
_cell_volume 1463.635448
_symmetry_space_group_name_H-M "P N N A"
_symmetry_group_IT_number 52
_symmetry_cell_setting 'orthorhombic'
loop_
_space_group_symop_operation_xyz
x,y,z
1/2-x,-y,z
x,1/2-y,1/2-z
1/2-x,1/2+y,1/2-z
-x,-y,-z
1/2+x,y,-z
-x,1/2+y,1/2+z
1/2+x,1/2-y,1/2+z
loop_
_atom_site_type_symbol
_atom_site_label
_atom_site_fract_x
_atom_site_fract_y
_atom_site_fract_z
Si Si1 0.096951 0.020792 0.537718
Si Si2 0.348198 0.019447 0.929719
Si Si3 0.486062 0.765278 0.837017
Si Si4 0.799106 0.250330 0.659989
O O1 0.149527 0.772521 0.528155
O O2 0.141073 0.280206 0.519347
O O3 0.072984 0.053830 0.624462
O O4 0.000000 0.000000 0.500000
O O5 0.250000 0.000000 0.891101
O O6 0.434780 0.993482 0.874984
O O7 0.478987 0.750000 0.750000
O O8 0.592769 0.752460 0.857844
O O9 0.750000 0.500000 0.635938
O O10 0.794376 0.250000 0.750000
O O11 0.750000 0.000000 0.635485
#
# Coordination Sequence:
#
# PCOD9411834 Si02
#       4
#     8   8   8   8
#     4  10  22  41  64  83 124 162 205 255 305 365
#     4  10  22  41  65  92 125 165 205 256 308 373
#     4   9  22  38  63  91 127 165 203 259 316 369
#     4   9  18  32  52  79 115 154 196 245 302 360
#
# _framework density 21.863368000000001
#
# number of rings (size 3 to 8) (size 9 to 14) (size 15 to 20)
#    1.500    1.000    0.000    1.500    3.500    1.000 
#    4.500    3.750    0.000    0.000    0.000    0.000 
#    0.000    0.000    0.000    0.000    0.000    0.000 
#
# Total GULP energy -178181.884738 kJ/mol
# GULP energy per Si atom -5568.183898 kJ/mol
# Density = 2.181361 g / cm^3
# Si number density = 21.863368 Si / 1000 Ang^3
#
#
#
# Elastic Constant Matrix: (Units=GPa)
#
#
# Indices 1 2 3 4 5 6 
#
# 1 56.1046 7.2920 -15.9266 0.0000 0.0000 0.0000
# 2 7.2920 167.6614 -0.1805 0.0000 0.0000 0.0000
# 3 -15.9266 -0.1805 48.8271 0.0000 0.0000 0.0000
# 4 0.0000 0.0000 0.0000 12.2899 0.0000 0.0000
# 5 0.0000 0.0000 0.0000 0.0000 -1.4154 0.0000
# 6 0.0000 0.0000 0.0000 0.0000 0.0000 163.6176
#
#
#
# Elastic Compliance Matrix: (Units=1/GPa)
#
#
# Indices 1 2 3 4 5 6 
#
# 1 0.019764 -0.000853 0.006443 0.000000 0.000000 0.000000
# 2 -0.000853 0.006001 -0.000256 0.000000 0.000000 0.000000
# 3 0.006443 -0.000256 0.022581 0.000000 0.000000 0.000000
# 4 0.000000 0.000000 0.000000 0.081368 0.000000 0.000000
# 5 0.000000 0.000000 0.000000 0.000000 -0.706527 0.000000
# 6 0.000000 0.000000 0.000000 0.000000 0.000000 0.006112
#
#
# Mechanical properties :
#
#
# Convention : Reuss Voigt Hill
#
# Bulk Modulus (GPa) = 16.94457 28.32923 22.63690
# Shear Modulus (GPa) = -8.90156 53.65897 22.37870
#
# Velocity S-wave (km/s) = -2.01997 4.95945 3.20280
# Velocity P-wave (km/s) = 1.52534 6.76612 4.90444
#
# Compressibility (1/GPa) = 0.05901594
#
# Stress axis : x y z
#
# Youngs Moduli (GPa) = 50.59759 166.63302 44.28462
#
# Poissons Ratio (x) = 0.14208 -0.28535
# Poissons Ratio (y) = 0.04314 0.01133
# Poissons Ratio (z) = -0.32602 0.04265
#
# Static dielectric constant tensor:
#      x y z
#    x 1.769960 0.000000 0.000000 
#    y 0.000000 1.909280 0.000000 
#    z 0.000000 0.000000 1.873550 
# 
# From -- ./inp_files/39816.got.cif
#   From: 2010.05.17/outbox.cif.g08.bks.cpg/sg52_20_cif.got.tgz:39816.got - 2010.06.03 12:15:38.
