data_PCOD9411013
_publ_section_title
;
Structure prediction by ZEFSAII (Michael W. Deem and Ramdas Pophale) SiO2 
 PCOD9411013
Probable space group: P N N A
;
_chemical_formula_sum "Si O2"
_cell_formula_units_Z 64
_cell_length_a 8.649641
_cell_length_b 12.347675
_cell_length_c 25.888730
_cell_angle_alpha 90.000000
_cell_angle_beta 90.000000
_cell_angle_gamma 90.000000
_cell_volume 2764.992889
_symmetry_space_group_name_H-M "P N N A"
_symmetry_group_IT_number 52
_symmetry_cell_setting 'orthorhombic'
loop_
_space_group_symop_operation_xyz
x,y,z
1/2-x,-y,z
x,1/2-y,1/2-z
1/2-x,1/2+y,1/2-z
-x,-y,-z
1/2+x,y,-z
-x,1/2+y,1/2+z
1/2+x,1/2-y,1/2+z
loop_
_atom_site_type_symbol
_atom_site_label
_atom_site_fract_x
_atom_site_fract_y
_atom_site_fract_z
Si Si1 0.681453 0.384673 0.501493
Si Si2 0.164724 0.107883 0.789836
Si Si3 0.417405 0.447401 0.361399
Si Si4 0.947105 0.646194 0.881702
Si Si5 0.105506 0.440146 0.925199
Si Si6 0.730732 0.663347 0.176041
Si Si7 0.643890 0.768312 0.574480
Si Si8 0.913282 0.132631 0.074542
O O1 0.750000 0.500000 0.521182
O O2 0.753349 0.278532 0.528138
O O3 0.735825 0.377251 0.442322
O O4 0.506278 0.384472 0.520341
O O5 0.237417 0.208782 0.820474
O O6 0.194776 0.122894 0.729277
O O7 0.989991 0.090931 0.807391
O O8 0.250000 0.000000 0.805853
O O9 0.250000 0.500000 0.355111
O O10 0.409013 0.339279 0.395681
O O11 0.519636 0.540978 0.388322
O O12 0.765374 0.670068 0.887227
O O13 0.989190 0.537445 0.911852
O O14 0.046969 0.638067 0.828516
O O15 0.035472 0.750139 0.906053
O O16 0.250000 0.500000 0.953841
O O17 0.184672 0.390655 0.873037
O O18 0.996853 0.343030 0.944755
#
# Coordination Sequence:
#
# PCOD9411013 Si02
#       8
#     8   8   8   8   8   8   8   8
#     4  11  22  38  61  96 142 176 223 284 340 423
#     4  11  23  39  66  95 130 174 214 290 340 404
#     4  12  22  42  64  95 141 172 223 278 354 420
#     4  10  21  39  65  92 125 175 229 276 337 413
#     4  10  21  40  67  91 124 173 226 277 323 409
#     4  10  22  42  63  94 129 164 230 275 337 410
#     4  11  21  40  64  94 130 179 221 280 346 407
#     4  11  23  39  62 101 136 181 222 282 348 418
#
# _framework density 23.146533000000002
#
# number of rings (size 3 to 8) (size 9 to 14) (size 15 to 20)
#    0.000    1.250    5.000    2.625    0.000    3.500 
#    0.000    3.125    0.000    1.500    0.000    0.000 
#    0.000    0.000    0.000    0.000    0.000    0.000 
#
# Total GULP energy -357590.677805 kJ/mol
# GULP energy per Si atom -5587.354341 kJ/mol
# Density = 2.309385 g / cm^3
# Si number density = 23.146533 Si / 1000 Ang^3
#
#
#
# Elastic Constant Matrix: (Units=GPa)
#
#
# Indices 1 2 3 4 5 6 
#
# 1 119.7629 37.0108 35.1446 0.0000 0.0000 0.0000
# 2 37.0108 150.2736 -1.5144 0.0000 0.0000 0.0000
# 3 35.1446 -1.5144 45.9442 0.0000 0.0000 0.0000
# 4 0.0000 0.0000 0.0000 15.2827 0.0000 0.0000
# 5 0.0000 0.0000 0.0000 0.0000 33.9742 0.0000
# 6 0.0000 0.0000 0.0000 0.0000 0.0000 54.3803
#
#
#
# Elastic Compliance Matrix: (Units=1/GPa)
#
#
# Indices 1 2 3 4 5 6 
#
# 1 0.012022 -0.003055 -0.009297 0.000000 0.000000 0.000000
# 2 -0.003055 0.007433 0.002582 0.000000 0.000000 0.000000
# 3 -0.009297 0.002582 0.028962 0.000000 0.000000 0.000000
# 4 0.000000 0.000000 0.000000 0.065434 0.000000 0.000000
# 5 0.000000 0.000000 0.000000 0.000000 0.029434 0.000000
# 6 0.000000 0.000000 0.000000 0.000000 0.000000 0.018389
#
#
# Mechanical properties :
#
#
# Convention : Reuss Voigt Hill
#
# Bulk Modulus (GPa) = 34.62921 50.80697 42.71809
# Shear Modulus (GPa) = 26.20010 37.08341 31.64175
#
# Velocity S-wave (km/s) = 3.36806 4.00699 3.70133
# Velocity P-wave (km/s) = 5.48802 6.58830 6.06317
#
# Compressibility (1/GPa) = 0.02887735
#
# Stress axis : x y z
#
# Youngs Moduli (GPa) = 83.18116 134.53783 34.52789
#
# Poissons Ratio (x) = 0.41096 0.32100
# Poissons Ratio (y) = 0.25408 -0.08914
# Poissons Ratio (z) = 0.77332 -0.34732
#
# Static dielectric constant tensor:
#      x y z
#    x 1.909600 0.000000 0.000000 
#    y 0.000000 1.893780 0.000000 
#    z 0.000000 0.000000 1.924090 
# 
# From -- ./inp_files/44603.got.cif
#   From: 2010.05.17/outbox.cif.g08.bks.cpg/sg52_23_cif.got.tgz:44603.got - 2010.06.03 12:15:38.
