data_PCOD9411436
_publ_section_title
;
Structure prediction by ZEFSAII (Michael W. Deem and Ramdas Pophale) SiO2 
 PCOD9411436
Probable space group: P N N A
;
_chemical_formula_sum "Si O2"
_cell_formula_units_Z 40
_cell_length_a 11.695046
_cell_length_b 11.248636
_cell_length_c 14.779719
_cell_angle_alpha 90.000000
_cell_angle_beta 90.000000
_cell_angle_gamma 90.000000
_cell_volume 1944.321036
_symmetry_space_group_name_H-M "P N N A"
_symmetry_group_IT_number 52
_symmetry_cell_setting 'orthorhombic'
loop_
_space_group_symop_operation_xyz
x,y,z
1/2-x,-y,z
x,1/2-y,1/2-z
1/2-x,1/2+y,1/2-z
-x,-y,-z
1/2+x,y,-z
-x,1/2+y,1/2+z
1/2+x,1/2-y,1/2+z
loop_
_atom_site_type_symbol
_atom_site_label
_atom_site_fract_x
_atom_site_fract_y
_atom_site_fract_z
Si Si1 0.513554 0.445607 0.628793
Si Si2 0.321932 0.876570 0.290091
Si Si3 0.311007 0.258985 0.644108
Si Si4 0.078736 0.332308 0.552761
Si Si5 0.503035 0.622615 0.051902
O O1 0.583323 0.408047 0.715469
O O2 0.398038 0.368406 0.628602
O O3 0.479505 0.582588 0.625759
O O4 0.585161 0.412424 0.538516
O O5 0.271065 0.750000 0.250000
O O6 0.392237 0.857312 0.383558
O O7 0.250000 0.000000 0.298769
O O8 0.284224 0.250000 0.750000
O O9 0.198474 0.282960 0.586650
O O10 0.383741 0.145005 0.611200
O O11 0.999424 0.223646 0.524472
O O12 0.500000 0.500000 0.000000
#
# Coordination Sequence:
#
# PCOD9411436 Si02
#       5
#     8   8   8   8   8
#     4  10  21  45  66  98 135 170 232 287 332 415
#     4  12  25  46  72 100 139 189 234 289 357 423
#     4  11  21  43  70  93 141 175 229 285 357 405
#     4  10  23  38  69 100 127 178 227 275 347 409
#     4  11  25  44  65  99 144 177 228 292 356 419
#
# _framework density 20.572735000000002
#
# number of rings (size 3 to 8) (size 9 to 14) (size 15 to 20)
#    0.000    1.200    6.000    0.600    2.800    8.000 
#    3.600    0.000    0.000    0.000    0.000    0.000 
#    0.000    0.000    0.000    0.000    0.000    0.000 
#
# Total GULP energy -223245.122603 kJ/mol
# GULP energy per Si atom -5581.128065 kJ/mol
# Density = 2.052591 g / cm^3
# Si number density = 20.572735 Si / 1000 Ang^3
#
#
#
# Elastic Constant Matrix: (Units=GPa)
#
#
# Indices 1 2 3 4 5 6 
#
# 1 44.9071 0.8703 14.2406 0.0000 0.0000 0.0000
# 2 0.8703 114.6910 14.2680 0.0000 0.0000 0.0000
# 3 14.2406 14.2680 63.6929 0.0000 0.0000 0.0000
# 4 0.0000 0.0000 0.0000 34.6001 0.0000 0.0000
# 5 0.0000 0.0000 0.0000 0.0000 11.5943 0.0000
# 6 0.0000 0.0000 0.0000 0.0000 0.0000 28.9097
#
#
#
# Elastic Compliance Matrix: (Units=1/GPa)
#
#
# Indices 1 2 3 4 5 6 
#
# 1 0.023995 0.000499 -0.005477 0.000000 0.000000 0.000000
# 2 0.000499 0.008979 -0.002123 0.000000 0.000000 0.000000
# 3 -0.005477 -0.002123 0.017400 0.000000 0.000000 0.000000
# 4 0.000000 0.000000 0.000000 0.028902 0.000000 0.000000
# 5 0.000000 0.000000 0.000000 0.000000 0.086249 0.000000
# 6 0.000000 0.000000 0.000000 0.000000 0.000000 0.034590
#
#
# Mechanical properties :
#
#
# Convention : Reuss Voigt Hill
#
# Bulk Modulus (GPa) = 27.64428 31.33876 29.49152
# Shear Modulus (GPa) = 22.08721 27.94830 25.01775
#
# Velocity S-wave (km/s) = 3.28016 3.68980 3.49099
# Velocity P-wave (km/s) = 5.27375 5.78092 5.53315
#
# Compressibility (1/GPa) = 0.03617385
#
# Stress axis : x y z
#
# Youngs Moduli (GPa) = 41.67490 111.36577 57.46973
#
# Poissons Ratio (x) = -0.05560 0.31475
# Poissons Ratio (y) = -0.02081 0.12202
# Poissons Ratio (z) = 0.22824 0.23644
#
# Static dielectric constant tensor:
#      x y z
#    x 1.708240 0.000000 0.000000 
#    y 0.000000 1.787010 0.000000 
#    z 0.000000 0.000000 1.707850 
# 
# From -- ./inp_files/25820.got.cif
#   From: 2010.05.17/outbox.cif.g08.bks.cpg/sg52_13_cif.got.tgz:25820.got - 2010.06.03 12:15:38.
