data_PCOD9411479
_publ_section_title
;
Structure prediction by ZEFSAII (Michael W. Deem and Ramdas Pophale) SiO2 
 PCOD9411479
Probable space group: P N N A
;
_chemical_formula_sum "Si O2"
_cell_formula_units_Z 40
_cell_length_a 5.482584
_cell_length_b 17.666744
_cell_length_c 18.193179
_cell_angle_alpha 90.000000
_cell_angle_beta 90.000000
_cell_angle_gamma 90.000000
_cell_volume 1762.180547
_symmetry_space_group_name_H-M "P N N A"
_symmetry_group_IT_number 52
_symmetry_cell_setting 'orthorhombic'
loop_
_space_group_symop_operation_xyz
x,y,z
1/2-x,-y,z
x,1/2-y,1/2-z
1/2-x,1/2+y,1/2-z
-x,-y,-z
1/2+x,y,-z
-x,1/2+y,1/2+z
1/2+x,1/2-y,1/2+z
loop_
_atom_site_type_symbol
_atom_site_label
_atom_site_fract_x
_atom_site_fract_y
_atom_site_fract_z
Si Si1 0.094159 0.892697 0.699456
Si Si2 0.250000 0.000000 0.208403
Si Si3 0.459142 0.637005 0.679327
Si Si4 0.283119 0.750000 0.250000
Si Si5 0.775376 0.409178 0.457909
Si Si6 0.464189 0.413408 0.971607
O O1 0.350343 0.880855 0.740201
O O2 0.102080 0.910830 0.613994
O O3 0.950580 0.959368 0.741250
O O4 0.945480 0.816060 0.715616
O O5 0.367194 0.066268 0.160556
O O6 0.612396 0.712367 0.688105
O O7 0.248244 0.634377 0.619543
O O8 0.750000 0.500000 0.445712
O O9 0.532263 0.390153 0.504549
O O10 0.500000 0.500000 0.000000
O O11 0.732007 0.378713 0.985918
#
# Coordination Sequence:
#
# PCOD9411479 Si02
#       6
#     8   4   8   4   8   8
#     4  11  23  42  69  97 138 187 233 295 348 423
#     4  10  22  34  68 102 126 166 240 286 350 410
#     4  11  24  42  68 100 134 185 237 291 347 426
#     4  10  26  44  68  92 140 184 258 278 346 414
#     4  10  23  40  67 102 141 173 218 290 362 420
#     4  10  23  39  65 101 143 176 221 288 363 424
#
# _framework density 22.699148000000001
#
# number of rings (size 3 to 8) (size 9 to 14) (size 15 to 20)
#    0.000    1.600    0.000    3.600   21.000    0.000 
#    0.000    2.000    0.000    0.000    0.000    0.000 
#    0.000    0.000    0.000    0.000    0.000    0.000 
#
# Total GULP energy -223761.979280 kJ/mol
# GULP energy per Si atom -5594.049482 kJ/mol
# Density = 2.264748 g / cm^3
# Si number density = 22.699148 Si / 1000 Ang^3
#
#
#
# Elastic Constant Matrix: (Units=GPa)
#
#
# Indices 1 2 3 4 5 6 
#
# 1 114.0420 21.6420 18.3452 0.0000 0.0000 0.0000
# 2 21.6420 94.6238 14.2038 0.0000 0.0000 0.0000
# 3 18.3452 14.2038 107.8974 0.0000 0.0000 0.0000
# 4 0.0000 0.0000 0.0000 6.6302 0.0000 0.0000
# 5 0.0000 0.0000 0.0000 0.0000 28.8529 0.0000
# 6 0.0000 0.0000 0.0000 0.0000 0.0000 36.1952
#
#
#
# Elastic Compliance Matrix: (Units=1/GPa)
#
#
# Indices 1 2 3 4 5 6 
#
# 1 0.009351 -0.001938 -0.001335 0.000000 0.000000 0.000000
# 2 -0.001938 0.011183 -0.001143 0.000000 0.000000 0.000000
# 3 -0.001335 -0.001143 0.009645 0.000000 0.000000 0.000000
# 4 0.000000 0.000000 0.000000 0.150825 0.000000 0.000000
# 5 0.000000 0.000000 0.000000 0.000000 0.034659 0.000000
# 6 0.000000 0.000000 0.000000 0.000000 0.000000 0.027628
#
#
# Mechanical properties :
#
#
# Convention : Reuss Voigt Hill
#
# Bulk Modulus (GPa) = 46.84239 47.21612 47.02925
# Shear Modulus (GPa) = 19.28724 31.82714 25.55719
#
# Velocity S-wave (km/s) = 2.91811 3.74856 3.35910
# Velocity P-wave (km/s) = 5.65993 6.29139 5.98400
#
# Compressibility (1/GPa) = 0.02134819
#
# Stress axis : x y z
#
# Youngs Moduli (GPa) = 106.93729 89.42130 103.67617
#
# Poissons Ratio (x) = 0.17334 0.13838
# Poissons Ratio (y) = 0.20729 0.11846
# Poissons Ratio (z) = 0.14274 0.10217
#
# Static dielectric constant tensor:
#      x y z
#    x 1.836790 0.000000 0.000000 
#    y 0.000000 1.906450 0.000000 
#    z 0.000000 0.000000 1.846870 
# 
# From -- ./inp_files/30156.got.cif
#   From: 2010.05.17/outbox.cif.g08.bks.cpg/sg52_16_cif.got.tgz:30156.got - 2010.06.03 12:15:38.
