data_PCOD9411273
_publ_section_title
;
Structure prediction by ZEFSAII (Michael W. Deem and Ramdas Pophale) SiO2 
 PCOD9411273
Probable space group: P N N A
;
_chemical_formula_sum "Si O2"
_cell_formula_units_Z 56
_cell_length_a 30.128220
_cell_length_b 13.867985
_cell_length_c 6.355918
_cell_angle_alpha 90.000000
_cell_angle_beta 90.000000
_cell_angle_gamma 90.000000
_cell_volume 2655.615059
_symmetry_space_group_name_H-M "P N N A"
_symmetry_group_IT_number 52
_symmetry_cell_setting 'orthorhombic'
loop_
_space_group_symop_operation_xyz
x,y,z
1/2-x,-y,z
x,1/2-y,1/2-z
1/2-x,1/2+y,1/2-z
-x,-y,-z
1/2+x,y,-z
-x,1/2+y,1/2+z
1/2+x,1/2-y,1/2+z
loop_
_atom_site_type_symbol
_atom_site_label
_atom_site_fract_x
_atom_site_fract_y
_atom_site_fract_z
Si Si1 0.712361 0.360049 0.762142
Si Si2 0.131270 0.041047 0.326746
Si Si3 0.659636 0.750000 0.750000
Si Si4 0.404192 0.099810 0.019160
Si Si5 0.250000 0.000000 0.909610
Si Si6 0.557571 0.528090 0.129148
Si Si7 0.006164 0.636214 0.229078
Si Si8 0.705745 0.902196 0.467755
O O1 0.725101 0.250000 0.750000
O O2 0.660005 0.364008 0.807598
O O3 0.724225 0.423940 0.557734
O O4 0.744244 0.402061 0.941858
O O5 0.088308 0.032501 0.470849
O O6 0.114992 0.001012 0.103939
O O7 0.169479 0.971722 0.424224
O O8 0.628027 0.823357 0.875070
O O9 0.687120 0.801159 0.561611
O O10 0.452963 0.120466 0.112360
O O11 0.410160 0.092764 0.771628
O O12 0.285191 0.061996 0.769890
O O13 0.530805 0.447204 0.261362
O O14 0.526108 0.601223 0.998154
O O15 0.993277 0.750000 0.250000
#
# Coordination Sequence:
#
# PCOD9411273 Si02
#       8
#     8   8   4   8   4   8   8   8
#     4  12  25  46  65  93 139 179 229 286 329 399
#     4  10  22  43  60  95 137 168 215 283 327 387
#     4  10  22  42  64 104 140 156 226 292 322 398
#     4  10  21  41  68  98 130 172 208 275 342 391
#     4  12  24  44  70  90 128 196 222 276 358 402
#     4  10  23  41  69  92 133 177 210 268 341 399
#     4  10  21  44  64  98 132 163 220 270 323 408
#     4  11  22  43  66  94 133 174 221 281 341 394
#
# _framework density 21.087392999999999
#
# number of rings (size 3 to 8) (size 9 to 14) (size 15 to 20)
#    0.000    1.429    4.286    0.429    2.000    1.143 
#    5.143    0.000    0.000    0.000    0.000    0.000 
#    0.000    0.000    0.000    0.000    0.000    0.000 
#
# Total GULP energy -311960.971447 kJ/mol
# GULP energy per Si atom -5570.731633 kJ/mol
# Density = 2.103940 g / cm^3
# Si number density = 21.087393 Si / 1000 Ang^3
#
#
#
# Elastic Constant Matrix: (Units=GPa)
#
#
# Indices 1 2 3 4 5 6 
#
# 1 70.4642 27.7888 9.4001 0.0000 0.0000 0.0000
# 2 27.7888 113.1682 25.2594 0.0000 0.0000 0.0000
# 3 9.4001 25.2594 71.1352 0.0000 0.0000 0.0000
# 4 0.0000 0.0000 0.0000 19.8269 0.0000 0.0000
# 5 0.0000 0.0000 0.0000 0.0000 153.8575 0.0000
# 6 0.0000 0.0000 0.0000 0.0000 0.0000 19.0582
#
#
#
# Elastic Compliance Matrix: (Units=1/GPa)
#
#
# Indices 1 2 3 4 5 6 
#
# 1 0.015752 -0.003696 -0.000769 0.000000 0.000000 0.000000
# 2 -0.003696 0.010464 -0.003227 0.000000 0.000000 0.000000
# 3 -0.000769 -0.003227 0.015305 0.000000 0.000000 0.000000
# 4 0.000000 0.000000 0.000000 0.050436 0.000000 0.000000
# 5 0.000000 0.000000 0.000000 0.000000 0.006500 0.000000
# 6 0.000000 0.000000 0.000000 0.000000 0.000000 0.052471
#
#
# Mechanical properties :
#
#
# Convention : Reuss Voigt Hill
#
# Bulk Modulus (GPa) = 38.26088 42.18490 40.22289
# Shear Modulus (GPa) = 28.56723 51.36983 39.96853
#
# Velocity S-wave (km/s) = 3.68463 4.94098 4.35831
# Velocity P-wave (km/s) = 6.02373 7.25254 6.66651
#
# Compressibility (1/GPa) = 0.02613636
#
# Stress axis : x y z
#
# Youngs Moduli (GPa) = 63.48447 95.56214 65.33658
#
# Poissons Ratio (x) = 0.35322 0.05024
# Poissons Ratio (y) = 0.23466 0.21087
# Poissons Ratio (z) = 0.04882 0.30841
#
# Static dielectric constant tensor:
#      x y z
#    x 1.774660 0.000000 0.000000 
#    y 0.000000 1.136460 0.000000 
#    z 0.000000 0.000000 1.771230 
# 
# From -- ./inp_files/6437.got.cif
#   From: 2010.05.17/outbox.cif.g08.bks.cpg/sg52_4_cif.got.tgz:6437.got - 2010.06.03 12:15:38.
