data_PCOD9411040
_publ_section_title
;
Structure prediction by ZEFSAII (Michael W. Deem and Ramdas Pophale) SiO2 
 PCOD9411040
Probable space group: P N N A
;
_chemical_formula_sum "Si O2"
_cell_formula_units_Z 48
_cell_length_a 8.018539
_cell_length_b 13.415993
_cell_length_c 20.327568
_cell_angle_alpha 90.000000
_cell_angle_beta 90.000000
_cell_angle_gamma 90.000000
_cell_volume 2186.771934
_symmetry_space_group_name_H-M "P N N A"
_symmetry_group_IT_number 52
_symmetry_cell_setting 'orthorhombic'
loop_
_space_group_symop_operation_xyz
x,y,z
1/2-x,-y,z
x,1/2-y,1/2-z
1/2-x,1/2+y,1/2-z
-x,-y,-z
1/2+x,y,-z
-x,1/2+y,1/2+z
1/2+x,1/2-y,1/2+z
loop_
_atom_site_type_symbol
_atom_site_label
_atom_site_fract_x
_atom_site_fract_y
_atom_site_fract_z
Si Si1 0.156504 0.897009 0.212576
Si Si2 0.703180 0.191371 0.666970
Si Si3 0.671460 0.889861 0.540021
Si Si4 0.796249 0.601448 0.355959
Si Si5 0.308661 0.670953 0.906638
Si Si6 0.657113 0.856263 0.275214
O O1 0.158959 0.870267 0.290621
O O2 0.261747 0.806066 0.182098
O O3 0.978131 0.896818 0.178028
O O4 0.250000 0.000000 0.203092
O O5 0.716365 0.173782 0.590149
O O6 0.527306 0.156755 0.696287
O O7 0.485996 0.868176 0.566703
O O8 0.682687 0.857676 0.464618
O O9 0.750000 0.000000 0.545438
O O10 0.750000 0.500000 0.395830
O O11 0.789873 0.709141 0.392750
O O12 0.666231 0.590470 0.294511
O O13 0.267419 0.616727 0.837788
O O14 0.723859 0.750000 0.250000
#
# Coordination Sequence:
#
# PCOD9411040 Si02
#       6
#     8   8   8   8   8   8
#     4  11  22  39  66 100 136 171 224 275 346 404
#     4  11  22  41  68 101 137 174 220 284 339 406
#     4  12  25  45  68  95 133 178 228 279 349 412
#     4  11  24  42  69 100 137 177 225 281 345 408
#     4  11  25  44  66  98 135 179 225 285 337 416
#     4  10  21  39  66  96 136 174 216 271 342 398
#
# _framework density 21.950164000000001
#
# number of rings (size 3 to 8) (size 9 to 14) (size 15 to 20)
#    0.000    1.000    3.333    4.000    7.000    2.000 
#    0.000    1.667    0.000    0.000    0.000    0.000 
#    0.000    0.000    0.000    0.000    0.000    0.000 
#
# Total GULP energy -267969.214255 kJ/mol
# GULP energy per Si atom -5582.691964 kJ/mol
# Density = 2.190020 g / cm^3
# Si number density = 21.950164 Si / 1000 Ang^3
#
#
#
# Elastic Constant Matrix: (Units=GPa)
#
#
# Indices 1 2 3 4 5 6 
#
# 1 113.5217 17.8735 22.5609 0.0000 0.0000 0.0000
# 2 17.8735 104.9911 1.5678 0.0000 0.0000 0.0000
# 3 22.5609 1.5678 91.3478 0.0000 0.0000 0.0000
# 4 0.0000 0.0000 0.0000 14.4263 0.0000 0.0000
# 5 0.0000 0.0000 0.0000 0.0000 -4.9611 0.0000
# 6 0.0000 0.0000 0.0000 0.0000 0.0000 26.2354
#
#
#
# Elastic Compliance Matrix: (Units=1/GPa)
#
#
# Indices 1 2 3 4 5 6 
#
# 1 0.009520 -0.001586 -0.002324 0.000000 0.000000 0.000000
# 2 -0.001586 0.009791 0.000224 0.000000 0.000000 0.000000
# 3 -0.002324 0.000224 0.011517 0.000000 0.000000 0.000000
# 4 0.000000 0.000000 0.000000 0.069318 0.000000 0.000000
# 5 0.000000 0.000000 0.000000 0.000000 -0.201569 0.000000
# 6 0.000000 0.000000 0.000000 0.000000 0.000000 0.038116
#
#
# Mechanical properties :
#
#
# Convention : Reuss Voigt Hill
#
# Bulk Modulus (GPa) = 42.63282 43.76278 43.19780
# Shear Modulus (GPa) = -103.91969 24.99735 -39.46117
#
# Velocity S-wave (km/s) = -6.88812 3.37831 -4.24460
# Velocity P-wave (km/s) = 6.61793 5.93278 2.07353
#
# Compressibility (1/GPa) = 0.02345610
#
# Stress axis : x y z
#
# Youngs Moduli (GPa) = 105.03656 102.13162 86.82554
#
# Poissons Ratio (x) = 0.16199 0.20179
# Poissons Ratio (y) = 0.16659 -0.01942
# Poissons Ratio (z) = 0.24412 -0.02284
#
# Static dielectric constant tensor:
#      x y z
#    x 1.867900 0.000000 0.000000 
#    y 0.000000 1.915940 0.000000 
#    z 0.000000 0.000000 1.810990 
# 
# From -- ./inp_files/35873.got.cif
#   From: 2010.05.17/outbox.cif.g08.bks.cpg/sg52_18_cif.got.tgz:35873.got - 2010.06.03 12:15:38.
