data_PCOD9411766
_publ_section_title
;
Structure prediction by ZEFSAII (Michael W. Deem and Ramdas Pophale) SiO2 
 PCOD9411766
Probable space group: P N N A
;
_chemical_formula_sum "Si O2"
_cell_formula_units_Z 40
_cell_length_a 4.936753
_cell_length_b 25.321302
_cell_length_c 11.569826
_cell_angle_alpha 90.000000
_cell_angle_beta 90.000000
_cell_angle_gamma 90.000000
_cell_volume 1446.286257
_symmetry_space_group_name_H-M "P N N A"
_symmetry_group_IT_number 52
_symmetry_cell_setting 'orthorhombic'
loop_
_space_group_symop_operation_xyz
x,y,z
1/2-x,-y,z
x,1/2-y,1/2-z
1/2-x,1/2+y,1/2-z
-x,-y,-z
1/2+x,y,-z
-x,1/2+y,1/2+z
1/2+x,1/2-y,1/2+z
loop_
_atom_site_type_symbol
_atom_site_label
_atom_site_fract_x
_atom_site_fract_y
_atom_site_fract_z
Si Si1 0.500000 0.000000 0.000000
Si Si2 0.719085 0.427719 0.074931
Si Si3 0.315419 0.697486 0.935448
Si Si4 0.067148 0.453770 0.294455
Si Si5 0.568480 0.250000 0.750000
Si Si6 0.741325 0.654546 0.589895
O O1 0.350431 0.041825 0.914673
O O2 0.250000 0.000000 0.088279
O O3 0.710079 0.364393 0.083315
O O4 0.839548 0.444327 0.197410
O O5 0.428989 0.442312 0.025803
O O6 0.147533 0.725626 0.838935
O O7 0.629018 0.710045 0.952118
O O8 0.250000 0.500000 0.231854
O O9 0.226318 0.400239 0.335149
O O10 0.721858 0.298292 0.683363
O O11 0.469759 0.656807 0.512103
#
# Coordination Sequence:
#
# PCOD9411766 Si02
#       6
#     4   8   8   8   4   8
#     4  10  22  40  66  96 132 178 222 276 346 412
#     4  10  23  43  67  98 136 181 233 285 345 419
#     4  10  22  41  64  94 133 176 226 280 342 414
#     4  11  24  47  74 106 146 191 237 300 365 432
#     4  12  24  46  70 104 136 190 226 304 354 426
#     4  12  28  47  72 108 143 186 243 295 359 436
#
# _framework density 27.657043000000002
#
# number of rings (size 3 to 8) (size 9 to 14) (size 15 to 20)
#    0.000    1.200    2.000    3.600    0.000    8.800 
#    0.000    0.000    0.000    0.000    0.000    0.000 
#    0.000    0.000    0.000    0.000    0.000    0.000 
#
# Total GULP energy -222721.064863 kJ/mol
# GULP energy per Si atom -5568.026622 kJ/mol
# Density = 2.759409 g / cm^3
# Si number density = 27.657043 Si / 1000 Ang^3
#
#
#
# Elastic Constant Matrix: (Units=GPa)
#
#
# Indices 1 2 3 4 5 6 
#
# 1 113.9964 13.6996 9.4185 0.0000 0.0000 0.0000
# 2 13.6996 192.4691 50.9787 0.0000 0.0000 0.0000
# 3 9.4185 50.9787 176.7587 0.0000 0.0000 0.0000
# 4 0.0000 0.0000 0.0000 18.1189 0.0000 0.0000
# 5 0.0000 0.0000 0.0000 0.0000 0.7909 0.0000
# 6 0.0000 0.0000 0.0000 0.0000 0.0000 37.2961
#
#
#
# Elastic Compliance Matrix: (Units=1/GPa)
#
#
# Indices 1 2 3 4 5 6 
#
# 1 0.008864 -0.000548 -0.000314 0.000000 0.000000 0.000000
# 2 -0.000548 0.005659 -0.001603 0.000000 0.000000 0.000000
# 3 -0.000314 -0.001603 0.006136 0.000000 0.000000 0.000000
# 4 0.000000 0.000000 0.000000 0.055191 0.000000 0.000000
# 5 0.000000 0.000000 0.000000 0.000000 1.264318 0.000000
# 6 0.000000 0.000000 0.000000 0.000000 0.000000 0.026812
#
#
# Mechanical properties :
#
#
# Convention : Reuss Voigt Hill
#
# Bulk Modulus (GPa) = 63.57408 70.15754 66.86581
# Shear Modulus (GPa) = 3.63068 38.51636 21.07352
#
# Velocity S-wave (km/s) = 1.14700 3.73586 2.76335
# Velocity P-wave (km/s) = 4.97902 6.63558 5.86607
#
# Compressibility (1/GPa) = 0.01572968
#
# Stress axis : x y z
#
# Youngs Moduli (GPa) = 112.81595 176.70356 162.95950
#
# Poissons Ratio (x) = 0.09677 0.05123
# Poissons Ratio (y) = 0.06178 0.26122
# Poissons Ratio (z) = 0.03547 0.28325
#
# Static dielectric constant tensor:
#      x y z
#    x 2.143570 0.000000 0.000000 
#    y 0.000000 1.956620 0.000000 
#    z 0.000000 0.000000 2.076670 
# 
# From -- ./inp_files/16066.got.cif
#   From: 2010.05.17/outbox.cif.g08.bks.cpg/sg52_9_cif.got.tgz:16066.got - 2010.06.03 12:15:38.
