data_PCOD9411814
_publ_section_title
;
Structure prediction by ZEFSAII (Michael W. Deem and Ramdas Pophale) SiO2 
 PCOD9411814
Probable space group: P N N A
;
_chemical_formula_sum "Si O2"
_cell_formula_units_Z 60
_cell_length_a 16.632273
_cell_length_b 8.544445
_cell_length_c 19.243442
_cell_angle_alpha 90.000000
_cell_angle_beta 90.000000
_cell_angle_gamma 90.000000
_cell_volume 2734.753700
_symmetry_space_group_name_H-M "P N N A"
_symmetry_group_IT_number 52
_symmetry_cell_setting 'orthorhombic'
loop_
_space_group_symop_operation_xyz
x,y,z
1/2-x,-y,z
x,1/2-y,1/2-z
1/2-x,1/2+y,1/2-z
-x,-y,-z
1/2+x,y,-z
-x,1/2+y,1/2+z
1/2+x,1/2-y,1/2+z
loop_
_atom_site_type_symbol
_atom_site_label
_atom_site_fract_x
_atom_site_fract_y
_atom_site_fract_z
Si Si1 0.540123 0.075209 0.236861
Si Si2 0.132739 0.833919 0.556893
Si Si3 0.352778 0.093244 0.205873
Si Si4 0.666428 0.069443 0.546038
Si Si5 0.521905 0.390299 0.866214
Si Si6 0.683532 0.865148 0.184741
Si Si7 0.773494 0.342831 0.556854
Si Si8 0.126467 0.250000 0.250000
O O1 0.572846 0.250000 0.250000
O O2 0.450924 0.090098 0.203416
O O3 0.525939 0.998688 0.312673
O O4 0.599601 0.959802 0.195989
O O5 0.179904 0.750647 0.618947
O O6 0.160336 0.747268 0.487413
O O7 0.040512 0.822678 0.578867
O O8 0.153504 0.012018 0.533084
O O9 0.333400 0.250000 0.250000
O O10 0.311103 0.118063 0.131593
O O11 0.332061 0.920636 0.238943
O O12 0.590837 0.021831 0.591312
O O13 0.689208 0.249211 0.556701
O O14 0.750000 0.000000 0.573826
O O15 0.569223 0.270835 0.816823
O O16 0.695612 0.750000 0.250000
O O17 0.750000 0.000000 0.179860
O O18 0.750000 0.500000 0.518493
#
# Coordination Sequence:
#
# PCOD9411814 Si02
#       8
#     8   8   8   8   8   8   8   4
#     4  10  23  43  72 110 144 177 246 310 356 451
#     4  11  24  45  72  98 140 192 243 299 367 442
#     4  10  23  44  73 104 149 191 245 301 368 447
#     4  10  25  43  70 100 144 189 238 292 365 437
#     4  11  21  46  73 103 140 193 240 300 371 441
#     4  12  25  47  74 108 145 191 246 314 385 437
#     4  11  25  49  63 104 149 185 243 306 364 441
#     4  10  22  40  76 106 146 180 244 312 360 426
#
# _framework density 21.939817000000001
#
# number of rings (size 3 to 8) (size 9 to 14) (size 15 to 20)
#    0.000    1.333    1.333    3.600   12.133    1.600 
#   16.800    4.667    0.000    0.000    0.000    0.000 
#    0.000    0.000    0.000    0.000    0.000    0.000 
#
# Total GULP energy -334841.237803 kJ/mol
# GULP energy per Si atom -5580.687297 kJ/mol
# Density = 2.188988 g / cm^3
# Si number density = 21.939817 Si / 1000 Ang^3
#
#
#
# Elastic Constant Matrix: (Units=GPa)
#
#
# Indices 1 2 3 4 5 6 
#
# 1 102.9305 29.7387 60.3985 0.0000 0.0000 0.0000
# 2 29.7387 110.1295 39.0897 0.0000 0.0000 0.0000
# 3 60.3985 39.0897 118.2218 0.0000 0.0000 0.0000
# 4 0.0000 0.0000 0.0000 23.8171 0.0000 0.0000
# 5 0.0000 0.0000 0.0000 0.0000 29.6120 0.0000
# 6 0.0000 0.0000 0.0000 0.0000 0.0000 36.2593
#
#
#
# Elastic Compliance Matrix: (Units=1/GPa)
#
#
# Indices 1 2 3 4 5 6 
#
# 1 0.014066 -0.001414 -0.006719 0.000000 0.000000 0.000000
# 2 -0.001414 0.010430 -0.002726 0.000000 0.000000 0.000000
# 3 -0.006719 -0.002726 0.012793 0.000000 0.000000 0.000000
# 4 0.000000 0.000000 0.000000 0.041987 0.000000 0.000000
# 5 0.000000 0.000000 0.000000 0.000000 0.033770 0.000000
# 6 0.000000 0.000000 0.000000 0.000000 0.000000 0.027579
#
#
# Mechanical properties :
#
#
# Convention : Reuss Voigt Hill
#
# Bulk Modulus (GPa) = 64.22195 65.52619 64.87407
# Shear Modulus (GPa) = 29.84492 31.40800 30.62646
#
# Velocity S-wave (km/s) = 3.69224 3.78769 3.74027
# Velocity P-wave (km/s) = 6.89291 7.00428 6.94882
#
# Compressibility (1/GPa) = 0.01557100
#
# Stress axis : x y z
#
# Youngs Moduli (GPa) = 71.09184 95.88066 78.16890
#
# Poissons Ratio (x) = 0.13553 0.52522
# Poissons Ratio (y) = 0.10049 0.21312
# Poissons Ratio (z) = 0.47766 0.26141
#
# Static dielectric constant tensor:
#      x y z
#    x 1.881050 0.000000 0.000000 
#    y 0.000000 1.015300 0.000000 
#    z 0.000000 0.000000 1.788210 
# 
# From -- ./inp_files/33762.got.cif
#   From: 2010.05.17/outbox.cif.g08.bks.cpg/sg52_17_cif.got.tgz:33762.got - 2010.06.03 12:15:38.
