data_PCOD9411729
_publ_section_title
;
Structure prediction by ZEFSAII (Michael W. Deem and Ramdas Pophale) SiO2 
 PCOD9411729
Probable space group: P N N A
;
_chemical_formula_sum "Si O2"
_cell_formula_units_Z 40
_cell_length_a 10.420022
_cell_length_b 28.862705
_cell_length_c 4.890824
_cell_angle_alpha 90.000000
_cell_angle_beta 90.000000
_cell_angle_gamma 90.000000
_cell_volume 1470.915421
_symmetry_space_group_name_H-M "P N N A"
_symmetry_group_IT_number 52
_symmetry_cell_setting 'orthorhombic'
loop_
_space_group_symop_operation_xyz
x,y,z
1/2-x,-y,z
x,1/2-y,1/2-z
1/2-x,1/2+y,1/2-z
-x,-y,-z
1/2+x,y,-z
-x,1/2+y,1/2+z
1/2+x,1/2-y,1/2+z
loop_
_atom_site_type_symbol
_atom_site_label
_atom_site_fract_x
_atom_site_fract_y
_atom_site_fract_z
Si Si1 0.578270 0.437709 0.111706
Si Si2 0.478765 0.387593 0.593961
Si Si3 0.767888 0.715773 0.001090
Si Si4 0.478507 0.305982 0.241628
Si Si5 0.813341 0.456789 0.710271
O O1 0.505962 0.404002 0.895866
O O2 0.711718 0.449212 0.958499
O O3 0.588374 0.410061 0.397222
O O4 0.457650 0.471647 0.192687
O O5 0.476803 0.333532 0.523469
O O6 0.353011 0.412553 0.469182
O O7 0.802957 0.750000 0.750000
O O8 0.652292 0.683122 0.913272
O O9 0.730989 0.750000 0.250000
O O10 0.887934 0.686041 0.093846
O O11 0.473850 0.250000 0.250000
O O12 0.750000 0.500000 0.549718
#
# Coordination Sequence:
#
# PCOD9411729 Si02
#       5
#     8   8   8   8   8
#     4  10  25  44  66 104 135 174 224 276 343 408
#     4  10  26  41  69  98 140 175 224 282 334 405
#     4  10  22  40  63  93 126 171 226 273 324 390
#     4  10  23  44  64  96 132 179 222 272 331 393
#     4  10  24  46  73 100 137 177 225 284 346 412
#
# _framework density 27.193947999999999
#
# number of rings (size 3 to 8) (size 9 to 14) (size 15 to 20)
#    1.200    0.800    0.000    1.200    5.600    8.000 
#    7.200    0.000    0.000    0.000    0.000    0.000 
#    0.000    0.000    0.000    0.000    0.000    0.000 
#
# Total GULP energy -223526.533629 kJ/mol
# GULP energy per Si atom -5588.163341 kJ/mol
# Density = 2.713205 g / cm^3
# Si number density = 27.193948 Si / 1000 Ang^3
#
#
#
# Elastic Constant Matrix: (Units=GPa)
#
#
# Indices 1 2 3 4 5 6 
#
# 1 135.8720 2.0736 -9.1446 0.0000 0.0000 0.0000
# 2 2.0736 62.7330 -8.6322 0.0000 0.0000 0.0000
# 3 -9.1446 -8.6322 94.3228 0.0000 0.0000 0.0000
# 4 0.0000 0.0000 0.0000 32.9854 0.0000 0.0000
# 5 0.0000 0.0000 0.0000 0.0000 37.9123 0.0000
# 6 0.0000 0.0000 0.0000 0.0000 0.0000 18.5587
#
#
#
# Elastic Compliance Matrix: (Units=1/GPa)
#
#
# Indices 1 2 3 4 5 6 
#
# 1 0.007410 -0.000148 0.000705 0.000000 0.000000 0.000000
# 2 -0.000148 0.016147 0.001463 0.000000 0.000000 0.000000
# 3 0.000705 0.001463 0.010804 0.000000 0.000000 0.000000
# 4 0.000000 0.000000 0.000000 0.030316 0.000000 0.000000
# 5 0.000000 0.000000 0.000000 0.000000 0.026377 0.000000
# 6 0.000000 0.000000 0.000000 0.000000 0.000000 0.053883
#
#
# Mechanical properties :
#
#
# Convention : Reuss Voigt Hill
#
# Bulk Modulus (GPa) = 26.04097 29.05796 27.54946
# Shear Modulus (GPa) = 32.53164 38.46667 35.49916
#
# Velocity S-wave (km/s) = 3.46248 3.76510 3.61696
# Velocity P-wave (km/s) = 5.05785 5.44151 5.25318
#
# Compressibility (1/GPa) = 0.03840103
#
# Stress axis : x y z
#
# Youngs Moduli (GPa) = 134.96078 61.93168 92.55710
#
# Poissons Ratio (x) = 0.00916 -0.06524
# Poissons Ratio (y) = 0.01997 -0.13545
# Poissons Ratio (z) = -0.09512 -0.09063
#
# Static dielectric constant tensor:
#      x y z
#    x 2.225170 0.000000 0.000000 
#    y 0.000000 2.195870 0.000000 
#    z 0.000000 0.000000 2.134600 
# 
# From -- ./inp_files/1378.got.cif
#   From: 2010.05.17/outbox.cif.g08.bks.cpg/sg52_1_cif.got.tgz:1378.got - 2010.06.03 12:15:38.
