data_PCOD9411006
_publ_section_title
;
Structure prediction by ZEFSAII (Michael W. Deem and Ramdas Pophale) SiO2 
 PCOD9411006
Probable space group: P N N A
;
_chemical_formula_sum "Si O2"
_cell_formula_units_Z 40
_cell_length_a 9.017602
_cell_length_b 7.881868
_cell_length_c 24.387577
_cell_angle_alpha 90.000000
_cell_angle_beta 90.000000
_cell_angle_gamma 90.000000
_cell_volume 1733.360415
_symmetry_space_group_name_H-M "P N N A"
_symmetry_group_IT_number 52
_symmetry_cell_setting 'orthorhombic'
loop_
_space_group_symop_operation_xyz
x,y,z
1/2-x,-y,z
x,1/2-y,1/2-z
1/2-x,1/2+y,1/2-z
-x,-y,-z
1/2+x,y,-z
-x,1/2+y,1/2+z
1/2+x,1/2-y,1/2+z
loop_
_atom_site_type_symbol
_atom_site_label
_atom_site_fract_x
_atom_site_fract_y
_atom_site_fract_z
Si Si1 0.580607 0.188424 0.136149
Si Si2 0.612914 0.881036 0.968741
Si Si3 0.076638 0.036061 0.345815
Si Si4 0.095268 0.945793 0.228454
Si Si5 0.343723 0.325762 0.924318
O O1 0.466007 0.171838 0.086369
O O2 0.535555 0.375928 0.156292
O O3 0.537809 0.061520 0.184970
O O4 0.743444 0.194657 0.110473
O O5 0.750000 0.000000 0.956252
O O6 0.644392 0.734015 0.012902
O O7 0.500000 0.000000 0.000000
O O8 0.998825 0.152681 0.391714
O O9 0.250000 0.000000 0.360053
O O10 0.079463 0.071476 0.280536
O O11 0.112516 0.750000 0.250000
O O12 0.250000 0.000000 0.200440
O O13 0.250000 0.500000 0.924888
#
# Coordination Sequence:
#
# PCOD9411006 Si02
#       5
#     8   8   8   8   8
#     4  10  21  39  65  87 130 170 209 269 321 388
#     4  12  25  42  62  94 133 169 212 269 330 391
#     4   9  20  37  68  94 123 164 222 267 315 385
#     4   9  18  38  64  93 123 160 215 266 318 383
#     4  10  23  43  65  93 129 168 222 266 326 399
#
# _framework density 23.076561000000002
#
# number of rings (size 3 to 8) (size 9 to 14) (size 15 to 20)
#    0.000    2.000    2.000    0.600    2.800    4.000 
#    3.600    0.000   35.200    0.000    0.000    0.000 
#    0.000    0.000    0.000    0.000    0.000    0.000 
#
# Total GULP energy -223179.073439 kJ/mol
# GULP energy per Si atom -5579.476836 kJ/mol
# Density = 2.302404 g / cm^3
# Si number density = 23.076561 Si / 1000 Ang^3
#
#
#
# Elastic Constant Matrix: (Units=GPa)
#
#
# Indices 1 2 3 4 5 6 
#
# 1 115.6521 11.3449 50.7899 0.0000 0.0000 0.0000
# 2 11.3449 49.7851 21.0559 0.0000 0.0000 0.0000
# 3 50.7899 21.0559 117.4209 0.0000 0.0000 0.0000
# 4 0.0000 0.0000 0.0000 -11.9298 0.0000 0.0000
# 5 0.0000 0.0000 0.0000 0.0000 11.5400 0.0000
# 6 0.0000 0.0000 0.0000 0.0000 0.0000 32.7569
#
#
#
# Elastic Compliance Matrix: (Units=1/GPa)
#
#
# Indices 1 2 3 4 5 6 
#
# 1 0.010687 -0.000520 -0.004529 0.000000 0.000000 0.000000
# 2 -0.000520 0.021760 -0.003677 0.000000 0.000000 0.000000
# 3 -0.004529 -0.003677 0.011135 0.000000 0.000000 0.000000
# 4 0.000000 0.000000 0.000000 -0.083824 0.000000 0.000000
# 5 0.000000 0.000000 0.000000 0.000000 0.086655 0.000000
# 6 0.000000 0.000000 0.000000 0.000000 0.000000 0.030528
#
#
# Mechanical properties :
#
#
# Convention : Reuss Voigt Hill
#
# Bulk Modulus (GPa) = 38.27135 49.91550 44.09342
# Shear Modulus (GPa) = 48.49531 19.78458 34.13994
#
# Velocity S-wave (km/s) = 4.58918 2.93122 3.85050
# Velocity P-wave (km/s) = 6.68590 5.75616 6.23838
#
# Compressibility (1/GPa) = 0.02612921
#
# Stress axis : x y z
#
# Youngs Moduli (GPa) = 93.57436 45.95595 89.80777
#
# Poissons Ratio (x) = 0.02388 0.40677
# Poissons Ratio (y) = 0.04863 0.33024
# Poissons Ratio (z) = 0.42383 0.16899
#
# Static dielectric constant tensor:
#      x y z
#    x 1.871730 0.000000 0.000000 
#    y 0.000000 2.064550 0.000000 
#    z 0.000000 0.000000 1.904750 
# 
# From -- ./inp_files/39179.got.cif
#   From: 2010.05.17/outbox.cif.g08.bks.cpg/sg52_20_cif.got.tgz:39179.got - 2010.06.03 12:15:38.
