data_PCOD9411759
_publ_section_title
;
Structure prediction by ZEFSAII (Michael W. Deem and Ramdas Pophale) SiO2 
 PCOD9411759
Probable space group: P N N A
;
_chemical_formula_sum "Si O2"
_cell_formula_units_Z 40
_cell_length_a 10.462578
_cell_length_b 15.297011
_cell_length_c 11.971432
_cell_angle_alpha 90.000000
_cell_angle_beta 90.000000
_cell_angle_gamma 90.000000
_cell_volume 1915.981850
_symmetry_space_group_name_H-M "P N N A"
_symmetry_group_IT_number 52
_symmetry_cell_setting 'orthorhombic'
loop_
_space_group_symop_operation_xyz
x,y,z
1/2-x,-y,z
x,1/2-y,1/2-z
1/2-x,1/2+y,1/2-z
-x,-y,-z
1/2+x,y,-z
-x,1/2+y,1/2+z
1/2+x,1/2-y,1/2+z
loop_
_atom_site_type_symbol
_atom_site_label
_atom_site_fract_x
_atom_site_fract_y
_atom_site_fract_z
Si Si1 0.001878 0.652498 0.773017
Si Si2 0.294942 0.159171 0.314654
Si Si3 0.123176 0.559279 0.973932
Si Si4 0.866331 0.403243 0.589621
Si Si5 0.902751 0.601547 0.534675
O O1 0.048325 0.750000 0.750000
O O2 0.858922 0.657119 0.826856
O O3 0.975994 0.613237 0.651398
O O4 0.095630 0.601275 0.853672
O O5 0.326753 0.250000 0.250000
O O6 0.359359 0.133610 0.430716
O O7 0.339907 0.088760 0.221209
O O8 0.250000 0.500000 0.976298
O O9 0.000000 0.500000 0.000000
O O10 0.876686 0.497805 0.531309
O O11 0.738536 0.356835 0.542680
O O12 0.003376 0.363033 0.560137
#
# Coordination Sequence:
#
# PCOD9411759 Si02
#       5
#     8   8   8   8   8
#     4  10  22  41  65  92 132 169 213 275 333 387
#     4  10  22  40  66  92 128 173 216 266 337 398
#     4  12  24  44  70  98 132 180 230 270 332 409
#     4   9  18  34  58  83 116 157 203 251 312 382
#     4   9  18  35  57  84 117 157 201 252 314 379
#
# _framework density 20.877025
#
# number of rings (size 3 to 8) (size 9 to 14) (size 15 to 20)
#    0.000    2.000    2.000    1.200    5.600    0.000 
#   10.800    1.000    0.000    0.000    0.000    0.000 
#    0.000    0.000    0.000    0.000    0.000    0.000 
#
# Total GULP energy -223006.591006 kJ/mol
# GULP energy per Si atom -5575.164775 kJ/mol
# Density = 2.082951 g / cm^3
# Si number density = 20.877025 Si / 1000 Ang^3
#
#
#
# Elastic Constant Matrix: (Units=GPa)
#
#
# Indices 1 2 3 4 5 6 
#
# 1 101.9570 32.8541 43.2956 0.0000 0.0000 0.0000
# 2 32.8541 68.9546 26.6856 0.0000 0.0000 0.0000
# 3 43.2956 26.6856 57.9277 0.0000 0.0000 0.0000
# 4 0.0000 0.0000 0.0000 29.5670 0.0000 0.0000
# 5 0.0000 0.0000 0.0000 0.0000 40.0857 0.0000
# 6 0.0000 0.0000 0.0000 0.0000 0.0000 21.7220
#
#
#
# Elastic Compliance Matrix: (Units=1/GPa)
#
#
# Indices 1 2 3 4 5 6 
#
# 1 0.015002 -0.003418 -0.009638 0.000000 0.000000 0.000000
# 2 -0.003418 0.018427 -0.005934 0.000000 0.000000 0.000000
# 3 -0.009638 -0.005934 0.027200 0.000000 0.000000 0.000000
# 4 0.000000 0.000000 0.000000 0.033821 0.000000 0.000000
# 5 0.000000 0.000000 0.000000 0.000000 0.024947 0.000000
# 6 0.000000 0.000000 0.000000 0.000000 0.000000 0.046036
#
#
# Mechanical properties :
#
#
# Convention : Reuss Voigt Hill
#
# Bulk Modulus (GPa) = 44.15218 48.27887 46.21552
# Shear Modulus (GPa) = 23.70058 26.67520 25.18789
#
# Velocity S-wave (km/s) = 3.37300 3.57841 3.47722
# Velocity P-wave (km/s) = 6.03026 6.34421 6.18923
#
# Compressibility (1/GPa) = 0.02264894
#
# Stress axis : x y z
#
# Youngs Moduli (GPa) = 66.65656 54.26690 36.76419
#
# Poissons Ratio (x) = 0.18548 0.35434
# Poissons Ratio (y) = 0.22783 0.21817
# Poissons Ratio (z) = 0.64245 0.32204
#
# Static dielectric constant tensor:
#      x y z
#    x 1.826810 0.000000 0.000000 
#    y 0.000000 1.881950 0.000000 
#    z 0.000000 0.000000 1.792670 
# 
# From -- ./inp_files/16650.got.cif
#   From: 2010.05.17/outbox.cif.g08.bks.cpg/sg52_9_cif.got.tgz:16650.got - 2010.06.03 12:15:38.
