data_PCOD9411858
_publ_section_title
;
Structure prediction by ZEFSAII (Michael W. Deem and Ramdas Pophale) SiO2 
 PCOD9411858
Probable space group: P N N A
;
_chemical_formula_sum "Si O2"
_cell_formula_units_Z 40
_cell_length_a 15.294698
_cell_length_b 6.792275
_cell_length_c 16.813931
_cell_angle_alpha 90.000000
_cell_angle_beta 90.000000
_cell_angle_gamma 90.000000
_cell_volume 1746.728587
_symmetry_space_group_name_H-M "P N N A"
_symmetry_group_IT_number 52
_symmetry_cell_setting 'orthorhombic'
loop_
_space_group_symop_operation_xyz
x,y,z
1/2-x,-y,z
x,1/2-y,1/2-z
1/2-x,1/2+y,1/2-z
-x,-y,-z
1/2+x,y,-z
-x,1/2+y,1/2+z
1/2+x,1/2-y,1/2+z
loop_
_atom_site_type_symbol
_atom_site_label
_atom_site_fract_x
_atom_site_fract_y
_atom_site_fract_z
Si Si1 0.158243 0.047299 0.606142
Si Si2 0.818809 0.665069 0.830910
Si Si3 0.428373 0.182427 0.483638
Si Si4 0.980799 0.413032 0.814755
Si Si5 0.846472 0.911678 0.993474
O O1 0.145124 0.261734 0.567415
O O2 0.074264 0.999949 0.659650
O O3 0.250000 0.000000 0.646672
O O4 0.153982 0.907531 0.528905
O O5 0.750000 0.500000 0.860288
O O6 0.774869 0.750000 0.750000
O O7 0.907702 0.571639 0.796050
O O8 0.847859 0.799966 0.906817
O O9 0.435396 0.191206 0.390075
O O10 0.416784 0.412553 0.505565
O O11 0.500000 0.000000 0.500000
O O12 0.996173 0.250000 0.750000
O O13 0.750000 0.000000 0.995840
#
# Coordination Sequence:
#
# PCOD9411858 Si02
#       5
#     8   8   8   8   8
#     4  11  23  46  70 101 145 186 245 310 351 437
#     4  12  24  42  67 102 148 186 236 304 380 459
#     4  10  22  41  66 100 139 174 237 300 359 430
#     4  11  24  45  66 101 145 188 238 298 367 442
#     4  12  22  39  72 103 132 186 241 292 377 438
#
# _framework density 22.89995
#
# number of rings (size 3 to 8) (size 9 to 14) (size 15 to 20)
#    0.000    0.800    4.000    4.200    0.000    3.200 
#    7.200    2.000    0.000    0.000    0.000    0.000 
#    0.000    0.000    0.000    0.000    0.000    0.000 
#
# Total GULP energy -222723.815660 kJ/mol
# GULP energy per Si atom -5568.095391 kJ/mol
# Density = 2.284783 g / cm^3
# Si number density = 22.899950 Si / 1000 Ang^3
#
#
#
# Elastic Constant Matrix: (Units=GPa)
#
#
# Indices 1 2 3 4 5 6 
#
# 1 124.6222 43.5660 6.6344 0.0000 0.0000 0.0000
# 2 43.5660 125.7320 14.4043 0.0000 0.0000 0.0000
# 3 6.6344 14.4043 47.8980 0.0000 0.0000 0.0000
# 4 0.0000 0.0000 0.0000 27.5244 0.0000 0.0000
# 5 0.0000 0.0000 0.0000 0.0000 5.5992 0.0000
# 6 0.0000 0.0000 0.0000 0.0000 0.0000 31.8246
#
#
#
# Elastic Compliance Matrix: (Units=1/GPa)
#
#
# Indices 1 2 3 4 5 6 
#
# 1 0.009135 -0.003128 -0.000325 0.000000 0.000000 0.000000
# 2 -0.003128 0.009308 -0.002366 0.000000 0.000000 0.000000
# 3 -0.000325 -0.002366 0.021634 0.000000 0.000000 0.000000
# 4 0.000000 0.000000 0.000000 0.036331 0.000000 0.000000
# 5 0.000000 0.000000 0.000000 0.000000 0.178597 0.000000
# 6 0.000000 0.000000 0.000000 0.000000 0.000000 0.031422
#
#
# Mechanical properties :
#
#
# Convention : Reuss Voigt Hill
#
# Bulk Modulus (GPa) = 35.16151 47.49573 41.32862
# Shear Modulus (GPa) = 16.25774 28.56614 22.41194
#
# Velocity S-wave (km/s) = 2.66737 3.53573 3.13180
# Velocity P-wave (km/s) = 4.98741 6.11998 5.58249
#
# Compressibility (1/GPa) = 0.02844019
#
# Stress axis : x y z
#
# Youngs Moduli (GPa) = 109.46826 107.43019 46.22313
#
# Poissons Ratio (x) = 0.33605 0.01500
# Poissons Ratio (y) = 0.34243 0.10936
# Poissons Ratio (z) = 0.03553 0.25418
#
# Static dielectric constant tensor:
#      x y z
#    x 1.930030 0.000000 0.000000 
#    y 0.000000 2.243620 0.000000 
#    z 0.000000 0.000000 1.868050 
# 
# From -- ./inp_files/33449.got.cif
#   From: 2010.05.17/outbox.cif.g08.bks.cpg/sg52_17_cif.got.tgz:33449.got - 2010.06.03 12:15:38.
