data_PCOD9411927
_publ_section_title
;
Structure prediction by ZEFSAII (Michael W. Deem and Ramdas Pophale) SiO2 
 PCOD9411927
Probable space group: P N N A
;
_chemical_formula_sum "Si O2"
_cell_formula_units_Z 32
_cell_length_a 11.524986
_cell_length_b 6.949017
_cell_length_c 18.973723
_cell_angle_alpha 90.000000
_cell_angle_beta 90.000000
_cell_angle_gamma 90.000000
_cell_volume 1519.554695
_symmetry_space_group_name_H-M "P N N A"
_symmetry_group_IT_number 52
_symmetry_cell_setting 'orthorhombic'
loop_
_space_group_symop_operation_xyz
x,y,z
1/2-x,-y,z
x,1/2-y,1/2-z
1/2-x,1/2+y,1/2-z
-x,-y,-z
1/2+x,y,-z
-x,1/2+y,1/2+z
1/2+x,1/2-y,1/2+z
loop_
_atom_site_type_symbol
_atom_site_label
_atom_site_fract_x
_atom_site_fract_y
_atom_site_fract_z
Si Si1 0.155812 0.171543 0.156107
Si Si2 0.060127 0.530509 0.231662
Si Si3 0.461927 0.712089 0.482077
Si Si4 0.887278 0.507577 0.103740
O O1 0.151460 0.381889 0.193499
O O2 0.143260 0.208258 0.073802
O O3 0.250000 0.000000 0.166591
O O4 0.043351 0.071925 0.192783
O O5 0.093851 0.750000 0.250000
O O6 0.953075 0.529356 0.178130
O O7 0.500000 0.500000 0.500000
O O8 0.426673 0.819084 0.553050
O O9 0.562387 0.825505 0.439741
O O10 0.750000 0.500000 0.111822
#
# Coordination Sequence:
#
# PCOD9411927 Si02
#       4
#     8   8   8   8
#     4  10  23  39  64  98 129 176 230 285 351 408
#     4  10  22  43  61  96 135 174 229 284 333 426
#     4  10  22  42  64  99 134 172 230 283 335 417
#     4  10  23  43  65  97 137 180 228 280 346 415
#
# _framework density 21.058800000000002
#
# number of rings (size 3 to 8) (size 9 to 14) (size 15 to 20)
#    0.000    2.000    0.000    1.500    7.000    0.000 
#    9.000    0.000    0.000    0.000    0.000    0.000 
#    0.000    0.000    0.000    0.000    0.000    0.000 
#
# Total GULP energy -178252.033364 kJ/mol
# GULP energy per Si atom -5570.376043 kJ/mol
# Density = 2.101087 g / cm^3
# Si number density = 21.058800 Si / 1000 Ang^3
#
#
#
# Elastic Constant Matrix: (Units=GPa)
#
#
# Indices 1 2 3 4 5 6 
#
# 1 121.7831 59.7797 42.0322 0.0000 0.0000 0.0000
# 2 59.7797 184.9458 27.3374 0.0000 0.0000 0.0000
# 3 42.0322 27.3374 83.7760 0.0000 0.0000 0.0000
# 4 0.0000 0.0000 0.0000 21.7249 0.0000 0.0000
# 5 0.0000 0.0000 0.0000 0.0000 8.8925 0.0000
# 6 0.0000 0.0000 0.0000 0.0000 0.0000 17.8631
#
#
#
# Elastic Compliance Matrix: (Units=1/GPa)
#
#
# Indices 1 2 3 4 5 6 
#
# 1 0.011282 -0.002952 -0.004697 0.000000 0.000000 0.000000
# 2 -0.002952 0.006454 -0.000625 0.000000 0.000000 0.000000
# 3 -0.004697 -0.000625 0.014497 0.000000 0.000000 0.000000
# 4 0.000000 0.000000 0.000000 0.046030 0.000000 0.000000
# 5 0.000000 0.000000 0.000000 0.000000 0.112454 0.000000
# 6 0.000000 0.000000 0.000000 0.000000 0.000000 0.055981
#
#
# Mechanical properties :
#
#
# Convention : Reuss Voigt Hill
#
# Bulk Modulus (GPa) = 63.75716 72.08927 67.92322
# Shear Modulus (GPa) = 18.62384 27.11983 22.87183
#
# Velocity S-wave (km/s) = 2.97707 3.59251 3.29917
# Velocity P-wave (km/s) = 6.49298 7.17738 6.84374
#
# Compressibility (1/GPa) = 0.01568451
#
# Stress axis : x y z
#
# Youngs Moduli (GPa) = 88.64020 154.95275 68.98005
#
# Poissons Ratio (x) = 0.45746 0.32399
# Poissons Ratio (y) = 0.26169 0.04309
# Poissons Ratio (z) = 0.41633 0.09680
#
# Static dielectric constant tensor:
#      x y z
#    x 1.759640 0.000000 0.000000 
#    y 0.000000 1.761090 0.000000 
#    z 0.000000 0.000000 1.782210 
# 
# From -- ./inp_files/36418.got.cif
#   From: 2010.05.17/outbox.cif.g08.bks.cpg/sg52_19_cif.got.tgz:36418.got - 2010.06.03 12:15:38.
