data_PCOD9411772
_publ_section_title
;
Structure prediction by ZEFSAII (Michael W. Deem and Ramdas Pophale) SiO2 
 PCOD9411772
Probable space group: P N N A
;
_chemical_formula_sum "Si O2"
_cell_formula_units_Z 64
_cell_length_a 8.076474
_cell_length_b 15.196198
_cell_length_c 25.003053
_cell_angle_alpha 90.000000
_cell_angle_beta 90.000000
_cell_angle_gamma 90.000000
_cell_volume 3068.667151
_symmetry_space_group_name_H-M "P N N A"
_symmetry_group_IT_number 52
_symmetry_cell_setting 'orthorhombic'
loop_
_space_group_symop_operation_xyz
x,y,z
1/2-x,-y,z
x,1/2-y,1/2-z
1/2-x,1/2+y,1/2-z
-x,-y,-z
1/2+x,y,-z
-x,1/2+y,1/2+z
1/2+x,1/2-y,1/2+z
loop_
_atom_site_type_symbol
_atom_site_label
_atom_site_fract_x
_atom_site_fract_y
_atom_site_fract_z
Si Si1 0.231202 0.394403 0.310369
Si Si2 0.335650 0.634829 0.076361
Si Si3 0.131507 0.068789 0.979052
Si Si4 0.233895 0.104615 0.306629
Si Si5 0.980901 0.750631 0.188879
Si Si6 0.594792 0.331115 0.581387
Si Si7 0.286501 0.768704 0.919292
Si Si8 0.819232 0.093651 0.476599
O O1 0.250000 0.500000 0.312514
O O2 0.165173 0.367631 0.251369
O O3 0.400490 0.337206 0.316273
O O4 0.117744 0.367794 0.359604
O O5 0.362636 0.614253 0.138201
O O6 0.314676 0.738698 0.075816
O O7 0.496580 0.605843 0.044152
O O8 0.187326 0.595819 0.041341
O O9 0.097271 0.155182 0.944454
O O10 0.250000 0.000000 0.948816
O O11 0.181283 0.109200 0.036551
O O12 0.000000 0.000000 0.000000
O O13 0.398704 0.164508 0.315245
O O14 0.250000 0.000000 0.301514
O O15 0.914164 0.750000 0.250000
O O16 0.847091 0.751695 0.141226
O O17 0.399088 0.309949 0.573736
O O18 0.280092 0.677533 0.952303
O O19 0.750000 0.000000 0.458452
#
# Coordination Sequence:
#
# PCOD9411772 Si02
#       8
#     8   8   8   8   8   8   8   8
#     4  10  22  41  67  93 118 164 218 255 310 375
#     4  11  23  39  63  91 123 164 203 259 311 369
#     4  12  25  41  65  95 133 172 209 257 325 387
#     4  10  22  40  67  92 121 161 215 262 308 373
#     4  10  23  43  65  90 124 170 211 261 321 372
#     4  11  23  41  61  94 129 165 207 262 315 375
#     4  11  26  42  62  94 131 163 211 262 316 387
#     4  11  25  41  62  90 125 162 206 250 316 371
#
# _framework density 20.855958999999999
#
# number of rings (size 3 to 8) (size 9 to 14) (size 15 to 20)
#    0.000    1.250    3.750    1.125    7.000    0.000 
#    4.500    0.000    0.000    0.750    0.000    0.000 
#    0.000    0.000    0.000    0.000    0.000    0.000 
#
# Total GULP energy -356680.062591 kJ/mol
# GULP energy per Si atom -5573.125978 kJ/mol
# Density = 2.080849 g / cm^3
# Si number density = 20.855959 Si / 1000 Ang^3
#
#
#
# Elastic Constant Matrix: (Units=GPa)
#
#
# Indices 1 2 3 4 5 6 
#
# 1 21.0180 18.1897 21.5222 0.0000 0.0000 0.0000
# 2 18.1897 145.2180 36.9651 0.0000 0.0000 0.0000
# 3 21.5222 36.9651 145.5049 0.0000 0.0000 0.0000
# 4 0.0000 0.0000 0.0000 34.0131 0.0000 0.0000
# 5 0.0000 0.0000 0.0000 0.0000 -310.3153 0.0000
# 6 0.0000 0.0000 0.0000 0.0000 0.0000 21.7794
#
#
#
# Elastic Compliance Matrix: (Units=1/GPa)
#
#
# Indices 1 2 3 4 5 6 
#
# 1 0.060085 -0.005628 -0.007458 0.000000 0.000000 0.000000
# 2 -0.005628 0.007889 -0.001172 0.000000 0.000000 0.000000
# 3 -0.007458 -0.001172 0.008273 0.000000 0.000000 0.000000
# 4 0.000000 0.000000 0.000000 0.029400 0.000000 0.000000
# 5 0.000000 0.000000 0.000000 0.000000 -0.003223 0.000000
# 6 0.000000 0.000000 0.000000 0.000000 0.000000 0.045915
#
#
# Mechanical properties :
#
#
# Convention : Reuss Voigt Hill
#
# Bulk Modulus (GPa) = 20.94963 51.67719 36.31341
# Shear Modulus (GPa) = 25.93802 -35.23364 -4.64781
#
# Velocity S-wave (km/s) = 3.53040 -4.11467 -1.49444
# Velocity P-wave (km/s) = 5.16576 1.50265 3.80414
#
# Compressibility (1/GPa) = 0.04773353
#
# Stress axis : x y z
#
# Youngs Moduli (GPa) = 16.64295 126.75204 120.86893
#
# Poissons Ratio (x) = 0.71334 0.90141
# Poissons Ratio (y) = 0.09366 0.14164
# Poissons Ratio (z) = 0.12412 0.14853
#
# Static dielectric constant tensor:
#      x y z
#    x 1.827450 0.000000 0.000000 
#    y 0.000000 1.780600 0.000000 
#    z 0.000000 0.000000 2.130700 
# 
# From -- ./inp_files/39698.got.cif
#   From: 2010.05.17/outbox.cif.g08.bks.cpg/sg52_20_cif.got.tgz:39698.got - 2010.06.03 12:15:38.
