data_PCOD9411206
_publ_section_title
;
Structure prediction by ZEFSAII (Michael W. Deem and Ramdas Pophale) SiO2 
 PCOD9411206
Probable space group: P N N A
;
_chemical_formula_sum "Si O2"
_cell_formula_units_Z 36
_cell_length_a 13.005839
_cell_length_b 21.766611
_cell_length_c 5.286094
_cell_angle_alpha 90.000000
_cell_angle_beta 90.000000
_cell_angle_gamma 90.000000
_cell_volume 1496.456411
_symmetry_space_group_name_H-M "P N N A"
_symmetry_group_IT_number 52
_symmetry_cell_setting 'orthorhombic'
loop_
_space_group_symop_operation_xyz
x,y,z
1/2-x,-y,z
x,1/2-y,1/2-z
1/2-x,1/2+y,1/2-z
-x,-y,-z
1/2+x,y,-z
-x,1/2+y,1/2+z
1/2+x,1/2-y,1/2+z
loop_
_atom_site_type_symbol
_atom_site_label
_atom_site_fract_x
_atom_site_fract_y
_atom_site_fract_z
Si Si1 0.975942 0.538460 0.244770
Si Si2 0.890739 0.250000 0.250000
Si Si3 0.235698 0.189186 0.164969
Si Si4 0.239161 0.066985 0.894578
Si Si5 0.608108 0.868894 0.467513
O O1 0.047621 0.597650 0.192738
O O2 0.000000 0.500000 0.500000
O O3 0.856489 0.554340 0.214663
O O4 0.000000 0.500000 0.000000
O O5 0.819117 0.283009 0.464209
O O6 0.950643 0.190698 0.358449
O O7 0.174351 0.250000 0.250000
O O8 0.292743 0.162540 0.409084
O O9 0.196719 0.125962 0.045868
O O10 0.342924 0.086734 0.747104
O O11 0.250000 0.000000 0.031310
#
# Coordination Sequence:
#
# PCOD9411206 Si02
#       5
#     8   4   8   8   8
#     4  12  27  44  67 106 149 181 235 297 362 435
#     4   8  18  38  68  90 126 180 234 286 354 416
#     4   9  19  38  68  94 130 181 231 286 353 421
#     4  11  22  39  68 102 140 186 236 291 364 429
#     4  10  21  40  70  95 138 184 237 293 358 427
#
# _framework density 24.056832
#
# number of rings (size 3 to 8) (size 9 to 14) (size 15 to 20)
#    0.000    1.778    2.222    1.333    6.222    0.889 
#    0.000    0.000   58.667    0.000    0.000    0.000 
#    0.000    0.000    0.000    0.000    0.000    0.000 
#
# Total GULP energy -200435.139376 kJ/mol
# GULP energy per Si atom -5567.642760 kJ/mol
# Density = 2.400208 g / cm^3
# Si number density = 24.056832 Si / 1000 Ang^3
#
#
#
# Elastic Constant Matrix: (Units=GPa)
#
#
# Indices 1 2 3 4 5 6 
#
# 1 53.5166 32.1036 4.2167 0.0000 0.0000 0.0000
# 2 32.1036 228.5185 58.5085 0.0000 0.0000 0.0000
# 3 4.2167 58.5085 98.4222 0.0000 0.0000 0.0000
# 4 0.0000 0.0000 0.0000 70.3024 0.0000 0.0000
# 5 0.0000 0.0000 0.0000 0.0000 17.7725 0.0000
# 6 0.0000 0.0000 0.0000 0.0000 0.0000 23.8312
#
#
#
# Elastic Compliance Matrix: (Units=1/GPa)
#
#
# Indices 1 2 3 4 5 6 
#
# 1 0.020486 -0.003130 0.000983 0.000000 0.000000 0.000000
# 2 -0.003130 0.005640 -0.003219 0.000000 0.000000 0.000000
# 3 0.000983 -0.003219 0.012032 0.000000 0.000000 0.000000
# 4 0.000000 0.000000 0.000000 0.014224 0.000000 0.000000
# 5 0.000000 0.000000 0.000000 0.000000 0.056267 0.000000
# 6 0.000000 0.000000 0.000000 0.000000 0.000000 0.041962
#
#
# Mechanical properties :
#
#
# Convention : Reuss Voigt Hill
#
# Bulk Modulus (GPa) = 36.46142 63.34612 49.90377
# Shear Modulus (GPa) = 29.32853 41.42311 35.37582
#
# Velocity S-wave (km/s) = 3.49540 4.15406 3.83888
# Velocity P-wave (km/s) = 5.61068 7.02832 6.35913
#
# Compressibility (1/GPa) = 0.02742625
#
# Stress axis : x y z
#
# Youngs Moduli (GPa) = 48.81447 177.31348 83.11502
#
# Poissons Ratio (x) = 0.55492 -0.08168
# Poissons Ratio (y) = 0.15277 0.26751
# Poissons Ratio (z) = -0.04797 0.57069
#
# Static dielectric constant tensor:
#      x y z
#    x 1.966790 0.000000 0.000000 
#    y 0.000000 2.174350 0.000000 
#    z 0.000000 0.000000 1.942320 
# 
# From -- ./inp_files/2166.got.cif
#   From: 2010.05.17/outbox.cif.g08.bks.cpg/sg52_2_cif.got.tgz:2166.got - 2010.06.03 12:15:38.
