data_PCOD9411048
_publ_section_title
;
Structure prediction by ZEFSAII (Michael W. Deem and Ramdas Pophale) SiO2 
 PCOD9411048
Probable space group: P N N A
;
_chemical_formula_sum "Si O2"
_cell_formula_units_Z 52
_cell_length_a 14.341173
_cell_length_b 8.790932
_cell_length_c 17.529011
_cell_angle_alpha 90.000000
_cell_angle_beta 90.000000
_cell_angle_gamma 90.000000
_cell_volume 2209.922324
_symmetry_space_group_name_H-M "P N N A"
_symmetry_group_IT_number 52
_symmetry_cell_setting 'orthorhombic'
loop_
_space_group_symop_operation_xyz
x,y,z
1/2-x,-y,z
x,1/2-y,1/2-z
1/2-x,1/2+y,1/2-z
-x,-y,-z
1/2+x,y,-z
-x,1/2+y,1/2+z
1/2+x,1/2-y,1/2+z
loop_
_atom_site_type_symbol
_atom_site_label
_atom_site_fract_x
_atom_site_fract_y
_atom_site_fract_z
Si Si1 0.016702 0.312406 0.069817
Si Si2 0.864222 0.854443 0.059126
Si Si3 0.332439 0.092324 0.077722
Si Si4 0.003977 0.993515 0.831364
Si Si5 0.252039 0.250000 0.250000
Si Si6 0.389876 0.006324 0.308449
Si Si7 0.301257 0.342252 0.968941
O O1 0.010514 0.173491 0.131196
O O2 0.079477 0.442750 0.109098
O O3 0.908991 0.354361 0.054785
O O4 0.065971 0.253147 0.991541
O O5 0.769063 0.766844 0.078164
O O6 0.904871 0.929247 0.134715
O O7 0.851686 0.993006 0.998585
O O8 0.250000 0.000000 0.119150
O O9 0.422618 0.088557 0.127487
O O10 0.298376 0.252822 0.048848
O O11 0.984400 0.008295 0.742335
O O12 0.173857 0.117842 0.264528
O O13 0.330895 0.338962 0.198123
O O14 0.250000 0.500000 0.972956
#
# Coordination Sequence:
#
# PCOD9411048 Si02
#       7
#     8   8   8   8   4   8   8
#     4  11  21  43  65  98 140 182 231 302 370 420
#     4  10  21  39  67  95 128 179 240 292 350 426
#     4   9  18  34  60  93 127 166 225 286 351 421
#     4  11  19  38  70  96 124 184 235 294 346 441
#     4  10  24  44  62 108 136 186 234 292 364 462
#     4  11  24  42  70  97 145 185 236 294 368 447
#     4  11  23  39  62  96 140 181 227 296 365 427
#
# _framework density 23.530239999999999
#
# number of rings (size 3 to 8) (size 9 to 14) (size 15 to 20)
#    0.000    1.538    4.615    0.923    2.154    3.077 
#    5.538    0.000    6.769    0.000    0.000    0.000 
#    0.000    0.000    0.000    0.000    0.000    0.000 
#
# Total GULP energy -290065.907468 kJ/mol
# GULP energy per Si atom -5578.190528 kJ/mol
# Density = 2.347668 g / cm^3
# Si number density = 23.530240 Si / 1000 Ang^3
#
#
#
# Elastic Constant Matrix: (Units=GPa)
#
#
# Indices 1 2 3 4 5 6 
#
# 1 120.6751 37.4553 27.9937 0.0000 0.0000 0.0000
# 2 37.4553 60.2698 23.8625 0.0000 0.0000 0.0000
# 3 27.9937 23.8625 68.7115 0.0000 0.0000 0.0000
# 4 0.0000 0.0000 0.0000 -58.6746 0.0000 0.0000
# 5 0.0000 0.0000 0.0000 0.0000 -20.5144 0.0000
# 6 0.0000 0.0000 0.0000 0.0000 0.0000 50.1667
#
#
#
# Elastic Compliance Matrix: (Units=1/GPa)
#
#
# Indices 1 2 3 4 5 6 
#
# 1 0.010585 -0.005647 -0.002351 0.000000 0.000000 0.000000
# 2 -0.005647 0.022250 -0.005426 0.000000 0.000000 0.000000
# 3 -0.002351 -0.005426 0.017396 0.000000 0.000000 0.000000
# 4 0.000000 0.000000 0.000000 -0.017043 0.000000 0.000000
# 5 0.000000 0.000000 0.000000 0.000000 -0.048746 0.000000
# 6 0.000000 0.000000 0.000000 0.000000 0.000000 0.019934
#
#
# Mechanical properties :
#
#
# Convention : Reuss Voigt Hill
#
# Bulk Modulus (GPa) = 42.76908 47.58660 45.17784
# Shear Modulus (GPa) = 128.14432 4.88521 66.51477
#
# Velocity S-wave (km/s) = 7.38767 1.44245 5.32251
# Velocity P-wave (km/s) = 9.53865 4.80018 7.55075
#
# Compressibility (1/GPa) = 0.02338138
#
# Stress axis : x y z
#
# Youngs Moduli (GPa) = 94.47401 44.94374 57.48445
#
# Poissons Ratio (x) = 0.25381 0.13516
# Poissons Ratio (y) = 0.53351 0.31193
# Poissons Ratio (z) = 0.22213 0.24388
#
# Static dielectric constant tensor:
#      x y z
#    x 2.172270 0.000000 0.000000 
#    y 0.000000 0.645530 0.000000 
#    z 0.000000 0.000000 1.946280 
# 
# From -- ./inp_files/37249.got.cif
#   From: 2010.05.17/outbox.cif.g08.bks.cpg/sg52_19_cif.got.tgz:37249.got - 2010.06.03 12:15:38.
