data_PCOD9411475
_publ_section_title
;
Structure prediction by ZEFSAII (Michael W. Deem and Ramdas Pophale) SiO2 
 PCOD9411475
Probable space group: P N N A
;
_chemical_formula_sum "Si O2"
_cell_formula_units_Z 44
_cell_length_a 5.090964
_cell_length_b 15.281026
_cell_length_c 28.949574
_cell_angle_alpha 90.000000
_cell_angle_beta 90.000000
_cell_angle_gamma 90.000000
_cell_volume 2252.136546
_symmetry_space_group_name_H-M "P N N A"
_symmetry_group_IT_number 52
_symmetry_cell_setting 'orthorhombic'
loop_
_space_group_symop_operation_xyz
x,y,z
1/2-x,-y,z
x,1/2-y,1/2-z
1/2-x,1/2+y,1/2-z
-x,-y,-z
1/2+x,y,-z
-x,1/2+y,1/2+z
1/2+x,1/2-y,1/2+z
loop_
_atom_site_type_symbol
_atom_site_label
_atom_site_fract_x
_atom_site_fract_y
_atom_site_fract_z
Si Si1 0.527617 0.167377 0.382830
Si Si2 0.794028 0.102129 0.470067
Si Si3 0.225517 0.103784 0.804691
Si Si4 0.750000 0.000000 0.651356
Si Si5 0.083531 0.861839 0.701668
Si Si6 0.211363 0.203406 0.165827
O O1 0.713258 0.160901 0.426826
O O2 0.364086 0.077298 0.379763
O O3 0.701270 0.166117 0.336136
O O4 0.332762 0.249339 0.379156
O O5 0.586167 0.116568 0.511486
O O6 0.750000 0.000000 0.456895
O O7 0.304349 0.129760 0.752501
O O8 0.442228 0.149690 0.837413
O O9 0.936426 0.140642 0.814370
O O10 0.250000 0.000000 0.809242
O O11 0.962199 0.953204 0.684082
O O12 0.860638 0.787208 0.697944
#
# Coordination Sequence:
#
# PCOD9411475 Si02
#       6
#     8   8   8   4   8   8
#     4  11  23  40  58  86 124 161 209 242 302 348
#     4  10  23  37  59  87 122 160 200 244 294 356
#     4  12  26  42  59  86 119 158 209 253 307 345
#     4  10  22  34  58  88 114 172 202 248 282 360
#     4  11  24  38  60  83 123 158 210 245 296 346
#     4  11  26  40  61  84 115 162 202 253 295 353
#
# _framework density 19.537004
#
# number of rings (size 3 to 8) (size 9 to 14) (size 15 to 20)
#    0.000    1.091    1.818    3.818   19.091    0.000 
#    0.000    0.000    0.000    0.000    0.000    0.000 
#    0.000   14.545    0.000    0.000    0.000    0.000 
#
# Total GULP energy -246169.877870 kJ/mol
# GULP energy per Si atom -5594.769952 kJ/mol
# Density = 1.949254 g / cm^3
# Si number density = 19.537004 Si / 1000 Ang^3
#
#
#
# Elastic Constant Matrix: (Units=GPa)
#
#
# Indices 1 2 3 4 5 6 
#
# 1 86.9295 27.7359 4.1600 0.0000 0.0000 0.0000
# 2 27.7359 101.5192 15.0715 0.0000 0.0000 0.0000
# 3 4.1600 15.0715 46.1503 0.0000 0.0000 0.0000
# 4 0.0000 0.0000 0.0000 5.6146 0.0000 0.0000
# 5 0.0000 0.0000 0.0000 0.0000 13.9931 0.0000
# 6 0.0000 0.0000 0.0000 0.0000 0.0000 45.8112
#
#
#
# Elastic Compliance Matrix: (Units=1/GPa)
#
#
# Indices 1 2 3 4 5 6 
#
# 1 0.012602 -0.003441 -0.000012 0.000000 0.000000 0.000000
# 2 -0.003441 0.011292 -0.003377 0.000000 0.000000 0.000000
# 3 -0.000012 -0.003377 0.022772 0.000000 0.000000 0.000000
# 4 0.000000 0.000000 0.000000 0.178107 0.000000 0.000000
# 5 0.000000 0.000000 0.000000 0.000000 0.071464 0.000000
# 6 0.000000 0.000000 0.000000 0.000000 0.000000 0.021829
#
#
# Mechanical properties :
#
#
# Convention : Reuss Voigt Hill
#
# Bulk Modulus (GPa) = 30.29858 36.50375 33.40117
# Shear Modulus (GPa) = 14.58876 25.59254 20.09065
#
# Velocity S-wave (km/s) = 2.73559 3.62325 3.21025
# Velocity P-wave (km/s) = 5.05172 6.01905 5.55648
#
# Compressibility (1/GPa) = 0.03300485
#
# Stress axis : x y z
#
# Youngs Moduli (GPa) = 79.35178 88.55872 43.91274
#
# Poissons Ratio (x) = 0.30475 0.00053
# Poissons Ratio (y) = 0.27307 0.14831
# Poissons Ratio (z) = 0.00096 0.29910
#
# Static dielectric constant tensor:
#      x y z
#    x 1.754690 0.000000 0.000000 
#    y 0.000000 1.710760 0.000000 
#    z 0.000000 0.000000 1.685660 
# 
# From -- ./inp_files/41644.got.cif
#   From: 2010.05.17/outbox.cif.g08.bks.cpg/sg52_21_cif.got.tgz:41644.got - 2010.06.03 12:15:38.
