data_PCOD9411045
_publ_section_title
;
Structure prediction by ZEFSAII (Michael W. Deem and Ramdas Pophale) SiO2 
 PCOD9411045
Probable space group: P N N A
;
_chemical_formula_sum "Si O2"
_cell_formula_units_Z 48
_cell_length_a 22.550120
_cell_length_b 5.952185
_cell_length_c 17.580093
_cell_angle_alpha 90.000000
_cell_angle_beta 90.000000
_cell_angle_gamma 90.000000
_cell_volume 2359.643787
_symmetry_space_group_name_H-M "P N N A"
_symmetry_group_IT_number 52
_symmetry_cell_setting 'orthorhombic'
loop_
_space_group_symop_operation_xyz
x,y,z
1/2-x,-y,z
x,1/2-y,1/2-z
1/2-x,1/2+y,1/2-z
-x,-y,-z
1/2+x,y,-z
-x,1/2+y,1/2+z
1/2+x,1/2-y,1/2+z
loop_
_atom_site_type_symbol
_atom_site_label
_atom_site_fract_x
_atom_site_fract_y
_atom_site_fract_z
Si Si1 0.179827 0.507599 0.034474
Si Si2 0.607296 0.300895 0.420219
Si Si3 0.680245 0.500885 0.289733
Si Si4 0.496423 0.046335 0.409554
Si Si5 0.392641 0.782161 0.339205
Si Si6 0.097525 0.600080 0.447367
O O1 0.250000 0.500000 0.034927
O O2 0.152068 0.450398 0.117487
O O3 0.148804 0.744648 0.017665
O O4 0.154919 0.336489 0.970718
O O5 0.637200 0.467175 0.360985
O O6 0.561518 0.122214 0.384013
O O7 0.573683 0.447538 0.484027
O O8 0.750000 0.500000 0.310729
O O9 0.672435 0.250000 0.250000
O O10 0.669860 0.750000 0.250000
O O11 0.453394 0.259024 0.407485
O O12 0.500000 0.000000 0.500000
O O13 0.459491 0.856943 0.364720
O O14 0.388056 0.750000 0.250000
O O15 0.376749 0.553573 0.381688
#
# Coordination Sequence:
#
# PCOD9411045 Si02
#       6
#     8   8   8   8   8   8
#     4  10  23  39  64 100 128 167 234 280 346 425
#     4  11  23  38  67  94 125 169 226 281 342 416
#     4  10  25  46  65  94 141 187 228 286 355 417
#     4  11  20  40  62  93 127 166 220 282 338 410
#     4  10  23  43  63  93 135 178 222 279 360 421
#     4  10  21  39  67  88 127 170 216 278 345 403
#
# _framework density 20.342053
#
# number of rings (size 3 to 8) (size 9 to 14) (size 15 to 20)
#    0.000    1.667    5.000    0.500    4.667    5.333 
#    6.000    0.000    0.000    0.000    0.000    0.000 
#    0.000    0.000    0.000    0.000    0.000    0.000 
#
# Total GULP energy -267309.041904 kJ/mol
# GULP energy per Si atom -5568.938373 kJ/mol
# Density = 2.029575 g / cm^3
# Si number density = 20.342053 Si / 1000 Ang^3
#
#
#
# Elastic Constant Matrix: (Units=GPa)
#
#
# Indices 1 2 3 4 5 6 
#
# 1 118.6967 30.7271 42.5788 0.0000 0.0000 0.0000
# 2 30.7271 92.3105 26.9340 0.0000 0.0000 0.0000
# 3 42.5788 26.9340 45.3958 0.0000 0.0000 0.0000
# 4 0.0000 0.0000 0.0000 14.0169 0.0000 0.0000
# 5 0.0000 0.0000 0.0000 0.0000 16.7770 0.0000
# 6 0.0000 0.0000 0.0000 0.0000 0.0000 24.1790
#
#
#
# Elastic Compliance Matrix: (Units=1/GPa)
#
#
# Indices 1 2 3 4 5 6 
#
# 1 0.012760 -0.000913 -0.011426 0.000000 0.000000 0.000000
# 2 -0.000913 0.013166 -0.006955 0.000000 0.000000 0.000000
# 3 -0.011426 -0.006955 0.036872 0.000000 0.000000 0.000000
# 4 0.000000 0.000000 0.000000 0.071342 0.000000 0.000000
# 5 0.000000 0.000000 0.000000 0.000000 0.059605 0.000000
# 6 0.000000 0.000000 0.000000 0.000000 0.000000 0.041358
#
#
# Mechanical properties :
#
#
# Convention : Reuss Voigt Hill
#
# Bulk Modulus (GPa) = 41.30677 50.76477 46.03577
# Shear Modulus (GPa) = 17.74533 21.40545 19.57539
#
# Velocity S-wave (km/s) = 2.95676 3.24740 3.10548
# Velocity P-wave (km/s) = 5.65745 6.25064 5.96143
#
# Compressibility (1/GPa) = 0.02420911
#
# Stress axis : x y z
#
# Youngs Moduli (GPa) = 78.36892 75.95099 27.12066
#
# Poissons Ratio (x) = 0.06938 0.30989
# Poissons Ratio (y) = 0.07159 0.18862
# Poissons Ratio (z) = 0.89547 0.52824
#
# Static dielectric constant tensor:
#      x y z
#    x 2.123750 0.000000 0.000000 
#    y 0.000000 1.556220 0.000000 
#    z 0.000000 0.000000 1.726370 
# 
# From -- ./inp_files/34249.got.cif
#   From: 2010.05.17/outbox.cif.g08.bks.cpg/sg52_18_cif.got.tgz:34249.got - 2010.06.03 12:15:38.
