data_PCOD9411616
_publ_section_title
;
Structure prediction by ZEFSAII (Michael W. Deem and Ramdas Pophale) SiO2 
 PCOD9411616
Probable space group: P N N A
;
_chemical_formula_sum "Si O2"
_cell_formula_units_Z 32
_cell_length_a 9.087681
_cell_length_b 5.228573
_cell_length_c 32.331739
_cell_angle_alpha 90.000000
_cell_angle_beta 90.000000
_cell_angle_gamma 90.000000
_cell_volume 1536.262091
_symmetry_space_group_name_H-M "P N N A"
_symmetry_group_IT_number 52
_symmetry_cell_setting 'orthorhombic'
loop_
_space_group_symop_operation_xyz
x,y,z
1/2-x,-y,z
x,1/2-y,1/2-z
1/2-x,1/2+y,1/2-z
-x,-y,-z
1/2+x,y,-z
-x,1/2+y,1/2+z
1/2+x,1/2-y,1/2+z
loop_
_atom_site_type_symbol
_atom_site_label
_atom_site_fract_x
_atom_site_fract_y
_atom_site_fract_z
Si Si1 0.148532 0.750000 0.750000
Si Si2 0.353726 0.253409 0.376889
Si Si3 0.250000 0.000000 0.506222
Si Si4 0.578548 0.582094 0.709534
Si Si5 0.493724 0.703554 0.537508
O O1 0.250000 0.500000 0.759562
O O2 0.036508 0.652009 0.713890
O O3 0.250000 0.500000 0.375564
O O4 0.435745 0.257758 0.332754
O O5 0.460032 0.323269 0.415166
O O6 0.250000 0.000000 0.381681
O O7 0.327028 0.795637 0.535094
O O8 0.119647 0.901232 0.477555
O O9 0.750000 0.500000 0.712082
O O10 0.551331 0.750000 0.750000
O O11 0.500000 0.500000 0.500000
#
# Coordination Sequence:
#
# PCOD9411616 Si02
#       5
#     4   8   4   8   8
#     4  12  26  44  70 104 144 180 224 292 370 420
#     4  11  25  42  71 107 136 178 242 301 342 415
#     4  10  22  38  68  90 134 172 230 274 346 416
#     4  11  23  44  78 102 138 188 246 291 347 433
#     4  11  22  42  65  96 134 183 224 287 353 418
#
# _framework density 20.829781000000001
#
# number of rings (size 3 to 8) (size 9 to 14) (size 15 to 20)
#    0.000    1.000    3.750    3.000    7.000    0.000 
#    0.000    5.000    2.750    0.000    0.000    0.000 
#    0.000    0.000    0.000    0.000    0.000    0.000 
#
# Total GULP energy -178160.330877 kJ/mol
# GULP energy per Si atom -5567.510340 kJ/mol
# Density = 2.078237 g / cm^3
# Si number density = 20.829781 Si / 1000 Ang^3
#
#
#
# Elastic Constant Matrix: (Units=GPa)
#
#
# Indices 1 2 3 4 5 6 
#
# 1 101.6975 34.4619 33.2712 0.0000 0.0000 0.0000
# 2 34.4619 108.4543 37.7955 0.0000 0.0000 0.0000
# 3 33.2712 37.7955 184.8005 0.0000 0.0000 0.0000
# 4 0.0000 0.0000 0.0000 75.2459 0.0000 0.0000
# 5 0.0000 0.0000 0.0000 0.0000 286.6302 0.0000
# 6 0.0000 0.0000 0.0000 0.0000 0.0000 40.3228
#
#
#
# Elastic Compliance Matrix: (Units=1/GPa)
#
#
# Indices 1 2 3 4 5 6 
#
# 1 0.011349 -0.003116 -0.001406 0.000000 0.000000 0.000000
# 2 -0.003116 0.010784 -0.001644 0.000000 0.000000 0.000000
# 3 -0.001406 -0.001644 0.006001 0.000000 0.000000 0.000000
# 4 0.000000 0.000000 0.000000 0.013290 0.000000 0.000000
# 5 0.000000 0.000000 0.000000 0.000000 0.003489 0.000000
# 6 0.000000 0.000000 0.000000 0.000000 0.000000 0.024800
#
#
# Mechanical properties :
#
#
# Convention : Reuss Voigt Hill
#
# Bulk Modulus (GPa) = 63.29031 67.33439 65.31235
# Shear Modulus (GPa) = 57.26593 99.73468 78.50030
#
# Velocity S-wave (km/s) = 5.24900 6.92710 6.14560
# Velocity P-wave (km/s) = 8.19674 9.81712 9.04330
#
# Compressibility (1/GPa) = 0.01580021
#
# Stress axis : x y z
#
# Youngs Moduli (GPa) = 88.11320 92.73201 166.64760
#
# Poissons Ratio (x) = 0.28898 0.23429
# Poissons Ratio (y) = 0.27458 0.27404
# Poissons Ratio (z) = 0.12388 0.15249
#
# Static dielectric constant tensor:
#      x y z
#    x 1.802360 0.000000 0.000000 
#    y 0.000000 1.859650 0.000000 
#    z 0.000000 0.000000 1.880460 
# 
# From -- ./inp_files/44049.got.cif
#   From: 2010.05.17/outbox.cif.g08.bks.cpg/sg52_23_cif.got.tgz:44049.got - 2010.06.03 12:15:38.
