data_PCOD9411717
_publ_section_title
;
Structure prediction by ZEFSAII (Michael W. Deem and Ramdas Pophale) SiO2 
 PCOD9411717
Probable space group: P N N A
;
_chemical_formula_sum "Si O2"
_cell_formula_units_Z 40
_cell_length_a 15.647551
_cell_length_b 23.175061
_cell_length_c 4.836538
_cell_angle_alpha 90.000000
_cell_angle_beta 90.000000
_cell_angle_gamma 90.000000
_cell_volume 1753.888038
_symmetry_space_group_name_H-M "P N N A"
_symmetry_group_IT_number 52
_symmetry_cell_setting 'orthorhombic'
loop_
_space_group_symop_operation_xyz
x,y,z
1/2-x,-y,z
x,1/2-y,1/2-z
1/2-x,1/2+y,1/2-z
-x,-y,-z
1/2+x,y,-z
-x,1/2+y,1/2+z
1/2+x,1/2-y,1/2+z
loop_
_atom_site_type_symbol
_atom_site_label
_atom_site_fract_x
_atom_site_fract_y
_atom_site_fract_z
Si Si1 0.018754 0.904706 0.553651
Si Si2 0.761428 0.357487 0.557771
Si Si3 0.851940 0.306042 0.054876
Si Si4 0.836037 0.024440 0.712043
Si Si5 0.906895 0.582583 0.454226
O O1 0.061676 0.842368 0.501860
O O2 0.086195 0.954369 0.476341
O O3 0.993062 0.908682 0.871599
O O4 0.934707 0.913797 0.363873
O O5 0.792436 0.344302 0.252163
O O6 0.804121 0.417454 0.643802
O O7 0.660471 0.368274 0.542848
O O8 0.799582 0.309806 0.766756
O O9 0.867679 0.250000 0.250000
O O10 0.750000 0.000000 0.566583
O O11 0.867933 0.977367 0.933982
#
# Coordination Sequence:
#
# PCOD9411717 Si02
#       5
#     8   8   8   8   8
#     4  11  22  38  60  92 125 159 202 249 308 366
#     4  10  22  40  62  90 119 160 209 249 298 370
#     4  11  23  43  65  85 116 163 212 256 302 360
#     4   9  20  37  60  90 128 167 201 239 297 375
#     4  11  22  38  61  93 129 157 193 253 312 367
#
# _framework density 22.806474999999999
#
# number of rings (size 3 to 8) (size 9 to 14) (size 15 to 20)
#    0.000    1.600    0.000    5.400    0.000    3.200 
#    0.000   20.000    0.000    0.000    0.000    0.000 
#    0.000    0.000    0.000    0.000    0.000    0.000 
#
# Total GULP energy -223559.695378 kJ/mol
# GULP energy per Si atom -5588.992384 kJ/mol
# Density = 2.275457 g / cm^3
# Si number density = 22.806475 Si / 1000 Ang^3
#
#
#
# Elastic Constant Matrix: (Units=GPa)
#
#
# Indices 1 2 3 4 5 6 
#
# 1 92.9329 33.1260 6.1075 0.0000 0.0000 0.0000
# 2 33.1260 100.0739 0.5082 0.0000 0.0000 0.0000
# 3 6.1075 0.5082 83.4614 0.0000 0.0000 0.0000
# 4 0.0000 0.0000 0.0000 28.7973 0.0000 0.0000
# 5 0.0000 0.0000 0.0000 0.0000 32.5737 0.0000
# 6 0.0000 0.0000 0.0000 0.0000 0.0000 1.9003
#
#
#
# Elastic Compliance Matrix: (Units=1/GPa)
#
#
# Indices 1 2 3 4 5 6 
#
# 1 0.012263 -0.004055 -0.000873 0.000000 0.000000 0.000000
# 2 -0.004055 0.011334 0.000228 0.000000 0.000000 0.000000
# 3 -0.000873 0.000228 0.012044 0.000000 0.000000 0.000000
# 4 0.000000 0.000000 0.000000 0.034725 0.000000 0.000000
# 5 0.000000 0.000000 0.000000 0.000000 0.030700 0.000000
# 6 0.000000 0.000000 0.000000 0.000000 0.000000 0.526240
#
#
# Mechanical properties :
#
#
# Convention : Reuss Voigt Hill
#
# Bulk Modulus (GPa) = 38.10799 39.55017 38.82908
# Shear Modulus (GPa) = 7.74651 28.43602 18.09127
#
# Velocity S-wave (km/s) = 1.84499 3.53489 2.81953
# Velocity P-wave (km/s) = 4.61348 5.83437 5.25947
#
# Compressibility (1/GPa) = 0.02624122
#
# Stress axis : x y z
#
# Youngs Moduli (GPa) = 81.54504 88.23263 83.02844
#
# Poissons Ratio (x) = 0.35777 0.07246
# Poissons Ratio (y) = 0.33065 -0.01891
# Poissons Ratio (z) = 0.07116 -0.02009
#
# Static dielectric constant tensor:
#      x y z
#    x 1.864680 0.000000 0.000000 
#    y 0.000000 2.011560 0.000000 
#    z 0.000000 0.000000 1.879860 
# 
# From -- ./inp_files/2267.got.cif
#   From: 2010.05.17/outbox.cif.g08.bks.cpg/sg52_2_cif.got.tgz:2267.got - 2010.06.03 12:15:38.
