data_PCOD9411367
_publ_section_title
;
Structure prediction by ZEFSAII (Michael W. Deem and Ramdas Pophale) SiO2 
 PCOD9411367
Probable space group: P N N A
;
_chemical_formula_sum "Si O2"
_cell_formula_units_Z 56
_cell_length_a 13.871135
_cell_length_b 15.796081
_cell_length_c 11.143008
_cell_angle_alpha 90.000000
_cell_angle_beta 90.000000
_cell_angle_gamma 90.000000
_cell_volume 2441.539714
_symmetry_space_group_name_H-M "P N N A"
_symmetry_group_IT_number 52
_symmetry_cell_setting 'orthorhombic'
loop_
_space_group_symop_operation_xyz
x,y,z
1/2-x,-y,z
x,1/2-y,1/2-z
1/2-x,1/2+y,1/2-z
-x,-y,-z
1/2+x,y,-z
-x,1/2+y,1/2+z
1/2+x,1/2-y,1/2+z
loop_
_atom_site_type_symbol
_atom_site_label
_atom_site_fract_x
_atom_site_fract_y
_atom_site_fract_z
Si Si1 0.846987 0.357311 0.033243
Si Si2 0.306713 0.177948 0.071455
Si Si3 0.670637 0.564254 0.790673
Si Si4 0.467858 0.032344 0.681251
Si Si5 0.339124 0.630712 0.815412
Si Si6 0.544474 0.914232 0.052677
Si Si7 0.886968 0.795347 0.055417
O O1 0.945576 0.401797 0.075053
O O2 0.771427 0.360616 0.142835
O O3 0.854354 0.263299 0.980647
O O4 0.799644 0.408240 0.923539
O O5 0.332607 0.146499 0.204849
O O6 0.347324 0.101190 0.990999
O O7 0.194456 0.193198 0.046204
O O8 0.750000 0.500000 0.739679
O O9 0.568736 0.517264 0.807239
O O10 0.459801 0.082715 0.805412
O O11 0.384912 0.961276 0.670232
O O12 0.394168 0.698667 0.900338
O O13 0.352889 0.657748 0.677501
O O14 0.480933 0.840602 0.993559
O O15 0.500000 0.000000 0.000000
#
# Coordination Sequence:
#
# PCOD9411367 Si02
#       7
#     8   8   8   8   8   8   8
#     4  11  26  45  68 102 140 190 240 292 360 429
#     4  11  25  44  70  96 146 187 232 299 359 420
#     4  12  25  44  70 101 143 189 242 287 357 432
#     4  12  24  43  72 102 140 183 238 298 357 421
#     4  10  21  42  70 101 137 186 230 297 351 425
#     4  12  23  42  68 109 132 179 241 296 353 432
#     4  10  22  41  69 104 140 181 238 287 359 421
#
# _framework density 22.936344999999999
#
# number of rings (size 3 to 8) (size 9 to 14) (size 15 to 20)
#    0.000    0.857    2.857    3.857    2.000    1.714 
#    2.571    0.000    0.000    0.000    0.000    0.000 
#    0.000    0.000    0.000    0.000    0.000    0.000 
#
# Total GULP energy -313230.180559 kJ/mol
# GULP energy per Si atom -5593.396081 kJ/mol
# Density = 2.288414 g / cm^3
# Si number density = 22.936345 Si / 1000 Ang^3
#
#
#
# Elastic Constant Matrix: (Units=GPa)
#
#
# Indices 1 2 3 4 5 6 
#
# 1 81.6499 49.8972 36.4538 0.0000 0.0000 0.0000
# 2 49.8972 94.0300 34.5474 0.0000 0.0000 0.0000
# 3 36.4538 34.5474 108.5286 0.0000 0.0000 0.0000
# 4 0.0000 0.0000 0.0000 41.2434 0.0000 0.0000
# 5 0.0000 0.0000 0.0000 0.0000 32.0702 0.0000
# 6 0.0000 0.0000 0.0000 0.0000 0.0000 34.6487
#
#
#
# Elastic Compliance Matrix: (Units=1/GPa)
#
#
# Indices 1 2 3 4 5 6 
#
# 1 0.019325 -0.008913 -0.003654 0.000000 0.000000 0.000000
# 2 -0.008913 0.016154 -0.002149 0.000000 0.000000 0.000000
# 3 -0.003654 -0.002149 0.011125 0.000000 0.000000 0.000000
# 4 0.000000 0.000000 0.000000 0.024246 0.000000 0.000000
# 5 0.000000 0.000000 0.000000 0.000000 0.031182 0.000000
# 6 0.000000 0.000000 0.000000 0.000000 0.000000 0.028861
#
#
# Mechanical properties :
#
#
# Convention : Reuss Voigt Hill
#
# Bulk Modulus (GPa) = 58.22661 58.44503 58.33582
# Shear Modulus (GPa) = 30.11165 32.47980 31.29572
#
# Velocity S-wave (km/s) = 3.62724 3.76717 3.69787
# Velocity P-wave (km/s) = 6.55620 6.66775 6.61221
#
# Compressibility (1/GPa) = 0.01717428
#
# Stress axis : x y z
#
# Youngs Moduli (GPa) = 51.74536 61.90520 89.88375
#
# Poissons Ratio (x) = 0.55173 0.32845
# Poissons Ratio (y) = 0.46118 0.19312
# Poissons Ratio (z) = 0.18909 0.13300
#
# Static dielectric constant tensor:
#      x y z
#    x 1.865780 0.000000 0.000000 
#    y 0.000000 2.253470 0.000000 
#    z 0.000000 0.000000 1.841070 
# 
# From -- ./inp_files/19636.got.cif
#   From: 2010.05.17/outbox.cif.g08.bks.cpg/sg52_10_cif.got.tgz:19636.got - 2010.06.03 12:15:38.
