data_PCOD9411096
_publ_section_title
;
Structure prediction by ZEFSAII (Michael W. Deem and Ramdas Pophale) SiO2 
 PCOD9411096
Probable space group: P N N A
;
_chemical_formula_sum "Si O2"
_cell_formula_units_Z 48
_cell_length_a 8.181513
_cell_length_b 9.436685
_cell_length_c 29.583046
_cell_angle_alpha 90.000000
_cell_angle_beta 90.000000
_cell_angle_gamma 90.000000
_cell_volume 2283.999329
_symmetry_space_group_name_H-M "P N N A"
_symmetry_group_IT_number 52
_symmetry_cell_setting 'orthorhombic'
loop_
_space_group_symop_operation_xyz
x,y,z
1/2-x,-y,z
x,1/2-y,1/2-z
1/2-x,1/2+y,1/2-z
-x,-y,-z
1/2+x,y,-z
-x,1/2+y,1/2+z
1/2+x,1/2-y,1/2+z
loop_
_atom_site_type_symbol
_atom_site_label
_atom_site_fract_x
_atom_site_fract_y
_atom_site_fract_z
Si Si1 0.401387 0.907115 0.268020
Si Si2 0.435630 0.458506 0.048261
Si Si3 0.471674 0.461624 0.855732
Si Si4 0.250000 0.500000 0.483092
Si Si5 0.672009 0.243725 0.154213
Si Si6 0.056348 0.144027 0.941519
Si Si7 0.250000 0.500000 0.726328
O O1 0.388088 0.750000 0.250000
O O2 0.392039 0.902504 0.322444
O O3 0.584450 0.963466 0.254431
O O4 0.250000 0.000000 0.250396
O O5 0.250000 0.500000 0.051127
O O6 0.516329 0.535556 0.090595
O O7 0.469722 0.293917 0.053341
O O8 0.500000 0.500000 0.000000
O O9 0.460840 0.629334 0.841746
O O10 0.326379 0.349123 0.848424
O O11 0.191354 0.379704 0.519101
O O12 0.408841 0.465493 0.452595
O O13 0.635689 0.153342 0.108479
O O14 0.700929 0.134384 0.194909
#
# Coordination Sequence:
#
# PCOD9411096 Si02
#       7
#     8   8   8   4   8   8   4
#     4  12  28  48  76 110 143 189 240 297 364 436
#     4  11  24  40  64  97 129 175 227 277 333 409
#     4  10  23  44  70  96 142 182 226 292 354 417
#     4  10  21  40  62  92 132 186 228 299 352 410
#     4  10  22  42  68 101 134 185 229 286 354 426
#     4  10  22  40  62  92 131 179 233 283 350 417
#     4  12  25  48  74 108 142 188 236 293 360 430
#
# _framework density 21.015768000000001
#
# number of rings (size 3 to 8) (size 9 to 14) (size 15 to 20)
#    0.000    1.333    1.667    3.000    9.333    0.000 
#    4.500    0.000    0.000    0.000    0.000    0.000 
#    0.000    0.000    0.000    0.000    0.000    0.000 
#
# Total GULP energy -267570.406107 kJ/mol
# GULP energy per Si atom -5574.383461 kJ/mol
# Density = 2.096793 g / cm^3
# Si number density = 21.015768 Si / 1000 Ang^3
#
#
#
# Elastic Constant Matrix: (Units=GPa)
#
#
# Indices 1 2 3 4 5 6 
#
# 1 85.6948 32.3338 17.8831 0.0000 0.0000 0.0000
# 2 32.3338 85.7708 51.9809 0.0000 0.0000 0.0000
# 3 17.8831 51.9809 122.5948 0.0000 0.0000 0.0000
# 4 0.0000 0.0000 0.0000 46.7112 0.0000 0.0000
# 5 0.0000 0.0000 0.0000 0.0000 69.1685 0.0000
# 6 0.0000 0.0000 0.0000 0.0000 0.0000 29.2958
#
#
#
# Elastic Compliance Matrix: (Units=1/GPa)
#
#
# Indices 1 2 3 4 5 6 
#
# 1 0.013610 -0.005286 0.000256 0.000000 0.000000 0.000000
# 2 -0.005286 0.017744 -0.006752 0.000000 0.000000 0.000000
# 3 0.000256 -0.006752 0.010983 0.000000 0.000000 0.000000
# 4 0.000000 0.000000 0.000000 0.021408 0.000000 0.000000
# 5 0.000000 0.000000 0.000000 0.000000 0.014457 0.000000
# 6 0.000000 0.000000 0.000000 0.000000 0.000000 0.034135
#
#
# Mechanical properties :
#
#
# Convention : Reuss Voigt Hill
#
# Bulk Modulus (GPa) = 53.27070 55.38400 54.32735
# Shear Modulus (GPa) = 35.17174 41.82592 38.49883
#
# Velocity S-wave (km/s) = 4.09539 4.46602 4.28472
# Velocity P-wave (km/s) = 6.91129 7.28042 7.09826
#
# Compressibility (1/GPa) = 0.01877205
#
# Stress axis : x y z
#
# Youngs Moduli (GPa) = 73.47343 56.35723 91.05215
#
# Poissons Ratio (x) = 0.29790 -0.02330
# Poissons Ratio (y) = 0.38837 0.61483
# Poissons Ratio (z) = -0.01880 0.38055
#
# Static dielectric constant tensor:
#      x y z
#    x 1.952080 0.000000 0.000000 
#    y 0.000000 1.739120 0.000000 
#    z 0.000000 0.000000 1.717940 
# 
# From -- ./inp_files/44441.got.cif
#   From: 2010.05.17/outbox.cif.g08.bks.cpg/sg52_23_cif.got.tgz:44441.got - 2010.06.03 12:15:38.
