data_PCOD9411885
_publ_section_title
;
Structure prediction by ZEFSAII (Michael W. Deem and Ramdas Pophale) SiO2 
 PCOD9411885
Probable space group: P N N A
;
_chemical_formula_sum "Si O2"
_cell_formula_units_Z 40
_cell_length_a 14.512768
_cell_length_b 15.412977
_cell_length_c 7.308957
_cell_angle_alpha 90.000000
_cell_angle_beta 90.000000
_cell_angle_gamma 90.000000
_cell_volume 1634.903750
_symmetry_space_group_name_H-M "P N N A"
_symmetry_group_IT_number 52
_symmetry_cell_setting 'orthorhombic'
loop_
_space_group_symop_operation_xyz
x,y,z
1/2-x,-y,z
x,1/2-y,1/2-z
1/2-x,1/2+y,1/2-z
-x,-y,-z
1/2+x,y,-z
-x,1/2+y,1/2+z
1/2+x,1/2-y,1/2+z
loop_
_atom_site_type_symbol
_atom_site_label
_atom_site_fract_x
_atom_site_fract_y
_atom_site_fract_z
Si Si1 0.094396 0.692883 0.604711
Si Si2 0.156051 0.454181 0.182089
Si Si3 0.858881 0.482026 0.183644
Si Si4 0.220007 0.273177 0.038061
Si Si5 0.923630 0.627310 0.450615
O O1 0.036808 0.750000 0.750000
O O2 0.124779 0.606190 0.707453
O O3 0.181095 0.750812 0.547135
O O4 0.026272 0.664358 0.446333
O O5 0.250000 0.500000 0.254020
O O6 0.184993 0.371517 0.055282
O O7 0.096611 0.421420 0.353510
O O8 0.113365 0.518582 0.030673
O O9 0.750000 0.500000 0.192476
O O10 0.907942 0.558377 0.293613
O O11 0.228457 0.250000 0.250000
O O12 0.147994 0.206924 0.947043
#
# Coordination Sequence:
#
# PCOD9411885 Si02
#       5
#     8   8   8   8   8
#     4  12  24  43  65  98 134 168 224 272 326 399
#     4  10  22  41  69  97 129 176 219 264 332 392
#     4  11  22  42  69  96 131 178 214 271 330 384
#     4  10  23  44  66  92 131 174 215 273 332 389
#     4  11  24  44  67  95 134 172 218 275 329 389
#
# _framework density 24.466273000000001
#
# number of rings (size 3 to 8) (size 9 to 14) (size 15 to 20)
#    0.000    1.200    2.000    5.400    2.800    0.800 
#    7.200    0.000    0.000    0.000    0.000    0.000 
#    0.000    0.000    0.000    0.000    0.000    0.000 
#
# Total GULP energy -223986.047378 kJ/mol
# GULP energy per Si atom -5599.651184 kJ/mol
# Density = 2.441059 g / cm^3
# Si number density = 24.466273 Si / 1000 Ang^3
#
#
#
# Elastic Constant Matrix: (Units=GPa)
#
#
# Indices 1 2 3 4 5 6 
#
# 1 81.5327 2.1129 14.5084 0.0000 0.0000 0.0000
# 2 2.1129 59.5265 3.2910 0.0000 0.0000 0.0000
# 3 14.5084 3.2910 77.8569 0.0000 0.0000 0.0000
# 4 0.0000 0.0000 0.0000 43.1126 0.0000 0.0000
# 5 0.0000 0.0000 0.0000 0.0000 6.5380 0.0000
# 6 0.0000 0.0000 0.0000 0.0000 0.0000 -17.1184
#
#
#
# Elastic Compliance Matrix: (Units=1/GPa)
#
#
# Indices 1 2 3 4 5 6 
#
# 1 0.012692 -0.000320 -0.002352 0.000000 0.000000 0.000000
# 2 -0.000320 0.016847 -0.000652 0.000000 0.000000 0.000000
# 3 -0.002352 -0.000652 0.013310 0.000000 0.000000 0.000000
# 4 0.000000 0.000000 0.000000 0.023195 0.000000 0.000000
# 5 0.000000 0.000000 0.000000 0.000000 0.152952 0.000000
# 6 0.000000 0.000000 0.000000 0.000000 0.000000 -0.058417
#
#
# Mechanical properties :
#
#
# Convention : Reuss Voigt Hill
#
# Bulk Modulus (GPa) = 27.62468 28.74897 28.18682
# Shear Modulus (GPa) = 27.88716 19.77336 23.83026
#
# Velocity S-wave (km/s) = 3.37979 2.84595 3.12429
# Velocity P-wave (km/s) = 5.15228 4.75134 4.95587
#
# Compressibility (1/GPa) = 0.03619951
#
# Stress axis : x y z
#
# Youngs Moduli (GPa) = 78.79122 59.35883 75.13230
#
# Poissons Ratio (x) = 0.01902 0.17668
# Poissons Ratio (y) = 0.02525 0.04902
# Poissons Ratio (z) = 0.18528 0.03873
#
# Static dielectric constant tensor:
#      x y z
#    x 1.946580 0.000000 0.000000 
#    y 0.000000 2.063950 0.000000 
#    z 0.000000 0.000000 1.939900 
# 
# From -- ./inp_files/10057.got.cif
#   From: 2010.05.17/outbox.cif.g08.bks.cpg/sg52_6_cif.got.tgz:10057.got - 2010.06.03 12:15:38.
