data_PCOD9411376
_publ_section_title
;
Structure prediction by ZEFSAII (Michael W. Deem and Ramdas Pophale) SiO2 
 PCOD9411376
Probable space group: P N N A
;
_chemical_formula_sum "Si O2"
_cell_formula_units_Z 48
_cell_length_a 8.809588
_cell_length_b 10.286880
_cell_length_c 25.571239
_cell_angle_alpha 90.000000
_cell_angle_beta 90.000000
_cell_angle_gamma 90.000000
_cell_volume 2317.346857
_symmetry_space_group_name_H-M "P N N A"
_symmetry_group_IT_number 52
_symmetry_cell_setting 'orthorhombic'
loop_
_space_group_symop_operation_xyz
x,y,z
1/2-x,-y,z
x,1/2-y,1/2-z
1/2-x,1/2+y,1/2-z
-x,-y,-z
1/2+x,y,-z
-x,1/2+y,1/2+z
1/2+x,1/2-y,1/2+z
loop_
_atom_site_type_symbol
_atom_site_label
_atom_site_fract_x
_atom_site_fract_y
_atom_site_fract_z
Si Si1 0.557058 0.269744 0.941083
Si Si2 0.084901 0.721700 0.447019
Si Si3 0.150800 0.887467 0.864558
Si Si4 0.576422 0.031776 0.395815
Si Si5 0.910566 0.065025 0.846673
Si Si6 0.905180 0.784813 0.309519
O O1 0.736645 0.253785 0.946420
O O2 0.477297 0.182402 0.897538
O O3 0.520033 0.415317 0.920957
O O4 0.476986 0.222043 0.994329
O O5 0.070477 0.596839 0.408900
O O6 0.986096 0.836882 0.421489
O O7 0.266783 0.782166 0.841956
O O8 0.250000 0.000000 0.892670
O O9 0.048091 0.974815 0.825800
O O10 0.575031 0.070706 0.333807
O O11 0.750000 0.000000 0.409851
O O12 0.939816 0.205041 0.821214
O O13 0.750000 0.000000 0.837070
O O14 0.869645 0.750000 0.250000
#
# Coordination Sequence:
#
# PCOD9411376 Si02
#       6
#     8   8   8   8   8   8
#     4  12  23  40  61  96 129 178 215 272 314 395
#     4  11  25  38  64  92 134 174 222 256 335 382
#     4  10  22  40  64  89 131 166 214 268 322 384
#     4  11  22  41  64  91 132 167 212 272 324 393
#     4  10  21  43  63  92 133 169 208 274 320 393
#     4  10  23  44  70  97 122 170 221 275 335 391
#
# _framework density 20.713343999999999
#
# number of rings (size 3 to 8) (size 9 to 14) (size 15 to 20)
#    0.000    1.333    3.333    2.000    4.667    3.333 
#    0.000    4.167    0.000    0.000    0.000    0.000 
#    0.000    0.000    0.000    0.000    0.000    0.000 
#
# Total GULP energy -267403.327631 kJ/mol
# GULP energy per Si atom -5570.902659 kJ/mol
# Density = 2.066620 g / cm^3
# Si number density = 20.713344 Si / 1000 Ang^3
#
#
#
# Elastic Constant Matrix: (Units=GPa)
#
#
# Indices 1 2 3 4 5 6 
#
# 1 158.4970 25.8198 17.8261 0.0000 0.0000 0.0000
# 2 25.8198 41.0717 -6.6087 0.0000 0.0000 0.0000
# 3 17.8261 -6.6087 58.3647 0.0000 0.0000 0.0000
# 4 0.0000 0.0000 0.0000 15.4333 0.0000 0.0000
# 5 0.0000 0.0000 0.0000 0.0000 13.9714 0.0000
# 6 0.0000 0.0000 0.0000 0.0000 0.0000 40.0015
#
#
#
# Elastic Compliance Matrix: (Units=1/GPa)
#
#
# Indices 1 2 3 4 5 6 
#
# 1 0.007472 -0.005158 -0.002866 0.000000 0.000000 0.000000
# 2 -0.005158 0.028361 0.004787 0.000000 0.000000 0.000000
# 3 -0.002866 0.004787 0.018551 0.000000 0.000000 0.000000
# 4 0.000000 0.000000 0.000000 0.064795 0.000000 0.000000
# 5 0.000000 0.000000 0.000000 0.000000 0.071575 0.000000
# 6 0.000000 0.000000 0.000000 0.000000 0.000000 0.024999
#
#
# Mechanical properties :
#
#
# Convention : Reuss Voigt Hill
#
# Bulk Modulus (GPa) = 20.87328 36.88975 28.88151
# Shear Modulus (GPa) = 20.99095 28.60764 24.79930
#
# Velocity S-wave (km/s) = 3.18685 3.72038 3.46390
# Velocity P-wave (km/s) = 4.86215 6.02522 5.47466
#
# Compressibility (1/GPa) = 0.04790814
#
# Stress axis : x y z
#
# Youngs Moduli (GPa) = 133.83367 35.26001 53.90520
#
# Poissons Ratio (x) = 0.18189 0.15450
# Poissons Ratio (y) = 0.69037 -0.25804
# Poissons Ratio (z) = 0.38360 -0.16878
#
# Static dielectric constant tensor:
#      x y z
#    x 1.726680 0.000000 0.000000 
#    y 0.000000 1.794700 0.000000 
#    z 0.000000 0.000000 1.813840 
# 
# From -- ./inp_files/39471.got.cif
#   From: 2010.05.17/outbox.cif.g08.bks.cpg/sg52_20_cif.got.tgz:39471.got - 2010.06.03 12:15:38.
