data_PCOD9411722
_publ_section_title
;
Structure prediction by ZEFSAII (Michael W. Deem and Ramdas Pophale) SiO2 
 PCOD9411722
Probable space group: P N N A
;
_chemical_formula_sum "Si O2"
_cell_formula_units_Z 56
_cell_length_a 31.159482
_cell_length_b 5.630898
_cell_length_c 14.502519
_cell_angle_alpha 90.000000
_cell_angle_beta 90.000000
_cell_angle_gamma 90.000000
_cell_volume 2544.552014
_symmetry_space_group_name_H-M "P N N A"
_symmetry_group_IT_number 52
_symmetry_cell_setting 'orthorhombic'
loop_
_space_group_symop_operation_xyz
x,y,z
1/2-x,-y,z
x,1/2-y,1/2-z
1/2-x,1/2+y,1/2-z
-x,-y,-z
1/2+x,y,-z
-x,1/2+y,1/2+z
1/2+x,1/2-y,1/2+z
loop_
_atom_site_type_symbol
_atom_site_label
_atom_site_fract_x
_atom_site_fract_y
_atom_site_fract_z
Si Si1 0.925998 0.016689 0.990874
Si Si2 0.623360 0.606066 0.921607
Si Si3 0.295471 0.500502 0.195250
Si Si4 0.230154 0.249932 0.858988
Si Si5 0.131509 0.150329 0.603503
Si Si6 0.038728 0.335354 0.144345
Si Si7 0.447091 0.116338 0.654035
O O1 0.891190 0.122597 0.918891
O O2 0.961336 0.884095 0.928802
O O3 0.941017 0.218897 0.063016
O O4 0.897805 0.844249 0.053567
O O5 0.662042 0.517770 0.862244
O O6 0.580206 0.475585 0.889568
O O7 0.637978 0.549265 0.025460
O O8 0.250000 0.500000 0.142158
O O9 0.294621 0.250000 0.250000
O O10 0.296992 0.750000 0.250000
O O11 0.250000 0.500000 0.895891
O O12 0.240905 0.250000 0.750000
O O13 0.178114 0.260012 0.866659
O O14 0.250000 0.000000 0.896656
O O15 0.096165 0.034376 0.670550
O O16 0.044319 0.250000 0.250000
O O17 0.994841 0.489527 0.137780
O O18 0.452802 0.250000 0.750000
#
# Coordination Sequence:
#
# PCOD9411722 Si02
#       7
#     8   8   8   8   8   8   8
#     4  10  23  39  61  94 126 176 215 281 333 404
#     4  10  23  39  62  91 130 173 219 273 336 399
#     4  10  23  42  67  96 129 172 224 279 337 400
#     4  10  24  43  69  98 129 172 222 276 341 408
#     4  10  24  41  62  92 130 166 221 275 337 401
#     4  10  22  40  62  93 128 172 225 274 336 405
#     4  10  23  40  64  93 127 173 223 276 340 404
#
# _framework density 22.007802999999999
#
# number of rings (size 3 to 8) (size 9 to 14) (size 15 to 20)
#    0.000    2.000    0.000    0.857   12.000    7.429 
#    0.000    2.857    0.000    0.000    0.000    0.000 
#    0.000    0.000    0.000    0.000    0.000    0.000 
#
# Total GULP energy -311791.419208 kJ/mol
# GULP energy per Si atom -5567.703914 kJ/mol
# Density = 2.195771 g / cm^3
# Si number density = 22.007803 Si / 1000 Ang^3
#
#
#
# Elastic Constant Matrix: (Units=GPa)
#
#
# Indices 1 2 3 4 5 6 
#
# 1 144.7949 27.5761 16.7431 0.0000 0.0000 0.0000
# 2 27.5761 70.2190 14.9564 0.0000 0.0000 0.0000
# 3 16.7431 14.9564 54.3852 0.0000 0.0000 0.0000
# 4 0.0000 0.0000 0.0000 16.6655 0.0000 0.0000
# 5 0.0000 0.0000 0.0000 0.0000 -0.7137 0.0000
# 6 0.0000 0.0000 0.0000 0.0000 0.0000 22.3145
#
#
#
# Elastic Compliance Matrix: (Units=1/GPa)
#
#
# Indices 1 2 3 4 5 6 
#
# 1 0.007595 -0.002639 -0.001612 0.000000 0.000000 0.000000
# 2 -0.002639 0.016044 -0.003600 0.000000 0.000000 0.000000
# 3 -0.001612 -0.003600 0.019874 0.000000 0.000000 0.000000
# 4 0.000000 0.000000 0.000000 0.060004 0.000000 0.000000
# 5 0.000000 0.000000 0.000000 0.000000 -1.401168 0.000000
# 6 0.000000 0.000000 0.000000 0.000000 0.000000 0.044814
#
#
# Mechanical properties :
#
#
# Convention : Reuss Voigt Hill
#
# Bulk Modulus (GPa) = 35.95790 43.10560 39.53175
# Shear Modulus (GPa) = -4.07211 21.66150 8.79469
#
# Velocity S-wave (km/s) = -1.36173 3.14070 2.00121
# Velocity P-wave (km/s) = 3.72850 5.72547 4.83129
#
# Compressibility (1/GPa) = 0.02781030
#
# Stress axis : x y z
#
# Youngs Moduli (GPa) = 131.65775 62.32687 50.31760
#
# Poissons Ratio (x) = 0.16451 0.08114
# Poissons Ratio (y) = 0.34750 0.18113
# Poissons Ratio (z) = 0.21230 0.22436
#
# Static dielectric constant tensor:
#      x y z
#    x 1.828950 0.000000 0.000000 
#    y 0.000000 1.918020 0.000000 
#    z 0.000000 0.000000 1.805350 
# 
# From -- ./inp_files/29679.got.cif
#   From: 2010.05.17/outbox.cif.g08.bks.cpg/sg52_15_cif.got.tgz:29679.got - 2010.06.03 12:15:38.
