data_PCOD9411481
_publ_section_title
;
Structure prediction by ZEFSAII (Michael W. Deem and Ramdas Pophale) SiO2 
 PCOD9411481
Probable space group: P N N A
;
_chemical_formula_sum "Si O2"
_cell_formula_units_Z 32
_cell_length_a 7.078728
_cell_length_b 20.409361
_cell_length_c 7.158932
_cell_angle_alpha 90.000000
_cell_angle_beta 90.000000
_cell_angle_gamma 90.000000
_cell_volume 1034.267480
_symmetry_space_group_name_H-M "P N N A"
_symmetry_group_IT_number 52
_symmetry_cell_setting 'orthorhombic'
loop_
_space_group_symop_operation_xyz
x,y,z
1/2-x,-y,z
x,1/2-y,1/2-z
1/2-x,1/2+y,1/2-z
-x,-y,-z
1/2+x,y,-z
-x,1/2+y,1/2+z
1/2+x,1/2-y,1/2+z
loop_
_atom_site_type_symbol
_atom_site_label
_atom_site_fract_x
_atom_site_fract_y
_atom_site_fract_z
Si Si1 0.606572 0.750000 0.250000
Si Si2 0.295208 0.192235 0.329676
Si Si3 0.390819 0.561319 0.111863
Si Si4 0.355689 0.870609 0.802542
Si Si5 0.250000 0.000000 0.821433
O O1 0.679231 0.823519 0.165477
O O2 0.021127 0.816966 0.204829
O O3 0.148661 0.250000 0.250000
O O4 0.191801 0.125352 0.296613
O O5 0.354332 0.213198 0.534159
O O6 0.250000 0.500000 0.127221
O O7 0.584712 0.536911 0.202806
O O8 0.403470 0.592656 0.900522
O O9 0.343330 0.937529 0.923997
#
# Coordination Sequence:
#
# PCOD9411481 Si02
#       5
#     4   8   8   8   4
#     4  10  22  38  46  68 112 158 180 224 262 330
#     4  10  22  35  50  73 112 153 186 216 263 339
#     4  12  23  34  57  90 118 145 181 227 282 336
#     4  12  21  34  52  78 111 149 180 222 277 330
#     4  12  20  32  54  82 116 144 176 222 280 328
#
# _framework density 30.939772000000001
#
# number of rings (size 3 to 8) (size 9 to 14) (size 15 to 20)
#    0.750    0.000    7.500    2.250    0.000    2.000 
#    0.000    0.000    0.000    0.000    0.000    0.000 
#    3.750   10.000    0.000    0.000    0.000    0.000 
#
# Total GULP energy -178416.693305 kJ/mol
# GULP energy per Si atom -5575.521666 kJ/mol
# Density = 3.086935 g / cm^3
# Si number density = 30.939772 Si / 1000 Ang^3
#
#
#
# Elastic Constant Matrix: (Units=GPa)
#
#
# Indices 1 2 3 4 5 6 
#
# 1 200.7883 93.2899 64.1210 0.0000 0.0000 0.0000
# 2 93.2899 355.5262 78.1335 0.0000 0.0000 0.0000
# 3 64.1210 78.1335 153.8584 0.0000 0.0000 0.0000
# 4 0.0000 0.0000 0.0000 55.7725 0.0000 0.0000
# 5 0.0000 0.0000 0.0000 0.0000 23.6908 0.0000
# 6 0.0000 0.0000 0.0000 0.0000 0.0000 83.6006
#
#
#
# Elastic Compliance Matrix: (Units=1/GPa)
#
#
# Indices 1 2 3 4 5 6 
#
# 1 0.006158 -0.001184 -0.001965 0.000000 0.000000 0.000000
# 2 -0.001184 0.003394 -0.001230 0.000000 0.000000 0.000000
# 3 -0.001965 -0.001230 0.007943 0.000000 0.000000 0.000000
# 4 0.000000 0.000000 0.000000 0.017930 0.000000 0.000000
# 5 0.000000 0.000000 0.000000 0.000000 0.042210 0.000000
# 6 0.000000 0.000000 0.000000 0.000000 0.000000 0.011962
#
#
# Mechanical properties :
#
#
# Convention : Reuss Voigt Hill
#
# Bulk Modulus (GPa) = 114.46066 131.25129 122.85597
# Shear Modulus (GPa) = 49.37427 64.25468 56.81448
#
# Velocity S-wave (km/s) = 3.99910 4.56210 4.28985
# Velocity P-wave (km/s) = 7.64191 8.38236 8.02068
#
# Compressibility (1/GPa) = 0.00873663
#
# Stress axis : x y z
#
# Youngs Moduli (GPa) = 162.38971 294.66141 125.89581
#
# Poissons Ratio (x) = 0.34888 0.24740
# Poissons Ratio (y) = 0.19227 0.15485
# Poissons Ratio (z) = 0.31911 0.36243
#
# Static dielectric constant tensor:
#      x y z
#    x 2.621280 0.000000 0.000000 
#    y 0.000000 2.871350 0.000000 
#    z 0.000000 0.000000 2.647990 
# 
# From -- ./inp_files/16611.got.cif
#   From: 2010.05.17/outbox.cif.g08.bks.cpg/sg52_9_cif.got.tgz:16611.got - 2010.06.03 12:15:38.
