data_PCOD9411735
_publ_section_title
;
Structure prediction by ZEFSAII (Michael W. Deem and Ramdas Pophale) SiO2 
 PCOD9411735
Probable space group: P N N A
;
_chemical_formula_sum "Si O2"
_cell_formula_units_Z 48
_cell_length_a 14.763785
_cell_length_b 11.223562
_cell_length_c 15.914908
_cell_angle_alpha 90.000000
_cell_angle_beta 90.000000
_cell_angle_gamma 90.000000
_cell_volume 2637.136164
_symmetry_space_group_name_H-M "P N N A"
_symmetry_group_IT_number 52
_symmetry_cell_setting 'orthorhombic'
loop_
_space_group_symop_operation_xyz
x,y,z
1/2-x,-y,z
x,1/2-y,1/2-z
1/2-x,1/2+y,1/2-z
-x,-y,-z
1/2+x,y,-z
-x,1/2+y,1/2+z
1/2+x,1/2-y,1/2+z
loop_
_atom_site_type_symbol
_atom_site_label
_atom_site_fract_x
_atom_site_fract_y
_atom_site_fract_z
Si Si1 0.976202 0.640246 0.002150
Si Si2 0.299005 0.122692 0.291449
Si Si3 0.635363 0.751439 0.107142
Si Si4 0.510901 0.136253 0.301830
Si Si5 0.152283 0.938891 0.755911
Si Si6 0.265899 0.865223 0.482497
O O1 0.984381 0.669837 0.100257
O O2 0.872574 0.655346 0.974824
O O3 0.000000 0.500000 0.000000
O O4 0.045392 0.712121 0.943408
O O5 0.272242 0.250000 0.250000
O O6 0.406626 0.107586 0.280359
O O7 0.278623 0.134481 0.390661
O O8 0.250000 0.000000 0.262531
O O9 0.630003 0.877418 0.154536
O O10 0.653464 0.659814 0.182908
O O11 0.717133 0.730093 0.041898
O O12 0.540978 0.250000 0.250000
O O13 0.576193 0.029985 0.275606
O O14 0.250000 0.000000 0.761119
O O15 0.250000 0.000000 0.517701
#
# Coordination Sequence:
#
# PCOD9411735 Si02
#       6
#     8   8   8   8   8   8
#     4  12  20  37  65  93 121 159 212 258 303 373
#     4  10  22  40  64  90 122 163 214 258 315 381
#     4  11  23  40  63  97 125 156 219 265 311 377
#     4  11  23  41  65  89 127 170 204 251 324 385
#     4  11  25  40  62  95 128 164 205 266 322 377
#     4  11  20  36  63  90 120 163 205 254 317 373
#
# _framework density 18.201561999999999
#
# number of rings (size 3 to 8) (size 9 to 14) (size 15 to 20)
#    0.000    1.000    5.000    2.500    4.667    1.333 
#    0.000    1.667    0.000    0.000    0.000    0.000 
#    0.000    0.000    0.000    0.000    0.000    0.000 
#
# Total GULP energy -268001.810522 kJ/mol
# GULP energy per Si atom -5583.371053 kJ/mol
# Density = 1.816013 g / cm^3
# Si number density = 18.201562 Si / 1000 Ang^3
#
#
#
# Elastic Constant Matrix: (Units=GPa)
#
#
# Indices 1 2 3 4 5 6 
#
# 1 110.2194 38.8644 23.3577 0.0000 0.0000 0.0000
# 2 38.8644 72.7720 44.2572 0.0000 0.0000 0.0000
# 3 23.3577 44.2572 97.3283 0.0000 0.0000 0.0000
# 4 0.0000 0.0000 0.0000 38.9824 0.0000 0.0000
# 5 0.0000 0.0000 0.0000 0.0000 30.5668 0.0000
# 6 0.0000 0.0000 0.0000 0.0000 0.0000 -11.0766
#
#
#
# Elastic Compliance Matrix: (Units=1/GPa)
#
#
# Indices 1 2 3 4 5 6 
#
# 1 0.011178 -0.005996 0.000044 0.000000 0.000000 0.000000
# 2 -0.005996 0.022211 -0.008661 0.000000 0.000000 0.000000
# 3 0.000044 -0.008661 0.014202 0.000000 0.000000 0.000000
# 4 0.000000 0.000000 0.000000 0.025653 0.000000 0.000000
# 5 0.000000 0.000000 0.000000 0.000000 0.032715 0.000000
# 6 0.000000 0.000000 0.000000 0.000000 0.000000 -0.090281
#
#
# Mechanical properties :
#
#
# Convention : Reuss Voigt Hill
#
# Bulk Modulus (GPa) = 54.45150 54.80871 54.63010
# Shear Modulus (GPa) = 97.98824 23.28387 60.63605
#
# Velocity S-wave (km/s) = 7.34520 3.58050 5.77806
# Velocity P-wave (km/s) = 10.09538 6.87538 8.63677
#
# Compressibility (1/GPa) = 0.01836497
#
# Stress axis : x y z
#
# Youngs Moduli (GPa) = 89.46252 45.02233 70.41183
#
# Poissons Ratio (x) = 0.26998 -0.00311
# Poissons Ratio (y) = 0.53646 0.60982
# Poissons Ratio (z) = -0.00395 0.38993
#
# Static dielectric constant tensor:
#      x y z
#    x 1.588140 0.000000 0.000000 
#    y 0.000000 1.624590 0.000000 
#    z 0.000000 0.000000 1.613200 
# 
# From -- ./inp_files/27170.got.cif
#   From: 2010.05.17/outbox.cif.g08.bks.cpg/sg52_14_cif.got.tgz:27170.got - 2010.06.03 12:15:38.
