data_PCOD9411543
_publ_section_title
;
Structure prediction by ZEFSAII (Michael W. Deem and Ramdas Pophale) SiO2 
 PCOD9411543
Probable space group: P N N A
;
_chemical_formula_sum "Si O2"
_cell_formula_units_Z 32
_cell_length_a 17.933215
_cell_length_b 9.335664
_cell_length_c 8.150961
_cell_angle_alpha 90.000000
_cell_angle_beta 90.000000
_cell_angle_gamma 90.000000
_cell_volume 1364.621417
_symmetry_space_group_name_H-M "P N N A"
_symmetry_group_IT_number 52
_symmetry_cell_setting 'orthorhombic'
loop_
_space_group_symop_operation_xyz
x,y,z
1/2-x,-y,z
x,1/2-y,1/2-z
1/2-x,1/2+y,1/2-z
-x,-y,-z
1/2+x,y,-z
-x,1/2+y,1/2+z
1/2+x,1/2-y,1/2+z
loop_
_atom_site_type_symbol
_atom_site_label
_atom_site_fract_x
_atom_site_fract_y
_atom_site_fract_z
Si Si1 0.410825 0.986169 0.476006
Si Si2 0.088963 0.396873 0.371739
Si Si3 0.836495 0.972750 0.191451
Si Si4 0.930481 0.194100 0.014898
O O1 0.393823 0.156938 0.463572
O O2 0.500000 0.000000 0.500000
O O3 0.385721 0.894886 0.317019
O O4 0.374703 0.922609 0.641042
O O5 0.146487 0.386682 0.522833
O O6 0.064552 0.567194 0.380030
O O7 0.014964 0.307511 0.417164
O O8 0.750000 0.000000 0.214298
O O9 0.879475 0.119925 0.151427
#
# Coordination Sequence:
#
# PCOD9411543 Si02
#       4
#     8   8   8   8
#     4  12  20  35  65  90 118 160 204 249 310 366
#     4   9  20  36  62  85 120 158 203 250 301 358
#     4  10  22  38  56  87 123 158 198 254 307 368
#     4   9  19  39  58  90 119 152 205 254 293 368
#
# _framework density 23.449725000000001
#
# number of rings (size 3 to 8) (size 9 to 14) (size 15 to 20)
#    1.500    0.500    2.500    1.500    0.000    1.000 
#    0.000    5.000    0.000    0.000    0.000    0.000 
#    0.000    0.000    0.000    0.000    0.000    0.000 
#
# Total GULP energy -178306.427991 kJ/mol
# GULP energy per Si atom -5572.075875 kJ/mol
# Density = 2.339635 g / cm^3
# Si number density = 23.449725 Si / 1000 Ang^3
#
#
#
# Elastic Constant Matrix: (Units=GPa)
#
#
# Indices 1 2 3 4 5 6 
#
# 1 121.9815 -16.5789 72.1309 0.0000 0.0000 0.0000
# 2 -16.5789 71.8043 13.1298 0.0000 0.0000 0.0000
# 3 72.1309 13.1298 217.4716 0.0000 0.0000 0.0000
# 4 0.0000 0.0000 0.0000 43.4051 0.0000 0.0000
# 5 0.0000 0.0000 0.0000 0.0000 34.0262 0.0000
# 6 0.0000 0.0000 0.0000 0.0000 0.0000 -8.3911
#
#
#
# Elastic Compliance Matrix: (Units=1/GPa)
#
#
# Indices 1 2 3 4 5 6 
#
# 1 0.010883 0.003208 -0.003803 0.000000 0.000000 0.000000
# 2 0.003208 0.015028 -0.001971 0.000000 0.000000 0.000000
# 3 -0.003803 -0.001971 0.005979 0.000000 0.000000 0.000000
# 4 0.000000 0.000000 0.000000 0.023039 0.000000 0.000000
# 5 0.000000 0.000000 0.000000 0.000000 0.029389 0.000000
# 6 0.000000 0.000000 0.000000 0.000000 0.000000 -0.119173
#
#
# Mechanical properties :
#
#
# Convention : Reuss Voigt Hill
#
# Bulk Modulus (GPa) = 37.37372 60.95789 49.16580
# Shear Modulus (GPa) = -240.34355 36.64641 -101.84857
#
# Velocity S-wave (km/s) = -10.13487 3.95747 -6.59750
# Velocity P-wave (km/s) = 10.99917 6.85082 6.08474
#
# Compressibility (1/GPa) = 0.02675677
#
# Stress axis : x y z
#
# Youngs Moduli (GPa) = 91.88599 66.54252 167.25678
#
# Poissons Ratio (x) = -0.21349 0.63614
# Poissons Ratio (y) = -0.29479 0.32973
# Poissons Ratio (z) = 0.34948 0.13118
#
# Static dielectric constant tensor:
#      x y z
#    x 1.795680 0.000000 0.000000 
#    y 0.000000 2.000320 0.000000 
#    z 0.000000 0.000000 1.990210 
# 
# From -- ./inp_files/11528.got.cif
#   From: 2010.05.17/outbox.cif.g08.bks.cpg/sg52_6_cif.got.tgz:11528.got - 2010.06.03 12:15:38.
