data_PCOD9411703
_publ_section_title
;
Structure prediction by ZEFSAII (Michael W. Deem and Ramdas Pophale) SiO2 
 PCOD9411703
Probable space group: P N N A
;
_chemical_formula_sum "Si O2"
_cell_formula_units_Z 36
_cell_length_a 21.521534
_cell_length_b 5.231698
_cell_length_c 13.437059
_cell_angle_alpha 90.000000
_cell_angle_beta 90.000000
_cell_angle_gamma 90.000000
_cell_volume 1512.934457
_symmetry_space_group_name_H-M "P N N A"
_symmetry_group_IT_number 52
_symmetry_cell_setting 'orthorhombic'
loop_
_space_group_symop_operation_xyz
x,y,z
1/2-x,-y,z
x,1/2-y,1/2-z
1/2-x,1/2+y,1/2-z
-x,-y,-z
1/2+x,y,-z
-x,1/2+y,1/2+z
1/2+x,1/2-y,1/2+z
loop_
_atom_site_type_symbol
_atom_site_label
_atom_site_fract_x
_atom_site_fract_y
_atom_site_fract_z
Si Si1 0.315590 0.391970 0.354863
Si Si2 0.104235 0.540303 0.519846
Si Si3 0.410321 0.750000 0.250000
Si Si4 0.792869 0.749223 0.366450
Si Si5 0.495405 0.697961 0.088727
O O1 0.250000 0.500000 0.388552
O O2 0.305128 0.250000 0.250000
O O3 0.352238 0.279705 0.449680
O O4 0.362045 0.612429 0.321316
O O5 0.147531 0.317961 0.565413
O O6 0.050061 0.421322 0.451034
O O7 0.064828 0.692517 0.602974
O O8 0.458538 0.586551 0.183668
O O9 0.750000 0.500000 0.377693
O O10 0.812067 0.750000 0.250000
O O11 0.750000 0.000000 0.386929
O O12 0.500000 0.500000 0.000000
#
# Coordination Sequence:
#
# PCOD9411703 Si02
#       5
#     8   8   4   8   8
#     4  11  21  39  62  91 128 168 221 285 349 418
#     4  10  23  40  62  94 128 175 226 281 353 416
#     4  10  22  40  60  94 124 168 224 274 348 414
#     4  10  23  44  68 101 138 177 230 289 348 420
#     4  10  22  40  61  91 128 171 225 281 338 420
#
# _framework density 23.794817999999999
#
# number of rings (size 3 to 8) (size 9 to 14) (size 15 to 20)
#    0.000    1.778    1.111    2.000    3.111    1.778 
#   10.000    2.222    0.000    0.000    0.000    0.000 
#    0.000    0.000    0.000    0.000    0.000    0.000 
#
# Total GULP energy -200606.460738 kJ/mol
# GULP energy per Si atom -5572.401687 kJ/mol
# Density = 2.374066 g / cm^3
# Si number density = 23.794818 Si / 1000 Ang^3
#
#
#
# Elastic Constant Matrix: (Units=GPa)
#
#
# Indices 1 2 3 4 5 6 
#
# 1 169.4189 32.7534 64.7031 0.0000 0.0000 0.0000
# 2 32.7534 61.9686 1.8819 0.0000 0.0000 0.0000
# 3 64.7031 1.8819 76.9485 0.0000 0.0000 0.0000
# 4 0.0000 0.0000 0.0000 86.3333 0.0000 0.0000
# 5 0.0000 0.0000 0.0000 0.0000 75.0269 0.0000
# 6 0.0000 0.0000 0.0000 0.0000 0.0000 410.1288
#
#
#
# Elastic Compliance Matrix: (Units=1/GPa)
#
#
# Indices 1 2 3 4 5 6 
#
# 1 0.010068 -0.005068 -0.008342 0.000000 0.000000 0.000000
# 2 -0.005068 0.018700 0.003804 0.000000 0.000000 0.000000
# 3 -0.008342 0.003804 0.019917 0.000000 0.000000 0.000000
# 4 0.000000 0.000000 0.000000 0.011583 0.000000 0.000000
# 5 0.000000 0.000000 0.000000 0.000000 0.013329 0.000000
# 6 0.000000 0.000000 0.000000 0.000000 0.000000 0.002438
#
#
# Mechanical properties :
#
#
# Convention : Reuss Voigt Hill
#
# Bulk Modulus (GPa) = 33.92820 56.33475 45.13147
# Shear Modulus (GPa) = 47.58618 128.23098 87.90858
#
# Velocity S-wave (km/s) = 4.47682 7.34896 6.08479
# Velocity P-wave (km/s) = 6.40408 9.78449 8.26887
#
# Compressibility (1/GPa) = 0.02947401
#
# Stress axis : x y z
#
# Youngs Moduli (GPa) = 99.32149 53.47453 50.20783
#
# Poissons Ratio (x) = 0.27102 0.41884
# Poissons Ratio (y) = 0.50339 -0.19101
# Poissons Ratio (z) = 0.82855 -0.20344
#
# Static dielectric constant tensor:
#      x y z
#    x 1.921390 0.000000 0.000000 
#    y 0.000000 1.921260 0.000000 
#    z 0.000000 0.000000 2.044770 
# 
# From -- ./inp_files/28500.got.cif
#   From: 2010.05.17/outbox.cif.g08.bks.cpg/sg52_15_cif.got.tgz:28500.got - 2010.06.03 12:15:38.
