data_PCOD9411719
_publ_section_title
;
Structure prediction by ZEFSAII (Michael W. Deem and Ramdas Pophale) SiO2 
 PCOD9411719
Probable space group: P N N A
;
_chemical_formula_sum "Si O2"
_cell_formula_units_Z 64
_cell_length_a 10.992700
_cell_length_b 23.298405
_cell_length_c 11.621098
_cell_angle_alpha 90.000000
_cell_angle_beta 90.000000
_cell_angle_gamma 90.000000
_cell_volume 2976.307028
_symmetry_space_group_name_H-M "P N N A"
_symmetry_group_IT_number 52
_symmetry_cell_setting 'orthorhombic'
loop_
_space_group_symop_operation_xyz
x,y,z
1/2-x,-y,z
x,1/2-y,1/2-z
1/2-x,1/2+y,1/2-z
-x,-y,-z
1/2+x,y,-z
-x,1/2+y,1/2+z
1/2+x,1/2-y,1/2+z
loop_
_atom_site_type_symbol
_atom_site_label
_atom_site_fract_x
_atom_site_fract_y
_atom_site_fract_z
Si Si1 0.846049 0.188950 0.695389
Si Si2 0.117857 0.470233 0.152379
Si Si3 0.370524 0.540408 0.888224
Si Si4 0.322738 0.207661 0.550120
Si Si5 0.315940 0.620023 0.337090
Si Si6 0.734650 0.835977 0.072614
Si Si7 0.880233 0.835257 0.284083
Si Si8 0.039481 0.818028 0.748405
O O1 0.812543 0.250000 0.750000
O O2 0.788962 0.180550 0.570688
O O3 0.808224 0.135951 0.773344
O O4 0.989439 0.186986 0.680086
O O5 0.250000 0.500000 0.157169
O O6 0.120307 0.431367 0.267522
O O7 0.995215 0.508259 0.148863
O O8 0.117863 0.442951 0.023777
O O9 0.250000 0.500000 0.875879
O O10 0.362384 0.598085 0.814451
O O11 0.324543 0.276358 0.525690
O O12 0.218500 0.198575 0.642695
O O13 0.435557 0.174127 0.611967
O O14 0.278274 0.622497 0.470429
O O15 0.408737 0.671278 0.303056
O O16 0.853545 0.825173 0.149983
O O17 0.633333 0.852584 0.169158
O O18 0.066823 0.750000 0.750000
#
# Coordination Sequence:
#
# PCOD9411719 Si02
#       8
#     8   8   8   8   8   8   8   8
#     4  12  24  37  61  99 134 172 218 265 324 407
#     4  10  23  44  66  97 129 166 217 292 341 390
#     4  10  23  43  70  95 130 165 229 286 339 400
#     4  10  22  40  62  91 135 170 214 262 323 396
#     4  12  24  39  68  91 130 175 221 264 335 395
#     4  10  23  42  59  92 133 171 208 267 319 398
#     4  11  24  41  66  94 128 176 220 268 339 388
#     4   9  22  39  60  89 127 172 212 257 314 391
#
# _framework density 21.503157000000002
#
# number of rings (size 3 to 8) (size 9 to 14) (size 15 to 20)
#    0.000    1.500    1.250    3.750    8.750    2.000 
#    0.000    1.250    0.000    0.000    0.000    0.000 
#    0.000    0.000    0.000    0.000    0.000    0.000 
#
# Total GULP energy -356598.820509 kJ/mol
# GULP energy per Si atom -5571.856570 kJ/mol
# Density = 2.145422 g / cm^3
# Si number density = 21.503157 Si / 1000 Ang^3
#
#
#
# Elastic Constant Matrix: (Units=GPa)
#
#
# Indices 1 2 3 4 5 6 
#
# 1 84.8602 21.9260 5.6511 0.0000 0.0000 0.0000
# 2 21.9260 63.4728 28.0730 0.0000 0.0000 0.0000
# 3 5.6511 28.0730 132.8149 0.0000 0.0000 0.0000
# 4 0.0000 0.0000 0.0000 26.3364 0.0000 0.0000
# 5 0.0000 0.0000 0.0000 0.0000 8.9064 0.0000
# 6 0.0000 0.0000 0.0000 0.0000 0.0000 28.4904
#
#
#
# Elastic Compliance Matrix: (Units=1/GPa)
#
#
# Indices 1 2 3 4 5 6 
#
# 1 0.012962 -0.004670 0.000436 0.000000 0.000000 0.000000
# 2 -0.004670 0.019062 -0.003830 0.000000 0.000000 0.000000
# 3 0.000436 -0.003830 0.008320 0.000000 0.000000 0.000000
# 4 0.000000 0.000000 0.000000 0.037970 0.000000 0.000000
# 5 0.000000 0.000000 0.000000 0.000000 0.112279 0.000000
# 6 0.000000 0.000000 0.000000 0.000000 0.000000 0.035100
#
#
# Mechanical properties :
#
#
# Convention : Reuss Voigt Hill
#
# Bulk Modulus (GPa) = 41.29786 43.60534 42.45160
# Shear Modulus (GPa) = 20.00845 27.77982 23.89413
#
# Velocity S-wave (km/s) = 3.05370 3.59819 3.33707
# Velocity P-wave (km/s) = 5.62856 6.13068 5.88498
#
# Compressibility (1/GPa) = 0.02421433
#
# Stress axis : x y z
#
# Youngs Moduli (GPa) = 77.15010 52.45994 120.18685
#
# Poissons Ratio (x) = 0.24500 -0.05236
# Poissons Ratio (y) = 0.36030 0.46037
# Poissons Ratio (z) = -0.03361 0.20095
#
# Static dielectric constant tensor:
#      x y z
#    x 1.825550 0.000000 0.000000 
#    y 0.000000 1.839010 0.000000 
#    z 0.000000 0.000000 1.843900 
# 
# From -- ./inp_files/18503.got.cif
#   From: 2010.05.17/outbox.cif.g08.bks.cpg/sg52_10_cif.got.tgz:18503.got - 2010.06.03 12:15:38.
