data_PCOD9411968
_publ_section_title
;
Structure prediction by ZEFSAII (Michael W. Deem and Ramdas Pophale) SiO2 
 PCOD9411968
Probable space group: P N N A
;
_chemical_formula_sum "Si O2"
_cell_formula_units_Z 40
_cell_length_a 11.288360
_cell_length_b 26.496165
_cell_length_c 5.113800
_cell_angle_alpha 90.000000
_cell_angle_beta 90.000000
_cell_angle_gamma 90.000000
_cell_volume 1529.528626
_symmetry_space_group_name_H-M "P N N A"
_symmetry_group_IT_number 52
_symmetry_cell_setting 'orthorhombic'
loop_
_space_group_symop_operation_xyz
x,y,z
1/2-x,-y,z
x,1/2-y,1/2-z
1/2-x,1/2+y,1/2-z
-x,-y,-z
1/2+x,y,-z
-x,1/2+y,1/2+z
1/2+x,1/2-y,1/2+z
loop_
_atom_site_type_symbol
_atom_site_label
_atom_site_fract_x
_atom_site_fract_y
_atom_site_fract_z
Si Si1 0.947874 0.895527 0.579075
Si Si2 0.180614 0.285749 0.503213
Si Si3 0.091113 0.522721 0.706414
Si Si4 0.195728 0.417577 0.615226
Si Si5 0.573033 0.691384 0.336239
O O1 0.854996 0.883243 0.349741
O O2 0.039264 0.848922 0.613689
O O3 0.029848 0.945800 0.561594
O O4 0.871776 0.906533 0.844680
O O5 0.194917 0.250000 0.250000
O O6 0.050070 0.309467 0.493380
O O7 0.300430 0.319346 0.526756
O O8 0.178402 0.250000 0.750000
O O9 0.160737 0.471177 0.756431
O O10 0.168155 0.567458 0.568984
O O11 0.000000 0.500000 0.500000
O O12 0.581021 0.750000 0.250000
#
# Coordination Sequence:
#
# PCOD9411968 Si02
#       5
#     8   8   8   8   8
#     4  11  24  40  64  97 131 172 221 272 333 402
#     4  10  22  42  68  93 129 175 229 282 340 397
#     4   9  21  43  68  96 132 172 216 275 339 403
#     4  10  23  41  66  97 131 170 217 274 337 407
#     4  10  24  45  67  99 135 182 227 283 338 401
#
# _framework density 26.15185
#
# number of rings (size 3 to 8) (size 9 to 14) (size 15 to 20)
#    0.000    2.000    0.000    1.200    2.800   16.000 
#    7.200    0.000    0.000    0.000    0.000    0.000 
#    0.000    0.000    0.000    0.000    0.000    0.000 
#
# Total GULP energy -222969.958684 kJ/mol
# GULP energy per Si atom -5574.248967 kJ/mol
# Density = 2.609233 g / cm^3
# Si number density = 26.151850 Si / 1000 Ang^3
#
#
#
# Elastic Constant Matrix: (Units=GPa)
#
#
# Indices 1 2 3 4 5 6 
#
# 1 137.9631 -7.3278 14.7243 0.0000 0.0000 0.0000
# 2 -7.3278 69.7400 2.0896 0.0000 0.0000 0.0000
# 3 14.7243 2.0896 114.3250 0.0000 0.0000 0.0000
# 4 0.0000 0.0000 0.0000 26.5983 0.0000 0.0000
# 5 0.0000 0.0000 0.0000 0.0000 26.8246 0.0000
# 6 0.0000 0.0000 0.0000 0.0000 0.0000 11.7556
#
#
#
# Elastic Compliance Matrix: (Units=1/GPa)
#
#
# Indices 1 2 3 4 5 6 
#
# 1 0.007394 0.000806 -0.000967 0.000000 0.000000 0.000000
# 2 0.000806 0.014435 -0.000368 0.000000 0.000000 0.000000
# 3 -0.000967 -0.000368 0.008878 0.000000 0.000000 0.000000
# 4 0.000000 0.000000 0.000000 0.037596 0.000000 0.000000
# 5 0.000000 0.000000 0.000000 0.000000 0.037279 0.000000
# 6 0.000000 0.000000 0.000000 0.000000 0.000000 0.085066
#
#
# Mechanical properties :
#
#
# Convention : Reuss Voigt Hill
#
# Bulk Modulus (GPa) = 33.72714 37.88892 35.80803
# Shear Modulus (GPa) = 24.80289 33.87183 29.33736
#
# Velocity S-wave (km/s) = 3.08298 3.60279 3.35297
# Velocity P-wave (km/s) = 5.05942 5.64148 5.35836
#
# Compressibility (1/GPa) = 0.02964971
#
# Stress axis : x y z
#
# Youngs Moduli (GPa) = 135.23875 69.27768 112.63458
#
# Poissons Ratio (x) = -0.05583 0.10893
# Poissons Ratio (y) = -0.10899 0.04141
# Poissons Ratio (z) = 0.13079 0.02547
#
# Static dielectric constant tensor:
#      x y z
#    x 2.392000 0.000000 0.000000 
#    y 0.000000 2.439270 0.000000 
#    z 0.000000 0.000000 1.969270 
# 
# From -- ./inp_files/1365.got.cif
#   From: 2010.05.17/outbox.cif.g08.bks.cpg/sg52_1_cif.got.tgz:1365.got - 2010.06.03 12:15:38.
