data_PCOD9411606
_publ_section_title
;
Structure prediction by ZEFSAII (Michael W. Deem and Ramdas Pophale) SiO2 
 PCOD9411606
Probable space group: P N N A
;
_chemical_formula_sum "Si O2"
_cell_formula_units_Z 60
_cell_length_a 22.712264
_cell_length_b 20.345958
_cell_length_c 5.587322
_cell_angle_alpha 90.000000
_cell_angle_beta 90.000000
_cell_angle_gamma 90.000000
_cell_volume 2581.916970
_symmetry_space_group_name_H-M "P N N A"
_symmetry_group_IT_number 52
_symmetry_cell_setting 'orthorhombic'
loop_
_space_group_symop_operation_xyz
x,y,z
1/2-x,-y,z
x,1/2-y,1/2-z
1/2-x,1/2+y,1/2-z
-x,-y,-z
1/2+x,y,-z
-x,1/2+y,1/2+z
1/2+x,1/2-y,1/2+z
loop_
_atom_site_type_symbol
_atom_site_label
_atom_site_fract_x
_atom_site_fract_y
_atom_site_fract_z
Si Si1 0.431873 0.551541 0.754092
Si Si2 0.422722 0.089827 0.772355
Si Si3 0.350714 0.085233 0.266665
Si Si4 0.053207 0.250000 0.750000
Si Si5 0.302987 0.539969 0.985885
Si Si6 0.974731 0.840287 0.605255
Si Si7 0.237686 0.330833 0.250981
Si Si8 0.619987 0.353308 0.544360
O O1 0.456347 0.479482 0.748319
O O2 0.415808 0.579638 0.494152
O O3 0.365562 0.546416 0.859192
O O4 0.469892 0.600354 0.914251
O O5 0.384566 0.096798 0.523636
O O6 0.472993 0.144189 0.782659
O O7 0.388260 0.084854 0.022880
O O8 0.303717 0.143586 0.221910
O O9 0.317824 0.014080 0.303240
O O10 0.012739 0.224828 0.540235
O O11 0.095776 0.307115 0.661876
O O12 0.250000 0.500000 0.854966
O O13 0.283738 0.614775 0.048983
O O14 0.909634 0.828556 0.712311
O O15 0.234392 0.250000 0.250000
O O16 0.189559 0.351873 0.449699
#
# Coordination Sequence:
#
# PCOD9411606 Si02
#       8
#     8   8   8   4   8   8   8   8
#     4  10  22  38  66 104 132 176 224 280 353 410
#     4  11  25  45  71  97 138 180 234 281 338 417
#     4  10  25  47  67 100 136 186 230 280 348 414
#     4  10  24  42  60  98 128 186 218 278 356 420
#     4   9  19  40  67  95 139 180 224 275 350 423
#     4  11  23  42  67  97 134 174 230 287 346 404
#     4  11  22  41  69  98 134 175 232 288 343 410
#     4  11  23  39  66  99 137 169 225 284 359 408
#
# _framework density 23.238548000000002
#
# number of rings (size 3 to 8) (size 9 to 14) (size 15 to 20)
#    0.000    1.600    1.333    2.400    7.467    3.733 
#    1.200    3.333    0.000    0.000    0.000    0.000 
#    0.000    0.000    0.000    0.000    0.000    0.000 
#
# Total GULP energy -334185.098419 kJ/mol
# GULP energy per Si atom -5569.751640 kJ/mol
# Density = 2.318566 g / cm^3
# Si number density = 23.238548 Si / 1000 Ang^3
#
#
#
# Elastic Constant Matrix: (Units=GPa)
#
#
# Indices 1 2 3 4 5 6 
#
# 1 72.8568 29.7105 28.0588 0.0000 0.0000 0.0000
# 2 29.7105 94.4395 26.2513 0.0000 0.0000 0.0000
# 3 28.0588 26.2513 88.3272 0.0000 0.0000 0.0000
# 4 0.0000 0.0000 0.0000 26.3092 0.0000 0.0000
# 5 0.0000 0.0000 0.0000 0.0000 32.0419 0.0000
# 6 0.0000 0.0000 0.0000 0.0000 0.0000 24.1923
#
#
#
# Elastic Compliance Matrix: (Units=1/GPa)
#
#
# Indices 1 2 3 4 5 6 
#
# 1 0.017044 -0.004204 -0.004165 0.000000 0.000000 0.000000
# 2 -0.004204 0.012579 -0.002403 0.000000 0.000000 0.000000
# 3 -0.004165 -0.002403 0.013359 0.000000 0.000000 0.000000
# 4 0.000000 0.000000 0.000000 0.038010 0.000000 0.000000
# 5 0.000000 0.000000 0.000000 0.000000 0.031209 0.000000
# 6 0.000000 0.000000 0.000000 0.000000 0.000000 0.041336
#
#
# Mechanical properties :
#
#
# Convention : Reuss Voigt Hill
#
# Bulk Modulus (GPa) = 46.64660 47.07386 46.86023
# Shear Modulus (GPa) = 27.43832 27.94885 27.69359
#
# Velocity S-wave (km/s) = 3.43990 3.47175 3.45586
# Velocity P-wave (km/s) = 5.99113 6.03088 6.01104
#
# Compressibility (1/GPa) = 0.02143779
#
# Stress axis : x y z
#
# Youngs Moduli (GPa) = 58.67160 79.49468 74.85717
#
# Poissons Ratio (x) = 0.33422 0.31177
# Poissons Ratio (y) = 0.24667 0.17989
# Poissons Ratio (z) = 0.24436 0.19103
#
# Static dielectric constant tensor:
#      x y z
#    x 1.859430 0.000000 0.000000 
#    y 0.000000 1.984820 0.000000 
#    z 0.000000 0.000000 1.997790 
# 
# From -- ./inp_files/5275.got.cif
#   From: 2010.05.17/outbox.cif.g08.bks.cpg/sg52_3_cif.got.tgz:5275.got - 2010.06.03 12:15:38.
