data_PCOD9411333
_publ_section_title
;
Structure prediction by ZEFSAII (Michael W. Deem and Ramdas Pophale) SiO2 
 PCOD9411333
Probable space group: P N N A
;
_chemical_formula_sum "Si O2"
_cell_formula_units_Z 32
_cell_length_a 14.947977
_cell_length_b 10.175138
_cell_length_c 7.876740
_cell_angle_alpha 90.000000
_cell_angle_beta 90.000000
_cell_angle_gamma 90.000000
_cell_volume 1198.034264
_symmetry_space_group_name_H-M "P N N A"
_symmetry_group_IT_number 52
_symmetry_cell_setting 'orthorhombic'
loop_
_space_group_symop_operation_xyz
x,y,z
1/2-x,-y,z
x,1/2-y,1/2-z
1/2-x,1/2+y,1/2-z
-x,-y,-z
1/2+x,y,-z
-x,1/2+y,1/2+z
1/2+x,1/2-y,1/2+z
loop_
_atom_site_type_symbol
_atom_site_label
_atom_site_fract_x
_atom_site_fract_y
_atom_site_fract_z
Si Si1 0.121754 0.201843 0.565603
Si Si2 0.602488 0.008387 0.060088
Si Si3 0.047530 0.875014 0.621528
Si Si4 0.799692 0.252835 0.943634
O O1 0.087354 0.250000 0.750000
O O2 0.132034 0.351773 0.488660
O O3 0.226850 0.171314 0.559812
O O4 0.053037 0.121309 0.449413
O O5 0.591781 0.989171 0.264570
O O6 0.667574 0.891926 0.001633
O O7 0.500000 0.000000 0.000000
O O8 0.050199 0.750000 0.750000
O O9 0.109620 0.836927 0.464643
O O10 0.771171 0.250000 0.750000
#
# Coordination Sequence:
#
# PCOD9411333 Si02
#       4
#     8   8   8   8
#     4  12  24  43  69  98 134 178 222 272 335 396
#     4  11  23  42  70  94 133 175 216 273 336 390
#     4  10  21  42  66  96 134 170 221 272 329 394
#     4  11  24  43  66  97 136 173 222 277 330 397
#
# _framework density 26.710424
#
# number of rings (size 3 to 8) (size 9 to 14) (size 15 to 20)
#    0.000    1.000    5.000    4.500    0.000    1.000 
#    0.000    0.000    0.000    0.000    0.000    0.000 
#    0.000    0.000    0.000    0.000    0.000    0.000 
#
# Total GULP energy -178862.190526 kJ/mol
# GULP energy per Si atom -5589.443454 kJ/mol
# Density = 2.664963 g / cm^3
# Si number density = 26.710424 Si / 1000 Ang^3
#
#
#
# Elastic Constant Matrix: (Units=GPa)
#
#
# Indices 1 2 3 4 5 6 
#
# 1 119.0258 -4.4862 -0.2872 0.0000 0.0000 0.0000
# 2 -4.4862 67.5031 -13.8754 0.0000 0.0000 0.0000
# 3 -0.2872 -13.8754 107.8528 0.0000 0.0000 0.0000
# 4 0.0000 0.0000 0.0000 29.6844 0.0000 0.0000
# 5 0.0000 0.0000 0.0000 0.0000 44.8068 0.0000
# 6 0.0000 0.0000 0.0000 0.0000 0.0000 30.0634
#
#
#
# Elastic Compliance Matrix: (Units=1/GPa)
#
#
# Indices 1 2 3 4 5 6 
#
# 1 0.008424 0.000580 0.000097 0.000000 0.000000 0.000000
# 2 0.000580 0.015256 0.001964 0.000000 0.000000 0.000000
# 3 0.000097 0.001964 0.009525 0.000000 0.000000 0.000000
# 4 0.000000 0.000000 0.000000 0.033688 0.000000 0.000000
# 5 0.000000 0.000000 0.000000 0.000000 0.022318 0.000000
# 6 0.000000 0.000000 0.000000 0.000000 0.000000 0.033263
#
#
# Mechanical properties :
#
#
# Convention : Reuss Voigt Hill
#
# Bulk Modulus (GPa) = 25.98272 28.56490 27.27381
# Shear Modulus (GPa) = 38.45546 41.77963 40.11755
#
# Velocity S-wave (km/s) = 3.79848 3.95925 3.87970
# Velocity P-wave (km/s) = 5.38392 5.62302 5.50477
#
# Compressibility (1/GPa) = 0.03848711
#
# Stress axis : x y z
#
# Youngs Moduli (GPa) = 118.71374 65.54610 104.98837
#
# Poissons Ratio (x) = -0.03800 -0.01019
# Poissons Ratio (y) = -0.06883 -0.20623
# Poissons Ratio (z) = -0.01152 -0.12875
#
# Static dielectric constant tensor:
#      x y z
#    x 2.263880 0.000000 0.000000 
#    y 0.000000 3.032050 0.000000 
#    z 0.000000 0.000000 2.414470 
# 
# From -- ./inp_files/9529.got.cif
#   From: 2010.05.17/outbox.cif.g08.bks.cpg/sg52_5_cif.got.tgz:9529.got - 2010.06.03 12:15:38.
