data_PCOD9411695
_publ_section_title
;
Structure prediction by ZEFSAII (Michael W. Deem and Ramdas Pophale) SiO2 
 PCOD9411695
Probable space group: P N N A
;
_chemical_formula_sum "Si O2"
_cell_formula_units_Z 32
_cell_length_a 11.549835
_cell_length_b 13.862114
_cell_length_c 7.493410
_cell_angle_alpha 90.000000
_cell_angle_beta 90.000000
_cell_angle_gamma 90.000000
_cell_volume 1199.733378
_symmetry_space_group_name_H-M "P N N A"
_symmetry_group_IT_number 52
_symmetry_cell_setting 'orthorhombic'
loop_
_space_group_symop_operation_xyz
x,y,z
1/2-x,-y,z
x,1/2-y,1/2-z
1/2-x,1/2+y,1/2-z
-x,-y,-z
1/2+x,y,-z
-x,1/2+y,1/2+z
1/2+x,1/2-y,1/2+z
loop_
_atom_site_type_symbol
_atom_site_label
_atom_site_fract_x
_atom_site_fract_y
_atom_site_fract_z
Si Si1 0.178464 0.173850 0.636081
Si Si2 0.702428 0.640737 0.767685
Si Si3 0.443738 0.825926 0.098053
Si Si4 0.485062 0.511105 0.783139
O O1 0.252367 0.250000 0.750000
O O2 0.248041 0.132165 0.468347
O O3 0.079311 0.248547 0.561136
O O4 0.122029 0.083903 0.737024
O O5 0.659745 0.750000 0.750000
O O6 0.813538 0.635593 0.640533
O O7 0.600875 0.568189 0.730685
O O8 0.474029 0.750000 0.250000
O O9 0.521479 0.917842 0.155887
O O10 0.500000 0.500000 0.000000
#
# Coordination Sequence:
#
# PCOD9411695 Si02
#       4
#     8   8   8   8
#     4  10  22  40  59  92 126 153 207 267 305 371
#     4   9  20  39  61  85 116 165 200 247 315 375
#     4   9  19  37  59  85 121 159 205 246 302 373
#     4  12  20  35  68  87 117 167 210 251 311 383
#
# _framework density 26.672592000000002
#
# number of rings (size 3 to 8) (size 9 to 14) (size 15 to 20)
#    0.000    2.500    5.000    1.500    0.000    1.000 
#    4.500    0.000   16.500    0.000    0.000    0.000 
#    0.000    0.000    0.000    0.000    0.000    0.000 
#
# Total GULP energy -178697.817911 kJ/mol
# GULP energy per Si atom -5584.306810 kJ/mol
# Density = 2.661188 g / cm^3
# Si number density = 26.672592 Si / 1000 Ang^3
#
#
#
# Elastic Constant Matrix: (Units=GPa)
#
#
# Indices 1 2 3 4 5 6 
#
# 1 84.2097 36.0327 28.8738 0.0000 0.0000 0.0000
# 2 36.0327 179.2029 38.4930 0.0000 0.0000 0.0000
# 3 28.8738 38.4930 104.6256 0.0000 0.0000 0.0000
# 4 0.0000 0.0000 0.0000 45.3205 0.0000 0.0000
# 5 0.0000 0.0000 0.0000 0.0000 2.0200 0.0000
# 6 0.0000 0.0000 0.0000 0.0000 0.0000 29.2170
#
#
#
# Elastic Compliance Matrix: (Units=1/GPa)
#
#
# Indices 1 2 3 4 5 6 
#
# 1 0.013826 -0.002129 -0.003032 0.000000 0.000000 0.000000
# 2 -0.002129 0.006387 -0.001762 0.000000 0.000000 0.000000
# 3 -0.003032 -0.001762 0.011043 0.000000 0.000000 0.000000
# 4 0.000000 0.000000 0.000000 0.022065 0.000000 0.000000
# 5 0.000000 0.000000 0.000000 0.000000 0.495054 0.000000
# 6 0.000000 0.000000 0.000000 0.000000 0.000000 0.034227
#
#
# Mechanical properties :
#
#
# Convention : Reuss Voigt Hill
#
# Bulk Modulus (GPa) = 57.44161 63.87080 60.65621
# Shear Modulus (GPa) = 8.30218 32.95408 20.62813
#
# Velocity S-wave (km/s) = 1.76618 3.51879 2.78399
# Velocity P-wave (km/s) = 5.07363 6.36454 5.75539
#
# Compressibility (1/GPa) = 0.01740898
#
# Stress axis : x y z
#
# Youngs Moduli (GPa) = 72.32926 156.57233 90.55404
#
# Poissons Ratio (x) = 0.33328 0.27459
# Poissons Ratio (y) = 0.15396 0.15959
# Poissons Ratio (z) = 0.21933 0.27594
#
# Static dielectric constant tensor:
#      x y z
#    x 2.037030 0.000000 0.000000 
#    y 0.000000 2.236440 0.000000 
#    z 0.000000 0.000000 2.276590 
# 
# From -- ./inp_files/9816.got.cif
#   From: 2010.05.17/outbox.cif.g08.bks.cpg/sg52_5_cif.got.tgz:9816.got - 2010.06.03 12:15:38.
