data_PCOD9411929
_publ_section_title
;
Structure prediction by ZEFSAII (Michael W. Deem and Ramdas Pophale) SiO2 
 PCOD9411929
Probable space group: P N N A
;
_chemical_formula_sum "Si O2"
_cell_formula_units_Z 56
_cell_length_a 13.527465
_cell_length_b 15.096944
_cell_length_c 12.423893
_cell_angle_alpha 90.000000
_cell_angle_beta 90.000000
_cell_angle_gamma 90.000000
_cell_volume 2537.249441
_symmetry_space_group_name_H-M "P N N A"
_symmetry_group_IT_number 52
_symmetry_cell_setting 'orthorhombic'
loop_
_space_group_symop_operation_xyz
x,y,z
1/2-x,-y,z
x,1/2-y,1/2-z
1/2-x,1/2+y,1/2-z
-x,-y,-z
1/2+x,y,-z
-x,1/2+y,1/2+z
1/2+x,1/2-y,1/2+z
loop_
_atom_site_type_symbol
_atom_site_label
_atom_site_fract_x
_atom_site_fract_y
_atom_site_fract_z
Si Si1 0.278876 0.594067 0.808902
Si Si2 0.046365 0.909702 0.447635
Si Si3 0.476949 0.966975 0.776897
Si Si4 0.200272 0.775255 0.376419
Si Si5 0.070288 0.847650 0.783659
Si Si6 0.539221 0.639590 0.536433
Si Si7 0.384636 0.720534 0.980834
O O1 0.250000 0.500000 0.866133
O O2 0.360746 0.558803 0.724110
O O3 0.182740 0.637647 0.756284
O O4 0.327569 0.665445 0.888455
O O5 0.156509 0.867739 0.431019
O O6 0.017801 0.909670 0.321396
O O7 0.981568 0.836505 0.508813
O O8 0.000000 0.000000 0.500000
O O9 0.531384 0.946003 0.887814
O O10 0.488496 0.068039 0.738806
O O11 0.200925 0.750000 0.250000
O O12 0.126656 0.701254 0.421565
O O13 0.309701 0.766080 0.422765
O O14 0.038313 0.750000 0.750000
O O15 0.059483 0.865871 0.910407
O O16 0.434321 0.688551 0.556262
#
# Coordination Sequence:
#
# PCOD9411929 Si02
#       7
#     8   8   8   8   8   8   8
#     4   9  21  39  65 100 123 163 224 286 332 388
#     4  10  23  41  70  97 131 174 229 279 344 402
#     4  10  22  42  65  93 132 173 217 276 340 402
#     4  11  23  43  64  96 137 177 219 277 346 412
#     4  11  24  39  66  96 132 167 225 278 334 395
#     4  11  24  42  65  97 131 183 216 274 342 412
#     4  10  24  39  69  97 132 171 228 275 341 406
#
# _framework density 22.071145000000001
#
# number of rings (size 3 to 8) (size 9 to 14) (size 15 to 20)
#    0.000    1.714    1.429    1.286   14.000    0.571 
#    0.000    0.000    0.000    0.000    0.000    0.000 
#    0.000    0.000    0.000    0.000    0.000    0.000 
#
# Total GULP energy -311951.697460 kJ/mol
# GULP energy per Si atom -5570.566026 kJ/mol
# Density = 2.202091 g / cm^3
# Si number density = 22.071145 Si / 1000 Ang^3
#
#
#
# Elastic Constant Matrix: (Units=GPa)
#
#
# Indices 1 2 3 4 5 6 
#
# 1 45.3039 11.4931 10.8867 0.0000 0.0000 0.0000
# 2 11.4931 76.1815 11.8261 0.0000 0.0000 0.0000
# 3 10.8867 11.8261 95.4579 0.0000 0.0000 0.0000
# 4 0.0000 0.0000 0.0000 39.3148 0.0000 0.0000
# 5 0.0000 0.0000 0.0000 0.0000 15.6875 0.0000
# 6 0.0000 0.0000 0.0000 0.0000 0.0000 11.1991
#
#
#
# Elastic Compliance Matrix: (Units=1/GPa)
#
#
# Indices 1 2 3 4 5 6 
#
# 1 0.023427 -0.003181 -0.002278 0.000000 0.000000 0.000000
# 2 -0.003181 0.013816 -0.001349 0.000000 0.000000 0.000000
# 3 -0.002278 -0.001349 0.010903 0.000000 0.000000 0.000000
# 4 0.000000 0.000000 0.000000 0.025436 0.000000 0.000000
# 5 0.000000 0.000000 0.000000 0.000000 0.063745 0.000000
# 6 0.000000 0.000000 0.000000 0.000000 0.000000 0.089293
#
#
# Mechanical properties :
#
#
# Convention : Reuss Voigt Hill
#
# Bulk Modulus (GPa) = 28.95938 31.70612 30.33275
# Shear Modulus (GPa) = 19.86136 25.42277 22.64206
#
# Velocity S-wave (km/s) = 3.00305 3.39758 3.20639
# Velocity P-wave (km/s) = 5.01735 5.45784 5.24223
#
# Compressibility (1/GPa) = 0.03453113
#
# Stress axis : x y z
#
# Youngs Moduli (GPa) = 42.68501 72.38084 91.72039
#
# Poissons Ratio (x) = 0.23023 0.20892
# Poissons Ratio (y) = 0.13577 0.12372
# Poissons Ratio (z) = 0.09723 0.09763
#
# Static dielectric constant tensor:
#      x y z
#    x 1.826740 0.000000 0.000000 
#    y 0.000000 1.806290 0.000000 
#    z 0.000000 0.000000 1.850820 
# 
# From -- ./inp_files/19661.got.cif
#   From: 2010.05.17/outbox.cif.g08.bks.cpg/sg52_10_cif.got.tgz:19661.got - 2010.06.03 12:15:38.
