data_PCOD9411134
_publ_section_title
;
Structure prediction by ZEFSAII (Michael W. Deem and Ramdas Pophale) SiO2 
 PCOD9411134
Probable space group: P N N A
;
_chemical_formula_sum "Si O2"
_cell_formula_units_Z 40
_cell_length_a 21.798989
_cell_length_b 5.188167
_cell_length_c 16.141438
_cell_angle_alpha 90.000000
_cell_angle_beta 90.000000
_cell_angle_gamma 90.000000
_cell_volume 1825.544910
_symmetry_space_group_name_H-M "P N N A"
_symmetry_group_IT_number 52
_symmetry_cell_setting 'orthorhombic'
loop_
_space_group_symop_operation_xyz
x,y,z
1/2-x,-y,z
x,1/2-y,1/2-z
1/2-x,1/2+y,1/2-z
-x,-y,-z
1/2+x,y,-z
-x,1/2+y,1/2+z
1/2+x,1/2-y,1/2+z
loop_
_atom_site_type_symbol
_atom_site_label
_atom_site_fract_x
_atom_site_fract_y
_atom_site_fract_z
Si Si1 0.614207 0.577077 0.910488
Si Si2 0.750000 0.500000 0.194500
Si Si3 0.750000 0.000000 0.575641
Si Si4 0.642890 0.676736 0.100989
Si Si5 0.750000 0.500000 0.460420
Si Si6 0.432153 0.598165 0.326385
Si Si7 0.049298 0.750000 0.750000
O O1 0.684506 0.530250 0.881038
O O2 0.572186 0.327038 0.893831
O O3 0.592307 0.833831 0.863341
O O4 0.617694 0.622258 0.009552
O O5 0.758635 0.250000 0.250000
O O6 0.691097 0.470137 0.136496
O O7 0.741263 0.254504 0.519782
O O8 0.688711 0.922196 0.089802
O O9 0.591907 0.691144 0.171717
O O10 0.399079 0.750000 0.250000
O O11 0.499696 0.549684 0.288044
#
# Coordination Sequence:
#
# PCOD9411134 Si02
#       7
#     8   4   4   8   4   8   4
#     4  11  22  45  75  97 140 172 235 287 349 415
#     4  12  26  44  66 108 154 178 218 290 360 426
#     4  10  21  40  73 109 127 174 220 297 354 429
#     4  11  23  44  72 107 139 195 224 281 348 440
#     4  10  21  40  65 107 147 164 230 281 352 417
#     4  10  25  48  65  99 142 180 232 305 328 394
#     4  10  26  46  66 102 144 190 244 272 352 406
#
# _framework density 21.911265
#
# number of rings (size 3 to 8) (size 9 to 14) (size 15 to 20)
#    0.600    0.800    1.000    6.000    0.000    3.200 
#    3.600    2.000    0.000    1.200    0.000    0.000 
#    0.000    0.000    0.000    0.000    0.000    0.000 
#
# Total GULP energy -222927.991568 kJ/mol
# GULP energy per Si atom -5573.199789 kJ/mol
# Density = 2.186139 g / cm^3
# Si number density = 21.911265 Si / 1000 Ang^3
#
#
#
# Elastic Constant Matrix: (Units=GPa)
#
#
# Indices 1 2 3 4 5 6 
#
# 1 135.0312 47.1168 68.4388 0.0000 0.0000 0.0000
# 2 47.1168 145.6973 35.8858 0.0000 0.0000 0.0000
# 3 68.4388 35.8858 107.8931 0.0000 0.0000 0.0000
# 4 0.0000 0.0000 0.0000 21.1498 0.0000 0.0000
# 5 0.0000 0.0000 0.0000 0.0000 98.1723 0.0000
# 6 0.0000 0.0000 0.0000 0.0000 0.0000 9.6264
#
#
#
# Elastic Compliance Matrix: (Units=1/GPa)
#
#
# Indices 1 2 3 4 5 6 
#
# 1 0.011470 -0.002088 -0.006581 0.000000 0.000000 0.000000
# 2 -0.002088 0.007856 -0.001288 0.000000 0.000000 0.000000
# 3 -0.006581 -0.001288 0.013871 0.000000 0.000000 0.000000
# 4 0.000000 0.000000 0.000000 0.047282 0.000000 0.000000
# 5 0.000000 0.000000 0.000000 0.000000 0.010186 0.000000
# 6 0.000000 0.000000 0.000000 0.000000 0.000000 0.103881
#
#
# Mechanical properties :
#
#
# Convention : Reuss Voigt Hill
#
# Bulk Modulus (GPa) = 75.28890 76.83382 76.06136
# Shear Modulus (GPa) = 22.84266 41.60173 32.22219
#
# Velocity S-wave (km/s) = 3.23229 4.36207 3.83897
# Velocity P-wave (km/s) = 6.95454 7.77896 7.37828
#
# Compressibility (1/GPa) = 0.01328217
#
# Stress axis : x y z
#
# Youngs Moduli (GPa) = 87.18505 127.28793 72.09073
#
# Poissons Ratio (x) = 0.26581 0.47443
# Poissons Ratio (y) = 0.18207 0.09288
# Poissons Ratio (z) = 0.57376 0.16399
#
# Static dielectric constant tensor:
#      x y z
#    x 1.849140 0.000000 0.000000 
#    y 0.000000 1.800580 0.000000 
#    z 0.000000 0.000000 1.873780 
# 
# From -- ./inp_files/33984.got.cif
#   From: 2010.05.17/outbox.cif.g08.bks.cpg/sg52_17_cif.got.tgz:33984.got - 2010.06.03 12:15:38.
