data_PCOD9411000
_publ_section_title
;
Structure prediction by ZEFSAII (Michael W. Deem and Ramdas Pophale) SiO2 
 PCOD9411000
Probable space group: P N N A
;
_chemical_formula_sum "Si O2"
_cell_formula_units_Z 40
_cell_length_a 7.789495
_cell_length_b 9.375392
_cell_length_c 23.654612
_cell_angle_alpha 90.000000
_cell_angle_beta 90.000000
_cell_angle_gamma 90.000000
_cell_volume 1727.486122
_symmetry_space_group_name_H-M "P N N A"
_symmetry_group_IT_number 52
_symmetry_cell_setting 'orthorhombic'
loop_
_space_group_symop_operation_xyz
x,y,z
1/2-x,-y,z
x,1/2-y,1/2-z
1/2-x,1/2+y,1/2-z
-x,-y,-z
1/2+x,y,-z
-x,1/2+y,1/2+z
1/2+x,1/2-y,1/2+z
loop_
_atom_site_type_symbol
_atom_site_label
_atom_site_fract_x
_atom_site_fract_y
_atom_site_fract_z
Si Si1 0.454650 0.969821 0.655916
Si Si2 0.908086 0.750000 0.250000
Si Si3 0.567110 0.998241 0.901662
Si Si4 0.250000 0.000000 0.819502
Si Si5 0.997385 0.299476 0.069872
Si Si6 0.909529 0.781784 0.450632
O O1 0.504995 0.865534 0.708672
O O2 0.481292 0.874853 0.600620
O O3 0.250000 0.000000 0.664623
O O4 0.529032 0.118839 0.629590
O O5 0.787861 0.644882 0.286041
O O6 0.416160 0.017664 0.857490
O O7 0.508262 0.868132 0.941390
O O8 0.750000 0.000000 0.870890
O O9 0.582736 0.145141 0.934483
O O10 0.793237 0.274994 0.062677
O O11 0.065079 0.358860 0.010411
#
# Coordination Sequence:
#
# PCOD9411000 Si02
#       6
#     8   4   8   4   8   8
#     4  10  21  39  65 100 132 184 239 285 358 421
#     4  12  22  42  78  98 132 192 246 298 358 438
#     4  12  24  43  68 105 146 184 235 289 349 430
#     4  12  24  46  76  98 140 186 236 296 364 420
#     4  11  22  39  66 101 144 187 229 288 361 426
#     4  11  21  40  64 100 143 182 233 285 352 425
#
# _framework density 23.155034000000001
#
# number of rings (size 3 to 8) (size 9 to 14) (size 15 to 20)
#    0.000    0.800    5.000    3.600    0.000    0.000 
#    0.000    4.000    0.000    0.000    0.000    0.000 
#    0.000    0.000    0.000    0.000    0.000    0.000 
#
# Total GULP energy -222802.236476 kJ/mol
# GULP energy per Si atom -5570.055912 kJ/mol
# Density = 2.310233 g / cm^3
# Si number density = 23.155034 Si / 1000 Ang^3
#
#
#
# Elastic Constant Matrix: (Units=GPa)
#
#
# Indices 1 2 3 4 5 6 
#
# 1 63.8690 -19.6417 11.5756 0.0000 0.0000 0.0000
# 2 -19.6417 82.0666 8.2300 0.0000 0.0000 0.0000
# 3 11.5756 8.2300 97.9457 0.0000 0.0000 0.0000
# 4 0.0000 0.0000 0.0000 105.2255 0.0000 0.0000
# 5 0.0000 0.0000 0.0000 0.0000 79.1431 0.0000
# 6 0.0000 0.0000 0.0000 0.0000 0.0000 -11.2763
#
#
#
# Elastic Compliance Matrix: (Units=1/GPa)
#
#
# Indices 1 2 3 4 5 6 
#
# 1 0.017458 0.004423 -0.002435 0.000000 0.000000 0.000000
# 2 0.004423 0.013409 -0.001649 0.000000 0.000000 0.000000
# 3 -0.002435 -0.001649 0.010636 0.000000 0.000000 0.000000
# 4 0.000000 0.000000 0.000000 0.009503 0.000000 0.000000
# 5 0.000000 0.000000 0.000000 0.000000 0.012635 0.000000
# 6 0.000000 0.000000 0.000000 0.000000 0.000000 -0.088682
#
#
# Mechanical properties :
#
#
# Convention : Reuss Voigt Hill
#
# Bulk Modulus (GPa) = 23.70769 27.13433 25.42101
# Shear Modulus (GPa) = -428.96755 50.86629 -189.05063
#
# Velocity S-wave (km/s) = -13.62575 4.69206 -9.04560
# Velocity P-wave (km/s) = 15.40413 6.41076 9.90427
#
# Compressibility (1/GPa) = 0.04218040
#
# Stress axis : x y z
#
# Youngs Moduli (GPa) = 57.27878 74.57593 94.01941
#
# Poissons Ratio (x) = -0.32982 0.22893
# Poissons Ratio (y) = -0.25333 0.15508
# Poissons Ratio (z) = 0.13947 0.12301
#
# Static dielectric constant tensor:
#      x y z
#    x 1.870370 0.000000 0.000000 
#    y 0.000000 2.236700 0.000000 
#    z 0.000000 0.000000 1.978870 
# 
# From -- ./inp_files/39294.got.cif
#   From: 2010.05.17/outbox.cif.g08.bks.cpg/sg52_20_cif.got.tgz:39294.got - 2010.06.03 12:15:38.
