data_PCOD9411234
_publ_section_title
;
Structure prediction by ZEFSAII (Michael W. Deem and Ramdas Pophale) SiO2 
 PCOD9411234
Probable space group: P N N A
;
_chemical_formula_sum "Si O2"
_cell_formula_units_Z 40
_cell_length_a 15.941199
_cell_length_b 8.269685
_cell_length_c 11.658314
_cell_angle_alpha 90.000000
_cell_angle_beta 90.000000
_cell_angle_gamma 90.000000
_cell_volume 1536.900312
_symmetry_space_group_name_H-M "P N N A"
_symmetry_group_IT_number 52
_symmetry_cell_setting 'orthorhombic'
loop_
_space_group_symop_operation_xyz
x,y,z
1/2-x,-y,z
x,1/2-y,1/2-z
1/2-x,1/2+y,1/2-z
-x,-y,-z
1/2+x,y,-z
-x,1/2+y,1/2+z
1/2+x,1/2-y,1/2+z
loop_
_atom_site_type_symbol
_atom_site_label
_atom_site_fract_x
_atom_site_fract_y
_atom_site_fract_z
Si Si1 0.250000 0.000000 0.068557
Si Si2 0.719226 0.750000 0.750000
Si Si3 0.880676 0.250000 0.250000
Si Si4 0.340190 0.544794 0.921951
Si Si5 0.925664 0.750000 0.250000
Si Si6 0.425839 0.082000 0.365060
Si Si7 0.077269 0.608454 0.524116
O O1 0.265525 0.836931 0.144846
O O2 0.168673 0.966328 0.992588
O O3 0.656900 0.896177 0.711521
O O4 0.840035 0.399921 0.176731
O O5 0.933322 0.327895 0.349416
O O6 0.250000 0.500000 0.975905
O O7 0.361036 0.710946 0.854606
O O8 0.406676 0.538732 0.028896
O O9 0.992146 0.895826 0.284137
O O10 0.427273 0.247302 0.435557
O O11 0.000000 0.500000 0.500000
#
# Coordination Sequence:
#
# PCOD9411234 Si02
#       7
#     4   4   4   8   4   8   8
#     4  10  22  40  68  98 132 178 234 288 348 420
#     4   9  20  41  65  94 131 174 226 292 340 407
#     4  10  23  41  61  89 144 170 222 291 337 412
#     4  11  23  39  63 100 132 178 227 284 341 411
#     4  11  21  42  68  93 133 182 226 281 349 409
#     4   9  21  41  62  93 137 172 226 283 345 412
#     4  10  21  41  64  95 134 181 228 284 348 420
#
# _framework density 26.026409999999998
#
# number of rings (size 3 to 8) (size 9 to 14) (size 15 to 20)
#    0.000    2.000    0.000    2.400    2.800    0.800 
#   14.400    4.000    0.000    0.000    0.000    0.000 
#    0.000    0.000    0.000    0.000    0.000    0.000 
#
# Total GULP energy -222872.617701 kJ/mol
# GULP energy per Si atom -5571.815443 kJ/mol
# Density = 2.596717 g / cm^3
# Si number density = 26.026410 Si / 1000 Ang^3
#
#
#
# Elastic Constant Matrix: (Units=GPa)
#
#
# Indices 1 2 3 4 5 6 
#
# 1 127.0693 33.3357 27.4410 0.0000 0.0000 0.0000
# 2 33.3357 71.8681 44.4024 0.0000 0.0000 0.0000
# 3 27.4410 44.4024 128.1725 0.0000 0.0000 0.0000
# 4 0.0000 0.0000 0.0000 62.0888 0.0000 0.0000
# 5 0.0000 0.0000 0.0000 0.0000 -45.0681 0.0000
# 6 0.0000 0.0000 0.0000 0.0000 0.0000 276.6248
#
#
#
# Elastic Compliance Matrix: (Units=1/GPa)
#
#
# Indices 1 2 3 4 5 6 
#
# 1 0.008998 -0.003796 -0.000611 0.000000 0.000000 0.000000
# 2 -0.003796 0.019305 -0.005875 0.000000 0.000000 0.000000
# 3 -0.000611 -0.005875 0.009968 0.000000 0.000000 0.000000
# 4 0.000000 0.000000 0.000000 0.016106 0.000000 0.000000
# 5 0.000000 0.000000 0.000000 0.000000 -0.022189 0.000000
# 6 0.000000 0.000000 0.000000 0.000000 0.000000 0.003615
#
#
# Mechanical properties :
#
#
# Convention : Reuss Voigt Hill
#
# Bulk Modulus (GPa) = 56.47755 59.71868 58.09812
# Shear Modulus (GPa) = 80.29639 73.52448 76.91043
#
# Velocity S-wave (km/s) = 5.56047 5.32083 5.44197
# Velocity P-wave (km/s) = 7.93551 7.79382 7.86498
#
# Compressibility (1/GPa) = 0.01770615
#
# Stress axis : x y z
#
# Youngs Moduli (GPa) = 111.14151 51.80051 100.31941
#
# Poissons Ratio (x) = 0.19662 0.06133
# Poissons Ratio (y) = 0.42187 0.58938
# Poissons Ratio (z) = 0.06795 0.30433
#
# Static dielectric constant tensor:
#      x y z
#    x 2.165350 0.000000 0.000000 
#    y 0.000000 2.061400 0.000000 
#    z 0.000000 0.000000 2.074220 
# 
# From -- ./inp_files/20424.got.cif
#   From: 2010.05.17/outbox.cif.g08.bks.cpg/sg52_11_cif.got.tgz:20424.got - 2010.06.03 12:15:38.
