data_PCOD9411277
_publ_section_title
;
Structure prediction by ZEFSAII (Michael W. Deem and Ramdas Pophale) SiO2 
 PCOD9411277
Probable space group: P N N A
;
_chemical_formula_sum "Si O2"
_cell_formula_units_Z 56
_cell_length_a 8.814893
_cell_length_b 20.629042
_cell_length_c 12.780957
_cell_angle_alpha 90.000000
_cell_angle_beta 90.000000
_cell_angle_gamma 90.000000
_cell_volume 2324.124981
_symmetry_space_group_name_H-M "P N N A"
_symmetry_group_IT_number 52
_symmetry_cell_setting 'orthorhombic'
loop_
_space_group_symop_operation_xyz
x,y,z
1/2-x,-y,z
x,1/2-y,1/2-z
1/2-x,1/2+y,1/2-z
-x,-y,-z
1/2+x,y,-z
-x,1/2+y,1/2+z
1/2+x,1/2-y,1/2+z
loop_
_atom_site_type_symbol
_atom_site_label
_atom_site_fract_x
_atom_site_fract_y
_atom_site_fract_z
Si Si1 0.877094 0.751533 0.624591
Si Si2 0.448690 0.891467 0.100801
Si Si3 0.148742 0.558600 0.989068
Si Si4 0.074249 0.979940 0.734898
Si Si5 0.041191 0.772697 0.134515
Si Si6 0.413510 0.081981 0.115286
Si Si7 0.588374 0.153039 0.460296
O O1 0.886398 0.750000 0.750000
O O2 0.962088 0.686334 0.586247
O O3 0.704572 0.741481 0.582692
O O4 0.925963 0.821050 0.579691
O O5 0.269483 0.909403 0.111756
O O6 0.534741 0.913927 0.204668
O O7 0.524460 0.928108 0.002547
O O8 0.250000 0.500000 0.033705
O O9 0.056305 0.529219 0.890334
O O10 0.265846 0.610450 0.941137
O O11 0.049095 0.604166 0.063215
O O12 0.969380 0.031336 0.797792
O O13 0.250000 0.000000 0.749900
O O14 0.071725 0.750000 0.250000
O O15 0.012016 0.848313 0.139856
O O16 0.918160 0.721921 0.095456
#
# Coordination Sequence:
#
# PCOD9411277 Si02
#       7
#     8   8   8   8   8   8   8
#     4  10  21  41  69 106 142 177 238 293 357 431
#     4  11  22  42  69 105 139 192 230 290 369 417
#     4  11  27  46  71 101 138 186 238 288 351 429
#     4  11  25  45  65 101 143 182 241 289 342 426
#     4  10  23  40  68 103 136 184 230 290 353 421
#     4  11  23  42  70 101 145 183 237 292 351 433
#     4  12  22  48  72 103 141 183 232 298 357 418
#
# _framework density 24.095089000000002
#
# number of rings (size 3 to 8) (size 9 to 14) (size 15 to 20)
#    0.000    1.143    2.857    3.000    4.000    0.000 
#    2.571    3.571    0.000    0.000    0.000    0.000 
#    0.000    0.000    0.000    0.000    0.000    0.000 
#
# Total GULP energy -312842.509931 kJ/mol
# GULP energy per Si atom -5586.473392 kJ/mol
# Density = 2.404025 g / cm^3
# Si number density = 24.095089 Si / 1000 Ang^3
#
#
#
# Elastic Constant Matrix: (Units=GPa)
#
#
# Indices 1 2 3 4 5 6 
#
# 1 74.3447 4.3573 -1.7471 0.0000 0.0000 0.0000
# 2 4.3573 127.9073 -0.9902 0.0000 0.0000 0.0000
# 3 -1.7471 -0.9902 42.3300 0.0000 0.0000 0.0000
# 4 0.0000 0.0000 0.0000 38.2270 0.0000 0.0000
# 5 0.0000 0.0000 0.0000 0.0000 30.9457 0.0000
# 6 0.0000 0.0000 0.0000 0.0000 0.0000 58.6005
#
#
#
# Elastic Compliance Matrix: (Units=1/GPa)
#
#
# Indices 1 2 3 4 5 6 
#
# 1 0.013490 -0.000455 0.000546 0.000000 0.000000 0.000000
# 2 -0.000455 0.007835 0.000164 0.000000 0.000000 0.000000
# 3 0.000546 0.000164 0.023650 0.000000 0.000000 0.000000
# 4 0.000000 0.000000 0.000000 0.026159 0.000000 0.000000
# 5 0.000000 0.000000 0.000000 0.000000 0.032315 0.000000
# 6 0.000000 0.000000 0.000000 0.000000 0.000000 0.017065
#
#
# Mechanical properties :
#
#
# Convention : Reuss Voigt Hill
#
# Bulk Modulus (GPa) = 21.98468 27.53577 24.76022
# Shear Modulus (GPa) = 36.99156 41.75212 39.37184
#
# Velocity S-wave (km/s) = 3.92245 4.16721 4.04669
# Velocity P-wave (km/s) = 5.44593 5.88277 5.66856
#
# Compressibility (1/GPa) = 0.04548622
#
# Stress axis : x y z
#
# Youngs Moduli (GPa) = 74.12687 127.63325 42.28274
#
# Poissons Ratio (x) = 0.05812 -0.02309
# Poissons Ratio (y) = 0.03375 -0.00695
# Poissons Ratio (z) = -0.04048 -0.02099
#
# Static dielectric constant tensor:
#      x y z
#    x 1.994850 0.000000 0.000000 
#    y 0.000000 1.887490 0.000000 
#    z 0.000000 0.000000 1.960060 
# 
# From -- ./inp_files/24970.got.cif
#   From: 2010.05.17/outbox.cif.g08.bks.cpg/sg52_13_cif.got.tgz:24970.got - 2010.06.03 12:15:38.
