data_PCOD9411525
_publ_section_title
;
Structure prediction by ZEFSAII (Michael W. Deem and Ramdas Pophale) SiO2 
 PCOD9411525
Probable space group: P N N A
;
_chemical_formula_sum "Si O2"
_cell_formula_units_Z 28
_cell_length_a 4.887638
_cell_length_b 10.559662
_cell_length_c 23.635003
_cell_angle_alpha 90.000000
_cell_angle_beta 90.000000
_cell_angle_gamma 90.000000
_cell_volume 1219.845172
_symmetry_space_group_name_H-M "P N N A"
_symmetry_group_IT_number 52
_symmetry_cell_setting 'orthorhombic'
loop_
_space_group_symop_operation_xyz
x,y,z
1/2-x,-y,z
x,1/2-y,1/2-z
1/2-x,1/2+y,1/2-z
-x,-y,-z
1/2+x,y,-z
-x,1/2+y,1/2+z
1/2+x,1/2-y,1/2+z
loop_
_atom_site_type_symbol
_atom_site_label
_atom_site_fract_x
_atom_site_fract_y
_atom_site_fract_z
Si Si1 0.250000 0.500000 0.302077
Si Si2 0.513919 0.358721 0.210058
Si Si3 0.956090 0.761650 0.647307
Si Si4 0.748129 0.151121 0.463533
O O1 0.483345 0.469098 0.255501
O O2 0.353443 0.618506 0.339695
O O3 0.389902 0.250000 0.250000
O O4 0.808067 0.313216 0.189593
O O5 0.306687 0.353635 0.156871
O O6 0.111368 0.775945 0.587905
O O7 0.439599 0.178584 0.481977
O O8 0.750000 0.000000 0.450958
#
# Coordination Sequence:
#
# PCOD9411525 Si02
#       4
#     4   8   8   8
#     4  10  24  42  64  98 142 174 226 280 328 426
#     4  10  22  37  59  92 131 173 215 258 328 410
#     4  11  23  40  64  94 130 180 218 274 347 397
#     4  10  22  41  64  91 125 168 227 290 338 396
#
# _framework density 22.953733
#
# number of rings (size 3 to 8) (size 9 to 14) (size 15 to 20)
#    0.000    1.714    0.000    4.286    4.000    9.143 
#    0.000    1.429    0.000    0.000    0.000    0.000 
#    0.000    0.000    0.000    0.000    0.000    0.000 
#
# Total GULP energy -156058.469613 kJ/mol
# GULP energy per Si atom -5573.516772 kJ/mol
# Density = 2.290149 g / cm^3
# Si number density = 22.953733 Si / 1000 Ang^3
#
#
#
# Elastic Constant Matrix: (Units=GPa)
#
#
# Indices 1 2 3 4 5 6 
#
# 1 150.2695 46.5591 18.9438 0.0000 0.0000 0.0000
# 2 46.5591 112.0017 56.1554 0.0000 0.0000 0.0000
# 3 18.9438 56.1554 109.9664 0.0000 0.0000 0.0000
# 4 0.0000 0.0000 0.0000 19.5507 0.0000 0.0000
# 5 0.0000 0.0000 0.0000 0.0000 84.6581 0.0000
# 6 0.0000 0.0000 0.0000 0.0000 0.0000 27.5646
#
#
#
# Elastic Compliance Matrix: (Units=1/GPa)
#
#
# Indices 1 2 3 4 5 6 
#
# 1 0.007652 -0.003387 0.000412 0.000000 0.000000 0.000000
# 2 -0.003387 0.013501 -0.006311 0.000000 0.000000 0.000000
# 3 0.000412 -0.006311 0.012245 0.000000 0.000000 0.000000
# 4 0.000000 0.000000 0.000000 0.051149 0.000000 0.000000
# 5 0.000000 0.000000 0.000000 0.000000 0.011812 0.000000
# 6 0.000000 0.000000 0.000000 0.000000 0.000000 0.036278
#
#
# Mechanical properties :
#
#
# Convention : Reuss Voigt Hill
#
# Bulk Modulus (GPa) = 67.45228 68.39492 67.92360
# Shear Modulus (GPa) = 32.01988 43.05997 37.53992
#
# Velocity S-wave (km/s) = 3.73899 4.33592 4.04847
# Velocity P-wave (km/s) = 6.93470 7.41137 7.17699
#
# Compressibility (1/GPa) = 0.01482530
#
# Stress axis : x y z
#
# Youngs Moduli (GPa) = 130.67817 74.07045 81.66331
#
# Poissons Ratio (x) = 0.25091 -0.03361
# Poissons Ratio (y) = 0.44267 0.51535
# Poissons Ratio (z) = -0.05378 0.46744
#
# Static dielectric constant tensor:
#      x y z
#    x 1.911590 0.000000 0.000000 
#    y 0.000000 1.889900 0.000000 
#    z 0.000000 0.000000 1.947370 
# 
# From -- ./inp_files/34751.got.cif
#   From: 2010.05.17/outbox.cif.g08.bks.cpg/sg52_18_cif.got.tgz:34751.got - 2010.06.03 12:15:38.
