data_PCOD9411645
_publ_section_title
;
Structure prediction by ZEFSAII (Michael W. Deem and Ramdas Pophale) SiO2 
 PCOD9411645
Probable space group: P N N A
;
_chemical_formula_sum "Si O2"
_cell_formula_units_Z 44
_cell_length_a 5.481867
_cell_length_b 14.427821
_cell_length_c 26.944346
_cell_angle_alpha 90.000000
_cell_angle_beta 90.000000
_cell_angle_gamma 90.000000
_cell_volume 2131.065935
_symmetry_space_group_name_H-M "P N N A"
_symmetry_group_IT_number 52
_symmetry_cell_setting 'orthorhombic'
loop_
_space_group_symop_operation_xyz
x,y,z
1/2-x,-y,z
x,1/2-y,1/2-z
1/2-x,1/2+y,1/2-z
-x,-y,-z
1/2+x,y,-z
-x,1/2+y,1/2+z
1/2+x,1/2-y,1/2+z
loop_
_atom_site_type_symbol
_atom_site_label
_atom_site_fract_x
_atom_site_fract_y
_atom_site_fract_z
Si Si1 0.242781 0.389672 0.530538
Si Si2 0.750000 0.500000 0.201099
Si Si3 0.815668 0.107641 0.471307
Si Si4 0.834529 0.092287 0.632349
Si Si5 0.454750 0.318457 0.792303
Si Si6 0.801419 0.735053 0.110863
O O1 0.250000 0.500000 0.540469
O O2 0.498527 0.368855 0.502041
O O3 0.220779 0.329401 0.580605
O O4 0.549967 0.455509 0.164475
O O5 0.667421 0.589792 0.231368
O O6 0.560872 0.132961 0.498652
O O7 0.856990 0.159931 0.419574
O O8 0.750000 0.000000 0.462081
O O9 0.656441 0.134726 0.673212
O O10 0.939139 0.182922 0.605966
O O11 0.750000 0.000000 0.601960
O O12 0.542222 0.250000 0.750000
O O13 0.279250 0.265656 0.831810
#
# Coordination Sequence:
#
# PCOD9411645 Si02
#       6
#     8   4   8   8   8   8
#     4  10  23  44  70  94 128 171 223 280 333 387
#     4   8  18  40  60  84 118 164 202 258 320 382
#     4  10  23  37  55  92 131 161 198 250 307 379
#     4   9  20  35  60  90 123 166 208 255 319 393
#     4  10  22  39  61  93 125 168 214 263 320 382
#     4  11  23  36  66  90 125 170 212 261 320 392
#
# _framework density 20.646944000000001
#
# number of rings (size 3 to 8) (size 9 to 14) (size 15 to 20)
#    0.000    2.182    0.000    1.091   12.727    3.636 
#    1.636    0.000    0.000    0.000    0.000    0.000 
#    0.000    0.000    0.000    0.000    0.000    0.000 
#
# Total GULP energy -245007.740569 kJ/mol
# GULP energy per Si atom -5568.357740 kJ/mol
# Density = 2.059995 g / cm^3
# Si number density = 20.646944 Si / 1000 Ang^3
#
#
#
# Elastic Constant Matrix: (Units=GPa)
#
#
# Indices 1 2 3 4 5 6 
#
# 1 93.7898 31.0060 21.6003 0.0000 0.0000 0.0000
# 2 31.0060 125.9542 43.9886 0.0000 0.0000 0.0000
# 3 21.6003 43.9886 68.9840 0.0000 0.0000 0.0000
# 4 0.0000 0.0000 0.0000 28.1630 0.0000 0.0000
# 5 0.0000 0.0000 0.0000 0.0000 12.6766 0.0000
# 6 0.0000 0.0000 0.0000 0.0000 0.0000 19.4332
#
#
#
# Elastic Compliance Matrix: (Units=1/GPa)
#
#
# Indices 1 2 3 4 5 6 
#
# 1 0.011906 -0.002096 -0.002392 0.000000 0.000000 0.000000
# 2 -0.002096 0.010583 -0.006092 0.000000 0.000000 0.000000
# 3 -0.002392 -0.006092 0.019130 0.000000 0.000000 0.000000
# 4 0.000000 0.000000 0.000000 0.035508 0.000000 0.000000
# 5 0.000000 0.000000 0.000000 0.000000 0.078886 0.000000
# 6 0.000000 0.000000 0.000000 0.000000 0.000000 0.051458
#
#
# Mechanical properties :
#
#
# Convention : Reuss Voigt Hill
#
# Bulk Modulus (GPa) = 48.87680 53.54640 51.21160
# Shear Modulus (GPa) = 21.23606 24.86343 23.04975
#
# Velocity S-wave (km/s) = 3.21055 3.47395 3.34485
# Velocity P-wave (km/s) = 6.12108 6.48704 6.30671
#
# Compressibility (1/GPa) = 0.02045961
#
# Stress axis : x y z
#
# Youngs Moduli (GPa) = 83.99326 94.49208 52.27458
#
# Poissons Ratio (x) = 0.19801 0.12502
# Poissons Ratio (y) = 0.17601 0.31847
# Poissons Ratio (z) = 0.20088 0.57566
#
# Static dielectric constant tensor:
#      x y z
#    x 1.932960 0.000000 0.000000 
#    y 0.000000 1.779790 0.000000 
#    z 0.000000 0.000000 1.753310 
# 
# From -- ./inp_files/41624.got.cif
#   From: 2010.05.17/outbox.cif.g08.bks.cpg/sg52_21_cif.got.tgz:41624.got - 2010.06.03 12:15:38.
