data_PCOD9411335
_publ_section_title
;
Structure prediction by ZEFSAII (Michael W. Deem and Ramdas Pophale) SiO2 
 PCOD9411335
Probable space group: P N N A
;
_chemical_formula_sum "Si O2"
_cell_formula_units_Z 32
_cell_length_a 13.126101
_cell_length_b 11.576909
_cell_length_c 9.584731
_cell_angle_alpha 90.000000
_cell_angle_beta 90.000000
_cell_angle_gamma 90.000000
_cell_volume 1456.492625
_symmetry_space_group_name_H-M "P N N A"
_symmetry_group_IT_number 52
_symmetry_cell_setting 'orthorhombic'
loop_
_space_group_symop_operation_xyz
x,y,z
1/2-x,-y,z
x,1/2-y,1/2-z
1/2-x,1/2+y,1/2-z
-x,-y,-z
1/2+x,y,-z
-x,1/2+y,1/2+z
1/2+x,1/2-y,1/2+z
loop_
_atom_site_type_symbol
_atom_site_label
_atom_site_fract_x
_atom_site_fract_y
_atom_site_fract_z
Si Si1 0.866473 0.004840 0.840795
Si Si2 0.414375 0.908941 0.460904
Si Si3 0.479205 0.836871 0.953448
Si Si4 0.205542 0.124672 0.738338
O O1 0.915102 0.129379 0.878367
O O2 0.750000 0.000000 0.887923
O O3 0.870672 0.954597 0.684679
O O4 0.942468 0.922587 0.925683
O O5 0.471737 0.786520 0.472955
O O6 0.328231 0.895870 0.578964
O O7 0.500000 0.000000 0.500000
O O8 0.394033 0.853130 0.833326
O O9 0.263229 0.250000 0.750000
O O10 0.250000 0.000000 0.783788
#
# Coordination Sequence:
#
# PCOD9411335 Si02
#       4
#     8   8   8   8
#     4  11  23  44  70  98 134 177 234 279 350 416
#     4  11  22  43  65  95 134 177 224 279 350 411
#     4  10  23  44  65  96 139 171 223 293 343 410
#     4  10  21  42  66  97 134 176 228 284 348 418
#
# _framework density 21.970590000000001
#
# number of rings (size 3 to 8) (size 9 to 14) (size 15 to 20)
#    0.000    1.500    2.500    2.250    0.000    0.000 
#   27.000    0.000    0.000    0.000    0.000    0.000 
#    0.000    0.000    0.000    0.000    0.000    0.000 
#
# Total GULP energy -178441.459291 kJ/mol
# GULP energy per Si atom -5576.295603 kJ/mol
# Density = 2.192058 g / cm^3
# Si number density = 21.970590 Si / 1000 Ang^3
#
#
#
# Elastic Constant Matrix: (Units=GPa)
#
#
# Indices 1 2 3 4 5 6 
#
# 1 76.0205 44.8672 3.3579 0.0000 0.0000 0.0000
# 2 44.8672 133.7713 -8.2583 0.0000 0.0000 0.0000
# 3 3.3579 -8.2583 114.2237 0.0000 0.0000 0.0000
# 4 0.0000 0.0000 0.0000 -65.6243 0.0000 0.0000
# 5 0.0000 0.0000 0.0000 0.0000 38.6546 0.0000
# 6 0.0000 0.0000 0.0000 0.0000 0.0000 28.5781
#
#
#
# Elastic Compliance Matrix: (Units=1/GPa)
#
#
# Indices 1 2 3 4 5 6 
#
# 1 0.016490 -0.005586 -0.000889 0.000000 0.000000 0.000000
# 2 -0.005586 0.009401 0.000844 0.000000 0.000000 0.000000
# 3 -0.000889 0.000844 0.008842 0.000000 0.000000 0.000000
# 4 0.000000 0.000000 0.000000 -0.015238 0.000000 0.000000
# 5 0.000000 0.000000 0.000000 0.000000 0.025870 0.000000
# 6 0.000000 0.000000 0.000000 0.000000 0.000000 0.034992
#
#
# Mechanical properties :
#
#
# Convention : Reuss Voigt Hill
#
# Bulk Modulus (GPa) = 42.60345 44.88321 43.74333
# Shear Modulus (GPa) = 50.28065 19.25828 34.76946
#
# Velocity S-wave (km/s) = 4.78906 2.96387 3.98244
# Velocity P-wave (km/s) = 7.07201 5.67325 6.41090
#
# Compressibility (1/GPa) = 0.02347228
#
# Stress axis : x y z
#
# Youngs Moduli (GPa) = 60.64173 106.37155 113.09803
#
# Poissons Ratio (x) = 0.59416 0.10050
# Poissons Ratio (y) = 0.33873 -0.09544
# Poissons Ratio (z) = 0.05389 -0.08977
#
# Static dielectric constant tensor:
#      x y z
#    x 1.809290 0.000000 0.000000 
#    y 0.000000 2.091010 0.000000 
#    z 0.000000 0.000000 1.842290 
# 
# From -- ./inp_files/9535.got.cif
#   From: 2010.05.17/outbox.cif.g08.bks.cpg/sg52_5_cif.got.tgz:9535.got - 2010.06.03 12:15:38.
