data_PCOD9411275
_publ_section_title
;
Structure prediction by ZEFSAII (Michael W. Deem and Ramdas Pophale) SiO2 
 PCOD9411275
Probable space group: P N N A
;
_chemical_formula_sum "Si O2"
_cell_formula_units_Z 56
_cell_length_a 20.350411
_cell_length_b 10.029659
_cell_length_c 9.457672
_cell_angle_alpha 90.000000
_cell_angle_beta 90.000000
_cell_angle_gamma 90.000000
_cell_volume 1930.383517
_symmetry_space_group_name_H-M "P N N A"
_symmetry_group_IT_number 52
_symmetry_cell_setting 'orthorhombic'
loop_
_space_group_symop_operation_xyz
x,y,z
1/2-x,-y,z
x,1/2-y,1/2-z
1/2-x,1/2+y,1/2-z
-x,-y,-z
1/2+x,y,-z
-x,1/2+y,1/2+z
1/2+x,1/2-y,1/2+z
loop_
_atom_site_type_symbol
_atom_site_label
_atom_site_fract_x
_atom_site_fract_y
_atom_site_fract_z
Si Si1 0.814245 0.138079 0.052232
Si Si2 0.908853 0.797563 0.588623
Si Si3 0.548803 0.751886 0.081804
Si Si4 0.341576 0.097305 0.259840
Si Si5 0.620854 0.111170 0.164911
Si Si6 0.020559 0.600157 0.305781
Si Si7 0.268511 0.870263 0.502250
O O1 0.872335 0.251672 0.061331
O O2 0.668500 0.984453 0.153224
O O3 0.814225 0.072114 0.896471
O O4 0.749460 0.227673 0.067597
O O5 0.903094 0.750000 0.750000
O O6 0.896367 0.666790 0.490412
O O7 0.843726 0.880607 0.547680
O O8 0.983709 0.837203 0.546933
O O9 0.542579 0.750000 0.250000
O O10 0.536499 0.875914 0.972375
O O11 0.364019 0.250000 0.250000
O O12 0.415552 0.033445 0.268302
O O13 0.281158 0.113462 0.368135
O O14 0.634969 0.250000 0.250000
O O15 0.552233 0.046015 0.221746
O O16 0.011294 0.750000 0.250000
O O17 0.250000 0.000000 0.590974
#
# Coordination Sequence:
#
# PCOD9411275 Si02
#       7
#     8   8   8   8   8   8   8
#     4  10  21  41  68  99 141 200 253 305 391 476
#     4  10  22  42  71 108 148 188 248 324 400 458
#     4   9  19  38  65 105 143 188 244 312 392 460
#     4   8  16  33  59  95 136 179 242 305 384 456
#     4  10  22  41  70 101 145 193 257 319 384 474
#     4   8  15  32  62  95 137 180 241 311 380 462
#     4  11  24  43  67 108 153 199 255 328 396 475
#
# _framework density 29.009779999999999
#
# number of rings (size 3 to 8) (size 9 to 14) (size 15 to 20)
#    0.000    2.571    0.000    2.143    2.000    5.714 
#    5.143    1.429    0.000    0.000    0.000    0.000 
#    0.000    0.000    0.000    0.000    0.000    0.000 
#
# Total GULP energy -312219.206479 kJ/mol
# GULP energy per Si atom -5575.342973 kJ/mol
# Density = 2.894375 g / cm^3
# Si number density = 29.009780 Si / 1000 Ang^3
#
#
#
# Elastic Constant Matrix: (Units=GPa)
#
#
# Indices 1 2 3 4 5 6 
#
# 1 224.0065 49.9842 59.6258 0.0000 0.0000 0.0000
# 2 49.9842 126.4260 22.5964 0.0000 0.0000 0.0000
# 3 59.6258 22.5964 145.7005 0.0000 0.0000 0.0000
# 4 0.0000 0.0000 0.0000 16.8521 0.0000 0.0000
# 5 0.0000 0.0000 0.0000 0.0000 32.4341 0.0000
# 6 0.0000 0.0000 0.0000 0.0000 0.0000 46.8953
#
#
#
# Elastic Compliance Matrix: (Units=1/GPa)
#
#
# Indices 1 2 3 4 5 6 
#
# 1 0.005373 -0.001781 -0.001923 0.000000 0.000000 0.000000
# 2 -0.001781 0.008725 -0.000624 0.000000 0.000000 0.000000
# 3 -0.001923 -0.000624 0.007747 0.000000 0.000000 0.000000
# 4 0.000000 0.000000 0.000000 0.059340 0.000000 0.000000
# 5 0.000000 0.000000 0.000000 0.000000 0.030832 0.000000
# 6 0.000000 0.000000 0.000000 0.000000 0.000000 0.021324
#
#
# Mechanical properties :
#
#
# Convention : Reuss Voigt Hill
#
# Bulk Modulus (GPa) = 75.81580 84.50510 80.16045
# Shear Modulus (GPa) = 34.15437 43.49806 38.82622
#
# Velocity S-wave (km/s) = 3.43496 3.87644 3.66236
# Velocity P-wave (km/s) = 6.47482 7.01633 6.75100
#
# Compressibility (1/GPa) = 0.01318986
#
# Stress axis : x y z
#
# Youngs Moduli (GPa) = 186.10509 114.60765 129.08044
#
# Poissons Ratio (x) = 0.20409 0.24819
# Poissons Ratio (y) = 0.33141 0.08061
# Poissons Ratio (z) = 0.35784 0.07157
#
# Static dielectric constant tensor:
#      x y z
#    x 2.379820 0.000000 0.000000 
#    y 0.000000 2.384140 0.000000 
#    z 0.000000 0.000000 2.368570 
# 
# From -- ./inp_files/20923.got.cif
#   From: 2010.05.17/outbox.cif.g08.bks.cpg/sg52_11_cif.got.tgz:20923.got - 2010.06.03 12:15:38.
