data_PCOD9411496
_publ_section_title
;
Structure prediction by ZEFSAII (Michael W. Deem and Ramdas Pophale) SiO2 
 PCOD9411496
Probable space group: P N N A
;
_chemical_formula_sum "Si O2"
_cell_formula_units_Z 44
_cell_length_a 16.323782
_cell_length_b 23.574129
_cell_length_c 5.432484
_cell_angle_alpha 90.000000
_cell_angle_beta 90.000000
_cell_angle_gamma 90.000000
_cell_volume 2090.522749
_symmetry_space_group_name_H-M "P N N A"
_symmetry_group_IT_number 52
_symmetry_cell_setting 'orthorhombic'
loop_
_space_group_symop_operation_xyz
x,y,z
1/2-x,-y,z
x,1/2-y,1/2-z
1/2-x,1/2+y,1/2-z
-x,-y,-z
1/2+x,y,-z
-x,1/2+y,1/2+z
1/2+x,1/2-y,1/2+z
loop_
_atom_site_type_symbol
_atom_site_label
_atom_site_fract_x
_atom_site_fract_y
_atom_site_fract_z
Si Si1 0.727740 0.183072 0.254044
Si Si2 0.870478 0.818235 0.752723
Si Si3 0.250000 0.500000 0.688807
Si Si4 0.011066 0.422340 0.265504
Si Si5 0.104697 0.974961 0.148294
Si Si6 0.336829 0.403734 0.969031
O O1 0.738862 0.250000 0.250000
O O2 0.667414 0.169306 0.483311
O O3 0.811591 0.154774 0.347286
O O4 0.690835 0.169451 0.983911
O O5 0.889334 0.750000 0.750000
O O6 0.944638 0.862179 0.785073
O O7 0.167226 0.492981 0.533562
O O8 0.270667 0.446094 0.852606
O O9 0.071584 0.473385 0.183616
O O10 0.972720 0.444563 0.522502
O O11 0.930254 0.417333 0.101422
O O12 0.160313 0.923093 0.249248
#
# Coordination Sequence:
#
# PCOD9411496 Si02
#       6
#     8   8   4   8   8   8
#     4  10  24  43  67  94 126 166 222 270 319 385
#     4  10  23  44  69  94 125 175 220 269 325 387
#     4  10  22  36  58  92 126 164 218 256 314 394
#     4  10  23  38  61  89 138 163 217 266 329 395
#     4  10  22  39  57  95 129 173 211 265 334 391
#     4  11  23  37  64  92 125 173 212 269 330 388
#
# _framework density 21.047367999999999
#
# number of rings (size 3 to 8) (size 9 to 14) (size 15 to 20)
#    0.000    1.818    0.000    2.182   12.727    0.727 
#    0.000    0.000    0.000    0.000    0.000    0.000 
#    0.000    0.000    0.000    0.000    0.000    0.000 
#
# Total GULP energy -245052.346053 kJ/mol
# GULP energy per Si atom -5569.371501 kJ/mol
# Density = 2.099946 g / cm^3
# Si number density = 21.047368 Si / 1000 Ang^3
#
#
#
# Elastic Constant Matrix: (Units=GPa)
#
#
# Indices 1 2 3 4 5 6 
#
# 1 78.1232 56.2564 23.0966 0.0000 0.0000 0.0000
# 2 56.2564 72.1671 32.0703 0.0000 0.0000 0.0000
# 3 23.0966 32.0703 69.2800 0.0000 0.0000 0.0000
# 4 0.0000 0.0000 0.0000 24.0637 0.0000 0.0000
# 5 0.0000 0.0000 0.0000 0.0000 -43.7020 0.0000
# 6 0.0000 0.0000 0.0000 0.0000 0.0000 39.3546
#
#
#
# Elastic Compliance Matrix: (Units=1/GPa)
#
#
# Indices 1 2 3 4 5 6 
#
# 1 0.029236 -0.023240 0.001011 0.000000 0.000000 0.000000
# 2 -0.023240 0.035919 -0.008879 0.000000 0.000000 0.000000
# 3 0.001011 -0.008879 0.018207 0.000000 0.000000 0.000000
# 4 0.000000 0.000000 0.000000 0.041556 0.000000 0.000000
# 5 0.000000 0.000000 0.000000 0.000000 -0.022882 0.000000
# 6 0.000000 0.000000 0.000000 0.000000 0.000000 0.025410
#
#
# Mechanical properties :
#
#
# Convention : Reuss Voigt Hill
#
# Bulk Modulus (GPa) = 47.28974 49.15745 48.22360
# Shear Modulus (GPa) = 25.41781 11.15305 18.28543
#
# Velocity S-wave (km/s) = 3.47889 2.30446 2.95070
# Velocity P-wave (km/s) = 6.21723 5.52151 5.87967
#
# Compressibility (1/GPa) = 0.02114624
#
# Stress axis : x y z
#
# Youngs Moduli (GPa) = 34.20382 27.84044 54.92259
#
# Poissons Ratio (x) = 0.64701 -0.05553
# Poissons Ratio (y) = 0.79490 0.48768
# Poissons Ratio (z) = -0.03458 0.24721
#
# Static dielectric constant tensor:
#      x y z
#    x 1.873420 0.000000 0.000000 
#    y 0.000000 1.734900 0.000000 
#    z 0.000000 0.000000 1.894090 
# 
# From -- ./inp_files/2399.got.cif
#   From: 2010.05.17/outbox.cif.g08.bks.cpg/sg52_2_cif.got.tgz:2399.got - 2010.06.03 12:15:38.
