data_PCOD9411591
_publ_section_title
;
Structure prediction by ZEFSAII (Michael W. Deem and Ramdas Pophale) SiO2 
 PCOD9411591
Probable space group: P N N A
;
_chemical_formula_sum "Si O2"
_cell_formula_units_Z 36
_cell_length_a 23.370494
_cell_length_b 13.734423
_cell_length_c 5.442902
_cell_angle_alpha 90.000000
_cell_angle_beta 90.000000
_cell_angle_gamma 90.000000
_cell_volume 1747.064046
_symmetry_space_group_name_H-M "P N N A"
_symmetry_group_IT_number 52
_symmetry_cell_setting 'orthorhombic'
loop_
_space_group_symop_operation_xyz
x,y,z
1/2-x,-y,z
x,1/2-y,1/2-z
1/2-x,1/2+y,1/2-z
-x,-y,-z
1/2+x,y,-z
-x,1/2+y,1/2+z
1/2+x,1/2-y,1/2+z
loop_
_atom_site_type_symbol
_atom_site_label
_atom_site_fract_x
_atom_site_fract_y
_atom_site_fract_z
Si Si1 0.989020 0.104549 0.619180
Si Si2 0.184116 0.969181 0.765969
Si Si3 0.356843 0.134704 0.265272
Si Si4 0.398081 0.854793 0.877399
Si Si5 0.048269 0.250000 0.250000
O O1 0.925041 0.115382 0.716085
O O2 0.037339 0.111983 0.823854
O O3 0.006720 0.193179 0.437164
O O4 0.000000 0.000000 0.500000
O O5 0.169102 0.910896 0.516171
O O6 0.250000 0.000000 0.764837
O O7 0.145625 0.066194 0.785564
O O8 0.168479 0.911173 0.015652
O O9 0.347218 0.250000 0.250000
O O10 0.387997 0.750000 0.750000
O O11 0.405969 0.832023 0.162890
#
# Coordination Sequence:
#
# PCOD9411591 Si02
#       5
#     8   8   8   8   4
#     4  11  22  39  68 103 140 182 222 289 363 427
#     4  12  28  50  71 101 141 191 244 290 345 418
#     4  12  27  46  75 106 143 182 236 297 360 418
#     4  10  23  41  68 101 138 184 232 290 352 423
#     4  10  22  38  64 100 140 174 234 276 362 438
#
# _framework density 20.605998
#
# number of rings (size 3 to 8) (size 9 to 14) (size 15 to 20)
#    0.000    0.889    2.222    4.667    9.333    3.556 
#    2.000    0.000    0.000    0.000    0.000    0.000 
#    0.000    0.000    0.000    0.000    0.000    0.000 
#
# Total GULP energy -200992.070084 kJ/mol
# GULP energy per Si atom -5583.113058 kJ/mol
# Density = 2.055910 g / cm^3
# Si number density = 20.605998 Si / 1000 Ang^3
#
#
#
# Elastic Constant Matrix: (Units=GPa)
#
#
# Indices 1 2 3 4 5 6 
#
# 1 174.0076 78.9482 74.8646 0.0000 0.0000 0.0000
# 2 78.9482 165.3647 67.2509 0.0000 0.0000 0.0000
# 3 74.8646 67.2509 121.6734 0.0000 0.0000 0.0000
# 4 0.0000 0.0000 0.0000 33.9750 0.0000 0.0000
# 5 0.0000 0.0000 0.0000 0.0000 26.5961 0.0000
# 6 0.0000 0.0000 0.0000 0.0000 0.0000 -86.8320
#
#
#
# Elastic Compliance Matrix: (Units=1/GPa)
#
#
# Indices 1 2 3 4 5 6 
#
# 1 0.008552 -0.002506 -0.003877 0.000000 0.000000 0.000000
# 2 -0.002506 0.008535 -0.003175 0.000000 0.000000 0.000000
# 3 -0.003877 -0.003175 0.012359 0.000000 0.000000 0.000000
# 4 0.000000 0.000000 0.000000 0.029433 0.000000 0.000000
# 5 0.000000 0.000000 0.000000 0.000000 0.037600 0.000000
# 6 0.000000 0.000000 0.000000 0.000000 0.000000 -0.011516
#
#
# Mechanical properties :
#
#
# Convention : Reuss Voigt Hill
#
# Bulk Modulus (GPa) = 96.81058 100.35257 98.58158
# Shear Modulus (GPa) = 46.50195 10.74663 28.62429
#
# Velocity S-wave (km/s) = 4.75565 2.28618 3.73114
# Velocity P-wave (km/s) = 8.78855 7.46828 8.15518
#
# Compressibility (1/GPa) = 0.01032945
#
# Stress axis : x y z
#
# Youngs Moduli (GPa) = 116.93376 117.16221 80.91194
#
# Poissons Ratio (x) = 0.29364 0.31367
# Poissons Ratio (y) = 0.29307 0.25693
# Poissons Ratio (z) = 0.45331 0.37204
#
# Static dielectric constant tensor:
#      x y z
#    x 1.701430 0.000000 0.000000 
#    y 0.000000 1.640780 0.000000 
#    z 0.000000 0.000000 2.065750 
# 
# From -- ./inp_files/4850.got.cif
#   From: 2010.05.17/outbox.cif.g08.bks.cpg/sg52_3_cif.got.tgz:4850.got - 2010.06.03 12:15:38.
