data_PCOD9411069
_publ_section_title
;
Structure prediction by ZEFSAII (Michael W. Deem and Ramdas Pophale) SiO2 
 PCOD9411069
Probable space group: P N N A
;
_chemical_formula_sum "Si O2"
_cell_formula_units_Z 36
_cell_length_a 17.061913
_cell_length_b 8.328314
_cell_length_c 12.929088
_cell_angle_alpha 90.000000
_cell_angle_beta 90.000000
_cell_angle_gamma 90.000000
_cell_volume 1837.184216
_symmetry_space_group_name_H-M "P N N A"
_symmetry_group_IT_number 52
_symmetry_cell_setting 'orthorhombic'
loop_
_space_group_symop_operation_xyz
x,y,z
1/2-x,-y,z
x,1/2-y,1/2-z
1/2-x,1/2+y,1/2-z
-x,-y,-z
1/2+x,y,-z
-x,1/2+y,1/2+z
1/2+x,1/2-y,1/2+z
loop_
_atom_site_type_symbol
_atom_site_label
_atom_site_fract_x
_atom_site_fract_y
_atom_site_fract_z
Si Si1 0.914951 0.750000 0.750000
Si Si2 0.388599 0.542442 0.069705
Si Si3 0.687623 0.750000 0.250000
Si Si4 0.446916 0.445705 0.640246
Si Si5 0.750000 0.000000 0.407729
Si Si6 0.486312 0.247259 0.056267
O O1 0.865271 0.649849 0.832436
O O2 0.975587 0.628291 0.693967
O O3 0.426178 0.373431 0.104784
O O4 0.323871 0.514015 0.983438
O O5 0.456150 0.645865 0.013703
O O6 0.628815 0.616489 0.298733
O O7 0.737691 0.655925 0.164566
O O8 0.442351 0.370096 0.524885
O O9 0.462403 0.634451 0.629964
#
# Coordination Sequence:
#
# PCOD9411069 Si02
#       6
#     4   8   4   8   4   8
#     4   9  20  38  62  86 115 154 216 258 315 360
#     4  10  21  40  58  89 122 170 203 267 313 387
#     4  11  24  40  60  96 125 174 208 262 333 398
#     4   9  18  37  62  93 118 149 215 270 304 380
#     4  12  26  42  60  88 142 168 208 258 330 398
#     4   9  18  36  64  87 122 157 205 268 318 356
#
# _framework density 19.595203000000001
#
# number of rings (size 3 to 8) (size 9 to 14) (size 15 to 20)
#    0.000    2.222    2.222    0.000    6.222    0.889 
#    0.000    2.222    0.000    0.000    0.000    0.000 
#    0.000    0.000    0.000    0.000    0.000    0.000 
#
# Total GULP energy -200779.711638 kJ/mol
# GULP energy per Si atom -5577.214212 kJ/mol
# Density = 1.955060 g / cm^3
# Si number density = 19.595203 Si / 1000 Ang^3
#
#
#
# Elastic Constant Matrix: (Units=GPa)
#
#
# Indices 1 2 3 4 5 6 
#
# 1 30.7485 31.4271 11.7514 0.0000 0.0000 0.0000
# 2 31.4271 136.7374 53.0874 0.0000 0.0000 0.0000
# 3 11.7514 53.0874 74.1518 0.0000 0.0000 0.0000
# 4 0.0000 0.0000 0.0000 42.4825 0.0000 0.0000
# 5 0.0000 0.0000 0.0000 0.0000 42.7203 0.0000
# 6 0.0000 0.0000 0.0000 0.0000 0.0000 17.4940
#
#
#
# Elastic Compliance Matrix: (Units=1/GPa)
#
#
# Indices 1 2 3 4 5 6 
#
# 1 0.042514 -0.009910 0.000357 0.000000 0.000000 0.000000
# 2 -0.009910 0.012439 -0.007335 0.000000 0.000000 0.000000
# 3 0.000357 -0.007335 0.018680 0.000000 0.000000 0.000000
# 4 0.000000 0.000000 0.000000 0.023539 0.000000 0.000000
# 5 0.000000 0.000000 0.000000 0.000000 0.023408 0.000000
# 6 0.000000 0.000000 0.000000 0.000000 0.000000 0.057162
#
#
# Mechanical properties :
#
#
# Convention : Reuss Voigt Hill
#
# Bulk Modulus (GPa) = 25.08887 48.24106 36.66497
# Shear Modulus (GPa) = 22.24170 30.23082 26.23626
#
# Velocity S-wave (km/s) = 3.37272 3.93207 3.66308
# Velocity P-wave (km/s) = 5.29135 6.72957 6.05332
#
# Compressibility (1/GPa) = 0.03985831
#
# Stress axis : x y z
#
# Youngs Moduli (GPa) = 23.52170 80.39521 53.53241
#
# Poissons Ratio (x) = 0.79671 -0.01913
# Poissons Ratio (y) = 0.23310 0.39264
# Poissons Ratio (z) = -0.00840 0.58967
#
# Static dielectric constant tensor:
#      x y z
#    x 1.665650 0.000000 0.000000 
#    y 0.000000 1.711430 0.000000 
#    z 0.000000 0.000000 1.725810 
# 
# From -- ./inp_files/26822.got.cif
#   From: 2010.05.17/outbox.cif.g08.bks.cpg/sg52_14_cif.got.tgz:26822.got - 2010.06.03 12:15:38.
