data_PCOD9411215
_publ_section_title
;
Structure prediction by ZEFSAII (Michael W. Deem and Ramdas Pophale) SiO2 
 PCOD9411215
Probable space group: P N N A
;
_chemical_formula_sum "Si O2"
_cell_formula_units_Z 56
_cell_length_a 11.807248
_cell_length_b 14.391194
_cell_length_c 16.016838
_cell_angle_alpha 90.000000
_cell_angle_beta 90.000000
_cell_angle_gamma 90.000000
_cell_volume 2721.587465
_symmetry_space_group_name_H-M "P N N A"
_symmetry_group_IT_number 52
_symmetry_cell_setting 'orthorhombic'
loop_
_space_group_symop_operation_xyz
x,y,z
1/2-x,-y,z
x,1/2-y,1/2-z
1/2-x,1/2+y,1/2-z
-x,-y,-z
1/2+x,y,-z
-x,1/2+y,1/2+z
1/2+x,1/2-y,1/2+z
loop_
_atom_site_type_symbol
_atom_site_label
_atom_site_fract_x
_atom_site_fract_y
_atom_site_fract_z
Si Si1 0.750000 0.000000 0.691788
Si Si2 0.723630 0.704488 0.362336
Si Si3 0.068932 0.250000 0.750000
Si Si4 0.256966 0.855194 0.049918
Si Si5 0.934941 0.482783 0.584426
Si Si6 0.502964 0.952298 0.744534
Si Si7 0.832359 0.803933 0.666279
Si Si8 0.591189 0.633585 0.197738
O O1 0.866059 0.016448 0.740966
O O2 0.727228 0.097894 0.648117
O O3 0.847390 0.717870 0.323641
O O4 0.736301 0.654173 0.450681
O O5 0.646706 0.655909 0.289296
O O6 0.668464 0.808013 0.366228
O O7 0.005226 0.156023 0.724842
O O8 0.135623 0.887043 0.085246
O O9 0.306845 0.762187 0.089045
O O10 0.344464 0.933527 0.081788
O O11 0.022936 0.476625 0.659606
O O12 0.000000 0.500000 0.500000
O O13 0.425955 0.022550 0.690652
O O14 0.789943 0.750000 0.750000
O O15 0.964388 0.825914 0.685211
#
# Coordination Sequence:
#
# PCOD9411215 Si02
#       8
#     4   8   4   8   8   8   8   8
#     4  10  24  36  58  86 122 152 218 256 320 374
#     4  10  21  41  60 100 122 174 211 269 324 405
#     4  10  24  38  64  90 130 162 224 274 328 384
#     4  11  24  37  61  95 132 163 215 270 333 393
#     4  11  23  36  58  94 131 167 202 273 347 396
#     4  11  21  40  60  95 120 173 217 275 323 400
#     4  11  20  39  63  90 117 169 213 271 316 395
#     4   9  20  38  68  84 124 168 226 253 323 396
#
# _framework density 20.576225000000001
#
# number of rings (size 3 to 8) (size 9 to 14) (size 15 to 20)
#    0.000    1.714    1.429    5.143    5.000    3.429 
#    0.000    1.429    0.000    3.429    0.000    0.000 
#    0.000    0.000    0.000    0.000    0.000    0.000 
#
# Total GULP energy -312093.169878 kJ/mol
# GULP energy per Si atom -5573.092319 kJ/mol
# Density = 2.052939 g / cm^3
# Si number density = 20.576225 Si / 1000 Ang^3
#
#
#
# Elastic Constant Matrix: (Units=GPa)
#
#
# Indices 1 2 3 4 5 6 
#
# 1 53.4586 34.9304 5.5017 0.0000 0.0000 0.0000
# 2 34.9304 141.9682 11.0535 0.0000 0.0000 0.0000
# 3 5.5017 11.0535 41.6832 0.0000 0.0000 0.0000
# 4 0.0000 0.0000 0.0000 24.9770 0.0000 0.0000
# 5 0.0000 0.0000 0.0000 0.0000 12.0413 0.0000
# 6 0.0000 0.0000 0.0000 0.0000 0.0000 27.6626
#
#
#
# Elastic Compliance Matrix: (Units=1/GPa)
#
#
# Indices 1 2 3 4 5 6 
#
# 1 0.022384 -0.005389 -0.001525 0.000000 0.000000 0.000000
# 2 -0.005389 0.008490 -0.001540 0.000000 0.000000 0.000000
# 3 -0.001525 -0.001540 0.024600 0.000000 0.000000 0.000000
# 4 0.000000 0.000000 0.000000 0.040037 0.000000 0.000000
# 5 0.000000 0.000000 0.000000 0.000000 0.083048 0.000000
# 6 0.000000 0.000000 0.000000 0.000000 0.000000 0.036150
#
#
# Mechanical properties :
#
#
# Convention : Reuss Voigt Hill
#
# Bulk Modulus (GPa) = 25.92990 37.78679 31.85834
# Shear Modulus (GPa) = 20.45226 25.31113 22.88169
#
# Velocity S-wave (km/s) = 3.15616 3.51111 3.33835
# Velocity P-wave (km/s) = 5.09029 5.90265 5.51146
#
# Compressibility (1/GPa) = 0.03856552
#
# Stress axis : x y z
#
# Youngs Moduli (GPa) = 44.67457 117.79131 40.65008
#
# Poissons Ratio (x) = 0.63474 0.06201
# Poissons Ratio (y) = 0.24074 0.06260
# Poissons Ratio (z) = 0.06815 0.18140
#
# Static dielectric constant tensor:
#      x y z
#    x 1.163060 0.000000 0.000000 
#    y 0.000000 1.792840 0.000000 
#    z 0.000000 0.000000 1.715170 
# 
# From -- ./inp_files/26198.got.cif
#   From: 2010.05.17/outbox.cif.g08.bks.cpg/sg52_14_cif.got.tgz:26198.got - 2010.06.03 12:15:38.
