data_PCOD9411330
_publ_section_title
;
Structure prediction by ZEFSAII (Michael W. Deem and Ramdas Pophale) SiO2 
 PCOD9411330
Probable space group: P N N A
;
_chemical_formula_sum "Si O2"
_cell_formula_units_Z 32
_cell_length_a 13.517172
_cell_length_b 20.633143
_cell_length_c 5.002419
_cell_angle_alpha 90.000000
_cell_angle_beta 90.000000
_cell_angle_gamma 90.000000
_cell_volume 1395.183377
_symmetry_space_group_name_H-M "P N N A"
_symmetry_group_IT_number 52
_symmetry_cell_setting 'orthorhombic'
loop_
_space_group_symop_operation_xyz
x,y,z
1/2-x,-y,z
x,1/2-y,1/2-z
1/2-x,1/2+y,1/2-z
-x,-y,-z
1/2+x,y,-z
-x,1/2+y,1/2+z
1/2+x,1/2-y,1/2+z
loop_
_atom_site_type_symbol
_atom_site_label
_atom_site_fract_x
_atom_site_fract_y
_atom_site_fract_z
Si Si1 0.934902 0.905569 0.873194
Si Si2 0.211716 0.208371 0.982133
Si Si3 0.358650 0.382256 0.811580
Si Si4 0.613777 0.545449 0.682015
O O1 0.856177 0.852009 0.941124
O O2 0.022829 0.874346 0.699275
O O3 0.889111 0.970402 0.744892
O O4 0.999546 0.932249 0.126654
O O5 0.233834 0.250000 0.250000
O O6 0.158762 0.250000 0.750000
O O7 0.304715 0.178430 0.819228
O O8 0.338554 0.441357 0.606089
O O9 0.336053 0.407046 0.105767
#
# Coordination Sequence:
#
# PCOD9411330 Si02
#       4
#     8   8   8   8
#     4   9  23  41  72  95 133 162 231 278 346 390
#     4  12  28  42  62  98 139 188 233 260 326 427
#     4  10  21  42  66  94 134 165 218 280 339 393
#     4   9  20  41  70 100 122 165 216 290 352 390
#
# _framework density 22.936053000000001
#
# number of rings (size 3 to 8) (size 9 to 14) (size 15 to 20)
#    1.500    0.500    0.000    2.250    3.500    3.000 
#    0.000    2.500    0.000    0.000    0.000    0.000 
#    0.000    0.000    0.000    0.000    0.000    0.000 
#
# Total GULP energy -178407.566379 kJ/mol
# GULP energy per Si atom -5575.236449 kJ/mol
# Density = 2.288385 g / cm^3
# Si number density = 22.936053 Si / 1000 Ang^3
#
#
#
# Elastic Constant Matrix: (Units=GPa)
#
#
# Indices 1 2 3 4 5 6 
#
# 1 39.6480 45.7319 15.1147 0.0000 0.0000 0.0000
# 2 45.7319 136.3105 35.6470 0.0000 0.0000 0.0000
# 3 15.1147 35.6470 122.9207 0.0000 0.0000 0.0000
# 4 0.0000 0.0000 0.0000 32.3858 0.0000 0.0000
# 5 0.0000 0.0000 0.0000 0.0000 11.5223 0.0000
# 6 0.0000 0.0000 0.0000 0.0000 0.0000 19.4242
#
#
#
# Elastic Compliance Matrix: (Units=1/GPa)
#
#
# Indices 1 2 3 4 5 6 
#
# 1 0.041293 -0.013554 -0.001147 0.000000 0.000000 0.000000
# 2 -0.013554 0.012387 -0.001926 0.000000 0.000000 0.000000
# 3 -0.001147 -0.001926 0.008835 0.000000 0.000000 0.000000
# 4 0.000000 0.000000 0.000000 0.030878 0.000000 0.000000
# 5 0.000000 0.000000 0.000000 0.000000 0.086788 0.000000
# 6 0.000000 0.000000 0.000000 0.000000 0.000000 0.051482
#
#
# Mechanical properties :
#
#
# Convention : Reuss Voigt Hill
#
# Bulk Modulus (GPa) = 34.17405 54.65182 44.41294
# Shear Modulus (GPa) = 18.20373 26.15884 22.18129
#
# Velocity S-wave (km/s) = 2.82028 3.38081 3.11318
# Velocity P-wave (km/s) = 5.05345 6.25456 5.68581
#
# Compressibility (1/GPa) = 0.02926197
#
# Stress axis : x y z
#
# Youngs Moduli (GPa) = 24.21747 80.73002 113.18897
#
# Poissons Ratio (x) = 1.09418 0.12982
# Poissons Ratio (y) = 0.32823 0.21796
# Poissons Ratio (z) = 0.02778 0.15546
#
# Static dielectric constant tensor:
#      x y z
#    x 1.918500 0.000000 0.000000 
#    y 0.000000 1.882890 0.000000 
#    z 0.000000 0.000000 1.885080 
# 
# From -- ./inp_files/2082.got.cif
#   From: 2010.05.17/outbox.cif.g08.bks.cpg/sg52_2_cif.got.tgz:2082.got - 2010.06.03 12:15:38.
