data_PCOD9411026
_publ_section_title
;
Structure prediction by ZEFSAII (Michael W. Deem and Ramdas Pophale) SiO2 
 PCOD9411026
Probable space group: P N N A
;
_chemical_formula_sum "Si O2"
_cell_formula_units_Z 40
_cell_length_a 8.586921
_cell_length_b 21.235809
_cell_length_c 9.360350
_cell_angle_alpha 90.000000
_cell_angle_beta 90.000000
_cell_angle_gamma 90.000000
_cell_volume 1706.861828
_symmetry_space_group_name_H-M "P N N A"
_symmetry_group_IT_number 52
_symmetry_cell_setting 'orthorhombic'
loop_
_space_group_symop_operation_xyz
x,y,z
1/2-x,-y,z
x,1/2-y,1/2-z
1/2-x,1/2+y,1/2-z
-x,-y,-z
1/2+x,y,-z
-x,1/2+y,1/2+z
1/2+x,1/2-y,1/2+z
loop_
_atom_site_type_symbol
_atom_site_label
_atom_site_fract_x
_atom_site_fract_y
_atom_site_fract_z
Si Si1 0.003743 0.661811 0.409036
Si Si2 0.911749 0.864395 0.613319
Si Si3 0.244169 0.379622 0.815672
Si Si4 0.180385 0.090292 0.114422
Si Si5 0.716333 0.750000 0.750000
Si Si6 0.250000 0.000000 0.878464
O O1 0.861432 0.657494 0.298106
O O2 0.924303 0.649504 0.560603
O O3 0.138019 0.608544 0.391850
O O4 0.101855 0.723027 0.372618
O O5 0.863538 0.884899 0.455318
O O6 0.864843 0.920374 0.723434
O O7 0.813977 0.804571 0.671422
O O8 0.094015 0.850970 0.630922
O O9 0.289749 0.443392 0.729758
O O10 0.146904 0.037642 0.996204
#
# Coordination Sequence:
#
# PCOD9411026 Si02
#       6
#     8   8   8   8   4   4
#     4  10  22  40  64  96 130 168 218 263 319 395
#     4  11  24  42  66  99 134 172 226 271 322 399
#     4  11  25  44  65  98 136 174 224 270 325 401
#     4  10  21  39  65  98 129 168 221 265 317 394
#     4  10  24  44  70  96 134 176 208 276 338 374
#     4  10  24  44  70  94 136 178 210 278 340 374
#
# _framework density 23.434820999999999
#
# number of rings (size 3 to 8) (size 9 to 14) (size 15 to 20)
#    0.000    1.600    0.000    4.800    0.000   16.000 
#    0.000    0.000    0.000    0.000    0.000    0.000 
#    0.000    0.000    0.000    0.000    0.000    0.000 
#
# Total GULP energy -223111.652548 kJ/mol
# GULP energy per Si atom -5577.791314 kJ/mol
# Density = 2.338148 g / cm^3
# Si number density = 23.434821 Si / 1000 Ang^3
#
#
#
# Elastic Constant Matrix: (Units=GPa)
#
#
# Indices 1 2 3 4 5 6 
#
# 1 130.6389 24.4922 2.1747 0.0000 0.0000 0.0000
# 2 24.4922 77.8492 15.6030 0.0000 0.0000 0.0000
# 3 2.1747 15.6030 121.0129 0.0000 0.0000 0.0000
# 4 0.0000 0.0000 0.0000 30.1383 0.0000 0.0000
# 5 0.0000 0.0000 0.0000 0.0000 18.6996 0.0000
# 6 0.0000 0.0000 0.0000 0.0000 0.0000 23.8373
#
#
#
# Elastic Compliance Matrix: (Units=1/GPa)
#
#
# Indices 1 2 3 4 5 6 
#
# 1 0.008139 -0.002598 0.000189 0.000000 0.000000 0.000000
# 2 -0.002598 0.014016 -0.001760 0.000000 0.000000 0.000000
# 3 0.000189 -0.001760 0.008487 0.000000 0.000000 0.000000
# 4 0.000000 0.000000 0.000000 0.033180 0.000000 0.000000
# 5 0.000000 0.000000 0.000000 0.000000 0.053477 0.000000
# 6 0.000000 0.000000 0.000000 0.000000 0.000000 0.041951
#
#
# Mechanical properties :
#
#
# Convention : Reuss Voigt Hill
#
# Bulk Modulus (GPa) = 44.84009 46.00452 45.42231
# Shear Modulus (GPa) = 28.56755 33.68379 31.12567
#
# Velocity S-wave (km/s) = 3.49524 3.79534 3.64837
# Velocity P-wave (km/s) = 5.95520 6.23535 6.09688
#
# Compressibility (1/GPa) = 0.02230147
#
# Stress axis : x y z
#
# Youngs Moduli (GPa) = 122.86991 71.34876 117.82485
#
# Poissons Ratio (x) = 0.18539 -0.02224
# Poissons Ratio (y) = 0.31926 0.20742
# Poissons Ratio (z) = -0.02319 0.12560
#
# Static dielectric constant tensor:
#      x y z
#    x 1.882910 0.000000 0.000000 
#    y 0.000000 1.995880 0.000000 
#    z 0.000000 0.000000 1.867380 
# 
# From -- ./inp_files/7459.got.cif
#   From: 2010.05.17/outbox.cif.g08.bks.cpg/sg52_4_cif.got.tgz:7459.got - 2010.06.03 12:15:38.
