data_PCOD9411600
_publ_section_title
;
Structure prediction by ZEFSAII (Michael W. Deem and Ramdas Pophale) SiO2 
 PCOD9411600
Probable space group: P N N A
;
_chemical_formula_sum "Si O2"
_cell_formula_units_Z 28
_cell_length_a 10.178594
_cell_length_b 5.226210
_cell_length_c 25.505402
_cell_angle_alpha 90.000000
_cell_angle_beta 90.000000
_cell_angle_gamma 90.000000
_cell_volume 1356.771841
_symmetry_space_group_name_H-M "P N N A"
_symmetry_group_IT_number 52
_symmetry_cell_setting 'orthorhombic'
loop_
_space_group_symop_operation_xyz
x,y,z
1/2-x,-y,z
x,1/2-y,1/2-z
1/2-x,1/2+y,1/2-z
-x,-y,-z
1/2+x,y,-z
-x,1/2+y,1/2+z
1/2+x,1/2-y,1/2+z
loop_
_atom_site_type_symbol
_atom_site_label
_atom_site_fract_x
_atom_site_fract_y
_atom_site_fract_z
Si Si1 0.885534 0.619780 0.300627
Si Si2 0.397884 0.012511 0.120191
Si Si3 0.250000 0.000000 0.618119
Si Si4 0.488745 0.963041 0.438209
O O1 0.750000 0.500000 0.279052
O O2 0.949870 0.750000 0.250000
O O3 0.995101 0.465916 0.333323
O O4 0.824015 0.805097 0.344184
O O5 0.434537 0.281406 0.091312
O O6 0.250000 0.000000 0.141596
O O7 0.405045 0.782558 0.078432
O O8 0.364959 0.106460 0.582041
O O9 0.500000 0.000000 0.500000
#
# Coordination Sequence:
#
# PCOD9411600 Si02
#       4
#     8   8   4   8
#     4  11  21  41  67  95 128 171 222 277 337 388
#     4  11  25  44  65  97 138 171 218 277 329 404
#     4  10  22  38  64  96 128 166 224 276 312 398
#     4  11  24  42  66  95 133 179 221 268 331 392
#
# _framework density 20.637221
#
# number of rings (size 3 to 8) (size 9 to 14) (size 15 to 20)
#    0.000    1.143    4.286    1.714    4.000    0.000 
#    0.000    7.143    0.000    0.000    0.000    0.000 
#    0.000    0.000    0.000    0.000    0.000    0.000 
#
# Total GULP energy -156099.672892 kJ/mol
# GULP energy per Si atom -5574.988318 kJ/mol
# Density = 2.059025 g / cm^3
# Si number density = 20.637221 Si / 1000 Ang^3
#
#
#
# Elastic Constant Matrix: (Units=GPa)
#
#
# Indices 1 2 3 4 5 6 
#
# 1 109.5314 11.6524 31.9078 0.0000 0.0000 0.0000
# 2 11.6524 83.8159 16.3385 0.0000 0.0000 0.0000
# 3 31.9078 16.3385 113.0861 0.0000 0.0000 0.0000
# 4 0.0000 0.0000 0.0000 25.3256 0.0000 0.0000
# 5 0.0000 0.0000 0.0000 0.0000 16.3095 0.0000
# 6 0.0000 0.0000 0.0000 0.0000 0.0000 13.2128
#
#
#
# Elastic Compliance Matrix: (Units=1/GPa)
#
#
# Indices 1 2 3 4 5 6 
#
# 1 0.010008 -0.000865 -0.002699 0.000000 0.000000 0.000000
# 2 -0.000865 0.012351 -0.001540 0.000000 0.000000 0.000000
# 3 -0.002699 -0.001540 0.009827 0.000000 0.000000 0.000000
# 4 0.000000 0.000000 0.000000 0.039486 0.000000 0.000000
# 5 0.000000 0.000000 0.000000 0.000000 0.061314 0.000000
# 6 0.000000 0.000000 0.000000 0.000000 0.000000 0.075684
#
#
# Mechanical properties :
#
#
# Convention : Reuss Voigt Hill
#
# Bulk Modulus (GPa) = 45.50118 47.35899 46.43008
# Shear Modulus (GPa) = 22.10385 27.40522 24.75453
#
# Velocity S-wave (km/s) = 3.27627 3.64806 3.46715
# Velocity P-wave (km/s) = 6.03389 6.38299 6.21090
#
# Compressibility (1/GPa) = 0.02197745
#
# Stress axis : x y z
#
# Youngs Moduli (GPa) = 99.91959 80.96198 101.76192
#
# Poissons Ratio (x) = 0.07005 0.27464
# Poissons Ratio (y) = 0.08646 0.15675
# Poissons Ratio (z) = 0.26966 0.12471
#
# Static dielectric constant tensor:
#      x y z
#    x 2.732040 0.000000 0.000000 
#    y 0.000000 1.836610 0.000000 
#    z 0.000000 0.000000 1.824220 
# 
# From -- ./inp_files/41947.got.cif
#   From: 2010.05.17/outbox.cif.g08.bks.cpg/sg52_21_cif.got.tgz:41947.got - 2010.06.03 12:15:38.
