data_PCOD9411848
_publ_section_title
;
Structure prediction by ZEFSAII (Michael W. Deem and Ramdas Pophale) SiO2 
 PCOD9411848
Probable space group: P N N A
;
_chemical_formula_sum "Si O2"
_cell_formula_units_Z 32
_cell_length_a 4.918606
_cell_length_b 12.724272
_cell_length_c 25.519738
_cell_angle_alpha 90.000000
_cell_angle_beta 90.000000
_cell_angle_gamma 90.000000
_cell_volume 1597.170172
_symmetry_space_group_name_H-M "P N N A"
_symmetry_group_IT_number 52
_symmetry_cell_setting 'orthorhombic'
loop_
_space_group_symop_operation_xyz
x,y,z
1/2-x,-y,z
x,1/2-y,1/2-z
1/2-x,1/2+y,1/2-z
-x,-y,-z
1/2+x,y,-z
-x,1/2+y,1/2+z
1/2+x,1/2-y,1/2+z
loop_
_atom_site_type_symbol
_atom_site_label
_atom_site_fract_x
_atom_site_fract_y
_atom_site_fract_z
Si Si1 0.773850 0.876226 0.171160
Si Si2 0.248441 0.754136 0.360549
Si Si3 0.768836 0.376723 0.965008
Si Si4 0.502710 0.073083 0.282732
O O1 0.504265 0.806991 0.163797
O O2 0.006091 0.828877 0.134637
O O3 0.875610 0.871641 0.231378
O O4 0.750000 0.000000 0.160416
O O5 0.312837 0.807222 0.415762
O O6 0.123179 0.844765 0.323263
O O7 0.750000 0.500000 0.950426
O O8 0.571433 0.357866 0.014204
O O9 0.250000 0.000000 0.265761
O O10 0.750000 0.000000 0.304275
#
# Coordination Sequence:
#
# PCOD9411848 Si02
#       4
#     8   8   8   8
#     4  11  24  40  58  87 126 167 209 249 291 351
#     4  12  23  40  66  89 121 166 208 245 305 370
#     4  10  22  41  65  93 121 148 190 253 317 369
#     4  11  23  39  60  92 129 161 204 254 306 369
#
# _framework density 20.035433000000001
#
# number of rings (size 3 to 8) (size 9 to 14) (size 15 to 20)
#    0.000    1.000    0.000    8.250    0.000    7.000 
#    0.000    0.000    0.000   15.000    0.000    0.000 
#    0.000    0.000    0.000    0.000    0.000    0.000 
#
# Total GULP energy -178974.924217 kJ/mol
# GULP energy per Si atom -5592.966382 kJ/mol
# Density = 1.998983 g / cm^3
# Si number density = 20.035433 Si / 1000 Ang^3
#
#
#
# Elastic Constant Matrix: (Units=GPa)
#
#
# Indices 1 2 3 4 5 6 
#
# 1 133.7019 53.0995 25.1707 0.0000 0.0000 0.0000
# 2 53.0995 113.1587 69.6012 0.0000 0.0000 0.0000
# 3 25.1707 69.6012 77.7105 0.0000 0.0000 0.0000
# 4 0.0000 0.0000 0.0000 15.1415 0.0000 0.0000
# 5 0.0000 0.0000 0.0000 0.0000 4.8475 0.0000
# 6 0.0000 0.0000 0.0000 0.0000 0.0000 49.9901
#
#
#
# Elastic Compliance Matrix: (Units=1/GPa)
#
#
# Indices 1 2 3 4 5 6 
#
# 1 0.009330 -0.005610 0.002002 0.000000 0.000000 0.000000
# 2 -0.005610 0.023050 -0.018828 0.000000 0.000000 0.000000
# 3 0.002002 -0.018828 0.029083 0.000000 0.000000 0.000000
# 4 0.000000 0.000000 0.000000 0.066044 0.000000 0.000000
# 5 0.000000 0.000000 0.000000 0.000000 0.206292 0.000000
# 6 0.000000 0.000000 0.000000 0.000000 0.000000 0.020004
#
#
# Mechanical properties :
#
#
# Convention : Reuss Voigt Hill
#
# Bulk Modulus (GPa) = 60.26766 68.92376 64.59571
# Shear Modulus (GPa) = 12.37001 25.77581 19.07291
#
# Velocity S-wave (km/s) = 2.48746 3.59069 3.08873
# Velocity P-wave (km/s) = 6.19643 7.18793 6.71052
#
# Compressibility (1/GPa) = 0.01659265
#
# Stress axis : x y z
#
# Youngs Moduli (GPa) = 107.17787 43.38415 34.38485
#
# Poissons Ratio (x) = 0.24337 -0.06885
# Poissons Ratio (y) = 0.60124 0.64738
# Poissons Ratio (z) = -0.21460 0.81682
#
# Static dielectric constant tensor:
#      x y z
#    x 1.721990 0.000000 0.000000 
#    y 0.000000 1.752390 0.000000 
#    z 0.000000 0.000000 1.671270 
# 
# From -- ./inp_files/34823.got.cif
#   From: 2010.05.17/outbox.cif.g08.bks.cpg/sg52_18_cif.got.tgz:34823.got - 2010.06.03 12:15:38.
