data_PCOD9411820
_publ_section_title
;
Structure prediction by ZEFSAII (Michael W. Deem and Ramdas Pophale) SiO2 
 PCOD9411820
Probable space group: P N N A
;
_chemical_formula_sum "Si O2"
_cell_formula_units_Z 40
_cell_length_a 12.510850
_cell_length_b 26.554461
_cell_length_c 5.239871
_cell_angle_alpha 90.000000
_cell_angle_beta 90.000000
_cell_angle_gamma 90.000000
_cell_volume 1740.784067
_symmetry_space_group_name_H-M "P N N A"
_symmetry_group_IT_number 52
_symmetry_cell_setting 'orthorhombic'
loop_
_space_group_symop_operation_xyz
x,y,z
1/2-x,-y,z
x,1/2-y,1/2-z
1/2-x,1/2+y,1/2-z
-x,-y,-z
1/2+x,y,-z
-x,1/2+y,1/2+z
1/2+x,1/2-y,1/2+z
loop_
_atom_site_type_symbol
_atom_site_label
_atom_site_fract_x
_atom_site_fract_y
_atom_site_fract_z
Si Si1 0.052479 0.961906 0.193188
Si Si2 0.207775 0.881686 0.261982
Si Si3 0.977982 0.190915 0.736382
Si Si4 0.607913 0.190764 0.763760
Si Si5 0.167193 0.037680 0.590839
O O1 0.135489 0.920281 0.096948
O O2 0.942072 0.938299 0.299793
O O3 0.116927 0.997706 0.388517
O O4 0.000000 0.000000 0.000000
O O5 0.298687 0.846556 0.148282
O O6 0.265456 0.917671 0.465717
O O7 0.120237 0.842424 0.358657
O O8 0.949669 0.250000 0.750000
O O9 0.069185 0.181724 0.525215
O O10 0.016239 0.181292 0.025856
O O11 0.638661 0.250000 0.750000
O O12 0.250000 0.000000 0.741541
#
# Coordination Sequence:
#
# PCOD9411820 Si02
#       5
#     8   8   8   8   8
#     4  10  22  41  61  89 127 169 218 280 326 393
#     4  11  22  40  67  95 129 178 224 274 340 405
#     4  10  23  44  68 101 140 174 221 281 335 405
#     4  10  23  44  67  98 137 174 220 273 333 404
#     4   9  21  41  60  87 125 168 216 268 328 390
#
# _framework density 22.978152000000001
#
# number of rings (size 3 to 8) (size 9 to 14) (size 15 to 20)
#    0.000    2.000    0.000    1.800    2.800    4.000 
#   14.400    6.000    0.000    0.000    0.000    0.000 
#    0.000    0.000    0.000    0.000    0.000    0.000 
#
# Total GULP energy -222884.536616 kJ/mol
# GULP energy per Si atom -5572.113415 kJ/mol
# Density = 2.292585 g / cm^3
# Si number density = 22.978152 Si / 1000 Ang^3
#
#
#
# Elastic Constant Matrix: (Units=GPa)
#
#
# Indices 1 2 3 4 5 6 
#
# 1 123.9401 85.3759 17.7248 0.0000 0.0000 0.0000
# 2 85.3759 118.9915 21.6150 0.0000 0.0000 0.0000
# 3 17.7248 21.6150 51.9894 0.0000 0.0000 0.0000
# 4 0.0000 0.0000 0.0000 10.7355 0.0000 0.0000
# 5 0.0000 0.0000 0.0000 0.0000 -10.7640 0.0000
# 6 0.0000 0.0000 0.0000 0.0000 0.0000 -0.2355
#
#
#
# Elastic Compliance Matrix: (Units=1/GPa)
#
#
# Indices 1 2 3 4 5 6 
#
# 1 0.015979 -0.011331 -0.000737 0.000000 0.000000 0.000000
# 2 -0.011331 0.017126 -0.003257 0.000000 0.000000 0.000000
# 3 -0.000737 -0.003257 0.020840 0.000000 0.000000 0.000000
# 4 0.000000 0.000000 0.000000 0.093149 0.000000 0.000000
# 5 0.000000 0.000000 0.000000 0.000000 -0.092902 0.000000
# 6 0.000000 0.000000 0.000000 0.000000 0.000000 -4.246220
#
#
# Mechanical properties :
#
#
# Convention : Reuss Voigt Hill
#
# Bulk Modulus (GPa) = 42.92769 60.48360 51.70565
# Shear Modulus (GPa) = -1.20377 11.29422 5.04522
#
# Velocity S-wave (km/s) = -0.72458 2.21943 1.48338
# Velocity P-wave (km/s) = 4.24529 5.73996 5.04825
#
# Compressibility (1/GPa) = 0.02329499
#
# Stress axis : x y z
#
# Youngs Moduli (GPa) = 62.58112 58.39184 47.98468
#
# Poissons Ratio (x) = 0.66165 0.03535
# Poissons Ratio (y) = 0.70912 0.15628
# Poissons Ratio (z) = 0.04611 0.19018
#
# Static dielectric constant tensor:
#      x y z
#    x 2.055100 0.000000 0.000000 
#    y 0.000000 1.790520 0.000000 
#    z 0.000000 0.000000 1.977800 
# 
# From -- ./inp_files/1495.got.cif
#   From: 2010.05.17/outbox.cif.g08.bks.cpg/sg52_1_cif.got.tgz:1495.got - 2010.06.03 12:15:38.
