data_PCOD9411301
_publ_section_title
;
Structure prediction by ZEFSAII (Michael W. Deem and Ramdas Pophale) SiO2 
 PCOD9411301
Probable space group: P N N A
;
_chemical_formula_sum "Si O2"
_cell_formula_units_Z 64
_cell_length_a 7.933882
_cell_length_b 20.840109
_cell_length_c 21.791703
_cell_angle_alpha 90.000000
_cell_angle_beta 90.000000
_cell_angle_gamma 90.000000
_cell_volume 3603.104801
_symmetry_space_group_name_H-M "P N N A"
_symmetry_group_IT_number 52
_symmetry_cell_setting 'orthorhombic'
loop_
_space_group_symop_operation_xyz
x,y,z
1/2-x,-y,z
x,1/2-y,1/2-z
1/2-x,1/2+y,1/2-z
-x,-y,-z
1/2+x,y,-z
-x,1/2+y,1/2+z
1/2+x,1/2-y,1/2+z
loop_
_atom_site_type_symbol
_atom_site_label
_atom_site_fract_x
_atom_site_fract_y
_atom_site_fract_z
Si Si1 0.345260 0.770927 0.649452
Si Si2 0.144427 0.145164 0.766477
Si Si3 0.337577 0.566899 0.540885
Si Si4 0.492573 0.228576 0.916922
Si Si5 0.624490 0.740628 0.558363
Si Si6 0.910169 0.399825 0.351205
Si Si7 0.185683 0.600263 0.420990
Si Si8 0.094282 0.528206 0.305648
O O1 0.358605 0.828740 0.697623
O O2 0.389524 0.706650 0.689174
O O3 0.478581 0.778844 0.593840
O O4 0.154773 0.761875 0.623488
O O5 0.330636 0.123826 0.787756
O O6 0.023496 0.083737 0.777498
O O7 0.250000 0.500000 0.534248
O O8 0.242689 0.597293 0.599014
O O9 0.315917 0.603084 0.476794
O O10 0.532034 0.558756 0.552067
O O11 0.680635 0.258166 0.925967
O O12 0.517251 0.158767 0.882051
O O13 0.414326 0.230037 0.986019
O O14 0.608800 0.669631 0.586034
O O15 0.979556 0.471419 0.336037
O O16 0.205976 0.565920 0.356915
O O17 0.250000 0.500000 0.265470
#
# Coordination Sequence:
#
# PCOD9411301 Si02
#       8
#     8   8   8   8   8   8   8   8
#     4  10  22  41  60  78 111 158 201 248 288 341
#     4  10  21  42  57  73 111 157 203 244 290 332
#     4  12  21  30  42  66 104 151 198 227 273 324
#     4  11  22  35  58  87 114 155 187 239 299 341
#     4  12  20  36  57  83 120 146 197 238 289 343
#     4  11  21  36  53  75 111 153 192 238 279 339
#     4  12  22  31  45  72 107 154 191 235 279 327
#     4  12  23  35  52  80 112 148 201 242 283 338
#
# _framework density 17.762459
#
# number of rings (size 3 to 8) (size 9 to 14) (size 15 to 20)
#    0.000    0.750    6.250    3.375    1.750    0.000 
#    2.250    1.250    0.000    0.000    0.000    0.000 
#    0.000    7.000    0.000    0.000    0.000    0.000 
#
# Total GULP energy -356308.079206 kJ/mol
# GULP energy per Si atom -5567.313738 kJ/mol
# Density = 1.772203 g / cm^3
# Si number density = 17.762459 Si / 1000 Ang^3
#
#
#
# Elastic Constant Matrix: (Units=GPa)
#
#
# Indices 1 2 3 4 5 6 
#
# 1 72.5803 29.3562 35.3352 0.0000 0.0000 0.0000
# 2 29.3562 54.9991 45.7999 0.0000 0.0000 0.0000
# 3 35.3352 45.7999 85.1892 0.0000 0.0000 0.0000
# 4 0.0000 0.0000 0.0000 30.9513 0.0000 0.0000
# 5 0.0000 0.0000 0.0000 0.0000 15.8795 0.0000
# 6 0.0000 0.0000 0.0000 0.0000 0.0000 15.4505
#
#
#
# Elastic Compliance Matrix: (Units=1/GPa)
#
#
# Indices 1 2 3 4 5 6 
#
# 1 0.018385 -0.006270 -0.004255 0.000000 0.000000 0.000000
# 2 -0.006270 0.035059 -0.016248 0.000000 0.000000 0.000000
# 3 -0.004255 -0.016248 0.022239 0.000000 0.000000 0.000000
# 4 0.000000 0.000000 0.000000 0.032309 0.000000 0.000000
# 5 0.000000 0.000000 0.000000 0.000000 0.062974 0.000000
# 6 0.000000 0.000000 0.000000 0.000000 0.000000 0.064723
#
#
# Mechanical properties :
#
#
# Convention : Reuss Voigt Hill
#
# Bulk Modulus (GPa) = 45.17269 48.19457 46.68363
# Shear Modulus (GPa) = 16.85690 19.27474 18.06582
#
# Velocity S-wave (km/s) = 3.08396 3.29772 3.19263
# Velocity P-wave (km/s) = 6.17801 6.45691 6.31900
#
# Compressibility (1/GPa) = 0.02213727
#
# Stress axis : x y z
#
# Youngs Moduli (GPa) = 54.39098 28.52325 44.96640
#
# Poissons Ratio (x) = 0.17884 0.19134
# Poissons Ratio (y) = 0.34103 0.73061
# Poissons Ratio (z) = 0.23144 0.46344
#
# Static dielectric constant tensor:
#      x y z
#    x 1.765950 0.000000 0.000000 
#    y 0.000000 1.657750 0.000000 
#    z 0.000000 0.000000 1.650830 
# 
# From -- ./inp_files/36197.got.cif
#   From: 2010.05.17/outbox.cif.g08.bks.cpg/sg52_19_cif.got.tgz:36197.got - 2010.06.03 12:15:38.
