data_PCOD9411396
_publ_section_title
;
Structure prediction by ZEFSAII (Michael W. Deem and Ramdas Pophale) SiO2 
 PCOD9411396
Probable space group: P N N A
;
_chemical_formula_sum "Si O2"
_cell_formula_units_Z 40
_cell_length_a 11.599178
_cell_length_b 9.297605
_cell_length_c 16.431843
_cell_angle_alpha 90.000000
_cell_angle_beta 90.000000
_cell_angle_gamma 90.000000
_cell_volume 1772.085131
_symmetry_space_group_name_H-M "P N N A"
_symmetry_group_IT_number 52
_symmetry_cell_setting 'orthorhombic'
loop_
_space_group_symop_operation_xyz
x,y,z
1/2-x,-y,z
x,1/2-y,1/2-z
1/2-x,1/2+y,1/2-z
-x,-y,-z
1/2+x,y,-z
-x,1/2+y,1/2+z
1/2+x,1/2-y,1/2+z
loop_
_atom_site_type_symbol
_atom_site_label
_atom_site_fract_x
_atom_site_fract_y
_atom_site_fract_z
Si Si1 0.966120 0.086268 0.244160
Si Si2 0.718820 0.653156 0.128414
Si Si3 0.631643 0.085550 0.095418
Si Si4 0.114995 0.983813 0.387319
Si Si5 0.514677 0.772631 0.487644
O O1 0.014403 0.250000 0.250000
O O2 0.842191 0.106387 0.288127
O O3 0.046726 0.995221 0.303115
O O4 0.943062 0.005919 0.159814
O O5 0.750000 0.500000 0.087583
O O6 0.823772 0.762658 0.134375
O O7 0.619405 0.731783 0.076374
O O8 0.558565 0.136984 0.017372
O O9 0.750000 0.000000 0.076070
O O10 0.071337 0.113590 0.445555
O O11 0.250000 0.000000 0.375567
O O12 0.074597 0.840907 0.433183
#
# Coordination Sequence:
#
# PCOD9411396 Si02
#       5
#     8   8   8   8   8
#     4  11  24  42  61  98 138 177 228 282 329 416
#     4  11  23  41  71  99 136 173 227 288 351 403
#     4  12  24  41  69  98 138 179 224 281 350 400
#     4  10  21  43  70  91 133 179 231 275 347 411
#     4  10  22  40  68 102 127 173 233 282 332 422
#
# _framework density 22.572278000000001
#
# number of rings (size 3 to 8) (size 9 to 14) (size 15 to 20)
#    0.000    1.200    2.000    6.000    0.000    4.800 
#    3.600    0.000    0.000    0.000    0.000    0.000 
#    0.000    0.000    0.000    0.000    0.000    0.000 
#
# Total GULP energy -223621.144841 kJ/mol
# GULP energy per Si atom -5590.528621 kJ/mol
# Density = 2.252090 g / cm^3
# Si number density = 22.572278 Si / 1000 Ang^3
#
#
#
# Elastic Constant Matrix: (Units=GPa)
#
#
# Indices 1 2 3 4 5 6 
#
# 1 81.9597 36.0165 14.9266 0.0000 0.0000 0.0000
# 2 36.0165 97.4321 28.2305 0.0000 0.0000 0.0000
# 3 14.9266 28.2305 69.2885 0.0000 0.0000 0.0000
# 4 0.0000 0.0000 0.0000 19.7744 0.0000 0.0000
# 5 0.0000 0.0000 0.0000 0.0000 16.1293 0.0000
# 6 0.0000 0.0000 0.0000 0.0000 0.0000 38.7845
#
#
#
# Elastic Compliance Matrix: (Units=1/GPa)
#
#
# Indices 1 2 3 4 5 6 
#
# 1 0.014638 -0.005099 -0.001076 0.000000 0.000000 0.000000
# 2 -0.005099 0.013414 -0.004367 0.000000 0.000000 0.000000
# 3 -0.001076 -0.004367 0.016443 0.000000 0.000000 0.000000
# 4 0.000000 0.000000 0.000000 0.050570 0.000000 0.000000
# 5 0.000000 0.000000 0.000000 0.000000 0.061999 0.000000
# 6 0.000000 0.000000 0.000000 0.000000 0.000000 0.025783
#
#
# Mechanical properties :
#
#
# Convention : Reuss Voigt Hill
#
# Bulk Modulus (GPa) = 42.71418 45.22527 43.96973
# Shear Modulus (GPa) = 23.61439 26.23809 24.92624
#
# Velocity S-wave (km/s) = 3.23796 3.41310 3.32668
# Velocity P-wave (km/s) = 5.73965 5.96755 5.85471
#
# Compressibility (1/GPa) = 0.02341143
#
# Stress axis : x y z
#
# Youngs Moduli (GPa) = 68.31584 74.55013 60.81507
#
# Poissons Ratio (x) = 0.38015 0.06542
# Poissons Ratio (y) = 0.34836 0.26556
# Poissons Ratio (z) = 0.07349 0.32554
#
# Static dielectric constant tensor:
#      x y z
#    x 1.822430 0.000000 0.000000 
#    y 0.000000 1.952830 0.000000 
#    z 0.000000 0.000000 1.877640 
# 
# From -- ./inp_files/31981.got.cif
#   From: 2010.05.17/outbox.cif.g08.bks.cpg/sg52_16_cif.got.tgz:31981.got - 2010.06.03 12:15:38.
