data_PCOD9411178
_publ_section_title
;
Structure prediction by ZEFSAII (Michael W. Deem and Ramdas Pophale) SiO2 
 PCOD9411178
Probable space group: P N N A
;
_chemical_formula_sum "Si O2"
_cell_formula_units_Z 32
_cell_length_a 8.774770
_cell_length_b 5.239165
_cell_length_c 35.642286
_cell_angle_alpha 90.000000
_cell_angle_beta 90.000000
_cell_angle_gamma 90.000000
_cell_volume 1638.563848
_symmetry_space_group_name_H-M "P N N A"
_symmetry_group_IT_number 52
_symmetry_cell_setting 'orthorhombic'
loop_
_space_group_symop_operation_xyz
x,y,z
1/2-x,-y,z
x,1/2-y,1/2-z
1/2-x,1/2+y,1/2-z
-x,-y,-z
1/2+x,y,-z
-x,1/2+y,1/2+z
1/2+x,1/2-y,1/2+z
loop_
_atom_site_type_symbol
_atom_site_label
_atom_site_fract_x
_atom_site_fract_y
_atom_site_fract_z
Si Si1 0.358250 0.251184 0.833349
Si Si2 0.250000 0.500000 0.986576
Si Si3 0.349483 0.735526 0.386227
Si Si4 0.645493 0.750000 0.250000
Si Si5 0.012136 0.302987 0.465970
O O1 0.250000 0.500000 0.836355
O O2 0.498523 0.273378 0.861804
O O3 0.429480 0.241675 0.791032
O O4 0.250000 0.000000 0.838702
O O5 0.341947 0.303836 0.960908
O O6 0.126249 0.396296 0.015246
O O7 0.250000 0.500000 0.370599
O O8 0.410952 0.634756 0.426720
O O9 0.250000 0.000000 0.389251
O O10 0.750000 0.500000 0.249153
O O11 0.000000 0.500000 0.500000
#
# Coordination Sequence:
#
# PCOD9411178 Si02
#       5
#     8   4   8   4   8
#     4  10  21  40  67  96 125 166 214 255 306 375
#     4  10  22  38  60  82 108 150 204 254 304 372
#     4  12  26  43  62  91 133 166 203 264 325 372
#     4   8  16  34  62  94 126 158 204 260 302 358
#     4  11  23  40  60  84 115 157 205 256 316 365
#
# _framework density 19.529298000000001
#
# number of rings (size 3 to 8) (size 9 to 14) (size 15 to 20)
#    0.000    1.500    1.250    3.750    5.250    2.000 
#    0.000    1.250    0.000    0.000    0.000    0.000 
#    0.000    0.000    0.000    0.000    0.000    0.000 
#
# Total GULP energy -178154.871709 kJ/mol
# GULP energy per Si atom -5567.339741 kJ/mol
# Density = 1.948485 g / cm^3
# Si number density = 19.529298 Si / 1000 Ang^3
#
#
#
# Elastic Constant Matrix: (Units=GPa)
#
#
# Indices 1 2 3 4 5 6 
#
# 1 107.1314 38.1712 56.4673 0.0000 0.0000 0.0000
# 2 38.1712 109.8255 24.4979 0.0000 0.0000 0.0000
# 3 56.4673 24.4979 119.8776 0.0000 0.0000 0.0000
# 4 0.0000 0.0000 0.0000 19.2686 0.0000 0.0000
# 5 0.0000 0.0000 0.0000 0.0000 21.6269 0.0000
# 6 0.0000 0.0000 0.0000 0.0000 0.0000 25.4177
#
#
#
# Elastic Compliance Matrix: (Units=1/GPa)
#
#
# Indices 1 2 3 4 5 6 
#
# 1 0.013556 -0.003444 -0.005682 0.000000 0.000000 0.000000
# 2 -0.003444 0.010415 -0.000506 0.000000 0.000000 0.000000
# 3 -0.005682 -0.000506 0.011122 0.000000 0.000000 0.000000
# 4 0.000000 0.000000 0.000000 0.051898 0.000000 0.000000
# 5 0.000000 0.000000 0.000000 0.000000 0.046239 0.000000
# 6 0.000000 0.000000 0.000000 0.000000 0.000000 0.039343
#
#
# Mechanical properties :
#
#
# Convention : Reuss Voigt Hill
#
# Bulk Modulus (GPa) = 63.17473 63.90081 63.53777
# Shear Modulus (GPa) = 25.36617 27.77584 26.57101
#
# Velocity S-wave (km/s) = 3.60790 3.77538 3.69259
# Velocity P-wave (km/s) = 7.05513 7.19696 7.12640
#
# Compressibility (1/GPa) = 0.01582911
#
# Stress axis : x y z
#
# Youngs Moduli (GPa) = 73.76656 96.01220 89.91535
#
# Poissons Ratio (x) = 0.33069 0.51087
# Poissons Ratio (y) = 0.25407 0.04550
# Poissons Ratio (z) = 0.41912 0.04859
#
# Static dielectric constant tensor:
#      x y z
#    x 1.634490 0.000000 0.000000 
#    y 0.000000 1.741980 0.000000 
#    z 0.000000 0.000000 1.808850 
# 
# From -- ./inp_files/44133.got.cif
#   From: 2010.05.17/outbox.cif.g08.bks.cpg/sg52_23_cif.got.tgz:44133.got - 2010.06.03 12:15:38.
