data_PCOD9411919
_publ_section_title
;
Structure prediction by ZEFSAII (Michael W. Deem and Ramdas Pophale) SiO2 
 PCOD9411919
Probable space group: P N N A
;
_chemical_formula_sum "Si O2"
_cell_formula_units_Z 64
_cell_length_a 15.873190
_cell_length_b 18.016980
_cell_length_c 11.197058
_cell_angle_alpha 90.000000
_cell_angle_beta 90.000000
_cell_angle_gamma 90.000000
_cell_volume 3202.212430
_symmetry_space_group_name_H-M "P N N A"
_symmetry_group_IT_number 52
_symmetry_cell_setting 'orthorhombic'
loop_
_space_group_symop_operation_xyz
x,y,z
1/2-x,-y,z
x,1/2-y,1/2-z
1/2-x,1/2+y,1/2-z
-x,-y,-z
1/2+x,y,-z
-x,1/2+y,1/2+z
1/2+x,1/2-y,1/2+z
loop_
_atom_site_type_symbol
_atom_site_label
_atom_site_fract_x
_atom_site_fract_y
_atom_site_fract_z
Si Si1 0.846284 0.339276 0.906426
Si Si2 0.932553 0.872431 0.829618
Si Si3 0.500000 0.247602 1.000000
Si Si4 0.149033 0.000000 0.005187
Si Si5 0.153716 0.339276 0.093574
Si Si6 0.843807 0.000000 0.483620
Si Si7 0.447631 0.000000 0.753775
Si Si8 0.567447 0.627569 0.670382
O O1 0.750000 0.314038 0.927342
O O2 0.869818 0.336815 0.766488
O O3 0.915836 0.296930 0.986420
O O4 0.851925 0.426116 0.939300
O O5 0.869818 0.836815 0.733512
O O6 0.994903 0.927625 0.762376
O O7 0.988482 0.808674 0.889817
O O8 0.886251 0.926521 0.925801
O O9 0.488482 0.191326 0.110182
O O10 0.584164 0.296930 0.986420
O O11 0.250000 0.000000 0.007301
O O12 0.112285 0.000000 0.870907
O O13 0.113749 0.926521 0.074199
O O14 0.148075 0.426116 0.060700
O O15 0.904496 0.000000 0.372745
O O16 0.750000 0.000000 0.431600
O O17 0.505097 0.927625 0.762376
#
# Coordination Sequence:
#
# PCOD9411919 Si02
#       8
#     8   8   8   8   8   8   8   8
#     4  11  25  43  68  97 126 170 223 273 324 382
#     4  11  22  41  63  92 130 166 215 269 322 382
#     4  12  24  42  60  96 136 170 206 266 328 390
#     4  11  21  37  65  96 124 168 217 270 323 384
#     4  11  25  43  68  97 126 170 223 273 324 382
#     4  10  22  42  63  93 123 157 217 275 320 382
#     4  11  20  39  65  91 127 172 207 260 336 383
#     4  11  22  41  63  92 130 166 215 269 322 382
#
# _framework density 19.986181999999999
#
# number of rings (size 3 to 8) (size 9 to 14) (size 15 to 20)
#    0.000    1.000    2.500    5.625    0.000    5.500 
#    0.000    0.000    0.000    6.000    0.000    0.000 
#    0.000    0.000    0.000    0.000    0.000    0.000 
#
# Total GULP energy -357525.655039 kJ/mol
# GULP energy per Si atom -5586.338360 kJ/mol
# Density = 1.994069 g / cm^3
# Si number density = 19.986182 Si / 1000 Ang^3
#
#
#
# Elastic Constant Matrix: (Units=GPa)
#
#
# Indices 1 2 3 4 5 6 
#
# 1 124.4314 44.9765 39.5902 0.0000 0.0000 0.0000
# 2 44.9765 97.7048 0.0685 0.0000 0.0000 0.0000
# 3 39.5902 0.0685 65.0410 0.0000 0.0000 0.0000
# 4 0.0000 0.0000 0.0000 -42.1836 0.0000 0.0000
# 5 0.0000 0.0000 0.0000 0.0000 36.1482 0.0000
# 6 0.0000 0.0000 0.0000 0.0000 0.0000 9.0940
#
#
#
# Elastic Compliance Matrix: (Units=1/GPa)
#
#
# Indices 1 2 3 4 5 6 
#
# 1 0.012552 -0.005773 -0.007634 0.000000 0.000000 0.000000
# 2 -0.005773 0.012890 0.003500 0.000000 0.000000 0.000000
# 3 -0.007634 0.003500 0.020018 0.000000 0.000000 0.000000
# 4 0.000000 0.000000 0.000000 -0.023706 0.000000 0.000000
# 5 0.000000 0.000000 0.000000 0.000000 0.027664 0.000000
# 6 0.000000 0.000000 0.000000 0.000000 0.000000 0.109962
#
#
# Mechanical properties :
#
#
# Convention : Reuss Voigt Hill
#
# Bulk Modulus (GPa) = 38.99162 50.71639 44.85400
# Shear Modulus (GPa) = 26.63214 14.11453 20.37334
#
# Velocity S-wave (km/s) = 3.65434 2.66035 3.19622
# Velocity P-wave (km/s) = 6.11206 5.90487 6.00936
#
# Compressibility (1/GPa) = 0.02564654
#
# Stress axis : x y z
#
# Youngs Moduli (GPa) = 79.66737 77.58038 49.95442
#
# Poissons Ratio (x) = 0.44786 0.38137
# Poissons Ratio (y) = 0.45990 -0.17486
# Poissons Ratio (z) = 0.60821 -0.27156
#
# Static dielectric constant tensor:
#      x y z
#    x 1.706870 0.000000 0.000000 
#    y 0.000000 1.725510 0.000000 
#    z 0.000000 0.000000 1.705280 
# 
# From -- ./inp_files/19885.got.cif
#   From: 2010.05.17/outbox.cif.g08.bks.cpg/sg52_10_cif.got.tgz:19885.got - 2010.06.03 12:15:38.
