data_PCOD9411974
_publ_section_title
;
Structure prediction by ZEFSAII (Michael W. Deem and Ramdas Pophale) SiO2 
 PCOD9411974
Probable space group: P N N A
;
_chemical_formula_sum "Si O2"
_cell_formula_units_Z 48
_cell_length_a 9.874948
_cell_length_b 14.219973
_cell_length_c 17.010599
_cell_angle_alpha 90.000000
_cell_angle_beta 90.000000
_cell_angle_gamma 90.000000
_cell_volume 2388.653724
_symmetry_space_group_name_H-M "P N N A"
_symmetry_group_IT_number 52
_symmetry_cell_setting 'orthorhombic'
loop_
_space_group_symop_operation_xyz
x,y,z
1/2-x,-y,z
x,1/2-y,1/2-z
1/2-x,1/2+y,1/2-z
-x,-y,-z
1/2+x,y,-z
-x,1/2+y,1/2+z
1/2+x,1/2-y,1/2+z
loop_
_atom_site_type_symbol
_atom_site_label
_atom_site_fract_x
_atom_site_fract_y
_atom_site_fract_z
Si Si1 0.186606 0.400916 0.110463
Si Si2 0.250000 0.000000 0.771399
Si Si3 0.250000 0.000000 0.248002
Si Si4 0.476645 0.644992 0.502603
Si Si5 0.006900 0.005965 0.129765
Si Si6 0.602828 0.669379 0.181954
Si Si7 0.219233 0.742126 0.978854
O O1 0.250000 0.500000 0.076938
O O2 0.235464 0.590375 0.194486
O O3 0.033405 0.377132 0.141974
O O4 0.216909 0.328624 0.041805
O O5 0.371994 0.972184 0.828284
O O6 0.311314 0.085617 0.721661
O O7 0.121715 0.011487 0.194030
O O8 0.500335 0.605291 0.415014
O O9 0.536386 0.568449 0.561817
O O10 0.320903 0.668836 0.518598
O O11 0.570458 0.734891 0.511463
O O12 0.575475 0.750000 0.250000
O O13 0.693371 0.709115 0.110032
#
# Coordination Sequence:
#
# PCOD9411974 Si02
#       7
#     8   4   4   8   8   8   8
#     4  10  25  46  68  99 137 186 232 283 352 414
#     4  12  24  42  70 100 132 186 234 292 346 424
#     4  10  22  42  68  96 130 190 226 286 346 422
#     4  11  24  40  66 101 134 185 224 300 351 426
#     4  11  22  42  66  97 142 173 237 287 363 411
#     4  12  26  46  72 104 146 187 237 300 355 418
#     4  12  25  43  69  99 140 181 237 281 357 414
#
# _framework density 20.095002999999998
#
# number of rings (size 3 to 8) (size 9 to 14) (size 15 to 20)
#    0.500    0.333    3.333    4.000    1.167    7.333 
#    0.000    1.667    0.000    0.000    0.000    0.000 
#    0.000    0.000    0.000    0.000    0.000    0.000 
#
# Total GULP energy -267204.393658 kJ/mol
# GULP energy per Si atom -5566.758201 kJ/mol
# Density = 2.004927 g / cm^3
# Si number density = 20.095003 Si / 1000 Ang^3
#
#
#
# Elastic Constant Matrix: (Units=GPa)
#
#
# Indices 1 2 3 4 5 6 
#
# 1 88.7607 28.1856 36.3049 0.0000 0.0000 0.0000
# 2 28.1856 74.2606 40.7339 0.0000 0.0000 0.0000
# 3 36.3049 40.7339 123.3962 0.0000 0.0000 0.0000
# 4 0.0000 0.0000 0.0000 38.1700 0.0000 0.0000
# 5 0.0000 0.0000 0.0000 0.0000 46.9627 0.0000
# 6 0.0000 0.0000 0.0000 0.0000 0.0000 29.2492
#
#
#
# Elastic Compliance Matrix: (Units=1/GPa)
#
#
# Indices 1 2 3 4 5 6 
#
# 1 0.013557 -0.003612 -0.002796 0.000000 0.000000 0.000000
# 2 -0.003612 0.017406 -0.004683 0.000000 0.000000 0.000000
# 3 -0.002796 -0.004683 0.010473 0.000000 0.000000 0.000000
# 4 0.000000 0.000000 0.000000 0.026199 0.000000 0.000000
# 5 0.000000 0.000000 0.000000 0.000000 0.021294 0.000000
# 6 0.000000 0.000000 0.000000 0.000000 0.000000 0.034189
#
#
# Mechanical properties :
#
#
# Convention : Reuss Voigt Hill
#
# Bulk Modulus (GPa) = 51.94018 55.20734 53.57376
# Shear Modulus (GPa) = 32.95625 34.95592 33.95608
#
# Velocity S-wave (km/s) = 4.05411 4.17530 4.11515
# Velocity P-wave (km/s) = 6.91505 7.12579 7.02121
#
# Compressibility (1/GPa) = 0.01925292
#
# Stress axis : x y z
#
# Youngs Moduli (GPa) = 73.76325 57.45244 95.48677
#
# Poissons Ratio (x) = 0.20750 0.26702
# Poissons Ratio (y) = 0.26640 0.44718
# Poissons Ratio (z) = 0.20627 0.26906
#
# Static dielectric constant tensor:
#      x y z
#    x 1.702810 0.000000 0.000000 
#    y 0.000000 1.823880 0.000000 
#    z 0.000000 0.000000 1.700550 
# 
# From -- ./inp_files/31287.got.cif
#   From: 2010.05.17/outbox.cif.g08.bks.cpg/sg52_16_cif.got.tgz:31287.got - 2010.06.03 12:15:38.
