data_PCOD9411878
_publ_section_title
;
Structure prediction by ZEFSAII (Michael W. Deem and Ramdas Pophale) SiO2 
 PCOD9411878
Probable space group: P N N A
;
_chemical_formula_sum "Si O2"
_cell_formula_units_Z 40
_cell_length_a 10.759533
_cell_length_b 9.821982
_cell_length_c 17.589393
_cell_angle_alpha 90.000000
_cell_angle_beta 90.000000
_cell_angle_gamma 90.000000
_cell_volume 1858.845987
_symmetry_space_group_name_H-M "P N N A"
_symmetry_group_IT_number 52
_symmetry_cell_setting 'orthorhombic'
loop_
_space_group_symop_operation_xyz
x,y,z
1/2-x,-y,z
x,1/2-y,1/2-z
1/2-x,1/2+y,1/2-z
-x,-y,-z
1/2+x,y,-z
-x,1/2+y,1/2+z
1/2+x,1/2-y,1/2+z
loop_
_atom_site_type_symbol
_atom_site_label
_atom_site_fract_x
_atom_site_fract_y
_atom_site_fract_z
Si Si1 0.000791 0.552605 0.586162
Si Si2 0.386815 0.536107 0.947226
Si Si3 0.105205 0.217562 0.861107
Si Si4 0.250000 0.500000 0.323870
Si Si5 0.116478 0.703308 0.832724
Si Si6 0.885196 0.250000 0.750000
O O1 0.864309 0.545007 0.622863
O O2 0.000000 0.500000 0.500000
O O3 0.086455 0.442457 0.630834
O O4 0.057660 0.699154 0.603261
O O5 0.250000 0.500000 0.977545
O O6 0.392804 0.698542 0.938621
O O7 0.396512 0.449526 0.867076
O O8 0.500000 0.500000 0.000000
O O9 0.237508 0.260823 0.828223
O O10 0.983206 0.272260 0.818094
O O11 0.199052 0.622441 0.272156
O O12 0.063407 0.750000 0.750000
#
# Coordination Sequence:
#
# PCOD9411878 Si02
#       6
#     8   8   8   4   8   4
#     4  11  25  43  66  96 135 176 225 269 340 399
#     4  10  23  44  64  97 134 175 220 270 340 402
#     4  10  22  41  68  92 130 168 217 280 330 387
#     4  10  26  42  66  96 138 178 216 274 344 392
#     4  11  24  40  72  99 127 168 230 275 328 390
#     4  10  22  44  62  96 132 168 222 276 338 388
#
# _framework density 21.518727999999999
#
# number of rings (size 3 to 8) (size 9 to 14) (size 15 to 20)
#    0.000    1.600    1.000    1.800    9.800    1.600 
#   12.600    0.000    0.000    0.000    0.000    0.000 
#    0.000    0.000    0.000    0.000    0.000    0.000 
#
# Total GULP energy -223147.488383 kJ/mol
# GULP energy per Si atom -5578.687210 kJ/mol
# Density = 2.146975 g / cm^3
# Si number density = 21.518728 Si / 1000 Ang^3
#
#
#
# Elastic Constant Matrix: (Units=GPa)
#
#
# Indices 1 2 3 4 5 6 
#
# 1 103.2198 41.2769 26.0341 0.0000 0.0000 0.0000
# 2 41.2769 90.0780 1.5755 0.0000 0.0000 0.0000
# 3 26.0341 1.5755 64.6605 0.0000 0.0000 0.0000
# 4 0.0000 0.0000 0.0000 24.8806 0.0000 0.0000
# 5 0.0000 0.0000 0.0000 0.0000 48.8109 0.0000
# 6 0.0000 0.0000 0.0000 0.0000 0.0000 15.7977
#
#
#
# Elastic Compliance Matrix: (Units=1/GPa)
#
#
# Indices 1 2 3 4 5 6 
#
# 1 0.013442 -0.006068 -0.005264 0.000000 0.000000 0.000000
# 2 -0.006068 0.013845 0.002106 0.000000 0.000000 0.000000
# 3 -0.005264 0.002106 0.017534 0.000000 0.000000 0.000000
# 4 0.000000 0.000000 0.000000 0.040192 0.000000 0.000000
# 5 0.000000 0.000000 0.000000 0.000000 0.020487 0.000000
# 6 0.000000 0.000000 0.000000 0.000000 0.000000 0.063301
#
#
# Mechanical properties :
#
#
# Convention : Reuss Voigt Hill
#
# Bulk Modulus (GPa) = 37.92437 43.97015 40.94726
# Shear Modulus (GPa) = 25.50462 30.50262 28.00362
#
# Velocity S-wave (km/s) = 3.44645 3.76904 3.61135
# Velocity P-wave (km/s) = 5.78788 6.27843 6.03814
#
# Compressibility (1/GPa) = 0.02636827
#
# Stress axis : x y z
#
# Youngs Moduli (GPa) = 74.39222 72.22786 57.03311
#
# Poissons Ratio (x) = 0.43825 0.30024
# Poissons Ratio (y) = 0.45139 -0.12009
# Poissons Ratio (z) = 0.39163 -0.15209
#
# Static dielectric constant tensor:
#      x y z
#    x 1.672210 0.000000 0.000000 
#    y 0.000000 1.783300 0.000000 
#    z 0.000000 0.000000 1.887180 
# 
# From -- ./inp_files/30940.got.cif
#   From: 2010.05.17/outbox.cif.g08.bks.cpg/sg52_16_cif.got.tgz:30940.got - 2010.06.03 12:15:38.
