data_PCOD9411233
_publ_section_title
;
Structure prediction by ZEFSAII (Michael W. Deem and Ramdas Pophale) SiO2 
 PCOD9411233
Probable space group: P N N A
;
_chemical_formula_sum "Si O2"
_cell_formula_units_Z 48
_cell_length_a 14.521548
_cell_length_b 9.121799
_cell_length_c 18.604237
_cell_angle_alpha 90.000000
_cell_angle_beta 90.000000
_cell_angle_gamma 90.000000
_cell_volume 2464.366386
_symmetry_space_group_name_H-M "P N N A"
_symmetry_group_IT_number 52
_symmetry_cell_setting 'orthorhombic'
loop_
_space_group_symop_operation_xyz
x,y,z
1/2-x,-y,z
x,1/2-y,1/2-z
1/2-x,1/2+y,1/2-z
-x,-y,-z
1/2+x,y,-z
-x,1/2+y,1/2+z
1/2+x,1/2-y,1/2+z
loop_
_atom_site_type_symbol
_atom_site_label
_atom_site_fract_x
_atom_site_fract_y
_atom_site_fract_z
Si Si1 0.600519 0.326312 0.539083
Si Si2 0.524343 0.628954 0.687240
Si Si3 0.834859 0.615434 0.696837
Si Si4 0.742244 0.330570 0.048459
Si Si5 0.309841 0.641424 0.683286
Si Si6 0.902075 0.159816 0.974525
O O1 0.637244 0.318088 0.619853
O O2 0.648228 0.200686 0.493707
O O3 0.629519 0.490968 0.514460
O O4 0.491848 0.319857 0.524480
O O5 0.532097 0.750000 0.750000
O O6 0.576705 0.484801 0.715841
O O7 0.417001 0.602892 0.669730
O O8 0.570702 0.670714 0.610165
O O9 0.750000 0.500000 0.691902
O O10 0.815237 0.750000 0.750000
O O11 0.750000 0.500000 0.067386
O O12 0.735694 0.227135 0.117356
O O13 0.824315 0.272569 0.998006
O O14 0.250000 0.500000 0.699091
O O15 0.309965 0.750000 0.750000
#
# Coordination Sequence:
#
# PCOD9411233 Si02
#       6
#     8   8   8   8   8   8
#     4  10  21  41  64  94 120 170 224 260 323 381
#     4  10  22  43  68  96 128 169 214 270 329 385
#     4  11  24  41  64  97 128 172 215 263 329 391
#     4  12  25  40  63  98 132 169 211 270 333 384
#     4  11  24  44  67  94 131 172 219 269 326 390
#     4  10  21  41  68  90 126 170 219 268 317 392
#
# _framework density 19.477622
#
# number of rings (size 3 to 8) (size 9 to 14) (size 15 to 20)
#    0.000    1.333    1.667    4.500    4.667    3.333 
#    6.000    0.000    0.000    0.000    0.000    0.000 
#    0.000    0.000    0.000    0.000    0.000    0.000 
#
# Total GULP energy -268111.459688 kJ/mol
# GULP energy per Si atom -5585.655410 kJ/mol
# Density = 1.943329 g / cm^3
# Si number density = 19.477622 Si / 1000 Ang^3
#
#
#
# Elastic Constant Matrix: (Units=GPa)
#
#
# Indices 1 2 3 4 5 6 
#
# 1 88.2513 34.9051 22.4647 0.0000 0.0000 0.0000
# 2 34.9051 53.5256 8.0024 0.0000 0.0000 0.0000
# 3 22.4647 8.0024 74.7279 0.0000 0.0000 0.0000
# 4 0.0000 0.0000 0.0000 22.8904 0.0000 0.0000
# 5 0.0000 0.0000 0.0000 0.0000 23.2394 0.0000
# 6 0.0000 0.0000 0.0000 0.0000 0.0000 -1.9729
#
#
#
# Elastic Compliance Matrix: (Units=1/GPa)
#
#
# Indices 1 2 3 4 5 6 
#
# 1 0.016275 -0.010043 -0.003817 0.000000 0.000000 0.000000
# 2 -0.010043 0.025183 0.000322 0.000000 0.000000 0.000000
# 3 -0.003817 0.000322 0.014495 0.000000 0.000000 0.000000
# 4 0.000000 0.000000 0.000000 0.043686 0.000000 0.000000
# 5 0.000000 0.000000 0.000000 0.000000 0.043030 0.000000
# 6 0.000000 0.000000 0.000000 0.000000 0.000000 -0.506877
#
#
# Mechanical properties :
#
#
# Convention : Reuss Voigt Hill
#
# Bulk Modulus (GPa) = 34.62816 38.58326 36.60571
# Shear Modulus (GPa) = -15.26690 18.90688 1.81999
#
# Velocity S-wave (km/s) = -2.80271 3.11898 0.96769
# Velocity P-wave (km/s) = 2.70988 5.72911 4.48142
#
# Compressibility (1/GPa) = 0.02887823
#
# Stress axis : x y z
#
# Youngs Moduli (GPa) = 61.44394 39.70858 68.98983
#
# Poissons Ratio (x) = 0.39878 0.26335
# Poissons Ratio (y) = 0.61706 -0.02223
# Poissons Ratio (z) = 0.23454 -0.01279
#
# Static dielectric constant tensor:
#      x y z
#    x 1.687910 0.000000 0.000000 
#    y 0.000000 1.648940 0.000000 
#    z 0.000000 0.000000 1.711560 
# 
# From -- ./inp_files/33060.got.cif
#   From: 2010.05.17/outbox.cif.g08.bks.cpg/sg52_17_cif.got.tgz:33060.got - 2010.06.03 12:15:38.
