data_PCOD9411448
_publ_section_title
;
Structure prediction by ZEFSAII (Michael W. Deem and Ramdas Pophale) SiO2 
 PCOD9411448
Probable space group: P N N A
;
_chemical_formula_sum "Si O2"
_cell_formula_units_Z 64
_cell_length_a 10.347022
_cell_length_b 27.952551
_cell_length_c 9.290788
_cell_angle_alpha 90.000000
_cell_angle_beta 90.000000
_cell_angle_gamma 90.000000
_cell_volume 2687.134293
_symmetry_space_group_name_H-M "P N N A"
_symmetry_group_IT_number 52
_symmetry_cell_setting 'orthorhombic'
loop_
_space_group_symop_operation_xyz
x,y,z
1/2-x,-y,z
x,1/2-y,1/2-z
1/2-x,1/2+y,1/2-z
-x,-y,-z
1/2+x,y,-z
-x,1/2+y,1/2+z
1/2+x,1/2-y,1/2+z
loop_
_atom_site_type_symbol
_atom_site_label
_atom_site_fract_x
_atom_site_fract_y
_atom_site_fract_z
Si Si1 0.950225 0.819170 0.658201
Si Si2 0.558567 0.061517 0.920618
Si Si3 0.710619 0.204586 0.142030
Si Si4 0.341413 0.110412 0.738920
Si Si5 0.527101 0.724045 0.470416
Si Si6 0.534126 0.539365 0.724365
Si Si7 0.233034 0.108145 0.282369
Si Si8 0.832062 0.544665 0.037843
O O1 0.982654 0.779061 0.542511
O O2 0.986915 0.798418 0.815740
O O3 0.803569 0.838729 0.665221
O O4 0.051449 0.862438 0.642078
O O5 0.421294 0.081522 0.861174
O O6 0.663044 0.099870 0.869756
O O7 0.588622 0.010303 0.843937
O O8 0.554864 0.055867 0.090913
O O9 0.723815 0.250000 0.250000
O O10 0.753424 0.153925 0.205951
O O11 0.819483 0.216183 0.019765
O O12 0.564383 0.201264 0.088729
O O13 0.257720 0.074607 0.646134
O O14 0.630321 0.582648 0.764117
O O15 0.454243 0.529326 0.868342
O O16 0.153736 0.076437 0.397717
O O17 0.750000 0.500000 0.987815
#
# Coordination Sequence:
#
# PCOD9411448 Si02
#       8
#     8   8   8   8   8   8   8   8
#     4   9  21  44  68  94 132 185 213 281 344 408
#     4  10  23  43  67  90 137 182 227 283 333 396
#     4  11  23  44  71 103 136 175 223 283 344 417
#     4  10  22  42  70  94 134 184 220 276 343 410
#     4  10  21  45  73  95 140 175 223 284 353 406
#     4  11  25  42  66  98 133 180 234 282 336 400
#     4  11  26  41  67  99 136 177 237 278 336 415
#     4  12  26  42  67 101 143 180 228 285 346 405
#
# _framework density 23.817194000000001
#
# number of rings (size 3 to 8) (size 9 to 14) (size 15 to 20)
#    0.000    1.500    3.750    1.125    8.750    3.000 
#    2.250    0.000    0.000    0.000    0.000    0.000 
#    0.000    0.000    0.000    0.000    0.000    0.000 
#
# Total GULP energy -357715.532966 kJ/mol
# GULP energy per Si atom -5589.305203 kJ/mol
# Density = 2.376299 g / cm^3
# Si number density = 23.817194 Si / 1000 Ang^3
#
#
#
# Elastic Constant Matrix: (Units=GPa)
#
#
# Indices 1 2 3 4 5 6 
#
# 1 54.0726 -11.4013 2.2601 0.0000 0.0000 0.0000
# 2 -11.4013 46.8701 -16.1945 0.0000 0.0000 0.0000
# 3 2.2601 -16.1945 47.1594 0.0000 0.0000 0.0000
# 4 0.0000 0.0000 0.0000 18.8567 0.0000 0.0000
# 5 0.0000 0.0000 0.0000 0.0000 26.0802 0.0000
# 6 0.0000 0.0000 0.0000 0.0000 0.0000 28.8569
#
#
#
# Elastic Compliance Matrix: (Units=1/GPa)
#
#
# Indices 1 2 3 4 5 6 
#
# 1 0.019519 0.005021 0.000789 0.000000 0.000000 0.000000
# 2 0.005021 0.025499 0.008516 0.000000 0.000000 0.000000
# 3 0.000789 0.008516 0.024091 0.000000 0.000000 0.000000
# 4 0.000000 0.000000 0.000000 0.053031 0.000000 0.000000
# 5 0.000000 0.000000 0.000000 0.000000 0.038343 0.000000
# 6 0.000000 0.000000 0.000000 0.000000 0.000000 0.034654
#
#
# Mechanical properties :
#
#
# Convention : Reuss Voigt Hill
#
# Bulk Modulus (GPa) = 10.22914 10.82562 10.52738
# Shear Modulus (GPa) = 25.11620 26.32130 25.71875
#
# Velocity S-wave (km/s) = 3.25089 3.32797 3.28966
# Velocity P-wave (km/s) = 4.28897 4.39572 4.34267
#
# Compressibility (1/GPa) = 0.09775997
#
# Stress axis : x y z
#
# Youngs Moduli (GPa) = 51.23136 39.21683 41.50889
#
# Poissons Ratio (x) = -0.19689 -0.03274
# Poissons Ratio (y) = -0.25721 -0.35348
# Poissons Ratio (z) = -0.04040 -0.33396
#
# Static dielectric constant tensor:
#      x y z
#    x 1.933800 0.000000 0.000000 
#    y 0.000000 1.958190 0.000000 
#    z 0.000000 0.000000 1.924630 
# 
# From -- ./inp_files/9141.got.cif
#   From: 2010.05.17/outbox.cif.g08.bks.cpg/sg52_5_cif.got.tgz:9141.got - 2010.06.03 12:15:38.
