data_PCOD9411083
_publ_section_title
;
Structure prediction by ZEFSAII (Michael W. Deem and Ramdas Pophale) SiO2 
 PCOD9411083
Probable space group: P N N A
;
_chemical_formula_sum "Si O2"
_cell_formula_units_Z 52
_cell_length_a 14.112012
_cell_length_b 8.348500
_cell_length_c 23.447296
_cell_angle_alpha 90.000000
_cell_angle_beta 90.000000
_cell_angle_gamma 90.000000
_cell_volume 2762.422830
_symmetry_space_group_name_H-M "P N N A"
_symmetry_group_IT_number 52
_symmetry_cell_setting 'orthorhombic'
loop_
_space_group_symop_operation_xyz
x,y,z
1/2-x,-y,z
x,1/2-y,1/2-z
1/2-x,1/2+y,1/2-z
-x,-y,-z
1/2+x,y,-z
-x,1/2+y,1/2+z
1/2+x,1/2-y,1/2+z
loop_
_atom_site_type_symbol
_atom_site_label
_atom_site_fract_x
_atom_site_fract_y
_atom_site_fract_z
Si Si1 0.029243 0.843510 0.427470
Si Si2 0.250000 0.500000 0.551795
Si Si3 0.768926 0.312079 0.188924
Si Si4 0.553947 0.193071 0.187058
Si Si5 0.414024 0.397113 0.625575
Si Si6 0.761517 0.181961 0.524038
Si Si7 0.448223 0.708024 0.049221
O O1 0.140628 0.817193 0.441086
O O2 0.998785 0.774952 0.366509
O O3 0.972230 0.773274 0.482027
O O4 0.012840 0.034399 0.431744
O O5 0.343714 0.510155 0.589764
O O6 0.236417 0.664896 0.517253
O O7 0.750000 0.500000 0.187598
O O8 0.804248 0.250000 0.250000
O O9 0.665303 0.235310 0.182467
O O10 0.846199 0.248393 0.144637
O O11 0.522661 0.250000 0.250000
O O12 0.548006 0.002270 0.177896
O O13 0.498113 0.339340 0.585680
O O14 0.664182 0.206602 0.558419
O O15 0.750000 0.000000 0.498305
#
# Coordination Sequence:
#
# PCOD9411083 Si02
#       7
#     8   4   8   8   8   8   8
#     4  10  21  40  61  88 123 160 204 253 318 374
#     4  12  22  36  60  92 128 162 202 252 320 378
#     4  11  22  38  59  82 120 160 203 255 306 370
#     4  11  23  39  59  84 120 164 206 253 309 368
#     4  12  23  38  57  96 124 160 212 252 314 384
#     4  10  23  40  60  89 130 160 203 255 319 376
#     4  10  22  37  62  92 121 162 201 258 317 375
#
# _framework density 18.824055999999999
#
# number of rings (size 3 to 8) (size 9 to 14) (size 15 to 20)
#    0.000    1.231    3.077    3.692    2.154    1.846 
#    0.000    0.000    0.000    6.462    0.000    0.000 
#    0.000    0.000    0.000    0.000    0.000    0.000 
#
# Total GULP energy -290234.094387 kJ/mol
# GULP energy per Si atom -5581.424892 kJ/mol
# Density = 1.878121 g / cm^3
# Si number density = 18.824056 Si / 1000 Ang^3
#
#
#
# Elastic Constant Matrix: (Units=GPa)
#
#
# Indices 1 2 3 4 5 6 
#
# 1 77.2546 12.6685 31.9497 0.0000 0.0000 0.0000
# 2 12.6685 95.5724 63.2182 0.0000 0.0000 0.0000
# 3 31.9497 63.2182 99.5301 0.0000 0.0000 0.0000
# 4 0.0000 0.0000 0.0000 19.6309 0.0000 0.0000
# 5 0.0000 0.0000 0.0000 0.0000 15.7516 0.0000
# 6 0.0000 0.0000 0.0000 0.0000 0.0000 196.7312
#
#
#
# Elastic Compliance Matrix: (Units=1/GPa)
#
#
# Indices 1 2 3 4 5 6 
#
# 1 0.015163 0.002086 -0.006193 0.000000 0.000000 0.000000
# 2 0.002086 0.018332 -0.012313 0.000000 0.000000 0.000000
# 3 -0.006193 -0.012313 0.019856 0.000000 0.000000 0.000000
# 4 0.000000 0.000000 0.000000 0.050940 0.000000 0.000000
# 5 0.000000 0.000000 0.000000 0.000000 0.063486 0.000000
# 6 0.000000 0.000000 0.000000 0.000000 0.000000 0.005083
#
#
# Mechanical properties :
#
#
# Convention : Reuss Voigt Hill
#
# Bulk Modulus (GPa) = 48.75304 54.22553 51.48929
# Shear Modulus (GPa) = 23.52543 57.39080 40.45812
#
# Velocity S-wave (km/s) = 3.53902 5.52758 4.64106
# Velocity P-wave (km/s) = 6.53109 8.34314 7.49210
#
# Compressibility (1/GPa) = 0.02051154
#
# Stress axis : x y z
#
# Youngs Moduli (GPa) = 65.94948 54.55059 50.36251
#
# Poissons Ratio (x) = -0.11381 0.31187
# Poissons Ratio (y) = -0.13759 0.62013
# Poissons Ratio (z) = 0.40840 0.67170
#
# Static dielectric constant tensor:
#      x y z
#    x 1.633680 0.000000 0.000000 
#    y 0.000000 1.716090 0.000000 
#    z 0.000000 0.000000 1.670000 
# 
# From -- ./inp_files/37276.got.cif
#   From: 2010.05.17/outbox.cif.g08.bks.cpg/sg52_19_cif.got.tgz:37276.got - 2010.06.03 12:15:38.
