data_PCOD9411684
_publ_section_title
;
Structure prediction by ZEFSAII (Michael W. Deem and Ramdas Pophale) SiO2 
 PCOD9411684
Probable space group: P N N A
;
_chemical_formula_sum "Si O2"
_cell_formula_units_Z 44
_cell_length_a 12.581597
_cell_length_b 22.273324
_cell_length_c 7.032855
_cell_angle_alpha 90.000000
_cell_angle_beta 90.000000
_cell_angle_gamma 90.000000
_cell_volume 1970.844993
_symmetry_space_group_name_H-M "P N N A"
_symmetry_group_IT_number 52
_symmetry_cell_setting 'orthorhombic'
loop_
_space_group_symop_operation_xyz
x,y,z
1/2-x,-y,z
x,1/2-y,1/2-z
1/2-x,1/2+y,1/2-z
-x,-y,-z
1/2+x,y,-z
-x,1/2+y,1/2+z
1/2+x,1/2-y,1/2+z
loop_
_atom_site_type_symbol
_atom_site_label
_atom_site_fract_x
_atom_site_fract_y
_atom_site_fract_z
Si Si1 0.750000 0.500000 0.182666
Si Si2 0.957572 0.306782 0.978182
Si Si3 0.111639 0.093284 0.439938
Si Si4 0.955026 0.050588 0.133758
Si Si5 0.082131 0.820263 0.926211
Si Si6 0.249657 0.315423 0.285371
O O1 0.835186 0.464782 0.309337
O O2 0.813376 0.548979 0.056839
O O3 0.980229 0.235314 0.978134
O O4 0.923712 0.316509 0.198721
O O5 0.050988 0.354281 0.942244
O O6 0.855430 0.317786 0.847025
O O7 0.176648 0.130561 0.280470
O O8 0.022970 0.055788 0.326805
O O9 0.961064 0.114267 0.027699
O O10 0.000000 0.000000 0.000000
O O11 0.202322 0.816860 0.003914
O O12 0.198365 0.250000 0.250000
#
# Coordination Sequence:
#
# PCOD9411684 Si02
#       6
#     4   8   8   8   8   8
#     4  12  28  46  66 104 136 192 236 278 354 420
#     4   9  20  42  65  99 134 175 219 290 341 416
#     4  11  24  42  71  94 139 179 229 283 345 413
#     4  11  27  43  68  96 136 181 231 288 341 414
#     4   9  20  40  67  92 135 167 227 285 339 406
#     4  10  22  39  70 101 130 175 223 280 352 412
#
# _framework density 22.325448999999999
#
# number of rings (size 3 to 8) (size 9 to 14) (size 15 to 20)
#    0.000    1.818    0.000    2.727   12.727    0.000 
#    0.000    0.000   12.000    0.000    0.000    0.000 
#    0.000    0.000    0.000    0.000    0.000    0.000 
#
# Total GULP energy -245962.920931 kJ/mol
# GULP energy per Si atom -5590.066385 kJ/mol
# Density = 2.227464 g / cm^3
# Si number density = 22.325449 Si / 1000 Ang^3
#
#
#
# Elastic Constant Matrix: (Units=GPa)
#
#
# Indices 1 2 3 4 5 6 
#
# 1 104.6734 55.1225 25.2482 0.0000 0.0000 0.0000
# 2 55.1225 161.3472 33.8608 0.0000 0.0000 0.0000
# 3 25.2482 33.8608 39.6755 0.0000 0.0000 0.0000
# 4 0.0000 0.0000 0.0000 26.7652 0.0000 0.0000
# 5 0.0000 0.0000 0.0000 0.0000 33.4229 0.0000
# 6 0.0000 0.0000 0.0000 0.0000 0.0000 33.1706
#
#
#
# Elastic Compliance Matrix: (Units=1/GPa)
#
#
# Indices 1 2 3 4 5 6 
#
# 1 0.012485 -0.003165 -0.005244 0.000000 0.000000 0.000000
# 2 -0.003165 0.008352 -0.005114 0.000000 0.000000 0.000000
# 3 -0.005244 -0.005114 0.032906 0.000000 0.000000 0.000000
# 4 0.000000 0.000000 0.000000 0.037362 0.000000 0.000000
# 5 0.000000 0.000000 0.000000 0.000000 0.029920 0.000000
# 6 0.000000 0.000000 0.000000 0.000000 0.000000 0.030147
#
#
# Mechanical properties :
#
#
# Convention : Reuss Voigt Hill
#
# Bulk Modulus (GPa) = 37.45676 59.35099 48.40388
# Shear Modulus (GPa) = 26.72111 31.43606 29.07858
#
# Velocity S-wave (km/s) = 3.46336 3.75651 3.61291
# Velocity P-wave (km/s) = 5.72776 6.74221 6.25558
#
# Compressibility (1/GPa) = 0.02669745
#
# Stress axis : x y z
#
# Youngs Moduli (GPa) = 80.09547 119.72690 30.38926
#
# Poissons Ratio (x) = 0.37892 0.15936
# Poissons Ratio (y) = 0.25349 0.15542
# Poissons Ratio (z) = 0.42003 0.61231
#
# Static dielectric constant tensor:
#      x y z
#    x 1.812910 0.000000 0.000000 
#    y 0.000000 1.904850 0.000000 
#    z 0.000000 0.000000 1.836590 
# 
# From -- ./inp_files/8804.got.cif
#   From: 2010.05.17/outbox.cif.g08.bks.cpg/sg52_5_cif.got.tgz:8804.got - 2010.06.03 12:15:38.
