data_PCOD9411459
_publ_section_title
;
Structure prediction by ZEFSAII (Michael W. Deem and Ramdas Pophale) SiO2 
 PCOD9411459
Probable space group: P N N A
;
_chemical_formula_sum "Si O2"
_cell_formula_units_Z 36
_cell_length_a 14.223249
_cell_length_b 5.083953
_cell_length_c 21.606023
_cell_angle_alpha 90.000000
_cell_angle_beta 90.000000
_cell_angle_gamma 90.000000
_cell_volume 1562.338641
_symmetry_space_group_name_H-M "P N N A"
_symmetry_group_IT_number 52
_symmetry_cell_setting 'orthorhombic'
loop_
_space_group_symop_operation_xyz
x,y,z
1/2-x,-y,z
x,1/2-y,1/2-z
1/2-x,1/2+y,1/2-z
-x,-y,-z
1/2+x,y,-z
-x,1/2+y,1/2+z
1/2+x,1/2-y,1/2+z
loop_
_atom_site_type_symbol
_atom_site_label
_atom_site_fract_x
_atom_site_fract_y
_atom_site_fract_z
Si Si1 0.750000 0.000000 0.041873
Si Si2 0.250000 0.500000 0.345269
Si Si3 0.973331 0.250000 0.250000
Si Si4 0.397428 0.919967 0.522116
Si Si5 0.750000 0.500000 0.927805
Si Si6 0.101860 0.750000 0.250000
Si Si7 0.341337 0.372463 0.856068
O O1 0.659812 0.146367 0.011557
O O2 0.795004 0.205003 0.089714
O O3 0.219682 0.247045 0.385672
O O4 0.168803 0.626070 0.302585
O O5 0.905811 0.215155 0.190851
O O6 0.035570 0.503759 0.233777
O O7 0.500000 0.000000 0.500000
O O8 0.331919 0.091089 0.474768
O O9 0.399138 0.937475 0.597498
O O10 0.250000 0.500000 0.823116
#
# Coordination Sequence:
#
# PCOD9411459 Si02
#       7
#     4   4   4   8   4   4   8
#     4  10  21  48  65 103 156 201 246 316 390 460
#     4  12  28  50  80  98 161 195 250 326 394 440
#     4  12  29  45  80 112 146 200 276 305 391 470
#     4  11  25  44  72 109 157 195 257 318 389 472
#     4  12  25  48  75 117 143 210 252 306 410 470
#     4  12  29  53  72 114 144 196 264 331 367 468
#     4  10  25  45  71 106 154 197 244 319 382 459
#
# _framework density 23.042380999999999
#
# number of rings (size 3 to 8) (size 9 to 14) (size 15 to 20)
#    0.000    0.889    3.333    3.333   14.000    0.889 
#    0.000    0.000    0.000    0.000    0.000    0.000 
#    0.000    0.000    0.000    0.000    0.000    0.000 
#
# Total GULP energy -200409.029832 kJ/mol
# GULP energy per Si atom -5566.917495 kJ/mol
# Density = 2.298994 g / cm^3
# Si number density = 23.042381 Si / 1000 Ang^3
#
#
#
# Elastic Constant Matrix: (Units=GPa)
#
#
# Indices 1 2 3 4 5 6 
#
# 1 165.1998 34.3659 51.4783 0.0000 0.0000 0.0000
# 2 34.3659 123.5108 34.6796 0.0000 0.0000 0.0000
# 3 51.4783 34.6796 121.9583 0.0000 0.0000 0.0000
# 4 0.0000 0.0000 0.0000 -16.8386 0.0000 0.0000
# 5 0.0000 0.0000 0.0000 0.0000 -30.2862 0.0000
# 6 0.0000 0.0000 0.0000 0.0000 0.0000 13.7424
#
#
#
# Elastic Compliance Matrix: (Units=1/GPa)
#
#
# Indices 1 2 3 4 5 6 
#
# 1 0.007140 -0.001239 -0.002662 0.000000 0.000000 0.000000
# 2 -0.001239 0.009014 -0.002040 0.000000 0.000000 0.000000
# 3 -0.002662 -0.002040 0.009903 0.000000 0.000000 0.000000
# 4 0.000000 0.000000 0.000000 -0.059387 0.000000 0.000000
# 5 0.000000 0.000000 0.000000 0.000000 -0.033018 0.000000
# 6 0.000000 0.000000 0.000000 0.000000 0.000000 0.072767
#
#
# Mechanical properties :
#
#
# Convention : Reuss Voigt Hill
#
# Bulk Modulus (GPa) = 70.54388 72.41294 71.47841
# Shear Modulus (GPa) = 217.14008 12.66653 114.90331
#
# Velocity S-wave (km/s) = 9.71801 2.34712 7.06925
# Velocity P-wave (km/s) = 12.51403 6.23214 9.88535
#
# Compressibility (1/GPa) = 0.01417557
#
# Stress axis : x y z
#
# Youngs Moduli (GPa) = 140.04657 110.93681 100.97897
#
# Poissons Ratio (x) = 0.13750 0.26876
# Poissons Ratio (y) = 0.17358 0.20600
# Poissons Ratio (z) = 0.37274 0.22632
#
# Static dielectric constant tensor:
#      x y z
#    x 1.241310 0.000000 0.000000 
#    y 0.000000 2.194760 0.000000 
#    z 0.000000 0.000000 1.920060 
# 
# From -- ./inp_files/37110.got.cif
#   From: 2010.05.17/outbox.cif.g08.bks.cpg/sg52_19_cif.got.tgz:37110.got - 2010.06.03 12:15:38.
