data_PCOD9411865
_publ_section_title
;
Structure prediction by ZEFSAII (Michael W. Deem and Ramdas Pophale) SiO2 
 PCOD9411865
Probable space group: P N N A
;
_chemical_formula_sum "Si O2"
_cell_formula_units_Z 40
_cell_length_a 24.990277
_cell_length_b 15.232897
_cell_length_c 5.465486
_cell_angle_alpha 90.000000
_cell_angle_beta 90.000000
_cell_angle_gamma 90.000000
_cell_volume 2080.570142
_symmetry_space_group_name_H-M "P N N A"
_symmetry_group_IT_number 52
_symmetry_cell_setting 'orthorhombic'
loop_
_space_group_symop_operation_xyz
x,y,z
1/2-x,-y,z
x,1/2-y,1/2-z
1/2-x,1/2+y,1/2-z
-x,-y,-z
1/2+x,y,-z
-x,1/2+y,1/2+z
1/2+x,1/2-y,1/2+z
loop_
_atom_site_type_symbol
_atom_site_label
_atom_site_fract_x
_atom_site_fract_y
_atom_site_fract_z
Si Si1 0.854827 0.074973 0.361927
Si Si2 0.302552 0.250000 0.750000
Si Si3 0.750000 0.000000 0.593209
Si Si4 0.394165 0.925565 0.927157
Si Si5 0.287572 0.665518 0.411128
Si Si6 0.941684 0.964254 0.566368
O O1 0.840448 0.176188 0.363816
O O2 0.800502 0.025306 0.431277
O O3 0.875275 0.027454 0.114185
O O4 0.900489 0.046061 0.550554
O O5 0.262005 0.302646 0.575023
O O6 0.733200 0.083816 0.752168
O O7 0.340982 0.867641 0.955054
O O8 0.431123 0.921332 0.168802
O O9 0.422829 0.906002 0.667594
O O10 0.302106 0.750000 0.250000
O O11 0.000000 0.000000 0.500000
#
# Coordination Sequence:
#
# PCOD9411865 Si02
#       6
#     8   4   4   8   8   8
#     4  10  23  37  66  92 138 166 224 263 336 387
#     4  12  24  36  58 104 130 184 210 274 324 422
#     4  12  20  46  58  98 132 186 212 282 318 424
#     4  10  22  41  66  94 129 171 221 275 327 393
#     4  12  24  37  64  94 143 173 221 260 344 399
#     4  10  22  43  71  94 122 179 232 275 334 387
#
# _framework density 19.2255
#
# number of rings (size 3 to 8) (size 9 to 14) (size 15 to 20)
#    1.200    0.000    4.000    3.000    2.800    0.000 
#    0.000    0.000    2.200    2.400    0.000    0.000 
#    0.000    0.000    0.000    0.000    0.000    0.000 
#
# Total GULP energy -222889.762889 kJ/mol
# GULP energy per Si atom -5572.244072 kJ/mol
# Density = 1.918174 g / cm^3
# Si number density = 19.225500 Si / 1000 Ang^3
#
#
#
# Elastic Constant Matrix: (Units=GPa)
#
#
# Indices 1 2 3 4 5 6 
#
# 1 56.7835 -13.1405 5.4636 0.0000 0.0000 0.0000
# 2 -13.1405 64.4431 12.9272 0.0000 0.0000 0.0000
# 3 5.4636 12.9272 101.8280 0.0000 0.0000 0.0000
# 4 0.0000 0.0000 0.0000 91.5638 0.0000 0.0000
# 5 0.0000 0.0000 0.0000 0.0000 27.1846 0.0000
# 6 0.0000 0.0000 0.0000 0.0000 0.0000 18.2619
#
#
#
# Elastic Compliance Matrix: (Units=1/GPa)
#
#
# Indices 1 2 3 4 5 6 
#
# 1 0.018712 0.004122 -0.001527 0.000000 0.000000 0.000000
# 2 0.004122 0.016831 -0.002358 0.000000 0.000000 0.000000
# 3 -0.001527 -0.002358 0.010202 0.000000 0.000000 0.000000
# 4 0.000000 0.000000 0.000000 0.010921 0.000000 0.000000
# 5 0.000000 0.000000 0.000000 0.000000 0.036786 0.000000
# 6 0.000000 0.000000 0.000000 0.000000 0.000000 0.054759
#
#
# Mechanical properties :
#
#
# Convention : Reuss Voigt Hill
#
# Bulk Modulus (GPa) = 21.63675 25.95060 23.79368
# Shear Modulus (GPa) = 30.64807 41.92236 36.28521
#
# Velocity S-wave (km/s) = 3.99700 4.67471 4.34908
# Velocity P-wave (km/s) = 5.70788 6.53181 6.13370
#
# Compressibility (1/GPa) = 0.04621766
#
# Stress axis : x y z
#
# Youngs Moduli (GPa) = 53.44298 59.41412 98.02231
#
# Poissons Ratio (x) = -0.24489 0.14970
# Poissons Ratio (y) = -0.22028 0.23112
# Poissons Ratio (z) = 0.08162 0.14009
#
# Static dielectric constant tensor:
#      x y z
#    x 1.661090 0.000000 0.000000 
#    y 0.000000 0.994330 0.000000 
#    z 0.000000 0.000000 1.744350 
# 
# From -- ./inp_files/5042.got.cif
#   From: 2010.05.17/outbox.cif.g08.bks.cpg/sg52_3_cif.got.tgz:5042.got - 2010.06.03 12:15:38.
