data_PCOD9411029
_publ_section_title
;
Structure prediction by ZEFSAII (Michael W. Deem and Ramdas Pophale) SiO2 
 PCOD9411029
Probable space group: P N N A
;
_chemical_formula_sum "Si O2"
_cell_formula_units_Z 40
_cell_length_a 26.281567
_cell_length_b 7.726174
_cell_length_c 9.323819
_cell_angle_alpha 90.000000
_cell_angle_beta 90.000000
_cell_angle_gamma 90.000000
_cell_volume 1893.257015
_symmetry_space_group_name_H-M "P N N A"
_symmetry_group_IT_number 52
_symmetry_cell_setting 'orthorhombic'
loop_
_space_group_symop_operation_xyz
x,y,z
1/2-x,-y,z
x,1/2-y,1/2-z
1/2-x,1/2+y,1/2-z
-x,-y,-z
1/2+x,y,-z
-x,1/2+y,1/2+z
1/2+x,1/2-y,1/2+z
loop_
_atom_site_type_symbol
_atom_site_label
_atom_site_fract_x
_atom_site_fract_y
_atom_site_fract_z
Si Si1 0.552410 0.926015 0.321844
Si Si2 0.250000 0.000000 0.042174
Si Si3 0.831268 0.955268 0.727681
Si Si4 0.443567 0.072657 0.333102
Si Si5 0.787492 0.865725 0.435642
Si Si6 0.118255 0.250000 0.750000
O O1 0.570027 0.750000 0.250000
O O2 0.561145 0.917908 0.493657
O O3 0.491799 0.950842 0.302983
O O4 0.581327 0.084545 0.244593
O O5 0.298160 0.036202 0.145906
O O6 0.260716 0.819427 0.962412
O O7 0.829764 0.750000 0.750000
O O8 0.803425 0.976216 0.575998
O O9 0.889190 0.012535 0.724701
O O10 0.455316 0.250000 0.250000
O O11 0.841701 0.806856 0.371755
O O12 0.750000 0.000000 0.353779
#
# Coordination Sequence:
#
# PCOD9411029 Si02
#       6
#     8   4   8   8   8   4
#     4  11  26  48  70 102 146 184 225 287 350 415
#     4  10  24  42  68 100 134 178 230 286 354 400
#     4  10  21  39  66 100 135 172 224 289 341 400
#     4  11  24  43  73 108 138 179 238 286 343 416
#     4  11  25  42  65  94 135 177 226 283 339 416
#     4  12  26  48  66  98 142 182 236 274 350 432
#
# _framework density 21.127611999999999
#
# number of rings (size 3 to 8) (size 9 to 14) (size 15 to 20)
#    0.000    1.200    4.000    0.600    4.200    5.600 
#    0.000    0.000    0.000    0.000    0.000    0.000 
#    0.000    0.000    0.000    0.000    0.000    0.000 
#
# Total GULP energy -223212.770065 kJ/mol
# GULP energy per Si atom -5580.319252 kJ/mol
# Density = 2.107952 g / cm^3
# Si number density = 21.127612 Si / 1000 Ang^3
#
#
#
# Elastic Constant Matrix: (Units=GPa)
#
#
# Indices 1 2 3 4 5 6 
#
# 1 157.5599 51.1207 28.8668 0.0000 0.0000 0.0000
# 2 51.1207 122.4878 25.4002 0.0000 0.0000 0.0000
# 3 28.8668 25.4002 26.0809 0.0000 0.0000 0.0000
# 4 0.0000 0.0000 0.0000 23.5390 0.0000 0.0000
# 5 0.0000 0.0000 0.0000 0.0000 -0.0849 0.0000
# 6 0.0000 0.0000 0.0000 0.0000 0.0000 31.4333
#
#
#
# Elastic Compliance Matrix: (Units=1/GPa)
#
#
# Indices 1 2 3 4 5 6 
#
# 1 0.008320 -0.001958 -0.007301 0.000000 0.000000 0.000000
# 2 -0.001958 0.010691 -0.008245 0.000000 0.000000 0.000000
# 3 -0.007301 -0.008245 0.054453 0.000000 0.000000 0.000000
# 4 0.000000 0.000000 0.000000 0.042483 0.000000 0.000000
# 5 0.000000 0.000000 0.000000 0.000000-11.784068 0.000000
# 6 0.000000 0.000000 0.000000 0.000000 0.000000 0.031813
#
#
# Mechanical properties :
#
#
# Convention : Reuss Voigt Hill
#
# Bulk Modulus (GPa) = 26.00419 57.43380 41.71899
# Shear Modulus (GPa) = -0.43146 24.36022 11.96438
#
# Velocity S-wave (km/s) = -0.45239 3.39927 2.38227
# Velocity P-wave (km/s) = 3.47304 6.53070 5.23030
#
# Compressibility (1/GPa) = 0.03845534
#
# Stress axis : x y z
#
# Youngs Moduli (GPa) = 120.19440 93.53641 18.36445
#
# Poissons Ratio (x) = 0.18316 0.13409
# Poissons Ratio (y) = 0.23537 0.15141
# Poissons Ratio (z) = 0.87759 0.77117
#
# Static dielectric constant tensor:
#      x y z
#    x 1.789920 0.000000 0.000000 
#    y 0.000000 1.736180 0.000000 
#    z 0.000000 0.000000 1.848960 
# 
# From -- ./inp_files/14025.got.cif
#   From: 2010.05.17/outbox.cif.g08.bks.cpg/sg52_8_cif.got.tgz:14025.got - 2010.06.03 12:15:38.
