data_PCOD9411583
_publ_section_title
;
Structure prediction by ZEFSAII (Michael W. Deem and Ramdas Pophale) SiO2 
 PCOD9411583
Probable space group: P N N A
;
_chemical_formula_sum "Si O2"
_cell_formula_units_Z 32
_cell_length_a 17.473747
_cell_length_b 9.502490
_cell_length_c 8.394230
_cell_angle_alpha 90.000000
_cell_angle_beta 90.000000
_cell_angle_gamma 90.000000
_cell_volume 1393.812417
_symmetry_space_group_name_H-M "P N N A"
_symmetry_group_IT_number 52
_symmetry_cell_setting 'orthorhombic'
loop_
_space_group_symop_operation_xyz
x,y,z
1/2-x,-y,z
x,1/2-y,1/2-z
1/2-x,1/2+y,1/2-z
-x,-y,-z
1/2+x,y,-z
-x,1/2+y,1/2+z
1/2+x,1/2-y,1/2+z
loop_
_atom_site_type_symbol
_atom_site_label
_atom_site_fract_x
_atom_site_fract_y
_atom_site_fract_z
Si Si1 0.345841 0.800795 0.507718
Si Si2 0.309934 0.176502 0.029143
Si Si3 0.464561 0.750000 0.750000
Si Si4 0.250000 0.000000 0.747053
Si Si5 0.895126 0.433054 0.833535
O O1 0.278420 0.710670 0.432379
O O2 0.409878 0.715048 0.602102
O O3 0.300054 0.896472 0.637990
O O4 0.386645 0.909760 0.391873
O O5 0.356507 0.323952 0.039321
O O6 0.347974 0.089539 0.171186
O O7 0.303700 0.093919 0.863310
O O8 0.519843 0.622594 0.800191
#
# Coordination Sequence:
#
# PCOD9411583 Si02
#       5
#     8   8   4   4   8
#     4  12  21  41  68  96 130 181 217 279 322 391
#     4  10  22  38  61  96 127 170 220 270 322 386
#     4  10  22  42  64 102 134 178 218 268 340 390
#     4  12  22  34  66  98 126 164 232 276 320 380
#     4  10  24  41  65  94 139 173 218 277 328 395
#
# _framework density 22.958611999999999
#
# number of rings (size 3 to 8) (size 9 to 14) (size 15 to 20)
#    0.000    1.500    5.000    0.750    7.000    0.000 
#    0.000    5.000    0.000    6.000    0.000    0.000 
#    0.000    0.000    0.000    0.000    0.000    0.000 
#
# Total GULP energy -179027.008424 kJ/mol
# GULP energy per Si atom -5594.594013 kJ/mol
# Density = 2.290636 g / cm^3
# Si number density = 22.958612 Si / 1000 Ang^3
#
#
#
# Elastic Constant Matrix: (Units=GPa)
#
#
# Indices 1 2 3 4 5 6 
#
# 1 130.8552 3.9291 18.8535 0.0000 0.0000 0.0000
# 2 3.9291 29.2590 -9.4021 0.0000 0.0000 0.0000
# 3 18.8535 -9.4021 61.6033 0.0000 0.0000 0.0000
# 4 0.0000 0.0000 0.0000 51.1238 0.0000 0.0000
# 5 0.0000 0.0000 0.0000 0.0000 64.4476 0.0000
# 6 0.0000 0.0000 0.0000 0.0000 0.0000 4.8702
#
#
#
# Elastic Compliance Matrix: (Units=1/GPa)
#
#
# Indices 1 2 3 4 5 6 
#
# 1 0.008102 -0.001982 -0.002782 0.000000 0.000000 0.000000
# 2 -0.001982 0.036425 0.006166 0.000000 0.000000 0.000000
# 3 -0.002782 0.006166 0.018025 0.000000 0.000000 0.000000
# 4 0.000000 0.000000 0.000000 0.019560 0.000000 0.000000
# 5 0.000000 0.000000 0.000000 0.000000 0.015516 0.000000
# 6 0.000000 0.000000 0.000000 0.000000 0.000000 0.205331
#
#
# Mechanical properties :
#
#
# Convention : Reuss Voigt Hill
#
# Bulk Modulus (GPa) = 15.30079 27.60871 21.45475
# Shear Modulus (GPa) = 15.53069 37.97745 26.75407
#
# Velocity S-wave (km/s) = 2.60372 4.07156 3.41738
# Velocity P-wave (km/s) = 3.96460 5.84423 4.99365
#
# Compressibility (1/GPa) = 0.06535612
#
# Stress axis : x y z
#
# Youngs Moduli (GPa) = 123.42004 27.45363 55.47712
#
# Poissons Ratio (x) = 0.05442 0.15435
# Poissons Ratio (y) = 0.24463 -0.34207
# Poissons Ratio (z) = 0.34338 -0.16928
#
# Static dielectric constant tensor:
#      x y z
#    x 1.824190 0.000000 0.000000 
#    y 0.000000 1.904000 0.000000 
#    z 0.000000 0.000000 1.887520 
# 
# From -- ./inp_files/9636.got.cif
#   From: 2010.05.17/outbox.cif.g08.bks.cpg/sg52_5_cif.got.tgz:9636.got - 2010.06.03 12:15:38.
