data_PCOD9411887
_publ_section_title
;
Structure prediction by ZEFSAII (Michael W. Deem and Ramdas Pophale) SiO2 
 PCOD9411887
Probable space group: P N N A
;
_chemical_formula_sum "Si O2"
_cell_formula_units_Z 32
_cell_length_a 31.460663
_cell_length_b 8.332783
_cell_length_c 4.252280
_cell_angle_alpha 90.000000
_cell_angle_beta 90.000000
_cell_angle_gamma 90.000000
_cell_volume 1114.755944
_symmetry_space_group_name_H-M "P N N A"
_symmetry_group_IT_number 52
_symmetry_cell_setting 'orthorhombic'
loop_
_space_group_symop_operation_xyz
x,y,z
1/2-x,-y,z
x,1/2-y,1/2-z
1/2-x,1/2+y,1/2-z
-x,-y,-z
1/2+x,y,-z
-x,1/2+y,1/2+z
1/2+x,1/2-y,1/2+z
loop_
_atom_site_type_symbol
_atom_site_label
_atom_site_fract_x
_atom_site_fract_y
_atom_site_fract_z
Si Si1 0.878224 0.750000 0.750000
Si Si2 0.378714 0.250000 0.250000
Si Si3 0.814575 0.750000 0.250000
Si Si4 0.442539 0.496316 0.211611
Si Si5 0.007164 0.750000 0.750000
Si Si6 0.185399 0.750000 0.750000
Si Si7 0.750000 0.500000 0.252299
O O1 0.846044 0.672508 0.501738
O O2 0.908853 0.623522 0.925882
O O3 0.410432 0.381092 0.400345
O O4 0.346982 0.174804 0.501573
O O5 0.783100 0.620977 0.089370
O O6 0.474508 0.617156 0.392655
O O7 0.467256 0.369857 0.984711
O O8 0.216804 0.621755 0.587464
#
# Coordination Sequence:
#
# PCOD9411887 Si02
#       7
#     4   4   4   8   4   4   4
#     4  11  24  43  69  98 135 180 229 284 347 415
#     4  12  24  41  67  97 131 172 221 275 335 401
#     4  11  24  42  66  98 133 178 227 280 346 414
#     4  10  22  41  69  98 137 179 227 286 344 414
#     4   9  21  44  67 101 136 180 230 281 349 414
#     4  11  25  42  65  96 129 172 219 270 333 400
#     4  10  24  42  66  94 134 174 220 278 336 406
#
# _framework density 28.705831
#
# number of rings (size 3 to 8) (size 9 to 14) (size 15 to 20)
#    0.000    1.500    0.000    3.750    0.000    9.000 
#    0.000    8.750    0.000    0.000    0.000    0.000 
#    0.000    0.000    0.000    0.000    0.000    0.000 
#
# Total GULP energy -178228.645899 kJ/mol
# GULP energy per Si atom -5569.645184 kJ/mol
# Density = 2.864050 g / cm^3
# Si number density = 28.705831 Si / 1000 Ang^3
#
#
#
# Elastic Constant Matrix: (Units=GPa)
#
#
# Indices 1 2 3 4 5 6 
#
# 1 197.5706 130.1623 66.1350 0.0000 0.0000 0.0000
# 2 130.1623 189.0775 36.0408 0.0000 0.0000 0.0000
# 3 66.1350 36.0408 62.5925 0.0000 0.0000 0.0000
# 4 0.0000 0.0000 0.0000 48.9190 0.0000 0.0000
# 5 0.0000 0.0000 0.0000 0.0000 27.4742 0.0000
# 6 0.0000 0.0000 0.0000 0.0000 0.0000 107.6930
#
#
#
# Elastic Compliance Matrix: (Units=1/GPa)
#
#
# Indices 1 2 3 4 5 6 
#
# 1 0.012933 -0.007075 -0.009591 0.000000 0.000000 0.000000
# 2 -0.007075 0.009811 0.001826 0.000000 0.000000 0.000000
# 3 -0.009591 0.001826 0.025059 0.000000 0.000000 0.000000
# 4 0.000000 0.000000 0.000000 0.020442 0.000000 0.000000
# 5 0.000000 0.000000 0.000000 0.000000 0.036398 0.000000
# 6 0.000000 0.000000 0.000000 0.000000 0.000000 0.009286
#
#
# Mechanical properties :
#
#
# Convention : Reuss Voigt Hill
#
# Bulk Modulus (GPa) = 55.17852 101.54631 78.36242
# Shear Modulus (GPa) = 33.41109 51.27741 42.34425
#
# Velocity S-wave (km/s) = 3.41532 4.23106 3.84488
# Velocity P-wave (km/s) = 5.90054 7.70199 6.86065
#
# Compressibility (1/GPa) = 0.01812299
#
# Stress axis : x y z
#
# Youngs Moduli (GPa) = 77.31965 101.92327 39.90566
#
# Poissons Ratio (x) = 0.72112 0.38275
# Poissons Ratio (y) = 0.54705 -0.07288
# Poissons Ratio (z) = 0.74161 -0.18613
#
# Static dielectric constant tensor:
#      x y z
#    x 2.128240 0.000000 0.000000 
#    y 0.000000 2.282140 0.000000 
#    z 0.000000 0.000000 2.346510 
# 
# From -- ./inp_files/6203.got.cif
#   From: 2010.05.17/outbox.cif.g08.bks.cpg/sg52_4_cif.got.tgz:6203.got - 2010.06.03 12:15:38.
