data_PCOD9411916
_publ_section_title
;
Structure prediction by ZEFSAII (Michael W. Deem and Ramdas Pophale) SiO2 
 PCOD9411916
Probable space group: P N N A
;
_chemical_formula_sum "Si O2"
_cell_formula_units_Z 36
_cell_length_a 23.693803
_cell_length_b 4.784980
_cell_length_c 12.174677
_cell_angle_alpha 90.000000
_cell_angle_beta 90.000000
_cell_angle_gamma 90.000000
_cell_volume 1380.296377
_symmetry_space_group_name_H-M "P N N A"
_symmetry_group_IT_number 52
_symmetry_cell_setting 'orthorhombic'
loop_
_space_group_symop_operation_xyz
x,y,z
1/2-x,-y,z
x,1/2-y,1/2-z
1/2-x,1/2+y,1/2-z
-x,-y,-z
1/2+x,y,-z
-x,1/2+y,1/2+z
1/2+x,1/2-y,1/2+z
loop_
_atom_site_type_symbol
_atom_site_label
_atom_site_fract_x
_atom_site_fract_y
_atom_site_fract_z
Si Si1 0.440880 0.750000 0.250000
Si Si2 0.893090 0.095147 0.119061
Si Si3 0.867704 0.378838 0.626214
Si Si4 0.705768 0.250000 0.250000
Si Si5 0.750000 0.500000 0.674040
Si Si6 0.029263 0.427331 0.883265
O O1 0.400916 0.663307 0.350140
O O2 0.480236 0.510700 0.201356
O O3 0.837669 0.927237 0.167105
O O4 0.945853 0.881891 0.114720
O O5 0.916998 0.392668 0.161181
O O6 0.887576 0.205093 0.992484
O O7 0.871384 0.250000 0.750000
O O8 0.801471 0.394004 0.606305
O O9 0.750000 0.500000 0.209767
O O10 0.728123 0.250000 0.750000
O O11 0.000000 0.500000 0.000000
#
# Coordination Sequence:
#
# PCOD9411916 Si02
#       6
#     4   8   8   4   4   8
#     4  12  24  41  70 102 149 188 246 302 374 488
#     4  12  27  49  74 108 153 196 261 327 388 472
#     4  11  25  43  71 106 143 189 244 309 384 462
#     4  12  28  55  80 112 149 212 284 338 404 476
#     4  10  22  42  62  96 136 174 222 292 364 442
#     4  12  25  44  70 109 151 201 246 310 395 473
#
# _framework density 26.081353
#
# number of rings (size 3 to 8) (size 9 to 14) (size 15 to 20)
#    0.000    0.444    3.333    4.667    4.667    0.000 
#    2.000    0.000    0.000    0.000    0.000    0.000 
#    0.000    0.000    0.000    0.000    0.000    0.000 
#
# Total GULP energy -200590.918250 kJ/mol
# GULP energy per Si atom -5571.969951 kJ/mol
# Density = 2.602199 g / cm^3
# Si number density = 26.081353 Si / 1000 Ang^3
#
#
#
# Elastic Constant Matrix: (Units=GPa)
#
#
# Indices 1 2 3 4 5 6 
#
# 1 148.2934 24.4070 34.7331 0.0000 0.0000 0.0000
# 2 24.4070 101.9237 12.8759 0.0000 0.0000 0.0000
# 3 34.7331 12.8759 87.5575 0.0000 0.0000 0.0000
# 4 0.0000 0.0000 0.0000 26.6132 0.0000 0.0000
# 5 0.0000 0.0000 0.0000 0.0000 21.8791 0.0000
# 6 0.0000 0.0000 0.0000 0.0000 0.0000 34.1017
#
#
#
# Elastic Compliance Matrix: (Units=1/GPa)
#
#
# Indices 1 2 3 4 5 6 
#
# 1 0.007646 -0.001475 -0.002816 0.000000 0.000000 0.000000
# 2 -0.001475 0.010282 -0.000927 0.000000 0.000000 0.000000
# 3 -0.002816 -0.000927 0.012674 0.000000 0.000000 0.000000
# 4 0.000000 0.000000 0.000000 0.037575 0.000000 0.000000
# 5 0.000000 0.000000 0.000000 0.000000 0.045706 0.000000
# 6 0.000000 0.000000 0.000000 0.000000 0.000000 0.029324
#
#
# Mechanical properties :
#
#
# Convention : Reuss Voigt Hill
#
# Bulk Modulus (GPa) = 49.58890 53.53408 51.56149
# Shear Modulus (GPa) = 31.17890 34.23603 32.70747
#
# Velocity S-wave (km/s) = 3.46128 3.62700 3.54511
# Velocity P-wave (km/s) = 5.91848 6.17337 6.04727
#
# Compressibility (1/GPa) = 0.02016580
#
# Stress axis : x y z
#
# Youngs Moduli (GPa) = 130.79161 97.26132 78.89880
#
# Poissons Ratio (x) = 0.14347 0.22218
# Poissons Ratio (y) = 0.19293 0.07312
# Poissons Ratio (z) = 0.36832 0.09014
#
# Static dielectric constant tensor:
#      x y z
#    x 2.050680 0.000000 0.000000 
#    y 0.000000 2.068350 0.000000 
#    z 0.000000 0.000000 2.153310 
# 
# From -- ./inp_files/22138.got.cif
#   From: 2010.05.17/outbox.cif.g08.bks.cpg/sg52_12_cif.got.tgz:22138.got - 2010.06.03 12:15:38.
