data_PCOD9411828
_publ_section_title
;
Structure prediction by ZEFSAII (Michael W. Deem and Ramdas Pophale) SiO2 
 PCOD9411828
Probable space group: P N N A
;
_chemical_formula_sum "Si O2"
_cell_formula_units_Z 32
_cell_length_a 16.488638
_cell_length_b 12.419305
_cell_length_c 6.588935
_cell_angle_alpha 90.000000
_cell_angle_beta 90.000000
_cell_angle_gamma 90.000000
_cell_volume 1349.265139
_symmetry_space_group_name_H-M "P N N A"
_symmetry_group_IT_number 52
_symmetry_cell_setting 'orthorhombic'
loop_
_space_group_symop_operation_xyz
x,y,z
1/2-x,-y,z
x,1/2-y,1/2-z
1/2-x,1/2+y,1/2-z
-x,-y,-z
1/2+x,y,-z
-x,1/2+y,1/2+z
1/2+x,1/2-y,1/2+z
loop_
_atom_site_type_symbol
_atom_site_label
_atom_site_fract_x
_atom_site_fract_y
_atom_site_fract_z
Si Si1 0.147099 0.428984 0.010072
Si Si2 0.626399 0.023561 0.932393
Si Si3 0.807900 0.127757 0.277696
Si Si4 0.489730 0.630334 0.745239
O O1 0.145764 0.554437 0.941600
O O2 0.216538 0.376548 0.867170
O O3 0.059022 0.385018 0.954661
O O4 0.170726 0.419597 0.244681
O O5 0.556548 0.955278 0.818906
O O6 0.675806 0.938982 0.070835
O O7 0.581023 0.108894 0.076916
O O8 0.834058 0.250000 0.250000
O O9 0.523388 0.750000 0.750000
#
# Coordination Sequence:
#
# PCOD9411828 Si02
#       4
#     8   8   8   8
#     4  10  22  41  63  93 130 171 215 264 322 389
#     4  10  23  43  64  98 133 169 215 275 321 385
#     4  10  23  41  64  94 130 166 218 266 318 392
#     4  10  22  41  66  98 128 167 219 268 324 392
#
# _framework density 23.716612000000001
#
# number of rings (size 3 to 8) (size 9 to 14) (size 15 to 20)
#    0.000    2.000    0.000    1.500    3.500    9.000 
#    0.000    7.500    0.000    0.000    0.000    0.000 
#    0.000    0.000    0.000    0.000    0.000    0.000 
#
# Total GULP energy -178712.429395 kJ/mol
# GULP energy per Si atom -5584.763419 kJ/mol
# Density = 2.366263 g / cm^3
# Si number density = 23.716612 Si / 1000 Ang^3
#
#
#
# Elastic Constant Matrix: (Units=GPa)
#
#
# Indices 1 2 3 4 5 6 
#
# 1 47.6271 -30.7921 13.0990 0.0000 0.0000 0.0000
# 2 -30.7921 59.9355 -13.8840 0.0000 0.0000 0.0000
# 3 13.0990 -13.8840 144.4158 0.0000 0.0000 0.0000
# 4 0.0000 0.0000 0.0000 8.9105 0.0000 0.0000
# 5 0.0000 0.0000 0.0000 0.0000 30.4096 0.0000
# 6 0.0000 0.0000 0.0000 0.0000 0.0000 1.9885
#
#
#
# Elastic Compliance Matrix: (Units=1/GPa)
#
#
# Indices 1 2 3 4 5 6 
#
# 1 0.031690 0.015971 -0.001339 0.000000 0.000000 0.000000
# 2 0.015971 0.025113 0.000966 0.000000 0.000000 0.000000
# 3 -0.001339 0.000966 0.007139 0.000000 0.000000 0.000000
# 4 0.000000 0.000000 0.000000 0.112227 0.000000 0.000000
# 5 0.000000 0.000000 0.000000 0.000000 0.032884 0.000000
# 6 0.000000 0.000000 0.000000 0.000000 0.000000 0.502893
#
#
# Mechanical properties :
#
#
# Convention : Reuss Voigt Hill
#
# Bulk Modulus (GPa) = 10.51113 20.98048 15.74581
# Shear Modulus (GPa) = 7.01790 27.16543 17.09167
#
# Velocity S-wave (km/s) = 1.72206 3.38807 2.68743
# Velocity P-wave (km/s) = 2.89751 4.91639 4.03525
#
# Compressibility (1/GPa) = 0.09513725
#
# Stress axis : x y z
#
# Youngs Moduli (GPa) = 31.55554 39.81951 140.08057
#
# Poissons Ratio (x) = -0.63595 0.18757
# Poissons Ratio (y) = -0.50396 -0.13529
# Poissons Ratio (z) = 0.04225 -0.03846
#
# Static dielectric constant tensor:
#      x y z
#    x 1.965500 0.000000 0.000000 
#    y 0.000000 1.863090 0.000000 
#    z 0.000000 0.000000 1.983910 
# 
# From -- ./inp_files/2988.got.cif
#   From: 2010.05.17/outbox.cif.g08.bks.cpg/sg52_2_cif.got.tgz:2988.got - 2010.06.03 12:15:38.
