data_PCOD9411642
_publ_section_title
;
Structure prediction by ZEFSAII (Michael W. Deem and Ramdas Pophale) SiO2 
 PCOD9411642
Probable space group: P N N A
;
_chemical_formula_sum "Si O2"
_cell_formula_units_Z 56
_cell_length_a 19.940562
_cell_length_b 8.813473
_cell_length_c 17.617631
_cell_angle_alpha 90.000000
_cell_angle_beta 90.000000
_cell_angle_gamma 90.000000
_cell_volume 3096.221215
_symmetry_space_group_name_H-M "P N N A"
_symmetry_group_IT_number 52
_symmetry_cell_setting 'orthorhombic'
loop_
_space_group_symop_operation_xyz
x,y,z
1/2-x,-y,z
x,1/2-y,1/2-z
1/2-x,1/2+y,1/2-z
-x,-y,-z
1/2+x,y,-z
-x,1/2+y,1/2+z
1/2+x,1/2-y,1/2+z
loop_
_atom_site_type_symbol
_atom_site_label
_atom_site_fract_x
_atom_site_fract_y
_atom_site_fract_z
Si Si1 0.139324 0.645904 0.952024
Si Si2 0.317781 0.583735 0.082060
Si Si3 0.426949 0.554081 0.823568
Si Si4 0.727535 0.167290 0.036184
Si Si5 0.392205 0.883298 0.846138
Si Si6 0.446393 0.836993 0.329256
Si Si7 0.973178 0.377118 0.440801
O O1 0.116599 0.551233 0.878806
O O2 0.207157 0.739215 0.937391
O O3 0.079843 0.759103 0.975422
O O4 0.152377 0.528534 0.018819
O O5 0.250000 0.500000 0.109272
O O6 0.373289 0.608165 0.145759
O O7 0.301851 0.737311 0.034628
O O8 0.432843 0.725434 0.854432
O O9 0.389408 0.576694 0.743043
O O10 0.498756 0.471180 0.819538
O O11 0.675221 0.145640 0.105456
O O12 0.750000 0.000000 0.011640
O O13 0.431101 0.024298 0.881229
O O14 0.444404 0.750000 0.250000
O O15 0.472600 0.723312 0.395662
O O16 0.000000 0.500000 0.500000
#
# Coordination Sequence:
#
# PCOD9411642 Si02
#       7
#     8   8   8   8   8   8   8
#     4  10  22  39  61  89 128 164 212 258 307 376
#     4  10  23  43  66  89 120 163 213 256 318 378
#     4  10  23  39  60  90 129 165 207 252 309 382
#     4  11  21  40  60  89 128 165 207 262 303 364
#     4  11  21  40  57  90 128 164 206 253 307 379
#     4  11  23  43  67  89 126 165 201 266 322 370
#     4  11  23  36  63  95 122 163 215 256 312 369
#
# _framework density 18.086563000000002
#
# number of rings (size 3 to 8) (size 9 to 14) (size 15 to 20)
#    0.000    1.429    4.286    0.857    2.000    1.143 
#    5.143    0.714    3.143    0.000    0.000    0.000 
#    0.000    0.000    0.000    0.000    0.000    0.000 
#
# Total GULP energy -312494.142403 kJ/mol
# GULP energy per Si atom -5580.252543 kJ/mol
# Density = 1.804540 g / cm^3
# Si number density = 18.086563 Si / 1000 Ang^3
#
#
#
# Elastic Constant Matrix: (Units=GPa)
#
#
# Indices 1 2 3 4 5 6 
#
# 1 93.3359 33.1917 29.9861 0.0000 0.0000 0.0000
# 2 33.1917 115.4766 15.8243 0.0000 0.0000 0.0000
# 3 29.9861 15.8243 24.3995 0.0000 0.0000 0.0000
# 4 0.0000 0.0000 0.0000 25.7466 0.0000 0.0000
# 5 0.0000 0.0000 0.0000 0.0000 25.2294 0.0000
# 6 0.0000 0.0000 0.0000 0.0000 0.0000 31.1167
#
#
#
# Elastic Compliance Matrix: (Units=1/GPa)
#
#
# Indices 1 2 3 4 5 6 
#
# 1 0.018285 -0.002389 -0.020923 0.000000 0.000000 0.000000
# 2 -0.002389 0.009816 -0.003431 0.000000 0.000000 0.000000
# 3 -0.020923 -0.003431 0.068923 0.000000 0.000000 0.000000
# 4 0.000000 0.000000 0.000000 0.038840 0.000000 0.000000
# 5 0.000000 0.000000 0.000000 0.000000 0.039636 0.000000
# 6 0.000000 0.000000 0.000000 0.000000 0.000000 0.032137
#
#
# Mechanical properties :
#
#
# Convention : Reuss Voigt Hill
#
# Bulk Modulus (GPa) = 22.96743 43.46848 33.21795
# Shear Modulus (GPa) = 18.13985 26.69920 22.41953
#
# Velocity S-wave (km/s) = 3.17037 3.84629 3.52457
# Velocity P-wave (km/s) = 5.11154 6.61899 5.91349
#
# Compressibility (1/GPa) = 0.04353992
#
# Stress axis : x y z
#
# Youngs Moduli (GPa) = 54.68867 101.86932 14.50896
#
# Poissons Ratio (x) = 0.24333 0.30357
# Poissons Ratio (y) = 0.13063 0.04978
# Poissons Ratio (z) = 1.14424 0.34951
#
# Static dielectric constant tensor:
#      x y z
#    x 1.627140 0.000000 0.000000 
#    y 0.000000 1.622390 0.000000 
#    z 0.000000 0.000000 1.737080 
# 
# From -- ./inp_files/28782.got.cif
#   From: 2010.05.17/outbox.cif.g08.bks.cpg/sg52_15_cif.got.tgz:28782.got - 2010.06.03 12:15:38.
