data_PCOD9411593
_publ_section_title
;
Structure prediction by ZEFSAII (Michael W. Deem and Ramdas Pophale) SiO2 
 PCOD9411593
Probable space group: P N N A
;
_chemical_formula_sum "Si O2"
_cell_formula_units_Z 56
_cell_length_a 11.073963
_cell_length_b 15.698477
_cell_length_c 13.674698
_cell_angle_alpha 90.000000
_cell_angle_beta 90.000000
_cell_angle_gamma 90.000000
_cell_volume 2377.269032
_symmetry_space_group_name_H-M "P N N A"
_symmetry_group_IT_number 52
_symmetry_cell_setting 'orthorhombic'
loop_
_space_group_symop_operation_xyz
x,y,z
1/2-x,-y,z
x,1/2-y,1/2-z
1/2-x,1/2+y,1/2-z
-x,-y,-z
1/2+x,y,-z
-x,1/2+y,1/2+z
1/2+x,1/2-y,1/2+z
loop_
_atom_site_type_symbol
_atom_site_label
_atom_site_fract_x
_atom_site_fract_y
_atom_site_fract_z
Si Si1 0.064516 0.838891 0.717390
Si Si2 0.340037 0.844888 0.723423
Si Si3 0.120592 0.017175 0.438674
Si Si4 0.902213 0.237913 0.020002
Si Si5 0.456007 0.023083 0.235700
Si Si6 0.653427 0.307922 0.998919
Si Si7 0.126326 0.546258 0.477317
O O1 0.002852 0.750000 0.750000
O O2 0.201719 0.848335 0.759194
O O3 0.095955 0.808056 0.607015
O O4 0.998516 0.924364 0.752638
O O5 0.384865 0.750000 0.750000
O O6 0.425532 0.917593 0.765293
O O7 0.341059 0.851995 0.605764
O O8 0.123242 0.118171 0.422425
O O9 0.250000 0.000000 0.487615
O O10 0.112148 0.963694 0.339157
O O11 0.000000 0.000000 0.500000
O O12 0.779391 0.267078 0.966642
O O13 0.880576 0.137781 0.028726
O O14 0.040808 0.244957 0.986222
O O15 0.377860 0.047537 0.141665
O O16 0.250000 0.500000 0.507305
O O17 0.000000 0.500000 0.500000
#
# Coordination Sequence:
#
# PCOD9411593 Si02
#       7
#     8   8   8   8   8   8   8
#     4  10  22  40  65 102 141 187 251 312 368 441
#     4  10  22  38  64 105 146 190 248 304 370 453
#     4  12  25  42  70 106 147 190 243 309 382 460
#     4  11  23  43  69 102 141 194 255 308 377 457
#     4  12  24  44  72 104 152 191 253 308 395 444
#     4  11  22  40  68 102 144 193 242 305 377 449
#     4  12  28  50  76 106 148 204 260 314 386 465
#
# _framework density 23.556443000000002
#
# number of rings (size 3 to 8) (size 9 to 14) (size 15 to 20)
#    0.000    0.857    2.857    4.286    2.000    3.429 
#    0.000    0.000    0.000    0.000    0.000    0.000 
#    0.000    0.000    0.000    0.000    0.000    0.000 
#
# Total GULP energy -312183.851711 kJ/mol
# GULP energy per Si atom -5574.711638 kJ/mol
# Density = 2.350283 g / cm^3
# Si number density = 23.556443 Si / 1000 Ang^3
#
#
#
# Elastic Constant Matrix: (Units=GPa)
#
#
# Indices 1 2 3 4 5 6 
#
# 1 125.5317 43.6548 6.7652 0.0000 0.0000 0.0000
# 2 43.6548 134.1406 -3.9624 0.0000 0.0000 0.0000
# 3 6.7652 -3.9624 68.5618 0.0000 0.0000 0.0000
# 4 0.0000 0.0000 0.0000 12.5957 0.0000 0.0000
# 5 0.0000 0.0000 0.0000 0.0000 23.2769 0.0000
# 6 0.0000 0.0000 0.0000 0.0000 0.0000 40.4220
#
#
#
# Elastic Compliance Matrix: (Units=1/GPa)
#
#
# Indices 1 2 3 4 5 6 
#
# 1 0.009060 -0.002980 -0.001066 0.000000 0.000000 0.000000
# 2 -0.002980 0.008448 0.000782 0.000000 0.000000 0.000000
# 3 -0.001066 0.000782 0.014736 0.000000 0.000000 0.000000
# 4 0.000000 0.000000 0.000000 0.079392 0.000000 0.000000
# 5 0.000000 0.000000 0.000000 0.000000 0.042961 0.000000
# 6 0.000000 0.000000 0.000000 0.000000 0.000000 0.024739
#
#
# Mechanical properties :
#
#
# Convention : Reuss Voigt Hill
#
# Bulk Modulus (GPa) = 38.88675 46.79438 42.84056
# Shear Modulus (GPa) = 25.71554 34.04403 29.87978
#
# Velocity S-wave (km/s) = 3.30761 3.80572 3.56537
# Velocity P-wave (km/s) = 5.57949 6.26253 5.93085
#
# Compressibility (1/GPa) = 0.02571570
#
# Stress axis : x y z
#
# Youngs Moduli (GPa) = 110.37682 118.37455 67.86192
#
# Poissons Ratio (x) = 0.35275 0.07235
# Poissons Ratio (y) = 0.32892 -0.05309
# Poissons Ratio (z) = 0.11768 -0.09260
#
# Static dielectric constant tensor:
#      x y z
#    x 2.037480 0.000000 0.000000 
#    y 0.000000 1.886830 0.000000 
#    z 0.000000 0.000000 2.150990 
# 
# From -- ./inp_files/26146.got.cif
#   From: 2010.05.17/outbox.cif.g08.bks.cpg/sg52_14_cif.got.tgz:26146.got - 2010.06.03 12:15:38.
