data_PCOD9411517
_publ_section_title
;
Structure prediction by ZEFSAII (Michael W. Deem and Ramdas Pophale) SiO2 
 PCOD9411517
Probable space group: P N N A
;
_chemical_formula_sum "Si O2"
_cell_formula_units_Z 40
_cell_length_a 21.674881
_cell_length_b 10.621869
_cell_length_c 7.064017
_cell_angle_alpha 90.000000
_cell_angle_beta 90.000000
_cell_angle_gamma 90.000000
_cell_volume 1626.332716
_symmetry_space_group_name_H-M "P N N A"
_symmetry_group_IT_number 52
_symmetry_cell_setting 'orthorhombic'
loop_
_space_group_symop_operation_xyz
x,y,z
1/2-x,-y,z
x,1/2-y,1/2-z
1/2-x,1/2+y,1/2-z
-x,-y,-z
1/2+x,y,-z
-x,1/2+y,1/2+z
1/2+x,1/2-y,1/2+z
loop_
_atom_site_type_symbol
_atom_site_label
_atom_site_fract_x
_atom_site_fract_y
_atom_site_fract_z
Si Si1 0.301139 0.598721 0.467383
Si Si2 0.032163 0.790318 0.550581
Si Si3 0.577587 0.047827 0.476770
Si Si4 0.569226 0.527004 0.578718
Si Si5 0.790077 0.879420 0.509883
O O1 0.250000 0.500000 0.529768
O O2 0.371496 0.549107 0.505116
O O3 0.276396 0.734734 0.533661
O O4 0.296813 0.608278 0.237916
O O5 0.002575 0.750000 0.750000
O O6 0.070547 0.678663 0.454296
O O7 0.976784 0.853971 0.432360
O O8 0.072505 0.910274 0.612928
O O9 0.641896 0.105695 0.429739
O O10 0.572511 0.012092 0.700505
O O11 0.500000 0.500000 0.500000
O O12 0.750000 0.000000 0.452463
#
# Coordination Sequence:
#
# PCOD9411517 Si02
#       5
#     8   8   8   8   8
#     4   9  19  32  54  88 120 154 196 245 301 357
#     4  11  22  37  58  85 119 157 199 247 302 357
#     4  10  22  37  57  89 118 156 200 249 304 359
#     4  11  20  35  61  86 120 159 197 247 303 360
#     4   9  18  33  56  83 120 151 190 250 302 351
#
# _framework density 24.595215
#
# number of rings (size 3 to 8) (size 9 to 14) (size 15 to 20)
#    0.000    2.000    2.000    1.800    5.600    0.000 
#    0.000    0.000    0.000    1.200    0.000    0.000 
#    0.000    0.000    0.000    0.000    0.000    0.000 
#
# Total GULP energy -223223.055202 kJ/mol
# GULP energy per Si atom -5580.576380 kJ/mol
# Density = 2.453924 g / cm^3
# Si number density = 24.595215 Si / 1000 Ang^3
#
#
#
# Elastic Constant Matrix: (Units=GPa)
#
#
# Indices 1 2 3 4 5 6 
#
# 1 106.1285 69.9732 7.7344 0.0000 0.0000 0.0000
# 2 69.9732 231.2906 19.6083 0.0000 0.0000 0.0000
# 3 7.7344 19.6083 95.5547 0.0000 0.0000 0.0000
# 4 0.0000 0.0000 0.0000 20.3559 0.0000 0.0000
# 5 0.0000 0.0000 0.0000 0.0000 6.3098 0.0000
# 6 0.0000 0.0000 0.0000 0.0000 0.0000 39.1281
#
#
#
# Elastic Compliance Matrix: (Units=1/GPa)
#
#
# Indices 1 2 3 4 5 6 
#
# 1 0.011775 -0.003543 -0.000226 0.000000 0.000000 0.000000
# 2 -0.003543 0.005466 -0.000835 0.000000 0.000000 0.000000
# 3 -0.000226 -0.000835 0.010655 0.000000 0.000000 0.000000
# 4 0.000000 0.000000 0.000000 0.049126 0.000000 0.000000
# 5 0.000000 0.000000 0.000000 0.000000 0.158482 0.000000
# 6 0.000000 0.000000 0.000000 0.000000 0.000000 0.025557
#
#
# Mechanical properties :
#
#
# Convention : Reuss Voigt Hill
#
# Bulk Modulus (GPa) = 53.51036 69.73393 61.62214
# Shear Modulus (GPa) = 18.08322 35.53595 26.80959
#
# Velocity S-wave (km/s) = 2.71446 3.80522 3.30515
# Velocity P-wave (km/s) = 5.62388 6.90800 6.29875
#
# Compressibility (1/GPa) = 0.01868797
#
# Stress axis : x y z
#
# Youngs Moduli (GPa) = 84.92464 182.93946 93.85415
#
# Poissons Ratio (x) = 0.64819 0.02121
# Poissons Ratio (y) = 0.30091 0.07836
# Poissons Ratio (z) = 0.01919 0.15274
#
# Static dielectric constant tensor:
#      x y z
#    x 1.902210 0.000000 0.000000 
#    y 0.000000 2.038800 0.000000 
#    z 0.000000 0.000000 2.041280 
# 
# From -- ./inp_files/13976.got.cif
#   From: 2010.05.17/outbox.cif.g08.bks.cpg/sg52_7_cif.got.tgz:13976.got - 2010.06.03 12:15:38.
