data_PCOD9411690
_publ_section_title
;
Structure prediction by ZEFSAII (Michael W. Deem and Ramdas Pophale) SiO2 
 PCOD9411690
Probable space group: P N N A
;
_chemical_formula_sum "Si O2"
_cell_formula_units_Z 60
_cell_length_a 14.336382
_cell_length_b 9.355032
_cell_length_c 21.603471
_cell_angle_alpha 90.000000
_cell_angle_beta 90.000000
_cell_angle_gamma 90.000000
_cell_volume 2897.399468
_symmetry_space_group_name_H-M "P N N A"
_symmetry_group_IT_number 52
_symmetry_cell_setting 'orthorhombic'
loop_
_space_group_symop_operation_xyz
x,y,z
1/2-x,-y,z
x,1/2-y,1/2-z
1/2-x,1/2+y,1/2-z
-x,-y,-z
1/2+x,y,-z
-x,1/2+y,1/2+z
1/2+x,1/2-y,1/2+z
loop_
_atom_site_type_symbol
_atom_site_label
_atom_site_fract_x
_atom_site_fract_y
_atom_site_fract_z
Si Si1 0.232645 0.750000 0.250000
Si Si2 0.536470 0.658796 0.621369
Si Si3 0.646521 0.944611 0.648076
Si Si4 0.784685 0.844887 0.476437
Si Si5 0.058425 0.315748 0.074865
Si Si6 0.336892 0.576030 0.356341
Si Si7 0.109414 0.828395 0.989224
Si Si8 0.335697 0.919541 0.894060
O O1 0.177072 0.873775 0.286678
O O2 0.296081 0.671662 0.301491
O O3 0.581935 0.814836 0.623719
O O4 0.599098 0.555275 0.662913
O O5 0.550660 0.623098 0.548632
O O6 0.431189 0.622827 0.639434
O O7 0.750000 0.000000 0.623186
O O8 0.579171 0.077420 0.631882
O O9 0.877261 0.865531 0.517564
O O10 0.699799 0.762684 0.511025
O O11 0.805014 0.731671 0.422679
O O12 0.750000 0.000000 0.456276
O O13 0.104130 0.169341 0.097333
O O14 0.955142 0.278143 0.051917
O O15 0.250000 0.500000 0.389435
O O16 0.139889 0.964715 0.948294
O O17 0.250000 0.000000 0.860190
#
# Coordination Sequence:
#
# PCOD9411690 Si02
#       8
#     4   8   8   8   8   8   8   8
#     4  12  26  44  60  94 136 164 212 288 320 412
#     4  12  22  38  61  90 117 179 214 258 325 398
#     4  12  25  40  61  90 131 166 212 266 337 392
#     4  11  23  35  54  82 124 171 206 267 314 367
#     4  12  23  38  58  89 125 170 215 265 317 400
#     4  12  23  38  62  85 122 168 214 259 327 392
#     4  11  22  38  57  85 128 163 228 261 307 391
#     4  10  22  40  56  83 125 168 217 268 305 374
#
# _framework density 20.708224000000001
#
# number of rings (size 3 to 8) (size 9 to 14) (size 15 to 20)
#    0.000    0.533    5.333    4.400    1.867    2.133 
#    0.000    0.000    0.000    0.000    0.000    0.933 
#    0.000    0.000    0.000    0.000    0.000    0.000 
#
# Total GULP energy -334512.477623 kJ/mol
# GULP energy per Si atom -5575.207960 kJ/mol
# Density = 2.066109 g / cm^3
# Si number density = 20.708224 Si / 1000 Ang^3
#
#
#
# Elastic Constant Matrix: (Units=GPa)
#
#
# Indices 1 2 3 4 5 6 
#
# 1 99.3999 36.0790 4.8254 0.0000 0.0000 0.0000
# 2 36.0790 139.9937 16.8875 0.0000 0.0000 0.0000
# 3 4.8254 16.8875 16.6569 0.0000 0.0000 0.0000
# 4 0.0000 0.0000 0.0000 34.1962 0.0000 0.0000
# 5 0.0000 0.0000 0.0000 0.0000 19.0595 0.0000
# 6 0.0000 0.0000 0.0000 0.0000 0.0000 35.8944
#
#
#
# Elastic Compliance Matrix: (Units=1/GPa)
#
#
# Indices 1 2 3 4 5 6 
#
# 1 0.011100 -0.002817 -0.000359 0.000000 0.000000 0.000000
# 2 -0.002817 0.008854 -0.008160 0.000000 0.000000 0.000000
# 3 -0.000359 -0.008160 0.068412 0.000000 0.000000 0.000000
# 4 0.000000 0.000000 0.000000 0.029243 0.000000 0.000000
# 5 0.000000 0.000000 0.000000 0.000000 0.052467 0.000000
# 6 0.000000 0.000000 0.000000 0.000000 0.000000 0.027859
#
#
# Mechanical properties :
#
#
# Convention : Reuss Voigt Hill
#
# Bulk Modulus (GPa) = 15.22239 41.29271 28.25755
# Shear Modulus (GPa) = 20.61797 31.04727 25.83262
#
# Velocity S-wave (km/s) = 3.15880 3.87624 3.53577
# Velocity P-wave (km/s) = 4.54653 6.32592 5.50854
#
# Compressibility (1/GPa) = 0.06569270
#
# Stress axis : x y z
#
# Youngs Moduli (GPa) = 90.08637 112.94796 14.61731
#
# Poissons Ratio (x) = 0.31823 0.00525
# Poissons Ratio (y) = 0.25381 0.11928
# Poissons Ratio (z) = 0.03237 0.92165
#
# Static dielectric constant tensor:
#      x y z
#    x 1.833390 0.000000 0.000000 
#    y 0.000000 1.800250 0.000000 
#    z 0.000000 0.000000 1.749310 
# 
# From -- ./inp_files/40631.got.cif
#   From: 2010.05.17/outbox.cif.g08.bks.cpg/sg52_21_cif.got.tgz:40631.got - 2010.06.03 12:15:38.
