data_PCOD9411586
_publ_section_title
;
Structure prediction by ZEFSAII (Michael W. Deem and Ramdas Pophale) SiO2 
 PCOD9411586
Probable space group: P N N A
;
_chemical_formula_sum "Si O2"
_cell_formula_units_Z 36
_cell_length_a 22.388568
_cell_length_b 5.674926
_cell_length_c 12.224680
_cell_angle_alpha 90.000000
_cell_angle_beta 90.000000
_cell_angle_gamma 90.000000
_cell_volume 1553.187973
_symmetry_space_group_name_H-M "P N N A"
_symmetry_group_IT_number 52
_symmetry_cell_setting 'orthorhombic'
loop_
_space_group_symop_operation_xyz
x,y,z
1/2-x,-y,z
x,1/2-y,1/2-z
1/2-x,1/2+y,1/2-z
-x,-y,-z
1/2+x,y,-z
-x,1/2+y,1/2+z
1/2+x,1/2-y,1/2+z
loop_
_atom_site_type_symbol
_atom_site_label
_atom_site_fract_x
_atom_site_fract_y
_atom_site_fract_z
Si Si1 0.856988 0.072752 0.061060
Si Si2 0.037136 0.196835 0.934418
Si Si3 0.673754 0.750000 0.750000
Si Si4 0.784284 0.250000 0.250000
Si Si5 0.250000 0.500000 0.428174
Si Si6 0.079999 0.926593 0.393447
O O1 0.824643 0.249159 0.142203
O O2 0.907607 0.927180 0.124447
O O3 0.804478 0.917984 0.005301
O O4 0.889935 0.221516 0.966928
O O5 0.987892 0.344027 0.868002
O O6 0.069095 0.354387 0.027504
O O7 0.000000 0.000000 0.000000
O O8 0.718186 0.683970 0.652032
O O9 0.626307 0.947654 0.706936
O O10 0.750000 0.500000 0.252640
#
# Coordination Sequence:
#
# PCOD9411586 Si02
#       6
#     8   8   4   4   4   8
#     4  10  22  42  66  95 137 180 235 297 363 434
#     4   9  19  40  64  90 130 183 229 295 359 421
#     4  10  22  38  63 103 136 188 242 290 374 438
#     4  12  28  48  71 105 140 192 244 300 368 438
#     4  10  22  40  62 102 136 184 236 300 366 438
#     4   9  20  40  64  95 138 178 234 302 353 438
#
# _framework density 23.178135000000001
#
# number of rings (size 3 to 8) (size 9 to 14) (size 15 to 20)
#    0.000    2.222    1.111    0.000    6.222    0.000 
#   16.000    0.000    0.000    0.000    0.000    0.000 
#    0.000    0.000    0.000    0.000    0.000    0.000 
#
# Total GULP energy -200644.381661 kJ/mol
# GULP energy per Si atom -5573.455046 kJ/mol
# Density = 2.312538 g / cm^3
# Si number density = 23.178135 Si / 1000 Ang^3
#
#
#
# Elastic Constant Matrix: (Units=GPa)
#
#
# Indices 1 2 3 4 5 6 
#
# 1 158.9274 41.8034 31.5289 0.0000 0.0000 0.0000
# 2 41.8034 62.2094 -0.3630 0.0000 0.0000 0.0000
# 3 31.5289 -0.3630 59.1036 0.0000 0.0000 0.0000
# 4 0.0000 0.0000 0.0000 16.8852 0.0000 0.0000
# 5 0.0000 0.0000 0.0000 0.0000 -19.7753 0.0000
# 6 0.0000 0.0000 0.0000 0.0000 0.0000 10.9150
#
#
#
# Elastic Compliance Matrix: (Units=1/GPa)
#
#
# Indices 1 2 3 4 5 6 
#
# 1 0.008791 -0.005935 -0.004726 0.000000 0.000000 0.000000
# 2 -0.005935 0.020082 0.003289 0.000000 0.000000 0.000000
# 3 -0.004726 0.003289 0.019461 0.000000 0.000000 0.000000
# 4 0.000000 0.000000 0.000000 0.059223 0.000000 0.000000
# 5 0.000000 0.000000 0.000000 0.000000 -0.050568 0.000000
# 6 0.000000 0.000000 0.000000 0.000000 0.000000 0.091617
#
#
# Mechanical properties :
#
#
# Convention : Reuss Voigt Hill
#
# Bulk Modulus (GPa) = 29.77027 47.35325 38.56176
# Shear Modulus (GPa) = 28.64576 15.42304 22.03440
#
# Velocity S-wave (km/s) = 3.51934 2.58236 3.08661
# Velocity P-wave (km/s) = 5.42092 5.41903 5.41998
#
# Compressibility (1/GPa) = 0.03359056
#
# Stress axis : x y z
#
# Youngs Moduli (GPa) = 113.75539 49.79587 51.38562
#
# Poissons Ratio (x) = 0.29553 0.24284
# Poissons Ratio (y) = 0.67512 -0.16902
# Poissons Ratio (z) = 0.53760 -0.16379
#
# Static dielectric constant tensor:
#      x y z
#    x 1.906760 0.000000 0.000000 
#    y 0.000000 2.029950 0.000000 
#    z 0.000000 0.000000 1.900510 
# 
# From -- ./inp_files/22093.got.cif
#   From: 2010.05.17/outbox.cif.g08.bks.cpg/sg52_12_cif.got.tgz:22093.got - 2010.06.03 12:15:38.
