data_PCOD9411986
_publ_section_title
;
Structure prediction by ZEFSAII (Michael W. Deem and Ramdas Pophale) SiO2 
 PCOD9411986
Probable space group: P N N A
;
_chemical_formula_sum "Si O2"
_cell_formula_units_Z 36
_cell_length_a 22.021085
_cell_length_b 9.072585
_cell_length_c 8.447379
_cell_angle_alpha 90.000000
_cell_angle_beta 90.000000
_cell_angle_gamma 90.000000
_cell_volume 1687.686353
_symmetry_space_group_name_H-M "P N N A"
_symmetry_group_IT_number 52
_symmetry_cell_setting 'orthorhombic'
loop_
_space_group_symop_operation_xyz
x,y,z
1/2-x,-y,z
x,1/2-y,1/2-z
1/2-x,1/2+y,1/2-z
-x,-y,-z
1/2+x,y,-z
-x,1/2+y,1/2+z
1/2+x,1/2-y,1/2+z
loop_
_atom_site_type_symbol
_atom_site_label
_atom_site_fract_x
_atom_site_fract_y
_atom_site_fract_z
Si Si1 0.541927 0.909035 0.294920
Si Si2 0.740794 0.250000 0.250000
Si Si3 0.186783 0.080689 0.207942
Si Si4 0.331090 0.488428 0.649062
Si Si5 0.074027 0.904428 0.336381
O O1 0.516346 0.750000 0.250000
O O2 0.564133 0.896531 0.475833
O O3 0.601038 0.946026 0.192626
O O4 0.488997 0.027112 0.273685
O O5 0.695745 0.390622 0.224755
O O6 0.789417 0.340433 0.358221
O O7 0.192725 0.250000 0.250000
O O8 0.250000 0.000000 0.244102
O O9 0.131040 0.007486 0.299733
O O10 0.172930 0.062951 0.021507
O O11 0.085080 0.750000 0.250000
#
# Coordination Sequence:
#
# PCOD9411986 Si02
#       5
#     8   4   8   8   8
#     4  11  25  46  71  97 138 184 232 286 342 421
#     4  10  22  42  70 104 140 180 236 276 342 424
#     4  12  27  47  70 103 146 181 229 289 353 411
#     4  11  24  43  73 102 140 188 231 284 346 417
#     4  11  27  45  70 105 135 181 233 289 353 406
#
# _framework density 21.330978000000002
#
# number of rings (size 3 to 8) (size 9 to 14) (size 15 to 20)
#    0.000    0.889    3.333    2.667    4.667    7.111 
#    0.000    0.000    0.000    0.000    0.000    0.000 
#    0.000    0.000    0.000    0.000    0.000    0.000 
#
# Total GULP energy -201076.179446 kJ/mol
# GULP energy per Si atom -5585.449429 kJ/mol
# Density = 2.128243 g / cm^3
# Si number density = 21.330978 Si / 1000 Ang^3
#
#
#
# Elastic Constant Matrix: (Units=GPa)
#
#
# Indices 1 2 3 4 5 6 
#
# 1 89.0618 18.3173 15.3017 0.0000 0.0000 0.0000
# 2 18.3173 135.8534 33.1008 0.0000 0.0000 0.0000
# 3 15.3017 33.1008 46.4656 0.0000 0.0000 0.0000
# 4 0.0000 0.0000 0.0000 30.7716 0.0000 0.0000
# 5 0.0000 0.0000 0.0000 0.0000 11.6105 0.0000
# 6 0.0000 0.0000 0.0000 0.0000 0.0000 33.5062
#
#
#
# Elastic Compliance Matrix: (Units=1/GPa)
#
#
# Indices 1 2 3 4 5 6 
#
# 1 0.011971 -0.000791 -0.003379 0.000000 0.000000 0.000000
# 2 -0.000791 0.008959 -0.006122 0.000000 0.000000 0.000000
# 3 -0.003379 -0.006122 0.026995 0.000000 0.000000 0.000000
# 4 0.000000 0.000000 0.000000 0.032497 0.000000 0.000000
# 5 0.000000 0.000000 0.000000 0.000000 0.086129 0.000000
# 6 0.000000 0.000000 0.000000 0.000000 0.000000 0.029845
#
#
# Mechanical properties :
#
#
# Convention : Reuss Voigt Hill
#
# Bulk Modulus (GPa) = 36.57334 44.98006 40.77670
# Shear Modulus (GPa) = 22.11470 28.82174 25.46822
#
# Velocity S-wave (km/s) = 3.22334 3.67981 3.45911
# Velocity P-wave (km/s) = 5.57100 6.25997 5.92551
#
# Compressibility (1/GPa) = 0.02734232
#
# Stress axis : x y z
#
# Youngs Moduli (GPa) = 83.53279 111.61864 37.04389
#
# Poissons Ratio (x) = 0.08827 0.12517
# Poissons Ratio (y) = 0.06606 0.22677
# Poissons Ratio (z) = 0.28225 0.68330
#
# Static dielectric constant tensor:
#      x y z
#    x 1.742670 0.000000 0.000000 
#    y 0.000000 1.757610 0.000000 
#    z 0.000000 0.000000 1.795910 
# 
# From -- ./inp_files/12953.got.cif
#   From: 2010.05.17/outbox.cif.g08.bks.cpg/sg52_7_cif.got.tgz:12953.got - 2010.06.03 12:15:38.
