data_PCOD9411739
_publ_section_title
;
Structure prediction by ZEFSAII (Michael W. Deem and Ramdas Pophale) SiO2 
 PCOD9411739
Probable space group: P N N A
;
_chemical_formula_sum "Si O2"
_cell_formula_units_Z 36
_cell_length_a 9.833851
_cell_length_b 11.619697
_cell_length_c 14.851803
_cell_angle_alpha 90.000000
_cell_angle_beta 90.000000
_cell_angle_gamma 90.000000
_cell_volume 1697.061601
_symmetry_space_group_name_H-M "P N N A"
_symmetry_group_IT_number 52
_symmetry_cell_setting 'orthorhombic'
loop_
_space_group_symop_operation_xyz
x,y,z
1/2-x,-y,z
x,1/2-y,1/2-z
1/2-x,1/2+y,1/2-z
-x,-y,-z
1/2+x,y,-z
-x,1/2+y,1/2+z
1/2+x,1/2-y,1/2+z
loop_
_atom_site_type_symbol
_atom_site_label
_atom_site_fract_x
_atom_site_fract_y
_atom_site_fract_z
Si Si1 0.096813 0.537627 0.081774
Si Si2 0.041557 0.644220 0.807387
Si Si3 0.110760 0.762390 0.996329
Si Si4 0.750000 0.000000 0.195964
Si Si5 0.142447 0.407693 0.519586
O O1 0.250000 0.500000 0.060092
O O2 0.051978 0.465378 0.168969
O O3 0.083600 0.675836 0.078906
O O4 0.000000 0.500000 0.000000
O O5 0.980655 0.750000 0.750000
O O6 0.084271 0.698418 0.902419
O O7 0.170556 0.592939 0.754530
O O8 0.269044 0.793467 0.997119
O O9 0.010391 0.873609 0.993575
O O10 0.852290 0.939128 0.125362
O O11 0.250000 0.500000 0.476521
#
# Coordination Sequence:
#
# PCOD9411739 Si02
#       5
#     8   8   8   4   8
#     4  10  23  39  65  98 132 176 225 277 339 411
#     4  11  22  40  64  97 138 171 224 287 346 395
#     4  11  21  39  66  95 128 178 227 281 325 422
#     4  10  24  38  68  96 132 176 224 284 350 412
#     4  10  22  40  64  95 131 177 234 266 352 408
#
# _framework density 21.213137
#
# number of rings (size 3 to 8) (size 9 to 14) (size 15 to 20)
#    0.667    0.889    2.222    3.333    9.333    0.000 
#    0.000    5.556    0.000    0.000    0.000    0.000 
#    0.000    0.000    0.000    0.000    0.000    0.000 
#
# Total GULP energy -200453.117942 kJ/mol
# GULP energy per Si atom -5568.142165 kJ/mol
# Density = 2.116485 g / cm^3
# Si number density = 21.213137 Si / 1000 Ang^3
#
#
#
# Elastic Constant Matrix: (Units=GPa)
#
#
# Indices 1 2 3 4 5 6 
#
# 1 100.3243 5.6600 11.9107 0.0000 0.0000 0.0000
# 2 5.6600 84.3275 31.0456 0.0000 0.0000 0.0000
# 3 11.9107 31.0456 62.7247 0.0000 0.0000 0.0000
# 4 0.0000 0.0000 0.0000 44.1753 0.0000 0.0000
# 5 0.0000 0.0000 0.0000 0.0000 13.9761 0.0000
# 6 0.0000 0.0000 0.0000 0.0000 0.0000 25.7928
#
#
#
# Elastic Compliance Matrix: (Units=1/GPa)
#
#
# Indices 1 2 3 4 5 6 
#
# 1 0.010198 0.000035 -0.001954 0.000000 0.000000 0.000000
# 2 0.000035 0.014501 -0.007184 0.000000 0.000000 0.000000
# 3 -0.001954 -0.007184 0.019869 0.000000 0.000000 0.000000
# 4 0.000000 0.000000 0.000000 0.022637 0.000000 0.000000
# 5 0.000000 0.000000 0.000000 0.000000 0.071551 0.000000
# 6 0.000000 0.000000 0.000000 0.000000 0.000000 0.038770
#
#
# Mechanical properties :
#
#
# Convention : Reuss Voigt Hill
#
# Bulk Modulus (GPa) = 37.93266 38.28989 38.11127
# Shear Modulus (GPa) = 24.44760 30.03953 27.24357
#
# Velocity S-wave (km/s) = 3.39849 3.76717 3.58757
# Velocity P-wave (km/s) = 5.77236 6.08370 5.93007
#
# Compressibility (1/GPa) = 0.02636251
#
# Stress axis : x y z
#
# Youngs Moduli (GPa) = 98.06176 68.96091 50.32894
#
# Poissons Ratio (x) = -0.00240 0.09832
# Poissons Ratio (y) = -0.00341 0.36156
# Poissons Ratio (z) = 0.19158 0.49540
#
# Static dielectric constant tensor:
#      x y z
#    x 1.734110 0.000000 0.000000 
#    y 0.000000 1.940920 0.000000 
#    z 0.000000 0.000000 1.748490 
# 
# From -- ./inp_files/25743.got.cif
#   From: 2010.05.17/outbox.cif.g08.bks.cpg/sg52_13_cif.got.tgz:25743.got - 2010.06.03 12:15:38.
