data_PCOD9411678
_publ_section_title
;
Structure prediction by ZEFSAII (Michael W. Deem and Ramdas Pophale) SiO2 
 PCOD9411678
Probable space group: P N N A
;
_chemical_formula_sum "Si O2"
_cell_formula_units_Z 56
_cell_length_a 8.667295
_cell_length_b 21.482061
_cell_length_c 13.071010
_cell_angle_alpha 90.000000
_cell_angle_beta 90.000000
_cell_angle_gamma 90.000000
_cell_volume 2433.709127
_symmetry_space_group_name_H-M "P N N A"
_symmetry_group_IT_number 52
_symmetry_cell_setting 'orthorhombic'
loop_
_space_group_symop_operation_xyz
x,y,z
1/2-x,-y,z
x,1/2-y,1/2-z
1/2-x,1/2+y,1/2-z
-x,-y,-z
1/2+x,y,-z
-x,1/2+y,1/2+z
1/2+x,1/2-y,1/2+z
loop_
_atom_site_type_symbol
_atom_site_label
_atom_site_fract_x
_atom_site_fract_y
_atom_site_fract_z
Si Si1 0.250000 0.500000 0.761470
Si Si2 0.517042 0.081892 0.388204
Si Si3 0.445114 0.831242 0.435021
Si Si4 0.991270 0.908260 0.764123
Si Si5 0.495039 0.322438 0.281097
Si Si6 0.250000 0.000000 0.334817
Si Si7 0.672456 0.806661 0.169836
Si Si8 0.319107 0.259640 0.450861
O O1 0.353198 0.543417 0.831820
O O2 0.376236 0.457455 0.705586
O O3 0.595626 0.115677 0.483548
O O4 0.443799 0.132250 0.308887
O O5 0.376234 0.034418 0.404754
O O6 0.519301 0.869069 0.341454
O O7 0.310567 0.784231 0.399878
O O8 0.553093 0.787555 0.504122
O O9 0.841653 0.949911 0.737218
O O10 0.021369 0.850269 0.841018
O O11 0.500906 0.250000 0.250000
O O12 0.674120 0.341370 0.291837
O O13 0.386530 0.314700 0.380148
O O14 0.642379 0.750000 0.250000
O O15 0.734921 0.785300 0.059875
#
# Coordination Sequence:
#
# PCOD9411678 Si02
#       8
#     4   8   8   8   8   4   8   8
#     4  10  22  39  68  87 118 186 224 249 302 389
#     4  11  22  43  64  92 133 173 217 261 321 379
#     4  12  23  38  63  97 137 169 208 262 314 403
#     4  11  23  40  64  92 130 171 217 264 314 381
#     4  11  22  41  67  93 127 171 207 267 329 381
#     4  10  26  41  58  97 132 172 216 271 314 377
#     4  11  21  41  67  93 124 170 213 262 323 389
#     4  12  23  39  62 102 133 164 207 260 334 389
#
# _framework density 23.010145999999999
#
# number of rings (size 3 to 8) (size 9 to 14) (size 15 to 20)
#    0.000    0.857    5.714    2.571    0.000    4.571 
#    0.000    0.000    0.000    5.143    0.000    0.000 
#    0.000    0.000    0.000    0.000    0.000    0.000 
#
# Total GULP energy -312163.469207 kJ/mol
# GULP energy per Si atom -5574.347664 kJ/mol
# Density = 2.295777 g / cm^3
# Si number density = 23.010146 Si / 1000 Ang^3
#
#
#
# Elastic Constant Matrix: (Units=GPa)
#
#
# Indices 1 2 3 4 5 6 
#
# 1 77.9491 31.9926 -3.0750 0.0000 0.0000 0.0000
# 2 31.9926 89.4802 18.3718 0.0000 0.0000 0.0000
# 3 -3.0750 18.3718 47.4235 0.0000 0.0000 0.0000
# 4 0.0000 0.0000 0.0000 14.6590 0.0000 0.0000
# 5 0.0000 0.0000 0.0000 0.0000 2.1558 0.0000
# 6 0.0000 0.0000 0.0000 0.0000 0.0000 47.5897
#
#
#
# Elastic Compliance Matrix: (Units=1/GPa)
#
#
# Indices 1 2 3 4 5 6 
#
# 1 0.015533 -0.006258 0.003432 0.000000 0.000000 0.000000
# 2 -0.006258 0.014663 -0.006086 0.000000 0.000000 0.000000
# 3 0.003432 -0.006086 0.023667 0.000000 0.000000 0.000000
# 4 0.000000 0.000000 0.000000 0.068217 0.000000 0.000000
# 5 0.000000 0.000000 0.000000 0.000000 0.463856 0.000000
# 6 0.000000 0.000000 0.000000 0.000000 0.000000 0.021013
#
#
# Mechanical properties :
#
#
# Convention : Reuss Voigt Hill
#
# Bulk Modulus (GPa) = 27.74925 34.38129 31.06527
# Shear Modulus (GPa) = 7.85192 24.05180 15.95186
#
# Velocity S-wave (km/s) = 1.84927 3.23657 2.63583
# Velocity P-wave (km/s) = 4.07988 5.37972 4.77425
#
# Compressibility (1/GPa) = 0.03603701
#
# Stress axis : x y z
#
# Youngs Moduli (GPa) = 64.38001 68.19997 42.25317
#
# Poissons Ratio (x) = 0.42680 -0.14499
# Poissons Ratio (y) = 0.40290 0.25716
# Poissons Ratio (z) = -0.22092 0.41507
#
# Static dielectric constant tensor:
#      x y z
#    x 1.968660 0.000000 0.000000 
#    y 0.000000 1.966770 0.000000 
#    z 0.000000 0.000000 1.907820 
# 
# From -- ./inp_files/24982.got.cif
#   From: 2010.05.17/outbox.cif.g08.bks.cpg/sg52_13_cif.got.tgz:24982.got - 2010.06.03 12:15:38.
