data_PCOD9411582
_publ_section_title
;
Structure prediction by ZEFSAII (Michael W. Deem and Ramdas Pophale) SiO2 
 PCOD9411582
Probable space group: P N N A
;
_chemical_formula_sum "Si O2"
_cell_formula_units_Z 56
_cell_length_a 13.950187
_cell_length_b 21.815075
_cell_length_c 9.174002
_cell_angle_alpha 90.000000
_cell_angle_beta 90.000000
_cell_angle_gamma 90.000000
_cell_volume 2791.872431
_symmetry_space_group_name_H-M "P N N A"
_symmetry_group_IT_number 52
_symmetry_cell_setting 'orthorhombic'
loop_
_space_group_symop_operation_xyz
x,y,z
1/2-x,-y,z
x,1/2-y,1/2-z
1/2-x,1/2+y,1/2-z
-x,-y,-z
1/2+x,y,-z
-x,1/2+y,1/2+z
1/2+x,1/2-y,1/2+z
loop_
_atom_site_type_symbol
_atom_site_label
_atom_site_fract_x
_atom_site_fract_y
_atom_site_fract_z
Si Si1 0.387220 0.151720 0.678418
Si Si2 0.687988 0.111694 0.413433
Si Si3 0.262318 0.307932 0.351897
Si Si4 0.277319 0.434977 0.200696
Si Si5 0.361505 0.748597 0.924468
Si Si6 0.070721 0.779462 0.965299
Si Si7 0.483993 0.067776 0.438311
O O1 0.283013 0.119211 0.685626
O O2 0.425634 0.170376 0.836824
O O3 0.379425 0.217217 0.594867
O O4 0.456623 0.111119 0.576525
O O5 0.721203 0.069261 0.546808
O O6 0.669979 0.180591 0.469113
O O7 0.583350 0.089266 0.363011
O O8 0.235124 0.250000 0.250000
O O9 0.245755 0.374281 0.285795
O O10 0.208728 0.297920 0.504494
O O11 0.373659 0.301515 0.392374
O O12 0.250000 0.500000 0.270094
O O13 0.390444 0.430671 0.164349
O O14 0.361668 0.750000 0.750000
O O15 0.464404 0.761988 0.991331
O O16 0.500000 0.000000 0.500000
#
# Coordination Sequence:
#
# PCOD9411582 Si02
#       7
#     8   8   8   8   8   8   8
#     4  10  22  38  61  95 131 169 211 280 335 396
#     4  11  21  39  61  94 133 167 221 272 339 395
#     4  12  24  42  66  98 132 174 221 284 339 400
#     4  11  24  41  66  97 134 179 231 281 341 404
#     4  12  25  38  67  98 134 176 218 280 347 406
#     4  11  23  39  62  94 133 166 218 271 340 401
#     4  11  22  38  66  95 130 179 229 279 328 405
#
# _framework density 20.058223999999999
#
# number of rings (size 3 to 8) (size 9 to 14) (size 15 to 20)
#    0.000    0.857    5.714    2.143    6.000    0.000 
#    0.000    0.000    6.286    1.714    0.000    0.000 
#    0.000    0.000    0.000    0.000    0.000    0.000 
#
# Total GULP energy -312714.203015 kJ/mol
# GULP energy per Si atom -5584.182197 kJ/mol
# Density = 2.001257 g / cm^3
# Si number density = 20.058224 Si / 1000 Ang^3
#
#
#
# Elastic Constant Matrix: (Units=GPa)
#
#
# Indices 1 2 3 4 5 6 
#
# 1 108.9380 18.2833 17.4744 0.0000 0.0000 0.0000
# 2 18.2833 127.8803 41.8239 0.0000 0.0000 0.0000
# 3 17.4744 41.8239 70.1510 0.0000 0.0000 0.0000
# 4 0.0000 0.0000 0.0000 24.1523 0.0000 0.0000
# 5 0.0000 0.0000 0.0000 0.0000 24.3683 0.0000
# 6 0.0000 0.0000 0.0000 0.0000 0.0000 27.5208
#
#
#
# Elastic Compliance Matrix: (Units=1/GPa)
#
#
# Indices 1 2 3 4 5 6 
#
# 1 0.009617 -0.000735 -0.001957 0.000000 0.000000 0.000000
# 2 -0.000735 0.009770 -0.005642 0.000000 0.000000 0.000000
# 3 -0.001957 -0.005642 0.018106 0.000000 0.000000 0.000000
# 4 0.000000 0.000000 0.000000 0.041404 0.000000 0.000000
# 5 0.000000 0.000000 0.000000 0.000000 0.041037 0.000000
# 6 0.000000 0.000000 0.000000 0.000000 0.000000 0.036336
#
#
# Mechanical properties :
#
#
# Convention : Reuss Voigt Hill
#
# Bulk Modulus (GPa) = 48.01927 51.34806 49.68367
# Shear Modulus (GPa) = 27.79631 30.50079 29.14855
#
# Velocity S-wave (km/s) = 3.72665 3.90373 3.81622
# Velocity P-wave (km/s) = 6.51990 6.78041 6.65143
#
# Compressibility (1/GPa) = 0.02082497
#
# Stress axis : x y z
#
# Youngs Moduli (GPa) = 103.98427 102.35352 55.22959
#
# Poissons Ratio (x) = 0.07520 0.10811
# Poissons Ratio (y) = 0.07640 0.31160
# Poissons Ratio (z) = 0.20355 0.57747
#
# Static dielectric constant tensor:
#      x y z
#    x 1.775980 0.000000 0.000000 
#    y 0.000000 1.711940 0.000000 
#    z 0.000000 0.000000 1.726870 
# 
# From -- ./inp_files/10787.got.cif
#   From: 2010.05.17/outbox.cif.g08.bks.cpg/sg52_6_cif.got.tgz:10787.got - 2010.06.03 12:15:38.
