data_PCOD9411374
_publ_section_title
;
Structure prediction by ZEFSAII (Michael W. Deem and Ramdas Pophale) SiO2 
 PCOD9411374
Probable space group: P N N A
;
_chemical_formula_sum "Si O2"
_cell_formula_units_Z 32
_cell_length_a 11.868941
_cell_length_b 12.613592
_cell_length_c 7.875395
_cell_angle_alpha 90.000000
_cell_angle_beta 90.000000
_cell_angle_gamma 90.000000
_cell_volume 1179.025222
_symmetry_space_group_name_H-M "P N N A"
_symmetry_group_IT_number 52
_symmetry_cell_setting 'orthorhombic'
loop_
_space_group_symop_operation_xyz
x,y,z
1/2-x,-y,z
x,1/2-y,1/2-z
1/2-x,1/2+y,1/2-z
-x,-y,-z
1/2+x,y,-z
-x,1/2+y,1/2+z
1/2+x,1/2-y,1/2+z
loop_
_atom_site_type_symbol
_atom_site_label
_atom_site_fract_x
_atom_site_fract_y
_atom_site_fract_z
Si Si1 0.424842 0.250000 0.750000
Si Si2 0.843846 0.920565 0.894154
Si Si3 0.914909 0.477242 0.252363
Si Si4 0.021037 0.178661 0.598651
Si Si5 0.301976 0.250000 0.250000
O O1 0.357256 0.361576 0.757714
O O2 0.499005 0.240730 0.576381
O O3 0.778450 0.809328 0.881273
O O4 0.957198 0.938504 0.787947
O O5 0.750000 0.000000 0.825661
O O6 0.874292 0.961180 0.081553
O O7 0.918633 0.565017 0.104558
O O8 0.072121 0.250000 0.750000
O O9 0.890805 0.169323 0.664383
#
# Coordination Sequence:
#
# PCOD9411374 Si02
#       5
#     4   8   8   8   4
#     4  12  23  42  74 109 150 204 243 310 374 449
#     4  11  20  40  71 106 143 194 245 312 375 442
#     4  11  23  40  72 107 150 197 251 306 376 448
#     4  10  22  43  72 105 145 192 250 308 372 447
#     4  10  21  42  76  99 144 196 247 310 382 439
#
# _framework density 27.141065000000001
#
# number of rings (size 3 to 8) (size 9 to 14) (size 15 to 20)
#    0.750    0.500    2.500    6.000    0.000    0.000 
#    0.000    0.000   60.500    0.000    0.000    0.000 
#    0.000    0.000    0.000    0.000    0.000    0.000 
#
# Total GULP energy -178645.911786 kJ/mol
# GULP energy per Si atom -5582.684743 kJ/mol
# Density = 2.707929 g / cm^3
# Si number density = 27.141065 Si / 1000 Ang^3
#
#
#
# Elastic Constant Matrix: (Units=GPa)
#
#
# Indices 1 2 3 4 5 6 
#
# 1 97.9231 -2.4915 -23.5078 0.0000 0.0000 0.0000
# 2 -2.4915 205.8776 57.1327 0.0000 0.0000 0.0000
# 3 -23.5078 57.1327 133.1503 0.0000 0.0000 0.0000
# 4 0.0000 0.0000 0.0000 59.1101 0.0000 0.0000
# 5 0.0000 0.0000 0.0000 0.0000 11.4600 0.0000
# 6 0.0000 0.0000 0.0000 0.0000 0.0000 24.1590
#
#
#
# Elastic Compliance Matrix: (Units=1/GPa)
#
#
# Indices 1 2 3 4 5 6 
#
# 1 0.010700 -0.000448 0.002081 0.000000 0.000000 0.000000
# 2 -0.000448 0.005533 -0.002453 0.000000 0.000000 0.000000
# 3 0.002081 -0.002453 0.008930 0.000000 0.000000 0.000000
# 4 0.000000 0.000000 0.000000 0.016918 0.000000 0.000000
# 5 0.000000 0.000000 0.000000 0.000000 0.087260 0.000000
# 6 0.000000 0.000000 0.000000 0.000000 0.000000 0.041392
#
#
# Mechanical properties :
#
#
# Convention : Reuss Voigt Hill
#
# Bulk Modulus (GPa) = 42.51009 55.46864 48.98936
# Shear Modulus (GPa) = 27.74479 46.00035 36.87257
#
# Velocity S-wave (km/s) = 3.20072 4.12134 3.68985
# Velocity P-wave (km/s) = 5.41813 6.56725 6.02017
#
# Compressibility (1/GPa) = 0.02352383
#
# Stress axis : x y z
#
# Youngs Moduli (GPa) = 93.45474 180.74766 111.97763
#
# Poissons Ratio (x) = 0.08100 -0.23307
# Poissons Ratio (y) = 0.04188 0.27469
# Poissons Ratio (z) = -0.19452 0.44338
#
# Static dielectric constant tensor:
#      x y z
#    x 2.068550 0.000000 0.000000 
#    y 0.000000 2.229970 0.000000 
#    z 0.000000 0.000000 2.088520 
# 
# From -- ./inp_files/9640.got.cif
#   From: 2010.05.17/outbox.cif.g08.bks.cpg/sg52_5_cif.got.tgz:9640.got - 2010.06.03 12:15:38.
