data_PCOD9411562
_publ_section_title
;
Structure prediction by ZEFSAII (Michael W. Deem and Ramdas Pophale) SiO2 
 PCOD9411562
Probable space group: P N N A
;
_chemical_formula_sum "Si O2"
_cell_formula_units_Z 24
_cell_length_a 7.698421
_cell_length_b 8.385329
_cell_length_c 17.347636
_cell_angle_alpha 90.000000
_cell_angle_beta 90.000000
_cell_angle_gamma 90.000000
_cell_volume 1119.855701
_symmetry_space_group_name_H-M "P N N A"
_symmetry_group_IT_number 52
_symmetry_cell_setting 'orthorhombic'
loop_
_space_group_symop_operation_xyz
x,y,z
1/2-x,-y,z
x,1/2-y,1/2-z
1/2-x,1/2+y,1/2-z
-x,-y,-z
1/2+x,y,-z
-x,1/2+y,1/2+z
1/2+x,1/2-y,1/2+z
loop_
_atom_site_type_symbol
_atom_site_label
_atom_site_fract_x
_atom_site_fract_y
_atom_site_fract_z
Si Si1 0.418585 0.685494 0.588265
Si Si2 0.750000 0.000000 0.953930
Si Si3 0.571196 0.908601 0.695459
Si Si4 0.750000 0.000000 0.214860
O O1 0.583065 0.563243 0.591348
O O2 0.320735 0.642049 0.509500
O O3 0.502271 0.851982 0.611794
O O4 0.284355 0.645633 0.656611
O O5 0.590927 0.750000 0.750000
O O6 0.420544 0.012904 0.734139
O O7 0.750000 0.000000 0.691168
#
# Coordination Sequence:
#
# PCOD9411562 Si02
#       4
#     8   4   8   4
#     4   9  19  37  60  88 116 157 208 241 296 353
#     4   9  18  38  64  84 118 167 206 242 280 375
#     4  10  22  38  59  92 122 156 195 254 315 358
#     4   9  20  36  54  88 120 153 192 244 302 353
#
# _framework density 21.431332999999999
#
# number of rings (size 3 to 8) (size 9 to 14) (size 15 to 20)
#    0.000    2.667    0.000    0.000    9.333    4.000 
#   12.000    1.667    0.000    0.000    0.000    0.000 
#    0.000    0.000    0.000    0.000    0.000    0.000 
#
# Total GULP energy -133802.568724 kJ/mol
# GULP energy per Si atom -5575.107030 kJ/mol
# Density = 2.138255 g / cm^3
# Si number density = 21.431333 Si / 1000 Ang^3
#
#
#
# Elastic Constant Matrix: (Units=GPa)
#
#
# Indices 1 2 3 4 5 6 
#
# 1 159.6653 54.3650 43.9238 0.0000 0.0000 0.0000
# 2 54.3650 45.9072 30.4743 0.0000 0.0000 0.0000
# 3 43.9238 30.4743 73.3707 0.0000 0.0000 0.0000
# 4 0.0000 0.0000 0.0000 2.6437 0.0000 0.0000
# 5 0.0000 0.0000 0.0000 0.0000 -33.5395 0.0000
# 6 0.0000 0.0000 0.0000 0.0000 0.0000 37.8967
#
#
#
# Elastic Compliance Matrix: (Units=1/GPa)
#
#
# Indices 1 2 3 4 5 6 
#
# 1 0.010624 -0.011541 -0.001566 0.000000 0.000000 0.000000
# 2 -0.011541 0.042613 -0.010790 0.000000 0.000000 0.000000
# 3 -0.001566 -0.010790 0.019049 0.000000 0.000000 0.000000
# 4 0.000000 0.000000 0.000000 0.378265 0.000000 0.000000
# 5 0.000000 0.000000 0.000000 0.000000 -0.029816 0.000000
# 6 0.000000 0.000000 0.000000 0.000000 0.000000 0.026388
#
#
# Mechanical properties :
#
#
# Convention : Reuss Voigt Hill
#
# Bulk Modulus (GPa) = 40.83218 59.60773 50.21995
# Shear Modulus (GPa) = 9.93875 11.41217 10.67546
#
# Velocity S-wave (km/s) = 2.15582 2.31010 2.23429
# Velocity P-wave (km/s) = 5.02898 5.91516 5.48998
#
# Compressibility (1/GPa) = 0.02449049
#
# Stress axis : x y z
#
# Youngs Moduli (GPa) = 94.12903 23.46679 52.49688
#
# Poissons Ratio (x) = 0.27084 0.08223
# Poissons Ratio (y) = 1.08637 0.56645
# Poissons Ratio (z) = 0.14744 0.25321
#
# Static dielectric constant tensor:
#      x y z
#    x 1.755560 0.000000 0.000000 
#    y 0.000000 1.877940 0.000000 
#    z 0.000000 0.000000 1.819260 
# 
# From -- ./inp_files/30596.got.cif
#   From: 2010.05.17/outbox.cif.g08.bks.cpg/sg52_16_cif.got.tgz:30596.got - 2010.06.03 12:15:38.
