data_PCOD9411076
_publ_section_title
;
Structure prediction by ZEFSAII (Michael W. Deem and Ramdas Pophale) SiO2 
 PCOD9411076
Probable space group: P N N A
;
_chemical_formula_sum "Si O2"
_cell_formula_units_Z 60
_cell_length_a 14.075886
_cell_length_b 11.327873
_cell_length_c 17.298850
_cell_angle_alpha 90.000000
_cell_angle_beta 90.000000
_cell_angle_gamma 90.000000
_cell_volume 2758.299020
_symmetry_space_group_name_H-M "P N N A"
_symmetry_group_IT_number 52
_symmetry_cell_setting 'orthorhombic'
loop_
_space_group_symop_operation_xyz
x,y,z
1/2-x,-y,z
x,1/2-y,1/2-z
1/2-x,1/2+y,1/2-z
-x,-y,-z
1/2+x,y,-z
-x,1/2+y,1/2+z
1/2+x,1/2-y,1/2+z
loop_
_atom_site_type_symbol
_atom_site_label
_atom_site_fract_x
_atom_site_fract_y
_atom_site_fract_z
Si Si1 0.651193 0.299694 0.411437
Si Si2 0.329408 0.592700 0.429805
Si Si3 0.818900 0.683321 0.824915
Si Si4 0.455561 0.564269 0.926107
Si Si5 0.001624 0.975733 0.157804
Si Si6 0.612627 0.576755 0.811006
Si Si7 0.675146 0.250000 0.250000
Si Si8 0.135617 0.997248 0.719098
O O1 0.689078 0.379645 0.480358
O O2 0.618359 0.170863 0.441804
O O3 0.559594 0.373544 0.382308
O O4 0.717777 0.282713 0.334423
O O5 0.250000 0.500000 0.401519
O O6 0.321492 0.719946 0.390621
O O7 0.432506 0.542411 0.404374
O O8 0.858305 0.750000 0.750000
O O9 0.710655 0.644866 0.810922
O O10 0.871788 0.560106 0.835671
O O11 0.541399 0.621080 0.876562
O O12 0.403470 0.472326 0.866379
O O13 0.500000 0.500000 0.000000
O O14 0.071685 0.927433 0.224557
O O15 0.924713 0.053058 0.209182
O O16 0.614805 0.137047 0.272451
O O17 0.250000 0.000000 0.724380
#
# Coordination Sequence:
#
# PCOD9411076 Si02
#       8
#     8   8   8   8   8   8   4   8
#     4  10  22  40  63  88 131 172 219 276 326 409
#     4  12  25  41  63 101 143 172 217 284 353 409
#     4  11  22  39  62  97 139 171 221 274 341 409
#     4  10  21  40  60  89 126 169 226 279 336 391
#     4  10  21  41  64  95 127 170 220 264 341 408
#     4  10  22  39  66  92 124 186 223 270 333 416
#     4   8  18  40  62  86 112 170 218 260 310 392
#     4   9  19  39  65  88 119 165 223 270 313 399
#
# _framework density 21.752538000000001
#
# number of rings (size 3 to 8) (size 9 to 14) (size 15 to 20)
#    0.000    1.867    1.333    2.800    3.733    2.133 
#    7.200    4.000    0.000    0.000    0.000    0.000 
#    0.000    0.000    0.000    0.000    0.000    0.000 
#
# Total GULP energy -334121.165612 kJ/mol
# GULP energy per Si atom -5568.686094 kJ/mol
# Density = 2.170303 g / cm^3
# Si number density = 21.752538 Si / 1000 Ang^3
#
#
#
# Elastic Constant Matrix: (Units=GPa)
#
#
# Indices 1 2 3 4 5 6 
#
# 1 74.4434 5.4251 8.9445 0.0000 0.0000 0.0000
# 2 5.4251 72.6583 15.7253 0.0000 0.0000 0.0000
# 3 8.9445 15.7253 112.4098 0.0000 0.0000 0.0000
# 4 0.0000 0.0000 0.0000 31.6452 0.0000 0.0000
# 5 0.0000 0.0000 0.0000 0.0000 10.9240 0.0000
# 6 0.0000 0.0000 0.0000 0.0000 0.0000 12.3518
#
#
#
# Elastic Compliance Matrix: (Units=1/GPa)
#
#
# Indices 1 2 3 4 5 6 
#
# 1 0.013608 -0.000806 -0.000970 0.000000 0.000000 0.000000
# 2 -0.000806 0.014241 -0.001928 0.000000 0.000000 0.000000
# 3 -0.000970 -0.001928 0.009243 0.000000 0.000000 0.000000
# 4 0.000000 0.000000 0.000000 0.031600 0.000000 0.000000
# 5 0.000000 0.000000 0.000000 0.000000 0.091542 0.000000
# 6 0.000000 0.000000 0.000000 0.000000 0.000000 0.080960
#
#
# Mechanical properties :
#
#
# Convention : Reuss Voigt Hill
#
# Bulk Modulus (GPa) = 33.68885 35.52236 34.60561
# Shear Modulus (GPa) = 19.34264 26.27865 22.81065
#
# Velocity S-wave (km/s) = 2.98520 3.47951 3.24179
# Velocity P-wave (km/s) = 5.23477 5.70160 5.47317
#
# Compressibility (1/GPa) = 0.02968341
#
# Stress axis : x y z
#
# Youngs Moduli (GPa) = 73.48446 70.22216 108.19092
#
# Poissons Ratio (x) = 0.05661 0.10495
# Poissons Ratio (y) = 0.05924 0.20859
# Poissons Ratio (z) = 0.07128 0.13539
#
# Static dielectric constant tensor:
#      x y z
#    x 1.828210 0.000000 0.000000 
#    y 0.000000 1.805030 0.000000 
#    z 0.000000 0.000000 1.912540 
# 
# From -- ./inp_files/33255.got.cif
#   From: 2010.05.17/outbox.cif.g08.bks.cpg/sg52_17_cif.got.tgz:33255.got - 2010.06.03 12:15:38.
