data_PCOD9411398
_publ_section_title
;
Structure prediction by ZEFSAII (Michael W. Deem and Ramdas Pophale) SiO2 
 PCOD9411398
Probable space group: P N N A
;
_chemical_formula_sum "Si O2"
_cell_formula_units_Z 40
_cell_length_a 7.331038
_cell_length_b 14.818407
_cell_length_c 15.511528
_cell_angle_alpha 90.000000
_cell_angle_beta 90.000000
_cell_angle_gamma 90.000000
_cell_volume 1685.084061
_symmetry_space_group_name_H-M "P N N A"
_symmetry_group_IT_number 52
_symmetry_cell_setting 'orthorhombic'
loop_
_space_group_symop_operation_xyz
x,y,z
1/2-x,-y,z
x,1/2-y,1/2-z
1/2-x,1/2+y,1/2-z
-x,-y,-z
1/2+x,y,-z
-x,1/2+y,1/2+z
1/2+x,1/2-y,1/2+z
loop_
_atom_site_type_symbol
_atom_site_label
_atom_site_fract_x
_atom_site_fract_y
_atom_site_fract_z
Si Si1 0.978423 0.436917 0.387763
Si Si2 0.385824 0.375569 0.430681
Si Si3 0.295325 0.898432 0.562685
Si Si4 0.166614 0.675291 0.110366
Si Si5 0.976864 0.151486 0.286549
O O1 0.187983 0.405055 0.397342
O O2 0.975990 0.544009 0.405191
O O3 0.927904 0.415611 0.290601
O O4 0.883705 0.381175 0.465004
O O5 0.414523 0.276639 0.392022
O O6 0.279691 0.836191 0.478511
O O7 0.494542 0.890674 0.604435
O O8 0.145032 0.869189 0.631233
O O9 0.250000 0.000000 0.535341
O O10 0.310068 0.653196 0.185240
O O11 0.935665 0.250000 0.250000
#
# Coordination Sequence:
#
# PCOD9411398 Si02
#       5
#     8   8   8   8   8
#     4  10  22  43  70 104 146 184 241 307 364 444
#     4  10  21  43  71 101 139 192 232 296 387 434
#     4  12  28  49  75 109 146 203 250 307 378 448
#     4  12  24  47  79 102 148 200 246 303 387 435
#     4  12  26  49  72 111 150 189 257 312 357 450
#
# _framework density 23.737687999999999
#
# number of rings (size 3 to 8) (size 9 to 14) (size 15 to 20)
#    0.000    0.800    4.000    3.000    0.000    4.000 
#   14.400    0.000    0.000    0.000    0.000    0.000 
#    0.000    0.000    0.000    0.000    0.000    0.000 
#
# Total GULP energy -224018.731590 kJ/mol
# GULP energy per Si atom -5600.468290 kJ/mol
# Density = 2.368366 g / cm^3
# Si number density = 23.737688 Si / 1000 Ang^3
#
#
#
# Elastic Constant Matrix: (Units=GPa)
#
#
# Indices 1 2 3 4 5 6 
#
# 1 66.2677 8.2950 10.9912 0.0000 0.0000 0.0000
# 2 8.2950 84.3865 22.0884 0.0000 0.0000 0.0000
# 3 10.9912 22.0884 105.6420 0.0000 0.0000 0.0000
# 4 0.0000 0.0000 0.0000 13.8943 0.0000 0.0000
# 5 0.0000 0.0000 0.0000 0.0000 52.0000 0.0000
# 6 0.0000 0.0000 0.0000 0.0000 0.0000 44.2918
#
#
#
# Elastic Compliance Matrix: (Units=1/GPa)
#
#
# Indices 1 2 3 4 5 6 
#
# 1 0.015462 -0.001162 -0.001366 0.000000 0.000000 0.000000
# 2 -0.001162 0.012624 -0.002519 0.000000 0.000000 0.000000
# 3 -0.001366 -0.002519 0.010135 0.000000 0.000000 0.000000
# 4 0.000000 0.000000 0.000000 0.071972 0.000000 0.000000
# 5 0.000000 0.000000 0.000000 0.000000 0.019231 0.000000
# 6 0.000000 0.000000 0.000000 0.000000 0.000000 0.022578
#
#
# Mechanical properties :
#
#
# Convention : Reuss Voigt Hill
#
# Bulk Modulus (GPa) = 35.55252 37.67170 36.61211
# Shear Modulus (GPa) = 29.15958 36.36532 32.76245
#
# Velocity S-wave (km/s) = 3.50867 3.91828 3.71912
# Velocity P-wave (km/s) = 5.60572 6.03117 5.82233
#
# Compressibility (1/GPa) = 0.02812740
#
# Stress axis : x y z
#
# Youngs Moduli (GPa) = 64.67336 79.21583 98.67173
#
# Poissons Ratio (x) = 0.09208 0.13475
# Poissons Ratio (y) = 0.07518 0.24851
# Poissons Ratio (z) = 0.08832 0.19951
#
# Static dielectric constant tensor:
#      x y z
#    x 1.907430 0.000000 0.000000 
#    y 0.000000 1.907130 0.000000 
#    z 0.000000 0.000000 5.929470 
# 
# From -- ./inp_files/24405.got.cif
#   From: 2010.05.17/outbox.cif.g08.bks.cpg/sg52_13_cif.got.tgz:24405.got - 2010.06.03 12:15:38.
