data_PCOD9411224
_publ_section_title
;
Structure prediction by ZEFSAII (Michael W. Deem and Ramdas Pophale) SiO2 
 PCOD9411224
Probable space group: P N N A
;
_chemical_formula_sum "Si O2"
_cell_formula_units_Z 52
_cell_length_a 15.867915
_cell_length_b 9.031467
_cell_length_c 19.913989
_cell_angle_alpha 90.000000
_cell_angle_beta 90.000000
_cell_angle_gamma 90.000000
_cell_volume 2853.884730
_symmetry_space_group_name_H-M "P N N A"
_symmetry_group_IT_number 52
_symmetry_cell_setting 'orthorhombic'
loop_
_space_group_symop_operation_xyz
x,y,z
1/2-x,-y,z
x,1/2-y,1/2-z
1/2-x,1/2+y,1/2-z
-x,-y,-z
1/2+x,y,-z
-x,1/2+y,1/2+z
1/2+x,1/2-y,1/2+z
loop_
_atom_site_type_symbol
_atom_site_label
_atom_site_fract_x
_atom_site_fract_y
_atom_site_fract_z
Si Si1 0.001328 0.882284 0.439998
Si Si2 0.461420 0.595486 0.170876
Si Si3 0.430147 0.572779 0.551582
Si Si4 0.750000 0.500000 0.506156
Si Si5 0.213970 0.142424 0.302497
Si Si6 0.156800 0.817756 0.109919
Si Si7 0.528894 0.054610 0.829428
O O1 0.936974 0.749658 0.453934
O O2 0.086743 0.787760 0.424232
O O3 0.000000 0.000000 0.500000
O O4 0.987118 0.982596 0.374496
O O5 0.361691 0.586103 0.151340
O O6 0.479209 0.768883 0.157679
O O7 0.472338 0.545127 0.248487
O O8 0.500000 0.500000 0.500000
O O9 0.335860 0.526280 0.533837
O O10 0.455940 0.521982 0.626430
O O11 0.774697 0.366415 0.555512
O O12 0.170136 0.250000 0.250000
O O13 0.290505 0.229520 0.334749
O O14 0.250000 0.000000 0.266059
O O15 0.110174 0.963502 0.141303
#
# Coordination Sequence:
#
# PCOD9411224 Si02
#       7
#     8   8   8   4   8   8   8
#     4  11  24  40  61  90 126 166 209 259 307 375
#     4  11  22  37  61  89 123 168 199 258 316 369
#     4  11  23  42  64  89 123 170 213 257 307 374
#     4  12  24  40  66  90 120 170 212 256 312 366
#     4  12  23  33  51  89 129 163 200 245 312 388
#     4  11  24  36  59  89 129 168 203 254 306 385
#     4  10  21  41  62  88 125 170 205 246 316 379
#
# _framework density 18.220777999999999
#
# number of rings (size 3 to 8) (size 9 to 14) (size 15 to 20)
#    0.000    0.923    6.154    2.769    3.231    1.846 
#    0.000    0.000    0.000    3.692    0.000    0.000 
#    0.000    0.000    0.000    0.000    0.000    0.000 
#
# Total GULP energy -289762.856044 kJ/mol
# GULP energy per Si atom -5572.362616 kJ/mol
# Density = 1.817931 g / cm^3
# Si number density = 18.220778 Si / 1000 Ang^3
#
#
#
# Elastic Constant Matrix: (Units=GPa)
#
#
# Indices 1 2 3 4 5 6 
#
# 1 87.7171 29.7783 37.4136 0.0000 0.0000 0.0000
# 2 29.7783 122.9613 52.1186 0.0000 0.0000 0.0000
# 3 37.4136 52.1186 88.4275 0.0000 0.0000 0.0000
# 4 0.0000 0.0000 0.0000 37.9624 0.0000 0.0000
# 5 0.0000 0.0000 0.0000 0.0000 18.4088 0.0000
# 6 0.0000 0.0000 0.0000 0.0000 0.0000 26.9265
#
#
#
# Elastic Compliance Matrix: (Units=1/GPa)
#
#
# Indices 1 2 3 4 5 6 
#
# 1 0.014037 -0.001176 -0.005246 0.000000 0.000000 0.000000
# 2 -0.001176 0.010939 -0.005950 0.000000 0.000000 0.000000
# 3 -0.005246 -0.005950 0.017035 0.000000 0.000000 0.000000
# 4 0.000000 0.000000 0.000000 0.026342 0.000000 0.000000
# 5 0.000000 0.000000 0.000000 0.000000 0.054322 0.000000
# 6 0.000000 0.000000 0.000000 0.000000 0.000000 0.037138
#
#
# Mechanical properties :
#
#
# Convention : Reuss Voigt Hill
#
# Bulk Modulus (GPa) = 57.91153 59.74745 58.82949
# Shear Modulus (GPa) = 26.27245 28.64589 27.45917
#
# Velocity S-wave (km/s) = 3.80135 3.96934 3.88625
# Velocity P-wave (km/s) = 7.14977 7.33959 7.24530
#
# Compressibility (1/GPa) = 0.01726772
#
# Stress axis : x y z
#
# Youngs Moduli (GPa) = 71.24022 91.41235 58.70182
#
# Poissons Ratio (x) = 0.10749 0.30795
# Poissons Ratio (y) = 0.08377 0.34928
# Poissons Ratio (z) = 0.37373 0.54392
#
# Static dielectric constant tensor:
#      x y z
#    x 1.638930 0.000000 0.000000 
#    y 0.000000 1.672550 0.000000 
#    z 0.000000 0.000000 1.651580 
# 
# From -- ./inp_files/37258.got.cif
#   From: 2010.05.17/outbox.cif.g08.bks.cpg/sg52_19_cif.got.tgz:37258.got - 2010.06.03 12:15:38.
