data_PCOD9411245
_publ_section_title
;
Structure prediction by ZEFSAII (Michael W. Deem and Ramdas Pophale) SiO2 
 PCOD9411245
Probable space group: P N N A
;
_chemical_formula_sum "Si O2"
_cell_formula_units_Z 40
_cell_length_a 9.786988
_cell_length_b 22.086205
_cell_length_c 7.556858
_cell_angle_alpha 90.000000
_cell_angle_beta 90.000000
_cell_angle_gamma 90.000000
_cell_volume 1633.470954
_symmetry_space_group_name_H-M "P N N A"
_symmetry_group_IT_number 52
_symmetry_cell_setting 'orthorhombic'
loop_
_space_group_symop_operation_xyz
x,y,z
1/2-x,-y,z
x,1/2-y,1/2-z
1/2-x,1/2+y,1/2-z
-x,-y,-z
1/2+x,y,-z
-x,1/2+y,1/2+z
1/2+x,1/2-y,1/2+z
loop_
_atom_site_type_symbol
_atom_site_label
_atom_site_fract_x
_atom_site_fract_y
_atom_site_fract_z
Si Si1 0.503414 0.428747 0.532126
Si Si2 0.561561 0.758267 0.537027
Si Si3 0.194364 0.168460 0.437888
Si Si4 0.248935 0.851792 0.025556
Si Si5 0.114180 0.458860 0.088813
O O1 0.500000 0.500000 0.500000
O O2 0.354135 0.407604 0.479246
O O3 0.610746 0.379930 0.446710
O O4 0.545615 0.430596 0.736721
O O5 0.553054 0.750000 0.750000
O O6 0.411602 0.777376 0.476010
O O7 0.657196 0.814841 0.490399
O O8 0.648400 0.701989 0.457774
O O9 0.215670 0.166089 0.226456
O O10 0.153255 0.102976 0.512472
O O11 0.250000 0.500000 0.119018
O O12 0.000000 0.500000 0.000000
#
# Coordination Sequence:
#
# PCOD9411245 Si02
#       5
#     8   8   8   8   8
#     4  11  22  41  67  98 135 180 232 286 342 413
#     4  10  21  41  66  94 128 171 218 271 337 407
#     4  10  21  41  65  96 132 169 218 278 337 406
#     4  10  22  40  66  99 134 176 226 284 345 413
#     4  11  24  43  66  97 136 180 227 283 346 411
#
# _framework density 24.487732000000001
#
# number of rings (size 3 to 8) (size 9 to 14) (size 15 to 20)
#    0.000    1.600    0.000    5.400    0.000    4.800 
#    0.000   17.000    0.000    0.000    0.000    0.000 
#    0.000    0.000    0.000    0.000    0.000    0.000 
#
# Total GULP energy -223208.750801 kJ/mol
# GULP energy per Si atom -5580.218770 kJ/mol
# Density = 2.443200 g / cm^3
# Si number density = 24.487732 Si / 1000 Ang^3
#
#
#
# Elastic Constant Matrix: (Units=GPa)
#
#
# Indices 1 2 3 4 5 6 
#
# 1 132.3883 4.1230 23.4306 0.0000 0.0000 0.0000
# 2 4.1230 88.3179 16.9362 0.0000 0.0000 0.0000
# 3 23.4306 16.9362 67.7378 0.0000 0.0000 0.0000
# 4 0.0000 0.0000 0.0000 27.0214 0.0000 0.0000
# 5 0.0000 0.0000 0.0000 0.0000 26.1988 0.0000
# 6 0.0000 0.0000 0.0000 0.0000 0.0000 74.2298
#
#
#
# Elastic Compliance Matrix: (Units=1/GPa)
#
#
# Indices 1 2 3 4 5 6 
#
# 1 0.008048 0.000166 -0.002825 0.000000 0.000000 0.000000
# 2 0.000166 0.011896 -0.003032 0.000000 0.000000 0.000000
# 3 -0.002825 -0.003032 0.016498 0.000000 0.000000 0.000000
# 4 0.000000 0.000000 0.000000 0.037008 0.000000 0.000000
# 5 0.000000 0.000000 0.000000 0.000000 0.038170 0.000000
# 6 0.000000 0.000000 0.000000 0.000000 0.000000 0.013472
#
#
# Mechanical properties :
#
#
# Convention : Reuss Voigt Hill
#
# Bulk Modulus (GPa) = 39.90343 41.93595 40.91969
# Shear Modulus (GPa) = 34.52369 41.75361 38.13865
#
# Velocity S-wave (km/s) = 3.75885 4.13374 3.95075
# Velocity P-wave (km/s) = 5.93037 6.32031 6.12844
#
# Compressibility (1/GPa) = 0.02506050
#
# Stress axis : x y z
#
# Youngs Moduli (GPa) = 124.24784 84.05923 60.61272
#
# Poissons Ratio (x) = -0.01396 0.17126
# Poissons Ratio (y) = -0.02064 0.18377
# Poissons Ratio (z) = 0.35106 0.25486
#
# Static dielectric constant tensor:
#      x y z
#    x 1.929480 0.000000 0.000000 
#    y 0.000000 2.045340 0.000000 
#    z 0.000000 0.000000 2.123840 
# 
# From -- ./inp_files/7402.got.cif
#   From: 2010.05.17/outbox.cif.g08.bks.cpg/sg52_4_cif.got.tgz:7402.got - 2010.06.03 12:15:38.
