data_PCOD9411590
_publ_section_title
;
Structure prediction by ZEFSAII (Michael W. Deem and Ramdas Pophale) SiO2 
 PCOD9411590
Probable space group: P N N A
;
_chemical_formula_sum "Si O2"
_cell_formula_units_Z 48
_cell_length_a 9.403982
_cell_length_b 9.281154
_cell_length_c 28.320129
_cell_angle_alpha 90.000000
_cell_angle_beta 90.000000
_cell_angle_gamma 90.000000
_cell_volume 2471.775341
_symmetry_space_group_name_H-M "P N N A"
_symmetry_group_IT_number 52
_symmetry_cell_setting 'orthorhombic'
loop_
_space_group_symop_operation_xyz
x,y,z
1/2-x,-y,z
x,1/2-y,1/2-z
1/2-x,1/2+y,1/2-z
-x,-y,-z
1/2+x,y,-z
-x,1/2+y,1/2+z
1/2+x,1/2-y,1/2+z
loop_
_atom_site_type_symbol
_atom_site_label
_atom_site_fract_x
_atom_site_fract_y
_atom_site_fract_z
Si Si1 0.984030 0.670326 0.293426
Si Si2 0.741578 0.161584 0.125694
Si Si3 0.829895 0.846027 0.463902
Si Si4 0.992695 0.331933 0.298642
Si Si5 0.328132 0.155283 0.446381
Si Si6 0.765194 0.173165 0.660083
O O1 0.906430 0.750000 0.250000
O O2 0.118522 0.769960 0.303474
O O3 0.894057 0.676418 0.340982
O O4 0.015913 0.501151 0.286330
O O5 0.727474 0.267006 0.082244
O O6 0.869479 0.180318 0.162452
O O7 0.750000 0.000000 0.106478
O O8 0.766414 0.773890 0.511803
O O9 0.003531 0.854813 0.460740
O O10 0.750000 0.000000 0.463048
O O11 0.960478 0.250000 0.250000
O O12 0.124651 0.255069 0.323726
O O13 0.310474 0.216208 0.393492
O O14 0.250000 0.000000 0.441730
O O15 0.750000 0.000000 0.662815
#
# Coordination Sequence:
#
# PCOD9411590 Si02
#       6
#     8   8   8   8   8   8
#     4  11  22  42  63  87 125 160 205 257 306 366
#     4  10  24  42  61  90 127 161 204 253 311 368
#     4  11  22  39  67  93 125 163 207 257 307 363
#     4  11  24  40  63  91 122 166 206 253 309 363
#     4  10  22  38  63  97 126 158 206 257 307 362
#     4  11  23  39  62  92 125 159 208 251 306 367
#
# _framework density 19.419239999999999
#
# number of rings (size 3 to 8) (size 9 to 14) (size 15 to 20)
#    0.000    1.333    1.667    4.500    7.000    1.333 
#    0.000    2.500    0.000    0.000    0.000    0.000 
#    0.000    0.000    0.000    0.000    0.000    0.000 
#
# Total GULP energy -267599.085159 kJ/mol
# GULP energy per Si atom -5574.980941 kJ/mol
# Density = 1.937504 g / cm^3
# Si number density = 19.419240 Si / 1000 Ang^3
#
#
#
# Elastic Constant Matrix: (Units=GPa)
#
#
# Indices 1 2 3 4 5 6 
#
# 1 94.3068 17.5175 4.8482 0.0000 0.0000 0.0000
# 2 17.5175 80.9421 42.8185 0.0000 0.0000 0.0000
# 3 4.8482 42.8185 111.3120 0.0000 0.0000 0.0000
# 4 0.0000 0.0000 0.0000 16.9948 0.0000 0.0000
# 5 0.0000 0.0000 0.0000 0.0000 53.8035 0.0000
# 6 0.0000 0.0000 0.0000 0.0000 0.0000 19.7283
#
#
#
# Elastic Compliance Matrix: (Units=1/GPa)
#
#
# Indices 1 2 3 4 5 6 
#
# 1 0.011075 -0.002689 0.000552 0.000000 0.000000 0.000000
# 2 -0.002689 0.016164 -0.006101 0.000000 0.000000 0.000000
# 3 0.000552 -0.006101 0.011306 0.000000 0.000000 0.000000
# 4 0.000000 0.000000 0.000000 0.058842 0.000000 0.000000
# 5 0.000000 0.000000 0.000000 0.000000 0.018586 0.000000
# 6 0.000000 0.000000 0.000000 0.000000 0.000000 0.050688
#
#
# Mechanical properties :
#
#
# Convention : Reuss Voigt Hill
#
# Bulk Modulus (GPa) = 45.31039 46.32547 45.81793
# Shear Modulus (GPa) = 26.24775 32.86377 29.55576
#
# Velocity S-wave (km/s) = 3.68045 4.11826 3.90549
# Velocity P-wave (km/s) = 6.43773 6.82060 6.63193
#
# Compressibility (1/GPa) = 0.02206999
#
# Stress axis : x y z
#
# Youngs Moduli (GPa) = 90.29539 61.86727 88.44525
#
# Poissons Ratio (x) = 0.16635 -0.04882
# Poissons Ratio (y) = 0.24278 0.53957
# Poissons Ratio (z) = -0.04984 0.37743
#
# Static dielectric constant tensor:
#      x y z
#    x -5.155900 0.000000 0.000000 
#    y 0.000000 1.683350 0.000000 
#    z 0.000000 0.000000 1.657230 
# 
# From -- ./inp_files/44332.got.cif
#   From: 2010.05.17/outbox.cif.g08.bks.cpg/sg52_23_cif.got.tgz:44332.got - 2010.06.03 12:15:38.
