data_PCOD9411668
_publ_section_title
;
Structure prediction by ZEFSAII (Michael W. Deem and Ramdas Pophale) SiO2 
 PCOD9411668
Probable space group: P N N A
;
_chemical_formula_sum "Si O2"
_cell_formula_units_Z 40
_cell_length_a 19.017475
_cell_length_b 10.246461
_cell_length_c 10.633482
_cell_angle_alpha 90.000000
_cell_angle_beta 90.000000
_cell_angle_gamma 90.000000
_cell_volume 2072.059612
_symmetry_space_group_name_H-M "P N N A"
_symmetry_group_IT_number 52
_symmetry_cell_setting 'orthorhombic'
loop_
_space_group_symop_operation_xyz
x,y,z
1/2-x,-y,z
x,1/2-y,1/2-z
1/2-x,1/2+y,1/2-z
-x,-y,-z
1/2+x,y,-z
-x,1/2+y,1/2+z
1/2+x,1/2-y,1/2+z
loop_
_atom_site_type_symbol
_atom_site_label
_atom_site_fract_x
_atom_site_fract_y
_atom_site_fract_z
Si Si1 0.315687 0.750000 0.750000
Si Si2 0.442395 0.231548 0.102032
Si Si3 0.090457 0.286104 0.501661
Si Si4 0.373506 0.004255 0.434792
Si Si5 0.250000 0.500000 0.865237
Si Si6 0.167933 0.511779 0.354687
O O1 0.364704 0.717440 0.630646
O O2 0.268125 0.625918 0.783270
O O3 0.458870 0.250000 0.250000
O O4 0.510551 0.175802 0.033029
O O5 0.426671 0.375998 0.052277
O O6 0.373719 0.139059 0.094086
O O7 0.093759 0.139075 0.448336
O O8 0.127084 0.386576 0.407660
O O9 0.315710 0.021070 0.542630
O O10 0.339353 0.016628 0.296410
O O11 0.250000 0.500000 0.388886
#
# Coordination Sequence:
#
# PCOD9411668 Si02
#       6
#     4   8   8   8   4   8
#     4  10  24  38  62  86 124 164 200 242 310 362
#     4  10  22  40  60  89 124 161 201 252 309 363
#     4  11  22  41  62  87 125 161 205 250 302 370
#     4  10  22  39  66  88 123 159 205 252 310 359
#     4  10  22  40  60  92 124 154 204 252 302 366
#     4  11  24  38  65  95 122 158 207 257 308 357
#
# _framework density 19.304462999999998
#
# number of rings (size 3 to 8) (size 9 to 14) (size 15 to 20)
#    0.000    1.600    2.000    1.800    7.000    1.600 
#    0.000    0.000    0.000    0.000    0.000    0.000 
#    0.000    0.000    0.000    0.000    0.000    0.000 
#
# Total GULP energy -223455.067513 kJ/mol
# GULP energy per Si atom -5586.376688 kJ/mol
# Density = 1.926052 g / cm^3
# Si number density = 19.304463 Si / 1000 Ang^3
#
#
#
# Elastic Constant Matrix: (Units=GPa)
#
#
# Indices 1 2 3 4 5 6 
#
# 1 131.2370 57.5226 25.7209 0.0000 0.0000 0.0000
# 2 57.5226 133.2936 44.4470 0.0000 0.0000 0.0000
# 3 25.7209 44.4470 41.3133 0.0000 0.0000 0.0000
# 4 0.0000 0.0000 0.0000 32.6124 0.0000 0.0000
# 5 0.0000 0.0000 0.0000 0.0000 7.9495 0.0000
# 6 0.0000 0.0000 0.0000 0.0000 0.0000 19.3705
#
#
#
# Elastic Compliance Matrix: (Units=1/GPa)
#
#
# Indices 1 2 3 4 5 6 
#
# 1 0.009542 -0.003332 -0.002356 0.000000 0.000000 0.000000
# 2 -0.003332 0.012863 -0.011764 0.000000 0.000000 0.000000
# 3 -0.002356 -0.011764 0.038328 0.000000 0.000000 0.000000
# 4 0.000000 0.000000 0.000000 0.030663 0.000000 0.000000
# 5 0.000000 0.000000 0.000000 0.000000 0.125795 0.000000
# 6 0.000000 0.000000 0.000000 0.000000 0.000000 0.051625
#
#
# Mechanical properties :
#
#
# Convention : Reuss Voigt Hill
#
# Bulk Modulus (GPa) = 38.71575 62.35832 50.53704
# Shear Modulus (GPa) = 16.00871 23.86335 19.93603
#
# Velocity S-wave (km/s) = 2.88284 3.51972 3.21708
# Velocity P-wave (km/s) = 5.58389 6.99218 6.32734
#
# Compressibility (1/GPa) = 0.02582928
#
# Stress axis : x y z
#
# Youngs Moduli (GPa) = 104.79875 77.74196 26.09049
#
# Poissons Ratio (x) = 0.25907 0.06146
# Poissons Ratio (y) = 0.34923 0.30693
# Poissons Ratio (z) = 0.24686 0.91456
#
# Static dielectric constant tensor:
#      x y z
#    x 1.661280 0.000000 0.000000 
#    y 0.000000 1.667230 0.000000 
#    z 0.000000 0.000000 1.648430 
# 
# From -- ./inp_files/20390.got.cif
#   From: 2010.05.17/outbox.cif.g08.bks.cpg/sg52_11_cif.got.tgz:20390.got - 2010.06.03 12:15:38.
