data_PCOD9411980
_publ_section_title
;
Structure prediction by ZEFSAII (Michael W. Deem and Ramdas Pophale) SiO2 
 PCOD9411980
Probable space group: P N N A
;
_chemical_formula_sum "Si O2"
_cell_formula_units_Z 32
_cell_length_a 8.228093
_cell_length_b 11.435925
_cell_length_c 14.352489
_cell_angle_alpha 90.000000
_cell_angle_beta 90.000000
_cell_angle_gamma 90.000000
_cell_volume 1350.509716
_symmetry_space_group_name_H-M "P N N A"
_symmetry_group_IT_number 52
_symmetry_cell_setting 'orthorhombic'
loop_
_space_group_symop_operation_xyz
x,y,z
1/2-x,-y,z
x,1/2-y,1/2-z
1/2-x,1/2+y,1/2-z
-x,-y,-z
1/2+x,y,-z
-x,1/2+y,1/2+z
1/2+x,1/2-y,1/2+z
loop_
_atom_site_type_symbol
_atom_site_label
_atom_site_fract_x
_atom_site_fract_y
_atom_site_fract_z
Si Si1 0.750000 0.500000 0.725034
Si Si2 0.827532 0.319596 0.345251
Si Si3 0.750000 0.500000 0.041343
Si Si4 0.937334 0.876912 0.611471
Si Si5 0.473847 0.944295 0.898455
O O1 0.845166 0.587404 0.794547
O O2 0.639796 0.578379 0.655984
O O3 0.794619 0.250000 0.250000
O O4 0.656763 0.340317 0.397554
O O5 0.898160 0.449438 0.337868
O O6 0.972648 0.253563 0.108311
O O7 0.591538 0.535661 0.098499
O O8 0.810785 0.601686 0.971820
O O9 0.500000 0.000000 0.000000
#
# Coordination Sequence:
#
# PCOD9411980 Si02
#       5
#     4   8   4   8   8
#     4  11  22  44  69 102 146 190 253 318 370 457
#     4  11  24  45  71 101 141 197 251 304 380 465
#     4   9  22  42  67 102 144 180 235 322 366 455
#     4  10  22  42  69 103 140 185 246 304 382 450
#     4  11  26  48  70 107 154 197 252 324 386 468
#
# _framework density 23.694759000000001
#
# number of rings (size 3 to 8) (size 9 to 14) (size 15 to 20)
#    0.000    1.500    2.500    1.500    7.000    0.000 
#    4.500    0.000    0.000    0.000    0.000    0.000 
#    0.000    0.000    0.000    0.000    0.000    0.000 
#
# Total GULP energy -178717.818528 kJ/mol
# GULP energy per Si atom -5584.931829 kJ/mol
# Density = 2.364083 g / cm^3
# Si number density = 23.694759 Si / 1000 Ang^3
#
#
#
# Elastic Constant Matrix: (Units=GPa)
#
#
# Indices 1 2 3 4 5 6 
#
# 1 145.1888 32.4693 75.2359 0.0000 0.0000 0.0000
# 2 32.4693 80.6681 35.8238 0.0000 0.0000 0.0000
# 3 75.2359 35.8238 137.8100 0.0000 0.0000 0.0000
# 4 0.0000 0.0000 0.0000 22.8265 0.0000 0.0000
# 5 0.0000 0.0000 0.0000 0.0000 17.8866 0.0000
# 6 0.0000 0.0000 0.0000 0.0000 0.0000 57.5098
#
#
#
# Elastic Compliance Matrix: (Units=1/GPa)
#
#
# Indices 1 2 3 4 5 6 
#
# 1 0.009825 -0.001778 -0.004902 0.000000 0.000000 0.000000
# 2 -0.001778 0.014336 -0.002756 0.000000 0.000000 0.000000
# 3 -0.004902 -0.002756 0.010649 0.000000 0.000000 0.000000
# 4 0.000000 0.000000 0.000000 0.043809 0.000000 0.000000
# 5 0.000000 0.000000 0.000000 0.000000 0.055908 0.000000
# 6 0.000000 0.000000 0.000000 0.000000 0.000000 0.017388
#
#
# Mechanical properties :
#
#
# Convention : Reuss Voigt Hill
#
# Bulk Modulus (GPa) = 62.74048 72.30277 67.52162
# Shear Modulus (GPa) = 28.39304 34.32043 31.35674
#
# Velocity S-wave (km/s) = 3.46538 3.80997 3.64175
# Velocity P-wave (km/s) = 6.52288 7.06647 6.80011
#
# Compressibility (1/GPa) = 0.01593867
#
# Stress axis : x y z
#
# Youngs Moduli (GPa) = 101.77827 69.75448 93.90627
#
# Poissons Ratio (x) = 0.12401 0.46031
# Poissons Ratio (y) = 0.18095 0.25881
# Poissons Ratio (z) = 0.49890 0.19225
#
# Static dielectric constant tensor:
#      x y z
#    x 1.993270 0.000000 0.000000 
#    y 0.000000 1.926280 0.000000 
#    z 0.000000 0.000000 1.925770 
# 
# From -- ./inp_files/24272.got.cif
#   From: 2010.05.17/outbox.cif.g08.bks.cpg/sg52_13_cif.got.tgz:24272.got - 2010.06.03 12:15:38.
