data_PCOD9411826
_publ_section_title
;
Structure prediction by ZEFSAII (Michael W. Deem and Ramdas Pophale) SiO2 
 PCOD9411826
Probable space group: P N N A
;
_chemical_formula_sum "Si O2"
_cell_formula_units_Z 28
_cell_length_a 18.908712
_cell_length_b 5.007701
_cell_length_c 13.835912
_cell_angle_alpha 90.000000
_cell_angle_beta 90.000000
_cell_angle_gamma 90.000000
_cell_volume 1310.111106
_symmetry_space_group_name_H-M "P N N A"
_symmetry_group_IT_number 52
_symmetry_cell_setting 'orthorhombic'
loop_
_space_group_symop_operation_xyz
x,y,z
1/2-x,-y,z
x,1/2-y,1/2-z
1/2-x,1/2+y,1/2-z
-x,-y,-z
1/2+x,y,-z
-x,1/2+y,1/2+z
1/2+x,1/2-y,1/2+z
loop_
_atom_site_type_symbol
_atom_site_label
_atom_site_fract_x
_atom_site_fract_y
_atom_site_fract_z
Si Si1 0.072933 0.484823 0.314659
Si Si2 0.327859 0.938161 0.626290
Si Si3 0.063248 0.750000 0.750000
Si Si4 0.171556 0.937817 0.005107
O O1 0.073566 0.750000 0.250000
O O2 0.112749 0.517165 0.414645
O O3 0.991619 0.387302 0.324722
O O4 0.107244 0.250000 0.250000
O O5 0.388159 0.033800 0.698185
O O6 0.331731 0.138080 0.534618
O O7 0.250000 0.000000 0.668973
O O8 0.335086 0.640313 0.585777
O O9 0.250000 0.000000 0.045213
#
# Coordination Sequence:
#
# PCOD9411826 Si02
#       4
#     8   8   4   8
#     4  10  23  40  59  94 122 162 202 248 314 360
#     4  10  23  40  63  89 120 162 204 258 308 362
#     4  10  26  40  62  92 130 154 210 246 314 372
#     4  10  22  41  63  90 121 161 210 252 305 364
#
# _framework density 21.372236000000001
#
# number of rings (size 3 to 8) (size 9 to 14) (size 15 to 20)
#    0.857    1.143    0.000    1.714    4.000    6.857 
#    0.000    0.000    0.000    0.000    0.000    0.000 
#    0.000    0.000    0.000    0.000    0.000    0.000 
#
# Total GULP energy -156490.107580 kJ/mol
# GULP energy per Si atom -5588.932414 kJ/mol
# Density = 2.132359 g / cm^3
# Si number density = 21.372236 Si / 1000 Ang^3
#
#
#
# Elastic Constant Matrix: (Units=GPa)
#
#
# Indices 1 2 3 4 5 6 
#
# 1 152.5748 5.3309 60.4205 0.0000 0.0000 0.0000
# 2 5.3309 88.4477 5.2450 0.0000 0.0000 0.0000
# 3 60.4205 5.2450 57.2329 0.0000 0.0000 0.0000
# 4 0.0000 0.0000 0.0000 30.0331 0.0000 0.0000
# 5 0.0000 0.0000 0.0000 0.0000 57.2443 0.0000
# 6 0.0000 0.0000 0.0000 0.0000 0.0000 -5.5018
#
#
#
# Elastic Compliance Matrix: (Units=1/GPa)
#
#
# Indices 1 2 3 4 5 6 
#
# 1 0.011263 0.000026 -0.011892 0.000000 0.000000 0.000000
# 2 0.000026 0.011368 -0.001070 0.000000 0.000000 0.000000
# 3 -0.011892 -0.001070 0.030125 0.000000 0.000000 0.000000
# 4 0.000000 0.000000 0.000000 0.033297 0.000000 0.000000
# 5 0.000000 0.000000 0.000000 0.000000 0.017469 0.000000
# 6 0.000000 0.000000 0.000000 0.000000 0.000000 -0.181757
#
#
# Mechanical properties :
#
#
# Convention : Reuss Voigt Hill
#
# Bulk Modulus (GPa) = 37.19606 48.91648 43.05627
# Shear Modulus (GPa) = -115.19909 31.50572 -41.84669
#
# Velocity S-wave (km/s) = -7.34971 3.84362 -4.42972
# Velocity P-wave (km/s) = 7.38801 6.52958 2.44410
#
# Compressibility (1/GPa) = 0.02688457
#
# Stress axis : x y z
#
# Youngs Moduli (GPa) = 88.78867 87.96652 33.19472
#
# Poissons Ratio (x) = -0.00232 0.39477
# Poissons Ratio (y) = -0.00234 0.03551
# Poissons Ratio (z) = 1.05591 0.09410
#
# Static dielectric constant tensor:
#      x y z
#    x 1.778580 0.000000 0.000000 
#    y 0.000000 1.752720 0.000000 
#    z 0.000000 0.000000 1.731650 
# 
# From -- ./inp_files/28395.got.cif
#   From: 2010.05.17/outbox.cif.g08.bks.cpg/sg52_15_cif.got.tgz:28395.got - 2010.06.03 12:15:38.
