data_PCOD9411509
_publ_section_title
;
Structure prediction by ZEFSAII (Michael W. Deem and Ramdas Pophale) SiO2 
 PCOD9411509
Probable space group: P N N A
;
_chemical_formula_sum "Si O2"
_cell_formula_units_Z 56
_cell_length_a 15.182645
_cell_length_b 15.232712
_cell_length_c 12.187794
_cell_angle_alpha 90.000000
_cell_angle_beta 90.000000
_cell_angle_gamma 90.000000
_cell_volume 2818.705959
_symmetry_space_group_name_H-M "P N N A"
_symmetry_group_IT_number 52
_symmetry_cell_setting 'orthorhombic'
loop_
_space_group_symop_operation_xyz
x,y,z
1/2-x,-y,z
x,1/2-y,1/2-z
1/2-x,1/2+y,1/2-z
-x,-y,-z
1/2+x,y,-z
-x,1/2+y,1/2+z
1/2+x,1/2-y,1/2+z
loop_
_atom_site_type_symbol
_atom_site_label
_atom_site_fract_x
_atom_site_fract_y
_atom_site_fract_z
Si Si1 0.748827 0.722403 0.981285
Si Si2 0.569953 0.124512 0.497331
Si Si3 0.826382 0.343400 0.209365
Si Si4 0.571209 0.751603 0.621730
Si Si5 0.470246 0.486900 0.822526
Si Si6 0.289134 0.903112 0.907487
Si Si7 0.496164 0.569140 0.597720
O O1 0.671852 0.716800 0.891195
O O2 0.843842 0.677743 0.966044
O O3 0.708545 0.673381 0.087748
O O4 0.762298 0.825176 0.009898
O O5 0.492838 0.188479 0.452462
O O6 0.535932 0.063590 0.596068
O O7 0.581818 0.059459 0.393820
O O8 0.862363 0.250000 0.250000
O O9 0.900149 0.416316 0.217545
O O10 0.749296 0.372588 0.290657
O O11 0.544494 0.750000 0.750000
O O12 0.557576 0.652828 0.578412
O O13 0.516647 0.528560 0.716976
O O14 0.394048 0.903149 0.898375
O O15 0.250000 0.000000 0.933452
O O16 0.500000 0.500000 0.500000
#
# Coordination Sequence:
#
# PCOD9411509 Si02
#       7
#     8   8   8   8   8   8   8
#     4  11  24  43  66  99 133 177 227 281 341 406
#     4  11  24  44  72  98 132 186 233 281 341 412
#     4  10  22  36  66  98 128 161 223 294 338 387
#     4  12  25  46  68  98 142 187 229 279 354 425
#     4  11  23  44  68 104 133 173 236 289 339 416
#     4  11  21  38  66 100 129 171 230 280 342 405
#     4  12  25  41  69 102 139 180 219 291 355 413
#
# _framework density 19.867272
#
# number of rings (size 3 to 8) (size 9 to 14) (size 15 to 20)
#    0.000    0.857    5.714    1.714    2.000    0.000 
#    2.571    0.000    0.000    0.000    0.000    0.000 
#    0.000    0.000    0.000    0.000    0.000    0.000 
#
# Total GULP energy -312891.967950 kJ/mol
# GULP energy per Si atom -5587.356571 kJ/mol
# Density = 1.982205 g / cm^3
# Si number density = 19.867272 Si / 1000 Ang^3
#
#
#
# Elastic Constant Matrix: (Units=GPa)
#
#
# Indices 1 2 3 4 5 6 
#
# 1 93.5157 36.5522 13.9796 0.0000 0.0000 0.0000
# 2 36.5522 101.8581 7.8957 0.0000 0.0000 0.0000
# 3 13.9796 7.8957 30.9390 0.0000 0.0000 0.0000
# 4 0.0000 0.0000 0.0000 14.1724 0.0000 0.0000
# 5 0.0000 0.0000 0.0000 0.0000 21.7429 0.0000
# 6 0.0000 0.0000 0.0000 0.0000 0.0000 35.5550
#
#
#
# Elastic Compliance Matrix: (Units=1/GPa)
#
#
# Indices 1 2 3 4 5 6 
#
# 1 0.013106 -0.004330 -0.004817 0.000000 0.000000 0.000000
# 2 -0.004330 0.011446 -0.000965 0.000000 0.000000 0.000000
# 3 -0.004817 -0.000965 0.034744 0.000000 0.000000 0.000000
# 4 0.000000 0.000000 0.000000 0.070560 0.000000 0.000000
# 5 0.000000 0.000000 0.000000 0.000000 0.045992 0.000000
# 6 0.000000 0.000000 0.000000 0.000000 0.000000 0.028125
#
#
# Mechanical properties :
#
#
# Convention : Reuss Voigt Hill
#
# Bulk Modulus (GPa) = 25.59267 38.12976 31.86121
# Shear Modulus (GPa) = 21.07745 25.48641 23.28193
#
# Velocity S-wave (km/s) = 3.26070 3.58555 3.42698
# Velocity P-wave (km/s) = 5.20442 6.03121 5.63301
#
# Compressibility (1/GPa) = 0.03907369
#
# Stress axis : x y z
#
# Youngs Moduli (GPa) = 76.30218 87.36612 28.78172
#
# Poissons Ratio (x) = 0.37827 0.13864
# Poissons Ratio (y) = 0.33036 0.02777
# Poissons Ratio (z) = 0.36753 0.08429
#
# Static dielectric constant tensor:
#      x y z
#    x 1.781270 0.000000 0.000000 
#    y 0.000000 1.712000 0.000000 
#    z 0.000000 0.000000 1.714630 
# 
# From -- ./inp_files/19606.got.cif
#   From: 2010.05.17/outbox.cif.g08.bks.cpg/sg52_10_cif.got.tgz:19606.got - 2010.06.03 12:15:38.
