data_PCOD9411089
_publ_section_title
;
Structure prediction by ZEFSAII (Michael W. Deem and Ramdas Pophale) SiO2 
 PCOD9411089
Probable space group: P N N A
;
_chemical_formula_sum "Si O2"
_cell_formula_units_Z 32
_cell_length_a 9.288680
_cell_length_b 5.319603
_cell_length_c 27.144337
_cell_angle_alpha 90.000000
_cell_angle_beta 90.000000
_cell_angle_gamma 90.000000
_cell_volume 1341.258423
_symmetry_space_group_name_H-M "P N N A"
_symmetry_group_IT_number 52
_symmetry_cell_setting 'orthorhombic'
loop_
_space_group_symop_operation_xyz
x,y,z
1/2-x,-y,z
x,1/2-y,1/2-z
1/2-x,1/2+y,1/2-z
-x,-y,-z
1/2+x,y,-z
-x,1/2+y,1/2+z
1/2+x,1/2-y,1/2+z
loop_
_atom_site_type_symbol
_atom_site_label
_atom_site_fract_x
_atom_site_fract_y
_atom_site_fract_z
Si Si1 0.394919 0.140067 0.924787
Si Si2 0.848743 0.749441 0.193465
Si Si3 0.409902 0.482957 0.127820
Si Si4 0.623476 0.707381 0.527568
O O1 0.492539 0.268884 0.883199
O O2 0.250000 0.000000 0.908534
O O3 0.478741 0.931383 0.955502
O O4 0.369794 0.320622 0.972543
O O5 0.750000 0.500000 0.186351
O O6 0.902690 0.750000 0.250000
O O7 0.983803 0.706870 0.156835
O O8 0.750000 0.000000 0.189978
O O9 0.250000 0.500000 0.151998
O O10 0.373599 0.395716 0.072801
O O11 0.750000 0.500000 0.531912
#
# Coordination Sequence:
#
# PCOD9411089 Si02
#       4
#     8   8   8   8
#     4  10  23  40  63  98 143 204 245 291 345 434
#     4  10  26  52  79 108 144 186 242 311 379 453
#     4  12  25  41  72 108 143 188 242 307 366 438
#     4  10  21  40  61  95 151 194 243 292 360 417
#
# _framework density 23.858188999999999
#
# number of rings (size 3 to 8) (size 9 to 14) (size 15 to 20)
#    0.000    1.500    2.500    0.750    7.000    0.000 
#    0.000    5.000    0.000    0.000    0.000    0.000 
#    0.000    0.000    0.000    0.000    0.000    0.000 
#
# Total GULP energy -178365.233636 kJ/mol
# GULP energy per Si atom -5573.913551 kJ/mol
# Density = 2.380389 g / cm^3
# Si number density = 23.858189 Si / 1000 Ang^3
#
#
#
# Elastic Constant Matrix: (Units=GPa)
#
#
# Indices 1 2 3 4 5 6 
#
# 1 204.3172 75.8035 57.7015 0.0000 0.0000 0.0000
# 2 75.8035 120.3069 29.5178 0.0000 0.0000 0.0000
# 3 57.7015 29.5178 121.4317 0.0000 0.0000 0.0000
# 4 0.0000 0.0000 0.0000 18.6538 0.0000 0.0000
# 5 0.0000 0.0000 0.0000 0.0000 -16.9316 0.0000
# 6 0.0000 0.0000 0.0000 0.0000 0.0000 48.4723
#
#
#
# Elastic Compliance Matrix: (Units=1/GPa)
#
#
# Indices 1 2 3 4 5 6 
#
# 1 0.006985 -0.003814 -0.002392 0.000000 0.000000 0.000000
# 2 -0.003814 0.010922 -0.000843 0.000000 0.000000 0.000000
# 3 -0.002392 -0.000843 0.009576 0.000000 0.000000 0.000000
# 4 0.000000 0.000000 0.000000 0.053608 0.000000 0.000000
# 5 0.000000 0.000000 0.000000 0.000000 -0.059061 0.000000
# 6 0.000000 0.000000 0.000000 0.000000 0.000000 0.020630
#
#
# Mechanical properties :
#
#
# Convention : Reuss Voigt Hill
#
# Bulk Modulus (GPa) = 74.70405 85.78904 80.24655
# Shear Modulus (GPa) = 81.67200 28.90778 55.28989
#
# Velocity S-wave (km/s) = 5.85718 3.48465 4.81920
# Velocity P-wave (km/s) = 8.78190 7.22678 8.04202
#
# Compressibility (1/GPa) = 0.01338615
#
# Stress axis : x y z
#
# Youngs Moduli (GPa) = 143.16427 91.55751 104.42269
#
# Poissons Ratio (x) = 0.34922 0.24977
# Poissons Ratio (y) = 0.54607 0.08798
# Poissons Ratio (z) = 0.34244 0.07714
#
# Static dielectric constant tensor:
#      x y z
#    x 2.176360 0.000000 0.000000 
#    y 0.000000 4.062010 0.000000 
#    z 0.000000 0.000000 2.019450 
# 
# From -- ./inp_files/44017.got.cif
#   From: 2010.05.17/outbox.cif.g08.bks.cpg/sg52_23_cif.got.tgz:44017.got - 2010.06.03 12:15:38.
