data_PCOD9411758
_publ_section_title
;
Structure prediction by ZEFSAII (Michael W. Deem and Ramdas Pophale) SiO2 
 PCOD9411758
Probable space group: P N N A
;
_chemical_formula_sum "Si O2"
_cell_formula_units_Z 64
_cell_length_a 14.578076
_cell_length_b 22.262410
_cell_length_c 9.242274
_cell_angle_alpha 90.000000
_cell_angle_beta 90.000000
_cell_angle_gamma 90.000000
_cell_volume 2999.516301
_symmetry_space_group_name_H-M "P N N A"
_symmetry_group_IT_number 52
_symmetry_cell_setting 'orthorhombic'
loop_
_space_group_symop_operation_xyz
x,y,z
1/2-x,-y,z
x,1/2-y,1/2-z
1/2-x,1/2+y,1/2-z
-x,-y,-z
1/2+x,y,-z
-x,1/2+y,1/2+z
1/2+x,1/2-y,1/2+z
loop_
_atom_site_type_symbol
_atom_site_label
_atom_site_fract_x
_atom_site_fract_y
_atom_site_fract_z
Si Si1 0.668455 0.273708 0.587593
Si Si2 0.584312 0.899602 0.635928
Si Si3 0.218816 0.067467 0.866026
Si Si4 0.181505 0.635572 0.401932
Si Si5 0.521472 0.678947 0.418138
Si Si6 0.116722 0.896414 0.697503
Si Si7 0.533566 0.215567 0.402369
Si Si8 0.028451 0.483850 0.663715
O O1 0.664392 0.250000 0.750000
O O2 0.765630 0.303333 0.559993
O O3 0.588827 0.325249 0.577785
O O4 0.633296 0.223870 0.475202
O O5 0.665512 0.871749 0.732995
O O6 0.615604 0.908274 0.472289
O O7 0.503674 0.850338 0.621584
O O8 0.547671 0.956275 0.728389
O O9 0.279777 0.108101 0.759216
O O10 0.110682 0.064959 0.846908
O O11 0.250000 0.000000 0.834286
O O12 0.257464 0.084473 0.023893
O O13 0.081047 0.637790 0.474367
O O14 0.560514 0.660496 0.262030
O O15 0.529749 0.746045 0.485154
O O16 0.067256 0.954500 0.768340
O O17 0.531644 0.250000 0.250000
O O18 0.000000 0.500000 0.500000
#
# Coordination Sequence:
#
# PCOD9411758 Si02
#       8
#     8   8   8   8   8   8   8   8
#     4  10  23  39  61  92 128 170 213 267 328 389
#     4  12  23  41  67 100 129 177 221 281 343 390
#     4   9  21  43  62  92 126 168 213 270 322 399
#     4  11  23  39  67  93 128 167 227 265 326 403
#     4   9  21  43  63  90 128 177 211 269 332 397
#     4  10  22  43  65  96 137 166 219 278 342 402
#     4  10  22  40  66  90 133 168 223 268 323 403
#     4  11  24  42  73  94 131 178 224 274 341 413
#
# _framework density 21.336773000000001
#
# number of rings (size 3 to 8) (size 9 to 14) (size 15 to 20)
#    0.750    1.000    1.250    3.375    7.000    0.000 
#    4.500    6.250    0.000    0.000    0.000    0.000 
#    0.000    0.000    0.000    0.000    0.000    0.000 
#
# Total GULP energy -356739.169731 kJ/mol
# GULP energy per Si atom -5574.049527 kJ/mol
# Density = 2.128821 g / cm^3
# Si number density = 21.336773 Si / 1000 Ang^3
#
#
#
# Elastic Constant Matrix: (Units=GPa)
#
#
# Indices 1 2 3 4 5 6 
#
# 1 77.0556 8.8226 31.0220 0.0000 0.0000 0.0000
# 2 8.8226 38.1659 28.1574 0.0000 0.0000 0.0000
# 3 31.0220 28.1574 159.9569 0.0000 0.0000 0.0000
# 4 0.0000 0.0000 0.0000 37.1546 0.0000 0.0000
# 5 0.0000 0.0000 0.0000 0.0000 13.9842 0.0000
# 6 0.0000 0.0000 0.0000 0.0000 0.0000 13.2379
#
#
#
# Elastic Compliance Matrix: (Units=1/GPa)
#
#
# Indices 1 2 3 4 5 6 
#
# 1 0.014144 -0.001432 -0.002491 0.000000 0.000000 0.000000
# 2 -0.001432 0.030257 -0.005048 0.000000 0.000000 0.000000
# 3 -0.002491 -0.005048 0.007624 0.000000 0.000000 0.000000
# 4 0.000000 0.000000 0.000000 0.026915 0.000000 0.000000
# 5 0.000000 0.000000 0.000000 0.000000 0.071509 0.000000
# 6 0.000000 0.000000 0.000000 0.000000 0.000000 0.075541
#
#
# Mechanical properties :
#
#
# Convention : Reuss Voigt Hill
#
# Bulk Modulus (GPa) = 29.34092 45.68691 37.51391
# Shear Modulus (GPa) = 19.58531 26.68710 23.13620
#
# Velocity S-wave (km/s) = 3.03300 3.54044 3.29650
# Velocity P-wave (km/s) = 5.10359 6.17833 5.66649
#
# Compressibility (1/GPa) = 0.03408210
#
# Stress axis : x y z
#
# Youngs Moduli (GPa) = 70.69894 33.05022 131.17334
#
# Poissons Ratio (x) = 0.04732 0.32677
# Poissons Ratio (y) = 0.10123 0.66223
# Poissons Ratio (z) = 0.17612 0.16685
#
# Static dielectric constant tensor:
#      x y z
#    x 1.798930 0.000000 0.000000 
#    y 0.000000 1.805430 0.000000 
#    z 0.000000 0.000000 1.776210 
# 
# From -- ./inp_files/11031.got.cif
#   From: 2010.05.17/outbox.cif.g08.bks.cpg/sg52_6_cif.got.tgz:11031.got - 2010.06.03 12:15:38.
