data_PCOD9411889
_publ_section_title
;
Structure prediction by ZEFSAII (Michael W. Deem and Ramdas Pophale) SiO2 
 PCOD9411889
Probable space group: P N N A
;
_chemical_formula_sum "Si O2"
_cell_formula_units_Z 40
_cell_length_a 5.401758
_cell_length_b 24.374637
_cell_length_c 11.587707
_cell_angle_alpha 90.000000
_cell_angle_beta 90.000000
_cell_angle_gamma 90.000000
_cell_volume 1525.705760
_symmetry_space_group_name_H-M "P N N A"
_symmetry_group_IT_number 52
_symmetry_cell_setting 'orthorhombic'
loop_
_space_group_symop_operation_xyz
x,y,z
1/2-x,-y,z
x,1/2-y,1/2-z
1/2-x,1/2+y,1/2-z
-x,-y,-z
1/2+x,y,-z
-x,1/2+y,1/2+z
1/2+x,1/2-y,1/2+z
loop_
_atom_site_type_symbol
_atom_site_label
_atom_site_fract_x
_atom_site_fract_y
_atom_site_fract_z
Si Si1 0.656383 0.656901 0.171704
Si Si2 0.044435 0.938174 0.048274
Si Si3 0.335251 0.253451 0.482425
Si Si4 0.896059 0.750000 0.750000
Si Si5 0.000000 0.000000 0.500000
Si Si6 0.155156 0.912065 0.311622
O O1 0.655535 0.699073 0.062479
O O2 0.576786 0.699132 0.272530
O O3 0.919567 0.628205 0.177700
O O4 0.425678 0.615246 0.171321
O O5 0.124024 0.936592 0.182767
O O6 0.272518 0.913174 0.975396
O O7 0.000000 0.000000 0.000000
O O8 0.588542 0.284725 0.485693
O O9 0.284323 0.235780 0.352803
O O10 0.146105 0.953776 0.419158
O O11 0.250000 0.000000 0.585029
#
# Coordination Sequence:
#
# PCOD9411889 Si02
#       6
#     8   8   8   4   4   8
#     4  11  25  46  76 111 157 197 263 329 388 484
#     4  10  23  44  79  99 145 203 253 313 389 463
#     4  10  22  41  70 103 144 195 248 302 389 449
#     4  10  24  46  76 104 148 214 242 316 396 462
#     4  12  30  44  74 112 160 204 260 334 406 488
#     4  12  27  49  75 118 156 203 270 326 410 480
#
# _framework density 26.217372999999998
#
# number of rings (size 3 to 8) (size 9 to 14) (size 15 to 20)
#    0.000    1.200    0.000    4.800    5.600   16.800 
#    0.000   12.000    0.000    0.000    0.000    0.000 
#    0.000    0.000    0.000    0.000    0.000    0.000 
#
# Total GULP energy -222820.483253 kJ/mol
# GULP energy per Si atom -5570.512081 kJ/mol
# Density = 2.615770 g / cm^3
# Si number density = 26.217373 Si / 1000 Ang^3
#
#
#
# Elastic Constant Matrix: (Units=GPa)
#
#
# Indices 1 2 3 4 5 6 
#
# 1 210.7944 53.0338 10.4268 0.0000 0.0000 0.0000
# 2 53.0338 115.7511 28.3975 0.0000 0.0000 0.0000
# 3 10.4268 28.3975 141.8853 0.0000 0.0000 0.0000
# 4 0.0000 0.0000 0.0000 29.5842 0.0000 0.0000
# 5 0.0000 0.0000 0.0000 0.0000********** 0.0000
# 6 0.0000 0.0000 0.0000 0.0000 0.0000 41.4335
#
#
#
# Elastic Compliance Matrix: (Units=1/GPa)
#
#
# Indices 1 2 3 4 5 6 
#
# 1 0.005363 -0.002483 0.000103 0.000000 0.000000 0.000000
# 2 -0.002483 0.010234 -0.001866 0.000000 0.000000 0.000000
# 3 0.000103 -0.001866 0.007414 0.000000 0.000000 0.000000
# 4 0.000000 0.000000 0.000000 0.033802 0.000000 0.000000
# 5 0.000000 0.000000 0.000000 0.000000 -0.000035 0.000000
# 6 0.000000 0.000000 0.000000 0.000000 0.000000 0.024135
#
#
# Mechanical properties :
#
#
# Convention : Reuss Voigt Hill
#
# Bulk Modulus (GPa) = 68.86959 72.46079 70.66519
# Shear Modulus (GPa) = 53.05310 -5657.17563 -2802.06126
#
# Velocity S-wave (km/s) = 4.50331 -46.50248 -32.72767
# Velocity P-wave (km/s) = 7.30516 53.43790 37.43156
#
# Compressibility (1/GPa) = 0.01452020
#
# Stress axis : x y z
#
# Youngs Moduli (GPa) = 186.44631 97.70916 134.88266
#
# Poissons Ratio (x) = 0.24257 -0.01386
# Poissons Ratio (y) = 0.46287 0.25168
# Poissons Ratio (z) = -0.01915 0.18232
#
# Static dielectric constant tensor:
#      x y z
#    x 2.609960 0.000000 0.000000 
#    y 0.000000 1.276700 0.000000 
#    z 0.000000 0.000000 4.633880 
# 
# From -- ./inp_files/16056.got.cif
#   From: 2010.05.17/outbox.cif.g08.bks.cpg/sg52_9_cif.got.tgz:16056.got - 2010.06.03 12:15:38.
