data_PCOD9411707
_publ_section_title
;
Structure prediction by ZEFSAII (Michael W. Deem and Ramdas Pophale) SiO2 
 PCOD9411707
Probable space group: P N N A
;
_chemical_formula_sum "Si O2"
_cell_formula_units_Z 48
_cell_length_a 26.168739
_cell_length_b 9.775195
_cell_length_c 8.684394
_cell_angle_alpha 90.000000
_cell_angle_beta 90.000000
_cell_angle_gamma 90.000000
_cell_volume 2221.507296
_symmetry_space_group_name_H-M "P N N A"
_symmetry_group_IT_number 52
_symmetry_cell_setting 'orthorhombic'
loop_
_space_group_symop_operation_xyz
x,y,z
1/2-x,-y,z
x,1/2-y,1/2-z
1/2-x,1/2+y,1/2-z
-x,-y,-z
1/2+x,y,-z
-x,1/2+y,1/2+z
1/2+x,1/2-y,1/2+z
loop_
_atom_site_type_symbol
_atom_site_label
_atom_site_fract_x
_atom_site_fract_y
_atom_site_fract_z
Si Si1 0.895031 0.778133 0.901325
Si Si2 0.448096 0.004736 0.901151
Si Si3 0.607046 0.005307 0.398858
Si Si4 0.306020 0.986237 0.130296
Si Si5 0.615016 0.773970 0.918867
Si Si6 0.294937 0.910134 0.779450
O O1 0.929188 0.750000 0.750000
O O2 0.848785 0.871857 0.826349
O O3 0.889029 0.635590 0.989458
O O4 0.918418 0.874126 0.031461
O O5 0.442794 0.003092 0.714363
O O6 0.418672 0.136612 0.965780
O O7 0.500000 0.000000 0.000000
O O8 0.619505 0.871591 0.498843
O O9 0.652774 0.028034 0.279945
O O10 0.250000 0.000000 0.210698
O O11 0.334514 0.132956 0.115926
O O12 0.293636 0.930636 0.960956
O O13 0.590947 0.750000 0.750000
O O14 0.290364 0.750000 0.750000
O O15 0.250000 0.000000 0.706926
#
# Coordination Sequence:
#
# PCOD9411707 Si02
#       6
#     8   8   8   8   8   8
#     4  11  23  43  66  94 133 174 216 268 330 391
#     4  11  25  45  68  96 125 164 218 274 338 401
#     4  12  22  42  71  94 131 174 217 270 328 383
#     4  10  22  40  61  92 136 175 223 271 316 379
#     4  11  25  43  64  97 134 174 221 271 331 396
#     4  11  22  36  64 101 132 173 228 273 320 384
#
# _framework density 21.606952
#
# number of rings (size 3 to 8) (size 9 to 14) (size 15 to 20)
#    0.000    1.000    5.000    3.000    4.667    3.333 
#    0.000    4.167    0.000    0.000    0.000    0.000 
#    0.000    0.000    0.000    0.000    0.000    0.000 
#
# Total GULP energy -267423.547373 kJ/mol
# GULP energy per Si atom -5571.323904 kJ/mol
# Density = 2.155777 g / cm^3
# Si number density = 21.606952 Si / 1000 Ang^3
#
#
#
# Elastic Constant Matrix: (Units=GPa)
#
#
# Indices 1 2 3 4 5 6 
#
# 1 71.4910 35.4074 4.9607 0.0000 0.0000 0.0000
# 2 35.4074 187.8042 24.0965 0.0000 0.0000 0.0000
# 3 4.9607 24.0965 93.9037 0.0000 0.0000 0.0000
# 4 0.0000 0.0000 0.0000 -13.1991 0.0000 0.0000
# 5 0.0000 0.0000 0.0000 0.0000 11.6112 0.0000
# 6 0.0000 0.0000 0.0000 0.0000 0.0000 0.7373
#
#
#
# Elastic Compliance Matrix: (Units=1/GPa)
#
#
# Indices 1 2 3 4 5 6 
#
# 1 0.015429 -0.002900 -0.000071 0.000000 0.000000 0.000000
# 2 -0.002900 0.006051 -0.001400 0.000000 0.000000 0.000000
# 3 -0.000071 -0.001400 0.011012 0.000000 0.000000 0.000000
# 4 0.000000 0.000000 0.000000 -0.075763 0.000000 0.000000
# 5 0.000000 0.000000 0.000000 0.000000 0.086124 0.000000
# 6 0.000000 0.000000 0.000000 0.000000 0.000000 1.356374
#
#
# Mechanical properties :
#
#
# Convention : Reuss Voigt Hill
#
# Bulk Modulus (GPa) = 42.10279 53.56978 47.83628
# Shear Modulus (GPa) = 3.53136 19.07883 11.30510
#
# Velocity S-wave (km/s) = 1.27981 2.97475 2.28987
# Velocity P-wave (km/s) = 4.65961 6.05355 5.40173
#
# Compressibility (1/GPa) = 0.02375140
#
# Stress axis : x y z
#
# Youngs Moduli (GPa) = 64.81359 165.26292 90.80926
#
# Poissons Ratio (x) = 0.47922 0.00644
# Poissons Ratio (y) = 0.18794 0.12709
# Poissons Ratio (z) = 0.00460 0.23129
#
# Static dielectric constant tensor:
#      x y z
#    x 1.927300 0.000000 0.000000 
#    y 0.000000 1.964010 0.000000 
#    z 0.000000 0.000000 1.776160 
# 
# From -- ./inp_files/15533.got.cif
#   From: 2010.05.17/outbox.cif.g08.bks.cpg/sg52_8_cif.got.tgz:15533.got - 2010.06.03 12:15:38.
