data_PCOD9411854
_publ_section_title
;
Structure prediction by ZEFSAII (Michael W. Deem and Ramdas Pophale) SiO2 
 PCOD9411854
Probable space group: P N N A
;
_chemical_formula_sum "Si O2"
_cell_formula_units_Z 40
_cell_length_a 13.240362
_cell_length_b 12.338631
_cell_length_c 11.813384
_cell_angle_alpha 90.000000
_cell_angle_beta 90.000000
_cell_angle_gamma 90.000000
_cell_volume 1929.928221
_symmetry_space_group_name_H-M "P N N A"
_symmetry_group_IT_number 52
_symmetry_cell_setting 'orthorhombic'
loop_
_space_group_symop_operation_xyz
x,y,z
1/2-x,-y,z
x,1/2-y,1/2-z
1/2-x,1/2+y,1/2-z
-x,-y,-z
1/2+x,y,-z
-x,1/2+y,1/2+z
1/2+x,1/2-y,1/2+z
loop_
_atom_site_type_symbol
_atom_site_label
_atom_site_fract_x
_atom_site_fract_y
_atom_site_fract_z
Si Si1 0.681708 0.764956 0.622780
Si Si2 0.131733 0.270668 0.539730
Si Si3 0.051236 0.614990 0.521467
Si Si4 0.141766 0.016226 0.798808
Si Si5 0.999967 0.573308 0.111442
O O1 0.720136 0.750000 0.750000
O O2 0.769833 0.762193 0.530136
O O3 0.608142 0.665888 0.585832
O O4 0.608832 0.869766 0.621477
O O5 0.142965 0.372279 0.626600
O O6 0.083901 0.168343 0.602319
O O7 0.041888 0.306035 0.453352
O O8 0.130883 0.586654 0.617505
O O9 0.000000 0.500000 0.500000
O O10 0.043064 0.011646 0.720307
O O11 0.250000 0.000000 0.738937
O O12 0.000000 0.500000 0.000000
#
# Coordination Sequence:
#
# PCOD9411854 Si02
#       5
#     8   8   8   8   8
#     4  11  22  41  64  92 131 173 213 277 340 392
#     4  10  22  41  65  96 132 172 223 272 333 404
#     4   9  19  37  63  96 125 159 220 271 324 396
#     4  11  21  41  71  96 127 179 231 281 333 408
#     4  11  26  43  61  93 135 174 218 279 345 402
#
# _framework density 20.726158999999999
#
# number of rings (size 3 to 8) (size 9 to 14) (size 15 to 20)
#    0.000    1.600    2.000    4.200    2.800    1.600 
#    0.000    7.000    0.000    0.000    0.000    0.000 
#    0.000    0.000    0.000    0.000    0.000    0.000 
#
# Total GULP energy -222955.116838 kJ/mol
# GULP energy per Si atom -5573.877921 kJ/mol
# Density = 2.067899 g / cm^3
# Si number density = 20.726159 Si / 1000 Ang^3
#
#
#
# Elastic Constant Matrix: (Units=GPa)
#
#
# Indices 1 2 3 4 5 6 
#
# 1 72.4808 -10.2448 12.6139 0.0000 0.0000 0.0000
# 2 -10.2448 34.0080 11.4039 0.0000 0.0000 0.0000
# 3 12.6139 11.4039 81.4230 0.0000 0.0000 0.0000
# 4 0.0000 0.0000 0.0000 26.7323 0.0000 0.0000
# 5 0.0000 0.0000 0.0000 0.0000 38.7465 0.0000
# 6 0.0000 0.0000 0.0000 0.0000 0.0000 18.9861
#
#
#
# Elastic Compliance Matrix: (Units=1/GPa)
#
#
# Indices 1 2 3 4 5 6 
#
# 1 0.015134 0.005609 -0.003130 0.000000 0.000000 0.000000
# 2 0.005609 0.032933 -0.005481 0.000000 0.000000 0.000000
# 3 -0.003130 -0.005481 0.013534 0.000000 0.000000 0.000000
# 4 0.000000 0.000000 0.000000 0.037408 0.000000 0.000000
# 5 0.000000 0.000000 0.000000 0.000000 0.025809 0.000000
# 6 0.000000 0.000000 0.000000 0.000000 0.000000 0.052670
#
#
# Mechanical properties :
#
#
# Convention : Reuss Voigt Hill
#
# Bulk Modulus (GPa) = 17.98702 23.93974 20.96338
# Shear Modulus (GPa) = 24.74939 28.50221 26.62580
#
# Velocity S-wave (km/s) = 3.45934 3.71237 3.58809
# Velocity P-wave (km/s) = 4.96521 5.47276 5.22515
#
# Compressibility (1/GPa) = 0.05559565
#
# Stress axis : x y z
#
# Youngs Moduli (GPa) = 66.07514 30.36506 73.88713
#
# Poissons Ratio (x) = -0.17031 0.23128
# Poissons Ratio (y) = -0.37060 0.40500
# Poissons Ratio (z) = 0.20682 0.16644
#
# Static dielectric constant tensor:
#      x y z
#    x 1.787280 0.000000 0.000000 
#    y 0.000000 1.786630 0.000000 
#    z 0.000000 0.000000 1.814750 
# 
# From -- ./inp_files/19262.got.cif
#   From: 2010.05.17/outbox.cif.g08.bks.cpg/sg52_10_cif.got.tgz:19262.got - 2010.06.03 12:15:38.
