data_PCOD9411776
_publ_section_title
;
Structure prediction by ZEFSAII (Michael W. Deem and Ramdas Pophale) SiO2 
 PCOD9411776
Probable space group: P N N A
;
_chemical_formula_sum "Si O2"
_cell_formula_units_Z 40
_cell_length_a 14.148636
_cell_length_b 10.050199
_cell_length_c 12.654039
_cell_angle_alpha 90.000000
_cell_angle_beta 90.000000
_cell_angle_gamma 90.000000
_cell_volume 1799.361415
_symmetry_space_group_name_H-M "P N N A"
_symmetry_group_IT_number 52
_symmetry_cell_setting 'orthorhombic'
loop_
_space_group_symop_operation_xyz
x,y,z
1/2-x,-y,z
x,1/2-y,1/2-z
1/2-x,1/2+y,1/2-z
-x,-y,-z
1/2+x,y,-z
-x,1/2+y,1/2+z
1/2+x,1/2-y,1/2+z
loop_
_atom_site_type_symbol
_atom_site_label
_atom_site_fract_x
_atom_site_fract_y
_atom_site_fract_z
Si Si1 0.035508 0.854268 0.161434
Si Si2 0.779372 0.154398 0.962785
Si Si3 0.530898 0.956922 0.332571
Si Si4 0.198363 0.638604 0.695626
Si Si5 0.584825 0.198109 0.492869
O O1 0.006673 0.750000 0.250000
O O2 0.141137 0.819957 0.124079
O O3 0.024840 0.988904 0.228537
O O4 0.966398 0.825446 0.062572
O O5 0.688792 0.251224 0.973078
O O6 0.750000 0.000000 0.949838
O O7 0.829327 0.169153 0.076579
O O8 0.572627 0.075779 0.408096
O O9 0.617409 0.880469 0.280843
O O10 0.468061 0.861424 0.405176
O O11 0.250000 0.500000 0.688624
O O12 0.264065 0.750000 0.750000
#
# Coordination Sequence:
#
# PCOD9411776 Si02
#       5
#     8   8   8   8   8
#     4  10  22  42  63  90 128 170 220 273 330 399
#     4  11  24  38  60  92 128 168 212 273 334 396
#     4  10  22  40  67  93 128 180 223 274 340 407
#     4  11  22  37  62  95 127 168 219 271 328 393
#     4  10  22  43  65  93 132 173 222 279 337 402
#
# _framework density 22.23011
#
# number of rings (size 3 to 8) (size 9 to 14) (size 15 to 20)
#    0.000    1.600    0.000    4.800    0.000    8.000 
#    0.000    9.000    0.000    0.000    0.000    0.000 
#    0.000    0.000    0.000    0.000    0.000    0.000 
#
# Total GULP energy -223173.911855 kJ/mol
# GULP energy per Si atom -5579.347796 kJ/mol
# Density = 2.217951 g / cm^3
# Si number density = 22.230110 Si / 1000 Ang^3
#
#
#
# Elastic Constant Matrix: (Units=GPa)
#
#
# Indices 1 2 3 4 5 6 
#
# 1 120.1535 33.9428 56.3612 0.0000 0.0000 0.0000
# 2 33.9428 55.2932 46.3299 0.0000 0.0000 0.0000
# 3 56.3612 46.3299 118.4208 0.0000 0.0000 0.0000
# 4 0.0000 0.0000 0.0000 18.8702 0.0000 0.0000
# 5 0.0000 0.0000 0.0000 0.0000 37.4951 0.0000
# 6 0.0000 0.0000 0.0000 0.0000 0.0000 28.7381
#
#
#
# Elastic Compliance Matrix: (Units=1/GPa)
#
#
# Indices 1 2 3 4 5 6 
#
# 1 0.011170 -0.003574 -0.003918 0.000000 0.000000 0.000000
# 2 -0.003574 0.028049 -0.009273 0.000000 0.000000 0.000000
# 3 -0.003918 -0.009273 0.013937 0.000000 0.000000 0.000000
# 4 0.000000 0.000000 0.000000 0.052994 0.000000 0.000000
# 5 0.000000 0.000000 0.000000 0.000000 0.026670 0.000000
# 6 0.000000 0.000000 0.000000 0.000000 0.000000 0.034797
#
#
# Mechanical properties :
#
#
# Convention : Reuss Voigt Hill
#
# Bulk Modulus (GPa) = 50.95127 63.01503 56.98315
# Shear Modulus (GPa) = 24.07454 27.50293 25.78873
#
# Velocity S-wave (km/s) = 3.29442 3.52119 3.40969
# Velocity P-wave (km/s) = 6.11888 6.70373 6.41797
#
# Compressibility (1/GPa) = 0.01962659
#
# Stress axis : x y z
#
# Youngs Moduli (GPa) = 89.52369 35.65211 71.75188
#
# Poissons Ratio (x) = 0.12743 0.28113
# Poissons Ratio (y) = 0.31997 0.66532
# Poissons Ratio (z) = 0.35076 0.33058
#
# Static dielectric constant tensor:
#      x y z
#    x 1.808840 0.000000 0.000000 
#    y 0.000000 2.027320 0.000000 
#    z 0.000000 0.000000 1.846610 
# 
# From -- ./inp_files/19253.got.cif
#   From: 2010.05.17/outbox.cif.g08.bks.cpg/sg52_10_cif.got.tgz:19253.got - 2010.06.03 12:15:38.
