data_PCOD9411901
_publ_section_title
;
Structure prediction by ZEFSAII (Michael W. Deem and Ramdas Pophale) SiO2 
 PCOD9411901
Probable space group: P N N A
;
_chemical_formula_sum "Si O2"
_cell_formula_units_Z 36
_cell_length_a 9.246076
_cell_length_b 13.204647
_cell_length_c 11.911124
_cell_angle_alpha 90.000000
_cell_angle_beta 90.000000
_cell_angle_gamma 90.000000
_cell_volume 1454.243062
_symmetry_space_group_name_H-M "P N N A"
_symmetry_group_IT_number 52
_symmetry_cell_setting 'orthorhombic'
loop_
_space_group_symop_operation_xyz
x,y,z
1/2-x,-y,z
x,1/2-y,1/2-z
1/2-x,1/2+y,1/2-z
-x,-y,-z
1/2+x,y,-z
-x,1/2+y,1/2+z
1/2+x,1/2-y,1/2+z
loop_
_atom_site_type_symbol
_atom_site_label
_atom_site_fract_x
_atom_site_fract_y
_atom_site_fract_z
Si Si1 0.623818 0.180051 0.973113
Si Si2 0.831673 0.338605 0.341789
Si Si3 0.144931 0.095738 0.487424
Si Si4 0.750000 0.500000 0.675239
Si Si5 0.533565 0.007993 0.307031
O O1 0.454967 0.180114 0.938195
O O2 0.693173 0.092671 0.897943
O O3 0.675420 0.155748 0.099318
O O4 0.688721 0.292137 0.951726
O O5 0.840970 0.250000 0.250000
O O6 0.877820 0.441692 0.280455
O O7 0.107812 0.095610 0.620170
O O8 0.250000 0.000000 0.472544
O O9 0.009727 0.070014 0.407687
O O10 0.615912 0.537949 0.749289
#
# Coordination Sequence:
#
# PCOD9411901 Si02
#       5
#     8   8   8   4   8
#     4  11  26  45  76 103 143 193 242 296 365 444
#     4  11  23  49  70 105 147 192 236 308 361 428
#     4  11  22  42  73 109 134 187 250 293 350 435
#     4  10  24  48  70 102 152 192 226 300 376 428
#     4  10  22  41  73 100 147 187 237 300 359 421
#
# _framework density 24.755144999999999
#
# number of rings (size 3 to 8) (size 9 to 14) (size 15 to 20)
#    0.000    1.333    3.333    1.333    3.111    3.556 
#   14.000    0.000    4.889    0.000    0.000    0.000 
#    0.000    0.000    0.000    0.000    0.000    0.000 
#
# Total GULP energy -201402.560138 kJ/mol
# GULP energy per Si atom -5594.515559 kJ/mol
# Density = 2.469880 g / cm^3
# Si number density = 24.755145 Si / 1000 Ang^3
#
#
#
# Elastic Constant Matrix: (Units=GPa)
#
#
# Indices 1 2 3 4 5 6 
#
# 1 106.4545 41.3786 56.9952 0.0000 0.0000 0.0000
# 2 41.3786 132.0768 21.5501 0.0000 0.0000 0.0000
# 3 56.9952 21.5501 102.6495 0.0000 0.0000 0.0000
# 4 0.0000 0.0000 0.0000 26.9617 0.0000 0.0000
# 5 0.0000 0.0000 0.0000 0.0000 43.4188 0.0000
# 6 0.0000 0.0000 0.0000 0.0000 0.0000 32.5251
#
#
#
# Elastic Compliance Matrix: (Units=1/GPa)
#
#
# Indices 1 2 3 4 5 6 
#
# 1 0.014700 -0.003390 -0.007451 0.000000 0.000000 0.000000
# 2 -0.003390 0.008622 0.000072 0.000000 0.000000 0.000000
# 3 -0.007451 0.000072 0.013864 0.000000 0.000000 0.000000
# 4 0.000000 0.000000 0.000000 0.037090 0.000000 0.000000
# 5 0.000000 0.000000 0.000000 0.000000 0.023031 0.000000
# 6 0.000000 0.000000 0.000000 0.000000 0.000000 0.030745
#
#
# Mechanical properties :
#
#
# Convention : Reuss Voigt Hill
#
# Bulk Modulus (GPa) = 63.90167 64.55875 64.23021
# Shear Modulus (GPa) = 32.29874 35.33159 33.81516
#
# Velocity S-wave (km/s) = 3.61602 3.78198 3.69993
# Velocity P-wave (km/s) = 6.58055 6.72360 6.65246
#
# Compressibility (1/GPa) = 0.01564904
#
# Stress axis : x y z
#
# Youngs Moduli (GPa) = 68.02588 115.98792 72.13146
#
# Poissons Ratio (x) = 0.39318 0.53742
# Poissons Ratio (y) = 0.23060 -0.00521
# Poissons Ratio (z) = 0.50683 -0.00837
#
# Static dielectric constant tensor:
#      x y z
#    x 2.038550 0.000000 0.000000 
#    y 0.000000 1.939100 0.000000 
#    z 0.000000 0.000000 1.989800 
# 
# From -- ./inp_files/17786.got.cif
#   From: 2010.05.17/outbox.cif.g08.bks.cpg/sg52_9_cif.got.tgz:17786.got - 2010.06.03 12:15:38.
