data_PCOD9411689
_publ_section_title
;
Structure prediction by ZEFSAII (Michael W. Deem and Ramdas Pophale) SiO2 
 PCOD9411689
Probable space group: P N N A
;
_chemical_formula_sum "Si O2"
_cell_formula_units_Z 40
_cell_length_a 18.356086
_cell_length_b 10.777848
_cell_length_c 8.794790
_cell_angle_alpha 90.000000
_cell_angle_beta 90.000000
_cell_angle_gamma 90.000000
_cell_volume 1739.953380
_symmetry_space_group_name_H-M "P N N A"
_symmetry_group_IT_number 52
_symmetry_cell_setting 'orthorhombic'
loop_
_space_group_symop_operation_xyz
x,y,z
1/2-x,-y,z
x,1/2-y,1/2-z
1/2-x,1/2+y,1/2-z
-x,-y,-z
1/2+x,y,-z
-x,1/2+y,1/2+z
1/2+x,1/2-y,1/2+z
loop_
_atom_site_type_symbol
_atom_site_label
_atom_site_fract_x
_atom_site_fract_y
_atom_site_fract_z
Si Si1 0.489123 0.295568 0.592048
Si Si2 0.941494 0.472105 0.673019
Si Si3 0.564065 0.368346 0.138763
Si Si4 0.769527 0.873618 0.347326
Si Si5 0.797960 0.117943 0.673251
O O1 0.455043 0.250000 0.750000
O O2 0.559747 0.384325 0.624842
O O3 0.443680 0.380668 0.473787
O O4 0.517424 0.174917 0.504268
O O5 0.879752 0.420628 0.782826
O O6 0.018842 0.463951 0.760349
O O7 0.566422 0.250000 0.250000
O O8 0.647047 0.393641 0.099064
O O9 0.763940 0.750000 0.250000
O O10 0.718703 0.866238 0.495121
O O11 0.750000 0.000000 0.258826
O O12 0.780653 0.250000 0.750000
O O13 0.750000 0.000000 0.726705
#
# Coordination Sequence:
#
# PCOD9411689 Si02
#       5
#     8   8   8   8   8
#     4  10  22  39  74 102 128 178 229 290 363 398
#     4  10  23  47  66 105 137 176 236 296 339 419
#     4   9  20  43  69  93 141 176 227 293 339 404
#     4  10  24  47  68 103 141 189 233 284 353 421
#     4  11  26  46  71 100 145 189 234 286 356 422
#
# _framework density 22.989121000000001
#
# number of rings (size 3 to 8) (size 9 to 14) (size 15 to 20)
#    0.000    2.000    0.000    1.800    8.400    1.600 
#   21.600    0.000    0.000    0.000    0.000    0.000 
#    0.000    0.000    0.000    0.000    0.000    0.000 
#
# Total GULP energy -223484.018397 kJ/mol
# GULP energy per Si atom -5587.100460 kJ/mol
# Density = 2.293680 g / cm^3
# Si number density = 22.989121 Si / 1000 Ang^3
#
#
#
# Elastic Constant Matrix: (Units=GPa)
#
#
# Indices 1 2 3 4 5 6 
#
# 1 73.3592 21.2380 52.4637 0.0000 0.0000 0.0000
# 2 21.2380 136.1655 35.8290 0.0000 0.0000 0.0000
# 3 52.4637 35.8290 125.5469 0.0000 0.0000 0.0000
# 4 0.0000 0.0000 0.0000 41.8219 0.0000 0.0000
# 5 0.0000 0.0000 0.0000 0.0000 -13.6779 0.0000
# 6 0.0000 0.0000 0.0000 0.0000 0.0000 23.6001
#
#
#
# Elastic Compliance Matrix: (Units=1/GPa)
#
#
# Indices 1 2 3 4 5 6 
#
# 1 0.019560 -0.000973 -0.007896 0.000000 0.000000 0.000000
# 2 -0.000973 0.007989 -0.001873 0.000000 0.000000 0.000000
# 3 -0.007896 -0.001873 0.011799 0.000000 0.000000 0.000000
# 4 0.000000 0.000000 0.000000 0.023911 0.000000 0.000000
# 5 0.000000 0.000000 0.000000 0.000000 -0.073110 0.000000
# 6 0.000000 0.000000 0.000000 0.000000 0.000000 0.042373
#
#
# Mechanical properties :
#
#
# Convention : Reuss Voigt Hill
#
# Bulk Modulus (GPa) = 55.98043 61.57035 58.77539
# Shear Modulus (GPa) = 83.38736 25.38487 54.38612
#
# Velocity S-wave (km/s) = 6.02920 3.32657 4.86916
# Velocity P-wave (km/s) = 8.53651 6.44944 7.56530
#
# Compressibility (1/GPa) = 0.01786339
#
# Stress axis : x y z
#
# Youngs Moduli (GPa) = 51.12388 125.17725 84.75008
#
# Poissons Ratio (x) = 0.12182 0.66920
# Poissons Ratio (y) = 0.04975 0.15875
# Poissons Ratio (z) = 0.40368 0.23448
#
# Static dielectric constant tensor:
#      x y z
#    x 1.870490 0.000000 0.000000 
#    y 0.000000 1.860880 0.000000 
#    z 0.000000 0.000000 1.904210 
# 
# From -- ./inp_files/11597.got.cif
#   From: 2010.05.17/outbox.cif.g08.bks.cpg/sg52_6_cif.got.tgz:11597.got - 2010.06.03 12:15:38.
