data_PCOD9411936
_publ_section_title
;
Structure prediction by ZEFSAII (Michael W. Deem and Ramdas Pophale) SiO2 
 PCOD9411936
Probable space group: P N N A
;
_chemical_formula_sum "Si O2"
_cell_formula_units_Z 32
_cell_length_a 9.716465
_cell_length_b 4.763600
_cell_length_c 28.887065
_cell_angle_alpha 90.000000
_cell_angle_beta 90.000000
_cell_angle_gamma 90.000000
_cell_volume 1337.047991
_symmetry_space_group_name_H-M "P N N A"
_symmetry_group_IT_number 52
_symmetry_cell_setting 'orthorhombic'
loop_
_space_group_symop_operation_xyz
x,y,z
1/2-x,-y,z
x,1/2-y,1/2-z
1/2-x,1/2+y,1/2-z
-x,-y,-z
1/2+x,y,-z
-x,1/2+y,1/2+z
1/2+x,1/2-y,1/2+z
loop_
_atom_site_type_symbol
_atom_site_label
_atom_site_fract_x
_atom_site_fract_y
_atom_site_fract_z
Si Si1 0.951457 0.104812 0.392699
Si Si2 0.527073 0.250000 0.250000
Si Si3 0.658640 0.749663 0.670491
Si Si4 0.250000 0.000000 0.682325
Si Si5 0.410967 0.584207 0.544704
O O1 0.831620 0.184514 0.355574
O O2 0.911795 0.901147 0.435692
O O3 0.065283 0.927521 0.365097
O O4 0.983560 0.398957 0.415436
O O5 0.431034 0.390993 0.288597
O O6 0.629687 0.418968 0.217217
O O7 0.750000 0.500000 0.650013
O O8 0.750000 0.000000 0.692127
O O9 0.250000 0.500000 0.539172
O O10 0.500000 0.500000 0.500000
#
# Coordination Sequence:
#
# PCOD9411936 Si02
#       5
#     8   4   8   4   8
#     4  11  24  45  71  99 136 185 231 289 350 422
#     4  10  24  38  68 104 140 192 238 296 344 406
#     4  11  24  44  67 100 145 189 235 286 350 421
#     4  10  22  42  66 100 140 180 246 284 342 416
#     4  12  25  45  72 104 139 176 233 299 366 433
#
# _framework density 23.933320999999999
#
# number of rings (size 3 to 8) (size 9 to 14) (size 15 to 20)
#    0.000    1.000    2.500    3.000    0.000   11.000 
#    0.000    0.000    0.000    0.000    0.000    0.000 
#    0.000    0.000    0.000    0.000    0.000    0.000 
#
# Total GULP energy -178430.386594 kJ/mol
# GULP energy per Si atom -5575.949581 kJ/mol
# Density = 2.387885 g / cm^3
# Si number density = 23.933321 Si / 1000 Ang^3
#
#
#
# Elastic Constant Matrix: (Units=GPa)
#
#
# Indices 1 2 3 4 5 6 
#
# 1 111.8264 25.1527 43.1297 0.0000 0.0000 0.0000
# 2 25.1527 102.5165 15.2393 0.0000 0.0000 0.0000
# 3 43.1297 15.2393 117.3693 0.0000 0.0000 0.0000
# 4 0.0000 0.0000 0.0000 23.0560 0.0000 0.0000
# 5 0.0000 0.0000 0.0000 0.0000 20.4472 0.0000
# 6 0.0000 0.0000 0.0000 0.0000 0.0000 23.0226
#
#
#
# Elastic Compliance Matrix: (Units=1/GPa)
#
#
# Indices 1 2 3 4 5 6 
#
# 1 0.010849 -0.002110 -0.003713 0.000000 0.000000 0.000000
# 2 -0.002110 0.010357 -0.000569 0.000000 0.000000 0.000000
# 3 -0.003713 -0.000569 0.009958 0.000000 0.000000 0.000000
# 4 0.000000 0.000000 0.000000 0.043373 0.000000 0.000000
# 5 0.000000 0.000000 0.000000 0.000000 0.048906 0.000000
# 6 0.000000 0.000000 0.000000 0.000000 0.000000 0.043436
#
#
# Mechanical properties :
#
#
# Convention : Reuss Voigt Hill
#
# Bulk Modulus (GPa) = 54.40674 55.41731 54.91203
# Shear Modulus (GPa) = 26.91217 29.85120 28.38168
#
# Velocity S-wave (km/s) = 3.35694 3.53550 3.44737
# Velocity P-wave (km/s) = 6.14877 6.31438 6.23213
#
# Compressibility (1/GPa) = 0.01838007
#
# Stress axis : x y z
#
# Youngs Moduli (GPa) = 92.17490 96.55450 100.41820
#
# Poissons Ratio (x) = 0.20372 0.37282
# Poissons Ratio (y) = 0.19448 0.05718
# Poissons Ratio (z) = 0.34222 0.05498
#
# Static dielectric constant tensor:
#      x y z
#    x 2.040940 0.000000 0.000000 
#    y 0.000000 1.896630 0.000000 
#    z 0.000000 0.000000 1.883720 
# 
# From -- ./inp_files/44140.got.cif
#   From: 2010.05.17/outbox.cif.g08.bks.cpg/sg52_23_cif.got.tgz:44140.got - 2010.06.03 12:15:38.
