data_PCOD9411667
_publ_section_title
;
Structure prediction by ZEFSAII (Michael W. Deem and Ramdas Pophale) SiO2 
 PCOD9411667
Probable space group: P N N A
;
_chemical_formula_sum "Si O2"
_cell_formula_units_Z 36
_cell_length_a 20.629386
_cell_length_b 5.359102
_cell_length_c 12.327744
_cell_angle_alpha 90.000000
_cell_angle_beta 90.000000
_cell_angle_gamma 90.000000
_cell_volume 1362.893538
_symmetry_space_group_name_H-M "P N N A"
_symmetry_group_IT_number 52
_symmetry_cell_setting 'orthorhombic'
loop_
_space_group_symop_operation_xyz
x,y,z
1/2-x,-y,z
x,1/2-y,1/2-z
1/2-x,1/2+y,1/2-z
-x,-y,-z
1/2+x,y,-z
-x,1/2+y,1/2+z
1/2+x,1/2-y,1/2+z
loop_
_atom_site_type_symbol
_atom_site_label
_atom_site_fract_x
_atom_site_fract_y
_atom_site_fract_z
Si Si1 0.452682 0.210415 0.131684
Si Si2 0.866180 0.579332 0.952155
Si Si3 0.710073 0.759424 0.405108
Si Si4 0.090267 0.032475 0.906271
Si Si5 0.291587 0.750000 0.250000
O O1 0.420352 0.250000 0.250000
O O2 0.437288 0.481628 0.080820
O O3 0.523660 0.097345 0.152106
O O4 0.427493 0.047200 0.030433
O O5 0.836437 0.736942 0.856069
O O6 0.814315 0.358820 0.976830
O O7 0.872523 0.712271 0.067760
O O8 0.750000 0.500000 0.412161
O O9 0.640638 0.664465 0.359135
O O10 0.750000 0.000000 0.357918
O O11 0.250000 0.500000 0.255225
#
# Coordination Sequence:
#
# PCOD9411667 Si02
#       5
#     8   8   8   8   4
#     4  10  22  41  64  96 136 174 229 288 344 410
#     4  11  23  39  62  89 135 179 220 272 339 416
#     4  11  22  38  65  95 127 170 225 276 335 410
#     4  10  22  39  65  99 127 183 229 279 347 428
#     4  12  30  36  58  96 142 178 228 278 348 434
#
# _framework density 26.414391999999999
#
# number of rings (size 3 to 8) (size 9 to 14) (size 15 to 20)
#    0.000    1.333    2.222    2.667   10.889    0.000 
#    0.000    0.000    0.000    0.000    5.778    0.000 
#    0.000    0.000    0.000    0.000    0.000    0.000 
#
# Total GULP energy -200700.545600 kJ/mol
# GULP energy per Si atom -5575.015156 kJ/mol
# Density = 2.635427 g / cm^3
# Si number density = 26.414392 Si / 1000 Ang^3
#
#
#
# Elastic Constant Matrix: (Units=GPa)
#
#
# Indices 1 2 3 4 5 6 
#
# 1 129.6323 47.1063 3.4589 0.0000 0.0000 0.0000
# 2 47.1063 139.1070 12.2394 0.0000 0.0000 0.0000
# 3 3.4589 12.2394 85.2590 0.0000 0.0000 0.0000
# 4 0.0000 0.0000 0.0000 -1.2615 0.0000 0.0000
# 5 0.0000 0.0000 0.0000 0.0000 11.5701 0.0000
# 6 0.0000 0.0000 0.0000 0.0000 0.0000 53.9963
#
#
#
# Elastic Compliance Matrix: (Units=1/GPa)
#
#
# Indices 1 2 3 4 5 6 
#
# 1 0.008797 -0.002985 0.000072 0.000000 0.000000 0.000000
# 2 -0.002985 0.008294 -0.001069 0.000000 0.000000 0.000000
# 3 0.000072 -0.001069 0.011880 0.000000 0.000000 0.000000
# 4 0.000000 0.000000 0.000000 -0.792692 0.000000 0.000000
# 5 0.000000 0.000000 0.000000 0.000000 0.086430 0.000000
# 6 0.000000 0.000000 0.000000 0.000000 0.000000 0.018520
#
#
# Mechanical properties :
#
#
# Convention : Reuss Voigt Hill
#
# Bulk Modulus (GPa) = 47.60970 53.28972 50.44971
# Shear Modulus (GPa) = -7.76633 32.27389 12.25378
#
# Velocity S-wave (km/s) = -1.71656 3.49926 2.15618
# Velocity P-wave (km/s) = 3.75959 6.04522 5.03385
#
# Compressibility (1/GPa) = 0.02100412
#
# Stress axis : x y z
#
# Youngs Moduli (GPa) = 113.67496 120.57305 84.17798
#
# Poissons Ratio (x) = 0.35994 -0.00603
# Poissons Ratio (y) = 0.33935 0.09003
# Poissons Ratio (z) = -0.00815 0.12895
#
# Static dielectric constant tensor:
#      x y z
#    x 2.147610 0.000000 0.000000 
#    y 0.000000 2.162720 0.000000 
#    z 0.000000 0.000000 2.025000 
# 
# From -- ./inp_files/28466.got.cif
#   From: 2010.05.17/outbox.cif.g08.bks.cpg/sg52_15_cif.got.tgz:28466.got - 2010.06.03 12:15:38.
