data_PCOD9411011
_publ_section_title
;
Structure prediction by ZEFSAII (Michael W. Deem and Ramdas Pophale) SiO2 
 PCOD9411011
Probable space group: P N N A
;
_chemical_formula_sum "Si O2"
_cell_formula_units_Z 56
_cell_length_a 18.250476
_cell_length_b 15.147391
_cell_length_c 9.611204
_cell_angle_alpha 90.000000
_cell_angle_beta 90.000000
_cell_angle_gamma 90.000000
_cell_volume 2656.989434
_symmetry_space_group_name_H-M "P N N A"
_symmetry_group_IT_number 52
_symmetry_cell_setting 'orthorhombic'
loop_
_space_group_symop_operation_xyz
x,y,z
1/2-x,-y,z
x,1/2-y,1/2-z
1/2-x,1/2+y,1/2-z
-x,-y,-z
1/2+x,y,-z
-x,1/2+y,1/2+z
1/2+x,1/2-y,1/2+z
loop_
_atom_site_type_symbol
_atom_site_label
_atom_site_fract_x
_atom_site_fract_y
_atom_site_fract_z
Si Si1 0.947152 0.913033 0.690901
Si Si2 0.277698 0.242720 0.908262
Si Si3 0.439501 0.285541 0.960913
Si Si4 0.797314 0.089995 0.877292
Si Si5 0.958480 0.107982 0.738601
Si Si6 0.691156 0.326534 0.846383
Si Si7 0.516864 0.104670 0.989841
O O1 0.868874 0.899662 0.621374
O O2 0.005243 0.844560 0.629275
O O3 0.974613 0.012468 0.672962
O O4 0.931287 0.895630 0.855696
O O5 0.252823 0.250000 0.750000
O O6 0.355651 0.292841 0.916090
O O7 0.290388 0.147069 0.981134
O O8 0.221107 0.287842 0.012070
O O9 0.446484 0.319902 0.119862
O O10 0.460986 0.182769 0.946955
O O11 0.882636 0.091056 0.827186
O O12 0.756776 0.138901 0.749620
O O13 0.750000 0.000000 0.893861
O O14 0.024076 0.128661 0.847250
O O15 0.656089 0.250000 0.750000
O O16 0.500000 0.000000 0.000000
#
# Coordination Sequence:
#
# PCOD9411011 Si02
#       7
#     8   8   8   8   8   8   8
#     4  11  23  41  62  96 135 179 214 280 344 404
#     4  11  24  41  67  98 133 178 232 281 341 413
#     4  12  22  39  65  97 133 175 220 276 342 398
#     4  11  21  41  69  98 127 177 232 287 335 416
#     4  11  22  39  64 100 130 172 230 278 337 407
#     4  10  21  39  65  91 128 176 233 273 337 414
#     4  10  22  37  61  92 129 165 222 271 325 401
#
# _framework density 21.076484000000001
#
# number of rings (size 3 to 8) (size 9 to 14) (size 15 to 20)
#    0.000    1.143    4.286    3.000    0.000    0.000 
#    0.000    6.429    0.000    0.000    0.000    0.000 
#    0.000    0.000    0.000    0.000    0.000    0.000 
#
# Total GULP energy -311983.993269 kJ/mol
# GULP energy per Si atom -5571.142737 kJ/mol
# Density = 2.102851 g / cm^3
# Si number density = 21.076484 Si / 1000 Ang^3
#
#
#
# Elastic Constant Matrix: (Units=GPa)
#
#
# Indices 1 2 3 4 5 6 
#
# 1 33.7447 25.1636 24.0716 0.0000 0.0000 0.0000
# 2 25.1636 83.3495 45.7903 0.0000 0.0000 0.0000
# 3 24.0716 45.7903 145.4128 0.0000 0.0000 0.0000
# 4 0.0000 0.0000 0.0000 34.3744 0.0000 0.0000
# 5 0.0000 0.0000 0.0000 0.0000 20.6146 0.0000
# 6 0.0000 0.0000 0.0000 0.0000 0.0000 27.7318
#
#
#
# Elastic Compliance Matrix: (Units=1/GPa)
#
#
# Indices 1 2 3 4 5 6 
#
# 1 0.039566 -0.010093 -0.003371 0.000000 0.000000 0.000000
# 2 -0.010093 0.017082 -0.003708 0.000000 0.000000 0.000000
# 3 -0.003371 -0.003708 0.008603 0.000000 0.000000 0.000000
# 4 0.000000 0.000000 0.000000 0.029091 0.000000 0.000000
# 5 0.000000 0.000000 0.000000 0.000000 0.048509 0.000000
# 6 0.000000 0.000000 0.000000 0.000000 0.000000 0.036060
#
#
# Mechanical properties :
#
#
# Convention : Reuss Voigt Hill
#
# Bulk Modulus (GPa) = 32.35703 50.28422 41.32062
# Shear Modulus (GPa) = 22.36558 27.70959 25.03759
#
# Velocity S-wave (km/s) = 3.26108 3.62983 3.45039
# Velocity P-wave (km/s) = 5.43738 6.44029 5.95997
#
# Compressibility (1/GPa) = 0.03090519
#
# Stress axis : x y z
#
# Youngs Moduli (GPa) = 25.27450 58.54108 116.24067
#
# Poissons Ratio (x) = 0.59084 0.39190
# Poissons Ratio (y) = 0.25509 0.43106
# Poissons Ratio (z) = 0.08521 0.21709
#
# Static dielectric constant tensor:
#      x y z
#    x 1.760370 0.000000 0.000000 
#    y 0.000000 1.831460 0.000000 
#    z 0.000000 0.000000 1.779440 
# 
# From -- ./inp_files/13463.got.cif
#   From: 2010.05.17/outbox.cif.g08.bks.cpg/sg52_7_cif.got.tgz:13463.got - 2010.06.03 12:15:38.
