data_PCOD9411795
_publ_section_title
;
Structure prediction by ZEFSAII (Michael W. Deem and Ramdas Pophale) SiO2 
 PCOD9411795
Probable space group: P N N A
;
_chemical_formula_sum "Si O2"
_cell_formula_units_Z 56
_cell_length_a 14.405137
_cell_length_b 15.478369
_cell_length_c 11.098733
_cell_angle_alpha 90.000000
_cell_angle_beta 90.000000
_cell_angle_gamma 90.000000
_cell_volume 2474.662588
_symmetry_space_group_name_H-M "P N N A"
_symmetry_group_IT_number 52
_symmetry_cell_setting 'orthorhombic'
loop_
_space_group_symop_operation_xyz
x,y,z
1/2-x,-y,z
x,1/2-y,1/2-z
1/2-x,1/2+y,1/2-z
-x,-y,-z
1/2+x,y,-z
-x,1/2+y,1/2+z
1/2+x,1/2-y,1/2+z
loop_
_atom_site_type_symbol
_atom_site_label
_atom_site_fract_x
_atom_site_fract_y
_atom_site_fract_z
Si Si1 0.061128 0.524964 0.290102
Si Si2 0.260924 0.692974 0.501214
Si Si3 0.360493 0.502569 0.027000
Si Si4 0.578813 0.302653 0.946586
Si Si5 0.721867 0.750000 0.250000
Si Si6 0.750000 0.000000 0.936572
Si Si7 0.063053 0.788767 0.119996
Si Si8 0.071736 0.608425 0.796943
O O1 0.157998 0.501569 0.353996
O O2 0.032391 0.613582 0.352726
O O3 0.978373 0.455604 0.296604
O O4 0.087834 0.531541 0.147815
O O5 0.338957 0.735791 0.416580
O O6 0.278518 0.739316 0.628374
O O7 0.260768 0.589464 0.508150
O O8 0.158042 0.715791 0.455688
O O9 0.250000 0.500000 0.042483
O O10 0.393817 0.447228 0.912460
O O11 0.383961 0.603596 0.013514
O O12 0.508965 0.326934 0.839658
O O13 0.515501 0.261158 0.049169
O O14 0.656663 0.665615 0.247260
O O15 0.083310 0.750000 0.250000
#
# Coordination Sequence:
#
# PCOD9411795 Si02
#       8
#     8   8   8   8   4   4   8   8
#     4  10  22  40  70 102 134 176 230 288 354 411
#     4  11  27  46  67 101 140 185 235 286 354 421
#     4  11  22  42  69 101 142 177 230 292 354 413
#     4  11  24  43  71 100 136 181 236 281 353 416
#     4  12  26  48  64  96 144 184 236 282 340 430
#     4  10  24  46  68 102 138 180 236 294 354 418
#     4  11  23  42  70 101 141 173 232 297 343 410
#     4  11  24  43  68 100 140 185 234 286 350 421
#
# _framework density 22.629346999999999
#
# number of rings (size 3 to 8) (size 9 to 14) (size 15 to 20)
#    0.000    1.143    2.143    4.286    5.000    2.286 
#    6.429    2.857    0.000    0.000    0.000    0.000 
#    0.000    0.000    0.000    0.000    0.000    0.000 
#
# Total GULP energy -313449.674723 kJ/mol
# GULP energy per Si atom -5597.315620 kJ/mol
# Density = 2.257784 g / cm^3
# Si number density = 22.629347 Si / 1000 Ang^3
#
#
#
# Elastic Constant Matrix: (Units=GPa)
#
#
# Indices 1 2 3 4 5 6 
#
# 1 65.0537 33.6896 -2.1649 0.0000 0.0000 0.0000
# 2 33.6896 102.1957 29.6660 0.0000 0.0000 0.0000
# 3 -2.1649 29.6660 43.0567 0.0000 0.0000 0.0000
# 4 0.0000 0.0000 0.0000 30.1276 0.0000 0.0000
# 5 0.0000 0.0000 0.0000 0.0000 -60.2242 0.0000
# 6 0.0000 0.0000 0.0000 0.0000 0.0000 37.8167
#
#
#
# Elastic Compliance Matrix: (Units=1/GPa)
#
#
# Indices 1 2 3 4 5 6 
#
# 1 0.020078 -0.008640 0.006962 0.000000 0.000000 0.000000
# 2 -0.008640 0.015949 -0.011424 0.000000 0.000000 0.000000
# 3 0.006962 -0.011424 0.031446 0.000000 0.000000 0.000000
# 4 0.000000 0.000000 0.000000 0.033192 0.000000 0.000000
# 5 0.000000 0.000000 0.000000 0.000000 -0.016605 0.000000
# 6 0.000000 0.000000 0.000000 0.000000 0.000000 0.026443
#
#
# Mechanical properties :
#
#
# Convention : Reuss Voigt Hill
#
# Bulk Modulus (GPa) = 24.22983 36.96526 30.59755
# Shear Modulus (GPa) = 33.23055 11.48503 22.35779
#
# Velocity S-wave (km/s) = 3.83622 2.25528 3.14666
# Velocity P-wave (km/s) = 5.50932 4.81168 5.17228
#
# Compressibility (1/GPa) = 0.04127144
#
# Stress axis : x y z
#
# Youngs Moduli (GPa) = 49.80565 62.69793 31.80044
#
# Poissons Ratio (x) = 0.54171 -0.22141
# Poissons Ratio (y) = 0.43032 0.36328
# Poissons Ratio (z) = -0.34677 0.71624
#
# Static dielectric constant tensor:
#      x y z
#    x 1.851470 0.000000 0.000000 
#    y 0.000000 1.903310 0.000000 
#    z 0.000000 0.000000 1.829960 
# 
# From -- ./inp_files/19679.got.cif
#   From: 2010.05.17/outbox.cif.g08.bks.cpg/sg52_10_cif.got.tgz:19679.got - 2010.06.03 12:15:38.
