data_PCOD9411988
_publ_section_title
;
Structure prediction by ZEFSAII (Michael W. Deem and Ramdas Pophale) SiO2 
 PCOD9411988
Probable space group: P N N A
;
_chemical_formula_sum "Si O2"
_cell_formula_units_Z 36
_cell_length_a 17.522301
_cell_length_b 18.103107
_cell_length_c 5.202624
_cell_angle_alpha 90.000000
_cell_angle_beta 90.000000
_cell_angle_gamma 90.000000
_cell_volume 1650.314421
_symmetry_space_group_name_H-M "P N N A"
_symmetry_group_IT_number 52
_symmetry_cell_setting 'orthorhombic'
loop_
_space_group_symop_operation_xyz
x,y,z
1/2-x,-y,z
x,1/2-y,1/2-z
1/2-x,1/2+y,1/2-z
-x,-y,-z
1/2+x,y,-z
-x,1/2+y,1/2+z
1/2+x,1/2-y,1/2+z
loop_
_atom_site_type_symbol
_atom_site_label
_atom_site_fract_x
_atom_site_fract_y
_atom_site_fract_z
Si Si1 0.181102 0.056871 0.763747
Si Si2 0.917055 0.533304 0.760466
Si Si3 0.195373 0.669880 0.631680
Si Si4 0.090404 0.750000 0.250000
Si Si5 0.055246 0.883961 0.551262
O O1 0.137207 0.062456 0.493287
O O2 0.224835 0.128506 0.873938
O O3 0.250000 0.000000 0.727049
O O4 0.124443 0.031761 0.988628
O O5 0.989525 0.587603 0.759077
O O6 0.940487 0.450370 0.844845
O O7 0.208363 0.750000 0.750000
O O8 0.146865 0.689861 0.379236
O O9 0.136386 0.624613 0.808958
O O10 0.041476 0.801792 0.438287
#
# Coordination Sequence:
#
# PCOD9411988 Si02
#       5
#     8   8   8   4   8
#     4  12  24  43  67 102 133 175 218 281 334 397
#     4  11  26  41  72  98 137 167 230 283 335 383
#     4  10  23  42  66  94 132 181 223 265 337 410
#     4  10  22  42  70  88 134 180 230 264 336 414
#     4  10  23  44  66  99 127 181 224 278 331 405
#
# _framework density 21.814025999999998
#
# number of rings (size 3 to 8) (size 9 to 14) (size 15 to 20)
#    0.000    1.333    2.222    2.000    9.333    1.778 
#    2.000    0.000    0.000    0.000    0.000    0.000 
#    0.000    0.000    0.000    0.000    0.000    0.000 
#
# Total GULP energy -201163.820602 kJ/mol
# GULP energy per Si atom -5587.883906 kJ/mol
# Density = 2.176438 g / cm^3
# Si number density = 21.814026 Si / 1000 Ang^3
#
#
#
# Elastic Constant Matrix: (Units=GPa)
#
#
# Indices 1 2 3 4 5 6 
#
# 1 69.0858 43.3705 10.4498 0.0000 0.0000 0.0000
# 2 43.3705 84.2449 14.1402 0.0000 0.0000 0.0000
# 3 10.4498 14.1402 69.8415 0.0000 0.0000 0.0000
# 4 0.0000 0.0000 0.0000 12.7990 0.0000 0.0000
# 5 0.0000 0.0000 0.0000 0.0000 26.3379 0.0000
# 6 0.0000 0.0000 0.0000 0.0000 0.0000 36.0033
#
#
#
# Elastic Compliance Matrix: (Units=1/GPa)
#
#
# Indices 1 2 3 4 5 6 
#
# 1 0.021455 -0.010876 -0.001008 0.000000 0.000000 0.000000
# 2 -0.010876 0.017801 -0.001977 0.000000 0.000000 0.000000
# 3 -0.001008 -0.001977 0.014869 0.000000 0.000000 0.000000
# 4 0.000000 0.000000 0.000000 0.078131 0.000000 0.000000
# 5 0.000000 0.000000 0.000000 0.000000 0.037968 0.000000
# 6 0.000000 0.000000 0.000000 0.000000 0.000000 0.027775
#
#
# Mechanical properties :
#
#
# Convention : Reuss Voigt Hill
#
# Bulk Modulus (GPa) = 37.87402 39.89924 38.88663
# Shear Modulus (GPa) = 21.31988 25.37549 23.34769
#
# Velocity S-wave (km/s) = 3.12965 3.41437 3.27510
# Velocity P-wave (km/s) = 5.51901 5.82016 5.67158
#
# Compressibility (1/GPa) = 0.02640332
#
# Stress axis : x y z
#
# Youngs Moduli (GPa) = 46.60900 56.17614 67.25313
#
# Poissons Ratio (x) = 0.61098 0.06780
# Poissons Ratio (y) = 0.50693 0.13294
# Poissons Ratio (z) = 0.04699 0.11104
#
# Static dielectric constant tensor:
#      x y z
#    x 1.770310 0.000000 0.000000 
#    y 0.000000 1.894770 0.000000 
#    z 0.000000 0.000000 1.887000 
# 
# From -- ./inp_files/2139.got.cif
#   From: 2010.05.17/outbox.cif.g08.bks.cpg/sg52_2_cif.got.tgz:2139.got - 2010.06.03 12:15:38.
