data_PCOD9411965
_publ_section_title
;
Structure prediction by ZEFSAII (Michael W. Deem and Ramdas Pophale) SiO2 
 PCOD9411965
Probable space group: P N N A
;
_chemical_formula_sum "Si O2"
_cell_formula_units_Z 32
_cell_length_a 26.879375
_cell_length_b 6.272658
_cell_length_c 8.579210
_cell_angle_alpha 90.000000
_cell_angle_beta 90.000000
_cell_angle_gamma 90.000000
_cell_volume 1446.498788
_symmetry_space_group_name_H-M "P N N A"
_symmetry_group_IT_number 52
_symmetry_cell_setting 'orthorhombic'
loop_
_space_group_symop_operation_xyz
x,y,z
1/2-x,-y,z
x,1/2-y,1/2-z
1/2-x,1/2+y,1/2-z
-x,-y,-z
1/2+x,y,-z
-x,1/2+y,1/2+z
1/2+x,1/2-y,1/2+z
loop_
_atom_site_type_symbol
_atom_site_label
_atom_site_fract_x
_atom_site_fract_y
_atom_site_fract_z
Si Si1 0.617183 0.250000 0.250000
Si Si2 0.042449 0.899992 0.892410
Si Si3 0.195090 0.513322 0.958583
Si Si4 0.631200 0.645201 0.583327
Si Si5 0.666714 0.250000 0.750000
O O1 0.579638 0.417443 0.329648
O O2 0.653984 0.388591 0.141737
O O3 0.025159 0.750000 0.750000
O O4 0.080326 0.776275 0.005333
O O5 0.000000 0.000000 0.000000
O O6 0.250000 0.500000 0.889512
O O7 0.175896 0.756042 0.981862
O O8 0.196813 0.398833 0.129664
O O9 0.634435 0.750000 0.750000
O O10 0.635298 0.398903 0.632122
#
# Coordination Sequence:
#
# PCOD9411965 Si02
#       5
#     4   8   8   8   4
#     4  12  26  50  68 103 145 186 240 300 360 436
#     4  12  28  47  73 101 139 186 244 307 373 433
#     4  11  25  42  71 105 144 192 233 290 359 435
#     4  10  23  44  68 102 143 179 238 293 350 430
#     4  10  22  42  68 101 145 184 236 288 350 422
#
# _framework density 22.122384
#
# number of rings (size 3 to 8) (size 9 to 14) (size 15 to 20)
#    0.000    1.000    5.000    0.000    8.750    3.000 
#    0.000    0.000    0.000    0.000    0.000    0.000 
#    0.000    0.000    0.000    0.000    0.000    0.000 
#
# Total GULP energy -178519.405283 kJ/mol
# GULP energy per Si atom -5578.731415 kJ/mol
# Density = 2.207203 g / cm^3
# Si number density = 22.122384 Si / 1000 Ang^3
#
#
#
# Elastic Constant Matrix: (Units=GPa)
#
#
# Indices 1 2 3 4 5 6 
#
# 1 161.3652 43.7416 70.2953 0.0000 0.0000 0.0000
# 2 43.7416 88.5768 52.8839 0.0000 0.0000 0.0000
# 3 70.2953 52.8839 88.0332 0.0000 0.0000 0.0000
# 4 0.0000 0.0000 0.0000 28.9363 0.0000 0.0000
# 5 0.0000 0.0000 0.0000 0.0000 38.3056 0.0000
# 6 0.0000 0.0000 0.0000 0.0000 0.0000 31.0681
#
#
#
# Elastic Compliance Matrix: (Units=1/GPa)
#
#
# Indices 1 2 3 4 5 6 
#
# 1 0.009506 -0.000253 -0.007439 0.000000 0.000000 0.000000
# 2 -0.000253 0.017610 -0.010377 0.000000 0.000000 0.000000
# 3 -0.007439 -0.010377 0.023533 0.000000 0.000000 0.000000
# 4 0.000000 0.000000 0.000000 0.034559 0.000000 0.000000
# 5 0.000000 0.000000 0.000000 0.000000 0.026106 0.000000
# 6 0.000000 0.000000 0.000000 0.000000 0.000000 0.032187
#
#
# Mechanical properties :
#
#
# Convention : Reuss Voigt Hill
#
# Bulk Modulus (GPa) = 68.90897 74.64631 71.77764
# Shear Modulus (GPa) = 27.10392 31.06561 29.08476
#
# Velocity S-wave (km/s) = 3.50406 3.75141 3.62984
# Velocity P-wave (km/s) = 6.89839 7.25119 7.07699
#
# Compressibility (1/GPa) = 0.01451190
#
# Stress axis : x y z
#
# Youngs Moduli (GPa) = 105.19354 56.78620 42.49404
#
# Poissons Ratio (x) = 0.01438 0.31610
# Poissons Ratio (y) = 0.02664 0.44094
# Poissons Ratio (z) = 0.78251 0.58924
#
# Static dielectric constant tensor:
#      x y z
#    x 1.773870 0.000000 0.000000 
#    y 0.000000 1.933610 0.000000 
#    z 0.000000 0.000000 2.285980 
# 
# From -- ./inp_files/15185.got.cif
#   From: 2010.05.17/outbox.cif.g08.bks.cpg/sg52_8_cif.got.tgz:15185.got - 2010.06.03 12:15:38.
