data_PCOD9411816
_publ_section_title
;
Structure prediction by ZEFSAII (Michael W. Deem and Ramdas Pophale) SiO2 
 PCOD9411816
Probable space group: P N N A
;
_chemical_formula_sum "Si O2"
_cell_formula_units_Z 36
_cell_length_a 11.992025
_cell_length_b 5.024438
_cell_length_c 28.224604
_cell_angle_alpha 90.000000
_cell_angle_beta 90.000000
_cell_angle_gamma 90.000000
_cell_volume 1700.622318
_symmetry_space_group_name_H-M "P N N A"
_symmetry_group_IT_number 52
_symmetry_cell_setting 'orthorhombic'
loop_
_space_group_symop_operation_xyz
x,y,z
1/2-x,-y,z
x,1/2-y,1/2-z
1/2-x,1/2+y,1/2-z
-x,-y,-z
1/2+x,y,-z
-x,1/2+y,1/2+z
1/2+x,1/2-y,1/2+z
loop_
_atom_site_type_symbol
_atom_site_label
_atom_site_fract_x
_atom_site_fract_y
_atom_site_fract_z
Si Si1 0.131776 0.337809 0.596698
Si Si2 0.950592 0.328972 0.152134
Si Si3 0.830355 0.755320 0.608571
Si Si4 0.328236 0.250000 0.750000
Si Si5 0.332240 0.751411 0.005825
O O1 0.250000 0.500000 0.595713
O O2 0.061043 0.541995 0.627346
O O3 0.098102 0.286379 0.542182
O O4 0.117501 0.055260 0.623235
O O5 0.901790 0.321273 0.204547
O O6 0.083291 0.355459 0.148063
O O7 0.750000 0.500000 0.617523
O O8 0.891784 0.743339 0.556795
O O9 0.750000 0.000000 0.600493
O O10 0.250000 0.500000 0.737592
O O11 0.250000 0.500000 0.998374
O O12 0.250000 0.000000 0.009131
#
# Coordination Sequence:
#
# PCOD9411816 Si02
#       5
#     8   8   8   4   8
#     4  11  21  36  59  90 123 154 196 245 292 359
#     4  12  24  39  63  88 115 160 203 238 302 356
#     4  10  22  41  60  85 122 158 197 246 288 342
#     4  12  26  44  64  90 122 148 186 248 304 354
#     4   9  18  33  55  83 120 158 191 237 293 341
#
# _framework density 21.168718999999999
#
# number of rings (size 3 to 8) (size 9 to 14) (size 15 to 20)
#    0.000    1.333    0.000    8.000    0.000    1.778 
#    0.000    1.111    0.000    0.000    0.000    0.000 
#    0.000    0.000    0.000    0.000    0.000    0.000 
#
# Total GULP energy -200755.326049 kJ/mol
# GULP energy per Si atom -5576.536835 kJ/mol
# Density = 2.112054 g / cm^3
# Si number density = 21.168719 Si / 1000 Ang^3
#
#
#
# Elastic Constant Matrix: (Units=GPa)
#
#
# Indices 1 2 3 4 5 6 
#
# 1 52.8828 4.3434 50.4192 0.0000 0.0000 0.0000
# 2 4.3434 124.3860 19.7234 0.0000 0.0000 0.0000
# 3 50.4192 19.7234 141.5061 0.0000 0.0000 0.0000
# 4 0.0000 0.0000 0.0000 18.5819 0.0000 0.0000
# 5 0.0000 0.0000 0.0000 0.0000 10.1477 0.0000
# 6 0.0000 0.0000 0.0000 0.0000 0.0000 25.8636
#
#
#
# Elastic Compliance Matrix: (Units=1/GPa)
#
#
# Indices 1 2 3 4 5 6 
#
# 1 0.028687 0.000633 -0.010310 0.000000 0.000000 0.000000
# 2 0.000633 0.008235 -0.001373 0.000000 0.000000 0.000000
# 3 -0.010310 -0.001373 0.010932 0.000000 0.000000 0.000000
# 4 0.000000 0.000000 0.000000 0.053816 0.000000 0.000000
# 5 0.000000 0.000000 0.000000 0.000000 0.098544 0.000000
# 6 0.000000 0.000000 0.000000 0.000000 0.000000 0.038664
#
#
# Mechanical properties :
#
#
# Convention : Reuss Voigt Hill
#
# Bulk Modulus (GPa) = 38.82898 51.97189 45.40043
# Shear Modulus (GPa) = 18.54857 27.20457 22.87657
#
# Velocity S-wave (km/s) = 2.96332 3.58876 3.29093
# Velocity P-wave (km/s) = 5.48551 6.46350 5.99448
#
# Compressibility (1/GPa) = 0.02575396
#
# Stress axis : x y z
#
# Youngs Moduli (GPa) = 34.85900 121.43063 91.47799
#
# Poissons Ratio (x) = -0.07687 0.94310
# Poissons Ratio (y) = -0.02207 0.12563
# Poissons Ratio (z) = 0.35938 0.16677
#
# Static dielectric constant tensor:
#      x y z
#    x 1.785120 0.000000 0.000000 
#    y 0.000000 1.774730 0.000000 
#    z 0.000000 0.000000 1.781190 
# 
# From -- ./inp_files/39890.got.cif
#   From: 2010.05.17/outbox.cif.g08.bks.cpg/sg52_20_cif.got.tgz:39890.got - 2010.06.03 12:15:38.
