data_PCOD9411841
_publ_section_title
;
Structure prediction by ZEFSAII (Michael W. Deem and Ramdas Pophale) SiO2 
 PCOD9411841
Probable space group: P N N A
;
_chemical_formula_sum "Si O2"
_cell_formula_units_Z 40
_cell_length_a 18.831594
_cell_length_b 12.181934
_cell_length_c 8.500528
_cell_angle_alpha 90.000000
_cell_angle_beta 90.000000
_cell_angle_gamma 90.000000
_cell_volume 1950.065625
_symmetry_space_group_name_H-M "P N N A"
_symmetry_group_IT_number 52
_symmetry_cell_setting 'orthorhombic'
loop_
_space_group_symop_operation_xyz
x,y,z
1/2-x,-y,z
x,1/2-y,1/2-z
1/2-x,1/2+y,1/2-z
-x,-y,-z
1/2+x,y,-z
-x,1/2+y,1/2+z
1/2+x,1/2-y,1/2+z
loop_
_atom_site_type_symbol
_atom_site_label
_atom_site_fract_x
_atom_site_fract_y
_atom_site_fract_z
Si Si1 0.061694 0.524241 0.379944
Si Si2 0.137982 0.077120 0.371005
Si Si3 0.791859 0.164819 0.612378
Si Si4 0.099199 0.724622 0.571177
Si Si5 0.973808 0.838359 0.373379
O O1 0.100843 0.420606 0.300856
O O2 0.108791 0.605746 0.487921
O O3 0.000000 0.500000 0.500000
O O4 0.020360 0.578677 0.232176
O O5 0.207716 0.150819 0.388261
O O6 0.082820 0.104476 0.510832
O O7 0.169837 0.952898 0.369160
O O8 0.812195 0.250000 0.750000
O O9 0.826926 0.213512 0.457385
O O10 0.080038 0.750000 0.750000
O O11 0.033569 0.775258 0.473604
O O12 0.941326 0.750000 0.250000
#
# Coordination Sequence:
#
# PCOD9411841 Si02
#       5
#     8   8   8   8   8
#     4  11  22  38  68 101 128 167 225 279 340 401
#     4  11  23  40  69  93 131 179 219 270 342 400
#     4  11  23  43  64  89 132 181 218 271 335 408
#     4  11  22  40  66  93 130 174 217 279 341 395
#     4  10  22  41  64  95 135 162 216 285 334 394
#
# _framework density 20.512131
#
# number of rings (size 3 to 8) (size 9 to 14) (size 15 to 20)
#    0.000    1.200    4.000    2.400    2.800    4.800 
#    0.000    0.000    0.000    0.000    0.000    0.000 
#    0.000    0.000    0.000    0.000    0.000    0.000 
#
# Total GULP energy -222958.905660 kJ/mol
# GULP energy per Si atom -5573.972642 kJ/mol
# Density = 2.046544 g / cm^3
# Si number density = 20.512131 Si / 1000 Ang^3
#
#
#
# Elastic Constant Matrix: (Units=GPa)
#
#
# Indices 1 2 3 4 5 6 
#
# 1 104.2721 25.3291 48.3274 0.0000 0.0000 0.0000
# 2 25.3291 45.6938 27.9445 0.0000 0.0000 0.0000
# 3 48.3274 27.9445 142.0556 0.0000 0.0000 0.0000
# 4 0.0000 0.0000 0.0000 29.9287 0.0000 0.0000
# 5 0.0000 0.0000 0.0000 0.0000 27.8592 0.0000
# 6 0.0000 0.0000 0.0000 0.0000 0.0000 32.0038
#
#
#
# Elastic Compliance Matrix: (Units=1/GPa)
#
#
# Indices 1 2 3 4 5 6 
#
# 1 0.012254 -0.004824 -0.003220 0.000000 0.000000 0.000000
# 2 -0.004824 0.026776 -0.003626 0.000000 0.000000 0.000000
# 3 -0.003220 -0.003626 0.008848 0.000000 0.000000 0.000000
# 4 0.000000 0.000000 0.000000 0.033413 0.000000 0.000000
# 5 0.000000 0.000000 0.000000 0.000000 0.035895 0.000000
# 6 0.000000 0.000000 0.000000 0.000000 0.000000 0.031246
#
#
# Mechanical properties :
#
#
# Convention : Reuss Voigt Hill
#
# Bulk Modulus (GPa) = 40.75134 55.02482 47.88808
# Shear Modulus (GPa) = 27.78508 30.65304 29.21906
#
# Velocity S-wave (km/s) = 3.68444 3.86992 3.77832
# Velocity P-wave (km/s) = 6.16524 6.84486 6.51392
#
# Compressibility (1/GPa) = 0.02453907
#
# Stress axis : x y z
#
# Youngs Moduli (GPa) = 81.60297 37.34634 113.01576
#
# Poissons Ratio (x) = 0.18015 0.36392
# Poissons Ratio (y) = 0.39362 0.40983
# Poissons Ratio (z) = 0.26277 0.13543
#
# Static dielectric constant tensor:
#      x y z
#    x 1.748500 0.000000 0.000000 
#    y 0.000000 1.855130 0.000000 
#    z 0.000000 0.000000 1.745640 
# 
# From -- ./inp_files/11628.got.cif
#   From: 2010.05.17/outbox.cif.g08.bks.cpg/sg52_6_cif.got.tgz:11628.got - 2010.06.03 12:15:38.
