data_PCOD9411908
_publ_section_title
;
Structure prediction by ZEFSAII (Michael W. Deem and Ramdas Pophale) SiO2 
 PCOD9411908
Probable space group: P N N A
;
_chemical_formula_sum "Si O2"
_cell_formula_units_Z 60
_cell_length_a 8.037024
_cell_length_b 28.954565
_cell_length_c 12.149118
_cell_angle_alpha 90.000000
_cell_angle_beta 90.000000
_cell_angle_gamma 90.000000
_cell_volume 2827.203437
_symmetry_space_group_name_H-M "P N N A"
_symmetry_group_IT_number 52
_symmetry_cell_setting 'orthorhombic'
loop_
_space_group_symop_operation_xyz
x,y,z
1/2-x,-y,z
x,1/2-y,1/2-z
1/2-x,1/2+y,1/2-z
-x,-y,-z
1/2+x,y,-z
-x,1/2+y,1/2+z
1/2+x,1/2-y,1/2+z
loop_
_atom_site_type_symbol
_atom_site_label
_atom_site_fract_x
_atom_site_fract_y
_atom_site_fract_z
Si Si1 0.285065 0.547170 0.328828
Si Si2 0.398679 0.250000 0.750000
Si Si3 0.798577 0.861145 0.122668
Si Si4 0.153477 0.661170 0.840387
Si Si5 0.647758 0.856141 0.765550
Si Si6 0.708959 0.178059 0.555910
Si Si7 0.670383 0.214423 0.926416
Si Si8 0.146683 0.955111 0.942967
O O1 0.250000 0.500000 0.260235
O O2 0.251250 0.596346 0.273360
O O3 0.144688 0.540333 0.424752
O O4 0.469771 0.548962 0.382905
O O5 0.286396 0.287965 0.805331
O O6 0.509914 0.226115 0.847105
O O7 0.662265 0.861676 0.221684
O O8 0.750254 0.907677 0.061875
O O9 0.967219 0.866215 0.189094
O O10 0.827304 0.818888 0.035261
O O11 0.967100 0.667563 0.886072
O O12 0.264634 0.649270 0.944674
O O13 0.652721 0.837366 0.642603
O O14 0.718779 0.815281 0.842548
O O15 0.726326 0.233650 0.542485
O O16 0.250000 0.000000 0.902503
#
# Coordination Sequence:
#
# PCOD9411908 Si02
#       8
#     8   4   8   8   8   8   8   8
#     4  11  22  38  63  93 129 167 210 265 334 396
#     4  10  22  42  58  90 128 168 214 274 326 380
#     4  12  26  37  67  96 128 171 226 264 330 394
#     4  11  23  42  60  89 120 172 218 273 319 379
#     4  12  23  40  63  92 127 171 215 264 329 386
#     4  11  24  43  63  83 132 172 225 273 324 378
#     4  11  23  39  61  87 128 169 216 269 323 380
#     4  11  22  38  60  93 131 166 206 269 332 399
#
# _framework density 21.222384000000002
#
# number of rings (size 3 to 8) (size 9 to 14) (size 15 to 20)
#    0.000    0.800    4.000    5.600    5.600    0.000 
#    4.800    0.000    0.000    0.800    0.000    5.600 
#    0.000    0.000    0.000    0.000    0.000    0.000 
#
# Total GULP energy -334346.182341 kJ/mol
# GULP energy per Si atom -5572.436372 kJ/mol
# Density = 2.117408 g / cm^3
# Si number density = 21.222384 Si / 1000 Ang^3
#
#
#
# Elastic Constant Matrix: (Units=GPa)
#
#
# Indices 1 2 3 4 5 6 
#
# 1 56.2194 28.4999 11.0925 0.0000 0.0000 0.0000
# 2 28.4999 113.0718 27.8014 0.0000 0.0000 0.0000
# 3 11.0925 27.8014 110.2465 0.0000 0.0000 0.0000
# 4 0.0000 0.0000 0.0000 8.1699 0.0000 0.0000
# 5 0.0000 0.0000 0.0000 0.0000 28.2105 0.0000
# 6 0.0000 0.0000 0.0000 0.0000 0.0000 27.5540
#
#
#
# Elastic Compliance Matrix: (Units=1/GPa)
#
#
# Indices 1 2 3 4 5 6 
#
# 1 0.020461 -0.004958 -0.000808 0.000000 0.000000 0.000000
# 2 -0.004958 0.010630 -0.002182 0.000000 0.000000 0.000000
# 3 -0.000808 -0.002182 0.009702 0.000000 0.000000 0.000000
# 4 0.000000 0.000000 0.000000 0.122400 0.000000 0.000000
# 5 0.000000 0.000000 0.000000 0.000000 0.035448 0.000000
# 6 0.000000 0.000000 0.000000 0.000000 0.000000 0.036292
#
#
# Mechanical properties :
#
#
# Convention : Reuss Voigt Hill
#
# Bulk Modulus (GPa) = 40.16718 46.03617 43.10167
# Shear Modulus (GPa) = 19.29542 26.92980 23.11261
#
# Velocity S-wave (km/s) = 3.01857 3.56607 3.30368
# Velocity P-wave (km/s) = 5.57825 6.22055 5.90813
#
# Compressibility (1/GPa) = 0.02489594
#
# Stress axis : x y z
#
# Youngs Moduli (GPa) = 48.87456 94.07214 103.07049
#
# Poissons Ratio (x) = 0.46644 0.08331
# Poissons Ratio (y) = 0.24234 0.22488
# Poissons Ratio (z) = 0.03950 0.20524
#
# Static dielectric constant tensor:
#      x y z
#    x 1.840560 0.000000 0.000000 
#    y 0.000000 1.881410 0.000000 
#    z 0.000000 0.000000 1.818680 
# 
# From -- ./inp_files/17209.got.cif
#   From: 2010.05.17/outbox.cif.g08.bks.cpg/sg52_9_cif.got.tgz:17209.got - 2010.06.03 12:15:38.
