data_PCOD9411912
_publ_section_title
;
Structure prediction by ZEFSAII (Michael W. Deem and Ramdas Pophale) SiO2 
 PCOD9411912
Probable space group: P N N A
;
_chemical_formula_sum "Si O2"
_cell_formula_units_Z 52
_cell_length_a 8.463001
_cell_length_b 15.420537
_cell_length_c 19.298458
_cell_angle_alpha 90.000000
_cell_angle_beta 90.000000
_cell_angle_gamma 90.000000
_cell_volume 2518.526350
_symmetry_space_group_name_H-M "P N N A"
_symmetry_group_IT_number 52
_symmetry_cell_setting 'orthorhombic'
loop_
_space_group_symop_operation_xyz
x,y,z
1/2-x,-y,z
x,1/2-y,1/2-z
1/2-x,1/2+y,1/2-z
-x,-y,-z
1/2+x,y,-z
-x,1/2+y,1/2+z
1/2+x,1/2-y,1/2+z
loop_
_atom_site_type_symbol
_atom_site_label
_atom_site_fract_x
_atom_site_fract_y
_atom_site_fract_z
Si Si1 0.006158 0.609254 0.650594
Si Si2 0.250000 0.000000 0.235072
Si Si3 0.353930 0.665493 0.489401
Si Si4 0.081345 0.950432 0.565009
Si Si5 0.250000 0.500000 0.565475
Si Si6 0.707164 0.125941 0.651596
Si Si7 0.095567 0.788074 0.471783
Si Si8 0.514709 0.250000 0.750000
O O1 0.881412 0.545809 0.688158
O O2 0.924811 0.660227 0.587290
O O3 0.073196 0.675442 0.707844
O O4 0.138813 0.554529 0.614581
O O5 0.197277 0.925760 0.289262
O O6 0.351094 0.570193 0.522024
O O7 0.173491 0.693796 0.480804
O O8 0.418141 0.750921 0.530300
O O9 0.113341 0.854232 0.535304
O O10 0.937119 0.933214 0.619704
O O11 0.250000 0.000000 0.582448
O O12 0.000000 0.000000 0.500000
O O13 0.822222 0.162873 0.592299
O O14 0.622930 0.202605 0.693379
#
# Coordination Sequence:
#
# PCOD9411912 Si02
#       8
#     8   4   8   8   4   8   8   4
#     4  11  23  44  65  94 128 176 220 273 328 395
#     4  10  25  42  68  86 129 186 228 254 312 408
#     4  12  24  41  69 102 131 166 216 281 355 393
#     4  12  22  39  67 101 139 169 214 283 345 400
#     4  12  27  42  68 102 135 164 222 296 344 398
#     4  11  22  41  64  95 130 176 224 269 328 404
#     4  12  22  39  67 101 133 168 212 279 346 404
#     4  10  22  42  62  82 130 180 214 260 316 392
#
# _framework density 20.646993999999999
#
# number of rings (size 3 to 8) (size 9 to 14) (size 15 to 20)
#    0.000    0.615    6.154    1.846    2.154    0.000 
#    5.538    1.538    0.000    0.000    0.000    0.000 
#    0.000    0.000    0.000    0.000    0.000    0.000 
#
# Total GULP energy -289685.088756 kJ/mol
# GULP energy per Si atom -5570.867091 kJ/mol
# Density = 2.060000 g / cm^3
# Si number density = 20.646994 Si / 1000 Ang^3
#
#
#
# Elastic Constant Matrix: (Units=GPa)
#
#
# Indices 1 2 3 4 5 6 
#
# 1 47.1707 28.1502 34.3654 0.0000 0.0000 0.0000
# 2 28.1502 110.3333 43.8485 0.0000 0.0000 0.0000
# 3 34.3654 43.8485 107.4810 0.0000 0.0000 0.0000
# 4 0.0000 0.0000 0.0000 64.7890 0.0000 0.0000
# 5 0.0000 0.0000 0.0000 0.0000 64.4916 0.0000
# 6 0.0000 0.0000 0.0000 0.0000 0.0000 49.1820
#
#
#
# Elastic Compliance Matrix: (Units=1/GPa)
#
#
# Indices 1 2 3 4 5 6 
#
# 1 0.029392 -0.004493 -0.007565 0.000000 0.000000 0.000000
# 2 -0.004493 0.011504 -0.003257 0.000000 0.000000 0.000000
# 3 -0.007565 -0.003257 0.013051 0.000000 0.000000 0.000000
# 4 0.000000 0.000000 0.000000 0.015435 0.000000 0.000000
# 5 0.000000 0.000000 0.000000 0.000000 0.015506 0.000000
# 6 0.000000 0.000000 0.000000 0.000000 0.000000 0.020333
#
#
# Mechanical properties :
#
#
# Convention : Reuss Voigt Hill
#
# Bulk Modulus (GPa) = 42.88371 53.07925 47.98148
# Shear Modulus (GPa) = 34.81368 46.26725 40.54046
#
# Velocity S-wave (km/s) = 4.11072 4.73892 4.43595
# Velocity P-wave (km/s) = 6.58374 7.46371 7.03749
#
# Compressibility (1/GPa) = 0.02331888
#
# Stress axis : x y z
#
# Youngs Moduli (GPa) = 34.02303 86.92634 76.62048
#
# Poissons Ratio (x) = 0.39053 0.57962
# Poissons Ratio (y) = 0.15285 0.24954
# Poissons Ratio (z) = 0.25738 0.28310
#
# Static dielectric constant tensor:
#      x y z
#    x 2.747050 0.000000 0.000000 
#    y 0.000000 1.892660 0.000000 
#    z 0.000000 0.000000 1.724080 
# 
# From -- ./inp_files/35997.got.cif
#   From: 2010.05.17/outbox.cif.g08.bks.cpg/sg52_18_cif.got.tgz:35997.got - 2010.06.03 12:15:38.
