data_PCOD9411565
_publ_section_title
;
Structure prediction by ZEFSAII (Michael W. Deem and Ramdas Pophale) SiO2 
 PCOD9411565
Probable space group: P N N A
;
_chemical_formula_sum "Si O2"
_cell_formula_units_Z 52
_cell_length_a 13.855989
_cell_length_b 20.510203
_cell_length_c 8.960722
_cell_angle_alpha 90.000000
_cell_angle_beta 90.000000
_cell_angle_gamma 90.000000
_cell_volume 2546.539943
_symmetry_space_group_name_H-M "P N N A"
_symmetry_group_IT_number 52
_symmetry_cell_setting 'orthorhombic'
loop_
_space_group_symop_operation_xyz
x,y,z
1/2-x,-y,z
x,1/2-y,1/2-z
1/2-x,1/2+y,1/2-z
-x,-y,-z
1/2+x,y,-z
-x,1/2+y,1/2+z
1/2+x,1/2-y,1/2+z
loop_
_atom_site_type_symbol
_atom_site_label
_atom_site_fract_x
_atom_site_fract_y
_atom_site_fract_z
Si Si1 0.315339 0.178928 0.298641
Si Si2 0.454542 0.084826 0.144218
Si Si3 0.537262 0.750000 0.250000
Si Si4 0.357539 0.675205 0.692070
Si Si5 0.478853 0.055560 0.800455
Si Si6 0.876687 0.828497 0.859558
Si Si7 0.329926 0.364747 0.861124
O O1 0.355968 0.250000 0.250000
O O2 0.361049 0.122315 0.199110
O O3 0.202124 0.183162 0.265974
O O4 0.331162 0.156457 0.467291
O O5 0.542820 0.134623 0.179609
O O6 0.481057 0.016752 0.221852
O O7 0.441444 0.065639 0.970509
O O8 0.462022 0.774799 0.125647
O O9 0.606645 0.691135 0.216622
O O10 0.367572 0.750000 0.750000
O O11 0.323806 0.672589 0.518867
O O12 0.277422 0.639537 0.793910
O O13 0.567541 0.106692 0.805809
O O14 0.393194 0.072458 0.685107
#
# Coordination Sequence:
#
# PCOD9411565 Si02
#       7
#     8   8   4   8   8   8   8
#     4  12  25  38  62  96 126 163 201 261 311 380
#     4  10  23  41  66  90 127 162 220 251 305 374
#     4  10  22  38  60  88 122 162 190 258 304 372
#     4  11  22  37  63  94 122 162 201 262 308 373
#     4   9  22  45  64  90 119 176 209 257 304 366
#     4  10  22  39  64  86 125 160 208 248 312 366
#     4  11  24  38  64  90 129 159 206 256 317 363
#
# _framework density 20.419864
#
# number of rings (size 3 to 8) (size 9 to 14) (size 15 to 20)
#    0.000    1.538    1.538    2.308    8.615    3.077 
#    0.000    6.154    0.000    0.000    0.000    0.000 
#    0.000    0.000    0.000    0.000    0.000    0.000 
#
# Total GULP energy -289928.627451 kJ/mol
# GULP energy per Si atom -5575.550528 kJ/mol
# Density = 2.037339 g / cm^3
# Si number density = 20.419864 Si / 1000 Ang^3
#
#
#
# Elastic Constant Matrix: (Units=GPa)
#
#
# Indices 1 2 3 4 5 6 
#
# 1 43.6870 -0.3653 11.1170 0.0000 0.0000 0.0000
# 2 -0.3653 64.4152 -3.6173 0.0000 0.0000 0.0000
# 3 11.1170 -3.6173 54.0022 0.0000 0.0000 0.0000
# 4 0.0000 0.0000 0.0000 24.5355 0.0000 0.0000
# 5 0.0000 0.0000 0.0000 0.0000 22.1290 0.0000
# 6 0.0000 0.0000 0.0000 0.0000 0.0000 7.9006
#
#
#
# Elastic Compliance Matrix: (Units=1/GPa)
#
#
# Indices 1 2 3 4 5 6 
#
# 1 0.024157 -0.000143 -0.004983 0.000000 0.000000 0.000000
# 2 -0.000143 0.015584 0.001073 0.000000 0.000000 0.000000
# 3 -0.004983 0.001073 0.019615 0.000000 0.000000 0.000000
# 4 0.000000 0.000000 0.000000 0.040757 0.000000 0.000000
# 5 0.000000 0.000000 0.000000 0.000000 0.045190 0.000000
# 6 0.000000 0.000000 0.000000 0.000000 0.000000 0.126572
#
#
# Mechanical properties :
#
#
# Convention : Reuss Voigt Hill
#
# Bulk Modulus (GPa) = 19.51151 19.59701 19.55426
# Shear Modulus (GPa) = 16.83146 21.24437 19.03791
#
# Velocity S-wave (km/s) = 2.87412 3.22899 3.05671
# Velocity P-wave (km/s) = 4.53762 4.84971 4.69626
#
# Compressibility (1/GPa) = 0.05125181
#
# Stress axis : x y z
#
# Youngs Moduli (GPa) = 41.39624 64.16939 50.98042
#
# Poissons Ratio (x) = 0.00916 0.25401
# Poissons Ratio (y) = 0.00591 -0.05472
# Poissons Ratio (z) = 0.20626 -0.06887
#
# Static dielectric constant tensor:
#      x y z
#    x 1.707800 0.000000 0.000000 
#    y 0.000000 1.784130 0.000000 
#    z 0.000000 0.000000 1.765830 
# 
# From -- ./inp_files/10702.got.cif
#   From: 2010.05.17/outbox.cif.g08.bks.cpg/sg52_6_cif.got.tgz:10702.got - 2010.06.03 12:15:38.
