data_PCOD9411903
_publ_section_title
;
Structure prediction by ZEFSAII (Michael W. Deem and Ramdas Pophale) SiO2 
 PCOD9411903
Probable space group: P N N A
;
_chemical_formula_sum "Si O2"
_cell_formula_units_Z 24
_cell_length_a 11.042151
_cell_length_b 9.989682
_cell_length_c 8.162049
_cell_angle_alpha 90.000000
_cell_angle_beta 90.000000
_cell_angle_gamma 90.000000
_cell_volume 900.335849
_symmetry_space_group_name_H-M "P N N A"
_symmetry_group_IT_number 52
_symmetry_cell_setting 'orthorhombic'
loop_
_space_group_symop_operation_xyz
x,y,z
1/2-x,-y,z
x,1/2-y,1/2-z
1/2-x,1/2+y,1/2-z
-x,-y,-z
1/2+x,y,-z
-x,1/2+y,1/2+z
1/2+x,1/2-y,1/2+z
loop_
_atom_site_type_symbol
_atom_site_label
_atom_site_fract_x
_atom_site_fract_y
_atom_site_fract_z
Si Si1 0.628987 0.027486 0.704778
Si Si2 0.435649 0.250000 0.750000
Si Si3 0.774575 0.644835 0.456800
Si Si4 0.488413 0.750000 0.750000
O O1 0.515843 0.126446 0.684531
O O2 0.750000 0.000000 0.595573
O O3 0.567179 0.883874 0.734898
O O4 0.691788 0.107737 0.858011
O O5 0.347227 0.282293 0.596788
O O6 0.750000 0.500000 0.374426
O O7 0.891900 0.721056 0.393634
#
# Coordination Sequence:
#
# PCOD9411903 Si02
#       4
#     8   4   8   4
#     4  11  24  42  71 101 139 190 238 295 358 424
#     4  11  23  44  72 104 145 189 242 296 356 433
#     4  10  22  41  74  96 136 198 232 288 369 413
#     4  11  21  40  70 100 135 183 246 290 346 437
#
# _framework density 26.656718000000001
#
# number of rings (size 3 to 8) (size 9 to 14) (size 15 to 20)
#    0.000    1.333    3.333    2.000    4.667    0.000 
#    0.000    1.667   14.667    0.000    0.000    0.000 
#    0.000    0.000    0.000    0.000    0.000    0.000 
#
# Total GULP energy -134002.758642 kJ/mol
# GULP energy per Si atom -5583.448277 kJ/mol
# Density = 2.659605 g / cm^3
# Si number density = 26.656718 Si / 1000 Ang^3
#
#
#
# Elastic Constant Matrix: (Units=GPa)
#
#
# Indices 1 2 3 4 5 6 
#
# 1 289.4947 146.8147 29.8114 0.0000 0.0000 0.0000
# 2 146.8147 227.0604 36.0686 0.0000 0.0000 0.0000
# 3 29.8114 36.0686 58.2972 0.0000 0.0000 0.0000
# 4 0.0000 0.0000 0.0000 22.8513 0.0000 0.0000
# 5 0.0000 0.0000 0.0000 0.0000 40.0305 0.0000
# 6 0.0000 0.0000 0.0000 0.0000 0.0000 92.3552
#
#
#
# Elastic Compliance Matrix: (Units=1/GPa)
#
#
# Indices 1 2 3 4 5 6 
#
# 1 0.005161 -0.003236 -0.000637 0.000000 0.000000 0.000000
# 2 -0.003236 0.006913 -0.002622 0.000000 0.000000 0.000000
# 3 -0.000637 -0.002622 0.019102 0.000000 0.000000 0.000000
# 4 0.000000 0.000000 0.000000 0.043761 0.000000 0.000000
# 5 0.000000 0.000000 0.000000 0.000000 0.024981 0.000000
# 6 0.000000 0.000000 0.000000 0.000000 0.000000 0.010828
#
#
# Mechanical properties :
#
#
# Convention : Reuss Voigt Hill
#
# Bulk Modulus (GPa) = 54.99035 111.13797 83.06416
# Shear Modulus (GPa) = 38.52151 55.19124 46.85637
#
# Velocity S-wave (km/s) = 3.80557 4.55515 4.19712
# Velocity P-wave (km/s) = 6.32326 8.33359 7.39704
#
# Compressibility (1/GPa) = 0.01818501
#
# Stress axis : x y z
#
# Youngs Moduli (GPa) = 193.76472 144.65738 52.35122
#
# Poissons Ratio (x) = 0.46808 0.03336
# Poissons Ratio (y) = 0.62698 0.13728
# Poissons Ratio (z) = 0.12346 0.37934
#
# Static dielectric constant tensor:
#      x y z
#    x 2.126220 0.000000 0.000000 
#    y 0.000000 2.178860 0.000000 
#    z 0.000000 0.000000 2.273900 
# 
# From -- ./inp_files/17432.got.cif
#   From: 2010.05.17/outbox.cif.g08.bks.cpg/sg52_9_cif.got.tgz:17432.got - 2010.06.03 12:15:38.
