data_PCOD9411715
_publ_section_title
;
Structure prediction by ZEFSAII (Michael W. Deem and Ramdas Pophale) SiO2 
 PCOD9411715
Probable space group: P N N A
;
_chemical_formula_sum "Si O2"
_cell_formula_units_Z 32
_cell_length_a 12.266120
_cell_length_b 4.994358
_cell_length_c 26.300451
_cell_angle_alpha 90.000000
_cell_angle_beta 90.000000
_cell_angle_gamma 90.000000
_cell_volume 1611.202306
_symmetry_space_group_name_H-M "P N N A"
_symmetry_group_IT_number 52
_symmetry_cell_setting 'orthorhombic'
loop_
_space_group_symop_operation_xyz
x,y,z
1/2-x,-y,z
x,1/2-y,1/2-z
1/2-x,1/2+y,1/2-z
-x,-y,-z
1/2+x,y,-z
-x,1/2+y,1/2+z
1/2+x,1/2-y,1/2+z
loop_
_atom_site_type_symbol
_atom_site_label
_atom_site_fract_x
_atom_site_fract_y
_atom_site_fract_z
Si Si1 0.675979 0.245100 0.471348
Si Si2 0.996642 0.370149 0.611771
Si Si3 0.622519 0.000464 0.213565
Si Si4 0.632102 0.373388 0.916146
O O1 0.750000 0.500000 0.486546
O O2 0.588108 0.360546 0.432212
O O3 0.622549 0.124815 0.522447
O O4 0.750000 0.000000 0.449764
O O5 0.897933 0.571611 0.598858
O O6 0.050346 0.468206 0.663736
O O7 0.952543 0.068303 0.611613
O O8 0.604891 0.250000 0.250000
O O9 0.750000 0.000000 0.197888
O O10 0.600981 0.750000 0.250000
O O11 0.750000 0.500000 0.904854
#
# Coordination Sequence:
#
# PCOD9411715 Si02
#       4
#     8   8   8   8
#     4  11  22  37  58  91 127 156 196 245 297 360
#     4  12  22  38  64  86 116 161 203 240 298 362
#     4  10  22  40  62  90 119 145 185 247 311 364
#     4  11  23  39  57  85 123 162 202 244 286 342
#
# _framework density 19.860945000000001
#
# number of rings (size 3 to 8) (size 9 to 14) (size 15 to 20)
#    0.000    1.000    0.000    9.000    0.000    3.000 
#    0.000    0.000    0.000   15.000    0.000    0.000 
#    0.000    0.000    0.000    0.000    0.000    0.000 
#
# Total GULP energy -178789.927379 kJ/mol
# GULP energy per Si atom -5587.185231 kJ/mol
# Density = 1.981574 g / cm^3
# Si number density = 19.860945 Si / 1000 Ang^3
#
#
#
# Elastic Constant Matrix: (Units=GPa)
#
#
# Indices 1 2 3 4 5 6 
#
# 1 65.4685 22.2007 53.1300 0.0000 0.0000 0.0000
# 2 22.2007 122.5156 10.2210 0.0000 0.0000 0.0000
# 3 53.1300 10.2210 79.9334 0.0000 0.0000 0.0000
# 4 0.0000 0.0000 0.0000-8733.3037 0.0000 0.0000
# 5 0.0000 0.0000 0.0000 0.0000 27.4178 0.0000
# 6 0.0000 0.0000 0.0000 0.0000 0.0000 45.8085
#
#
#
# Elastic Compliance Matrix: (Units=1/GPa)
#
#
# Indices 1 2 3 4 5 6 
#
# 1 0.035466 -0.004508 -0.022997 0.000000 0.000000 0.000000
# 2 -0.004508 0.008823 0.001868 0.000000 0.000000 0.000000
# 3 -0.022997 0.001868 0.027557 0.000000 0.000000 0.000000
# 4 0.000000 0.000000 0.000000 -0.000115 0.000000 0.000000
# 5 0.000000 0.000000 0.000000 0.000000 0.036473 0.000000
# 6 0.000000 0.000000 0.000000 0.000000 0.000000 0.021830
#
#
# Mechanical properties :
#
#
# Convention : Reuss Voigt Hill
#
# Bulk Modulus (GPa) = 48.60837 48.78009 48.69423
# Shear Modulus (GPa) = 26.57216 -1719.85776 -846.64280
#
# Velocity S-wave (km/s) = 3.66171 -29.45895 -20.66908
# Velocity P-wave (km/s) = 6.51191 33.65252 23.34617
#
# Compressibility (1/GPa) = 0.02057259
#
# Stress axis : x y z
#
# Youngs Moduli (GPa) = 28.19577 113.33661 36.28803
#
# Poissons Ratio (x) = 0.51094 0.83452
# Poissons Ratio (y) = 0.12711 -0.06780
# Poissons Ratio (z) = 0.64842 -0.21174
#
# Static dielectric constant tensor:
#      x y z
#    x 1.722610 0.000000 0.000000 
#    y 0.000000 1.680940 0.000000 
#    z 0.000000 0.000000 1.640590 
# 
# From -- ./inp_files/36440.got.cif
#   From: 2010.05.17/outbox.cif.g08.bks.cpg/sg52_19_cif.got.tgz:36440.got - 2010.06.03 12:15:38.
