data_PCOD9411173
_publ_section_title
;
Structure prediction by ZEFSAII (Michael W. Deem and Ramdas Pophale) SiO2 
 PCOD9411173
Probable space group: P N N A
;
_chemical_formula_sum "Si O2"
_cell_formula_units_Z 56
_cell_length_a 9.035966
_cell_length_b 16.703022
_cell_length_c 18.949324
_cell_angle_alpha 90.000000
_cell_angle_beta 90.000000
_cell_angle_gamma 90.000000
_cell_volume 2859.982415
_symmetry_space_group_name_H-M "P N N A"
_symmetry_group_IT_number 52
_symmetry_cell_setting 'orthorhombic'
loop_
_space_group_symop_operation_xyz
x,y,z
1/2-x,-y,z
x,1/2-y,1/2-z
1/2-x,1/2+y,1/2-z
-x,-y,-z
1/2+x,y,-z
-x,1/2+y,1/2+z
1/2+x,1/2-y,1/2+z
loop_
_atom_site_type_symbol
_atom_site_label
_atom_site_fract_x
_atom_site_fract_y
_atom_site_fract_z
Si Si1 0.298641 0.272235 0.176349
Si Si2 0.084645 0.465184 0.066643
Si Si3 0.603627 0.549760 0.793544
Si Si4 0.769111 0.190654 0.065621
Si Si5 0.379742 0.445748 0.461449
Si Si6 0.916906 0.774438 0.551269
Si Si7 0.040646 0.139547 0.832920
O O1 0.219294 0.250000 0.250000
O O2 0.334810 0.366261 0.174700
O O3 0.200979 0.246799 0.110104
O O4 0.448128 0.220629 0.178767
O O5 0.250000 0.500000 0.062962
O O6 0.031746 0.497734 0.143306
O O7 0.079279 0.369985 0.058188
O O8 0.000000 0.500000 0.000000
O O9 0.750000 0.500000 0.768381
O O10 0.492737 0.579597 0.732104
O O11 0.704273 0.162742 0.140906
O O12 0.921715 0.239432 0.067062
O O13 0.805057 0.113512 0.017773
O O14 0.645802 0.242991 0.023565
O O15 0.250000 0.500000 0.430217
O O16 0.500000 0.500000 0.500000
O O17 0.464158 0.399558 0.400788
#
# Coordination Sequence:
#
# PCOD9411173 Si02
#       7
#     8   8   8   8   8   8   8
#     4  10  21  40  67  94 126 173 224 272 337 414
#     4  11  23  40  70 103 131 171 223 287 339 402
#     4  10  21  43  69  99 129 172 231 270 350 408
#     4  12  24  39  65  99 132 180 226 277 347 404
#     4  12  22  38  60  92 129 168 225 274 330 395
#     4  12  21  41  66  97 136 169 229 276 332 410
#     4  11  23  41  66  93 132 181 217 278 332 416
#
# _framework density 19.580539999999999
#
# number of rings (size 3 to 8) (size 9 to 14) (size 15 to 20)
#    0.000    0.857    7.143    1.286    2.000    0.000 
#    0.000    2.143    3.143    0.000    0.000    0.000 
#    0.000    0.000    0.000    0.000    0.000    0.000 
#
# Total GULP energy -312621.803282 kJ/mol
# GULP energy per Si atom -5582.532201 kJ/mol
# Density = 1.953597 g / cm^3
# Si number density = 19.580540 Si / 1000 Ang^3
#
#
#
# Elastic Constant Matrix: (Units=GPa)
#
#
# Indices 1 2 3 4 5 6 
#
# 1 78.5364 31.2721 30.7403 0.0000 0.0000 0.0000
# 2 31.2721 120.6884 30.1724 0.0000 0.0000 0.0000
# 3 30.7403 30.1724 106.7212 0.0000 0.0000 0.0000
# 4 0.0000 0.0000 0.0000 38.4181 0.0000 0.0000
# 5 0.0000 0.0000 0.0000 0.0000 32.0321 0.0000
# 6 0.0000 0.0000 0.0000 0.0000 0.0000 28.3781
#
#
#
# Elastic Compliance Matrix: (Units=1/GPa)
#
#
# Indices 1 2 3 4 5 6 
#
# 1 0.015353 -0.003091 -0.003548 0.000000 0.000000 0.000000
# 2 -0.003091 0.009538 -0.001806 0.000000 0.000000 0.000000
# 3 -0.003548 -0.001806 0.010903 0.000000 0.000000 0.000000
# 4 0.000000 0.000000 0.000000 0.026029 0.000000 0.000000
# 5 0.000000 0.000000 0.000000 0.000000 0.031219 0.000000
# 6 0.000000 0.000000 0.000000 0.000000 0.000000 0.035238
#
#
# Mechanical properties :
#
#
# Convention : Reuss Voigt Hill
#
# Bulk Modulus (GPa) = 52.90285 54.47950 53.69118
# Shear Modulus (GPa) = 33.00927 34.01641 33.51284
#
# Velocity S-wave (km/s) = 4.11033 4.17256 4.14156
# Velocity P-wave (km/s) = 7.04295 7.14824 7.09579
#
# Compressibility (1/GPa) = 0.01890257
#
# Stress axis : x y z
#
# Youngs Moduli (GPa) = 65.13559 104.84035 91.71813
#
# Poissons Ratio (x) = 0.32406 0.32544
# Poissons Ratio (y) = 0.20133 0.16568
# Poissons Ratio (z) = 0.23112 0.18938
#
# Static dielectric constant tensor:
#      x y z
#    x 1.705290 0.000000 0.000000 
#    y 0.000000 1.702930 0.000000 
#    z 0.000000 0.000000 1.754220 
# 
# From -- ./inp_files/36017.got.cif
#   From: 2010.05.17/outbox.cif.g08.bks.cpg/sg52_19_cif.got.tgz:36017.got - 2010.06.03 12:15:38.
