data_PCOD9411896
_publ_section_title
;
Structure prediction by ZEFSAII (Michael W. Deem and Ramdas Pophale) SiO2 
 PCOD9411896
Probable space group: P N N A
;
_chemical_formula_sum "Si O2"
_cell_formula_units_Z 36
_cell_length_a 21.656029
_cell_length_b 5.860815
_cell_length_c 11.701474
_cell_angle_alpha 90.000000
_cell_angle_beta 90.000000
_cell_angle_gamma 90.000000
_cell_volume 1485.174244
_symmetry_space_group_name_H-M "P N N A"
_symmetry_group_IT_number 52
_symmetry_cell_setting 'orthorhombic'
loop_
_space_group_symop_operation_xyz
x,y,z
1/2-x,-y,z
x,1/2-y,1/2-z
1/2-x,1/2+y,1/2-z
-x,-y,-z
1/2+x,y,-z
-x,1/2+y,1/2+z
1/2+x,1/2-y,1/2+z
loop_
_atom_site_type_symbol
_atom_site_label
_atom_site_fract_x
_atom_site_fract_y
_atom_site_fract_z
Si Si1 0.330145 0.268669 0.886792
Si Si2 0.936789 0.601496 0.137688
Si Si3 0.473327 0.750000 0.250000
Si Si4 0.268977 0.753122 0.421013
Si Si5 0.902936 0.902067 0.954199
O O1 0.320457 0.250000 0.750000
O O2 0.370550 0.495707 0.891355
O O3 0.266233 0.259559 0.955810
O O4 0.373833 0.093140 0.960481
O O5 0.930078 0.750000 0.250000
O O6 0.983723 0.403095 0.169269
O O7 0.951334 0.765637 0.032889
O O8 0.435075 0.925521 0.169359
O O9 0.250000 0.500000 0.375333
O O10 0.342226 0.742431 0.421664
O O11 0.250000 0.000000 0.370045
#
# Coordination Sequence:
#
# PCOD9411896 Si02
#       5
#     8   8   4   8   8
#     4  11  22  42  72 106 145 178 245 318 390 446
#     4  12  23  43  72 105 137 192 247 317 376 441
#     4  12  28  46  68 104 150 208 254 302 368 466
#     4  10  22  41  71 107 145 189 241 312 382 454
#     4  11  25  46  69 105 151 195 251 309 383 459
#
# _framework density 24.23958
#
# number of rings (size 3 to 8) (size 9 to 14) (size 15 to 20)
#    0.000    0.889    5.556    0.667    0.000    8.889 
#    0.000    3.333    2.444    0.000    0.000    0.000 
#    0.000    0.000    0.000    0.000    0.000    0.000 
#
# Total GULP energy -200637.819531 kJ/mol
# GULP energy per Si atom -5573.272765 kJ/mol
# Density = 2.418441 g / cm^3
# Si number density = 24.239580 Si / 1000 Ang^3
#
#
#
# Elastic Constant Matrix: (Units=GPa)
#
#
# Indices 1 2 3 4 5 6 
#
# 1 70.3272 5.5117 7.6650 0.0000 0.0000 0.0000
# 2 5.5117 108.2120 6.2717 0.0000 0.0000 0.0000
# 3 7.6650 6.2717 84.7223 0.0000 0.0000 0.0000
# 4 0.0000 0.0000 0.0000 106.0441 0.0000 0.0000
# 5 0.0000 0.0000 0.0000 0.0000 45.9737 0.0000
# 6 0.0000 0.0000 0.0000 0.0000 0.0000 -20.0688
#
#
#
# Elastic Compliance Matrix: (Units=1/GPa)
#
#
# Indices 1 2 3 4 5 6 
#
# 1 0.014408 -0.000661 -0.001255 0.000000 0.000000 0.000000
# 2 -0.000661 0.009311 -0.000629 0.000000 0.000000 0.000000
# 3 -0.001255 -0.000629 0.011963 0.000000 0.000000 0.000000
# 4 0.000000 0.000000 0.000000 0.009430 0.000000 0.000000
# 5 0.000000 0.000000 0.000000 0.000000 0.021752 0.000000
# 6 0.000000 0.000000 0.000000 0.000000 0.000000 -0.049829
#
#
# Mechanical properties :
#
#
# Convention : Reuss Voigt Hill
#
# Bulk Modulus (GPa) = 32.68816 33.57313 33.13064
# Shear Modulus (GPa) = 154.68809 42.64400 98.66605
#
# Velocity S-wave (km/s) = 7.99718 4.19892 6.38693
# Velocity P-wave (km/s) = 9.93921 6.11461 8.25156
#
# Compressibility (1/GPa) = 0.03059212
#
# Stress axis : x y z
#
# Youngs Moduli (GPa) = 69.40683 107.39664 83.58850
#
# Poissons Ratio (x) = 0.07100 0.10487
# Poissons Ratio (y) = 0.04589 0.05262
# Poissons Ratio (z) = 0.08708 0.06760
#
# Static dielectric constant tensor:
#      x y z
#    x 1.880240 0.000000 0.000000 
#    y 0.000000 2.018630 0.000000 
#    z 0.000000 0.000000 1.987350 
# 
# From -- ./inp_files/22029.got.cif
#   From: 2010.05.17/outbox.cif.g08.bks.cpg/sg52_12_cif.got.tgz:22029.got - 2010.06.03 12:15:38.
