data_PCOD9411110
_publ_section_title
;
Structure prediction by ZEFSAII (Michael W. Deem and Ramdas Pophale) SiO2 
 PCOD9411110
Probable space group: P N N A
;
_chemical_formula_sum "Si O2"
_cell_formula_units_Z 24
_cell_length_a 12.493404
_cell_length_b 7.680109
_cell_length_c 13.148408
_cell_angle_alpha 90.000000
_cell_angle_beta 90.000000
_cell_angle_gamma 90.000000
_cell_volume 1261.599011
_symmetry_space_group_name_H-M "P N N A"
_symmetry_group_IT_number 52
_symmetry_cell_setting 'orthorhombic'
loop_
_space_group_symop_operation_xyz
x,y,z
1/2-x,-y,z
x,1/2-y,1/2-z
1/2-x,1/2+y,1/2-z
-x,-y,-z
1/2+x,y,-z
-x,1/2+y,1/2+z
1/2+x,1/2-y,1/2+z
loop_
_atom_site_type_symbol
_atom_site_label
_atom_site_fract_x
_atom_site_fract_y
_atom_site_fract_z
Si Si1 0.237320 0.796225 0.361866
Si Si2 0.866934 0.443204 0.284899
Si Si3 0.750000 0.500000 0.483642
Si Si4 0.528973 0.750000 0.750000
O O1 0.285629 0.750000 0.250000
O O2 0.278421 0.664032 0.446205
O O3 0.250000 0.000000 0.383258
O O4 0.388719 0.243579 0.344333
O O5 0.750000 0.500000 0.240843
O O6 0.892611 0.250000 0.250000
O O7 0.955046 0.581621 0.253472
O O8 0.845352 0.048191 0.094020
#
# Coordination Sequence:
#
# PCOD9411110 Si02
#       4
#     8   8   4   4
#     4  10  21  40  64  92 130 163 215 267 312 379
#     4  10  21  40  63  89 133 164 214 266 310 378
#     4  10  22  40  66  92 130 172 210 266 326 372
#     4  10  22  40  68  96 124 176 212 260 334 368
#
# _framework density 19.023478000000001
#
# number of rings (size 3 to 8) (size 9 to 14) (size 15 to 20)
#    2.000    0.000    3.333    0.000    0.000    9.333 
#    0.000    3.333    0.000    0.000    0.000    0.000 
#    0.000    0.000    0.000    0.000    0.000    0.000 
#
# Total GULP energy -133658.527120 kJ/mol
# GULP energy per Si atom -5569.105297 kJ/mol
# Density = 1.898018 g / cm^3
# Si number density = 19.023478 Si / 1000 Ang^3
#
#
#
# Elastic Constant Matrix: (Units=GPa)
#
#
# Indices 1 2 3 4 5 6 
#
# 1 62.6035 32.7443 7.3009 0.0000 0.0000 0.0000
# 2 32.7443 202.0920 57.4278 0.0000 0.0000 0.0000
# 3 7.3009 57.4278 97.1519 0.0000 0.0000 0.0000
# 4 0.0000 0.0000 0.0000 -21.1588 0.0000 0.0000
# 5 0.0000 0.0000 0.0000 0.0000 9.8080 0.0000
# 6 0.0000 0.0000 0.0000 0.0000 0.0000 32.2856
#
#
#
# Elastic Compliance Matrix: (Units=1/GPa)
#
#
# Indices 1 2 3 4 5 6 
#
# 1 0.017468 -0.002953 0.000433 0.000000 0.000000 0.000000
# 2 -0.002953 0.006447 -0.003589 0.000000 0.000000 0.000000
# 3 0.000433 -0.003589 0.012382 0.000000 0.000000 0.000000
# 4 0.000000 0.000000 0.000000 -0.047262 0.000000 0.000000
# 5 0.000000 0.000000 0.000000 0.000000 0.101957 0.000000
# 6 0.000000 0.000000 0.000000 0.000000 0.000000 0.030974
#
#
# Mechanical properties :
#
#
# Convention : Reuss Voigt Hill
#
# Bulk Modulus (GPa) = 41.53112 61.86593 51.69852
# Shear Modulus (GPa) = 35.15944 21.81193 28.48568
#
# Velocity S-wave (km/s) = 4.30375 3.38979 3.87382
# Velocity P-wave (km/s) = 6.82461 6.92187 6.87341
#
# Compressibility (1/GPa) = 0.02407833
#
# Stress axis : x y z
#
# Youngs Moduli (GPa) = 57.24832 155.12192 80.76280
#
# Poissons Ratio (x) = 0.45812 -0.03497
# Poissons Ratio (y) = 0.16907 0.28983
# Poissons Ratio (z) = -0.02479 0.55669
#
# Static dielectric constant tensor:
#      x y z
#    x 1.670700 0.000000 0.000000 
#    y 0.000000 1.617220 0.000000 
#    z 0.000000 0.000000 1.679920 
# 
# From -- ./inp_files/18702.got.cif
#   From: 2010.05.17/outbox.cif.g08.bks.cpg/sg52_10_cif.got.tgz:18702.got - 2010.06.03 12:15:38.
