data_PCOD9411556
_publ_section_title
;
Structure prediction by ZEFSAII (Michael W. Deem and Ramdas Pophale) SiO2 
 PCOD9411556
Probable space group: P N N A
;
_chemical_formula_sum "Si O2"
_cell_formula_units_Z 60
_cell_length_a 25.279923
_cell_length_b 10.325749
_cell_length_c 11.879850
_cell_angle_alpha 90.000000
_cell_angle_beta 90.000000
_cell_angle_gamma 90.000000
_cell_volume 3101.046424
_symmetry_space_group_name_H-M "P N N A"
_symmetry_group_IT_number 52
_symmetry_cell_setting 'orthorhombic'
loop_
_space_group_symop_operation_xyz
x,y,z
1/2-x,-y,z
x,1/2-y,1/2-z
1/2-x,1/2+y,1/2-z
-x,-y,-z
1/2+x,y,-z
-x,1/2+y,1/2+z
1/2+x,1/2-y,1/2+z
loop_
_atom_site_type_symbol
_atom_site_label
_atom_site_fract_x
_atom_site_fract_y
_atom_site_fract_z
Si Si1 0.098393 0.501705 0.286061
Si Si2 0.431198 0.881007 0.441915
Si Si3 0.600766 0.127488 0.024817
Si Si4 0.789643 0.122490 0.822819
Si Si5 0.694453 0.562492 0.417033
Si Si6 0.484466 0.606932 0.707292
Si Si7 0.046899 0.605052 0.893213
Si Si8 0.133600 0.750000 0.750000
O O1 0.092820 0.409330 0.178853
O O2 0.097158 0.413880 0.396043
O O3 0.152396 0.580914 0.280363
O O4 0.047391 0.593300 0.300494
O O5 0.399066 0.782931 0.519885
O O6 0.491315 0.827036 0.425312
O O7 0.436205 0.020994 0.499796
O O8 0.549780 0.083773 0.095864
O O9 0.652262 0.053864 0.068418
O O10 0.773394 0.250000 0.750000
O O11 0.750000 0.000000 0.806248
O O12 0.796546 0.132660 0.960133
O O13 0.750000 0.500000 0.384513
O O14 0.670255 0.653241 0.320904
O O15 0.471005 0.750000 0.750000
O O16 0.467809 0.499557 0.797799
O O17 0.093605 0.689491 0.842595
#
# Coordination Sequence:
#
# PCOD9411556 Si02
#       8
#     8   8   8   8   8   8   8   4
#     4  10  23  35  59  96 125 165 208 254 317 378
#     4  10  22  38  58  96 133 164 212 261 308 390
#     4  11  21  39  64  89 127 169 208 256 325 377
#     4  10  23  44  69  92 127 169 214 271 326 382
#     4  10  25  47  66  95 123 165 222 273 317 381
#     4  11  20  37  57  89 127 164 211 251 311 379
#     4  10  23  38  59  91 130 170 204 261 317 384
#     4  12  24  44  70  90 132 172 214 268 332 390
#
# _framework density 19.348307999999999
#
# number of rings (size 3 to 8) (size 9 to 14) (size 15 to 20)
#    0.000    1.600    2.667    1.200    5.600    5.333 
#    3.600    0.667    0.000    0.000    0.000    0.000 
#    0.000    0.000    0.000    0.000    0.000    0.000 
#
# Total GULP energy -334884.259263 kJ/mol
# GULP energy per Si atom -5581.404321 kJ/mol
# Density = 1.930427 g / cm^3
# Si number density = 19.348308 Si / 1000 Ang^3
#
#
#
# Elastic Constant Matrix: (Units=GPa)
#
#
# Indices 1 2 3 4 5 6 
#
# 1 124.2726 51.6905 61.3330 0.0000 0.0000 0.0000
# 2 51.6905 66.4911 27.1177 0.0000 0.0000 0.0000
# 3 61.3330 27.1177 67.6906 0.0000 0.0000 0.0000
# 4 0.0000 0.0000 0.0000 5.6642 0.0000 0.0000
# 5 0.0000 0.0000 0.0000 0.0000 -18.5430 0.0000
# 6 0.0000 0.0000 0.0000 0.0000 0.0000 6.3297
#
#
#
# Elastic Compliance Matrix: (Units=1/GPa)
#
#
# Indices 1 2 3 4 5 6 
#
# 1 0.018025 -0.008788 -0.012812 0.000000 0.000000 0.000000
# 2 -0.008788 0.022261 -0.000956 0.000000 0.000000 0.000000
# 3 -0.012812 -0.000956 0.026764 0.000000 0.000000 0.000000
# 4 0.000000 0.000000 0.000000 0.176546 0.000000 0.000000
# 5 0.000000 0.000000 0.000000 0.000000 -0.053929 0.000000
# 6 0.000000 0.000000 0.000000 0.000000 0.000000 0.157985
#
#
# Mechanical properties :
#
#
# Convention : Reuss Voigt Hill
#
# Bulk Modulus (GPa) = 45.57823 59.85964 52.71893
# Shear Modulus (GPa) = 12.49762 6.57774 9.53768
#
# Velocity S-wave (km/s) = 2.54427 1.84581 2.22265
# Velocity P-wave (km/s) = 5.67793 5.96220 5.82180
#
# Compressibility (1/GPa) = 0.02194030
#
# Stress axis : x y z
#
# Youngs Moduli (GPa) = 55.47848 44.92176 37.36316
#
# Poissons Ratio (x) = 0.39476 0.47868
# Poissons Ratio (y) = 0.48753 0.03571
# Poissons Ratio (z) = 0.71077 0.04293
#
# Static dielectric constant tensor:
#      x y z
#    x 1.669870 0.000000 0.000000 
#    y 0.000000 1.719350 0.000000 
#    z 0.000000 0.000000 1.684110 
# 
# From -- ./inp_files/22884.got.cif
#   From: 2010.05.17/outbox.cif.g08.bks.cpg/sg52_12_cif.got.tgz:22884.got - 2010.06.03 12:15:38.
