data_PCOD9411065
_publ_section_title
;
Structure prediction by ZEFSAII (Michael W. Deem and Ramdas Pophale) SiO2 
 PCOD9411065
Probable space group: P N N A
;
_chemical_formula_sum "Si O2"
_cell_formula_units_Z 32
_cell_length_a 8.940133
_cell_length_b 14.821667
_cell_length_c 9.828037
_cell_angle_alpha 90.000000
_cell_angle_beta 90.000000
_cell_angle_gamma 90.000000
_cell_volume 1302.290325
_symmetry_space_group_name_H-M "P N N A"
_symmetry_group_IT_number 52
_symmetry_cell_setting 'orthorhombic'
loop_
_space_group_symop_operation_xyz
x,y,z
1/2-x,-y,z
x,1/2-y,1/2-z
1/2-x,1/2+y,1/2-z
-x,-y,-z
1/2+x,y,-z
-x,1/2+y,1/2+z
1/2+x,1/2-y,1/2+z
loop_
_atom_site_type_symbol
_atom_site_label
_atom_site_fract_x
_atom_site_fract_y
_atom_site_fract_z
Si Si1 0.389556 0.890938 0.153096
Si Si2 0.032040 0.600901 0.944185
Si Si3 0.842928 0.658588 0.177092
Si Si4 0.564490 0.897768 0.904329
O O1 0.437346 0.883835 0.307956
O O2 0.222663 0.853752 0.135796
O O3 0.396950 0.995926 0.105536
O O4 0.512305 0.855797 0.047119
O O5 0.203095 0.612962 0.897794
O O6 0.000000 0.500000 0.000000
O O7 0.973129 0.665354 0.063952
O O8 0.793256 0.750000 0.250000
O O9 0.925575 0.608128 0.300719
#
# Coordination Sequence:
#
# PCOD9411065 Si02
#       4
#     8   8   8   8
#     4  10  21  39  71 106 143 190 257 323 372 449
#     4  12  25  46  79 108 147 207 273 325 382 486
#     4  12  28  47  72 111 155 200 252 330 405 472
#     4  10  21  40  68 108 147 190 245 318 391 455
#
# _framework density 24.572095999999998
#
# number of rings (size 3 to 8) (size 9 to 14) (size 15 to 20)
#    0.000    1.000    2.500    3.750    3.500    6.000 
#    0.000    2.500    0.000    0.000    0.000    0.000 
#    0.000    0.000    0.000    0.000    0.000    0.000 
#
# Total GULP energy -178900.081831 kJ/mol
# GULP energy per Si atom -5590.627557 kJ/mol
# Density = 2.451617 g / cm^3
# Si number density = 24.572096 Si / 1000 Ang^3
#
#
#
# Elastic Constant Matrix: (Units=GPa)
#
#
# Indices 1 2 3 4 5 6 
#
# 1 166.1067 26.9815 44.9257 0.0000 0.0000 0.0000
# 2 26.9815 71.7662 14.2640 0.0000 0.0000 0.0000
# 3 44.9257 14.2640 158.0983 0.0000 0.0000 0.0000
# 4 0.0000 0.0000 0.0000 29.3773 0.0000 0.0000
# 5 0.0000 0.0000 0.0000 0.0000 -594.0326 0.0000
# 6 0.0000 0.0000 0.0000 0.0000 0.0000 16.8357
#
#
#
# Elastic Compliance Matrix: (Units=1/GPa)
#
#
# Indices 1 2 3 4 5 6 
#
# 1 0.006855 -0.002230 -0.001747 0.000000 0.000000 0.000000
# 2 -0.002230 0.014914 -0.000712 0.000000 0.000000 0.000000
# 3 -0.001747 -0.000712 0.006886 0.000000 0.000000 0.000000
# 4 0.000000 0.000000 0.000000 0.034040 0.000000 0.000000
# 5 0.000000 0.000000 0.000000 0.000000 -0.001683 0.000000
# 6 0.000000 0.000000 0.000000 0.000000 0.000000 0.059397
#
#
# Mechanical properties :
#
#
# Convention : Reuss Voigt Hill
#
# Bulk Modulus (GPa) = 51.87409 63.14594 57.51001
# Shear Modulus (GPa) = 36.70757 -88.91059 -26.10151
#
# Velocity S-wave (km/s) = 3.86926 -6.02180 -3.26274
# Velocity P-wave (km/s) = 6.41236 4.75347 3.04326
#
# Compressibility (1/GPa) = 0.01927745
#
# Stress axis : x y z
#
# Youngs Moduli (GPa) = 145.88149 67.05095 145.22729
#
# Poissons Ratio (x) = 0.14952 0.25367
# Poissons Ratio (y) = 0.32532 0.10339
# Poissons Ratio (z) = 0.25481 0.04773
#
# Static dielectric constant tensor:
#      x y z
#    x 2.017420 0.000000 0.000000 
#    y 0.000000 2.028380 0.000000 
#    z 0.000000 0.000000 1.920740 
# 
# From -- ./inp_files/8206.got.cif
#   From: 2010.05.17/outbox.cif.g08.bks.cpg/sg52_5_cif.got.tgz:8206.got - 2010.06.03 12:15:38.
