data_PCOD9411512
_publ_section_title
;
Structure prediction by ZEFSAII (Michael W. Deem and Ramdas Pophale) SiO2 
 PCOD9411512
Probable space group: P N N A
;
_chemical_formula_sum "Si O2"
_cell_formula_units_Z 32
_cell_length_a 30.917449
_cell_length_b 4.874014
_cell_length_c 8.629963
_cell_angle_alpha 90.000000
_cell_angle_beta 90.000000
_cell_angle_gamma 90.000000
_cell_volume 1300.467068
_symmetry_space_group_name_H-M "P N N A"
_symmetry_group_IT_number 52
_symmetry_cell_setting 'orthorhombic'
loop_
_space_group_symop_operation_xyz
x,y,z
1/2-x,-y,z
x,1/2-y,1/2-z
1/2-x,1/2+y,1/2-z
-x,-y,-z
1/2+x,y,-z
-x,1/2+y,1/2+z
1/2+x,1/2-y,1/2+z
loop_
_atom_site_type_symbol
_atom_site_label
_atom_site_fract_x
_atom_site_fract_y
_atom_site_fract_z
Si Si1 0.097129 0.750000 0.250000
Si Si2 0.968751 0.683956 0.902753
Si Si3 0.750000 0.500000 0.636577
Si Si4 0.915901 0.978753 0.142105
Si Si5 0.343681 0.893609 0.077095
O O1 0.068909 0.507992 0.172871
O O2 0.130764 0.673579 0.385836
O O3 0.995731 0.750000 0.750000
O O4 0.948235 0.945817 0.991985
O O5 0.000000 0.500000 0.000000
O O6 0.737661 0.750000 0.750000
O O7 0.706922 0.420649 0.544655
O O8 0.936666 0.750000 0.250000
O O9 0.908904 0.250000 0.250000
O O10 0.872321 0.825317 0.073141
O O11 0.345959 0.750000 0.250000
#
# Coordination Sequence:
#
# PCOD9411512 Si02
#       5
#     4   8   4   8   8
#     4  12  20  46  78  98 146 186 254 290 388 420
#     4  12  29  50  75 106 144 196 252 320 371 450
#     4  10  22  36  72 114 140 180 244 306 348 438
#     4  12  27  48  75 106 146 199 247 303 379 451
#     4  11  22  44  74 107 145 189 246 301 370 439
#
# _framework density 24.606544
#
# number of rings (size 3 to 8) (size 9 to 14) (size 15 to 20)
#    0.000    0.500    6.250    1.500    1.750    4.000 
#    0.000    3.750    0.000    0.000    0.000    0.000 
#    0.000    0.000    0.000    0.000    0.000    0.000 
#
# Total GULP energy -178255.242625 kJ/mol
# GULP energy per Si atom -5570.476332 kJ/mol
# Density = 2.455054 g / cm^3
# Si number density = 24.606544 Si / 1000 Ang^3
#
#
#
# Elastic Constant Matrix: (Units=GPa)
#
#
# Indices 1 2 3 4 5 6 
#
# 1 155.7348 14.4906 47.4754 0.0000 0.0000 0.0000
# 2 14.4906 115.7624 51.0386 0.0000 0.0000 0.0000
# 3 47.4754 51.0386 155.7986 0.0000 0.0000 0.0000
# 4 0.0000 0.0000 0.0000 56.2105 0.0000 0.0000
# 5 0.0000 0.0000 0.0000 0.0000 -28.9835 0.0000
# 6 0.0000 0.0000 0.0000 0.0000 0.0000 27.7214
#
#
#
# Elastic Compliance Matrix: (Units=1/GPa)
#
#
# Indices 1 2 3 4 5 6 
#
# 1 0.007079 0.000076 -0.002182 0.000000 0.000000 0.000000
# 2 0.000076 0.010097 -0.003331 0.000000 0.000000 0.000000
# 3 -0.002182 -0.003331 0.008175 0.000000 0.000000 0.000000
# 4 0.000000 0.000000 0.000000 0.017790 0.000000 0.000000
# 5 0.000000 0.000000 0.000000 0.000000 -0.034502 0.000000
# 6 0.000000 0.000000 0.000000 0.000000 0.000000 0.036073
#
#
# Mechanical properties :
#
#
# Convention : Reuss Voigt Hill
#
# Bulk Modulus (GPa) = 69.07450 72.58943 70.83196
# Shear Modulus (GPa) = 82.76412 31.94244 57.35328
#
# Velocity S-wave (km/s) = 5.80586 3.60686 4.83309
# Velocity P-wave (km/s) = 8.54848 6.84909 7.74553
#
# Compressibility (1/GPa) = 0.01447712
#
# Stress axis : x y z
#
# Youngs Moduli (GPa) = 141.25653 99.03454 122.32875
#
# Poissons Ratio (x) = -0.00752 0.26693
# Poissons Ratio (y) = -0.01072 0.40748
# Poissons Ratio (z) = 0.30824 0.32988
#
# Static dielectric constant tensor:
#      x y z
#    x 1.987040 0.000000 0.000000 
#    y 0.000000 2.036670 0.000000 
#    z 0.000000 0.000000 2.311140 
# 
# From -- ./inp_files/15299.got.cif
#   From: 2010.05.17/outbox.cif.g08.bks.cpg/sg52_8_cif.got.tgz:15299.got - 2010.06.03 12:15:38.
