data_PCOD9411838
_publ_section_title
;
Structure prediction by ZEFSAII (Michael W. Deem and Ramdas Pophale) SiO2 
 PCOD9411838
Probable space group: P N N A
;
_chemical_formula_sum "Si O2"
_cell_formula_units_Z 48
_cell_length_a 26.936866
_cell_length_b 10.251273
_cell_length_c 9.078607
_cell_angle_alpha 90.000000
_cell_angle_beta 90.000000
_cell_angle_gamma 90.000000
_cell_volume 2506.940818
_symmetry_space_group_name_H-M "P N N A"
_symmetry_group_IT_number 52
_symmetry_cell_setting 'orthorhombic'
loop_
_space_group_symop_operation_xyz
x,y,z
1/2-x,-y,z
x,1/2-y,1/2-z
1/2-x,1/2+y,1/2-z
-x,-y,-z
1/2+x,y,-z
-x,1/2+y,1/2+z
1/2+x,1/2-y,1/2+z
loop_
_atom_site_type_symbol
_atom_site_label
_atom_site_fract_x
_atom_site_fract_y
_atom_site_fract_z
Si Si1 0.197950 0.536024 0.024012
Si Si2 0.575430 0.250000 0.750000
Si Si3 0.905408 0.250000 0.250000
Si Si4 0.009922 0.647627 0.957656
Si Si5 0.871107 0.490465 0.714515
Si Si6 0.819284 0.160421 0.041953
Si Si7 0.446897 0.250000 0.250000
Si Si8 0.750000 0.000000 0.242679
O O1 0.250000 0.500000 0.100975
O O2 0.153746 0.491699 0.125782
O O3 0.191953 0.691457 0.005997
O O4 0.205962 0.472246 0.861989
O O5 0.538534 0.304632 0.873407
O O6 0.606527 0.368622 0.680616
O O7 0.868420 0.169071 0.144627
O O8 0.942019 0.334975 0.147986
O O9 0.000000 0.500000 0.000000
O O10 0.021226 0.729345 0.104036
O O11 0.832412 0.433025 0.595010
O O12 0.912443 0.377429 0.729374
O O13 0.726801 0.890769 0.138197
#
# Coordination Sequence:
#
# PCOD9411838 Si02
#       8
#     8   4   4   8   8   8   4   4
#     4  10  22  41  64  93 133 174 222 275 333 398
#     4  11  28  44  63 110 134 168 229 292 341 396
#     4  11  20  40  68  96 128 178 226 270 339 408
#     4  11  24  41  69  97 139 172 222 287 342 397
#     4  12  24  44  69  97 135 176 232 274 337 416
#     4  12  22  42  67  98 128 183 226 273 341 413
#     4  12  22  42  75  94 126 190 223 264 348 418
#     4  10  24  36  66  96 132 162 230 274 330 394
#
# _framework density 19.146843000000001
#
# number of rings (size 3 to 8) (size 9 to 14) (size 15 to 20)
#    0.500    0.333    6.667    0.000    1.167    3.333 
#    0.000    0.000    0.000    0.000    0.000    0.000 
#    0.000    0.000    0.000    0.000    0.000    0.000 
#
# Total GULP energy -267741.980950 kJ/mol
# GULP energy per Si atom -5577.957936 kJ/mol
# Density = 1.910326 g / cm^3
# Si number density = 19.146843 Si / 1000 Ang^3
#
#
#
# Elastic Constant Matrix: (Units=GPa)
#
#
# Indices 1 2 3 4 5 6 
#
# 1 71.7649 57.1537 39.6182 0.0000 0.0000 0.0000
# 2 57.1537 106.3768 37.3966 0.0000 0.0000 0.0000
# 3 39.6182 37.3966 95.5863 0.0000 0.0000 0.0000
# 4 0.0000 0.0000 0.0000 32.4967 0.0000 0.0000
# 5 0.0000 0.0000 0.0000 0.0000 -18.1539 0.0000
# 6 0.0000 0.0000 0.0000 0.0000 0.0000 9.3900
#
#
#
# Elastic Compliance Matrix: (Units=1/GPa)
#
#
# Indices 1 2 3 4 5 6 
#
# 1 0.027448 -0.012462 -0.006501 0.000000 0.000000 0.000000
# 2 -0.012462 0.016557 -0.001313 0.000000 0.000000 0.000000
# 3 -0.006501 -0.001313 0.013670 0.000000 0.000000 0.000000
# 4 0.000000 0.000000 0.000000 0.030772 0.000000 0.000000
# 5 0.000000 0.000000 0.000000 0.000000 -0.055085 0.000000
# 6 0.000000 0.000000 0.000000 0.000000 0.000000 0.106496
#
#
# Mechanical properties :
#
#
# Convention : Reuss Voigt Hill
#
# Bulk Modulus (GPa) = 58.39690 60.22942 59.31316
# Shear Modulus (GPa) = 26.86469 14.05053 20.45761
#
# Velocity S-wave (km/s) = 3.74984 2.71187 3.27227
# Velocity P-wave (km/s) = 7.02240 6.42888 6.73219
#
# Compressibility (1/GPa) = 0.01712420
#
# Stress axis : x y z
#
# Youngs Moduli (GPa) = 36.43281 60.39608 73.15352
#
# Poissons Ratio (x) = 0.75263 0.47558
# Poissons Ratio (y) = 0.45401 0.09603
# Poissons Ratio (z) = 0.23685 0.07929
#
# Static dielectric constant tensor:
#      x y z
#    x 1.683430 0.000000 0.000000 
#    y 0.000000 1.637800 0.000000 
#    z 0.000000 0.000000 1.675320 
# 
# From -- ./inp_files/14369.got.cif
#   From: 2010.05.17/outbox.cif.g08.bks.cpg/sg52_8_cif.got.tgz:14369.got - 2010.06.03 12:15:38.
