data_PCOD9411315
_publ_section_title
;
Structure prediction by ZEFSAII (Michael W. Deem and Ramdas Pophale) SiO2 
 PCOD9411315
Probable space group: P N N A
;
_chemical_formula_sum "Si O2"
_cell_formula_units_Z 40
_cell_length_a 11.386418
_cell_length_b 7.897834
_cell_length_c 19.541594
_cell_angle_alpha 90.000000
_cell_angle_beta 90.000000
_cell_angle_gamma 90.000000
_cell_volume 1757.337232
_symmetry_space_group_name_H-M "P N N A"
_symmetry_group_IT_number 52
_symmetry_cell_setting 'orthorhombic'
loop_
_space_group_symop_operation_xyz
x,y,z
1/2-x,-y,z
x,1/2-y,1/2-z
1/2-x,1/2+y,1/2-z
-x,-y,-z
1/2+x,y,-z
-x,1/2+y,1/2+z
1/2+x,1/2-y,1/2+z
loop_
_atom_site_type_symbol
_atom_site_label
_atom_site_fract_x
_atom_site_fract_y
_atom_site_fract_z
Si Si1 0.865377 0.614183 0.451576
Si Si2 0.273129 0.698921 0.825747
Si Si3 0.146486 0.610316 0.302454
Si Si4 0.022279 0.648197 0.634939
Si Si5 0.803803 0.686203 0.910732
O O1 0.750000 0.500000 0.453172
O O2 0.860102 0.734024 0.384480
O O3 0.961474 0.468316 0.433565
O O4 0.843271 0.734740 0.516561
O O5 0.250000 0.500000 0.830757
O O6 0.311869 0.750000 0.750000
O O7 0.147817 0.790520 0.839868
O O8 0.250000 0.500000 0.268772
O O9 0.108948 0.750000 0.250000
O O10 0.209729 0.694616 0.369733
O O11 0.041896 0.483560 0.316417
O O12 0.928929 0.800356 0.628073
O O13 0.750000 0.500000 0.917029
#
# Coordination Sequence:
#
# PCOD9411315 Si02
#       5
#     8   8   8   8   8
#     4  10  21  42  65  90 123 162 206 256 306 361
#     4  11  24  43  64  91 123 159 206 258 307 364
#     4  10  22  41  63  92 128 165 204 252 303 365
#     4  10  23  40  65  90 122 165 206 252 309 363
#     4  11  23  40  63  95 128 161 203 252 305 369
#
# _framework density 22.761710999999998
#
# number of rings (size 3 to 8) (size 9 to 14) (size 15 to 20)
#    0.000    1.600    0.000    5.400    0.000   10.400 
#    0.000    6.000    0.000    0.000    0.000    0.000 
#    0.000    0.000    0.000    0.000    0.000    0.000 
#
# Total GULP energy -223301.464265 kJ/mol
# GULP energy per Si atom -5582.536607 kJ/mol
# Density = 2.270990 g / cm^3
# Si number density = 22.761711 Si / 1000 Ang^3
#
#
#
# Elastic Constant Matrix: (Units=GPa)
#
#
# Indices 1 2 3 4 5 6 
#
# 1 72.6393 41.4696 12.2831 0.0000 0.0000 0.0000
# 2 41.4696 124.2896 22.1606 0.0000 0.0000 0.0000
# 3 12.2831 22.1606 94.3669 0.0000 0.0000 0.0000
# 4 0.0000 0.0000 0.0000 3.1379 0.0000 0.0000
# 5 0.0000 0.0000 0.0000 0.0000 0.0043 0.0000
# 6 0.0000 0.0000 0.0000 0.0000 0.0000 42.3210
#
#
#
# Elastic Compliance Matrix: (Units=1/GPa)
#
#
# Indices 1 2 3 4 5 6 
#
# 1 0.017083 -0.005535 -0.000924 0.000000 0.000000 0.000000
# 2 -0.005535 0.010191 -0.001673 0.000000 0.000000 0.000000
# 3 -0.000924 -0.001673 0.011110 0.000000 0.000000 0.000000
# 4 0.000000 0.000000 0.000000 0.318689 0.000000 0.000000
# 5 0.000000 0.000000 0.000000 0.000000231.719857 0.000000
# 6 0.000000 0.000000 0.000000 0.000000 0.000000 0.023629
#
#
# Mechanical properties :
#
#
# Convention : Reuss Voigt Hill
#
# Bulk Modulus (GPa) = 45.20669 49.23582 47.22125
# Shear Modulus (GPa) = 0.02154 23.45147 11.73651
#
# Velocity S-wave (km/s) = 0.09739 3.21332 2.27320
# Velocity P-wave (km/s) = 4.46280 5.95358 5.26126
#
# Compressibility (1/GPa) = 0.02212062
#
# Stress axis : x y z
#
# Youngs Moduli (GPa) = 58.53848 98.12832 90.00917
#
# Poissons Ratio (x) = 0.54314 0.08314
# Poissons Ratio (y) = 0.32401 0.15056
# Poissons Ratio (z) = 0.05407 0.16414
#
# Static dielectric constant tensor:
#      x y z
#    x 1.835590 0.000000 0.000000 
#    y 0.000000 1.817640 0.000000 
#    z 0.000000 0.000000 1.945300 
# 
# From -- ./inp_files/31928.got.cif
#   From: 2010.05.17/outbox.cif.g08.bks.cpg/sg52_16_cif.got.tgz:31928.got - 2010.06.03 12:15:38.
