data_PCOD9411516
_publ_section_title
;
Structure prediction by ZEFSAII (Michael W. Deem and Ramdas Pophale) SiO2 
 PCOD9411516
Probable space group: P N N A
;
_chemical_formula_sum "Si O2"
_cell_formula_units_Z 56
_cell_length_a 9.006327
_cell_length_b 23.217449
_cell_length_c 15.805975
_cell_angle_alpha 90.000000
_cell_angle_beta 90.000000
_cell_angle_gamma 90.000000
_cell_volume 3305.091613
_symmetry_space_group_name_H-M "P N N A"
_symmetry_group_IT_number 52
_symmetry_cell_setting 'orthorhombic'
loop_
_space_group_symop_operation_xyz
x,y,z
1/2-x,-y,z
x,1/2-y,1/2-z
1/2-x,1/2+y,1/2-z
-x,-y,-z
1/2+x,y,-z
-x,1/2+y,1/2+z
1/2+x,1/2-y,1/2+z
loop_
_atom_site_type_symbol
_atom_site_label
_atom_site_fract_x
_atom_site_fract_y
_atom_site_fract_z
Si Si1 0.149446 0.761594 0.387548
Si Si2 0.498182 0.757231 0.432552
Si Si3 0.485670 0.133590 0.843241
Si Si4 0.540811 0.662455 0.745918
Si Si5 0.285926 0.432655 0.336532
Si Si6 0.299983 0.312057 0.794850
Si Si7 0.630918 0.542229 0.474101
O O1 0.321231 0.763520 0.416926
O O2 0.044100 0.760524 0.469541
O O3 0.093095 0.707421 0.328775
O O4 0.132305 0.816950 0.327446
O O5 0.520281 0.693687 0.393379
O O6 0.612245 0.799939 0.382627
O O7 0.646902 0.109163 0.820776
O O8 0.394756 0.142591 0.758242
O O9 0.416060 0.088633 0.907515
O O10 0.579190 0.598690 0.711993
O O11 0.371824 0.670789 0.779051
O O12 0.250000 0.500000 0.315981
O O13 0.311705 0.431448 0.437852
O O14 0.311311 0.250000 0.750000
O O15 0.750000 0.500000 0.434195
O O16 0.500000 0.500000 0.500000
#
# Coordination Sequence:
#
# PCOD9411516 Si02
#       7
#     8   8   8   8   8   8   8
#     4  11  22  36  61  82 122 147 200 235 308 346
#     4  11  23  37  56  89 113 155 189 245 295 363
#     4  11  22  34  55  77 113 155 191 236 287 335
#     4  11  22  39  57  86 114 158 193 249 290 353
#     4  11  22  38  54  81 117 159 199 238 281 345
#     4  10  22  37  57  80 117 147 201 237 296 350
#     4  11  22  36  51  78 117 153 198 236 275 338
#
# _framework density 16.943553999999999
#
# number of rings (size 3 to 8) (size 9 to 14) (size 15 to 20)
#    0.000    1.143    5.714    2.571    8.000    0.000 
#    0.000    0.000    0.000    0.000    0.000   10.000 
#    0.000    0.000    0.000    0.000    0.000    0.000 
#
# Total GULP energy -311891.012755 kJ/mol
# GULP energy per Si atom -5569.482371 kJ/mol
# Density = 1.690499 g / cm^3
# Si number density = 16.943554 Si / 1000 Ang^3
#
#
#
# Elastic Constant Matrix: (Units=GPa)
#
#
# Indices 1 2 3 4 5 6 
#
# 1 111.8176 24.1185 49.4495 0.0000 0.0000 0.0000
# 2 24.1185 65.5946 34.8928 0.0000 0.0000 0.0000
# 3 49.4495 34.8928 102.4843 0.0000 0.0000 0.0000
# 4 0.0000 0.0000 0.0000 -2.7527 0.0000 0.0000
# 5 0.0000 0.0000 0.0000 0.0000 26.8120 0.0000
# 6 0.0000 0.0000 0.0000 0.0000 0.0000 30.9236
#
#
#
# Elastic Compliance Matrix: (Units=1/GPa)
#
#
# Indices 1 2 3 4 5 6 
#
# 1 0.011498 -0.001559 -0.005017 0.000000 0.000000 0.000000
# 2 -0.001559 0.018828 -0.005658 0.000000 0.000000 0.000000
# 3 -0.005017 -0.005658 0.014105 0.000000 0.000000 0.000000
# 4 0.000000 0.000000 0.000000 -0.363280 0.000000 0.000000
# 5 0.000000 0.000000 0.000000 0.000000 0.037297 0.000000
# 6 0.000000 0.000000 0.000000 0.000000 0.000000 0.032338
#
#
# Mechanical properties :
#
#
# Convention : Reuss Voigt Hill
#
# Bulk Modulus (GPa) = 50.09373 55.20204 52.64788
# Shear Modulus (GPa) = -22.92618 22.42563 -0.25028
#
# Velocity S-wave (km/s) = -3.68243 3.64201 -0.38475
# Velocity P-wave (km/s) = 3.39836 7.09481 5.56261
#
# Compressibility (1/GPa) = 0.01996258
#
# Stress axis : x y z
#
# Youngs Moduli (GPa) = 86.97046 53.11171 70.89730
#
# Poissons Ratio (x) = 0.08279 0.35571
# Poissons Ratio (y) = 0.13558 0.40116
# Poissons Ratio (z) = 0.43635 0.30052
#
# Static dielectric constant tensor:
#      x y z
#    x 1.649410 0.000000 0.000000 
#    y 0.000000 1.566970 0.000000 
#    z 0.000000 0.000000 1.583950 
# 
# From -- ./inp_files/24951.got.cif
#   From: 2010.05.17/outbox.cif.g08.bks.cpg/sg52_13_cif.got.tgz:24951.got - 2010.06.03 12:15:38.
