data_PCOD9411730
_publ_section_title
;
Structure prediction by ZEFSAII (Michael W. Deem and Ramdas Pophale) SiO2 
 PCOD9411730
Probable space group: P N N A
;
_chemical_formula_sum "Si O2"
_cell_formula_units_Z 56
_cell_length_a 30.835063
_cell_length_b 5.337619
_cell_length_c 14.821091
_cell_angle_alpha 90.000000
_cell_angle_beta 90.000000
_cell_angle_gamma 90.000000
_cell_volume 2439.341388
_symmetry_space_group_name_H-M "P N N A"
_symmetry_group_IT_number 52
_symmetry_cell_setting 'orthorhombic'
loop_
_space_group_symop_operation_xyz
x,y,z
1/2-x,-y,z
x,1/2-y,1/2-z
1/2-x,1/2+y,1/2-z
-x,-y,-z
1/2+x,y,-z
-x,1/2+y,1/2+z
1/2+x,1/2-y,1/2+z
loop_
_atom_site_type_symbol
_atom_site_label
_atom_site_fract_x
_atom_site_fract_y
_atom_site_fract_z
Si Si1 0.935770 0.046792 0.996552
Si Si2 0.625801 0.583022 0.942987
Si Si3 0.297154 0.499595 0.190545
Si Si4 0.201681 0.001233 0.811159
Si Si5 0.120764 0.225433 0.613693
Si Si6 0.042482 0.325547 0.147095
Si Si7 0.451139 0.082042 0.660789
O O1 0.890204 0.131438 0.950971
O O2 0.964753 0.918770 0.918864
O O3 0.946179 0.277407 0.063632
O O4 0.922485 0.840273 0.068905
O O5 0.665068 0.529303 0.879211
O O6 0.583634 0.454506 0.898285
O O7 0.638585 0.466268 0.039197
O O8 0.250000 0.500000 0.145165
O O9 0.298044 0.250000 0.250000
O O10 0.301955 0.750000 0.250000
O O11 0.196833 0.750000 0.750000
O O12 0.250000 0.000000 0.857156
O O13 0.204582 0.250000 0.750000
O O14 0.157295 0.070012 0.864276
O O15 0.094667 0.052791 0.684098
O O16 0.052315 0.250000 0.250000
O O17 0.000943 0.511770 0.149117
O O18 0.457308 0.250000 0.750000
#
# Coordination Sequence:
#
# PCOD9411730 Si02
#       7
#     8   8   8   8   8   8   8
#     4  10  23  38  60  94 133 179 225 291 343 416
#     4  10  23  40  63  95 133 182 225 285 345 415
#     4  10  23  43  69 100 135 179 232 285 346 414
#     4  10  24  45  71 100 133 179 233 289 354 424
#     4  10  24  41  63  95 135 174 227 287 351 412
#     4  10  22  40  63  93 133 177 236 283 347 412
#     4  10  23  41  64  96 129 184 232 286 347 414
#
# _framework density 22.957015999999999
#
# number of rings (size 3 to 8) (size 9 to 14) (size 15 to 20)
#    0.000    2.000    0.000    0.857   12.000    6.286 
#    2.571    2.857    0.000    0.000    0.000    0.000 
#    0.000    0.000    0.000    0.000    0.000    0.000 
#
# Total GULP energy -311780.334828 kJ/mol
# GULP energy per Si atom -5567.505979 kJ/mol
# Density = 2.290476 g / cm^3
# Si number density = 22.957016 Si / 1000 Ang^3
#
#
#
# Elastic Constant Matrix: (Units=GPa)
#
#
# Indices 1 2 3 4 5 6 
#
# 1 155.3230 24.7063 41.5516 0.0000 0.0000 0.0000
# 2 24.7063 66.6022 -1.7100 0.0000 0.0000 0.0000
# 3 41.5516 -1.7100 66.8822 0.0000 0.0000 0.0000
# 4 0.0000 0.0000 0.0000 19.5152 0.0000 0.0000
# 5 0.0000 0.0000 0.0000 0.0000 33.7921 0.0000
# 6 0.0000 0.0000 0.0000 0.0000 0.0000 -9.4432
#
#
#
# Elastic Compliance Matrix: (Units=1/GPa)
#
#
# Indices 1 2 3 4 5 6 
#
# 1 0.008366 -0.003239 -0.005280 0.000000 0.000000 0.000000
# 2 -0.003239 0.016278 0.002428 0.000000 0.000000 0.000000
# 3 -0.005280 0.002428 0.018294 0.000000 0.000000 0.000000
# 4 0.000000 0.000000 0.000000 0.051242 0.000000 0.000000
# 5 0.000000 0.000000 0.000000 0.000000 0.029593 0.000000
# 6 0.000000 0.000000 0.000000 0.000000 0.000000 -0.105896
#
#
# Mechanical properties :
#
#
# Convention : Reuss Voigt Hill
#
# Bulk Modulus (GPa) = 32.51301 46.43368 39.47335
# Shear Modulus (GPa) = 124.03543 23.72346 73.87945
#
# Velocity S-wave (km/s) = 7.35845 3.21812 5.67904
# Velocity P-wave (km/s) = 9.29456 5.83769 7.76104
#
# Compressibility (1/GPa) = 0.03075692
#
# Stress axis : x y z
#
# Youngs Moduli (GPa) = 119.53203 61.43127 54.66213
#
# Poissons Ratio (x) = 0.19897 0.28863
# Poissons Ratio (y) = 0.38716 -0.13274
# Poissons Ratio (z) = 0.63116 -0.14918
#
# Static dielectric constant tensor:
#      x y z
#    x 1.930210 0.000000 0.000000 
#    y 0.000000 2.241600 0.000000 
#    z 0.000000 0.000000 1.859640 
# 
# From -- ./inp_files/29678.got.cif
#   From: 2010.05.17/outbox.cif.g08.bks.cpg/sg52_15_cif.got.tgz:29678.got - 2010.06.03 12:15:38.
