data_PCOD9411622
_publ_section_title
;
Structure prediction by ZEFSAII (Michael W. Deem and Ramdas Pophale) SiO2 
 PCOD9411622
Probable space group: P N N A
;
_chemical_formula_sum "Si O2"
_cell_formula_units_Z 32
_cell_length_a 11.398339
_cell_length_b 5.589845
_cell_length_c 20.873945
_cell_angle_alpha 90.000000
_cell_angle_beta 90.000000
_cell_angle_gamma 90.000000
_cell_volume 1329.982326
_symmetry_space_group_name_H-M "P N N A"
_symmetry_group_IT_number 52
_symmetry_cell_setting 'orthorhombic'
loop_
_space_group_symop_operation_xyz
x,y,z
1/2-x,-y,z
x,1/2-y,1/2-z
1/2-x,1/2+y,1/2-z
-x,-y,-z
1/2+x,y,-z
-x,1/2+y,1/2+z
1/2+x,1/2-y,1/2+z
loop_
_atom_site_type_symbol
_atom_site_label
_atom_site_fract_x
_atom_site_fract_y
_atom_site_fract_z
Si Si1 0.950579 0.800674 0.547947
Si Si2 0.013806 0.250000 0.250000
Si Si3 0.250000 0.000000 0.086503
Si Si4 0.420657 0.146909 0.336724
Si Si5 0.111820 0.988572 0.866244
O O1 0.832217 0.651771 0.538624
O O2 0.050665 0.615364 0.570021
O O3 0.911106 0.942577 0.610759
O O4 0.000000 0.000000 0.500000
O O5 0.930583 0.183419 0.191104
O O6 0.085538 0.490699 0.229093
O O7 0.169558 0.844497 0.135630
O O8 0.549159 0.263718 0.346379
O O9 0.250000 0.000000 0.870955
#
# Coordination Sequence:
#
# PCOD9411622 Si02
#       5
#     8   4   4   8   8
#     4  10  23  46  71 102 144 184 241 299 367 437
#     4  10  22  38  74  98 146 184 230 302 354 436
#     4  10  22  44  76  98 150 186 242 306 354 448
#     4  10  22  44  68 105 141 182 241 287 367 431
#     4  10  23  41  70 104 142 182 242 292 364 438
#
# _framework density 24.060471
#
# number of rings (size 3 to 8) (size 9 to 14) (size 15 to 20)
#    0.000    2.000    0.000    1.500    3.500    7.000 
#   13.500    0.000  198.000    0.000    0.000    0.000 
#    0.000    0.000    0.000    0.000    0.000    0.000 
#
# Total GULP energy -178669.148030 kJ/mol
# GULP energy per Si atom -5583.410876 kJ/mol
# Density = 2.400571 g / cm^3
# Si number density = 24.060471 Si / 1000 Ang^3
#
#
#
# Elastic Constant Matrix: (Units=GPa)
#
#
# Indices 1 2 3 4 5 6 
#
# 1 161.2201 72.0442 42.0581 0.0000 0.0000 0.0000
# 2 72.0442 131.6089 17.5440 0.0000 0.0000 0.0000
# 3 42.0581 17.5440 73.8752 0.0000 0.0000 0.0000
# 4 0.0000 0.0000 0.0000 64.8025 0.0000 0.0000
# 5 0.0000 0.0000 0.0000 0.0000 19.8050 0.0000
# 6 0.0000 0.0000 0.0000 0.0000 0.0000 21.4957
#
#
#
# Elastic Compliance Matrix: (Units=1/GPa)
#
#
# Indices 1 2 3 4 5 6 
#
# 1 0.009341 -0.004548 -0.004238 0.000000 0.000000 0.000000
# 2 -0.004548 0.010061 0.000200 0.000000 0.000000 0.000000
# 3 -0.004238 0.000200 0.015901 0.000000 0.000000 0.000000
# 4 0.000000 0.000000 0.000000 0.015431 0.000000 0.000000
# 5 0.000000 0.000000 0.000000 0.000000 0.050492 0.000000
# 6 0.000000 0.000000 0.000000 0.000000 0.000000 0.046521
#
#
# Mechanical properties :
#
#
# Convention : Reuss Voigt Hill
#
# Bulk Modulus (GPa) = 55.15229 69.99964 62.57597
# Shear Modulus (GPa) = 29.24591 36.89116 33.06853
#
# Velocity S-wave (km/s) = 3.49021 3.91994 3.71130
# Velocity P-wave (km/s) = 6.26212 7.04587 6.66553
#
# Compressibility (1/GPa) = 0.01813161
#
# Stress axis : x y z
#
# Youngs Moduli (GPa) = 107.05857 99.38977 62.88757
#
# Poissons Ratio (x) = 0.45205 0.26649
# Poissons Ratio (y) = 0.48693 -0.01258
# Poissons Ratio (z) = 0.45368 -0.01988
#
# Static dielectric constant tensor:
#      x y z
#    x 1.874370 0.000000 0.000000 
#    y 0.000000 2.205010 0.000000 
#    z 0.000000 0.000000 2.004390 
# 
# From -- ./inp_files/39841.got.cif
#   From: 2010.05.17/outbox.cif.g08.bks.cpg/sg52_20_cif.got.tgz:39841.got - 2010.06.03 12:15:38.
