data_PCOD9411320
_publ_section_title
;
Structure prediction by ZEFSAII (Michael W. Deem and Ramdas Pophale) SiO2 
 PCOD9411320
Probable space group: P N N A
;
_chemical_formula_sum "Si O2"
_cell_formula_units_Z 40
_cell_length_a 24.740055
_cell_length_b 8.863319
_cell_length_c 8.754162
_cell_angle_alpha 90.000000
_cell_angle_beta 90.000000
_cell_angle_gamma 90.000000
_cell_volume 1919.603885
_symmetry_space_group_name_H-M "P N N A"
_symmetry_group_IT_number 52
_symmetry_cell_setting 'orthorhombic'
loop_
_space_group_symop_operation_xyz
x,y,z
1/2-x,-y,z
x,1/2-y,1/2-z
1/2-x,1/2+y,1/2-z
-x,-y,-z
1/2+x,y,-z
-x,1/2+y,1/2+z
1/2+x,1/2-y,1/2+z
loop_
_atom_site_type_symbol
_atom_site_label
_atom_site_fract_x
_atom_site_fract_y
_atom_site_fract_z
Si Si1 0.446102 0.935864 0.425612
Si Si2 0.740501 0.736718 0.431044
Si Si3 0.328010 0.955325 0.048462
Si Si4 0.839162 0.400712 0.857722
Si Si5 0.551775 0.411514 0.559677
O O1 0.443123 0.764128 0.483404
O O2 0.451367 0.924408 0.242621
O O3 0.500000 0.000000 0.500000
O O4 0.393001 0.040826 0.443491
O O5 0.743084 0.750000 0.250000
O O6 0.704571 0.589808 0.470276
O O7 0.799930 0.699218 0.496364
O O8 0.708079 0.864605 0.522817
O O9 0.390609 0.976936 0.009429
O O10 0.323087 0.975199 0.231108
O O11 0.848945 0.250000 0.750000
O O12 0.500000 0.500000 0.500000
#
# Coordination Sequence:
#
# PCOD9411320 Si02
#       5
#     8   8   8   8   8
#     4  10  23  40  64  99 124 167 227 263 330 399
#     4  10  21  42  65  95 132 166 215 283 330 384
#     4   9  21  45  61  92 128 172 222 255 334 412
#     4   9  20  42  67  92 128 177 218 271 328 412
#     4  10  23  44  65  90 134 170 209 280 324 395
#
# _framework density 20.837631999999999
#
# number of rings (size 3 to 8) (size 9 to 14) (size 15 to 20)
#    0.000    2.400    0.000    0.000    8.400    1.600 
#   50.400    0.000    0.000    0.000    0.000    0.000 
#    0.000    0.000    0.000    0.000    0.000    0.000 
#
# Total GULP energy -223231.215270 kJ/mol
# GULP energy per Si atom -5580.780382 kJ/mol
# Density = 2.079020 g / cm^3
# Si number density = 20.837632 Si / 1000 Ang^3
#
#
#
# Elastic Constant Matrix: (Units=GPa)
#
#
# Indices 1 2 3 4 5 6 
#
# 1 179.6607 55.5986 64.5295 0.0000 0.0000 0.0000
# 2 55.5986 60.0678 28.7430 0.0000 0.0000 0.0000
# 3 64.5295 28.7430 74.3578 0.0000 0.0000 0.0000
# 4 0.0000 0.0000 0.0000 18.8016 0.0000 0.0000
# 5 0.0000 0.0000 0.0000 0.0000 38.8045 0.0000
# 6 0.0000 0.0000 0.0000 0.0000 0.0000 45.6190
#
#
#
# Elastic Compliance Matrix: (Units=1/GPa)
#
#
# Indices 1 2 3 4 5 6 
#
# 1 0.009573 -0.005994 -0.005990 0.000000 0.000000 0.000000
# 2 -0.005994 0.024179 -0.004145 0.000000 0.000000 0.000000
# 3 -0.005990 -0.004145 0.020249 0.000000 0.000000 0.000000
# 4 0.000000 0.000000 0.000000 0.053187 0.000000 0.000000
# 5 0.000000 0.000000 0.000000 0.000000 0.025770 0.000000
# 6 0.000000 0.000000 0.000000 0.000000 0.000000 0.021921
#
#
# Mechanical properties :
#
#
# Convention : Reuss Voigt Hill
#
# Bulk Modulus (GPa) = 45.99223 67.98096 56.98659
# Shear Modulus (GPa) = 25.72226 31.65937 28.69082
#
# Velocity S-wave (km/s) = 3.51723 3.90210 3.71465
# Velocity P-wave (km/s) = 6.21403 7.27989 6.76797
#
# Compressibility (1/GPa) = 0.02174281
#
# Stress axis : x y z
#
# Youngs Moduli (GPa) = 104.46585 41.35810 49.38461
#
# Poissons Ratio (x) = 0.24789 0.29583
# Poissons Ratio (y) = 0.62615 0.20469
# Poissons Ratio (z) = 0.62579 0.17142
#
# Static dielectric constant tensor:
#      x y z
#    x 1.772830 0.000000 0.000000 
#    y 0.000000 1.851380 0.000000 
#    z 0.000000 0.000000 1.723790 
# 
# From -- ./inp_files/13952.got.cif
#   From: 2010.05.17/outbox.cif.g08.bks.cpg/sg52_7_cif.got.tgz:13952.got - 2010.06.03 12:15:38.
