data_PCOD9411346
_publ_section_title
;
Structure prediction by ZEFSAII (Michael W. Deem and Ramdas Pophale) SiO2 
 PCOD9411346
Probable space group: P N N A
;
_chemical_formula_sum "Si O2"
_cell_formula_units_Z 40
_cell_length_a 14.821731
_cell_length_b 7.329605
_cell_length_c 15.622841
_cell_angle_alpha 90.000000
_cell_angle_beta 90.000000
_cell_angle_gamma 90.000000
_cell_volume 1697.225353
_symmetry_space_group_name_H-M "P N N A"
_symmetry_group_IT_number 52
_symmetry_cell_setting 'orthorhombic'
loop_
_space_group_symop_operation_xyz
x,y,z
1/2-x,-y,z
x,1/2-y,1/2-z
1/2-x,1/2+y,1/2-z
-x,-y,-z
1/2+x,y,-z
-x,1/2+y,1/2+z
1/2+x,1/2-y,1/2+z
loop_
_atom_site_type_symbol
_atom_site_label
_atom_site_fract_x
_atom_site_fract_y
_atom_site_fract_z
Si Si1 0.153605 0.519477 0.120458
Si Si2 0.037399 0.071960 0.698210
Si Si3 0.597474 0.249682 0.023456
Si Si4 0.111210 0.682740 0.506790
Si Si5 0.177286 0.638307 0.679501
O O1 0.250000 0.500000 0.166962
O O2 0.058467 0.486883 0.168619
O O3 0.151396 0.376899 0.041345
O O4 0.150527 0.719618 0.076241
O O5 0.008634 0.250000 0.750000
O O6 0.092845 0.155881 0.617082
O O7 0.096174 0.950594 0.764717
O O8 0.622931 0.035848 0.014177
O O9 0.492867 0.239962 0.996234
O O10 0.145817 0.752365 0.598475
O O11 0.250000 0.500000 0.645652
O O12 0.231081 0.750000 0.750000
#
# Coordination Sequence:
#
# PCOD9411346 Si02
#       5
#     8   8   8   8   8
#     4  11  25  42  67  96 131 177 223 269 317 385
#     4  11  22  44  66  91 136 172 214 271 331 392
#     4  10  21  42  68  92 123 173 219 269 323 389
#     4  10  22  40  66  94 124 171 219 268 327 386
#     4  12  25  38  63 101 133 168 208 275 343 396
#
# _framework density 23.567875999999998
#
# number of rings (size 3 to 8) (size 9 to 14) (size 15 to 20)
#    0.000    1.200    2.000    5.400    2.800    1.600 
#    0.000    3.000    0.000    0.000    0.000    0.000 
#    0.000    0.000    0.000    0.000    0.000    0.000 
#
# Total GULP energy -223329.047576 kJ/mol
# GULP energy per Si atom -5583.226189 kJ/mol
# Density = 2.351423 g / cm^3
# Si number density = 23.567876 Si / 1000 Ang^3
#
#
#
# Elastic Constant Matrix: (Units=GPa)
#
#
# Indices 1 2 3 4 5 6 
#
# 1 112.6191 20.1907 22.9900 0.0000 0.0000 0.0000
# 2 20.1907 65.7591 -4.1032 0.0000 0.0000 0.0000
# 3 22.9900 -4.1032 52.3666 0.0000 0.0000 0.0000
# 4 0.0000 0.0000 0.0000 24.9079 0.0000 0.0000
# 5 0.0000 0.0000 0.0000 0.0000 18.5518 0.0000
# 6 0.0000 0.0000 0.0000 0.0000 0.0000 13.2145
#
#
#
# Elastic Compliance Matrix: (Units=1/GPa)
#
#
# Indices 1 2 3 4 5 6 
#
# 1 0.010511 -0.003533 -0.004891 0.000000 0.000000 0.000000
# 2 -0.003533 0.016469 0.002841 0.000000 0.000000 0.000000
# 3 -0.004891 0.002841 0.021466 0.000000 0.000000 0.000000
# 4 0.000000 0.000000 0.000000 0.040148 0.000000 0.000000
# 5 0.000000 0.000000 0.000000 0.000000 0.053903 0.000000
# 6 0.000000 0.000000 0.000000 0.000000 0.000000 0.075675
#
#
# Mechanical properties :
#
#
# Convention : Reuss Voigt Hill
#
# Bulk Modulus (GPa) = 26.82334 34.32220 30.57277
# Shear Modulus (GPa) = 20.68124 24.11265 22.39694
#
# Velocity S-wave (km/s) = 2.96551 3.20209 3.08606
# Velocity P-wave (km/s) = 4.80954 5.31657 5.06940
#
# Compressibility (1/GPa) = 0.03728097
#
# Stress axis : x y z
#
# Youngs Moduli (GPa) = 95.13503 60.72023 46.58481
#
# Poissons Ratio (x) = 0.21450 0.22787
# Poissons Ratio (y) = 0.33608 -0.13236
# Poissons Ratio (z) = 0.46535 -0.17253
#
# Static dielectric constant tensor:
#      x y z
#    x 1.892040 0.000000 0.000000 
#    y 0.000000 2.396140 0.000000 
#    z 0.000000 0.000000 1.899880 
# 
# From -- ./inp_files/26916.got.cif
#   From: 2010.05.17/outbox.cif.g08.bks.cpg/sg52_14_cif.got.tgz:26916.got - 2010.06.03 12:15:38.
