data_PCOD9411041
_publ_section_title
;
Structure prediction by ZEFSAII (Michael W. Deem and Ramdas Pophale) SiO2 
 PCOD9411041
Probable space group: P N N A
;
_chemical_formula_sum "Si O2"
_cell_formula_units_Z 40
_cell_length_a 5.316539
_cell_length_b 18.752705
_cell_length_c 15.319782
_cell_angle_alpha 90.000000
_cell_angle_beta 90.000000
_cell_angle_gamma 90.000000
_cell_volume 1527.374414
_symmetry_space_group_name_H-M "P N N A"
_symmetry_group_IT_number 52
_symmetry_cell_setting 'orthorhombic'
loop_
_space_group_symop_operation_xyz
x,y,z
1/2-x,-y,z
x,1/2-y,1/2-z
1/2-x,1/2+y,1/2-z
-x,-y,-z
1/2+x,y,-z
-x,1/2+y,1/2+z
1/2+x,1/2-y,1/2+z
loop_
_atom_site_type_symbol
_atom_site_label
_atom_site_fract_x
_atom_site_fract_y
_atom_site_fract_z
Si Si1 0.117129 0.901210 0.526300
Si Si2 0.500639 0.453638 0.793196
Si Si3 0.336530 0.355262 0.300756
Si Si4 0.078569 0.784749 0.380800
Si Si5 0.681600 0.153785 0.055899
O O1 0.155829 0.832600 0.462550
O O2 0.386600 0.936985 0.522233
O O3 0.052412 0.898544 0.627777
O O4 0.250000 0.500000 0.781311
O O5 0.608076 0.408404 0.712782
O O6 0.750000 0.500000 0.818055
O O7 0.250993 0.281827 0.348380
O O8 0.443604 0.332573 0.205749
O O9 0.563218 0.385778 0.359622
O O10 0.841862 0.736264 0.410531
O O11 0.953258 0.141275 0.014353
#
# Coordination Sequence:
#
# PCOD9411041 Si02
#       5
#     8   8   8   8   8
#     4  12  24  43  71 104 147 188 240 295 362 438
#     4  12  28  49  71 102 152 207 246 285 345 451
#     4   9  22  45  67 102 139 190 240 300 360 426
#     4   9  20  42  68 104 143 181 229 307 372 430
#     4  10  21  39  66  98 133 172 222 295 371 423
#
# _framework density 26.188732000000002
#
# number of rings (size 3 to 8) (size 9 to 14) (size 15 to 20)
#    1.200    0.400    2.000    2.400    0.000    4.000 
#    0.000    2.000    0.000    3.600    0.000    0.000 
#    0.000    0.000    0.000    0.000    0.000    0.000 
#
# Total GULP energy -223090.701463 kJ/mol
# GULP energy per Si atom -5577.267537 kJ/mol
# Density = 2.612913 g / cm^3
# Si number density = 26.188732 Si / 1000 Ang^3
#
#
#
# Elastic Constant Matrix: (Units=GPa)
#
#
# Indices 1 2 3 4 5 6 
#
# 1 171.0963 32.6889 57.3711 0.0000 0.0000 0.0000
# 2 32.6889 85.0902 51.6414 0.0000 0.0000 0.0000
# 3 57.3711 51.6414 148.6899 0.0000 0.0000 0.0000
# 4 0.0000 0.0000 0.0000 26.7735 0.0000 0.0000
# 5 0.0000 0.0000 0.0000 0.0000 32.4948 0.0000
# 6 0.0000 0.0000 0.0000 0.0000 0.0000 -0.6136
#
#
#
# Elastic Compliance Matrix: (Units=1/GPa)
#
#
# Indices 1 2 3 4 5 6 
#
# 1 0.006824 -0.001297 -0.002183 0.000000 0.000000 0.000000
# 2 -0.001297 0.015138 -0.004757 0.000000 0.000000 0.000000
# 3 -0.002183 -0.004757 0.009220 0.000000 0.000000 0.000000
# 4 0.000000 0.000000 0.000000 0.037350 0.000000 0.000000
# 5 0.000000 0.000000 0.000000 0.000000 0.030774 0.000000
# 6 0.000000 0.000000 0.000000 0.000000 0.000000 -1.629673
#
#
# Mechanical properties :
#
#
# Convention : Reuss Voigt Hill
#
# Bulk Modulus (GPa) = 67.98891 76.47548 72.23219
# Shear Modulus (GPa) = -3.31347 29.27592 12.98122
#
# Velocity S-wave (km/s) = -1.12604 3.34710 2.22880
# Velocity P-wave (km/s) = 4.93223 6.64850 5.85360
#
# Compressibility (1/GPa) = 0.01470828
#
# Stress axis : x y z
#
# Youngs Moduli (GPa) = 146.53419 66.06103 108.46338
#
# Poissons Ratio (x) = 0.08568 0.23674
# Poissons Ratio (y) = 0.19006 0.51595
# Poissons Ratio (z) = 0.31983 0.31425
#
# Static dielectric constant tensor:
#      x y z
#    x 2.163410 0.000000 0.000000 
#    y 0.000000 2.305630 0.000000 
#    z 0.000000 0.000000 2.099320 
# 
# From -- ./inp_files/30210.got.cif
#   From: 2010.05.17/outbox.cif.g08.bks.cpg/sg52_16_cif.got.tgz:30210.got - 2010.06.03 12:15:38.
