data_PCOD9411170
_publ_section_title
;
Structure prediction by ZEFSAII (Michael W. Deem and Ramdas Pophale) SiO2 
 PCOD9411170
Probable space group: P N N A
;
_chemical_formula_sum "Si O2"
_cell_formula_units_Z 48
_cell_length_a 14.776202
_cell_length_b 15.389238
_cell_length_c 10.250239
_cell_angle_alpha 90.000000
_cell_angle_beta 90.000000
_cell_angle_gamma 90.000000
_cell_volume 2330.847863
_symmetry_space_group_name_H-M "P N N A"
_symmetry_group_IT_number 52
_symmetry_cell_setting 'orthorhombic'
loop_
_space_group_symop_operation_xyz
x,y,z
1/2-x,-y,z
x,1/2-y,1/2-z
1/2-x,1/2+y,1/2-z
-x,-y,-z
1/2+x,y,-z
-x,1/2+y,1/2+z
1/2+x,1/2-y,1/2+z
loop_
_atom_site_type_symbol
_atom_site_label
_atom_site_fract_x
_atom_site_fract_y
_atom_site_fract_z
Si Si1 0.813232 0.250000 0.250000
Si Si2 0.001334 0.589944 0.576535
Si Si3 0.226870 0.750000 0.250000
Si Si4 0.821554 0.932988 0.758489
Si Si5 0.087728 0.746553 0.025314
Si Si6 0.182732 0.570069 0.748947
Si Si7 0.093474 0.547199 0.027736
O O1 0.873757 0.261170 0.121282
O O2 0.762212 0.339764 0.258904
O O3 0.014647 0.676387 0.487958
O O4 0.089300 0.583393 0.670881
O O5 0.000000 0.500000 0.500000
O O6 0.908454 0.592125 0.656111
O O7 0.279830 0.839464 0.282282
O O8 0.164830 0.725334 0.373559
O O9 0.750000 0.000000 0.825569
O O10 0.855982 0.992467 0.638589
O O11 0.068189 0.646898 0.064984
O O12 0.250000 0.500000 0.692465
O O13 0.154238 0.548540 0.897001
O O14 0.000000 0.500000 0.000000
#
# Coordination Sequence:
#
# PCOD9411170 Si02
#       7
#     4   8   4   8   8   8   8
#     4   8  20  39  64  95 132 172 222 281 344 417
#     4  11  25  43  66  96 139 186 231 291 366 435
#     4  12  26  41  74 107 142 190 240 307 362 431
#     4  12  25  44  69 103 142 188 241 294 361 433
#     4  10  23  44  67  99 138 181 233 298 353 422
#     4  10  21  40  67  93 131 175 227 287 352 411
#     4  11  22  41  70  98 132 177 240 296 346 425
#
# _framework density 20.593364000000001
#
# number of rings (size 3 to 8) (size 9 to 14) (size 15 to 20)
#    0.000    1.333    3.333    1.500    4.667    4.000 
#    0.000    1.667    0.000    0.000    0.000    0.000 
#    0.000    0.000    0.000    0.000    0.000    0.000 
#
# Total GULP energy -267667.112291 kJ/mol
# GULP energy per Si atom -5576.398173 kJ/mol
# Density = 2.054649 g / cm^3
# Si number density = 20.593364 Si / 1000 Ang^3
#
#
#
# Elastic Constant Matrix: (Units=GPa)
#
#
# Indices 1 2 3 4 5 6 
#
# 1 100.1306 60.9281 26.7221 0.0000 0.0000 0.0000
# 2 60.9281 206.9873 40.2534 0.0000 0.0000 0.0000
# 3 26.7221 40.2534 76.3249 0.0000 0.0000 0.0000
# 4 0.0000 0.0000 0.0000 30.0735 0.0000 0.0000
# 5 0.0000 0.0000 0.0000 0.0000 -15.0563 0.0000
# 6 0.0000 0.0000 0.0000 0.0000 0.0000 60.0952
#
#
#
# Elastic Compliance Matrix: (Units=1/GPa)
#
#
# Indices 1 2 3 4 5 6 
#
# 1 0.012664 -0.003193 -0.002750 0.000000 0.000000 0.000000
# 2 -0.003193 0.006188 -0.002146 0.000000 0.000000 0.000000
# 3 -0.002750 -0.002146 0.015196 0.000000 0.000000 0.000000
# 4 0.000000 0.000000 0.000000 0.033252 0.000000 0.000000
# 5 0.000000 0.000000 0.000000 0.000000 -0.066417 0.000000
# 6 0.000000 0.000000 0.000000 0.000000 0.000000 0.016640
#
#
# Mechanical properties :
#
#
# Convention : Reuss Voigt Hill
#
# Bulk Modulus (GPa) = 55.95551 71.02778 63.49165
# Shear Modulus (GPa) = 126.08047 32.05843 79.06945
#
# Velocity S-wave (km/s) = 7.83305 3.94983 6.20314
# Velocity P-wave (km/s) = 10.44220 7.44090 9.06660
#
# Compressibility (1/GPa) = 0.01787134
#
# Stress axis : x y z
#
# Youngs Moduli (GPa) = 78.96651 161.59346 65.80539
#
# Poissons Ratio (x) = 0.51595 0.18095
# Poissons Ratio (y) = 0.25213 0.14121
# Poissons Ratio (z) = 0.21714 0.34676
#
# Static dielectric constant tensor:
#      x y z
#    x 1.747520 0.000000 0.000000 
#    y 0.000000 1.802660 0.000000 
#    z 0.000000 0.000000 1.750310 
# 
# From -- ./inp_files/19583.got.cif
#   From: 2010.05.17/outbox.cif.g08.bks.cpg/sg52_10_cif.got.tgz:19583.got - 2010.06.03 12:15:38.
