data_PCOD9411256
_publ_section_title
;
Structure prediction by ZEFSAII (Michael W. Deem and Ramdas Pophale) SiO2 
 PCOD9411256
Probable space group: P N N A
;
_chemical_formula_sum "Si O2"
_cell_formula_units_Z 36
_cell_length_a 13.823322
_cell_length_b 8.959513
_cell_length_c 13.965360
_cell_angle_alpha 90.000000
_cell_angle_beta 90.000000
_cell_angle_gamma 90.000000
_cell_volume 1729.613092
_symmetry_space_group_name_H-M "P N N A"
_symmetry_group_IT_number 52
_symmetry_cell_setting 'orthorhombic'
loop_
_space_group_symop_operation_xyz
x,y,z
1/2-x,-y,z
x,1/2-y,1/2-z
1/2-x,1/2+y,1/2-z
-x,-y,-z
1/2+x,y,-z
-x,1/2+y,1/2+z
1/2+x,1/2-y,1/2+z
loop_
_atom_site_type_symbol
_atom_site_label
_atom_site_fract_x
_atom_site_fract_y
_atom_site_fract_z
Si Si1 0.298081 0.250000 0.750000
Si Si2 0.590727 0.750000 0.750000
Si Si3 0.594721 0.250000 0.750000
Si Si4 0.457036 0.015041 0.806208
Si Si5 0.257861 0.663178 0.107433
Si Si6 0.684331 0.144953 0.069089
O O1 0.366180 0.399166 0.744605
O O2 0.230471 0.240467 0.843451
O O3 0.520098 0.893177 0.750000
O O4 0.662225 0.733415 0.842513
O O5 0.528403 0.345464 0.678849
O O6 0.665865 0.357620 0.806655
O O7 0.417178 0.922766 0.896196
O O8 0.250000 0.500000 0.062892
O O9 0.305461 0.767979 0.028753
O O10 0.750000 0.000000 0.058182
#
# Coordination Sequence:
#
# PCOD9411256 Si02
#       6
#     4   4   4   8   8   8
#     4   9  21  45  65  90 130 172 215 267 327 377
#     4  11  23  41  65  98 128 174 215 265 323 391
#     4  10  22  42  64  90 136 174 214 268 322 384
#     4  10  21  41  67  91 125 171 223 260 315 382
#     4  11  24  41  62  96 135 172 210 268 338 383
#     4  10  23  41  68  94 128 175 214 265 329 389
#
# _framework density 20.813904000000001
#
# number of rings (size 3 to 8) (size 9 to 14) (size 15 to 20)
#    0.000    1.778    2.222    0.667    3.111    5.333 
#    8.000    2.222    0.000    0.000    0.000    0.000 
#    0.000    0.000    0.000    0.000    0.000    0.000 
#
# Total GULP energy -200549.368355 kJ/mol
# GULP energy per Si atom -5570.815788 kJ/mol
# Density = 2.076653 g / cm^3
# Si number density = 20.813904 Si / 1000 Ang^3
#
#
#
# Elastic Constant Matrix: (Units=GPa)
#
#
# Indices 1 2 3 4 5 6 
#
# 1 89.6408 25.3508 27.2920 0.0000 0.0000 0.0000
# 2 25.3508 82.8654 21.4225 0.0000 0.0000 0.0000
# 3 27.2920 21.4225 71.3544 0.0000 0.0000 0.0000
# 4 0.0000 0.0000 0.0000 26.0725 0.0000 0.0000
# 5 0.0000 0.0000 0.0000 0.0000 9.3648 0.0000
# 6 0.0000 0.0000 0.0000 0.0000 0.0000 19.9672
#
#
#
# Elastic Compliance Matrix: (Units=1/GPa)
#
#
# Indices 1 2 3 4 5 6 
#
# 1 0.013271 -0.002979 -0.004182 0.000000 0.000000 0.000000
# 2 -0.002979 0.013752 -0.002989 0.000000 0.000000 0.000000
# 3 -0.004182 -0.002989 0.016511 0.000000 0.000000 0.000000
# 4 0.000000 0.000000 0.000000 0.038355 0.000000 0.000000
# 5 0.000000 0.000000 0.000000 0.000000 0.106782 0.000000
# 6 0.000000 0.000000 0.000000 0.000000 0.000000 0.050082
#
#
# Mechanical properties :
#
#
# Convention : Reuss Voigt Hill
#
# Bulk Modulus (GPa) = 43.03905 43.55459 43.29682
# Shear Modulus (GPa) = 18.74074 22.40059 20.57066
#
# Velocity S-wave (km/s) = 3.00391 3.28416 3.14716
# Velocity P-wave (km/s) = 5.72313 5.94576 5.83551
#
# Compressibility (1/GPa) = 0.02323471
#
# Stress axis : x y z
#
# Youngs Moduli (GPa) = 75.35077 72.71716 60.56406
#
# Poissons Ratio (x) = 0.21662 0.25326
# Poissons Ratio (y) = 0.22447 0.18104
# Poissons Ratio (z) = 0.31509 0.21737
#
# Static dielectric constant tensor:
#      x y z
#    x 1.775650 0.000000 0.000000 
#    y 0.000000 1.816840 0.000000 
#    z 0.000000 0.000000 1.739140 
# 
# From -- ./inp_files/26821.got.cif
#   From: 2010.05.17/outbox.cif.g08.bks.cpg/sg52_14_cif.got.tgz:26821.got - 2010.06.03 12:15:38.
