data_PCOD9411589
_publ_section_title
;
Structure prediction by ZEFSAII (Michael W. Deem and Ramdas Pophale) SiO2 
 PCOD9411589
Probable space group: P N N A
;
_chemical_formula_sum "Si O2"
_cell_formula_units_Z 48
_cell_length_a 16.056691
_cell_length_b 27.510921
_cell_length_c 5.185485
_cell_angle_alpha 90.000000
_cell_angle_beta 90.000000
_cell_angle_gamma 90.000000
_cell_volume 2290.606885
_symmetry_space_group_name_H-M "P N N A"
_symmetry_group_IT_number 52
_symmetry_cell_setting 'orthorhombic'
loop_
_space_group_symop_operation_xyz
x,y,z
1/2-x,-y,z
x,1/2-y,1/2-z
1/2-x,1/2+y,1/2-z
-x,-y,-z
1/2+x,y,-z
-x,1/2+y,1/2+z
1/2+x,1/2-y,1/2+z
loop_
_atom_site_type_symbol
_atom_site_label
_atom_site_fract_x
_atom_site_fract_y
_atom_site_fract_z
Si Si1 0.238760 0.390638 0.387955
Si Si2 0.085365 0.863303 0.171979
Si Si3 0.721287 0.946920 0.367175
Si Si4 0.466884 0.445453 0.971200
Si Si5 0.527938 0.782360 0.496074
Si Si6 0.562147 0.357507 0.719302
O O1 0.324084 0.362557 0.453571
O O2 0.234062 0.432474 0.602464
O O3 0.153500 0.361551 0.393260
O O4 0.253870 0.411001 0.099630
O O5 0.060060 0.917348 0.267368
O O6 0.087494 0.826951 0.416710
O O7 0.010192 0.847981 0.988493
O O8 0.621615 0.946497 0.324207
O O9 0.750000 0.000000 0.449587
O O10 0.534834 0.409139 0.846322
O O11 0.500000 0.500000 0.000000
O O12 0.553884 0.750000 0.250000
O O13 0.445840 0.812703 0.416010
O O14 0.518240 0.750000 0.750000
#
# Coordination Sequence:
#
# PCOD9411589 Si02
#       6
#     8   8   8   8   8   8
#     4  11  25  41  63  93 134 171 222 272 322 388
#     4  10  23  44  65  97 130 175 217 270 330 389
#     4  11  23  40  58  93 133 178 227 276 315 376
#     4  10  22  38  63  95 134 179 227 268 324 388
#     4  11  23  43  74  97 128 169 213 273 337 400
#     4  11  23  42  69  95 131 180 215 273 332 389
#
# _framework density 20.955145999999999
#
# number of rings (size 3 to 8) (size 9 to 14) (size 15 to 20)
#    0.000    1.333    3.333    1.500    7.000    2.000 
#    0.000    1.667    0.000    0.000    0.000    0.000 
#    0.000    0.000    0.000    0.000    0.000    0.000 
#
# Total GULP energy -267858.051686 kJ/mol
# GULP energy per Si atom -5580.376077 kJ/mol
# Density = 2.090745 g / cm^3
# Si number density = 20.955146 Si / 1000 Ang^3
#
#
#
# Elastic Constant Matrix: (Units=GPa)
#
#
# Indices 1 2 3 4 5 6 
#
# 1 117.6697 9.2176 22.1278 0.0000 0.0000 0.0000
# 2 9.2176 89.2169 28.9236 0.0000 0.0000 0.0000
# 3 22.1278 28.9236 85.2086 0.0000 0.0000 0.0000
# 4 0.0000 0.0000 0.0000 25.9642 0.0000 0.0000
# 5 0.0000 0.0000 0.0000 0.0000 21.5003 0.0000
# 6 0.0000 0.0000 0.0000 0.0000 0.0000 6.7023
#
#
#
# Elastic Compliance Matrix: (Units=1/GPa)
#
#
# Indices 1 2 3 4 5 6 
#
# 1 0.008938 -0.000192 -0.002256 0.000000 0.000000 0.000000
# 2 -0.000192 0.012599 -0.004227 0.000000 0.000000 0.000000
# 3 -0.002256 -0.004227 0.013756 0.000000 0.000000 0.000000
# 4 0.000000 0.000000 0.000000 0.038515 0.000000 0.000000
# 5 0.000000 0.000000 0.000000 0.000000 0.046511 0.000000
# 6 0.000000 0.000000 0.000000 0.000000 0.000000 0.149202
#
#
# Mechanical properties :
#
#
# Convention : Reuss Voigt Hill
#
# Bulk Modulus (GPa) = 45.57130 45.84814 45.70972
# Shear Modulus (GPa) = 17.23045 26.28843 21.75944
#
# Velocity S-wave (km/s) = 2.87061 3.54575 3.22589
# Velocity P-wave (km/s) = 5.72551 6.22011 5.97793
#
# Compressibility (1/GPa) = 0.02194363
#
# Stress axis : x y z
#
# Youngs Moduli (GPa) = 111.88662 79.37286 72.69314
#
# Poissons Ratio (x) = 0.01525 0.16398
# Poissons Ratio (y) = 0.02149 0.30725
# Poissons Ratio (z) = 0.25240 0.33549
#
# Static dielectric constant tensor:
#      x y z
#    x 1.755690 0.000000 0.000000 
#    y 0.000000 1.758280 0.000000 
#    z 0.000000 0.000000 1.843200 
# 
# From -- ./inp_files/3463.got.cif
#   From: 2010.05.17/outbox.cif.g08.bks.cpg/sg52_2_cif.got.tgz:3463.got - 2010.06.03 12:15:38.
