data_PCOD9411755
_publ_section_title
;
Structure prediction by ZEFSAII (Michael W. Deem and Ramdas Pophale) SiO2 
 PCOD9411755
Probable space group: P N N A
;
_chemical_formula_sum "Si O2"
_cell_formula_units_Z 40
_cell_length_a 24.401856
_cell_length_b 6.842919
_cell_length_c 9.206190
_cell_angle_alpha 90.000000
_cell_angle_beta 90.000000
_cell_angle_gamma 90.000000
_cell_volume 1537.248907
_symmetry_space_group_name_H-M "P N N A"
_symmetry_group_IT_number 52
_symmetry_cell_setting 'orthorhombic'
loop_
_space_group_symop_operation_xyz
x,y,z
1/2-x,-y,z
x,1/2-y,1/2-z
1/2-x,1/2+y,1/2-z
-x,-y,-z
1/2+x,y,-z
-x,1/2+y,1/2+z
1/2+x,1/2-y,1/2+z
loop_
_atom_site_type_symbol
_atom_site_label
_atom_site_fract_x
_atom_site_fract_y
_atom_site_fract_z
Si Si1 0.494184 0.238741 0.007218
Si Si2 0.076664 0.250000 0.750000
Si Si3 0.262879 0.226965 0.576210
Si Si4 0.353526 0.701405 0.483616
Si Si5 0.870106 0.330371 0.914474
Si Si6 0.068804 0.250000 0.250000
O O1 0.532461 0.323965 0.134413
O O2 0.430824 0.281285 0.029967
O O3 0.525118 0.322599 0.867257
O O4 0.500000 0.000000 0.000000
O O5 0.118400 0.352709 0.637485
O O6 0.262004 0.250000 0.750000
O O7 0.210971 0.330696 0.500138
O O8 0.322103 0.267691 0.509484
O O9 0.250000 0.000000 0.548847
O O10 0.390105 0.621749 0.350501
O O11 0.361905 0.936028 0.448267
O O12 0.863276 0.250000 0.750000
#
# Coordination Sequence:
#
# PCOD9411755 Si02
#       6
#     8   4   8   8   8   4
#     4  11  24  39  62  96 131 168 217 265 340 396
#     4  10  22  40  66  86 128 174 210 278 330 398
#     4  10  23  44  68  97 129 177 227 284 339 402
#     4  10  22  44  66  91 135 173 226 273 344 397
#     4  11  24  42  65  95 135 176 223 279 336 403
#     4  10  24  36  62  94 124 174 218 270 328 408
#
# _framework density 26.020508
#
# number of rings (size 3 to 8) (size 9 to 14) (size 15 to 20)
#    0.000    1.600    2.000    1.200    5.600    3.200 
#    3.600    0.000    0.000    0.000    0.000    0.000 
#    0.000    0.000    0.000    0.000    0.000    0.000 
#
# Total GULP energy -223243.709236 kJ/mol
# GULP energy per Si atom -5581.092731 kJ/mol
# Density = 2.596128 g / cm^3
# Si number density = 26.020508 Si / 1000 Ang^3
#
#
#
# Elastic Constant Matrix: (Units=GPa)
#
#
# Indices 1 2 3 4 5 6 
#
# 1 278.6211 24.6713 89.4337 0.0000 0.0000 0.0000
# 2 24.6713 137.4087 -7.8915 0.0000 0.0000 0.0000
# 3 89.4337 -7.8915 190.3066 0.0000 0.0000 0.0000
# 4 0.0000 0.0000 0.0000 -0.7591 0.0000 0.0000
# 5 0.0000 0.0000 0.0000 0.0000 86.4973 0.0000
# 6 0.0000 0.0000 0.0000 0.0000 0.0000 34.1099
#
#
#
# Elastic Compliance Matrix: (Units=1/GPa)
#
#
# Indices 1 2 3 4 5 6 
#
# 1 0.004334 -0.000897 -0.002074 0.000000 0.000000 0.000000
# 2 -0.000897 0.007481 0.000732 0.000000 0.000000 0.000000
# 3 -0.002074 0.000732 0.006260 0.000000 0.000000 0.000000
# 4 0.000000 0.000000 0.000000 -1.317330 0.000000 0.000000
# 5 0.000000 0.000000 0.000000 0.000000 0.011561 0.000000
# 6 0.000000 0.000000 0.000000 0.000000 0.000000 0.029317
#
#
# Mechanical properties :
#
#
# Convention : Reuss Voigt Hill
#
# Bulk Modulus (GPa) = 73.55264 90.97370 82.26317
# Shear Modulus (GPa) = -4.00203 57.31115 26.65456
#
# Velocity S-wave (km/s) = -1.24152 4.69821 3.20405
# Velocity P-wave (km/s) = 5.12576 8.02927 6.73582
#
# Compressibility (1/GPa) = 0.01359571
#
# Stress axis : x y z
#
# Youngs Moduli (GPa) = 230.71676 133.67722 159.75100
#
# Poissons Ratio (x) = 0.11995 0.33134
# Poissons Ratio (y) = 0.20703 -0.11692
# Poissons Ratio (z) = 0.47853 -0.09784
#
# Static dielectric constant tensor:
#      x y z
#    x 1.968160 0.000000 0.000000 
#    y 0.000000 2.372690 0.000000 
#    z 0.000000 0.000000 2.066620 
# 
# From -- ./inp_files/14059.got.cif
#   From: 2010.05.17/outbox.cif.g08.bks.cpg/sg52_8_cif.got.tgz:14059.got - 2010.06.03 12:15:38.
