data_PCOD9411726
_publ_section_title
;
Structure prediction by ZEFSAII (Michael W. Deem and Ramdas Pophale) SiO2 
 PCOD9411726
Probable space group: P N N A
;
_chemical_formula_sum "Si O2"
_cell_formula_units_Z 60
_cell_length_a 12.034829
_cell_length_b 23.568775
_cell_length_c 8.930839
_cell_angle_alpha 90.000000
_cell_angle_beta 90.000000
_cell_angle_gamma 90.000000
_cell_volume 2533.198339
_symmetry_space_group_name_H-M "P N N A"
_symmetry_group_IT_number 52
_symmetry_cell_setting 'orthorhombic'
loop_
_space_group_symop_operation_xyz
x,y,z
1/2-x,-y,z
x,1/2-y,1/2-z
1/2-x,1/2+y,1/2-z
-x,-y,-z
1/2+x,y,-z
-x,1/2+y,1/2+z
1/2+x,1/2-y,1/2+z
loop_
_atom_site_type_symbol
_atom_site_label
_atom_site_fract_x
_atom_site_fract_y
_atom_site_fract_z
Si Si1 0.931298 0.250000 0.250000
Si Si2 0.492422 0.934466 0.152631
Si Si3 0.857370 0.734648 0.950784
Si Si4 0.348615 0.645301 0.541081
Si Si5 0.819042 0.128928 0.295476
Si Si6 0.004352 0.190844 0.705452
Si Si7 0.353837 0.037867 0.132894
Si Si8 0.708488 0.632359 0.876739
O O1 0.021851 0.248484 0.115792
O O2 0.856026 0.194938 0.277904
O O3 0.566443 0.904734 0.276102
O O4 0.437906 0.992647 0.209000
O O5 0.396621 0.893119 0.090103
O O6 0.574041 0.943203 0.009988
O O7 0.791086 0.686881 0.858008
O O8 0.799443 0.794910 0.981469
O O9 0.887669 0.706736 0.109632
O O10 0.261943 0.617216 0.654981
O O11 0.453825 0.660308 0.646304
O O12 0.766366 0.111751 0.454729
O O13 0.949110 0.250000 0.750000
O O14 0.916354 0.156545 0.612128
O O15 0.307941 0.085893 0.246080
O O16 0.250000 0.000000 0.080938
#
# Coordination Sequence:
#
# PCOD9411726 Si02
#       8
#     4   8   8   8   8   8   8   8
#     4  12  24  38  64 110 146 180 232 290 352 450
#     4  11  25  49  75  99 136 193 247 312 346 422
#     4  11  24  39  65 105 148 189 230 290 364 445
#     4  11  22  44  71 103 145 193 237 293 363 439
#     4  12  25  42  70 105 142 187 236 291 369 434
#     4  10  22  40  62  99 145 185 230 279 356 439
#     4  11  27  49  73 102 136 184 252 304 355 420
#     4  12  25  44  70 102 146 189 230 295 367 430
#
# _framework density 23.685473000000002
#
# number of rings (size 3 to 8) (size 9 to 14) (size 15 to 20)
#    0.000    0.800    5.333    1.600    3.733    1.600 
#    0.000    3.333    0.000    0.000    0.000    0.000 
#    0.000    0.000    0.000    0.000    0.000    0.000 
#
# Total GULP energy -335272.721041 kJ/mol
# GULP energy per Si atom -5587.878684 kJ/mol
# Density = 2.363156 g / cm^3
# Si number density = 23.685473 Si / 1000 Ang^3
#
#
#
# Elastic Constant Matrix: (Units=GPa)
#
#
# Indices 1 2 3 4 5 6 
#
# 1 84.0657 36.2331 26.5591 0.0000 0.0000 0.0000
# 2 36.2331 83.3814 20.3227 0.0000 0.0000 0.0000
# 3 26.5591 20.3227 73.1602 0.0000 0.0000 0.0000
# 4 0.0000 0.0000 0.0000 33.1693 0.0000 0.0000
# 5 0.0000 0.0000 0.0000 0.0000 37.1929 0.0000
# 6 0.0000 0.0000 0.0000 0.0000 0.0000 31.5864
#
#
#
# Elastic Compliance Matrix: (Units=1/GPa)
#
#
# Indices 1 2 3 4 5 6 
#
# 1 0.015695 -0.005826 -0.004079 0.000000 0.000000 0.000000
# 2 -0.005826 0.015027 -0.002059 0.000000 0.000000 0.000000
# 3 -0.004079 -0.002059 0.015722 0.000000 0.000000 0.000000
# 4 0.000000 0.000000 0.000000 0.030148 0.000000 0.000000
# 5 0.000000 0.000000 0.000000 0.000000 0.026887 0.000000
# 6 0.000000 0.000000 0.000000 0.000000 0.000000 0.031659
#
#
# Mechanical properties :
#
#
# Convention : Reuss Voigt Hill
#
# Bulk Modulus (GPa) = 44.41624 45.20412 44.81018
# Shear Modulus (GPa) = 30.01701 30.88920 30.45310
#
# Velocity S-wave (km/s) = 3.56380 3.61521 3.58960
# Velocity P-wave (km/s) = 5.97725 6.04590 6.01167
#
# Compressibility (1/GPa) = 0.02251429
#
# Stress axis : x y z
#
# Youngs Moduli (GPa) = 63.71292 66.54832 63.60686
#
# Poissons Ratio (x) = 0.38772 0.25948
# Poissons Ratio (y) = 0.37120 0.13097
# Poissons Ratio (z) = 0.25991 0.13703
#
# Static dielectric constant tensor:
#      x y z
#    x 1.893230 0.000000 0.000000 
#    y 0.000000 1.934110 0.000000 
#    z 0.000000 0.000000 1.966090 
# 
# From -- ./inp_files/9037.got.cif
#   From: 2010.05.17/outbox.cif.g08.bks.cpg/sg52_5_cif.got.tgz:9037.got - 2010.06.03 12:15:38.
