data_PCOD9411244
_publ_section_title
;
Structure prediction by ZEFSAII (Michael W. Deem and Ramdas Pophale) SiO2 
 PCOD9411244
Probable space group: P N N A
;
_chemical_formula_sum "Si O2"
_cell_formula_units_Z 40
_cell_length_a 9.784535
_cell_length_b 21.570729
_cell_length_c 7.050681
_cell_angle_alpha 90.000000
_cell_angle_beta 90.000000
_cell_angle_gamma 90.000000
_cell_volume 1488.113579
_symmetry_space_group_name_H-M "P N N A"
_symmetry_group_IT_number 52
_symmetry_cell_setting 'orthorhombic'
loop_
_space_group_symop_operation_xyz
x,y,z
1/2-x,-y,z
x,1/2-y,1/2-z
1/2-x,1/2+y,1/2-z
-x,-y,-z
1/2+x,y,-z
-x,1/2+y,1/2+z
1/2+x,1/2-y,1/2+z
loop_
_atom_site_type_symbol
_atom_site_label
_atom_site_fract_x
_atom_site_fract_y
_atom_site_fract_z
Si Si1 0.733443 0.252208 0.982252
Si Si2 0.896693 0.557645 0.477059
Si Si3 0.873452 0.544539 0.031549
Si Si4 0.482083 0.332241 0.028174
Si Si5 0.144868 0.874076 0.072929
O O1 0.729844 0.250000 0.750000
O O2 0.776325 0.182272 0.023317
O O3 0.849431 0.299112 0.059976
O O4 0.588792 0.276412 0.052597
O O5 0.853579 0.557569 0.255705
O O6 0.754186 0.570114 0.580780
O O7 0.000000 0.500000 0.500000
O O8 0.004140 0.611204 0.532627
O O9 0.750000 0.500000 0.968035
O O10 0.923943 0.611161 0.950195
O O11 0.000000 0.500000 0.000000
O O12 0.412132 0.358795 0.218770
#
# Coordination Sequence:
#
# PCOD9411244 Si02
#       5
#     8   8   8   8   8
#     4  10  21  41  65  95 132 177 225 281 347 419
#     4  11  23  42  68  99 135 181 232 287 349 418
#     4  11  24  41  63  96 136 180 229 287 349 413
#     4  10  22  41  65  97 136 178 229 288 351 419
#     4  10  22  41  67  99 134 176 229 287 346 417
#
# _framework density 26.879667999999999
#
# number of rings (size 3 to 8) (size 9 to 14) (size 15 to 20)
#    0.000    1.600    0.000    4.200    0.000    8.000 
#    0.000   17.000    0.000    0.000    0.000    0.000 
#    0.000    0.000    0.000    0.000    0.000    0.000 
#
# Total GULP energy -223560.986969 kJ/mol
# GULP energy per Si atom -5589.024674 kJ/mol
# Density = 2.681849 g / cm^3
# Si number density = 26.879668 Si / 1000 Ang^3
#
#
#
# Elastic Constant Matrix: (Units=GPa)
#
#
# Indices 1 2 3 4 5 6 
#
# 1 238.9472 51.4584 36.7902 0.0000 0.0000 0.0000
# 2 51.4584 112.5236 45.8755 0.0000 0.0000 0.0000
# 3 36.7902 45.8755 110.7328 0.0000 0.0000 0.0000
# 4 0.0000 0.0000 0.0000 12.1575 0.0000 0.0000
# 5 0.0000 0.0000 0.0000 0.0000 21.7007 0.0000
# 6 0.0000 0.0000 0.0000 0.0000 0.0000 68.2231
#
#
#
# Elastic Compliance Matrix: (Units=1/GPa)
#
#
# Indices 1 2 3 4 5 6 
#
# 1 0.004701 -0.001821 -0.000808 0.000000 0.000000 0.000000
# 2 -0.001821 0.011398 -0.004117 0.000000 0.000000 0.000000
# 3 -0.000808 -0.004117 0.011005 0.000000 0.000000 0.000000
# 4 0.000000 0.000000 0.000000 0.082254 0.000000 0.000000
# 5 0.000000 0.000000 0.000000 0.000000 0.046082 0.000000
# 6 0.000000 0.000000 0.000000 0.000000 0.000000 0.014658
#
#
# Mechanical properties :
#
#
# Convention : Reuss Voigt Hill
#
# Bulk Modulus (GPa) = 73.45837 81.16133 77.30985
# Shear Modulus (GPa) = 26.57779 42.28821 34.43300
#
# Velocity S-wave (km/s) = 3.14788 3.97071 3.58300
# Velocity P-wave (km/s) = 6.37182 7.16114 6.77798
#
# Compressibility (1/GPa) = 0.01361315
#
# Stress axis : x y z
#
# Youngs Moduli (GPa) = 212.69838 87.73261 90.86903
#
# Poissons Ratio (x) = 0.15974 0.07340
# Poissons Ratio (y) = 0.38727 0.37413
# Poissons Ratio (z) = 0.17180 0.36122
#
# Static dielectric constant tensor:
#      x y z
#    x 1.999220 0.000000 0.000000 
#    y 0.000000 2.276680 0.000000 
#    z 0.000000 0.000000 2.143550 
# 
# From -- ./inp_files/7431.got.cif
#   From: 2010.05.17/outbox.cif.g08.bks.cpg/sg52_4_cif.got.tgz:7431.got - 2010.06.03 12:15:38.
