data_PCOD9411952
_publ_section_title
;
Structure prediction by ZEFSAII (Michael W. Deem and Ramdas Pophale) SiO2 
 PCOD9411952
Probable space group: P N N A
;
_chemical_formula_sum "Si O2"
_cell_formula_units_Z 40
_cell_length_a 19.587183
_cell_length_b 10.425226
_cell_length_c 8.395809
_cell_angle_alpha 90.000000
_cell_angle_beta 90.000000
_cell_angle_gamma 90.000000
_cell_volume 1714.430994
_symmetry_space_group_name_H-M "P N N A"
_symmetry_group_IT_number 52
_symmetry_cell_setting 'orthorhombic'
loop_
_space_group_symop_operation_xyz
x,y,z
1/2-x,-y,z
x,1/2-y,1/2-z
1/2-x,1/2+y,1/2-z
-x,-y,-z
1/2+x,y,-z
-x,1/2+y,1/2+z
1/2+x,1/2-y,1/2+z
loop_
_atom_site_type_symbol
_atom_site_label
_atom_site_fract_x
_atom_site_fract_y
_atom_site_fract_z
Si Si1 0.363786 0.806058 0.424330
Si Si2 0.776909 0.200477 0.933455
Si Si3 0.677807 0.951328 0.401196
Si Si4 0.607304 0.950161 0.071431
Si Si5 0.487093 0.797218 0.927680
O O1 0.374077 0.750000 0.250000
O O2 0.302128 0.715053 0.490780
O O3 0.438106 0.810785 0.501930
O O4 0.336387 0.949553 0.454495
O O5 0.776589 0.250000 0.750000
O O6 0.814031 0.310237 0.033766
O O7 0.823381 0.076123 0.968197
O O8 0.625900 0.950265 0.256674
O O9 0.750000 0.000000 0.331948
O O10 0.564773 0.081628 0.052215
O O11 0.554552 0.839380 0.018647
O O12 0.503806 0.750000 0.750000
#
# Coordination Sequence:
#
# PCOD9411952 Si02
#       5
#     8   8   8   8   8
#     4  10  23  42  66  97 135 176 217 275 334 398
#     4  10  23  41  67  98 132 171 223 277 335 399
#     4  10  22  42  67 101 132 169 225 277 330 399
#     4  11  24  41  68  96 130 179 221 275 335 400
#     4  11  24  44  65  96 136 174 226 273 335 400
#
# _framework density 23.331357000000001
#
# number of rings (size 3 to 8) (size 9 to 14) (size 15 to 20)
#    0.000    1.600    2.000    1.200    5.600    1.600 
#    0.000    2.000    0.000    0.000    0.000    0.000 
#    0.000    0.000    0.000    0.000    0.000    0.000 
#
# Total GULP energy -223207.567792 kJ/mol
# GULP energy per Si atom -5580.189195 kJ/mol
# Density = 2.327825 g / cm^3
# Si number density = 23.331357 Si / 1000 Ang^3
#
#
#
# Elastic Constant Matrix: (Units=GPa)
#
#
# Indices 1 2 3 4 5 6 
#
# 1 108.9776 20.7247 29.4144 0.0000 0.0000 0.0000
# 2 20.7247 62.0144 5.5654 0.0000 0.0000 0.0000
# 3 29.4144 5.5654 86.4528 0.0000 0.0000 0.0000
# 4 0.0000 0.0000 0.0000 33.4057 0.0000 0.0000
# 5 0.0000 0.0000 0.0000 0.0000 17.6716 0.0000
# 6 0.0000 0.0000 0.0000 0.0000 0.0000 13.5878
#
#
#
# Elastic Compliance Matrix: (Units=1/GPa)
#
#
# Indices 1 2 3 4 5 6 
#
# 1 0.010728 -0.003276 -0.003439 0.000000 0.000000 0.000000
# 2 -0.003276 0.017220 0.000006 0.000000 0.000000 0.000000
# 3 -0.003439 0.000006 0.012737 0.000000 0.000000 0.000000
# 4 0.000000 0.000000 0.000000 0.029935 0.000000 0.000000
# 5 0.000000 0.000000 0.000000 0.000000 0.056588 0.000000
# 6 0.000000 0.000000 0.000000 0.000000 0.000000 0.073596
#
#
# Mechanical properties :
#
#
# Convention : Reuss Voigt Hill
#
# Bulk Modulus (GPa) = 36.67630 40.98375 38.83003
# Shear Modulus (GPa) = 22.39048 26.38236 24.38642
#
# Velocity S-wave (km/s) = 3.10122 3.36634 3.23649
# Velocity P-wave (km/s) = 5.34577 5.71959 5.53584
#
# Compressibility (1/GPa) = 0.02726556
#
# Stress axis : x y z
#
# Youngs Moduli (GPa) = 93.21828 58.07304 78.51351
#
# Poissons Ratio (x) = 0.19027 0.27001
# Poissons Ratio (y) = 0.30542 -0.00049
# Poissons Ratio (z) = 0.32057 -0.00036
#
# Static dielectric constant tensor:
#      x y z
#    x 1.920290 0.000000 0.000000 
#    y 0.000000 2.136730 0.000000 
#    z 0.000000 0.000000 1.874320 
# 
# From -- ./inp_files/11625.got.cif
#   From: 2010.05.17/outbox.cif.g08.bks.cpg/sg52_6_cif.got.tgz:11625.got - 2010.06.03 12:15:38.
