data_PCOD9411584
_publ_section_title
;
Structure prediction by ZEFSAII (Michael W. Deem and Ramdas Pophale) SiO2 
 PCOD9411584
Probable space group: P N N A
;
_chemical_formula_sum "Si O2"
_cell_formula_units_Z 48
_cell_length_a 9.309372
_cell_length_b 11.260337
_cell_length_c 23.637355
_cell_angle_alpha 90.000000
_cell_angle_beta 90.000000
_cell_angle_gamma 90.000000
_cell_volume 2477.825117
_symmetry_space_group_name_H-M "P N N A"
_symmetry_group_IT_number 52
_symmetry_cell_setting 'orthorhombic'
loop_
_space_group_symop_operation_xyz
x,y,z
1/2-x,-y,z
x,1/2-y,1/2-z
1/2-x,1/2+y,1/2-z
-x,-y,-z
1/2+x,y,-z
-x,1/2+y,1/2+z
1/2+x,1/2-y,1/2+z
loop_
_atom_site_type_symbol
_atom_site_label
_atom_site_fract_x
_atom_site_fract_y
_atom_site_fract_z
Si Si1 0.700861 0.864414 0.152538
Si Si2 0.059183 0.300438 0.811422
Si Si3 0.266453 0.858968 0.332280
Si Si4 0.876802 0.198749 0.439908
Si Si5 0.250000 0.500000 0.856699
Si Si6 0.685962 0.367005 0.963601
Si Si7 0.506563 0.750000 0.250000
O O1 0.848129 0.787265 0.149443
O O2 0.610793 0.816575 0.098467
O O3 0.609161 0.828628 0.208824
O O4 0.750000 0.000000 0.152707
O O5 0.087942 0.250000 0.750000
O O6 0.131815 0.429000 0.820731
O O7 0.889028 0.303672 0.819021
O O8 0.292135 0.833011 0.398242
O O9 0.397509 0.817407 0.292689
O O10 0.250000 0.000000 0.325641
O O11 0.761476 0.212367 0.489343
O O12 0.017036 0.148225 0.470653
O O13 0.828971 0.095252 0.396315
O O14 0.750000 0.500000 0.970615
#
# Coordination Sequence:
#
# PCOD9411584 Si02
#       7
#     8   8   8   8   4   8   4
#     4  11  27  44  66  92 134 181 225 265 327 407
#     4  11  24  38  64  93 127 174 217 267 325 393
#     4  11  25  40  66 100 134 162 214 284 345 386
#     4  11  23  41  65  97 128 172 214 281 338 395
#     4  10  22  38  62  94 130 166 222 266 340 392
#     4  11  22  38  67 100 131 165 216 284 345 390
#     4  12  24  44  66  94 134 176 222 272 330 404
#
# _framework density 19.371828000000001
#
# number of rings (size 3 to 8) (size 9 to 14) (size 15 to 20)
#    0.000    1.000    4.167    2.500   10.500    0.000 
#    0.000    0.833    0.000    0.000    0.000    0.000 
#    0.000    0.000    0.000    0.000    0.000    0.000 
#
# Total GULP energy -267917.312654 kJ/mol
# GULP energy per Si atom -5581.610680 kJ/mol
# Density = 1.932774 g / cm^3
# Si number density = 19.371828 Si / 1000 Ang^3
#
#
#
# Elastic Constant Matrix: (Units=GPa)
#
#
# Indices 1 2 3 4 5 6 
#
# 1 132.8249 43.8207 32.7375 0.0000 0.0000 0.0000
# 2 43.8207 104.1485 41.9308 0.0000 0.0000 0.0000
# 3 32.7375 41.9308 109.7882 0.0000 0.0000 0.0000
# 4 0.0000 0.0000 0.0000 19.8341 0.0000 0.0000
# 5 0.0000 0.0000 0.0000 0.0000 -21.2929 0.0000
# 6 0.0000 0.0000 0.0000 0.0000 0.0000 27.8450
#
#
#
# Elastic Compliance Matrix: (Units=1/GPa)
#
#
# Indices 1 2 3 4 5 6 
#
# 1 0.008934 -0.003175 -0.001452 0.000000 0.000000 0.000000
# 2 -0.003175 0.012474 -0.003818 0.000000 0.000000 0.000000
# 3 -0.001452 -0.003818 0.010999 0.000000 0.000000 0.000000
# 4 0.000000 0.000000 0.000000 0.050418 0.000000 0.000000
# 5 0.000000 0.000000 0.000000 0.000000 -0.046964 0.000000
# 6 0.000000 0.000000 0.000000 0.000000 0.000000 0.035913
#
#
# Mechanical properties :
#
#
# Convention : Reuss Voigt Hill
#
# Bulk Modulus (GPa) = 64.43262 64.85993 64.64628
# Shear Modulus (GPa) = 53.28459 20.49540 36.88999
#
# Velocity S-wave (km/s) = 5.25033 3.25622 4.36858
# Velocity P-wave (km/s) = 8.37184 6.90591 7.67396
#
# Compressibility (1/GPa) = 0.01552009
#
# Stress axis : x y z
#
# Youngs Moduli (GPa) = 111.93463 80.16432 90.91462
#
# Poissons Ratio (x) = 0.25448 0.13196
# Poissons Ratio (y) = 0.35534 0.34708
# Poissons Ratio (z) = 0.16248 0.30604
#
# Static dielectric constant tensor:
#      x y z
#    x 1.743660 0.000000 0.000000 
#    y 0.000000 1.696220 0.000000 
#    z 0.000000 0.000000 1.735140 
# 
# From -- ./inp_files/39485.got.cif
#   From: 2010.05.17/outbox.cif.g08.bks.cpg/sg52_20_cif.got.tgz:39485.got - 2010.06.03 12:15:38.
