data_PCOD9411210
_publ_section_title
;
Structure prediction by ZEFSAII (Michael W. Deem and Ramdas Pophale) SiO2 
 PCOD9411210
Probable space group: P N N A
;
_chemical_formula_sum "Si O2"
_cell_formula_units_Z 60
_cell_length_a 9.715148
_cell_length_b 10.626502
_cell_length_c 25.910678
_cell_angle_alpha 90.000000
_cell_angle_beta 90.000000
_cell_angle_gamma 90.000000
_cell_volume 2674.967603
_symmetry_space_group_name_H-M "P N N A"
_symmetry_group_IT_number 52
_symmetry_cell_setting 'orthorhombic'
loop_
_space_group_symop_operation_xyz
x,y,z
1/2-x,-y,z
x,1/2-y,1/2-z
1/2-x,1/2+y,1/2-z
-x,-y,-z
1/2+x,y,-z
-x,1/2+y,1/2+z
1/2+x,1/2-y,1/2+z
loop_
_atom_site_type_symbol
_atom_site_label
_atom_site_fract_x
_atom_site_fract_y
_atom_site_fract_z
Si Si1 0.618505 0.298847 0.133797
Si Si2 0.493969 0.525977 0.673067
Si Si3 0.250000 0.500000 0.400773
Si Si4 0.552638 0.861522 0.721849
Si Si5 0.503708 0.641207 0.979042
Si Si6 0.709396 0.235059 0.554445
Si Si7 0.686300 0.359640 0.830162
Si Si8 0.387195 0.254985 0.690147
O O1 0.570049 0.155556 0.149525
O O2 0.532842 0.393803 0.170987
O O3 0.572989 0.332874 0.075767
O O4 0.777079 0.306267 0.151045
O O5 0.618587 0.492509 0.635686
O O6 0.554030 0.540177 0.731671
O O7 0.399405 0.402453 0.675133
O O8 0.246848 0.623548 0.434654
O O9 0.469529 0.750000 0.750000
O O10 0.689732 0.791415 0.700133
O O11 0.663500 0.671263 0.973673
O O12 0.500000 0.500000 0.000000
O O13 0.427373 0.725566 0.021304
O O14 0.692510 0.167441 0.609468
O O15 0.750000 0.500000 0.820171
O O16 0.537177 0.312574 0.812789
O O17 0.343372 0.250000 0.750000
#
# Coordination Sequence:
#
# PCOD9411210 Si02
#       8
#     8   8   4   8   8   8   8   8
#     4  11  25  49  72 106 156 202 250 322 398 457
#     4  11  23  44  75 109 156 200 254 313 383 467
#     4  12  24  48  76 108 148 190 262 316 378 464
#     4  10  21  40  72 101 146 196 240 301 374 450
#     4  12  27  52  77 108 145 197 260 327 393 468
#     4  12  27  50  76 108 142 193 254 322 392 453
#     4  12  24  43  68 103 150 196 251 309 366 453
#     4  12  26  43  71 117 157 204 257 308 386 475
#
# _framework density 22.430178999999999
#
# number of rings (size 3 to 8) (size 9 to 14) (size 15 to 20)
#    0.000    0.533    4.000    4.800    4.667    0.533 
#    4.800    2.000    0.000    0.000    0.000    0.000 
#    0.000    0.000    0.000    0.000    0.000    0.000 
#
# Total GULP energy -335203.017481 kJ/mol
# GULP energy per Si atom -5586.716958 kJ/mol
# Density = 2.237913 g / cm^3
# Si number density = 22.430179 Si / 1000 Ang^3
#
#
#
# Elastic Constant Matrix: (Units=GPa)
#
#
# Indices 1 2 3 4 5 6 
#
# 1 100.7807 -7.1966 -0.0709 0.0000 0.0000 0.0000
# 2 -7.1966 72.6339 4.0646 0.0000 0.0000 0.0000
# 3 -0.0709 4.0646 87.1305 0.0000 0.0000 0.0000
# 4 0.0000 0.0000 0.0000 34.5258 0.0000 0.0000
# 5 0.0000 0.0000 0.0000 0.0000 28.6835 0.0000
# 6 0.0000 0.0000 0.0000 0.0000 0.0000 23.3046
#
#
#
# Elastic Compliance Matrix: (Units=1/GPa)
#
#
# Indices 1 2 3 4 5 6 
#
# 1 0.009993 0.000992 -0.000038 0.000000 0.000000 0.000000
# 2 0.000992 0.013902 -0.000648 0.000000 0.000000 0.000000
# 3 -0.000038 -0.000648 0.011507 0.000000 0.000000 0.000000
# 4 0.000000 0.000000 0.000000 0.028964 0.000000 0.000000
# 5 0.000000 0.000000 0.000000 0.000000 0.034863 0.000000
# 6 0.000000 0.000000 0.000000 0.000000 0.000000 0.042910
#
#
# Mechanical properties :
#
#
# Convention : Reuss Voigt Hill
#
# Bulk Modulus (GPa) = 27.76574 28.23771 28.00173
# Shear Modulus (GPa) = 32.56645 34.88599 33.72622
#
# Velocity S-wave (km/s) = 3.81452 3.94803 3.88185
# Velocity P-wave (km/s) = 5.63971 5.77919 5.70988
#
# Compressibility (1/GPa) = 0.03601561
#
# Stress axis : x y z
#
# Youngs Moduli (GPa) = 100.06642 71.93083 86.90193
#
# Poissons Ratio (x) = -0.07138 0.00332
# Poissons Ratio (y) = -0.09929 0.05629
# Poissons Ratio (z) = 0.00382 0.04659
#
# Static dielectric constant tensor:
#      x y z
#    x 2.042370 0.000000 0.000000 
#    y 0.000000 2.092360 0.000000 
#    z 0.000000 0.000000 1.791420 
# 
# From -- ./inp_files/42336.got.cif
#   From: 2010.05.17/outbox.cif.g08.bks.cpg/sg52_22_cif.got.tgz:42336.got - 2010.06.03 12:15:38.
