data_PCOD9411580
_publ_section_title
;
Structure prediction by ZEFSAII (Michael W. Deem and Ramdas Pophale) SiO2 
 PCOD9411580
Probable space group: P N N A
;
_chemical_formula_sum "Si O2"
_cell_formula_units_Z 64
_cell_length_a 17.648154
_cell_length_b 13.949685
_cell_length_c 12.817995
_cell_angle_alpha 90.000000
_cell_angle_beta 90.000000
_cell_angle_gamma 90.000000
_cell_volume 3155.613341
_symmetry_space_group_name_H-M "P N N A"
_symmetry_group_IT_number 52
_symmetry_cell_setting 'orthorhombic'
loop_
_space_group_symop_operation_xyz
x,y,z
1/2-x,-y,z
x,1/2-y,1/2-z
1/2-x,1/2+y,1/2-z
-x,-y,-z
1/2+x,y,-z
-x,1/2+y,1/2+z
1/2+x,1/2-y,1/2+z
loop_
_atom_site_type_symbol
_atom_site_label
_atom_site_fract_x
_atom_site_fract_y
_atom_site_fract_z
Si Si1 0.763554 0.205423 0.506017
Si Si2 0.058716 0.015119 0.904009
Si Si3 0.839894 0.663342 0.819165
Si Si4 0.180932 0.578871 0.459838
Si Si5 0.945176 0.860728 0.511549
Si Si6 0.121140 0.271969 0.630226
Si Si7 0.416740 0.475180 0.260793
Si Si8 0.603856 0.567799 0.981374
O O1 0.729525 0.146739 0.604087
O O2 0.791192 0.311892 0.535136
O O3 0.695182 0.230014 0.427650
O O4 0.831097 0.135357 0.474089
O O5 0.099030 0.119269 0.896650
O O6 0.003228 0.008139 0.802141
O O7 0.127825 0.945243 0.939066
O O8 0.000000 0.000000 0.000000
O O9 0.815159 0.750000 0.750000
O O10 0.872620 0.575271 0.756028
O O11 0.908978 0.696964 0.893317
O O12 0.250000 0.500000 0.455303
O O13 0.129353 0.572756 0.355451
O O14 0.946960 0.793272 0.412758
O O15 0.026851 0.899583 0.536130
O O16 0.891989 0.954224 0.496568
O O17 0.130709 0.250000 0.750000
O O18 0.409053 0.426904 0.145528
#
# Coordination Sequence:
#
# PCOD9411580 Si02
#       8
#     8   8   8   8   8   8   8   8
#     4  11  25  40  64  98 137 174 214 284 347 403
#     4  10  23  41  63  95 131 174 224 277 332 404
#     4  10  22  38  61  92 129 170 214 265 343 399
#     4  11  22  40  62  93 140 172 217 281 339 407
#     4   9  22  41  65  87 128 167 212 278 321 391
#     4  11  23  44  67  91 129 179 226 269 338 408
#     4  10  23  37  63  95 126 175 221 270 337 406
#     4  10  22  42  62  98 128 164 224 276 334 399
#
# _framework density 20.281317999999999
#
# number of rings (size 3 to 8) (size 9 to 14) (size 15 to 20)
#    0.000    1.750    1.250    1.500   12.250    4.000 
#    0.000    6.875    0.000    0.000    0.000    0.000 
#    0.000    0.000    0.000    0.000    0.000    0.000 
#
# Total GULP energy -356444.289703 kJ/mol
# GULP energy per Si atom -5569.442027 kJ/mol
# Density = 2.023516 g / cm^3
# Si number density = 20.281318 Si / 1000 Ang^3
#
#
#
# Elastic Constant Matrix: (Units=GPa)
#
#
# Indices 1 2 3 4 5 6 
#
# 1 59.9855 23.6473 -10.9254 0.0000 0.0000 0.0000
# 2 23.6473 65.6331 2.2436 0.0000 0.0000 0.0000
# 3 -10.9254 2.2436 46.2452 0.0000 0.0000 0.0000
# 4 0.0000 0.0000 0.0000 11.9726 0.0000 0.0000
# 5 0.0000 0.0000 0.0000 0.0000 20.8605 0.0000
# 6 0.0000 0.0000 0.0000 0.0000 0.0000 40.6549
#
#
#
# Elastic Compliance Matrix: (Units=1/GPa)
#
#
# Indices 1 2 3 4 5 6 
#
# 1 0.020626 -0.007610 0.005242 0.000000 0.000000 0.000000
# 2 -0.007610 0.018070 -0.002675 0.000000 0.000000 0.000000
# 3 0.005242 -0.002675 0.022992 0.000000 0.000000 0.000000
# 4 0.000000 0.000000 0.000000 0.083524 0.000000 0.000000
# 5 0.000000 0.000000 0.000000 0.000000 0.047938 0.000000
# 6 0.000000 0.000000 0.000000 0.000000 0.000000 0.024597
#
#
# Mechanical properties :
#
#
# Convention : Reuss Voigt Hill
#
# Bulk Modulus (GPa) = 19.37944 22.42164 20.90054
# Shear Modulus (GPa) = 20.40542 25.15748 22.78145
#
# Velocity S-wave (km/s) = 3.17538 3.52579 3.35516
# Velocity P-wave (km/s) = 4.79793 5.25873 5.03360
#
# Compressibility (1/GPa) = 0.05160109
#
# Stress axis : x y z
#
# Youngs Moduli (GPa) = 48.48340 55.34140 43.49335
#
# Poissons Ratio (x) = 0.42117 -0.22799
# Poissons Ratio (y) = 0.36898 0.11633
# Poissons Ratio (z) = -0.25415 0.14802
#
# Static dielectric constant tensor:
#      x y z
#    x 1.746670 0.000000 0.000000 
#    y 0.000000 1.773790 0.000000 
#    z 0.000000 0.000000 1.599490 
# 
# From -- ./inp_files/20875.got.cif
#   From: 2010.05.17/outbox.cif.g08.bks.cpg/sg52_11_cif.got.tgz:20875.got - 2010.06.03 12:15:38.
