data_PCOD9411088
_publ_section_title
;
Structure prediction by ZEFSAII (Michael W. Deem and Ramdas Pophale) SiO2 
 PCOD9411088
Probable space group: P N N A
;
_chemical_formula_sum "Si O2"
_cell_formula_units_Z 44
_cell_length_a 14.898973
_cell_length_b 14.262715
_cell_length_c 8.766979
_cell_angle_alpha 90.000000
_cell_angle_beta 90.000000
_cell_angle_gamma 90.000000
_cell_volume 1862.981334
_symmetry_space_group_name_H-M "P N N A"
_symmetry_group_IT_number 52
_symmetry_cell_setting 'orthorhombic'
loop_
_space_group_symop_operation_xyz
x,y,z
1/2-x,-y,z
x,1/2-y,1/2-z
1/2-x,1/2+y,1/2-z
-x,-y,-z
1/2+x,y,-z
-x,1/2+y,1/2+z
1/2+x,1/2-y,1/2+z
loop_
_atom_site_type_symbol
_atom_site_label
_atom_site_fract_x
_atom_site_fract_y
_atom_site_fract_z
Si Si1 0.920610 0.854800 0.201561
Si Si2 0.406106 0.376310 0.502900
Si Si3 0.092188 0.376714 0.033893
Si Si4 0.219802 0.210970 0.023317
Si Si5 0.474057 0.250000 0.750000
Si Si6 0.844602 0.540401 0.691652
O O1 0.947200 0.750000 0.250000
O O2 0.923518 0.909046 0.361198
O O3 0.998681 0.879527 0.083381
O O4 0.821707 0.839552 0.128105
O O5 0.324732 0.307515 0.450308
O O6 0.422686 0.337493 0.672005
O O7 0.369578 0.478964 0.456352
O O8 0.185856 0.317063 0.022481
O O9 0.094836 0.458340 0.158986
O O10 0.025543 0.298783 0.107367
O O11 0.167922 0.148932 0.148951
O O12 0.750000 0.500000 0.741425
#
# Coordination Sequence:
#
# PCOD9411088 Si02
#       6
#     8   8   8   8   4   8
#     4  10  21  40  61  94 127 165 218 269 325 392
#     4  11  24  39  65  97 128 169 227 270 328 405
#     4  11  21  42  65  90 132 171 214 274 335 399
#     4  10  21  42  67  89 129 173 213 278 327 398
#     4  12  22  40  64  98 118 180 226 264 334 408
#     4  10  22  41  63  96 131 172 219 270 337 394
#
# _framework density 23.618058000000001
#
# number of rings (size 3 to 8) (size 9 to 14) (size 15 to 20)
#    0.000    1.455    5.455    0.000    3.818    6.545 
#    0.000    2.727    0.000    0.000    0.000    0.000 
#    0.000    0.000    0.000    0.000    0.000    0.000 
#
# Total GULP energy -245030.466062 kJ/mol
# GULP energy per Si atom -5568.874229 kJ/mol
# Density = 2.356430 g / cm^3
# Si number density = 23.618058 Si / 1000 Ang^3
#
#
#
# Elastic Constant Matrix: (Units=GPa)
#
#
# Indices 1 2 3 4 5 6 
#
# 1 85.2802 17.0691 22.0471 0.0000 0.0000 0.0000
# 2 17.0691 60.4267 16.9334 0.0000 0.0000 0.0000
# 3 22.0471 16.9334 141.0824 0.0000 0.0000 0.0000
# 4 0.0000 0.0000 0.0000 34.8740 0.0000 0.0000
# 5 0.0000 0.0000 0.0000 0.0000 19.5322 0.0000
# 6 0.0000 0.0000 0.0000 0.0000 0.0000 6.2423
#
#
#
# Elastic Compliance Matrix: (Units=1/GPa)
#
#
# Indices 1 2 3 4 5 6 
#
# 1 0.012776 -0.003156 -0.001618 0.000000 0.000000 0.000000
# 2 -0.003156 0.017904 -0.001656 0.000000 0.000000 0.000000
# 3 -0.001618 -0.001656 0.007540 0.000000 0.000000 0.000000
# 4 0.000000 0.000000 0.000000 0.028675 0.000000 0.000000
# 5 0.000000 0.000000 0.000000 0.000000 0.051197 0.000000
# 6 0.000000 0.000000 0.000000 0.000000 0.000000 0.160198
#
#
# Mechanical properties :
#
#
# Convention : Reuss Voigt Hill
#
# Bulk Modulus (GPa) = 39.42977 44.32095 41.87536
# Shear Modulus (GPa) = 16.68880 27.51234 22.10057
#
# Velocity S-wave (km/s) = 2.66110 3.41675 3.06232
# Velocity P-wave (km/s) = 5.11595 5.86276 5.50204
#
# Compressibility (1/GPa) = 0.02536155
#
# Stress axis : x y z
#
# Youngs Moduli (GPa) = 78.27254 55.85235 132.63290
#
# Poissons Ratio (x) = 0.17624 0.21457
# Poissons Ratio (y) = 0.24699 0.21962
# Poissons Ratio (z) = 0.12663 0.09248
#
# Static dielectric constant tensor:
#      x y z
#    x 1.925770 0.000000 0.000000 
#    y 0.000000 1.925160 0.000000 
#    z 0.000000 0.000000 2.046560 
# 
# From -- ./inp_files/10356.got.cif
#   From: 2010.05.17/outbox.cif.g08.bks.cpg/sg52_6_cif.got.tgz:10356.got - 2010.06.03 12:15:38.
