data_PCOD9411249
_publ_section_title
;
Structure prediction by ZEFSAII (Michael W. Deem and Ramdas Pophale) SiO2 
 PCOD9411249
Probable space group: P N N A
;
_chemical_formula_sum "Si O2"
_cell_formula_units_Z 56
_cell_length_a 14.139313
_cell_length_b 21.132017
_cell_length_c 9.216336
_cell_angle_alpha 90.000000
_cell_angle_beta 90.000000
_cell_angle_gamma 90.000000
_cell_volume 2753.769334
_symmetry_space_group_name_H-M "P N N A"
_symmetry_group_IT_number 52
_symmetry_cell_setting 'orthorhombic'
loop_
_space_group_symop_operation_xyz
x,y,z
1/2-x,-y,z
x,1/2-y,1/2-z
1/2-x,1/2+y,1/2-z
-x,-y,-z
1/2+x,y,-z
-x,1/2+y,1/2+z
1/2+x,1/2-y,1/2+z
loop_
_atom_site_type_symbol
_atom_site_label
_atom_site_fract_x
_atom_site_fract_y
_atom_site_fract_z
Si Si1 0.237359 0.925157 0.070807
Si Si2 0.393261 0.676079 0.492651
Si Si3 0.289647 0.750000 0.250000
Si Si4 0.854134 0.029059 0.492785
Si Si5 0.474729 0.750000 0.750000
Si Si6 0.855572 0.155049 0.659096
Si Si7 0.961715 0.412560 0.490310
Si Si8 0.003766 0.997050 0.255029
O O1 0.324567 0.886330 0.000473
O O2 0.192879 0.885835 0.207692
O O3 0.250000 0.000000 0.105663
O O4 0.147670 0.924113 0.964250
O O5 0.354705 0.708522 0.350657
O O6 0.403841 0.721409 0.629639
O O7 0.502822 0.657439 0.472491
O O8 0.221354 0.789619 0.356269
O O9 0.860329 0.104408 0.528293
O O10 0.912633 0.000939 0.628890
O O11 0.750000 0.000000 0.491629
O O12 0.909944 0.008427 0.348306
O O13 0.546625 0.806660 0.694192
O O14 0.016416 0.450788 0.367516
O O15 0.991649 0.435295 0.652271
#
# Coordination Sequence:
#
# PCOD9411249 Si02
#       8
#     8   8   4   8   4   8   8   8
#     4  11  21  38  68 102 131 164 222 277 343 404
#     4  11  24  42  69  94 126 179 225 277 330 399
#     4   9  24  42  63  92 120 174 243 258 321 402
#     4  11  23  40  63  98 135 172 210 273 343 395
#     4  11  22  46  65  90 136 176 231 270 327 388
#     4  10  21  41  66  88 130 180 214 272 326 396
#     4  11  22  41  65  94 132 171 216 270 326 409
#     4  10  23  38  61  99 131 168 212 261 337 410
#
# _framework density 20.335763
#
# number of rings (size 3 to 8) (size 9 to 14) (size 15 to 20)
#    0.000    1.429    2.857    2.143    4.000    2.857 
#    7.714    1.429    0.000    0.000    0.000    0.000 
#    0.000    0.000    0.000    0.000    0.000    0.000 
#
# Total GULP energy -311796.787283 kJ/mol
# GULP energy per Si atom -5567.799773 kJ/mol
# Density = 2.028948 g / cm^3
# Si number density = 20.335763 Si / 1000 Ang^3
#
#
#
# Elastic Constant Matrix: (Units=GPa)
#
#
# Indices 1 2 3 4 5 6 
#
# 1 108.8355 48.4947 66.5821 0.0000 0.0000 0.0000
# 2 48.4947 79.8768 25.1101 0.0000 0.0000 0.0000
# 3 66.5821 25.1101 82.5281 0.0000 0.0000 0.0000
# 4 0.0000 0.0000 0.0000 21.5031 0.0000 0.0000
# 5 0.0000 0.0000 0.0000 0.0000 23.9565 0.0000
# 6 0.0000 0.0000 0.0000 0.0000 0.0000 8.4133
#
#
#
# Elastic Compliance Matrix: (Units=1/GPa)
#
#
# Indices 1 2 3 4 5 6 
#
# 1 0.022685 -0.008867 -0.015604 0.000000 0.000000 0.000000
# 2 -0.008867 0.017310 0.001887 0.000000 0.000000 0.000000
# 3 -0.015604 0.001887 0.024132 0.000000 0.000000 0.000000
# 4 0.000000 0.000000 0.000000 0.046505 0.000000 0.000000
# 5 0.000000 0.000000 0.000000 0.000000 0.041742 0.000000
# 6 0.000000 0.000000 0.000000 0.000000 0.000000 0.118860
#
#
# Mechanical properties :
#
#
# Convention : Reuss Voigt Hill
#
# Bulk Modulus (GPa) = 52.74643 61.29049 57.01846
# Shear Modulus (GPa) = 15.49321 19.51146 17.50234
#
# Velocity S-wave (km/s) = 2.76319 3.10088 2.93690
# Velocity P-wave (km/s) = 6.01452 6.55937 6.29284
#
# Compressibility (1/GPa) = 0.01895863
#
# Stress axis : x y z
#
# Youngs Moduli (GPa) = 44.08112 57.77165 41.43882
#
# Poissons Ratio (x) = 0.51229 0.64662
# Poissons Ratio (y) = 0.39089 -0.07821
# Poissons Ratio (z) = 0.68785 -0.10904
#
# Static dielectric constant tensor:
#      x y z
#    x 1.765810 0.000000 0.000000 
#    y 0.000000 1.774880 0.000000 
#    z 0.000000 0.000000 1.721620 
# 
# From -- ./inp_files/10859.got.cif
#   From: 2010.05.17/outbox.cif.g08.bks.cpg/sg52_6_cif.got.tgz:10859.got - 2010.06.03 12:15:38.
