data_PCOD9411115
_publ_section_title
;
Structure prediction by ZEFSAII (Michael W. Deem and Ramdas Pophale) SiO2 
 PCOD9411115
Probable space group: P N N A
;
_chemical_formula_sum "Si O2"
_cell_formula_units_Z 56
_cell_length_a 18.042447
_cell_length_b 22.135415
_cell_length_c 6.093754
_cell_angle_alpha 90.000000
_cell_angle_beta 90.000000
_cell_angle_gamma 90.000000
_cell_volume 2433.705508
_symmetry_space_group_name_H-M "P N N A"
_symmetry_group_IT_number 52
_symmetry_cell_setting 'orthorhombic'
loop_
_space_group_symop_operation_xyz
x,y,z
1/2-x,-y,z
x,1/2-y,1/2-z
1/2-x,1/2+y,1/2-z
-x,-y,-z
1/2+x,y,-z
-x,1/2+y,1/2+z
1/2+x,1/2-y,1/2+z
loop_
_atom_site_type_symbol
_atom_site_label
_atom_site_fract_x
_atom_site_fract_y
_atom_site_fract_z
Si Si1 0.210946 0.821180 0.747418
Si Si2 0.497068 0.682608 0.836927
Si Si3 0.209193 0.916963 0.392389
Si Si4 0.601131 0.605765 0.524166
Si Si5 0.638401 0.028824 0.449785
Si Si6 0.362277 0.874271 0.896245
Si Si7 0.473244 0.599695 0.223887
O O1 0.214525 0.750000 0.750000
O O2 0.211212 0.851001 0.503960
O O3 0.280952 0.847193 0.883057
O O4 0.139087 0.844513 0.872147
O O5 0.512824 0.750000 0.750000
O O6 0.552563 0.638521 0.709657
O O7 0.413635 0.666413 0.761998
O O8 0.499761 0.658471 0.086010
O O9 0.168300 0.924529 0.159525
O O10 0.292629 0.941901 0.412292
O O11 0.158809 0.958926 0.550873
O O12 0.538962 0.573525 0.375292
O O13 0.641048 0.059617 0.213097
O O14 0.562904 0.049664 0.565477
O O15 0.406617 0.877717 0.120746
#
# Coordination Sequence:
#
# PCOD9411115 Si02
#       7
#     8   8   8   8   8   8   8
#     4  11  24  40  63  91 127 164 212 269 324 382
#     4  10  22  39  62  85 126 170 211 257 321 383
#     4  10  22  41  62  95 128 167 214 262 330 383
#     4  11  24  36  59  92 128 167 209 260 317 388
#     4   9  20  41  67  88 128 169 210 271 319 389
#     4   9  20  40  64  95 117 160 217 271 322 378
#     4  10  21  40  63  93 126 166 220 263 316 384
#
# _framework density 23.010178
#
# number of rings (size 3 to 8) (size 9 to 14) (size 15 to 20)
#    0.000    2.000    0.000    2.143    4.000    3.429 
#    0.000   14.286    0.000    0.000    0.000    0.000 
#    0.000    0.000    0.000    0.000    0.000    0.000 
#
# Total GULP energy -312823.718909 kJ/mol
# GULP energy per Si atom -5586.137838 kJ/mol
# Density = 2.295781 g / cm^3
# Si number density = 23.010178 Si / 1000 Ang^3
#
#
#
# Elastic Constant Matrix: (Units=GPa)
#
#
# Indices 1 2 3 4 5 6 
#
# 1 114.7965 10.9551 49.7684 0.0000 0.0000 0.0000
# 2 10.9551 87.8505 20.3088 0.0000 0.0000 0.0000
# 3 49.7684 20.3088 80.3040 0.0000 0.0000 0.0000
# 4 0.0000 0.0000 0.0000 10.8300 0.0000 0.0000
# 5 0.0000 0.0000 0.0000 0.0000 48.7802 0.0000
# 6 0.0000 0.0000 0.0000 0.0000 0.0000 22.4758
#
#
#
# Elastic Compliance Matrix: (Units=1/GPa)
#
#
# Indices 1 2 3 4 5 6 
#
# 1 0.011916 0.000235 -0.007444 0.000000 0.000000 0.000000
# 2 0.000235 0.012094 -0.003204 0.000000 0.000000 0.000000
# 3 -0.007444 -0.003204 0.017877 0.000000 0.000000 0.000000
# 4 0.000000 0.000000 0.000000 0.092336 0.000000 0.000000
# 5 0.000000 0.000000 0.000000 0.000000 0.020500 0.000000
# 6 0.000000 0.000000 0.000000 0.000000 0.000000 0.044492
#
#
# Mechanical properties :
#
#
# Convention : Reuss Voigt Hill
#
# Bulk Modulus (GPa) = 47.48388 49.44615 48.46502
# Shear Modulus (GPa) = 22.02032 29.87846 25.94939
#
# Velocity S-wave (km/s) = 3.09687 3.60736 3.36182
# Velocity P-wave (km/s) = 5.78518 6.23588 6.01475
#
# Compressibility (1/GPa) = 0.02105978
#
# Stress axis : x y z
#
# Youngs Moduli (GPa) = 83.92038 82.68278 55.93866
#
# Poissons Ratio (x) = -0.01943 0.41643
# Poissons Ratio (y) = -0.01972 0.17925
# Poissons Ratio (z) = 0.62474 0.26494
#
# Static dielectric constant tensor:
#      x y z
#    x 1.842120 0.000000 0.000000 
#    y 0.000000 1.835540 0.000000 
#    z 0.000000 0.000000 1.943950 
# 
# From -- ./inp_files/4517.got.cif
#   From: 2010.05.17/outbox.cif.g08.bks.cpg/sg52_3_cif.got.tgz:4517.got - 2010.06.03 12:15:38.
