data_PCOD9411568
_publ_section_title
;
Structure prediction by ZEFSAII (Michael W. Deem and Ramdas Pophale) SiO2 
 PCOD9411568
Probable space group: P N N A
;
_chemical_formula_sum "Si O2"
_cell_formula_units_Z 60
_cell_length_a 7.619668
_cell_length_b 12.382674
_cell_length_c 27.592423
_cell_angle_alpha 90.000000
_cell_angle_beta 90.000000
_cell_angle_gamma 90.000000
_cell_volume 2603.396565
_symmetry_space_group_name_H-M "P N N A"
_symmetry_group_IT_number 52
_symmetry_cell_setting 'orthorhombic'
loop_
_space_group_symop_operation_xyz
x,y,z
1/2-x,-y,z
x,1/2-y,1/2-z
1/2-x,1/2+y,1/2-z
-x,-y,-z
1/2+x,y,-z
-x,1/2+y,1/2+z
1/2+x,1/2-y,1/2+z
loop_
_atom_site_type_symbol
_atom_site_label
_atom_site_fract_x
_atom_site_fract_y
_atom_site_fract_z
Si Si1 0.750000 0.500000 0.128768
Si Si2 0.886655 0.072292 0.200566
Si Si3 0.952943 0.472829 0.944358
Si Si4 0.980594 0.302515 0.440470
Si Si5 0.957272 0.478883 0.603822
Si Si6 0.315048 0.628472 0.227694
Si Si7 0.130299 0.705978 0.839442
Si Si8 0.611394 0.765464 0.949892
O O1 0.585612 0.523836 0.093720
O O2 0.736053 0.392962 0.160411
O O3 0.808399 0.189632 0.189980
O O4 0.938299 0.004654 0.152570
O O5 0.064271 0.095699 0.227670
O O6 0.750000 0.000000 0.229251
O O7 0.750000 0.500000 0.936403
O O8 0.976908 0.346028 0.936631
O O9 0.000000 0.500000 0.000000
O O10 0.981820 0.431221 0.434340
O O11 0.182297 0.264215 0.438683
O O12 0.891586 0.252146 0.393586
O O13 0.902108 0.275468 0.492234
O O14 0.750000 0.500000 0.612968
O O15 0.974694 0.362844 0.579598
O O16 0.250000 0.500000 0.214141
O O17 0.234818 0.750000 0.250000
O O18 0.444119 0.666775 0.183888
#
# Coordination Sequence:
#
# PCOD9411568 Si02
#       8
#     4   8   8   8   8   8   8   8
#     4  12  26  42  66  92 138 182 234 288 358 404
#     4  10  22  41  72 100 137 169 220 285 364 421
#     4  12  25  41  60  89 124 180 242 295 345 409
#     4  10  22  38  60  90 131 174 219 283 335 402
#     4   9  20  38  60  96 129 166 219 273 336 423
#     4  10  23  48  76 106 140 181 228 296 366 445
#     4  10  24  44  65  96 140 178 225 293 344 422
#     4  11  22  36  62  87 126 173 226 272 339 409
#
# _framework density 23.046817000000001
#
# number of rings (size 3 to 8) (size 9 to 14) (size 15 to 20)
#    0.000    1.600    0.667    3.200    4.667    3.733 
#    2.400    0.667    0.000    0.000    0.000    0.000 
#    0.000    0.000    0.000    0.000    0.000    0.000 
#
# Total GULP energy -334665.726527 kJ/mol
# GULP energy per Si atom -5577.762109 kJ/mol
# Density = 2.299436 g / cm^3
# Si number density = 23.046817 Si / 1000 Ang^3
#
#
#
# Elastic Constant Matrix: (Units=GPa)
#
#
# Indices 1 2 3 4 5 6 
#
# 1 38.0918 27.3109 2.2494 0.0000 0.0000 0.0000
# 2 27.3109 181.9667 21.3014 0.0000 0.0000 0.0000
# 3 2.2494 21.3014 64.4182 0.0000 0.0000 0.0000
# 4 0.0000 0.0000 0.0000 28.9559 0.0000 0.0000
# 5 0.0000 0.0000 0.0000 0.0000 6.5111 0.0000
# 6 0.0000 0.0000 0.0000 0.0000 0.0000 35.7135
#
#
#
# Elastic Compliance Matrix: (Units=1/GPa)
#
#
# Indices 1 2 3 4 5 6 
#
# 1 0.029431 -0.004470 0.000450 0.000000 0.000000 0.000000
# 2 -0.004470 0.006396 -0.001959 0.000000 0.000000 0.000000
# 3 0.000450 -0.001959 0.016156 0.000000 0.000000 0.000000
# 4 0.000000 0.000000 0.000000 0.034535 0.000000 0.000000
# 5 0.000000 0.000000 0.000000 0.000000 0.153583 0.000000
# 6 0.000000 0.000000 0.000000 0.000000 0.000000 0.028001
#
#
# Mechanical properties :
#
#
# Convention : Reuss Voigt Hill
#
# Bulk Modulus (GPa) = 24.98421 42.91110 33.94766
# Shear Modulus (GPa) = 17.04165 29.81045 23.42605
#
# Velocity S-wave (km/s) = 2.72221 3.60039 3.19165
# Velocity P-wave (km/s) = 4.55464 5.99527 5.32391
#
# Compressibility (1/GPa) = 0.04002528
#
# Stress axis : x y z
#
# Youngs Moduli (GPa) = 33.97825 156.35548 61.89819
#
# Poissons Ratio (x) = 0.69889 -0.02788
# Poissons Ratio (y) = 0.15188 0.12125
# Poissons Ratio (z) = -0.01530 0.30627
#
# Static dielectric constant tensor:
#      x y z
#    x 1.828670 0.000000 0.000000 
#    y 0.000000 1.969600 0.000000 
#    z 0.000000 0.000000 1.830670 
# 
# From -- ./inp_files/42322.got.cif
#   From: 2010.05.17/outbox.cif.g08.bks.cpg/sg52_22_cif.got.tgz:42322.got - 2010.06.03 12:15:38.
