data_PCOD9411961
_publ_section_title
;
Structure prediction by ZEFSAII (Michael W. Deem and Ramdas Pophale) SiO2 
 PCOD9411961
Probable space group: P N N A
;
_chemical_formula_sum "Si O2"
_cell_formula_units_Z 60
_cell_length_a 22.785857
_cell_length_b 20.359841
_cell_length_c 6.160508
_cell_angle_alpha 90.000000
_cell_angle_beta 90.000000
_cell_angle_gamma 90.000000
_cell_volume 2857.960851
_symmetry_space_group_name_H-M "P N N A"
_symmetry_group_IT_number 52
_symmetry_cell_setting 'orthorhombic'
loop_
_space_group_symop_operation_xyz
x,y,z
1/2-x,-y,z
x,1/2-y,1/2-z
1/2-x,1/2+y,1/2-z
-x,-y,-z
1/2+x,y,-z
-x,1/2+y,1/2+z
1/2+x,1/2-y,1/2+z
loop_
_atom_site_type_symbol
_atom_site_label
_atom_site_fract_x
_atom_site_fract_y
_atom_site_fract_z
Si Si1 0.699781 0.362856 0.662029
Si Si2 0.495167 0.860710 0.079218
Si Si3 0.400840 0.848640 0.459622
Si Si4 0.895032 0.564080 0.354644
Si Si5 0.881569 0.414909 0.284638
Si Si6 0.029656 0.250000 0.750000
Si Si7 0.215441 0.680206 0.657327
Si Si8 0.774789 0.428762 0.008100
O O1 0.659562 0.331909 0.845776
O O2 0.654011 0.398766 0.499163
O O3 0.738352 0.311583 0.531896
O O4 0.745807 0.412842 0.776665
O O5 0.448971 0.849010 0.270848
O O6 0.553686 0.885813 0.196295
O O7 0.460105 0.914403 0.933990
O O8 0.503904 0.796514 0.924405
O O9 0.391716 0.914639 0.601613
O O10 0.426272 0.797440 0.626145
O O11 0.884106 0.487339 0.381580
O O12 0.840496 0.363115 0.410939
O O13 0.845342 0.423996 0.055356
O O14 0.197520 0.750000 0.750000
O O15 0.244579 0.630925 0.833701
O O16 0.750000 0.500000 0.078146
#
# Coordination Sequence:
#
# PCOD9411961 Si02
#       8
#     8   8   8   8   8   4   8   8
#     4  11  22  42  69  96 134 173 229 279 348 403
#     4  10  22  44  68  99 135 176 230 281 353 404
#     4  10  22  42  67  99 128 173 225 292 337 404
#     4  10  22  43  68 103 132 165 229 296 345 398
#     4  10  23  44  69  95 142 176 220 285 327 425
#     4  10  22  44  64  98 132 184 224 280 348 408
#     4  10  25  45  61  98 142 181 226 280 337 419
#     4  10  23  42  67  99 136 181 230 277 336 408
#
# _framework density 20.993988999999999
#
# number of rings (size 3 to 8) (size 9 to 14) (size 15 to 20)
#    0.800    1.067    0.000    3.200    1.867    2.133 
#   33.600    0.000    0.000    0.000    0.000    0.000 
#    0.000    0.000    0.000    0.000    0.000    0.000 
#
# Total GULP energy -334207.933380 kJ/mol
# GULP energy per Si atom -5570.132223 kJ/mol
# Density = 2.094621 g / cm^3
# Si number density = 20.993989 Si / 1000 Ang^3
#
#
#
# Elastic Constant Matrix: (Units=GPa)
#
#
# Indices 1 2 3 4 5 6 
#
# 1 122.8561 19.8274 27.9224 0.0000 0.0000 0.0000
# 2 19.8274 90.5106 15.4124 0.0000 0.0000 0.0000
# 3 27.9224 15.4124 61.6034 0.0000 0.0000 0.0000
# 4 0.0000 0.0000 0.0000 4.3877 0.0000 0.0000
# 5 0.0000 0.0000 0.0000 0.0000 19.4058 0.0000
# 6 0.0000 0.0000 0.0000 0.0000 0.0000 1.9656
#
#
#
# Elastic Compliance Matrix: (Units=1/GPa)
#
#
# Indices 1 2 3 4 5 6 
#
# 1 0.009234 -0.001368 -0.003843 0.000000 0.000000 0.000000
# 2 -0.001368 0.011743 -0.002318 0.000000 0.000000 0.000000
# 3 -0.003843 -0.002318 0.018555 0.000000 0.000000 0.000000
# 4 0.000000 0.000000 0.000000 0.227912 0.000000 0.000000
# 5 0.000000 0.000000 0.000000 0.000000 0.051531 0.000000
# 6 0.000000 0.000000 0.000000 0.000000 0.000000 0.508762
#
#
# Mechanical properties :
#
#
# Convention : Reuss Voigt Hill
#
# Bulk Modulus (GPa) = 40.86102 44.58828 42.72465
# Shear Modulus (GPa) = 5.87577 19.27232 12.57404
#
# Velocity S-wave (km/s) = 1.67477 3.03313 2.44997
# Velocity P-wave (km/s) = 4.82133 5.79234 5.32900
#
# Compressibility (1/GPa) = 0.02447320
#
# Stress axis : x y z
#
# Youngs Moduli (GPa) = 108.29695 85.15819 53.89493
#
# Poissons Ratio (x) = 0.11653 0.20712
# Poissons Ratio (y) = 0.14819 0.12491
# Poissons Ratio (z) = 0.41618 0.19737
#
# Static dielectric constant tensor:
#      x y z
#    x 1.772990 0.000000 0.000000 
#    y 0.000000 1.796130 0.000000 
#    z 0.000000 0.000000 1.830980 
# 
# From -- ./inp_files/5283.got.cif
#   From: 2010.05.17/outbox.cif.g08.bks.cpg/sg52_3_cif.got.tgz:5283.got - 2010.06.03 12:15:38.
