data_PCOD9411074
_publ_section_title
;
Structure prediction by ZEFSAII (Michael W. Deem and Ramdas Pophale) SiO2 
 PCOD9411074
Probable space group: P N N A
;
_chemical_formula_sum "Si O2"
_cell_formula_units_Z 56
_cell_length_a 14.646351
_cell_length_b 28.214791
_cell_length_c 6.372298
_cell_angle_alpha 90.000000
_cell_angle_beta 90.000000
_cell_angle_gamma 90.000000
_cell_volume 2633.312209
_symmetry_space_group_name_H-M "P N N A"
_symmetry_group_IT_number 52
_symmetry_cell_setting 'orthorhombic'
loop_
_space_group_symop_operation_xyz
x,y,z
1/2-x,-y,z
x,1/2-y,1/2-z
1/2-x,1/2+y,1/2-z
-x,-y,-z
1/2+x,y,-z
-x,1/2+y,1/2+z
1/2+x,1/2-y,1/2+z
loop_
_atom_site_type_symbol
_atom_site_label
_atom_site_fract_x
_atom_site_fract_y
_atom_site_fract_z
Si Si1 0.352834 0.981479 0.050284
Si Si2 0.119925 0.750000 0.750000
Si Si3 0.453799 0.799376 0.483936
Si Si4 0.884822 0.620792 0.656595
Si Si5 0.974684 0.366703 0.694859
Si Si6 0.688004 0.250000 0.750000
Si Si7 0.495764 0.534774 0.804167
Si Si8 0.287909 0.326676 0.452748
O O1 0.357097 0.933738 0.194157
O O2 0.250000 0.000000 0.030225
O O3 0.420293 0.019630 0.154382
O O4 0.401428 0.970231 0.826593
O O5 0.179612 0.710352 0.630116
O O6 0.049583 0.779021 0.602166
O O7 0.411837 0.842254 0.340392
O O8 0.476747 0.820567 0.708959
O O9 0.379781 0.757736 0.446751
O O10 0.974172 0.618550 0.514947
O O11 0.801790 0.641676 0.514142
O O12 0.987154 0.410166 0.855109
O O13 0.871989 0.356667 0.629889
O O14 0.754396 0.293826 0.736699
O O15 0.500000 0.500000 0.000000
#
# Coordination Sequence:
#
# PCOD9411074 Si02
#       8
#     8   4   8   8   8   4   8   8
#     4  10  21  40  64  90 126 165 200 260 316 381
#     4  11  22  38  59  88 118 160 211 248 305 356
#     4  10  21  40  60  85 121 165 197 261 301 362
#     4  10  22  41  59  91 126 154 211 249 313 373
#     4  11  22  40  64  88 122 164 203 254 320 364
#     4   9  22  38  55  88 122 156 211 242 301 368
#     4  10  22  40  64  95 122 162 210 259 318 384
#     4  11  22  39  60  91 119 162 207 254 303 372
#
# _framework density 21.265993999999999
#
# number of rings (size 3 to 8) (size 9 to 14) (size 15 to 20)
#    0.000    1.714    1.429    2.571    2.000    0.571 
#    2.571    2.857    0.000    0.000    0.000    0.000 
#    0.000    0.000    0.000    0.000    0.000    0.000 
#
# Total GULP energy -312312.960602 kJ/mol
# GULP energy per Si atom -5577.017154 kJ/mol
# Density = 2.121759 g / cm^3
# Si number density = 21.265994 Si / 1000 Ang^3
#
#
#
# Elastic Constant Matrix: (Units=GPa)
#
#
# Indices 1 2 3 4 5 6 
#
# 1 134.2487 32.8528 0.3643 0.0000 0.0000 0.0000
# 2 32.8528 83.5289 0.5730 0.0000 0.0000 0.0000
# 3 0.3643 0.5730 18.9756 0.0000 0.0000 0.0000
# 4 0.0000 0.0000 0.0000 37.1505 0.0000 0.0000
# 5 0.0000 0.0000 0.0000 0.0000 15.2937 0.0000
# 6 0.0000 0.0000 0.0000 0.0000 0.0000 39.2457
#
#
#
# Elastic Compliance Matrix: (Units=1/GPa)
#
#
# Indices 1 2 3 4 5 6 
#
# 1 0.008242 -0.003241 -0.000060 0.000000 0.000000 0.000000
# 2 -0.003241 0.013249 -0.000338 0.000000 0.000000 0.000000
# 3 -0.000060 -0.000338 0.052711 0.000000 0.000000 0.000000
# 4 0.000000 0.000000 0.000000 0.026918 0.000000 0.000000
# 5 0.000000 0.000000 0.000000 0.000000 0.065387 0.000000
# 6 0.000000 0.000000 0.000000 0.000000 0.000000 0.025481
#
#
# Mechanical properties :
#
#
# Convention : Reuss Voigt Hill
#
# Bulk Modulus (GPa) = 14.94257 33.81482 24.37870
# Shear Modulus (GPa) = 22.56589 31.86883 27.21736
#
# Velocity S-wave (km/s) = 3.26103 3.87535 3.58139
# Velocity P-wave (km/s) = 4.60661 5.99666 5.34699
#
# Compressibility (1/GPa) = 0.06692288
#
# Stress axis : x y z
#
# Youngs Moduli (GPa) = 121.32626 75.47696 18.97149
#
# Poissons Ratio (x) = 0.24465 0.00115
# Poissons Ratio (y) = 0.39326 0.00641
# Poissons Ratio (z) = 0.00732 0.02550
#
# Static dielectric constant tensor:
#      x y z
#    x 1.723950 0.000000 0.000000 
#    y 0.000000 1.865360 0.000000 
#    z 0.000000 0.000000 1.788080 
# 
# From -- ./inp_files/2668.got.cif
#   From: 2010.05.17/outbox.cif.g08.bks.cpg/sg52_2_cif.got.tgz:2668.got - 2010.06.03 12:15:38.
