data_PCOD9411504
_publ_section_title
;
Structure prediction by ZEFSAII (Michael W. Deem and Ramdas Pophale) SiO2 
 PCOD9411504
Probable space group: P N N A
;
_chemical_formula_sum "Si O2"
_cell_formula_units_Z 48
_cell_length_a 11.706109
_cell_length_b 21.032433
_cell_length_c 8.843035
_cell_angle_alpha 90.000000
_cell_angle_beta 90.000000
_cell_angle_gamma 90.000000
_cell_volume 2177.225548
_symmetry_space_group_name_H-M "P N N A"
_symmetry_group_IT_number 52
_symmetry_cell_setting 'orthorhombic'
loop_
_space_group_symop_operation_xyz
x,y,z
1/2-x,-y,z
x,1/2-y,1/2-z
1/2-x,1/2+y,1/2-z
-x,-y,-z
1/2+x,y,-z
-x,1/2+y,1/2+z
1/2+x,1/2-y,1/2+z
loop_
_atom_site_type_symbol
_atom_site_label
_atom_site_fract_x
_atom_site_fract_y
_atom_site_fract_z
Si Si1 0.432925 0.750000 0.250000
Si Si2 0.250000 0.137401 0.748906
Si Si3 0.067075 0.750000 0.250000
Si Si4 0.114346 0.500000 0.382524
Si Si5 0.010797 0.616734 0.678817
Si Si6 0.989203 0.616734 0.321184
Si Si7 0.250000 0.246560 0.510977
O O1 0.500248 0.684612 0.241464
O O2 0.356575 0.747170 0.399420
O O3 0.362386 0.095640 0.777091
O O4 0.137614 0.095640 0.777091
O O5 0.250000 0.178990 0.596087
O O6 0.250000 0.193691 0.875851
O O7 0.143425 0.747171 0.399420
O O8 0.999752 0.684612 0.241464
O O9 0.250000 0.500000 0.428572
O O10 0.000000 0.500000 0.500000
O O11 0.086282 0.435526 0.290942
O O12 0.086282 0.564474 0.290943
O O13 0.999999 0.629490 0.500000
#
# Coordination Sequence:
#
# PCOD9411504 Si02
#       7
#     4   8   4   8   8   8   8
#     4  11  22  37  64 100 128 173 211 272 326 398
#     4  11  22  39  60  97 131 171 215 275 316 397
#     4  11  22  37  64 100 128 173 211 272 326 398
#     4  10  26  42  64  95 135 172 222 274 327 387
#     4  11  24  39  65  94 134 167 222 264 337 378
#     4  11  24  39  65  94 134 167 222 264 337 378
#     4  10  22  36  62  95 139 165 217 268 335 377
#
# _framework density 22.046406000000001
#
# number of rings (size 3 to 8) (size 9 to 14) (size 15 to 20)
#    0.000    1.333    3.333    2.000   14.000    0.000 
#    0.000    0.000    0.000    6.000    0.000    0.000 
#    0.000    0.000    0.000    0.000    0.000    0.000 
#
# Total GULP energy -267746.501594 kJ/mol
# GULP energy per Si atom -5578.052117 kJ/mol
# Density = 2.199623 g / cm^3
# Si number density = 22.046406 Si / 1000 Ang^3
#
#
#
# Elastic Constant Matrix: (Units=GPa)
#
#
# Indices 1 2 3 4 5 6 
#
# 1 166.0220 40.9407 15.2331 0.0000 0.0000 0.0000
# 2 40.9407 105.9242 -0.0969 0.0000 0.0000 0.0000
# 3 15.2331 -0.0969 45.7146 0.0000 0.0000 0.0000
# 4 0.0000 0.0000 0.0000 14.1910 0.0000 0.0000
# 5 0.0000 0.0000 0.0000 0.0000 -26.4471 0.0000
# 6 0.0000 0.0000 0.0000 0.0000 0.0000 37.3021
#
#
#
# Elastic Compliance Matrix: (Units=1/GPa)
#
#
# Indices 1 2 3 4 5 6 
#
# 1 0.006892 -0.002666 -0.002302 0.000000 0.000000 0.000000
# 2 -0.002666 0.010472 0.000911 0.000000 0.000000 0.000000
# 3 -0.002302 0.000911 0.022644 0.000000 0.000000 0.000000
# 4 0.000000 0.000000 0.000000 0.070467 0.000000 0.000000
# 5 0.000000 0.000000 0.000000 0.000000 -0.037811 0.000000
# 6 0.000000 0.000000 0.000000 0.000000 0.000000 0.026808
#
#
# Mechanical properties :
#
#
# Convention : Reuss Voigt Hill
#
# Bulk Modulus (GPa) = 31.35518 47.75718 39.55618
# Shear Modulus (GPa) = 42.29475 22.44812 32.37144
#
# Velocity S-wave (km/s) = 4.38475 3.19442 3.83604
# Velocity P-wave (km/s) = 6.31569 5.94263 6.13200
#
# Compressibility (1/GPa) = 0.03189265
#
# Stress axis : x y z
#
# Youngs Moduli (GPa) = 145.09705 95.49330 44.16198
#
# Poissons Ratio (x) = 0.25458 0.10167
# Poissons Ratio (y) = 0.38681 -0.04021
# Poissons Ratio (z) = 0.33404 -0.08695
#
# Static dielectric constant tensor:
#      x y z
#    x 1.933400 0.000000 0.000000 
#    y 0.000000 1.917960 0.000000 
#    z 0.000000 0.000000 1.807840 
# 
# From -- ./inp_files/8903.got.cif
#   From: 2010.05.17/outbox.cif.g08.bks.cpg/sg52_5_cif.got.tgz:8903.got - 2010.06.03 12:15:38.
