data_PCOD9411982
_publ_section_title
;
Structure prediction by ZEFSAII (Michael W. Deem and Ramdas Pophale) SiO2 
 PCOD9411982
Probable space group: P N N A
;
_chemical_formula_sum "Si O2"
_cell_formula_units_Z 36
_cell_length_a 22.752103
_cell_length_b 5.764198
_cell_length_c 12.363102
_cell_angle_alpha 90.000000
_cell_angle_beta 90.000000
_cell_angle_gamma 90.000000
_cell_volume 1621.391485
_symmetry_space_group_name_H-M "P N N A"
_symmetry_group_IT_number 52
_symmetry_cell_setting 'orthorhombic'
loop_
_space_group_symop_operation_xyz
x,y,z
1/2-x,-y,z
x,1/2-y,1/2-z
1/2-x,1/2+y,1/2-z
-x,-y,-z
1/2+x,y,-z
-x,1/2+y,1/2+z
1/2+x,1/2-y,1/2+z
loop_
_atom_site_type_symbol
_atom_site_label
_atom_site_fract_x
_atom_site_fract_y
_atom_site_fract_z
Si Si1 0.354448 0.990912 0.456816
Si Si2 0.750000 0.000000 0.696518
Si Si3 0.417448 0.589282 0.592818
Si Si4 0.468234 0.299073 0.069325
Si Si5 0.304736 0.150675 0.863985
O O1 0.303831 0.917858 0.377284
O O2 0.383533 0.782175 0.523104
O O3 0.408118 0.096563 0.385663
O O4 0.325355 0.165714 0.545144
O O5 0.768281 0.250000 0.750000
O O6 0.442113 0.390722 0.513400
O O7 0.478460 0.691872 0.637396
O O8 0.365318 0.486299 0.665028
O O9 0.500000 0.500000 0.000000
O O10 0.282968 0.250000 0.750000
O O11 0.250000 0.000000 0.907557
#
# Coordination Sequence:
#
# PCOD9411982 Si02
#       5
#     8   4   8   8   8
#     4  10  22  42  69  91 131 176 219 285 348 402
#     4  12  30  46  72 100 136 178 244 294 350 412
#     4   9  18  36  66  91 132 171 218 268 339 407
#     4   8  16  34  66  95 121 174 215 267 341 408
#     4  11  25  37  61  97 134 173 223 271 345 424
#
# _framework density 22.203149
#
# number of rings (size 3 to 8) (size 9 to 14) (size 15 to 20)
#    0.000    2.222    0.000    1.333   12.444    0.000 
#    0.000    0.000   29.333    0.000    0.000    0.000 
#    0.000    0.000    0.000    0.000    0.000    0.000 
#
# Total GULP energy -200461.958438 kJ/mol
# GULP energy per Si atom -5568.387734 kJ/mol
# Density = 2.215261 g / cm^3
# Si number density = 22.203149 Si / 1000 Ang^3
#
#
#
# Elastic Constant Matrix: (Units=GPa)
#
#
# Indices 1 2 3 4 5 6 
#
# 1 141.6501 36.8775 16.1810 0.0000 0.0000 0.0000
# 2 36.8775 103.1330 20.8315 0.0000 0.0000 0.0000
# 3 16.1810 20.8315 36.5757 0.0000 0.0000 0.0000
# 4 0.0000 0.0000 0.0000 5.9051 0.0000 0.0000
# 5 0.0000 0.0000 0.0000 0.0000 -53.8970 0.0000
# 6 0.0000 0.0000 0.0000 0.0000 0.0000 65.0734
#
#
#
# Elastic Compliance Matrix: (Units=1/GPa)
#
#
# Indices 1 2 3 4 5 6 
#
# 1 0.007930 -0.002403 -0.002139 0.000000 0.000000 0.000000
# 2 -0.002403 0.011685 -0.005592 0.000000 0.000000 0.000000
# 3 -0.002139 -0.005592 0.031472 0.000000 0.000000 0.000000
# 4 0.000000 0.000000 0.000000 0.169346 0.000000 0.000000
# 5 0.000000 0.000000 0.000000 0.000000 -0.018554 0.000000
# 6 0.000000 0.000000 0.000000 0.000000 0.000000 0.015367
#
#
# Mechanical properties :
#
#
# Convention : Reuss Voigt Hill
#
# Bulk Modulus (GPa) = 32.44907 47.68209 40.06558
# Shear Modulus (GPa) = 20.17856 17.24755 18.71306
#
# Velocity S-wave (km/s) = 3.01793 2.79015 2.90627
# Velocity P-wave (km/s) = 5.17592 5.64818 5.41720
#
# Compressibility (1/GPa) = 0.03081752
#
# Stress axis : x y z
#
# Youngs Moduli (GPa) = 126.10790 85.57922 31.77442
#
# Poissons Ratio (x) = 0.20568 0.06797
# Poissons Ratio (y) = 0.30308 0.17768
# Poissons Ratio (z) = 0.26978 0.47855
#
# Static dielectric constant tensor:
#      x y z
#    x 1.890260 0.000000 0.000000 
#    y 0.000000 1.984940 0.000000 
#    z 0.000000 0.000000 1.746100 
# 
# From -- ./inp_files/22082.got.cif
#   From: 2010.05.17/outbox.cif.g08.bks.cpg/sg52_12_cif.got.tgz:22082.got - 2010.06.03 12:15:38.
