data_PCOD9411501
_publ_section_title
;
Structure prediction by ZEFSAII (Michael W. Deem and Ramdas Pophale) SiO2 
 PCOD9411501
Probable space group: P N N A
;
_chemical_formula_sum "Si O2"
_cell_formula_units_Z 56
_cell_length_a 28.529434
_cell_length_b 16.850885
_cell_length_c 5.453128
_cell_angle_alpha 90.000000
_cell_angle_beta 90.000000
_cell_angle_gamma 90.000000
_cell_volume 2621.570627
_symmetry_space_group_name_H-M "P N N A"
_symmetry_group_IT_number 52
_symmetry_cell_setting 'orthorhombic'
loop_
_space_group_symop_operation_xyz
x,y,z
1/2-x,-y,z
x,1/2-y,1/2-z
1/2-x,1/2+y,1/2-z
-x,-y,-z
1/2+x,y,-z
-x,1/2+y,1/2+z
1/2+x,1/2-y,1/2+z
loop_
_atom_site_type_symbol
_atom_site_label
_atom_site_fract_x
_atom_site_fract_y
_atom_site_fract_z
Si Si1 0.536244 0.040065 0.825038
Si Si2 0.116146 0.974533 0.445576
Si Si3 0.909546 0.875761 0.219920
Si Si4 0.802267 0.839242 0.219055
Si Si5 0.896855 0.204561 0.506002
Si Si6 0.208810 0.436688 0.217418
Si Si7 0.506536 0.182768 0.545104
O O1 0.505966 0.092633 0.643156
O O2 0.571129 0.974176 0.728578
O O3 0.569868 0.104254 0.955437
O O4 0.500000 0.000000 0.000000
O O5 0.124128 0.884107 0.520411
O O6 0.100192 0.038180 0.652229
O O7 0.160067 0.014574 0.308414
O O8 0.859032 0.836538 0.219005
O O9 0.949728 0.826683 0.360444
O O10 0.783924 0.750000 0.250000
O O11 0.787526 0.888428 0.461218
O O12 0.790285 0.881639 0.960455
O O13 0.888412 0.250000 0.250000
O O14 0.953557 0.199142 0.537798
O O15 0.878987 0.250000 0.750000
O O16 0.250000 0.500000 0.235452
O O17 0.516272 0.250000 0.750000
#
# Coordination Sequence:
#
# PCOD9411501 Si02
#       7
#     8   8   8   8   8   8   8
#     4  11  21  35  61  88 124 170 222 260 321 380
#     4  10  23  42  62  91 125 166 223 269 327 398
#     4  10  22  36  61  91 126 173 214 266 330 399
#     4  11  24  42  71 105 142 167 214 280 351 398
#     4  11  26  41  60  87 126 177 224 277 323 371
#     4  11  24  47  73 102 130 180 219 274 339 419
#     4  10  24  35  53  88 129 177 221 269 322 383
#
# _framework density 21.361242000000001
#
# number of rings (size 3 to 8) (size 9 to 14) (size 15 to 20)
#    0.000    1.429    1.429    2.571   12.000    2.286 
#    0.000    2.143    0.000    0.000    0.000    0.000 
#    0.000    0.000    0.000    0.000    0.000    0.000 
#
# Total GULP energy -312723.962299 kJ/mol
# GULP energy per Si atom -5584.356470 kJ/mol
# Density = 2.131262 g / cm^3
# Si number density = 21.361242 Si / 1000 Ang^3
#
#
#
# Elastic Constant Matrix: (Units=GPa)
#
#
# Indices 1 2 3 4 5 6 
#
# 1 42.1560 32.5843 30.0121 0.0000 0.0000 0.0000
# 2 32.5843 161.3705 68.2342 0.0000 0.0000 0.0000
# 3 30.0121 68.2342 119.8367 0.0000 0.0000 0.0000
# 4 0.0000 0.0000 0.0000 40.0577 0.0000 0.0000
# 5 0.0000 0.0000 0.0000 0.0000 21.9891 0.0000
# 6 0.0000 0.0000 0.0000 0.0000 0.0000 15.5906
#
#
#
# Elastic Compliance Matrix: (Units=1/GPa)
#
#
# Indices 1 2 3 4 5 6 
#
# 1 0.030600 -0.003870 -0.005460 0.000000 0.000000 0.000000
# 2 -0.003870 0.008652 -0.003957 0.000000 0.000000 0.000000
# 3 -0.005460 -0.003957 0.011965 0.000000 0.000000 0.000000
# 4 0.000000 0.000000 0.000000 0.024964 0.000000 0.000000
# 5 0.000000 0.000000 0.000000 0.000000 0.045477 0.000000
# 6 0.000000 0.000000 0.000000 0.000000 0.000000 0.064141
#
#
# Mechanical properties :
#
#
# Convention : Reuss Voigt Hill
#
# Bulk Modulus (GPa) = 40.57989 65.00269 52.79129
# Shear Modulus (GPa) = 22.66684 28.36299 25.51491
#
# Velocity S-wave (km/s) = 3.26102 3.64782 3.45983
# Velocity P-wave (km/s) = 5.76344 6.94539 6.38183
#
# Compressibility (1/GPa) = 0.02464275
#
# Stress axis : x y z
#
# Youngs Moduli (GPa) = 32.67989 115.58659 83.57655
#
# Poissons Ratio (x) = 0.44734 0.45631
# Poissons Ratio (y) = 0.12648 0.33070
# Poissons Ratio (z) = 0.17843 0.45736
#
# Static dielectric constant tensor:
#      x y z
#    x 1.666730 0.000000 0.000000 
#    y 0.000000 1.780220 0.000000 
#    z 0.000000 0.000000 1.838170 
# 
# From -- ./inp_files/6402.got.cif
#   From: 2010.05.17/outbox.cif.g08.bks.cpg/sg52_4_cif.got.tgz:6402.got - 2010.06.03 12:15:38.
