data_PCOD9411044
_publ_section_title
;
Structure prediction by ZEFSAII (Michael W. Deem and Ramdas Pophale) SiO2 
 PCOD9411044
Probable space group: P N N A
;
_chemical_formula_sum "Si O2"
_cell_formula_units_Z 56
_cell_length_a 22.083653
_cell_length_b 21.930229
_cell_length_c 5.348153
_cell_angle_alpha 90.000000
_cell_angle_beta 90.000000
_cell_angle_gamma 90.000000
_cell_volume 2590.108185
_symmetry_space_group_name_H-M "P N N A"
_symmetry_group_IT_number 52
_symmetry_cell_setting 'orthorhombic'
loop_
_space_group_symop_operation_xyz
x,y,z
1/2-x,-y,z
x,1/2-y,1/2-z
1/2-x,1/2+y,1/2-z
-x,-y,-z
1/2+x,y,-z
-x,1/2+y,1/2+z
1/2+x,1/2-y,1/2+z
loop_
_atom_site_type_symbol
_atom_site_label
_atom_site_fract_x
_atom_site_fract_y
_atom_site_fract_z
Si Si1 0.195203 0.212569 0.489063
Si Si2 0.886623 0.100834 0.112661
Si Si3 0.326880 0.191047 0.577745
Si Si4 0.001613 0.071440 0.443101
Si Si5 0.859637 0.917796 0.545186
Si Si6 0.448782 0.183700 0.265959
Si Si7 0.680180 0.015733 0.032076
O O1 0.193376 0.250000 0.750000
O O2 0.264921 0.193609 0.424879
O O3 0.159192 0.150451 0.521386
O O4 0.172086 0.250000 0.250000
O O5 0.831652 0.126996 0.277644
O O6 0.858673 0.044931 0.960354
O O7 0.945216 0.077983 0.258155
O O8 0.913919 0.159675 0.976286
O O9 0.322752 0.250000 0.750000
O O10 0.391465 0.194240 0.445633
O O11 0.070586 0.082154 0.366256
O O12 0.987642 0.125390 0.644585
O O13 0.000000 0.000000 0.500000
O O14 0.848091 0.957325 0.291361
O O15 0.823496 0.941404 0.788428
O O16 0.480220 0.250000 0.250000
O O17 0.750000 0.000000 0.080669
#
# Coordination Sequence:
#
# PCOD9411044 Si02
#       7
#     8   8   8   8   8   8   8
#     4  11  25  45  71 101 138 188 233 289 364 434
#     4  11  24  41  72 101 141 185 238 291 363 418
#     4  10  21  39  67 101 139 176 229 293 360 425
#     4  11  25  46  68  98 140 193 239 292 357 434
#     4  12  27  48  71 101 145 184 243 289 358 429
#     4  11  23  40  69 103 139 179 242 300 360 417
#     4  12  27  45  73 107 142 185 235 299 360 430
#
# _framework density 21.620716999999999
#
# number of rings (size 3 to 8) (size 9 to 14) (size 15 to 20)
#    0.000    0.857    2.857    3.429    8.000    1.714 
#    2.571    0.000    0.000    0.000    0.000    0.000 
#    0.000    0.000    0.000    0.000    0.000    0.000 
#
# Total GULP energy -312379.794360 kJ/mol
# GULP energy per Si atom -5578.210614 kJ/mol
# Density = 2.157151 g / cm^3
# Si number density = 21.620717 Si / 1000 Ang^3
#
#
#
# Elastic Constant Matrix: (Units=GPa)
#
#
# Indices 1 2 3 4 5 6 
#
# 1 78.8258 36.8400 -0.3818 0.0000 0.0000 0.0000
# 2 36.8400 147.4903 32.8896 0.0000 0.0000 0.0000
# 3 -0.3818 32.8896 72.5124 0.0000 0.0000 0.0000
# 4 0.0000 0.0000 0.0000 21.7156 0.0000 0.0000
# 5 0.0000 0.0000 0.0000 0.0000 -49.4622 0.0000
# 6 0.0000 0.0000 0.0000 0.0000 0.0000 41.2132
#
#
#
# Elastic Compliance Matrix: (Units=1/GPa)
#
#
# Indices 1 2 3 4 5 6 
#
# 1 0.014601 -0.004076 0.001926 0.000000 0.000000 0.000000
# 2 -0.004076 0.008681 -0.003959 0.000000 0.000000 0.000000
# 3 0.001926 -0.003959 0.015597 0.000000 0.000000 0.000000
# 4 0.000000 0.000000 0.000000 0.046050 0.000000 0.000000
# 5 0.000000 0.000000 0.000000 0.000000 -0.020217 0.000000
# 6 0.000000 0.000000 0.000000 0.000000 0.000000 0.024264
#
#
# Mechanical properties :
#
#
# Convention : Reuss Voigt Hill
#
# Bulk Modulus (GPa) = 37.51045 48.61379 43.06212
# Shear Modulus (GPa) = 45.42138 17.99204 31.70671
#
# Velocity S-wave (km/s) = 4.58845 2.88786 3.83364
# Velocity P-wave (km/s) = 6.74231 5.80114 6.28936
#
# Compressibility (1/GPa) = 0.02665924
#
# Stress axis : x y z
#
# Youngs Moduli (GPa) = 68.49007 115.19240 64.11668
#
# Poissons Ratio (x) = 0.46957 -0.12348
# Poissons Ratio (y) = 0.27919 0.25384
# Poissons Ratio (z) = -0.13190 0.45604
#
# Static dielectric constant tensor:
#      x y z
#    x 1.987570 0.000000 0.000000 
#    y 0.000000 -33.180970 0.000000 
#    z 0.000000 0.000000 1.900710 
# 
# From -- ./inp_files/5213.got.cif
#   From: 2010.05.17/outbox.cif.g08.bks.cpg/sg52_3_cif.got.tgz:5213.got - 2010.06.03 12:15:38.
