data_PCOD9411576
_publ_section_title
;
Structure prediction by ZEFSAII (Michael W. Deem and Ramdas Pophale) SiO2 
 PCOD9411576
Probable space group: P N N A
;
_chemical_formula_sum "Si O2"
_cell_formula_units_Z 44
_cell_length_a 12.433650
_cell_length_b 9.007975
_cell_length_c 21.330965
_cell_angle_alpha 90.000000
_cell_angle_beta 90.000000
_cell_angle_gamma 90.000000
_cell_volume 2389.110920
_symmetry_space_group_name_H-M "P N N A"
_symmetry_group_IT_number 52
_symmetry_cell_setting 'orthorhombic'
loop_
_space_group_symop_operation_xyz
x,y,z
1/2-x,-y,z
x,1/2-y,1/2-z
1/2-x,1/2+y,1/2-z
-x,-y,-z
1/2+x,y,-z
-x,1/2+y,1/2+z
1/2+x,1/2-y,1/2+z
loop_
_atom_site_type_symbol
_atom_site_label
_atom_site_fract_x
_atom_site_fract_y
_atom_site_fract_z
Si Si1 0.981905 0.319958 0.680984
Si Si2 0.942746 0.472417 0.881464
Si Si3 0.869184 0.928228 0.753563
Si Si4 0.736613 0.327835 0.315288
Si Si5 0.831215 0.117197 0.408036
Si Si6 0.750000 0.000000 0.528631
O O1 0.959440 0.250000 0.750000
O O2 0.934848 0.206544 0.628967
O O3 0.934481 0.486472 0.690409
O O4 0.109853 0.307265 0.670668
O O5 0.927804 0.533247 0.811513
O O6 0.849653 0.530157 0.926658
O O7 0.054534 0.536907 0.906971
O O8 0.860618 0.750000 0.750000
O O9 0.750000 0.000000 0.753630
O O10 0.750000 0.500000 0.306825
O O11 0.763197 0.250000 0.250000
O O12 0.814395 0.265115 0.369121
O O13 0.750000 0.000000 0.375100
O O14 0.786741 0.126209 0.478981
#
# Coordination Sequence:
#
# PCOD9411576 Si02
#       6
#     8   8   8   8   8   4
#     4   9  20  35  56  85 121 153 195 255 300 360
#     4  11  20  39  63  88 120 163 208 257 307 362
#     4  11  23  37  59  92 127 160 204 250 310 373
#     4  11  23  36  60  90 125 158 194 249 315 373
#     4  10  22  38  61  89 117 157 209 248 305 366
#     4  10  22  38  68  84 114 166 212 260 294 372
#
# _framework density 18.416893999999999
#
# number of rings (size 3 to 8) (size 9 to 14) (size 15 to 20)
#    0.545    1.091    2.727    2.727    7.636    0.000 
#    0.000    0.000    4.000    2.182    0.000    0.000 
#    0.000    0.000    0.000    0.000    0.000    0.000 
#
# Total GULP energy -244936.452613 kJ/mol
# GULP energy per Si atom -5566.737559 kJ/mol
# Density = 1.837498 g / cm^3
# Si number density = 18.416894 Si / 1000 Ang^3
#
#
#
# Elastic Constant Matrix: (Units=GPa)
#
#
# Indices 1 2 3 4 5 6 
#
# 1 98.8452 21.9280 35.3429 0.0000 0.0000 0.0000
# 2 21.9280 123.6883 29.7894 0.0000 0.0000 0.0000
# 3 35.3429 29.7894 61.7187 0.0000 0.0000 0.0000
# 4 0.0000 0.0000 0.0000 65.7419 0.0000 0.0000
# 5 0.0000 0.0000 0.0000 0.0000 58.8089 0.0000
# 6 0.0000 0.0000 0.0000 0.0000 0.0000 25.6178
#
#
#
# Elastic Compliance Matrix: (Units=1/GPa)
#
#
# Indices 1 2 3 4 5 6 
#
# 1 0.012757 -0.000568 -0.007031 0.000000 0.000000 0.000000
# 2 -0.000568 0.009174 -0.004102 0.000000 0.000000 0.000000
# 3 -0.007031 -0.004102 0.022209 0.000000 0.000000 0.000000
# 4 0.000000 0.000000 0.000000 0.015211 0.000000 0.000000
# 5 0.000000 0.000000 0.000000 0.000000 0.017004 0.000000
# 6 0.000000 0.000000 0.000000 0.000000 0.000000 0.039035
#
#
# Mechanical properties :
#
#
# Convention : Reuss Voigt Hill
#
# Bulk Modulus (GPa) = 48.22466 50.93031 49.57749
# Shear Modulus (GPa) = 34.31597 43.17986 38.74792
#
# Velocity S-wave (km/s) = 4.32126 4.84734 4.59184
# Velocity P-wave (km/s) = 7.15120 7.68395 7.42235
#
# Compressibility (1/GPa) = 0.02073628
#
# Stress axis : x y z
#
# Youngs Moduli (GPa) = 78.38941 109.00842 45.02726
#
# Poissons Ratio (x) = 0.06195 0.31658
# Poissons Ratio (y) = 0.04455 0.18472
# Poissons Ratio (z) = 0.55114 0.44719
#
# Static dielectric constant tensor:
#      x y z
#    x 1.777430 0.000000 0.000000 
#    y 0.000000 1.716260 0.000000 
#    z 0.000000 0.000000 1.619880 
# 
# From -- ./inp_files/40058.got.cif
#   From: 2010.05.17/outbox.cif.g08.bks.cpg/sg52_21_cif.got.tgz:40058.got - 2010.06.03 12:15:38.
