data_PCOD9411288
_publ_section_title
;
Structure prediction by ZEFSAII (Michael W. Deem and Ramdas Pophale) SiO2 
 PCOD9411288
Probable space group: P N N A
;
_chemical_formula_sum "Si O2"
_cell_formula_units_Z 32
_cell_length_a 10.732885
_cell_length_b 5.794726
_cell_length_c 22.970642
_cell_angle_alpha 90.000000
_cell_angle_beta 90.000000
_cell_angle_gamma 90.000000
_cell_volume 1428.639043
_symmetry_space_group_name_H-M "P N N A"
_symmetry_group_IT_number 52
_symmetry_cell_setting 'orthorhombic'
loop_
_space_group_symop_operation_xyz
x,y,z
1/2-x,-y,z
x,1/2-y,1/2-z
1/2-x,1/2+y,1/2-z
-x,-y,-z
1/2+x,y,-z
-x,1/2+y,1/2+z
1/2+x,1/2-y,1/2+z
loop_
_atom_site_type_symbol
_atom_site_label
_atom_site_fract_x
_atom_site_fract_y
_atom_site_fract_z
Si Si1 0.178522 0.750000 0.750000
Si Si2 0.870962 0.908984 0.937843
Si Si3 0.002999 0.932770 0.649882
Si Si4 0.063778 0.185031 0.542410
Si Si5 0.250000 0.000000 0.282844
O O1 0.250000 0.500000 0.741412
O O2 0.090147 0.802783 0.695152
O O3 0.942815 0.739503 0.896199
O O4 0.750000 0.000000 0.906234
O O5 0.831952 0.788682 0.999289
O O6 0.960865 0.119145 0.950231
O O7 0.880335 0.036708 0.681579
O O8 0.085869 0.097659 0.607696
O O9 0.000000 0.000000 0.500000
O O10 0.232068 0.250000 0.250000
#
# Coordination Sequence:
#
# PCOD9411288 Si02
#       5
#     4   8   8   8   4
#     4  12  32  54  72 104 150 212 264 312 368 464
#     4  10  21  41  70 106 144 183 237 313 387 457
#     4  11  25  46  74 103 146 191 254 311 387 446
#     4   9  21  41  63 100 141 180 228 296 364 462
#     4  12  28  44  80 112 144 184 244 334 384 442
#
# _framework density 22.398942000000002
#
# number of rings (size 3 to 8) (size 9 to 14) (size 15 to 20)
#    0.000    1.500    1.250    1.500   10.500    3.000 
#   13.500    0.000    0.000    0.000    0.000    0.000 
#    0.000    0.000    0.000    0.000    0.000    0.000 
#
# Total GULP energy -178266.045632 kJ/mol
# GULP energy per Si atom -5570.813926 kJ/mol
# Density = 2.234796 g / cm^3
# Si number density = 22.398942 Si / 1000 Ang^3
#
#
#
# Elastic Constant Matrix: (Units=GPa)
#
#
# Indices 1 2 3 4 5 6 
#
# 1 71.6912 23.2312 44.1508 0.0000 0.0000 0.0000
# 2 23.2312 92.9002 59.5102 0.0000 0.0000 0.0000
# 3 44.1508 59.5102 156.1348 0.0000 0.0000 0.0000
# 4 0.0000 0.0000 0.0000 22.7112 0.0000 0.0000
# 5 0.0000 0.0000 0.0000 0.0000 -92.0434 0.0000
# 6 0.0000 0.0000 0.0000 0.0000 0.0000 37.7770
#
#
#
# Elastic Compliance Matrix: (Units=1/GPa)
#
#
# Indices 1 2 3 4 5 6 
#
# 1 0.017058 -0.001556 -0.004231 0.000000 0.000000 0.000000
# 2 -0.001556 0.014383 -0.005042 0.000000 0.000000 0.000000
# 3 -0.004231 -0.005042 0.009523 0.000000 0.000000 0.000000
# 4 0.000000 0.000000 0.000000 0.044031 0.000000 0.000000
# 5 0.000000 0.000000 0.000000 0.000000 -0.010864 0.000000
# 6 0.000000 0.000000 0.000000 0.000000 0.000000 0.026471
#
#
# Mechanical properties :
#
#
# Convention : Reuss Voigt Hill
#
# Bulk Modulus (GPa) = 51.79387 63.83451 57.81419
# Shear Modulus (GPa) = 38.85157 6.61123 22.73140
#
# Velocity S-wave (km/s) = 4.16928 1.71988 3.18912
# Velocity P-wave (km/s) = 6.80814 5.70129 6.27915
#
# Compressibility (1/GPa) = 0.01930730
#
# Stress axis : x y z
#
# Youngs Moduli (GPa) = 58.62262 69.52556 105.01021
#
# Poissons Ratio (x) = 0.10815 0.44427
# Poissons Ratio (y) = 0.09119 0.52949
# Poissons Ratio (z) = 0.24802 0.35056
#
# Static dielectric constant tensor:
#      x y z
#    x 1.807970 0.000000 0.000000 
#    y 0.000000 1.926060 0.000000 
#    z 0.000000 0.000000 1.881570 
# 
# From -- ./inp_files/36456.got.cif
#   From: 2010.05.17/outbox.cif.g08.bks.cpg/sg52_19_cif.got.tgz:36456.got - 2010.06.03 12:15:38.
