data_PCOD9411537
_publ_section_title
;
Structure prediction by ZEFSAII (Michael W. Deem and Ramdas Pophale) SiO2 
 PCOD9411537
Probable space group: P N N A
;
_chemical_formula_sum "Si O2"
_cell_formula_units_Z 40
_cell_length_a 8.691152
_cell_length_b 18.041469
_cell_length_c 11.320710
_cell_angle_alpha 90.000000
_cell_angle_beta 90.000000
_cell_angle_gamma 90.000000
_cell_volume 1775.100340
_symmetry_space_group_name_H-M "P N N A"
_symmetry_group_IT_number 52
_symmetry_cell_setting 'orthorhombic'
loop_
_space_group_symop_operation_xyz
x,y,z
1/2-x,-y,z
x,1/2-y,1/2-z
1/2-x,1/2+y,1/2-z
-x,-y,-z
1/2+x,y,-z
-x,1/2+y,1/2+z
1/2+x,1/2-y,1/2+z
loop_
_atom_site_type_symbol
_atom_site_label
_atom_site_fract_x
_atom_site_fract_y
_atom_site_fract_z
Si Si1 0.298717 0.783778 0.961440
Si Si2 0.019137 0.825856 0.826739
Si Si3 0.566530 0.809526 0.624759
Si Si4 0.713474 0.416374 0.791493
Si Si5 0.631921 0.448353 0.050362
O O1 0.184562 0.834917 0.886525
O O2 0.433597 0.752936 0.877119
O O3 0.392830 0.818731 0.069498
O O4 0.182714 0.722727 0.022210
O O5 0.022982 0.750000 0.750000
O O6 0.956157 0.891510 0.745724
O O7 0.676294 0.843835 0.727882
O O8 0.454661 0.879785 0.604847
O O9 0.750000 0.500000 0.747016
O O10 0.719885 0.421675 0.933082
O O11 0.750000 0.500000 0.121758
O O12 0.500000 0.500000 0.000000
#
# Coordination Sequence:
#
# PCOD9411537 Si02
#       5
#     8   8   8   8   8
#     4  10  22  37  65  91 122 171 211 266 312 377
#     4  11  22  44  64  92 129 166 217 265 322 383
#     4  11  17  35  57  92 123 160 207 254 327 372
#     4  11  21  35  64  92 132 169 205 264 325 386
#     4  11  18  29  54  90 132 158 189 251 327 394
#
# _framework density 22.533937000000002
#
# number of rings (size 3 to 8) (size 9 to 14) (size 15 to 20)
#    0.000    1.200    8.000    1.200    0.000    0.000 
#    7.200    1.000    0.000    0.000    0.000    0.000 
#    0.000    0.000    0.000    0.000    0.000    0.000 
#
# Total GULP energy -222677.086382 kJ/mol
# GULP energy per Si atom -5566.927160 kJ/mol
# Density = 2.248265 g / cm^3
# Si number density = 22.533937 Si / 1000 Ang^3
#
#
#
# Elastic Constant Matrix: (Units=GPa)
#
#
# Indices 1 2 3 4 5 6 
#
# 1 142.6929 14.3331 19.7547 0.0000 0.0000 0.0000
# 2 14.3331 31.2194 -2.8252 0.0000 0.0000 0.0000
# 3 19.7547 -2.8252 47.3614 0.0000 0.0000 0.0000
# 4 0.0000 0.0000 0.0000 11.5621 0.0000 0.0000
# 5 0.0000 0.0000 0.0000 0.0000 3.3439 0.0000
# 6 0.0000 0.0000 0.0000 0.0000 0.0000 50.6330
#
#
#
# Elastic Compliance Matrix: (Units=1/GPa)
#
#
# Indices 1 2 3 4 5 6 
#
# 1 0.007892 -0.003943 -0.003527 0.000000 0.000000 0.000000
# 2 -0.003943 0.034175 0.003683 0.000000 0.000000 0.000000
# 3 -0.003527 0.003683 0.022805 0.000000 0.000000 0.000000
# 4 0.000000 0.000000 0.000000 0.086489 0.000000 0.000000
# 5 0.000000 0.000000 0.000000 0.000000 0.299055 0.000000
# 6 0.000000 0.000000 0.000000 0.000000 0.000000 0.019750
#
#
# Mechanical properties :
#
#
# Convention : Reuss Voigt Hill
#
# Bulk Modulus (GPa) = 17.45236 31.53321 24.49279
# Shear Modulus (GPa) = 10.06362 25.77520 17.91941
#
# Velocity S-wave (km/s) = 2.11558 3.38574 2.82302
# Velocity P-wave (km/s) = 3.70531 5.41372 4.63884
#
# Compressibility (1/GPa) = 0.05729883
#
# Stress axis : x y z
#
# Youngs Moduli (GPa) = 126.70437 29.26139 43.84976
#
# Poissons Ratio (x) = 0.11537 0.15466
# Poissons Ratio (y) = 0.49955 -0.16150
# Poissons Ratio (z) = 0.44690 -0.10777
#
# Static dielectric constant tensor:
#      x y z
#    x 1.988240 0.000000 0.000000 
#    y 0.000000 2.151920 0.000000 
#    z 0.000000 0.000000 1.931380 
# 
# From -- ./inp_files/16825.got.cif
#   From: 2010.05.17/outbox.cif.g08.bks.cpg/sg52_9_cif.got.tgz:16825.got - 2010.06.03 12:15:38.
