data_PCOD9411808
_publ_section_title
;
Structure prediction by ZEFSAII (Michael W. Deem and Ramdas Pophale) SiO2 
 PCOD9411808
Probable space group: P N N A
;
_chemical_formula_sum "Si O2"
_cell_formula_units_Z 48
_cell_length_a 15.902871
_cell_length_b 8.322250
_cell_length_c 18.349185
_cell_angle_alpha 90.000000
_cell_angle_beta 90.000000
_cell_angle_gamma 90.000000
_cell_volume 2428.471848
_symmetry_space_group_name_H-M "P N N A"
_symmetry_group_IT_number 52
_symmetry_cell_setting 'orthorhombic'
loop_
_space_group_symop_operation_xyz
x,y,z
1/2-x,-y,z
x,1/2-y,1/2-z
1/2-x,1/2+y,1/2-z
-x,-y,-z
1/2+x,y,-z
-x,1/2+y,1/2+z
1/2+x,1/2-y,1/2+z
loop_
_atom_site_type_symbol
_atom_site_label
_atom_site_fract_x
_atom_site_fract_y
_atom_site_fract_z
Si Si1 0.959457 0.328031 0.487212
Si Si2 0.750000 0.500000 0.052177
Si Si3 0.644399 0.618185 0.921445
Si Si4 0.274842 0.683633 0.329416
Si Si5 0.301064 0.164028 0.884063
Si Si6 0.445137 0.833563 0.356515
Si Si7 0.086675 0.750000 0.750000
O O1 0.932671 0.235298 0.559675
O O2 0.871015 0.350125 0.446471
O O3 0.000000 0.500000 0.500000
O O4 0.015803 0.219080 0.433872
O O5 0.747548 0.665872 0.099394
O O6 0.672431 0.524451 0.995445
O O7 0.724340 0.713731 0.889986
O O8 0.610057 0.492224 0.863683
O O9 0.250000 0.500000 0.337322
O O10 0.250399 0.750000 0.250000
O O11 0.375560 0.701110 0.335833
O O12 0.351997 0.169085 0.808320
O O13 0.250000 0.000000 0.886393
O O14 0.521587 0.850486 0.300023
#
# Coordination Sequence:
#
# PCOD9411808 Si02
#       7
#     8   4   8   8   8   8   4
#     4  10  23  39  61  96 131 165 209 268 334 380
#     4  10  22  40  72 100 126 164 226 272 328 380
#     4  11  22  41  64  98 125 173 217 260 330 393
#     4  12  24  39  67  93 128 173 219 262 318 404
#     4  10  24  44  69  94 128 173 226 274 330 399
#     4  11  21  41  65  88 137 164 206 275 322 388
#     4  10  24  44  64  94 130 172 216 274 338 386
#
# _framework density 19.765516999999999
#
# number of rings (size 3 to 8) (size 9 to 14) (size 15 to 20)
#    0.000    1.333    2.500    2.500    3.500    2.667 
#    0.000    0.000    3.667    0.000    0.000    0.000 
#    0.000    0.000    0.000    0.000    0.000    0.000 
#
# Total GULP energy -267779.654421 kJ/mol
# GULP energy per Si atom -5578.742800 kJ/mol
# Density = 1.972053 g / cm^3
# Si number density = 19.765517 Si / 1000 Ang^3
#
#
#
# Elastic Constant Matrix: (Units=GPa)
#
#
# Indices 1 2 3 4 5 6 
#
# 1 80.1748 61.0372 19.2163 0.0000 0.0000 0.0000
# 2 61.0372 122.6915 24.6243 0.0000 0.0000 0.0000
# 3 19.2163 24.6243 58.1059 0.0000 0.0000 0.0000
# 4 0.0000 0.0000 0.0000 1.8065 0.0000 0.0000
# 5 0.0000 0.0000 0.0000 0.0000 11.8452 0.0000
# 6 0.0000 0.0000 0.0000 0.0000 0.0000 32.6127
#
#
#
# Elastic Compliance Matrix: (Units=1/GPa)
#
#
# Indices 1 2 3 4 5 6 
#
# 1 0.020451 -0.009636 -0.002680 0.000000 0.000000 0.000000
# 2 -0.009636 0.013449 -0.002512 0.000000 0.000000 0.000000
# 3 -0.002680 -0.002512 0.019161 0.000000 0.000000 0.000000
# 4 0.000000 0.000000 0.000000 0.553569 0.000000 0.000000
# 5 0.000000 0.000000 0.000000 0.000000 0.084422 0.000000
# 6 0.000000 0.000000 0.000000 0.000000 0.000000 0.030663
#
#
# Mechanical properties :
#
#
# Convention : Reuss Voigt Hill
#
# Bulk Modulus (GPa) = 42.72828 52.30308 47.51568
# Shear Modulus (GPa) = 6.58611 19.65918 13.12265
#
# Velocity S-wave (km/s) = 1.82739 3.15718 2.57945
# Velocity P-wave (km/s) = 5.11048 6.30949 5.74137
#
# Compressibility (1/GPa) = 0.02340371
#
# Stress axis : x y z
#
# Youngs Moduli (GPa) = 48.89699 74.35667 52.18960
#
# Poissons Ratio (x) = 0.71652 0.13985
# Poissons Ratio (y) = 0.47119 0.13113
# Poissons Ratio (z) = 0.13103 0.18682
#
# Static dielectric constant tensor:
#      x y z
#    x 1.703150 0.000000 0.000000 
#    y 0.000000 1.709570 0.000000 
#    z 0.000000 0.000000 1.776710 
# 
# From -- ./inp_files/33091.got.cif
#   From: 2010.05.17/outbox.cif.g08.bks.cpg/sg52_17_cif.got.tgz:33091.got - 2010.06.03 12:15:38.
