data_PCOD9411655
_publ_section_title
;
Structure prediction by ZEFSAII (Michael W. Deem and Ramdas Pophale) SiO2 
 PCOD9411655
Probable space group: P N N A
;
_chemical_formula_sum "Si O2"
_cell_formula_units_Z 40
_cell_length_a 15.208172
_cell_length_b 8.706997
_cell_length_c 14.958659
_cell_angle_alpha 90.000000
_cell_angle_beta 90.000000
_cell_angle_gamma 90.000000
_cell_volume 1980.788347
_symmetry_space_group_name_H-M "P N N A"
_symmetry_group_IT_number 52
_symmetry_cell_setting 'orthorhombic'
loop_
_space_group_symop_operation_xyz
x,y,z
1/2-x,-y,z
x,1/2-y,1/2-z
1/2-x,1/2+y,1/2-z
-x,-y,-z
1/2+x,y,-z
-x,1/2+y,1/2+z
1/2+x,1/2-y,1/2+z
loop_
_atom_site_type_symbol
_atom_site_label
_atom_site_fract_x
_atom_site_fract_y
_atom_site_fract_z
Si Si1 0.080453 0.574161 0.945988
Si Si2 0.147364 0.544538 0.320995
Si Si3 0.013879 0.642878 0.662892
Si Si4 0.848997 0.932880 0.263116
Si Si5 0.336842 0.099670 0.369701
O O1 0.053204 0.741143 0.909969
O O2 0.114209 0.477657 0.861386
O O3 0.148715 0.581446 0.025903
O O4 0.000000 0.500000 0.000000
O O5 0.250000 0.500000 0.327678
O O6 0.152272 0.719319 0.352944
O O7 0.110493 0.538541 0.217914
O O8 0.076954 0.435877 0.369033
O O9 0.997511 0.750000 0.750000
O O10 0.085922 0.516734 0.692826
O O11 0.848394 0.750000 0.250000
O O12 0.750000 0.000000 0.254553
O O13 0.250000 0.000000 0.354157
#
# Coordination Sequence:
#
# PCOD9411655 Si02
#       5
#     8   8   8   8   8
#     4  11  24  41  66  96 135 175 219 282 338 393
#     4  10  23  39  65  94 131 177 217 265 329 401
#     4  10  23  41  68  96 132 174 229 274 331 406
#     4  11  24  46  72  97 132 181 230 281 343 410
#     4  10  22  39  62  92 131 168 219 264 330 395
#
# _framework density 20.193981000000001
#
# number of rings (size 3 to 8) (size 9 to 14) (size 15 to 20)
#    0.000    1.600    0.000    4.800   14.000    0.800 
#    0.000    1.000    0.000    0.000    0.000    0.000 
#    0.000    0.000    0.000    0.000    0.000    0.000 
#
# Total GULP energy -222706.046258 kJ/mol
# GULP energy per Si atom -5567.651156 kJ/mol
# Density = 2.014802 g / cm^3
# Si number density = 20.193981 Si / 1000 Ang^3
#
#
#
# Elastic Constant Matrix: (Units=GPa)
#
#
# Indices 1 2 3 4 5 6 
#
# 1 118.9637 66.4235 23.4975 0.0000 0.0000 0.0000
# 2 66.4235 150.3157 29.3314 0.0000 0.0000 0.0000
# 3 23.4975 29.3314 78.4137 0.0000 0.0000 0.0000
# 4 0.0000 0.0000 0.0000 18.1335 0.0000 0.0000
# 5 0.0000 0.0000 0.0000 0.0000 6.1137 0.0000
# 6 0.0000 0.0000 0.0000 0.0000 0.0000 36.3489
#
#
#
# Elastic Compliance Matrix: (Units=1/GPa)
#
#
# Indices 1 2 3 4 5 6 
#
# 1 0.011353 -0.004696 -0.001646 0.000000 0.000000 0.000000
# 2 -0.004696 0.009119 -0.002004 0.000000 0.000000 0.000000
# 3 -0.001646 -0.002004 0.013996 0.000000 0.000000 0.000000
# 4 0.000000 0.000000 0.000000 0.055146 0.000000 0.000000
# 5 0.000000 0.000000 0.000000 0.000000 0.163567 0.000000
# 6 0.000000 0.000000 0.000000 0.000000 0.000000 0.027511
#
#
# Mechanical properties :
#
#
# Convention : Reuss Voigt Hill
#
# Bulk Modulus (GPa) = 56.25255 65.13310 60.69282
# Shear Modulus (GPa) = 16.48492 27.34860 21.91676
#
# Velocity S-wave (km/s) = 2.86025 3.68407 3.29798
# Velocity P-wave (km/s) = 6.23094 7.10072 6.68000
#
# Compressibility (1/GPa) = 0.01777697
#
# Stress axis : x y z
#
# Youngs Moduli (GPa) = 88.08441 109.66557 71.45144
#
# Poissons Ratio (x) = 0.51495 0.11758
# Poissons Ratio (y) = 0.41361 0.14318
# Poissons Ratio (z) = 0.14495 0.21975
#
# Static dielectric constant tensor:
#      x y z
#    x 1.670580 0.000000 0.000000 
#    y 0.000000 1.668570 0.000000 
#    z 0.000000 0.000000 1.675670 
# 
# From -- ./inp_files/26878.got.cif
#   From: 2010.05.17/outbox.cif.g08.bks.cpg/sg52_14_cif.got.tgz:26878.got - 2010.06.03 12:15:38.
