data_PCOD9411861
_publ_section_title
;
Structure prediction by ZEFSAII (Michael W. Deem and Ramdas Pophale) SiO2 
 PCOD9411861
Probable space group: P N N A
;
_chemical_formula_sum "Si O2"
_cell_formula_units_Z 32
_cell_length_a 24.442382
_cell_length_b 10.609236
_cell_length_c 5.198869
_cell_angle_alpha 90.000000
_cell_angle_beta 90.000000
_cell_angle_gamma 90.000000
_cell_volume 1348.144710
_symmetry_space_group_name_H-M "P N N A"
_symmetry_group_IT_number 52
_symmetry_cell_setting 'orthorhombic'
loop_
_space_group_symop_operation_xyz
x,y,z
1/2-x,-y,z
x,1/2-y,1/2-z
1/2-x,1/2+y,1/2-z
-x,-y,-z
1/2+x,y,-z
-x,1/2+y,1/2+z
1/2+x,1/2-y,1/2+z
loop_
_atom_site_type_symbol
_atom_site_label
_atom_site_fract_x
_atom_site_fract_y
_atom_site_fract_z
Si Si1 0.090486 0.482339 0.973017
Si Si2 0.060272 0.886532 0.001670
Si Si3 0.460027 0.750000 0.750000
Si Si4 0.295921 0.104255 0.633137
Si Si5 0.346168 0.250000 0.250000
O O1 0.051151 0.559638 0.781079
O O2 0.077606 0.338190 0.923140
O O3 0.147481 0.525793 0.838917
O O4 0.080629 0.520679 0.267690
O O5 0.110004 0.784802 0.028452
O O6 0.002693 0.829412 0.081946
O O7 0.289162 0.250000 0.750000
O O8 0.305700 0.139187 0.331828
O O9 0.250000 0.000000 0.687314
#
# Coordination Sequence:
#
# PCOD9411861 Si02
#       5
#     8   8   4   8   4
#     4  11  24  43  64  99 136 177 222 283 333 405
#     4  10  22  41  66  91 136 179 214 269 343 402
#     4  11  24  38  68 100 134 172 234 269 334 406
#     4  11  24  44  71  96 134 180 227 284 350 403
#     4   9  20  42  64  92 128 174 220 269 336 408
#
# _framework density 23.736326999999999
#
# number of rings (size 3 to 8) (size 9 to 14) (size 15 to 20)
#    0.000    1.500    2.500    1.500    1.750    4.000 
#    0.000    0.000    0.000    0.000    0.000    0.000 
#    0.000    0.000    0.000    0.000    0.000    0.000 
#
# Total GULP energy -178143.116504 kJ/mol
# GULP energy per Si atom -5566.972391 kJ/mol
# Density = 2.368230 g / cm^3
# Si number density = 23.736327 Si / 1000 Ang^3
#
#
#
# Elastic Constant Matrix: (Units=GPa)
#
#
# Indices 1 2 3 4 5 6 
#
# 1 107.1600 67.5143 -3.4191 0.0000 0.0000 0.0000
# 2 67.5143 116.7062 17.7685 0.0000 0.0000 0.0000
# 3 -3.4191 17.7685 78.0357 0.0000 0.0000 0.0000
# 4 0.0000 0.0000 0.0000 31.5418 0.0000 0.0000
# 5 0.0000 0.0000 0.0000 0.0000 13.2585 0.0000
# 6 0.0000 0.0000 0.0000 0.0000 0.0000 40.7287
#
#
#
# Elastic Compliance Matrix: (Units=1/GPa)
#
#
# Indices 1 2 3 4 5 6 
#
# 1 0.015241 -0.009239 0.002771 0.000000 0.000000 0.000000
# 2 -0.009239 0.014477 -0.003701 0.000000 0.000000 0.000000
# 3 0.002771 -0.003701 0.013779 0.000000 0.000000 0.000000
# 4 0.000000 0.000000 0.000000 0.031704 0.000000 0.000000
# 5 0.000000 0.000000 0.000000 0.000000 0.075423 0.000000
# 6 0.000000 0.000000 0.000000 0.000000 0.000000 0.024553
#
#
# Mechanical properties :
#
#
# Convention : Reuss Voigt Hill
#
# Bulk Modulus (GPa) = 43.17882 51.73659 47.45771
# Shear Modulus (GPa) = 24.60225 31.77502 28.18864
#
# Velocity S-wave (km/s) = 3.22294 3.66275 3.44986
# Velocity P-wave (km/s) = 5.66394 6.30328 5.99214
#
# Compressibility (1/GPa) = 0.02315950
#
# Stress axis : x y z
#
# Youngs Moduli (GPa) = 65.61220 69.07657 72.57523
#
# Poissons Ratio (x) = 0.63819 -0.20114
# Poissons Ratio (y) = 0.60618 0.26861
# Poissons Ratio (z) = -0.18184 0.25566
#
# Static dielectric constant tensor:
#      x y z
#    x 1.940030 0.000000 0.000000 
#    y 0.000000 2.123280 0.000000 
#    z 0.000000 0.000000 1.999350 
# 
# From -- ./inp_files/4811.got.cif
#   From: 2010.05.17/outbox.cif.g08.bks.cpg/sg52_3_cif.got.tgz:4811.got - 2010.06.03 12:15:38.
