data_PCOD9411977
_publ_section_title
;
Structure prediction by ZEFSAII (Michael W. Deem and Ramdas Pophale) SiO2 
 PCOD9411977
Probable space group: P N N A
;
_chemical_formula_sum "Si O2"
_cell_formula_units_Z 40
_cell_length_a 22.605494
_cell_length_b 15.891026
_cell_length_c 5.365345
_cell_angle_alpha 90.000000
_cell_angle_beta 90.000000
_cell_angle_gamma 90.000000
_cell_volume 1927.363337
_symmetry_space_group_name_H-M "P N N A"
_symmetry_group_IT_number 52
_symmetry_cell_setting 'orthorhombic'
loop_
_space_group_symop_operation_xyz
x,y,z
1/2-x,-y,z
x,1/2-y,1/2-z
1/2-x,1/2+y,1/2-z
-x,-y,-z
1/2+x,y,-z
-x,1/2+y,1/2+z
1/2+x,1/2-y,1/2+z
loop_
_atom_site_type_symbol
_atom_site_label
_atom_site_fract_x
_atom_site_fract_y
_atom_site_fract_z
Si Si1 0.721112 0.915073 0.640528
Si Si2 0.104417 0.163694 0.092139
Si Si3 0.479903 0.571052 0.690505
Si Si4 0.766448 0.661374 0.363955
Si Si5 0.594677 0.990373 0.583393
O O1 0.751434 0.897908 0.372170
O O2 0.652607 0.934398 0.596760
O O3 0.750000 0.000000 0.743514
O O4 0.734173 0.852810 0.870471
O O5 0.105207 0.250000 0.250000
O O6 0.103373 0.075271 0.247968
O O7 0.043926 0.155575 0.933535
O O8 0.163965 0.162658 0.929036
O O9 0.500000 0.500000 0.500000
O O10 0.537636 0.569711 0.863521
O O11 0.422472 0.532141 0.823075
O O12 0.748154 0.750000 0.250000
#
# Coordination Sequence:
#
# PCOD9411977 Si02
#       5
#     8   8   8   8   8
#     4  12  24  42  71 100 135 186 238 278 352 423
#     4  11  23  40  66 102 135 177 226 293 354 408
#     4   9  21  40  67  96 132 172 228 290 345 399
#     4  12  27  44  66 100 145 181 226 298 355 413
#     4  10  22  42  68  99 134 183 233 292 334 421
#
# _framework density 20.753741000000002
#
# number of rings (size 3 to 8) (size 9 to 14) (size 15 to 20)
#    0.000    1.200    2.000    3.600    8.400    0.000 
#    0.000    1.000   13.200    0.000    0.000    0.000 
#    0.000    0.000    0.000    0.000    0.000    0.000 
#
# Total GULP energy -222900.319331 kJ/mol
# GULP energy per Si atom -5572.507983 kJ/mol
# Density = 2.070650 g / cm^3
# Si number density = 20.753741 Si / 1000 Ang^3
#
#
#
# Elastic Constant Matrix: (Units=GPa)
#
#
# Indices 1 2 3 4 5 6 
#
# 1 124.8161 55.6148 52.9919 0.0000 0.0000 0.0000
# 2 55.6148 88.1251 47.3191 0.0000 0.0000 0.0000
# 3 52.9919 47.3191 122.0644 0.0000 0.0000 0.0000
# 4 0.0000 0.0000 0.0000 -18.2151 0.0000 0.0000
# 5 0.0000 0.0000 0.0000 0.0000 38.6390 0.0000
# 6 0.0000 0.0000 0.0000 0.0000 0.0000 20.3927
#
#
#
# Elastic Compliance Matrix: (Units=1/GPa)
#
#
# Indices 1 2 3 4 5 6 
#
# 1 0.011879 -0.005970 -0.002843 0.000000 0.000000 0.000000
# 2 -0.005970 0.017331 -0.004127 0.000000 0.000000 0.000000
# 3 -0.002843 -0.004127 0.011026 0.000000 0.000000 0.000000
# 4 0.000000 0.000000 0.000000 -0.054900 0.000000 0.000000
# 5 0.000000 0.000000 0.000000 0.000000 0.025881 0.000000
# 6 0.000000 0.000000 0.000000 0.000000 0.000000 0.049037
#
#
# Mechanical properties :
#
#
# Convention : Reuss Voigt Hill
#
# Bulk Modulus (GPa) = 69.65170 71.87302 70.76236
# Shear Modulus (GPa) = 54.99416 20.10200 37.54808
#
# Velocity S-wave (km/s) = 5.15325 3.11560 4.25811
# Velocity P-wave (km/s) = 8.30914 6.90284 7.63842
#
# Compressibility (1/GPa) = 0.01435715
#
# Stress axis : x y z
#
# Youngs Moduli (GPa) = 84.18348 57.69977 90.69354
#
# Poissons Ratio (x) = 0.34448 0.25780
# Poissons Ratio (y) = 0.50260 0.37426
# Poissons Ratio (z) = 0.23929 0.23811
#
# Static dielectric constant tensor:
#      x y z
#    x 1.778810 0.000000 0.000000 
#    y 0.000000 1.841920 0.000000 
#    z 0.000000 0.000000 1.900360 
# 
# From -- ./inp_files/5026.got.cif
#   From: 2010.05.17/outbox.cif.g08.bks.cpg/sg52_3_cif.got.tgz:5026.got - 2010.06.03 12:15:38.
