data_PCOD9411950
_publ_section_title
;
Structure prediction by ZEFSAII (Michael W. Deem and Ramdas Pophale) SiO2 
 PCOD9411950
Probable space group: P N N A
;
_chemical_formula_sum "Si O2"
_cell_formula_units_Z 40
_cell_length_a 18.428441
_cell_length_b 8.940750
_cell_length_c 11.503733
_cell_angle_alpha 90.000000
_cell_angle_beta 90.000000
_cell_angle_gamma 90.000000
_cell_volume 1895.402029
_symmetry_space_group_name_H-M "P N N A"
_symmetry_group_IT_number 52
_symmetry_cell_setting 'orthorhombic'
loop_
_space_group_symop_operation_xyz
x,y,z
1/2-x,-y,z
x,1/2-y,1/2-z
1/2-x,1/2+y,1/2-z
-x,-y,-z
1/2+x,y,-z
-x,1/2+y,1/2+z
1/2+x,1/2-y,1/2+z
loop_
_atom_site_type_symbol
_atom_site_label
_atom_site_fract_x
_atom_site_fract_y
_atom_site_fract_z
Si Si1 0.625074 0.550866 0.822448
Si Si2 0.065585 0.823105 0.087406
Si Si3 0.750000 0.000000 0.525759
Si Si4 0.444474 0.041109 0.854503
Si Si5 0.565828 0.250000 0.750000
Si Si6 0.321814 0.582685 0.796920
O O1 0.565776 0.645647 0.894568
O O2 0.614899 0.608846 0.690960
O O3 0.699255 0.591833 0.887149
O O4 0.612389 0.373310 0.818565
O O5 0.093733 0.882688 0.964565
O O6 0.985079 0.889244 0.106916
O O7 0.805109 0.920554 0.434993
O O8 0.510755 0.151177 0.825665
O O9 0.391402 0.008899 0.747833
O O10 0.250000 0.500000 0.747236
O O11 0.327095 0.750000 0.750000
#
# Coordination Sequence:
#
# PCOD9411950 Si02
#       6
#     8   8   4   8   4   8
#     4  10  22  44  61  99 130 174 227 260 341 388
#     4   9  22  41  67  93 130 174 217 283 324 394
#     4  10  26  42  68  94 134 178 218 266 326 402
#     4  10  22  42  66  98 132 170 226 273 344 384
#     4  10  24  36  68  98 132 170 224 278 336 388
#     4  10  26  43  66  99 131 174 222 269 335 398
#
# _framework density 21.103701999999998
#
# number of rings (size 3 to 8) (size 9 to 14) (size 15 to 20)
#    0.600    1.600    0.000    0.000   12.600    7.200 
#    1.800    0.000    0.000    0.000    0.000    0.000 
#    0.000    0.000    0.000    0.000    0.000    0.000 
#
# Total GULP energy -222756.510363 kJ/mol
# GULP energy per Si atom -5568.912759 kJ/mol
# Density = 2.105567 g / cm^3
# Si number density = 21.103702 Si / 1000 Ang^3
#
#
#
# Elastic Constant Matrix: (Units=GPa)
#
#
# Indices 1 2 3 4 5 6 
#
# 1 47.2574 16.4098 41.5369 0.0000 0.0000 0.0000
# 2 16.4098 103.8878 22.4776 0.0000 0.0000 0.0000
# 3 41.5369 22.4776 118.8624 0.0000 0.0000 0.0000
# 4 0.0000 0.0000 0.0000 14.2565 0.0000 0.0000
# 5 0.0000 0.0000 0.0000 0.0000 37.9763 0.0000
# 6 0.0000 0.0000 0.0000 0.0000 0.0000 15.8676
#
#
#
# Elastic Compliance Matrix: (Units=1/GPa)
#
#
# Indices 1 2 3 4 5 6 
#
# 1 0.031243 -0.002682 -0.010411 0.000000 0.000000 0.000000
# 2 -0.002682 0.010267 -0.001004 0.000000 0.000000 0.000000
# 3 -0.010411 -0.001004 0.012241 0.000000 0.000000 0.000000
# 4 0.000000 0.000000 0.000000 0.070144 0.000000 0.000000
# 5 0.000000 0.000000 0.000000 0.000000 0.026332 0.000000
# 6 0.000000 0.000000 0.000000 0.000000 0.000000 0.063022
#
#
# Mechanical properties :
#
#
# Convention : Reuss Voigt Hill
#
# Bulk Modulus (GPa) = 39.12977 47.87290 43.50134
# Shear Modulus (GPa) = 20.00317 26.25897 23.13107
#
# Velocity S-wave (km/s) = 3.08206 3.53127 3.31428
# Velocity P-wave (km/s) = 5.58993 6.27378 5.94170
#
# Compressibility (1/GPa) = 0.02555599
#
# Stress axis : x y z
#
# Youngs Moduli (GPa) = 32.00766 97.40196 81.69294
#
# Poissons Ratio (x) = 0.26128 0.85047
# Poissons Ratio (y) = 0.08586 0.08203
# Poissons Ratio (z) = 0.33322 0.09780
#
# Static dielectric constant tensor:
#      x y z
#    x 1.797530 0.000000 0.000000 
#    y 0.000000 1.851830 0.000000 
#    z 0.000000 0.000000 1.797440 
# 
# From -- ./inp_files/21502.got.cif
#   From: 2010.05.17/outbox.cif.g08.bks.cpg/sg52_11_cif.got.tgz:21502.got - 2010.06.03 12:15:38.
