data_PCOD9411191
_publ_section_title
;
Structure prediction by ZEFSAII (Michael W. Deem and Ramdas Pophale) SiO2 
 PCOD9411191
Probable space group: P N N A
;
_chemical_formula_sum "Si O2"
_cell_formula_units_Z 40
_cell_length_a 8.356694
_cell_length_b 8.647833
_cell_length_c 24.370815
_cell_angle_alpha 90.000000
_cell_angle_beta 90.000000
_cell_angle_gamma 90.000000
_cell_volume 1761.212856
_symmetry_space_group_name_H-M "P N N A"
_symmetry_group_IT_number 52
_symmetry_cell_setting 'orthorhombic'
loop_
_space_group_symop_operation_xyz
x,y,z
1/2-x,-y,z
x,1/2-y,1/2-z
1/2-x,1/2+y,1/2-z
-x,-y,-z
1/2+x,y,-z
-x,1/2+y,1/2+z
1/2+x,1/2-y,1/2+z
loop_
_atom_site_type_symbol
_atom_site_label
_atom_site_fract_x
_atom_site_fract_y
_atom_site_fract_z
Si Si1 0.044213 0.819086 0.308072
Si Si2 0.223100 0.818156 0.508295
Si Si3 0.067824 0.192229 0.074131
Si Si4 0.567317 0.174300 0.692337
Si Si5 0.402556 0.891087 0.904114
O O1 0.990956 0.750000 0.250000
O O2 0.238322 0.821198 0.307522
O O3 0.974280 0.708755 0.354798
O O4 0.002426 0.000031 0.313027
O O5 0.261044 0.749112 0.448094
O O6 0.336190 0.725180 0.550346
O O7 0.051472 0.784221 0.534270
O O8 0.250000 0.000000 0.507278
O O9 0.028626 0.235834 0.136683
O O10 0.030179 0.011512 0.070706
O O11 0.514737 0.250000 0.750000
O O12 0.250000 0.000000 0.888147
#
# Coordination Sequence:
#
# PCOD9411191 Si02
#       5
#     8   8   8   8   8
#     4  10  21  40  68  98 132 173 217 276 333 396
#     4  11  24  41  64  95 133 177 224 272 335 398
#     4  11  24  41  65  97 134 175 219 278 329 401
#     4  10  22  40  68 102 131 168 221 272 337 397
#     4  10  23  43  62  94 136 174 224 269 334 401
#
# _framework density 22.71162
#
# number of rings (size 3 to 8) (size 9 to 14) (size 15 to 20)
#    0.000    1.600    0.000    3.600    5.600    2.400 
#    0.000    9.000    0.000    0.000    0.000    0.000 
#    0.000    0.000    0.000    0.000    0.000    0.000 
#
# Total GULP energy -223735.487828 kJ/mol
# GULP energy per Si atom -5593.387196 kJ/mol
# Density = 2.265993 g / cm^3
# Si number density = 22.711620 Si / 1000 Ang^3
#
#
#
# Elastic Constant Matrix: (Units=GPa)
#
#
# Indices 1 2 3 4 5 6 
#
# 1 30.8992 47.7640 39.7261 0.0000 0.0000 0.0000
# 2 47.7640 194.0831 59.7878 0.0000 0.0000 0.0000
# 3 39.7261 59.7878 133.6042 0.0000 0.0000 0.0000
# 4 0.0000 0.0000 0.0000 43.1484 0.0000 0.0000
# 5 0.0000 0.0000 0.0000 0.0000 30.3017 0.0000
# 6 0.0000 0.0000 0.0000 0.0000 0.0000 28.9624
#
#
#
# Elastic Compliance Matrix: (Units=1/GPa)
#
#
# Indices 1 2 3 4 5 6 
#
# 1 0.072922 -0.013068 -0.015835 0.000000 0.000000 0.000000
# 2 -0.013068 0.008318 0.000163 0.000000 0.000000 0.000000
# 3 -0.015835 0.000163 0.012120 0.000000 0.000000 0.000000
# 4 0.000000 0.000000 0.000000 0.023176 0.000000 0.000000
# 5 0.000000 0.000000 0.000000 0.000000 0.033001 0.000000
# 6 0.000000 0.000000 0.000000 0.000000 0.000000 0.034528
#
#
# Mechanical properties :
#
#
# Convention : Reuss Voigt Hill
#
# Bulk Modulus (GPa) = 27.86975 72.57138 50.22056
# Shear Modulus (GPa) = 19.72344 34.56974 27.14659
#
# Velocity S-wave (km/s) = 2.95011 3.90566 3.46102
# Velocity P-wave (km/s) = 4.88896 7.23614 6.17510
#
# Compressibility (1/GPa) = 0.03588119
#
# Stress axis : x y z
#
# Youngs Moduli (GPa) = 13.71319 120.21795 82.50790
#
# Poissons Ratio (x) = 1.57104 1.30650
# Poissons Ratio (y) = 0.17921 -0.01348
# Poissons Ratio (z) = 0.21715 -0.01964
#
# Static dielectric constant tensor:
#      x y z
#    x 1.951200 0.000000 0.000000 
#    y 0.000000 1.811860 0.000000 
#    z 0.000000 0.000000 1.821970 
# 
# From -- ./inp_files/39218.got.cif
#   From: 2010.05.17/outbox.cif.g08.bks.cpg/sg52_20_cif.got.tgz:39218.got - 2010.06.03 12:15:38.
