data_PCOD9411042
_publ_section_title
;
Structure prediction by ZEFSAII (Michael W. Deem and Ramdas Pophale) SiO2 
 PCOD9411042
Probable space group: P N N A
;
_chemical_formula_sum "Si O2"
_cell_formula_units_Z 52
_cell_length_a 15.513351
_cell_length_b 13.330645
_cell_length_c 10.445812
_cell_angle_alpha 90.000000
_cell_angle_beta 90.000000
_cell_angle_gamma 90.000000
_cell_volume 2160.224997
_symmetry_space_group_name_H-M "P N N A"
_symmetry_group_IT_number 52
_symmetry_cell_setting 'orthorhombic'
loop_
_space_group_symop_operation_xyz
x,y,z
1/2-x,-y,z
x,1/2-y,1/2-z
1/2-x,1/2+y,1/2-z
-x,-y,-z
1/2+x,y,-z
-x,1/2+y,1/2+z
1/2+x,1/2-y,1/2+z
loop_
_atom_site_type_symbol
_atom_site_label
_atom_site_fract_x
_atom_site_fract_y
_atom_site_fract_z
Si Si1 0.652843 0.205273 0.435736
Si Si2 0.834815 0.157250 0.479770
Si Si3 0.750000 0.500000 0.818842
Si Si4 0.958434 0.610549 0.416976
Si Si5 0.507494 0.176490 0.629595
Si Si6 0.656450 0.494895 0.237877
Si Si7 0.425927 0.525973 0.309549
O O1 0.753868 0.230607 0.455234
O O2 0.596765 0.294207 0.376391
O O3 0.601549 0.191527 0.567886
O O4 0.648938 0.100665 0.358287
O O5 0.750000 0.000000 0.200808
O O6 0.798118 0.082469 0.589669
O O7 0.565639 0.805855 0.480757
O O8 0.673038 0.460969 0.729698
O O9 0.907854 0.517691 0.353242
O O10 0.949447 0.594461 0.567846
O O11 0.050981 0.587594 0.354194
O O12 0.491136 0.250000 0.750000
O O13 0.345023 0.091955 0.649251
O O14 0.519634 0.064088 0.686472
#
# Coordination Sequence:
#
# PCOD9411042 Si02
#       7
#     8   8   4   8   8   8   8
#     4  11  23  44  69 104 142 184 244 304 357 433
#     4  11  23  43  74 104 137 190 245 301 364 431
#     4  12  24  48  74 104 134 190 254 298 368 444
#     4  11  24  44  68 102 145 189 234 298 375 441
#     4  12  24  45  73 103 145 194 241 305 366 437
#     4  10  21  39  66  99 135 180 236 290 349 429
#     4  11  25  45  73 100 146 195 239 299 384 451
#
# _framework density 24.071567999999999
#
# number of rings (size 3 to 8) (size 9 to 14) (size 15 to 20)
#    0.000    0.923    6.923    0.462    3.231    3.692 
#    2.769    0.000    0.000    0.000    0.000    0.000 
#    0.000    0.000    0.000    0.000    0.000    0.000 
#
# Total GULP energy -289841.952629 kJ/mol
# GULP energy per Si atom -5573.883704 kJ/mol
# Density = 2.401678 g / cm^3
# Si number density = 24.071568 Si / 1000 Ang^3
#
#
#
# Elastic Constant Matrix: (Units=GPa)
#
#
# Indices 1 2 3 4 5 6 
#
# 1 157.6265 22.3774 40.0285 0.0000 0.0000 0.0000
# 2 22.3774 59.9912 10.6288 0.0000 0.0000 0.0000
# 3 40.0285 10.6288 75.1448 0.0000 0.0000 0.0000
# 4 0.0000 0.0000 0.0000 29.9564 0.0000 0.0000
# 5 0.0000 0.0000 0.0000 0.0000 40.9075 0.0000
# 6 0.0000 0.0000 0.0000 0.0000 0.0000 863.3230
#
#
#
# Elastic Compliance Matrix: (Units=1/GPa)
#
#
# Indices 1 2 3 4 5 6 
#
# 1 0.007603 -0.002173 -0.003743 0.000000 0.000000 0.000000
# 2 -0.002173 0.017719 -0.001349 0.000000 0.000000 0.000000
# 3 -0.003743 -0.001349 0.015492 0.000000 0.000000 0.000000
# 4 0.000000 0.000000 0.000000 0.033382 0.000000 0.000000
# 5 0.000000 0.000000 0.000000 0.000000 0.024445 0.000000
# 6 0.000000 0.000000 0.000000 0.000000 0.000000 0.001158
#
#
# Mechanical properties :
#
#
# Convention : Reuss Voigt Hill
#
# Bulk Modulus (GPa) = 38.04439 48.75911 43.40175
# Shear Modulus (GPa) = 40.62085 201.48591 121.05338
#
# Velocity S-wave (km/s) = 4.11238 9.15885 7.09916
# Velocity P-wave (km/s) = 6.19580 11.49548 9.23401
#
# Compressibility (1/GPa) = 0.02628508
#
# Stress axis : x y z
#
# Youngs Moduli (GPa) = 131.52663 56.43793 64.54916
#
# Poissons Ratio (x) = 0.12264 0.24159
# Poissons Ratio (y) = 0.28580 0.08706
# Poissons Ratio (z) = 0.49226 0.07612
#
# Static dielectric constant tensor:
#      x y z
#    x 2.072000 0.000000 0.000000 
#    y 0.000000 2.126490 0.000000 
#    z 0.000000 0.000000 1.920880 
# 
# From -- ./inp_files/20790.got.cif
#   From: 2010.05.17/outbox.cif.g08.bks.cpg/sg52_11_cif.got.tgz:20790.got - 2010.06.03 12:15:38.
