data_PCOD9411792
_publ_section_title
;
Structure prediction by ZEFSAII (Michael W. Deem and Ramdas Pophale) SiO2 
 PCOD9411792
Probable space group: P N N A
;
_chemical_formula_sum "Si O2"
_cell_formula_units_Z 56
_cell_length_a 5.764616
_cell_length_b 14.350821
_cell_length_c 28.274788
_cell_angle_alpha 90.000000
_cell_angle_beta 90.000000
_cell_angle_gamma 90.000000
_cell_volume 2339.087605
_symmetry_space_group_name_H-M "P N N A"
_symmetry_group_IT_number 52
_symmetry_cell_setting 'orthorhombic'
loop_
_space_group_symop_operation_xyz
x,y,z
1/2-x,-y,z
x,1/2-y,1/2-z
1/2-x,1/2+y,1/2-z
-x,-y,-z
1/2+x,y,-z
-x,1/2+y,1/2+z
1/2+x,1/2-y,1/2+z
loop_
_atom_site_type_symbol
_atom_site_label
_atom_site_fract_x
_atom_site_fract_y
_atom_site_fract_z
Si Si1 0.510301 0.393903 0.482247
Si Si2 0.777859 0.654491 0.278638
Si Si3 0.268359 0.638861 0.880261
Si Si4 0.069381 0.581660 0.200006
Si Si5 0.017007 0.830971 0.119958
Si Si6 0.890031 0.748113 0.676292
Si Si7 0.213796 0.605567 0.985230
O O1 0.500000 0.500000 0.500000
O O2 0.758526 0.352939 0.500850
O O3 0.514844 0.394333 0.425261
O O4 0.827700 0.750000 0.250000
O O5 0.506598 0.671809 0.289482
O O6 0.889168 0.582244 0.242944
O O7 0.894801 0.642739 0.330202
O O8 0.436272 0.573455 0.849910
O O9 0.413074 0.730935 0.893769
O O10 0.080444 0.680767 0.844049
O O11 0.172348 0.600751 0.928917
O O12 0.250000 0.500000 0.205643
O O13 0.199080 0.682050 0.197055
O O14 0.281848 0.810685 0.133540
O O15 0.250000 0.500000 0.004595
O O16 0.473626 0.646854 0.993994
#
# Coordination Sequence:
#
# PCOD9411792 Si02
#       7
#     8   8   8   8   8   8   8
#     4  10  24  47  74 103 146 190 244 312 392 449
#     4  11  21  43  67  98 141 189 242 294 377 464
#     4  10  23  39  63  98 134 183 237 294 370 447
#     4  11  25  41  67 106 140 187 244 312 388 455
#     4  10  23  41  72 102 129 187 244 297 368 460
#     4  10  22  40  69  96 142 184 240 297 373 459
#     4  10  24  41  60  89 132 182 230 285 359 427
#
# _framework density 23.940957999999998
#
# number of rings (size 3 to 8) (size 9 to 14) (size 15 to 20)
#    0.000    1.714    4.286    0.000   12.000    1.714 
#    2.571    0.000    3.143    0.000    0.000    0.000 
#    0.000    0.000    0.000    0.000    0.000    0.000 
#
# Total GULP energy -312583.874025 kJ/mol
# GULP energy per Si atom -5581.854893 kJ/mol
# Density = 2.388647 g / cm^3
# Si number density = 23.940958 Si / 1000 Ang^3
#
#
#
# Elastic Constant Matrix: (Units=GPa)
#
#
# Indices 1 2 3 4 5 6 
#
# 1 145.7861 24.4137 44.9373 0.0000 0.0000 0.0000
# 2 24.4137 53.5806 35.6286 0.0000 0.0000 0.0000
# 3 44.9373 35.6286 170.6655 0.0000 0.0000 0.0000
# 4 0.0000 0.0000 0.0000 30.0208 0.0000 0.0000
# 5 0.0000 0.0000 0.0000 0.0000 39.8168 0.0000
# 6 0.0000 0.0000 0.0000 0.0000 0.0000 37.6384
#
#
#
# Elastic Compliance Matrix: (Units=1/GPa)
#
#
# Indices 1 2 3 4 5 6 
#
# 1 0.007749 -0.002524 -0.001513 0.000000 0.000000 0.000000
# 2 -0.002524 0.022494 -0.004031 0.000000 0.000000 0.000000
# 3 -0.001513 -0.004031 0.007099 0.000000 0.000000 0.000000
# 4 0.000000 0.000000 0.000000 0.033310 0.000000 0.000000
# 5 0.000000 0.000000 0.000000 0.000000 0.025115 0.000000
# 6 0.000000 0.000000 0.000000 0.000000 0.000000 0.026569
#
#
# Mechanical properties :
#
#
# Convention : Reuss Voigt Hill
#
# Bulk Modulus (GPa) = 47.15980 64.44351 55.80166
# Shear Modulus (GPa) = 34.35433 39.16539 36.75986
#
# Velocity S-wave (km/s) = 3.79220 4.04903 3.92272
# Velocity P-wave (km/s) = 6.23823 6.98825 6.62386
#
# Compressibility (1/GPa) = 0.02120450
#
# Stress axis : x y z
#
# Youngs Moduli (GPa) = 129.05654 44.45574 140.85601
#
# Poissons Ratio (x) = 0.11222 0.21315
# Poissons Ratio (y) = 0.32578 0.56783
# Poissons Ratio (z) = 0.19530 0.17921
#
# Static dielectric constant tensor:
#      x y z
#    x 2.019550 0.000000 0.000000 
#    y 0.000000 1.960490 0.000000 
#    z 0.000000 0.000000 1.866160 
# 
# From -- ./inp_files/43796.got.cif
#   From: 2010.05.17/outbox.cif.g08.bks.cpg/sg52_22_cif.got.tgz:43796.got - 2010.06.03 12:15:38.
