data_PCOD9411285
_publ_section_title
;
Structure prediction by ZEFSAII (Michael W. Deem and Ramdas Pophale) SiO2 
 PCOD9411285
Probable space group: P N N A
;
_chemical_formula_sum "Si O2"
_cell_formula_units_Z 56
_cell_length_a 13.834409
_cell_length_b 11.787956
_cell_length_c 15.234861
_cell_angle_alpha 90.000000
_cell_angle_beta 90.000000
_cell_angle_gamma 90.000000
_cell_volume 2484.492061
_symmetry_space_group_name_H-M "P N N A"
_symmetry_group_IT_number 52
_symmetry_cell_setting 'orthorhombic'
loop_
_space_group_symop_operation_xyz
x,y,z
1/2-x,-y,z
x,1/2-y,1/2-z
1/2-x,1/2+y,1/2-z
-x,-y,-z
1/2+x,y,-z
-x,1/2+y,1/2+z
1/2+x,1/2-y,1/2+z
loop_
_atom_site_type_symbol
_atom_site_label
_atom_site_fract_x
_atom_site_fract_y
_atom_site_fract_z
Si Si1 0.512381 0.011663 0.103566
Si Si2 0.257891 0.723936 0.422913
Si Si3 0.660834 0.919940 0.774078
Si Si4 0.427420 0.845170 0.487266
Si Si5 0.110939 0.595529 0.080411
Si Si6 0.693659 0.616299 0.397774
Si Si7 0.131398 0.237044 0.847533
O O1 0.414828 0.019941 0.159843
O O2 0.570322 0.130159 0.116326
O O3 0.584249 0.908569 0.127847
O O4 0.500000 0.000000 0.000000
O O5 0.215421 0.675003 0.332835
O O6 0.372329 0.744892 0.434879
O O7 0.214577 0.849555 0.437705
O O8 0.214977 0.645092 0.499959
O O9 0.602228 0.887474 0.685882
O O10 0.750000 0.000000 0.745304
O O11 0.539494 0.836040 0.514717
O O12 0.382697 0.839803 0.585464
O O13 0.409372 0.964806 0.440582
O O14 0.750000 0.500000 0.379012
O O15 0.754952 0.710073 0.347827
O O16 0.096298 0.250000 0.750000
#
# Coordination Sequence:
#
# PCOD9411285 Si02
#       7
#     8   8   8   8   8   8   8
#     4  11  22  38  65  97 133 175 226 290 356 416
#     4  11  21  38  66  93 126 175 229 278 343 402
#     4  12  25  38  65  98 137 172 237 292 350 410
#     4  10  23  41  66  88 135 175 226 275 345 419
#     4  11  24  43  60  95 132 183 224 276 344 419
#     4   9  20  38  61  94 126 163 217 277 345 410
#     4  10  21  41  69  99 128 173 232 285 345 420
#
# _framework density 22.539818
#
# number of rings (size 3 to 8) (size 9 to 14) (size 15 to 20)
#    0.000    1.429    1.429    3.857    4.000    0.000 
#    0.000   15.714    0.000    0.000    0.000    0.000 
#    0.000    0.000    0.000    0.000    0.000    0.000 
#
# Total GULP energy -312385.052851 kJ/mol
# GULP energy per Si atom -5578.304515 kJ/mol
# Density = 2.248852 g / cm^3
# Si number density = 22.539818 Si / 1000 Ang^3
#
#
#
# Elastic Constant Matrix: (Units=GPa)
#
#
# Indices 1 2 3 4 5 6 
#
# 1 117.1930 19.0222 29.7347 0.0000 0.0000 0.0000
# 2 19.0222 26.2700 21.4582 0.0000 0.0000 0.0000
# 3 29.7347 21.4582 117.5777 0.0000 0.0000 0.0000
# 4 0.0000 0.0000 0.0000 21.4220 0.0000 0.0000
# 5 0.0000 0.0000 0.0000 0.0000 17.4601 0.0000
# 6 0.0000 0.0000 0.0000 0.0000 0.0000 23.3909
#
#
#
# Elastic Compliance Matrix: (Units=1/GPa)
#
#
# Indices 1 2 3 4 5 6 
#
# 1 0.009861 -0.005998 -0.001399 0.000000 0.000000 0.000000
# 2 -0.005998 0.048383 -0.007313 0.000000 0.000000 0.000000
# 3 -0.001399 -0.007313 0.010194 0.000000 0.000000 0.000000
# 4 0.000000 0.000000 0.000000 0.046681 0.000000 0.000000
# 5 0.000000 0.000000 0.000000 0.000000 0.057273 0.000000
# 6 0.000000 0.000000 0.000000 0.000000 0.000000 0.042752
#
#
# Mechanical properties :
#
#
# Convention : Reuss Voigt Hill
#
# Bulk Modulus (GPa) = 25.62958 44.60787 35.11873
# Shear Modulus (GPa) = 19.41219 25.17632 22.29425
#
# Velocity S-wave (km/s) = 2.93787 3.34574 3.14842
# Velocity P-wave (km/s) = 4.78577 5.89567 5.36948
#
# Compressibility (1/GPa) = 0.03901742
#
# Stress axis : x y z
#
# Youngs Moduli (GPa) = 101.40456 20.66851 98.10105
#
# Poissons Ratio (x) = 0.12396 0.13727
# Poissons Ratio (y) = 0.60819 0.71743
# Poissons Ratio (z) = 0.14190 0.15115
#
# Static dielectric constant tensor:
#      x y z
#    x 1.913760 0.000000 0.000000 
#    y 0.000000 1.882210 0.000000 
#    z 0.000000 0.000000 1.824590 
# 
# From -- ./inp_files/27268.got.cif
#   From: 2010.05.17/outbox.cif.g08.bks.cpg/sg52_14_cif.got.tgz:27268.got - 2010.06.03 12:15:38.
