data_PCOD9411067
_publ_section_title
;
Structure prediction by ZEFSAII (Michael W. Deem and Ramdas Pophale) SiO2 
 PCOD9411067
Probable space group: P N N A
;
_chemical_formula_sum "Si O2"
_cell_formula_units_Z 48
_cell_length_a 17.014002
_cell_length_b 29.426572
_cell_length_c 5.036850
_cell_angle_alpha 90.000000
_cell_angle_beta 90.000000
_cell_angle_gamma 90.000000
_cell_volume 2521.768234
_symmetry_space_group_name_H-M "P N N A"
_symmetry_group_IT_number 52
_symmetry_cell_setting 'orthorhombic'
loop_
_space_group_symop_operation_xyz
x,y,z
1/2-x,-y,z
x,1/2-y,1/2-z
1/2-x,1/2+y,1/2-z
-x,-y,-z
1/2+x,y,-z
-x,1/2+y,1/2+z
1/2+x,1/2-y,1/2+z
loop_
_atom_site_type_symbol
_atom_site_label
_atom_site_fract_x
_atom_site_fract_y
_atom_site_fract_z
Si Si1 0.888985 0.698925 0.157945
Si Si2 0.309142 0.615774 0.699631
Si Si3 0.088929 0.975047 0.217620
Si Si4 0.049115 0.429952 0.026301
Si Si5 0.312083 0.459425 0.780873
Si Si6 0.931059 0.849129 0.847790
O O1 0.877893 0.750000 0.250000
O O2 0.811459 0.667065 0.185415
O O3 0.947605 0.826675 0.132511
O O4 0.918803 0.690931 0.862392
O O5 0.230296 0.587581 0.708204
O O6 0.348797 0.624194 0.412277
O O7 0.374350 0.587518 0.866787
O O8 0.159313 0.960758 0.416269
O O9 0.014575 0.945945 0.312092
O O10 0.070464 0.027185 0.291114
O O11 0.115351 0.968755 0.916313
O O12 0.018853 0.388073 0.206856
O O13 0.250000 0.500000 0.737201
#
# Coordination Sequence:
#
# PCOD9411067 Si02
#       6
#     8   8   8   8   8   8
#     4   9  18  32  54  86 108 132 175 231 288 330
#     4   9  21  34  58  77 116 140 181 230 280 317
#     4  11  26  33  58  73 117 149 200 218 267 331
#     4  10  21  40  51  82 106 160 185 227 271 320
#     4  12  23  37  51  82 110 154 186 234 270 324
#     4   9  19  31  57  74 114 134 172 231 275 323
#
# _framework density 19.034265000000001
#
# number of rings (size 3 to 8) (size 9 to 14) (size 15 to 20)
#    1.000    1.000    1.667    2.000    7.000    1.333 
#    0.000    0.000    0.000    0.000    0.000   14.000 
#    0.000    0.000    0.000    0.000    0.000    0.000 
#
# Total GULP energy -267471.620183 kJ/mol
# GULP energy per Si atom -5572.325420 kJ/mol
# Density = 1.899094 g / cm^3
# Si number density = 19.034265 Si / 1000 Ang^3
#
#
#
# Elastic Constant Matrix: (Units=GPa)
#
#
# Indices 1 2 3 4 5 6 
#
# 1 34.7859 18.0234 -0.1313 0.0000 0.0000 0.0000
# 2 18.0234 98.5571 2.8316 0.0000 0.0000 0.0000
# 3 -0.1313 2.8316 77.8559 0.0000 0.0000 0.0000
# 4 0.0000 0.0000 0.0000 23.3108 0.0000 0.0000
# 5 0.0000 0.0000 0.0000 0.0000 23.4567 0.0000
# 6 0.0000 0.0000 0.0000 0.0000 0.0000 14.5426
#
#
#
# Elastic Compliance Matrix: (Units=1/GPa)
#
#
# Indices 1 2 3 4 5 6 
#
# 1 0.031762 -0.005816 0.000265 0.000000 0.000000 0.000000
# 2 -0.005816 0.011222 -0.000418 0.000000 0.000000 0.000000
# 3 0.000265 -0.000418 0.012860 0.000000 0.000000 0.000000
# 4 0.000000 0.000000 0.000000 0.042899 0.000000 0.000000
# 5 0.000000 0.000000 0.000000 0.000000 0.042632 0.000000
# 6 0.000000 0.000000 0.000000 0.000000 0.000000 0.068764
#
#
# Mechanical properties :
#
#
# Convention : Reuss Voigt Hill
#
# Bulk Modulus (GPa) = 22.77596 28.07180 25.42388
# Shear Modulus (GPa) = 21.12285 24.96036 23.04161
#
# Velocity S-wave (km/s) = 3.33487 3.62517 3.48305
# Velocity P-wave (km/s) = 5.17883 5.68353 5.43704
#
# Compressibility (1/GPa) = 0.04390594
#
# Stress axis : x y z
#
# Youngs Moduli (GPa) = 31.48448 89.11071 77.76113
#
# Poissons Ratio (x) = 0.51826 -0.02061
# Poissons Ratio (y) = 0.18311 0.03250
# Poissons Ratio (z) = -0.00835 0.03724
#
# Static dielectric constant tensor:
#      x y z
#    x 1.678580 0.000000 0.000000 
#    y 0.000000 1.686660 0.000000 
#    z 0.000000 0.000000 1.706870 
# 
# From -- ./inp_files/2459.got.cif
#   From: 2010.05.17/outbox.cif.g08.bks.cpg/sg52_2_cif.got.tgz:2459.got - 2010.06.03 12:15:38.
