data_PCOD9411567
_publ_section_title
;
Structure prediction by ZEFSAII (Michael W. Deem and Ramdas Pophale) SiO2 
 PCOD9411567
Probable space group: P N N A
;
_chemical_formula_sum "Si O2"
_cell_formula_units_Z 32
_cell_length_a 14.373800
_cell_length_b 5.259775
_cell_length_c 20.800546
_cell_angle_alpha 90.000000
_cell_angle_beta 90.000000
_cell_angle_gamma 90.000000
_cell_volume 1572.582720
_symmetry_space_group_name_H-M "P N N A"
_symmetry_group_IT_number 52
_symmetry_cell_setting 'orthorhombic'
loop_
_space_group_symop_operation_xyz
x,y,z
1/2-x,-y,z
x,1/2-y,1/2-z
1/2-x,1/2+y,1/2-z
-x,-y,-z
1/2+x,y,-z
-x,1/2+y,1/2+z
1/2+x,1/2-y,1/2+z
loop_
_atom_site_type_symbol
_atom_site_label
_atom_site_fract_x
_atom_site_fract_y
_atom_site_fract_z
Si Si1 0.148827 0.901690 0.690068
Si Si2 0.985087 0.664209 0.102933
Si Si3 0.308908 0.245350 0.078907
Si Si4 0.104602 0.827560 0.939812
O O1 0.108670 0.750000 0.750000
O O2 0.160558 0.727229 0.626136
O O3 0.250000 0.000000 0.708335
O O4 0.078084 0.118420 0.665890
O O5 0.973268 0.394652 0.066153
O O6 0.091974 0.728408 0.113982
O O7 0.939572 0.894786 0.063494
O O8 0.250000 0.500000 0.086921
O O9 0.250000 0.000000 0.098715
O O10 0.335995 0.213190 0.003443
#
# Coordination Sequence:
#
# PCOD9411567 Si02
#       4
#     8   8   8   8
#     4  10  25  37  64  90 126 162 210 253 319 379
#     4  10  23  40  59  92 127 165 207 255 315 371
#     4  12  23  37  64  93 128 168 214 257 314 377
#     4  10  22  38  60  88 131 164 200 261 307 384
#
# _framework density 20.348690999999999
#
# number of rings (size 3 to 8) (size 9 to 14) (size 15 to 20)
#    1.500    0.000    0.000    5.250    7.000    0.000 
#    0.000    0.000    0.000    0.000    6.500    0.000 
#    0.000    0.000    0.000    0.000    0.000    0.000 
#
# Total GULP energy -178626.613303 kJ/mol
# GULP energy per Si atom -5582.081666 kJ/mol
# Density = 2.030238 g / cm^3
# Si number density = 20.348691 Si / 1000 Ang^3
#
#
#
# Elastic Constant Matrix: (Units=GPa)
#
#
# Indices 1 2 3 4 5 6 
#
# 1 77.4700 49.5406 3.2674 0.0000 0.0000 0.0000
# 2 49.5406 148.9721 13.3662 0.0000 0.0000 0.0000
# 3 3.2674 13.3662 34.9389 0.0000 0.0000 0.0000
# 4 0.0000 0.0000 0.0000 17.0625 0.0000 0.0000
# 5 0.0000 0.0000 0.0000 0.0000 11.5128 0.0000
# 6 0.0000 0.0000 0.0000 0.0000 0.0000 39.5376
#
#
#
# Elastic Compliance Matrix: (Units=1/GPa)
#
#
# Indices 1 2 3 4 5 6 
#
# 1 0.016406 -0.005507 0.000573 0.000000 0.000000 0.000000
# 2 -0.005507 0.008800 -0.002851 0.000000 0.000000 0.000000
# 3 0.000573 -0.002851 0.029659 0.000000 0.000000 0.000000
# 4 0.000000 0.000000 0.000000 0.058608 0.000000 0.000000
# 5 0.000000 0.000000 0.000000 0.000000 0.086860 0.000000
# 6 0.000000 0.000000 0.000000 0.000000 0.000000 0.025292
#
#
# Mechanical properties :
#
#
# Convention : Reuss Voigt Hill
#
# Bulk Modulus (GPa) = 25.45022 43.74770 34.59896
# Shear Modulus (GPa) = 19.66227 26.63636 23.14932
#
# Velocity S-wave (km/s) = 3.11186 3.62193 3.37654
# Velocity P-wave (km/s) = 5.04438 6.24795 5.67814
#
# Compressibility (1/GPa) = 0.03929239
#
# Stress axis : x y z
#
# Youngs Moduli (GPa) = 60.95424 113.63783 33.71687
#
# Poissons Ratio (x) = 0.62581 -0.01931
# Poissons Ratio (y) = 0.33568 0.09614
# Poissons Ratio (z) = -0.03490 0.32404
#
# Static dielectric constant tensor:
#      x y z
#    x 1.723970 0.000000 0.000000 
#    y 0.000000 1.746510 0.000000 
#    z 0.000000 0.000000 1.718990 
# 
# From -- ./inp_files/42463.got.cif
#   From: 2010.05.17/outbox.cif.g08.bks.cpg/sg52_22_cif.got.tgz:42463.got - 2010.06.03 12:15:38.
