data_PCOD9411201
_publ_section_title
;
Structure prediction by ZEFSAII (Michael W. Deem and Ramdas Pophale) SiO2 
 PCOD9411201
Probable space group: P N N A
;
_chemical_formula_sum "Si O2"
_cell_formula_units_Z 48
_cell_length_a 16.391853
_cell_length_b 8.741764
_cell_length_c 14.924614
_cell_angle_alpha 90.000000
_cell_angle_beta 90.000000
_cell_angle_gamma 90.000000
_cell_volume 2138.603317
_symmetry_space_group_name_H-M "P N N A"
_symmetry_group_IT_number 52
_symmetry_cell_setting 'orthorhombic'
loop_
_space_group_symop_operation_xyz
x,y,z
1/2-x,-y,z
x,1/2-y,1/2-z
1/2-x,1/2+y,1/2-z
-x,-y,-z
1/2+x,y,-z
-x,1/2+y,1/2+z
1/2+x,1/2-y,1/2+z
loop_
_atom_site_type_symbol
_atom_site_label
_atom_site_fract_x
_atom_site_fract_y
_atom_site_fract_z
Si Si1 0.845940 0.250000 0.750000
Si Si2 0.613511 0.444389 0.507971
Si Si3 0.359234 0.218142 0.565736
Si Si4 0.297426 0.837750 0.838579
Si Si5 0.969988 0.744255 0.856497
Si Si6 0.153374 0.978358 0.395282
Si Si7 0.250000 0.500000 0.364975
O O1 0.886023 0.144644 0.674101
O O2 0.795272 0.375399 0.694472
O O3 0.622780 0.624547 0.488754
O O4 0.630971 0.366325 0.411792
O O5 0.542832 0.391194 0.576704
O O6 0.691549 0.407702 0.569513
O O7 0.275011 0.238419 0.617769
O O8 0.437091 0.193109 0.628768
O O9 0.351598 0.085868 0.494327
O O10 0.326015 0.750000 0.750000
O O11 0.250000 0.000000 0.820681
O O12 0.955442 0.750000 0.750000
O O13 0.902191 0.626447 0.890016
O O14 0.250000 0.000000 0.373905
#
# Coordination Sequence:
#
# PCOD9411201 Si02
#       7
#     4   8   8   8   8   8   4
#     4  12  22  34  64 102 134 168 212 290 332 410
#     4  11  22  43  67  96 135 176 225 280 340 400
#     4  11  23  46  65  93 139 179 216 279 341 406
#     4  10  21  40  69  98 128 175 231 283 331 394
#     4  12  27  43  66  99 136 181 220 272 346 414
#     4  12  25  41  68 100 133 172 228 282 339 397
#     4  12  20  38  64  98 136 164 224 276 348 394
#
# _framework density 22.444555000000001
#
# number of rings (size 3 to 8) (size 9 to 14) (size 15 to 20)
#    0.000    0.667    5.000    4.500    2.333    2.000 
#    0.000    3.333    0.000    0.000    0.000    0.000 
#    0.000    0.000    0.000    0.000    0.000    0.000 
#
# Total GULP energy -268051.326578 kJ/mol
# GULP energy per Si atom -5584.402637 kJ/mol
# Density = 2.239347 g / cm^3
# Si number density = 22.444555 Si / 1000 Ang^3
#
#
#
# Elastic Constant Matrix: (Units=GPa)
#
#
# Indices 1 2 3 4 5 6 
#
# 1 50.9441 -2.0087 4.0660 0.0000 0.0000 0.0000
# 2 -2.0087 73.4714 41.8746 0.0000 0.0000 0.0000
# 3 4.0660 41.8746 138.6884 0.0000 0.0000 0.0000
# 4 0.0000 0.0000 0.0000 49.8348 0.0000 0.0000
# 5 0.0000 0.0000 0.0000 0.0000 59.3888 0.0000
# 6 0.0000 0.0000 0.0000 0.0000 0.0000 7.6425
#
#
#
# Elastic Compliance Matrix: (Units=1/GPa)
#
#
# Indices 1 2 3 4 5 6 
#
# 1 0.019742 0.001050 -0.000896 0.000000 0.000000 0.000000
# 2 0.001050 0.016496 -0.005011 0.000000 0.000000 0.000000
# 3 -0.000896 -0.005011 0.008750 0.000000 0.000000 0.000000
# 4 0.000000 0.000000 0.000000 0.020066 0.000000 0.000000
# 5 0.000000 0.000000 0.000000 0.000000 0.016838 0.000000
# 6 0.000000 0.000000 0.000000 0.000000 0.000000 0.130846
#
#
# Mechanical properties :
#
#
# Convention : Reuss Voigt Hill
#
# Bulk Modulus (GPa) = 28.34960 38.99641 33.67300
# Shear Modulus (GPa) = 21.34832 37.98469 29.66650
#
# Velocity S-wave (km/s) = 3.08743 4.11832 3.63956
# Velocity P-wave (km/s) = 5.03667 6.32663 5.71814
#
# Compressibility (1/GPa) = 0.03527387
#
# Stress axis : x y z
#
# Youngs Moduli (GPa) = 50.65266 60.62196 114.28861
#
# Poissons Ratio (x) = -0.06368 0.10240
# Poissons Ratio (y) = -0.05320 0.57274
# Poissons Ratio (z) = 0.04538 0.30380
#
# Static dielectric constant tensor:
#      x y z
#    x 1.991670 0.000000 0.000000 
#    y 0.000000 -0.414160 0.000000 
#    z 0.000000 0.000000 1.837740 
# 
# From -- ./inp_files/28126.got.cif
#   From: 2010.05.17/outbox.cif.g08.bks.cpg/sg52_15_cif.got.tgz:28126.got - 2010.06.03 12:15:38.
