data_PCOD9411886
_publ_section_title
;
Structure prediction by ZEFSAII (Michael W. Deem and Ramdas Pophale) SiO2 
 PCOD9411886
Probable space group: P N N A
;
_chemical_formula_sum "Si O2"
_cell_formula_units_Z 56
_cell_length_a 14.747392
_cell_length_b 31.337087
_cell_length_c 5.434286
_cell_angle_alpha 90.000000
_cell_angle_beta 90.000000
_cell_angle_gamma 90.000000
_cell_volume 2511.402596
_symmetry_space_group_name_H-M "P N N A"
_symmetry_group_IT_number 52
_symmetry_cell_setting 'orthorhombic'
loop_
_space_group_symop_operation_xyz
x,y,z
1/2-x,-y,z
x,1/2-y,1/2-z
1/2-x,1/2+y,1/2-z
-x,-y,-z
1/2+x,y,-z
-x,1/2+y,1/2+z
1/2+x,1/2-y,1/2+z
loop_
_atom_site_type_symbol
_atom_site_label
_atom_site_fract_x
_atom_site_fract_y
_atom_site_fract_z
Si Si1 0.672330 0.440413 0.774190
Si Si2 0.979089 0.299064 0.327186
Si Si3 0.977569 0.129294 0.789685
Si Si4 0.776524 0.057988 0.226027
Si Si5 0.363830 0.651130 0.079431
Si Si6 0.480371 0.455825 0.633324
Si Si7 0.323769 0.353290 0.919627
O O1 0.720109 0.454098 0.518717
O O2 0.668661 0.389068 0.761841
O O3 0.567475 0.452960 0.808318
O O4 0.726186 0.452554 0.019575
O O5 0.974444 0.250000 0.250000
O O6 0.973379 0.323002 0.591252
O O7 0.074063 0.316464 0.224307
O O8 0.895016 0.321470 0.194776
O O9 0.068739 0.131255 0.626343
O O10 0.885182 0.124339 0.631970
O O11 0.983331 0.088623 0.973468
O O12 0.791329 0.109214 0.238467
O O13 0.878778 0.040909 0.231523
O O14 0.268901 0.670011 0.991049
O O15 0.500000 0.500000 0.500000
#
# Coordination Sequence:
#
# PCOD9411886 Si02
#       7
#     8   8   8   8   8   8   8
#     4  11  24  45  73 104 144 192 241 295 353 425
#     4  11  24  42  66 101 136 177 230 299 343 421
#     4  11  22  46  68  91 149 176 235 290 346 422
#     4  11  24  45  73 104 144 192 241 295 353 425
#     4  10  22  41  69  98 133 190 227 281 358 418
#     4  12  24  45  74 108 140 192 236 293 363 424
#     4  10  22  41  69  98 133 190 227 281 358 418
#
# _framework density 22.298296000000001
#
# number of rings (size 3 to 8) (size 9 to 14) (size 15 to 20)
#    0.000    1.143    2.857    4.286    0.000    4.000 
#    5.143   17.143    0.000    0.000    0.000    0.000 
#    0.000    0.000    0.000    0.000    0.000    0.000 
#
# Total GULP energy -312633.558116 kJ/mol
# GULP energy per Si atom -5582.742109 kJ/mol
# Density = 2.224754 g / cm^3
# Si number density = 22.298296 Si / 1000 Ang^3
#
#
#
# Elastic Constant Matrix: (Units=GPa)
#
#
# Indices 1 2 3 4 5 6 
#
# 1 167.1533 -17.9018 60.0790 0.0000 0.0000 0.0000
# 2 -17.9018 93.8787 18.5794 0.0000 0.0000 0.0000
# 3 60.0790 18.5794 104.2199 0.0000 0.0000 0.0000
# 4 0.0000 0.0000 0.0000 -8.5554 0.0000 0.0000
# 5 0.0000 0.0000 0.0000 0.0000 28.8798 0.0000
# 6 0.0000 0.0000 0.0000 0.0000 0.0000 16.8283
#
#
#
# Elastic Compliance Matrix: (Units=1/GPa)
#
#
# Indices 1 2 3 4 5 6 
#
# 1 0.008098 0.002558 -0.005125 0.000000 0.000000 0.000000
# 2 0.002558 0.011850 -0.003587 0.000000 0.000000 0.000000
# 3 -0.005125 -0.003587 0.013189 0.000000 0.000000 0.000000
# 4 0.000000 0.000000 0.000000 -0.116886 0.000000 0.000000
# 5 0.000000 0.000000 0.000000 0.000000 0.034626 0.000000
# 6 0.000000 0.000000 0.000000 0.000000 0.000000 0.059424
#
#
# Mechanical properties :
#
#
# Convention : Reuss Voigt Hill
#
# Bulk Modulus (GPa) = 48.00725 54.08501 51.04613
# Shear Modulus (GPa) = 169.19598 27.73024 98.46311
#
# Velocity S-wave (km/s) = 8.72027 3.53030 6.65230
# Velocity P-wave (km/s) = 11.08906 6.39729 9.05242
#
# Compressibility (1/GPa) = 0.02083019
#
# Stress axis : x y z
#
# Youngs Moduli (GPa) = 123.48069 84.38898 75.82225
#
# Poissons Ratio (x) = -0.21591 0.38856
# Poissons Ratio (y) = -0.31592 0.27200
# Poissons Ratio (z) = 0.63278 0.30273
#
# Static dielectric constant tensor:
#      x y z
#    x 2.053610 0.000000 0.000000 
#    y 0.000000 1.759820 0.000000 
#    z 0.000000 0.000000 1.984910 
# 
# From -- ./inp_files/2637.got.cif
#   From: 2010.05.17/outbox.cif.g08.bks.cpg/sg52_2_cif.got.tgz:2637.got - 2010.06.03 12:15:38.
