data_PCOD9411090
_publ_section_title
;
Structure prediction by ZEFSAII (Michael W. Deem and Ramdas Pophale) SiO2 
 PCOD9411090
Probable space group: P N N A
;
_chemical_formula_sum "Si O2"
_cell_formula_units_Z 60
_cell_length_a 21.058864
_cell_length_b 5.377968
_cell_length_c 24.452876
_cell_angle_alpha 90.000000
_cell_angle_beta 90.000000
_cell_angle_gamma 90.000000
_cell_volume 2769.383493
_symmetry_space_group_name_H-M "P N N A"
_symmetry_group_IT_number 52
_symmetry_cell_setting 'orthorhombic'
loop_
_space_group_symop_operation_xyz
x,y,z
1/2-x,-y,z
x,1/2-y,1/2-z
1/2-x,1/2+y,1/2-z
-x,-y,-z
1/2+x,y,-z
-x,1/2+y,1/2+z
1/2+x,1/2-y,1/2+z
loop_
_atom_site_type_symbol
_atom_site_label
_atom_site_fract_x
_atom_site_fract_y
_atom_site_fract_z
Si Si1 0.567555 0.770467 0.813777
Si Si2 0.750000 0.500000 0.619568
Si Si3 0.583639 0.347656 0.000920
Si Si4 0.682517 0.848986 0.430150
Si Si5 0.148241 0.228524 0.313174
Si Si6 0.021967 0.775386 0.428990
Si Si7 0.707281 0.750152 0.190360
Si Si8 0.843699 0.443505 0.532842
O O1 0.546300 0.750000 0.750000
O O2 0.617447 0.542152 0.822161
O O3 0.518827 0.736543 0.863876
O O4 0.598590 0.042945 0.822089
O O5 0.790218 0.695547 0.653461
O O6 0.797184 0.357479 0.579309
O O7 0.620806 0.510350 0.045977
O O8 0.539885 0.177051 0.039906
O O9 0.535481 0.451313 0.954711
O O10 0.642790 0.235468 0.967943
O O11 0.671714 0.767182 0.367547
O O12 0.683433 0.626937 0.474015
O O13 0.750000 0.000000 0.432413
O O14 0.166021 0.250000 0.250000
O O15 0.086671 0.652670 0.450959
O O16 0.750000 0.500000 0.191728
O O17 0.673324 0.750000 0.250000
O O18 0.750000 0.000000 0.187492
#
# Coordination Sequence:
#
# PCOD9411090 Si02
#       8
#     8   4   8   8   8   8   8   8
#     4  10  21  42  66  90 124 169 216 266 319 373
#     4  12  22  36  58  94 130 170 212 264 322 384
#     4  10  22  39  62  90 119 165 207 264 318 385
#     4  10  22  36  59  89 125 158 194 252 317 374
#     4  10  23  40  60  90 128 171 213 259 315 380
#     4  10  21  40  62  85 120 161 219 259 318 378
#     4   9  19  35  59  86 119 162 199 233 293 375
#     4  11  22  37  58  90 120 163 205 263 313 380
#
# _framework density 21.665471
#
# number of rings (size 3 to 8) (size 9 to 14) (size 15 to 20)
#    0.000    1.867    1.333    2.000    4.667    3.200 
#    4.800    0.000    2.933    0.000    0.000    0.000 
#    0.000    0.000    0.000    0.000    0.000    0.000 
#
# Total GULP energy -334107.362654 kJ/mol
# GULP energy per Si atom -5568.456044 kJ/mol
# Density = 2.161616 g / cm^3
# Si number density = 21.665471 Si / 1000 Ang^3
#
#
#
# Elastic Constant Matrix: (Units=GPa)
#
#
# Indices 1 2 3 4 5 6 
#
# 1 51.2339 2.3907 21.2855 0.0000 0.0000 0.0000
# 2 2.3907 58.4300 16.4490 0.0000 0.0000 0.0000
# 3 21.2855 16.4490 136.7276 0.0000 0.0000 0.0000
# 4 0.0000 0.0000 0.0000 30.6546 0.0000 0.0000
# 5 0.0000 0.0000 0.0000 0.0000 30.6678 0.0000
# 6 0.0000 0.0000 0.0000 0.0000 0.0000 24.0077
#
#
#
# Elastic Compliance Matrix: (Units=1/GPa)
#
#
# Indices 1 2 3 4 5 6 
#
# 1 0.020868 0.000063 -0.003256 0.000000 0.000000 0.000000
# 2 0.000063 0.017715 -0.002141 0.000000 0.000000 0.000000
# 3 -0.003256 -0.002141 0.008078 0.000000 0.000000 0.000000
# 4 0.000000 0.000000 0.000000 0.032622 0.000000 0.000000
# 5 0.000000 0.000000 0.000000 0.000000 0.032608 0.000000
# 6 0.000000 0.000000 0.000000 0.000000 0.000000 0.041653
#
#
# Mechanical properties :
#
#
# Convention : Reuss Voigt Hill
#
# Bulk Modulus (GPa) = 27.78360 36.29354 32.03857
# Shear Modulus (GPa) = 28.37527 30.81709 29.59618
#
# Velocity S-wave (km/s) = 3.62290 3.77557 3.70003
# Velocity P-wave (km/s) = 5.50929 5.98287 5.75096
#
# Compressibility (1/GPa) = 0.03599246
#
# Stress axis : x y z
#
# Youngs Moduli (GPa) = 47.91967 56.45048 123.78819
#
# Poissons Ratio (x) = -0.00355 0.40309
# Poissons Ratio (y) = -0.00301 0.26502
# Poissons Ratio (z) = 0.15604 0.12086
#
# Static dielectric constant tensor:
#      x y z
#    x 1.810140 0.000000 0.000000 
#    y 0.000000 2.008660 0.000000 
#    z 0.000000 0.000000 1.805370 
# 
# From -- ./inp_files/41037.got.cif
#   From: 2010.05.17/outbox.cif.g08.bks.cpg/sg52_21_cif.got.tgz:41037.got - 2010.06.03 12:15:38.
