data_PCOD9411928
_publ_section_title
;
Structure prediction by ZEFSAII (Michael W. Deem and Ramdas Pophale) SiO2 
 PCOD9411928
Probable space group: P N N A
;
_chemical_formula_sum "Si O2"
_cell_formula_units_Z 36
_cell_length_a 8.895720
_cell_length_b 7.442401
_cell_length_c 21.646882
_cell_angle_alpha 90.000000
_cell_angle_beta 90.000000
_cell_angle_gamma 90.000000
_cell_volume 1433.142980
_symmetry_space_group_name_H-M "P N N A"
_symmetry_group_IT_number 52
_symmetry_cell_setting 'orthorhombic'
loop_
_space_group_symop_operation_xyz
x,y,z
1/2-x,-y,z
x,1/2-y,1/2-z
1/2-x,1/2+y,1/2-z
-x,-y,-z
1/2+x,y,-z
-x,1/2+y,1/2+z
1/2+x,1/2-y,1/2+z
loop_
_atom_site_type_symbol
_atom_site_label
_atom_site_fract_x
_atom_site_fract_y
_atom_site_fract_z
Si Si1 0.559416 0.200229 0.460081
Si Si2 0.343418 0.181293 0.132178
Si Si3 0.416917 0.460594 0.690940
Si Si4 0.110903 0.721341 0.926965
Si Si5 0.656916 0.250000 0.750000
O O1 0.393244 0.217200 0.428534
O O2 0.521237 0.284072 0.527281
O O3 0.720122 0.284219 0.441907
O O4 0.593961 0.991162 0.442421
O O5 0.255381 0.270815 0.188619
O O6 0.250000 0.000000 0.120358
O O7 0.510402 0.128321 0.156105
O O8 0.250000 0.500000 0.713661
O O9 0.416136 0.295429 0.641984
O O10 0.542661 0.414771 0.741141
#
# Coordination Sequence:
#
# PCOD9411928 Si02
#       5
#     8   8   8   8   4
#     4  10  22  42  64  99 145 184 229 280 346 424
#     4  10  23  43  68  98 133 180 234 286 346 416
#     4  11  23  45  67 101 133 173 241 292 345 415
#     4  10  23  40  66 100 138 187 229 282 349 415
#     4  10  26  44  66  96 132 180 220 286 358 412
#
# _framework density 25.119613000000001
#
# number of rings (size 3 to 8) (size 9 to 14) (size 15 to 20)
#    0.000    1.778    2.222    0.000    6.222    8.000 
#    4.000    0.000    0.000    0.000    0.000    0.000 
#    0.000    0.000    0.000    0.000    0.000    0.000 
#
# Total GULP energy -200664.350538 kJ/mol
# GULP energy per Si atom -5574.009737 kJ/mol
# Density = 2.506244 g / cm^3
# Si number density = 25.119613 Si / 1000 Ang^3
#
#
#
# Elastic Constant Matrix: (Units=GPa)
#
#
# Indices 1 2 3 4 5 6 
#
# 1 190.3303 29.9858 55.0725 0.0000 0.0000 0.0000
# 2 29.9858 48.7875 28.6045 0.0000 0.0000 0.0000
# 3 55.0725 28.6045 83.8628 0.0000 0.0000 0.0000
# 4 0.0000 0.0000 0.0000 6.1357 0.0000 0.0000
# 5 0.0000 0.0000 0.0000 0.0000 43.0067 0.0000
# 6 0.0000 0.0000 0.0000 0.0000 0.0000 26.1890
#
#
#
# Elastic Compliance Matrix: (Units=1/GPa)
#
#
# Indices 1 2 3 4 5 6 
#
# 1 0.006625 -0.001901 -0.003702 0.000000 0.000000 0.000000
# 2 -0.001901 0.026166 -0.007677 0.000000 0.000000 0.000000
# 3 -0.003702 -0.007677 0.016974 0.000000 0.000000 0.000000
# 4 0.000000 0.000000 0.000000 0.162981 0.000000 0.000000
# 5 0.000000 0.000000 0.000000 0.000000 0.023252 0.000000
# 6 0.000000 0.000000 0.000000 0.000000 0.000000 0.038184
#
#
# Mechanical properties :
#
#
# Convention : Reuss Voigt Hill
#
# Bulk Modulus (GPa) = 43.09336 61.14511 52.11924
# Shear Modulus (GPa) = 16.20870 29.02080 22.61475
#
# Velocity S-wave (km/s) = 2.54295 3.40266 3.00373
# Velocity P-wave (km/s) = 5.08081 6.31125 5.72916
#
# Compressibility (1/GPa) = 0.02320543
#
# Stress axis : x y z
#
# Youngs Moduli (GPa) = 150.94974 38.21699 58.91475
#
# Poissons Ratio (x) = 0.07266 0.21810
# Poissons Ratio (y) = 0.28698 0.45226
# Poissons Ratio (z) = 0.55881 0.29337
#
# Static dielectric constant tensor:
#      x y z
#    x 2.191380 0.000000 0.000000 
#    y 0.000000 2.203690 0.000000 
#    z 0.000000 0.000000 2.303420 
# 
# From -- ./inp_files/35576.got.cif
#   From: 2010.05.17/outbox.cif.g08.bks.cpg/sg52_18_cif.got.tgz:35576.got - 2010.06.03 12:15:38.
