data_PCOD9411130
_publ_section_title
;
Structure prediction by ZEFSAII (Michael W. Deem and Ramdas Pophale) SiO2 
 PCOD9411130
Probable space group: P N N A
;
_chemical_formula_sum "Si O2"
_cell_formula_units_Z 32
_cell_length_a 13.734861
_cell_length_b 4.965962
_cell_length_c 18.906783
_cell_angle_alpha 90.000000
_cell_angle_beta 90.000000
_cell_angle_gamma 90.000000
_cell_volume 1289.571125
_symmetry_space_group_name_H-M "P N N A"
_symmetry_group_IT_number 52
_symmetry_cell_setting 'orthorhombic'
loop_
_space_group_symop_operation_xyz
x,y,z
1/2-x,-y,z
x,1/2-y,1/2-z
1/2-x,1/2+y,1/2-z
-x,-y,-z
1/2+x,y,-z
-x,1/2+y,1/2+z
1/2+x,1/2-y,1/2+z
loop_
_atom_site_type_symbol
_atom_site_label
_atom_site_fract_x
_atom_site_fract_y
_atom_site_fract_z
Si Si1 0.133806 0.976251 0.459265
Si Si2 0.863681 0.970671 0.864531
Si Si3 0.366650 0.508912 0.885410
Si Si4 0.060924 0.972641 0.808391
O O1 0.114496 0.177159 0.395231
O O2 0.095461 0.072599 0.535361
O O3 0.250000 0.000000 0.469469
O O4 0.116354 0.679468 0.428671
O O5 0.750000 0.000000 0.843955
O O6 0.944822 0.010831 0.805125
O O7 0.250000 0.500000 0.881645
O O8 0.404649 0.205812 0.874957
O O9 0.399083 0.730408 0.827084
O O10 0.092915 0.750000 0.750000
#
# Coordination Sequence:
#
# PCOD9411130 Si02
#       4
#     8   8   8   8
#     4   9  19  37  64  96 125 160 208 261 330 393
#     4  10  21  40  64  94 131 164 205 268 326 379
#     4  11  24  43  66  93 128 165 209 271 325 374
#     4  12  26  42  62  93 127 171 224 253 302 389
#
# _framework density 24.814451999999999
#
# number of rings (size 3 to 8) (size 9 to 14) (size 15 to 20)
#    0.000    1.500    0.000    4.500    0.000   12.000 
#    0.000    6.250    0.000    0.000    0.000    0.000 
#    0.000    0.000    0.000    0.000    0.000    0.000 
#
# Total GULP energy -178555.535887 kJ/mol
# GULP energy per Si atom -5579.860496 kJ/mol
# Density = 2.475797 g / cm^3
# Si number density = 24.814452 Si / 1000 Ang^3
#
#
#
# Elastic Constant Matrix: (Units=GPa)
#
#
# Indices 1 2 3 4 5 6 
#
# 1 101.6145 10.3599 -17.3655 0.0000 0.0000 0.0000
# 2 10.3599 137.4233 11.3271 0.0000 0.0000 0.0000
# 3 -17.3655 11.3271 33.0955 0.0000 0.0000 0.0000
# 4 0.0000 0.0000 0.0000 22.9217 0.0000 0.0000
# 5 0.0000 0.0000 0.0000 0.0000 -1.7186 0.0000
# 6 0.0000 0.0000 0.0000 0.0000 0.0000 28.7795
#
#
#
# Elastic Compliance Matrix: (Units=1/GPa)
#
#
# Indices 1 2 3 4 5 6 
#
# 1 0.011048 -0.001349 0.006259 0.000000 0.000000 0.000000
# 2 -0.001349 0.007653 -0.003327 0.000000 0.000000 0.000000
# 3 0.006259 -0.003327 0.034638 0.000000 0.000000 0.000000
# 4 0.000000 0.000000 0.000000 0.043627 0.000000 0.000000
# 5 0.000000 0.000000 0.000000 0.000000 -0.581876 0.000000
# 6 0.000000 0.000000 0.000000 0.000000 0.000000 0.034747
#
#
# Mechanical properties :
#
#
# Convention : Reuss Voigt Hill
#
# Bulk Modulus (GPa) = 17.69746 31.19737 24.44741
# Shear Modulus (GPa) = -11.50763 27.85064 8.17150
#
# Velocity S-wave (km/s) = -2.15582 3.35379 1.81664
# Velocity P-wave (km/s) = 0.97503 5.25326 3.77806
#
# Compressibility (1/GPa) = 0.05650529
#
# Stress axis : x y z
#
# Youngs Moduli (GPa) = 90.51239 130.67312 28.86980
#
# Poissons Ratio (x) = 0.17625 -0.18069
# Poissons Ratio (y) = 0.12208 0.09605
# Poissons Ratio (z) = -0.56649 0.43473
#
# Static dielectric constant tensor:
#      x y z
#    x 2.181510 0.000000 0.000000 
#    y 0.000000 4.764830 0.000000 
#    z 0.000000 0.000000 2.228160 
# 
# From -- ./inp_files/37002.got.cif
#   From: 2010.05.17/outbox.cif.g08.bks.cpg/sg52_19_cif.got.tgz:37002.got - 2010.06.03 12:15:38.
