data_PCOD9411455
_publ_section_title
;
Structure prediction by ZEFSAII (Michael W. Deem and Ramdas Pophale) SiO2 
 PCOD9411455
Probable space group: P N N A
;
_chemical_formula_sum "Si O2"
_cell_formula_units_Z 44
_cell_length_a 15.075494
_cell_length_b 14.365568
_cell_length_c 7.573226
_cell_angle_alpha 90.000000
_cell_angle_beta 90.000000
_cell_angle_gamma 90.000000
_cell_volume 1640.118667
_symmetry_space_group_name_H-M "P N N A"
_symmetry_group_IT_number 52
_symmetry_cell_setting 'orthorhombic'
loop_
_space_group_symop_operation_xyz
x,y,z
1/2-x,-y,z
x,1/2-y,1/2-z
1/2-x,1/2+y,1/2-z
-x,-y,-z
1/2+x,y,-z
-x,1/2+y,1/2+z
1/2+x,1/2-y,1/2+z
loop_
_atom_site_type_symbol
_atom_site_label
_atom_site_fract_x
_atom_site_fract_y
_atom_site_fract_z
Si Si1 0.036890 0.250000 0.250000
Si Si2 0.903094 0.398078 0.267977
Si Si3 0.469141 0.575418 0.858094
Si Si4 0.674080 0.392257 0.615351
Si Si5 0.215402 0.140847 0.716329
Si Si6 0.634898 0.892712 0.831225
O O1 0.099954 0.313635 0.368853
O O2 0.970699 0.327783 0.173386
O O3 0.943724 0.499729 0.293150
O O4 0.810419 0.401042 0.160997
O O5 0.885400 0.363135 0.466954
O O6 0.374581 0.624278 0.894411
O O7 0.551212 0.634427 0.787082
O O8 0.500000 0.500000 0.000000
O O9 0.700277 0.401024 0.411088
O O10 0.643667 0.493954 0.678958
O O11 0.765068 0.361888 0.713264
O O12 0.228090 0.250000 0.750000
#
# Coordination Sequence:
#
# PCOD9411455 Si02
#       6
#     4   8   8   8   8   8
#     4  12  22  38  68 104 124 160 222 284 334 378
#     4  11  22  44  70  94 128 178 226 275 331 412
#     4  12  25  43  66  99 138 180 218 282 344 402
#     4  10  22  41  72  95 130 176 228 279 326 407
#     4  11  24  43  64 100 134 174 227 283 339 400
#     4  10  21  46  70  93 126 184 235 260 331 415
#
# _framework density 26.827327
#
# number of rings (size 3 to 8) (size 9 to 14) (size 15 to 20)
#    0.000    1.091    4.545    2.182    2.545    0.000 
#   11.455    0.000    0.000    0.000    0.000    0.000 
#    0.000    0.000    0.000    0.000    0.000    0.000 
#
# Total GULP energy -246144.358623 kJ/mol
# GULP energy per Si atom -5594.189969 kJ/mol
# Density = 2.676627 g / cm^3
# Si number density = 26.827327 Si / 1000 Ang^3
#
#
#
# Elastic Constant Matrix: (Units=GPa)
#
#
# Indices 1 2 3 4 5 6 
#
# 1 238.9970 22.3042 34.1081 0.0000 0.0000 0.0000
# 2 22.3042 97.7311 -8.6269 0.0000 0.0000 0.0000
# 3 34.1081 -8.6269 51.1524 0.0000 0.0000 0.0000
# 4 0.0000 0.0000 0.0000 23.9773 0.0000 0.0000
# 5 0.0000 0.0000 0.0000 0.0000 8.9884 0.0000
# 6 0.0000 0.0000 0.0000 0.0000 0.0000 48.2299
#
#
#
# Elastic Compliance Matrix: (Units=1/GPa)
#
#
# Indices 1 2 3 4 5 6 
#
# 1 0.004806 -0.001401 -0.003441 0.000000 0.000000 0.000000
# 2 -0.001401 0.010795 0.002754 0.000000 0.000000 0.000000
# 3 -0.003441 0.002754 0.022308 0.000000 0.000000 0.000000
# 4 0.000000 0.000000 0.000000 0.041706 0.000000 0.000000
# 5 0.000000 0.000000 0.000000 0.000000 0.111255 0.000000
# 6 0.000000 0.000000 0.000000 0.000000 0.000000 0.020734
#
#
# Mechanical properties :
#
#
# Convention : Reuss Voigt Hill
#
# Bulk Modulus (GPa) = 29.64246 53.71680 41.67963
# Shear Modulus (GPa) = 22.02423 38.91214 30.46818
#
# Velocity S-wave (km/s) = 2.86835 3.81263 3.37369
# Velocity P-wave (km/s) = 4.69503 6.28078 5.54488
#
# Compressibility (1/GPa) = 0.03373539
#
# Stress axis : x y z
#
# Youngs Moduli (GPa) = 208.07782 92.63613 44.82651
#
# Poissons Ratio (x) = 0.12974 0.15424
# Poissons Ratio (y) = 0.29142 -0.12347
# Poissons Ratio (z) = 0.71594 -0.25516
#
# Static dielectric constant tensor:
#      x y z
#    x 2.225040 0.000000 0.000000 
#    y 0.000000 2.285870 0.000000 
#    z 0.000000 0.000000 2.150390 
# 
# From -- ./inp_files/10366.got.cif
#   From: 2010.05.17/outbox.cif.g08.bks.cpg/sg52_6_cif.got.tgz:10366.got - 2010.06.03 12:15:38.
