data_PCOD9411688
_publ_section_title
;
Structure prediction by ZEFSAII (Michael W. Deem and Ramdas Pophale) SiO2 
 PCOD9411688
Probable space group: P N N A
;
_chemical_formula_sum "Si O2"
_cell_formula_units_Z 40
_cell_length_a 12.143524
_cell_length_b 8.443476
_cell_length_c 14.981133
_cell_angle_alpha 90.000000
_cell_angle_beta 90.000000
_cell_angle_gamma 90.000000
_cell_volume 1536.068801
_symmetry_space_group_name_H-M "P N N A"
_symmetry_group_IT_number 52
_symmetry_cell_setting 'orthorhombic'
loop_
_space_group_symop_operation_xyz
x,y,z
1/2-x,-y,z
x,1/2-y,1/2-z
1/2-x,1/2+y,1/2-z
-x,-y,-z
1/2+x,y,-z
-x,1/2+y,1/2+z
1/2+x,1/2-y,1/2+z
loop_
_atom_site_type_symbol
_atom_site_label
_atom_site_fract_x
_atom_site_fract_y
_atom_site_fract_z
Si Si1 0.791958 0.250000 0.250000
Si Si2 0.483640 0.043368 0.699155
Si Si3 0.831770 0.862637 0.425501
Si Si4 0.367698 0.250000 0.250000
Si Si5 0.850225 0.385835 0.564992
Si Si6 0.525043 0.192520 0.931817
O O1 0.874561 0.098289 0.246294
O O2 0.721118 0.226530 0.339544
O O3 0.532864 0.203109 0.657045
O O4 0.436139 0.954376 0.613020
O O5 0.563402 0.911442 0.737463
O O6 0.881301 0.754796 0.501560
O O7 0.750000 0.000000 0.457711
O O8 0.315659 0.283727 0.347947
O O9 0.750000 0.500000 0.540709
O O10 0.948965 0.509834 0.588038
O O11 0.906485 0.294582 0.482016
#
# Coordination Sequence:
#
# PCOD9411688 Si02
#       6
#     4   8   8   4   8   8
#     4  10  23  42  71 114 150 190 253 302 385 452
#     4  11  23  44  72 104 148 198 235 311 370 458
#     4  10  22  39  72 111 145 195 240 310 373 460
#     4  12  25  46  75 106 148 194 259 300 379 446
#     4  11  28  47  73 105 142 197 252 310 360 456
#     4  11  25  48  73 107 154 192 248 311 382 444
#
# _framework density 26.040497999999999
#
# number of rings (size 3 to 8) (size 9 to 14) (size 15 to 20)
#    0.000    1.200    2.000    2.400    5.600    1.600 
#   10.800    0.000    0.000    0.000    0.000    0.000 
#    0.000    0.000    0.000    0.000    0.000    0.000 
#
# Total GULP energy -223682.596490 kJ/mol
# GULP energy per Si atom -5592.064912 kJ/mol
# Density = 2.598123 g / cm^3
# Si number density = 26.040498 Si / 1000 Ang^3
#
#
#
# Elastic Constant Matrix: (Units=GPa)
#
#
# Indices 1 2 3 4 5 6 
#
# 1 74.4423 8.6735 62.6352 0.0000 0.0000 0.0000
# 2 8.6735 83.1107 70.3999 0.0000 0.0000 0.0000
# 3 62.6352 70.3999 138.3011 0.0000 0.0000 0.0000
# 4 0.0000 0.0000 0.0000 67.1438 0.0000 0.0000
# 5 0.0000 0.0000 0.0000 0.0000 29.5854 0.0000
# 6 0.0000 0.0000 0.0000 0.0000 0.0000 42.1664
#
#
#
# Elastic Compliance Matrix: (Units=1/GPa)
#
#
# Indices 1 2 3 4 5 6 
#
# 1 0.028835 0.014157 -0.020265 0.000000 0.000000 0.000000
# 2 0.014157 0.028103 -0.020717 0.000000 0.000000 0.000000
# 3 -0.020265 -0.020717 0.026954 0.000000 0.000000 0.000000
# 4 0.000000 0.000000 0.000000 0.014893 0.000000 0.000000
# 5 0.000000 0.000000 0.000000 0.000000 0.033800 0.000000
# 6 0.000000 0.000000 0.000000 0.000000 0.000000 0.023716
#
#
# Mechanical properties :
#
#
# Convention : Reuss Voigt Hill
#
# Bulk Modulus (GPa) = 33.06740 64.36347 48.71543
# Shear Modulus (GPa) = 22.72388 38.05549 30.38968
#
# Velocity S-wave (km/s) = 2.95725 3.82697 3.41987
# Velocity P-wave (km/s) = 4.93826 6.65567 5.86022
#
# Compressibility (1/GPa) = 0.03024127
#
# Stress axis : x y z
#
# Youngs Moduli (GPa) = 34.68028 35.58311 37.10011
#
# Poissons Ratio (x) = -0.50374 0.75184
# Poissons Ratio (y) = -0.49096 0.76860
# Poissons Ratio (z) = 0.70280 0.73717
#
# Static dielectric constant tensor:
#      x y z
#    x 2.088540 0.000000 0.000000 
#    y 0.000000 2.174410 0.000000 
#    z 0.000000 0.000000 2.204110 
# 
# From -- ./inp_files/26980.got.cif
#   From: 2010.05.17/outbox.cif.g08.bks.cpg/sg52_14_cif.got.tgz:26980.got - 2010.06.03 12:15:38.
