data_PCOD9411522
_publ_section_title
;
Structure prediction by ZEFSAII (Michael W. Deem and Ramdas Pophale) SiO2 
 PCOD9411522
Probable space group: P N N A
;
_chemical_formula_sum "Si O2"
_cell_formula_units_Z 48
_cell_length_a 9.102000
_cell_length_b 27.306251
_cell_length_c 9.515481
_cell_angle_alpha 90.000000
_cell_angle_beta 90.000000
_cell_angle_gamma 90.000000
_cell_volume 2364.991889
_symmetry_space_group_name_H-M "P N N A"
_symmetry_group_IT_number 52
_symmetry_cell_setting 'orthorhombic'
loop_
_space_group_symop_operation_xyz
x,y,z
1/2-x,-y,z
x,1/2-y,1/2-z
1/2-x,1/2+y,1/2-z
-x,-y,-z
1/2+x,y,-z
-x,1/2+y,1/2+z
1/2+x,1/2-y,1/2+z
loop_
_atom_site_type_symbol
_atom_site_label
_atom_site_fract_x
_atom_site_fract_y
_atom_site_fract_z
Si Si1 0.546351 0.121552 0.848298
Si Si2 0.207967 0.115791 0.739249
Si Si3 0.384141 0.274717 0.019132
Si Si4 0.628246 0.296253 0.430456
Si Si5 0.643970 0.154203 0.569903
Si Si6 0.382772 0.537070 0.563580
O O1 0.372906 0.113776 0.809465
O O2 0.624280 0.118514 0.698897
O O3 0.586450 0.173127 0.926621
O O4 0.613495 0.080882 0.950507
O O5 0.141247 0.163836 0.810788
O O6 0.190218 0.126871 0.573842
O O7 0.117916 0.068060 0.791033
O O8 0.273711 0.237720 0.937239
O O9 0.494148 0.313113 0.941305
O O10 0.494546 0.239519 0.096762
O O11 0.273062 0.307925 0.105440
O O12 0.250000 0.500000 0.576515
O O13 0.500000 0.500000 0.500000
#
# Coordination Sequence:
#
# PCOD9411522 Si02
#       6
#     8   8   8   8   8   8
#     4  11  23  43  64  93 132 160 208 263 320 366
#     4  11  23  43  64  93 133 160 207 266 320 362
#     4  10  22  37  58  94 127 176 228 250 291 368
#     4  10  22  38  64  89 124 179 223 264 293 342
#     4  11  24  39  62  90 136 176 200 256 320 360
#     4  11  24  46  76  96 115 155 206 262 319 389
#
# _framework density 20.296050999999999
#
# number of rings (size 3 to 8) (size 9 to 14) (size 15 to 20)
#    0.000    1.333    5.000    0.000    0.000   10.667 
#    0.000    1.667    0.000    0.000    0.000    0.000 
#    0.000    0.000    0.000    0.000    0.000    0.000 
#
# Total GULP energy -267415.006773 kJ/mol
# GULP energy per Si atom -5571.145974 kJ/mol
# Density = 2.024986 g / cm^3
# Si number density = 20.296051 Si / 1000 Ang^3
#
#
#
# Elastic Constant Matrix: (Units=GPa)
#
#
# Indices 1 2 3 4 5 6 
#
# 1 62.9475 36.2016 16.8374 0.0000 0.0000 0.0000
# 2 36.2016 110.3671 40.0965 0.0000 0.0000 0.0000
# 3 16.8374 40.0965 123.4750 0.0000 0.0000 0.0000
# 4 0.0000 0.0000 0.0000 -1.3354 0.0000 0.0000
# 5 0.0000 0.0000 0.0000 0.0000 11.0313 0.0000
# 6 0.0000 0.0000 0.0000 0.0000 0.0000 37.6759
#
#
#
# Elastic Compliance Matrix: (Units=1/GPa)
#
#
# Indices 1 2 3 4 5 6 
#
# 1 0.019628 -0.006197 -0.000664 0.000000 0.000000 0.000000
# 2 -0.006197 0.012229 -0.003126 0.000000 0.000000 0.000000
# 3 -0.000664 -0.003126 0.009205 0.000000 0.000000 0.000000
# 4 0.000000 0.000000 0.000000 -0.748867 0.000000 0.000000
# 5 0.000000 0.000000 0.000000 0.000000 0.090651 0.000000
# 6 0.000000 0.000000 0.000000 0.000000 0.000000 0.026542
#
#
# Mechanical properties :
#
#
# Convention : Reuss Voigt Hill
#
# Bulk Modulus (GPa) = 47.42255 53.67340 50.54798
# Shear Modulus (GPa) = -8.87140 23.05131 7.08996
#
# Velocity S-wave (km/s) = -2.09296 3.37375 1.87106
# Velocity P-wave (km/s) = 4.19231 6.45592 5.44309
#
# Compressibility (1/GPa) = 0.02108701
#
# Stress axis : x y z
#
# Youngs Moduli (GPa) = 50.94827 81.77261 108.64192
#
# Poissons Ratio (x) = 0.50673 0.07216
# Poissons Ratio (y) = 0.31572 0.33963
# Poissons Ratio (z) = 0.03384 0.25564
#
# Static dielectric constant tensor:
#      x y z
#    x 1.789610 0.000000 0.000000 
#    y 0.000000 1.763900 0.000000 
#    z 0.000000 0.000000 1.708460 
# 
# From -- ./inp_files/7721.got.cif
#   From: 2010.05.17/outbox.cif.g08.bks.cpg/sg52_4_cif.got.tgz:7721.got - 2010.06.03 12:15:38.
