data_PCOD9411344
_publ_section_title
;
Structure prediction by ZEFSAII (Michael W. Deem and Ramdas Pophale) SiO2 
 PCOD9411344
Probable space group: P N N A
;
_chemical_formula_sum "Si O2"
_cell_formula_units_Z 64
_cell_length_a 23.394448
_cell_length_b 7.865956
_cell_length_c 14.918759
_cell_angle_alpha 90.000000
_cell_angle_beta 90.000000
_cell_angle_gamma 90.000000
_cell_volume 2745.345535
_symmetry_space_group_name_H-M "P N N A"
_symmetry_group_IT_number 52
_symmetry_cell_setting 'orthorhombic'
loop_
_space_group_symop_operation_xyz
x,y,z
1/2-x,-y,z
x,1/2-y,1/2-z
1/2-x,1/2+y,1/2-z
-x,-y,-z
1/2+x,y,-z
-x,1/2+y,1/2+z
1/2+x,1/2-y,1/2+z
loop_
_atom_site_type_symbol
_atom_site_label
_atom_site_fract_x
_atom_site_fract_y
_atom_site_fract_z
Si Si1 0.221130 0.812981 0.151415
Si Si2 0.058918 0.296154 0.146687
Si Si3 0.956445 0.307806 0.468881
Si Si4 0.991358 0.175190 0.653444
Si Si5 0.107876 0.018779 0.607855
Si Si6 0.791492 0.153267 0.336317
Si Si7 0.337598 0.084483 0.981060
Si Si8 0.675447 0.220148 0.540723
O O1 0.205131 0.750000 0.250000
O O2 0.268833 0.695045 0.102381
O O3 0.250000 0.000000 0.161241
O O4 0.169865 0.833456 0.080238
O O5 0.056830 0.250000 0.250000
O O6 0.121348 0.262840 0.106889
O O7 0.012250 0.186754 0.092226
O O8 0.040392 0.494003 0.138989
O O9 0.904090 0.435196 0.455471
O O10 0.974253 0.295311 0.571612
O O11 0.926815 0.129326 0.441868
O O12 0.977267 0.250000 0.750000
O O13 0.059509 0.142698 0.644325
O O14 0.151652 0.093486 0.534528
O O15 0.147130 0.934495 0.683979
O O16 0.768292 0.250000 0.250000
O O17 0.805845 0.290590 0.412679
O O18 0.750000 0.000000 0.361892
O O19 0.312550 0.897037 0.989472
#
# Coordination Sequence:
#
# PCOD9411344 Si02
#       8
#     8   8   8   8   8   8   8   8
#     4  10  23  42  62  94 129 168 220 272 334 406
#     4  11  23  40  64  96 133 179 225 286 349 409
#     4  10  21  43  61  90 135 179 227 280 346 416
#     4  11  23  39  62  94 135 182 231 279 340 412
#     4  10  21  42  68  89 135 181 223 277 348 402
#     4  11  26  46  70 103 134 176 229 284 339 407
#     4  10  25  42  68  97 134 176 228 281 344 408
#     4  11  21  41  69  95 136 177 224 280 346 417
#
# _framework density 23.312183999999998
#
# number of rings (size 3 to 8) (size 9 to 14) (size 15 to 20)
#    0.000    1.500    2.500    1.875    1.750   13.000 
#    2.250    0.000    0.000    0.000    0.000    0.000 
#    0.000    0.000    0.000    0.000    0.000    0.000 
#
# Total GULP energy -357975.814475 kJ/mol
# GULP energy per Si atom -5593.372101 kJ/mol
# Density = 2.325912 g / cm^3
# Si number density = 23.312184 Si / 1000 Ang^3
#
#
#
# Elastic Constant Matrix: (Units=GPa)
#
#
# Indices 1 2 3 4 5 6 
#
# 1 94.0293 10.8220 7.7945 0.0000 0.0000 0.0000
# 2 10.8220 71.8553 6.9283 0.0000 0.0000 0.0000
# 3 7.7945 6.9283 66.6827 0.0000 0.0000 0.0000
# 4 0.0000 0.0000 0.0000 26.0467 0.0000 0.0000
# 5 0.0000 0.0000 0.0000 0.0000 12.1228 0.0000
# 6 0.0000 0.0000 0.0000 0.0000 0.0000 31.6321
#
#
#
# Elastic Compliance Matrix: (Units=1/GPa)
#
#
# Indices 1 2 3 4 5 6 
#
# 1 0.010904 -0.001535 -0.001115 0.000000 0.000000 0.000000
# 2 -0.001535 0.014274 -0.001304 0.000000 0.000000 0.000000
# 3 -0.001115 -0.001304 0.015262 0.000000 0.000000 0.000000
# 4 0.000000 0.000000 0.000000 0.038393 0.000000 0.000000
# 5 0.000000 0.000000 0.000000 0.000000 0.082489 0.000000
# 6 0.000000 0.000000 0.000000 0.000000 0.000000 0.031613
#
#
# Mechanical properties :
#
#
# Convention : Reuss Voigt Hill
#
# Bulk Modulus (GPa) = 30.73805 31.51746 31.12775
# Shear Modulus (GPa) = 23.61983 27.76181 25.69082
#
# Velocity S-wave (km/s) = 3.18653 3.45464 3.32329
# Velocity P-wave (km/s) = 5.17230 5.42788 5.30163
#
# Compressibility (1/GPa) = 0.03253297
#
# Stress axis : x y z
#
# Youngs Moduli (GPa) = 91.70905 70.05890 65.52141
#
# Poissons Ratio (x) = 0.10752 0.07306
# Poissons Ratio (y) = 0.14075 0.08542
# Poissons Ratio (z) = 0.10227 0.09133
#
# Static dielectric constant tensor:
#      x y z
#    x 1.902050 0.000000 0.000000 
#    y 0.000000 1.918460 0.000000 
#    z 0.000000 0.000000 1.825090 
# 
# From -- ./inp_files/29221.got.cif
#   From: 2010.05.17/outbox.cif.g08.bks.cpg/sg52_15_cif.got.tgz:29221.got - 2010.06.03 12:15:38.
