data_PCOD9411898
_publ_section_title
;
Structure prediction by ZEFSAII (Michael W. Deem and Ramdas Pophale) SiO2 
 PCOD9411898
Probable space group: P N N A
;
_chemical_formula_sum "Si O2"
_cell_formula_units_Z 32
_cell_length_a 11.513229
_cell_length_b 6.167121
_cell_length_c 17.674471
_cell_angle_alpha 90.000000
_cell_angle_beta 90.000000
_cell_angle_gamma 90.000000
_cell_volume 1254.948884
_symmetry_space_group_name_H-M "P N N A"
_symmetry_group_IT_number 52
_symmetry_cell_setting 'orthorhombic'
loop_
_space_group_symop_operation_xyz
x,y,z
1/2-x,-y,z
x,1/2-y,1/2-z
1/2-x,1/2+y,1/2-z
-x,-y,-z
1/2+x,y,-z
-x,1/2+y,1/2+z
1/2+x,1/2-y,1/2+z
loop_
_atom_site_type_symbol
_atom_site_label
_atom_site_fract_x
_atom_site_fract_y
_atom_site_fract_z
Si Si1 0.750000 0.000000 0.567839
Si Si2 0.837818 0.165724 0.175148
Si Si3 0.250000 0.500000 0.430985
Si Si4 0.454891 0.115653 0.179374
Si Si5 0.007485 0.498467 0.909817
O O1 0.746411 0.748541 0.532845
O O2 0.871020 0.979888 0.613145
O O3 0.772307 0.250000 0.250000
O O4 0.895857 0.337964 0.119380
O O5 0.750000 0.000000 0.136199
O O6 0.951176 0.049538 0.210484
O O7 0.360996 0.491469 0.375221
O O8 0.405816 0.250000 0.250000
O O9 0.532834 0.266075 0.124727
O O10 0.000000 0.500000 0.000000
#
# Coordination Sequence:
#
# PCOD9411898 Si02
#       5
#     4   8   4   8   8
#     4  10  22  47  70 106 150 195 250 328 408 479
#     4  12  26  46  73 109 153 208 269 331 400 492
#     4  10  22  41  72 104 142 183 244 320 396 471
#     4  11  23  43  71 101 143 198 254 318 399 483
#     4  11  26  47  74 108 153 203 268 332 410 485
#
# _framework density 25.499047999999998
#
# number of rings (size 3 to 8) (size 9 to 14) (size 15 to 20)
#    0.000    1.000    5.000    0.750    0.000    8.000 
#    9.000    0.000    0.000    0.000    0.000    0.000 
#    0.000    0.000    0.000    0.000    0.000    0.000 
#
# Total GULP energy -178285.918606 kJ/mol
# GULP energy per Si atom -5571.434956 kJ/mol
# Density = 2.544101 g / cm^3
# Si number density = 25.499048 Si / 1000 Ang^3
#
#
#
# Elastic Constant Matrix: (Units=GPa)
#
#
# Indices 1 2 3 4 5 6 
#
# 1 133.5776 60.2312 18.7443 0.0000 0.0000 0.0000
# 2 60.2312 191.9964 60.9347 0.0000 0.0000 0.0000
# 3 18.7443 60.9347 129.1852 0.0000 0.0000 0.0000
# 4 0.0000 0.0000 0.0000 -0.1914 0.0000 0.0000
# 5 0.0000 0.0000 0.0000 0.0000 -6.4266 0.0000
# 6 0.0000 0.0000 0.0000 0.0000 0.0000 68.7287
#
#
#
# Elastic Compliance Matrix: (Units=1/GPa)
#
#
# Indices 1 2 3 4 5 6 
#
# 1 0.008720 -0.002745 0.000029 0.000000 0.000000 0.000000
# 2 -0.002745 0.006989 -0.002899 0.000000 0.000000 0.000000
# 3 0.000029 -0.002899 0.009104 0.000000 0.000000 0.000000
# 4 0.000000 0.000000 0.000000 -5.224087 0.000000 0.000000
# 5 0.000000 0.000000 0.000000 0.000000 -0.155603 0.000000
# 6 0.000000 0.000000 0.000000 0.000000 0.000000 0.014550
#
#
# Mechanical properties :
#
#
# Convention : Reuss Voigt Hill
#
# Bulk Modulus (GPa) = 73.60954 81.61995 77.61475
# Shear Modulus (GPa) = -0.93904 33.41207 16.23652
#
# Velocity S-wave (km/s) = -0.60751 3.62377 2.52613
# Velocity P-wave (km/s) = 5.33274 7.04184 6.24602
#
# Compressibility (1/GPa) = 0.01358519
#
# Stress axis : x y z
#
# Youngs Moduli (GPa) = 114.68123 143.07290 109.84491
#
# Poissons Ratio (x) = 0.39271 -0.00324
# Poissons Ratio (y) = 0.31478 0.31839
# Poissons Ratio (z) = -0.00338 0.41470
#
# Static dielectric constant tensor:
#      x y z
#    x 2.055940 0.000000 0.000000 
#    y 0.000000 2.390590 0.000000 
#    z 0.000000 0.000000 1.970040 
# 
# From -- ./inp_files/36468.got.cif
#   From: 2010.05.17/outbox.cif.g08.bks.cpg/sg52_19_cif.got.tgz:36468.got - 2010.06.03 12:15:38.
