data_PCOD9411131
_publ_section_title
;
Structure prediction by ZEFSAII (Michael W. Deem and Ramdas Pophale) SiO2 
 PCOD9411131
Probable space group: P N N A
;
_chemical_formula_sum "Si O2"
_cell_formula_units_Z 36
_cell_length_a 22.341410
_cell_length_b 8.927909
_cell_length_c 7.703175
_cell_angle_alpha 90.000000
_cell_angle_beta 90.000000
_cell_angle_gamma 90.000000
_cell_volume 1536.491273
_symmetry_space_group_name_H-M "P N N A"
_symmetry_group_IT_number 52
_symmetry_cell_setting 'orthorhombic'
loop_
_space_group_symop_operation_xyz
x,y,z
1/2-x,-y,z
x,1/2-y,1/2-z
1/2-x,1/2+y,1/2-z
-x,-y,-z
1/2+x,y,-z
-x,1/2+y,1/2+z
1/2+x,1/2-y,1/2+z
loop_
_atom_site_type_symbol
_atom_site_label
_atom_site_fract_x
_atom_site_fract_y
_atom_site_fract_z
Si Si1 0.130265 0.306284 0.005720
Si Si2 0.765044 0.328659 0.922761
Si Si3 0.474553 0.920822 0.317993
Si Si4 0.082402 0.464494 0.659865
Si Si5 0.153787 0.750000 0.750000
O O1 0.116540 0.390812 0.825756
O O2 0.095676 0.149526 0.992199
O O3 0.198754 0.266777 0.035331
O O4 0.096190 0.409941 0.144649
O O5 0.750000 0.500000 0.883072
O O6 0.789805 0.250000 0.750000
O O7 0.805154 0.314996 0.094730
O O8 0.490807 0.750000 0.250000
O O9 0.500000 0.000000 0.500000
O O10 0.511537 0.025478 0.188843
O O11 0.112737 0.626027 0.656565
#
# Coordination Sequence:
#
# PCOD9411131 Si02
#       5
#     8   8   8   8   4
#     4  10  22  42  67  96 141 183 231 298 362 427
#     4  12  28  45  70 105 143 186 241 294 364 433
#     4  10  21  40  64  96 134 172 233 293 348 432
#     4  10  21  41  69  99 131 189 237 286 364 429
#     4  12  24  46  72 100 142 184 244 296 352 440
#
# _framework density 23.430005000000001
#
# number of rings (size 3 to 8) (size 9 to 14) (size 15 to 20)
#    0.000    1.333    3.333    2.000    3.111    0.889 
#    0.000    0.000    0.000    0.000    0.000    0.000 
#    0.000    0.000    0.000    0.000    0.000    0.000 
#
# Total GULP energy -200586.845786 kJ/mol
# GULP energy per Si atom -5571.856827 kJ/mol
# Density = 2.337668 g / cm^3
# Si number density = 23.430005 Si / 1000 Ang^3
#
#
#
# Elastic Constant Matrix: (Units=GPa)
#
#
# Indices 1 2 3 4 5 6 
#
# 1 85.4027 -7.3050 -1.7065 0.0000 0.0000 0.0000
# 2 -7.3050 87.5547 9.3074 0.0000 0.0000 0.0000
# 3 -1.7065 9.3074 124.0042 0.0000 0.0000 0.0000
# 4 0.0000 0.0000 0.0000 32.1745 0.0000 0.0000
# 5 0.0000 0.0000 0.0000 0.0000 -32.9076 0.0000
# 6 0.0000 0.0000 0.0000 0.0000 0.0000 35.8183
#
#
#
# Elastic Compliance Matrix: (Units=1/GPa)
#
#
# Indices 1 2 3 4 5 6 
#
# 1 0.011794 0.000975 0.000089 0.000000 0.000000 0.000000
# 2 0.000975 0.011594 -0.000857 0.000000 0.000000 0.000000
# 3 0.000089 -0.000857 0.008130 0.000000 0.000000 0.000000
# 4 0.000000 0.000000 0.000000 0.031080 0.000000 0.000000
# 5 0.000000 0.000000 0.000000 0.000000 -0.030388 0.000000
# 6 0.000000 0.000000 0.000000 0.000000 0.000000 0.027919
#
#
# Mechanical properties :
#
#
# Convention : Reuss Voigt Hill
#
# Bulk Modulus (GPa) = 31.31667 33.06147 32.18907
# Shear Modulus (GPa) = 71.06399 26.79475 48.92937
#
# Velocity S-wave (km/s) = 5.51327 3.38540 4.57477
# Velocity P-wave (km/s) = 7.34325 5.42426 6.45546
#
# Compressibility (1/GPa) = 0.03193187
#
# Stress axis : x y z
#
# Youngs Moduli (GPa) = 84.78616 86.25285 123.00455
#
# Poissons Ratio (x) = -0.08406 -0.01097
# Poissons Ratio (y) = -0.08263 0.10539
# Poissons Ratio (z) = -0.00756 0.07390
#
# Static dielectric constant tensor:
#      x y z
#    x 1.964090 0.000000 0.000000 
#    y 0.000000 1.960110 0.000000 
#    z 0.000000 0.000000 2.439370 
# 
# From -- ./inp_files/12936.got.cif
#   From: 2010.05.17/outbox.cif.g08.bks.cpg/sg52_7_cif.got.tgz:12936.got - 2010.06.03 12:15:38.
