data_PCOD9411554
_publ_section_title
;
Structure prediction by ZEFSAII (Michael W. Deem and Ramdas Pophale) SiO2 
 PCOD9411554
Probable space group: P N N A
;
_chemical_formula_sum "Si O2"
_cell_formula_units_Z 40
_cell_length_a 8.142262
_cell_length_b 8.603812
_cell_length_c 26.506562
_cell_angle_alpha 90.000000
_cell_angle_beta 90.000000
_cell_angle_gamma 90.000000
_cell_volume 1856.903722
_symmetry_space_group_name_H-M "P N N A"
_symmetry_group_IT_number 52
_symmetry_cell_setting 'orthorhombic'
loop_
_space_group_symop_operation_xyz
x,y,z
1/2-x,-y,z
x,1/2-y,1/2-z
1/2-x,1/2+y,1/2-z
-x,-y,-z
1/2+x,y,-z
-x,1/2+y,1/2+z
1/2+x,1/2-y,1/2+z
loop_
_atom_site_type_symbol
_atom_site_label
_atom_site_fract_x
_atom_site_fract_y
_atom_site_fract_z
Si Si1 0.953464 0.866840 0.153375
Si Si2 0.892857 0.199805 0.192365
Si Si3 0.221294 0.822172 0.477198
Si Si4 0.069897 0.374875 0.538836
Si Si5 0.289385 0.682021 0.135083
O O1 0.785772 0.773940 0.166274
O O2 0.936141 0.928901 0.096027
O O3 0.128404 0.777689 0.154671
O O4 0.940924 0.017282 0.188714
O O5 0.880953 0.250000 0.250000
O O6 0.044679 0.282454 0.164749
O O7 0.261282 0.694645 0.519164
O O8 0.314792 0.783477 0.424750
O O9 0.035492 0.784976 0.462869
O O10 0.250000 0.000000 0.490916
O O11 0.000000 0.500000 0.500000
O O12 0.250000 0.500000 0.138276
#
# Coordination Sequence:
#
# PCOD9411554 Si02
#       5
#     8   8   8   8   8
#     4  10  25  45  66 101 137 168 232 285 337 413
#     4  11  25  43  69  94 129 179 225 290 344 395
#     4  10  22  38  58  94 136 173 214 258 332 406
#     4  11  22  37  66  97 129 180 217 274 333 402
#     4  10  23  43  66  98 138 178 222 278 336 410
#
# _framework density 21.541236999999999
#
# number of rings (size 3 to 8) (size 9 to 14) (size 15 to 20)
#    0.000    1.600    0.000    3.000    8.400    9.600 
#    0.000    0.000    0.000    0.000    0.000    0.000 
#    0.000    0.000    0.000    0.000    0.000    0.000 
#
# Total GULP energy -223228.183581 kJ/mol
# GULP energy per Si atom -5580.704590 kJ/mol
# Density = 2.149221 g / cm^3
# Si number density = 21.541237 Si / 1000 Ang^3
#
#
#
# Elastic Constant Matrix: (Units=GPa)
#
#
# Indices 1 2 3 4 5 6 
#
# 1 75.4974 19.5121 33.5862 0.0000 0.0000 0.0000
# 2 19.5121 76.0209 33.0968 0.0000 0.0000 0.0000
# 3 33.5862 33.0968 114.6659 0.0000 0.0000 0.0000
# 4 0.0000 0.0000 0.0000 36.5392 0.0000 0.0000
# 5 0.0000 0.0000 0.0000 0.0000 16.8194 0.0000
# 6 0.0000 0.0000 0.0000 0.0000 0.0000 25.9516
#
#
#
# Elastic Compliance Matrix: (Units=1/GPa)
#
#
# Indices 1 2 3 4 5 6 
#
# 1 0.015574 -0.002300 -0.003898 0.000000 0.000000 0.000000
# 2 -0.002300 0.015385 -0.003767 0.000000 0.000000 0.000000
# 3 -0.003898 -0.003767 0.010950 0.000000 0.000000 0.000000
# 4 0.000000 0.000000 0.000000 0.027368 0.000000 0.000000
# 5 0.000000 0.000000 0.000000 0.000000 0.059455 0.000000
# 6 0.000000 0.000000 0.000000 0.000000 0.000000 0.038533
#
#
# Mechanical properties :
#
#
# Convention : Reuss Voigt Hill
#
# Bulk Modulus (GPa) = 45.49857 48.73048 47.11453
# Shear Modulus (GPa) = 25.70420 27.86132 26.78276
#
# Velocity S-wave (km/s) = 3.45810 3.60028 3.52991
# Velocity P-wave (km/s) = 6.09197 6.32090 6.20749
#
# Compressibility (1/GPa) = 0.02197871
#
# Stress axis : x y z
#
# Youngs Moduli (GPa) = 64.20964 64.99992 91.32524
#
# Poissons Ratio (x) = 0.14953 0.35596
# Poissons Ratio (y) = 0.14771 0.34400
# Poissons Ratio (z) = 0.25027 0.24484
#
# Static dielectric constant tensor:
#      x y z
#    x 1.886390 0.000000 0.000000 
#    y 0.000000 1.786480 0.000000 
#    z 0.000000 0.000000 1.819940 
# 
# From -- ./inp_files/39248.got.cif
#   From: 2010.05.17/outbox.cif.g08.bks.cpg/sg52_20_cif.got.tgz:39248.got - 2010.06.03 12:15:38.
