data_PCOD9411973
_publ_section_title
;
Structure prediction by ZEFSAII (Michael W. Deem and Ramdas Pophale) SiO2 
 PCOD9411973
Probable space group: P N N A
;
_chemical_formula_sum "Si O2"
_cell_formula_units_Z 40
_cell_length_a 11.635365
_cell_length_b 12.142485
_cell_length_c 12.281682
_cell_angle_alpha 90.000000
_cell_angle_beta 90.000000
_cell_angle_gamma 90.000000
_cell_volume 1735.183605
_symmetry_space_group_name_H-M "P N N A"
_symmetry_group_IT_number 52
_symmetry_cell_setting 'orthorhombic'
loop_
_space_group_symop_operation_xyz
x,y,z
1/2-x,-y,z
x,1/2-y,1/2-z
1/2-x,1/2+y,1/2-z
-x,-y,-z
1/2+x,y,-z
-x,1/2+y,1/2+z
1/2+x,1/2-y,1/2+z
loop_
_atom_site_type_symbol
_atom_site_label
_atom_site_fract_x
_atom_site_fract_y
_atom_site_fract_z
Si Si1 0.345364 0.582607 0.544715
Si Si2 0.069433 0.750000 0.250000
Si Si3 0.750000 0.500000 0.112276
Si Si4 0.085045 0.182681 0.545194
Si Si5 0.456332 0.142849 0.675556
Si Si6 0.923909 0.025882 0.824890
O O1 0.250000 0.500000 0.588254
O O2 0.328529 0.713106 0.541094
O O3 0.456608 0.564542 0.619436
O O4 0.367965 0.542347 0.422009
O O5 0.989257 0.801165 0.345149
O O6 0.135689 0.858221 0.206708
O O7 0.841298 0.572248 0.046373
O O8 0.668856 0.586158 0.174936
O O9 0.998765 0.179320 0.443632
O O10 0.455063 0.250000 0.750000
O O11 0.544902 0.053426 0.725445
#
# Coordination Sequence:
#
# PCOD9411973 Si02
#       6
#     8   4   4   8   8   8
#     4  10  23  42  67 100 136 184 237 274 343 433
#     4  10  22  42  70  92 132 178 228 276 348 408
#     4  12  28  40  76 104 136 184 238 292 342 436
#     4  11  25  46  67 103 144 178 229 296 355 413
#     4  12  26  47  71 100 140 185 225 296 356 410
#     4  10  22  42  68  95 134 182 223 296 344 403
#
# _framework density 23.052315
#
# number of rings (size 3 to 8) (size 9 to 14) (size 15 to 20)
#    0.000    1.200    4.000    0.600    5.600    0.000 
#    1.800    0.000    2.200    0.000    0.000    0.000 
#    0.000    0.000    0.000    0.000    0.000    0.000 
#
# Total GULP energy -223659.318641 kJ/mol
# GULP energy per Si atom -5591.482966 kJ/mol
# Density = 2.299985 g / cm^3
# Si number density = 23.052315 Si / 1000 Ang^3
#
#
#
# Elastic Constant Matrix: (Units=GPa)
#
#
# Indices 1 2 3 4 5 6 
#
# 1 33.6986 11.9431 19.9208 0.0000 0.0000 0.0000
# 2 11.9431 156.6349 38.1454 0.0000 0.0000 0.0000
# 3 19.9208 38.1454 140.5040 0.0000 0.0000 0.0000
# 4 0.0000 0.0000 0.0000 26.1747 0.0000 0.0000
# 5 0.0000 0.0000 0.0000 0.0000 4.4839 0.0000
# 6 0.0000 0.0000 0.0000 0.0000 0.0000 26.1945
#
#
#
# Elastic Compliance Matrix: (Units=1/GPa)
#
#
# Indices 1 2 3 4 5 6 
#
# 1 0.032699 -0.001461 -0.004239 0.000000 0.000000 0.000000
# 2 -0.001461 0.006902 -0.001667 0.000000 0.000000 0.000000
# 3 -0.004239 -0.001667 0.008171 0.000000 0.000000 0.000000
# 4 0.000000 0.000000 0.000000 0.038205 0.000000 0.000000
# 5 0.000000 0.000000 0.000000 0.000000 0.223021 0.000000
# 6 0.000000 0.000000 0.000000 0.000000 0.000000 0.038176
#
#
# Mechanical properties :
#
#
# Convention : Reuss Voigt Hill
#
# Bulk Modulus (GPa) = 30.26880 52.31732 41.29306
# Shear Modulus (GPa) = 13.40774 28.75916 21.08345
#
# Velocity S-wave (km/s) = 2.41430 3.53591 3.02750
# Velocity P-wave (km/s) = 4.57502 6.27810 5.49297
#
# Compressibility (1/GPa) = 0.03303732
#
# Stress axis : x y z
#
# Youngs Moduli (GPa) = 30.58232 144.89564 122.38748
#
# Poissons Ratio (x) = 0.21166 0.51886
# Poissons Ratio (y) = 0.04467 0.20397
# Poissons Ratio (z) = 0.12965 0.24148
#
# Static dielectric constant tensor:
#      x y z
#    x 1.865670 0.000000 0.000000 
#    y 0.000000 1.915420 0.000000 
#    z 0.000000 0.000000 1.850110 
# 
# From -- ./inp_files/19305.got.cif
#   From: 2010.05.17/outbox.cif.g08.bks.cpg/sg52_10_cif.got.tgz:19305.got - 2010.06.03 12:15:38.
