data_PCOD9411531
_publ_section_title
;
Structure prediction by ZEFSAII (Michael W. Deem and Ramdas Pophale) SiO2 
 PCOD9411531
Probable space group: P N N A
;
_chemical_formula_sum "Si O2"
_cell_formula_units_Z 64
_cell_length_a 11.627512
_cell_length_b 22.663768
_cell_length_c 11.501427
_cell_angle_alpha 90.000000
_cell_angle_beta 90.000000
_cell_angle_gamma 90.000000
_cell_volume 3030.893243
_symmetry_space_group_name_H-M "P N N A"
_symmetry_group_IT_number 52
_symmetry_cell_setting 'orthorhombic'
loop_
_space_group_symop_operation_xyz
x,y,z
1/2-x,-y,z
x,1/2-y,1/2-z
1/2-x,1/2+y,1/2-z
-x,-y,-z
1/2+x,y,-z
-x,1/2+y,1/2+z
1/2+x,1/2-y,1/2+z
loop_
_atom_site_type_symbol
_atom_site_label
_atom_site_fract_x
_atom_site_fract_y
_atom_site_fract_z
Si Si1 0.082437 0.250231 0.453539
Si Si2 0.167113 0.341880 0.866556
Si Si3 0.473414 0.195987 0.181215
Si Si4 0.996731 0.067161 0.538578
Si Si5 0.121419 0.133149 0.159337
Si Si6 0.660325 0.917606 0.760379
Si Si7 0.629000 0.014198 0.959518
Si Si8 0.068085 0.845644 0.669736
O O1 0.158608 0.202704 0.523506
O O2 0.012014 0.283041 0.555255
O O3 0.148485 0.301077 0.383607
O O4 0.994406 0.214276 0.372660
O O5 0.081965 0.318898 0.765233
O O6 0.113933 0.404214 0.909386
O O7 0.295899 0.341951 0.821216
O O8 0.413076 0.250000 0.250000
O O9 0.399958 0.137132 0.175143
O O10 0.901719 0.073441 0.639051
O O11 0.960485 0.107476 0.430732
O O12 0.000000 0.000000 0.500000
O O13 0.209528 0.105666 0.253192
O O14 0.130436 0.084391 0.059655
O O15 0.994877 0.135095 0.212902
O O16 0.643665 0.974669 0.841806
O O17 0.750000 0.000000 0.025980
O O18 0.500000 0.000000 0.000000
#
# Coordination Sequence:
#
# PCOD9411531 Si02
#       8
#     8   8   8   8   8   8   8   8
#     4  10  22  37  62  92 126 171 213 256 331 382
#     4   9  22  42  60  93 133 162 213 272 317 390
#     4   9  19  39  61  90 122 165 213 257 318 383
#     4  10  22  42  68  91 122 167 213 264 334 393
#     4  11  24  40  62  95 126 170 214 267 323 396
#     4  10  22  40  66  90 126 166 214 267 324 395
#     4  10  22  45  66  94 131 167 219 275 327 393
#     4  11  24  41  59  94 131 164 211 270 320 392
#
# _framework density 21.115888000000002
#
# number of rings (size 3 to 8) (size 9 to 14) (size 15 to 20)
#    0.000    2.000    0.000    2.625    5.250    4.500 
#    9.000    0.000    0.000    0.000    0.000    0.000 
#    0.000    0.000    0.000    0.000    0.000    0.000 
#
# Total GULP energy -357282.651830 kJ/mol
# GULP energy per Si atom -5582.541435 kJ/mol
# Density = 2.106783 g / cm^3
# Si number density = 21.115888 Si / 1000 Ang^3
#
#
#
# Elastic Constant Matrix: (Units=GPa)
#
#
# Indices 1 2 3 4 5 6 
#
# 1 131.1659 39.6617 5.9601 0.0000 0.0000 0.0000
# 2 39.6617 148.4392 21.1337 0.0000 0.0000 0.0000
# 3 5.9601 21.1337 30.2653 0.0000 0.0000 0.0000
# 4 0.0000 0.0000 0.0000 25.3960 0.0000 0.0000
# 5 0.0000 0.0000 0.0000 0.0000 19.8664 0.0000
# 6 0.0000 0.0000 0.0000 0.0000 0.0000 22.7062
#
#
#
# Elastic Compliance Matrix: (Units=1/GPa)
#
#
# Indices 1 2 3 4 5 6 
#
# 1 0.008294 -0.002203 -0.000095 0.000000 0.000000 0.000000
# 2 -0.002203 0.008065 -0.005198 0.000000 0.000000 0.000000
# 3 -0.000095 -0.005198 0.036690 0.000000 0.000000 0.000000
# 4 0.000000 0.000000 0.000000 0.039376 0.000000 0.000000
# 5 0.000000 0.000000 0.000000 0.000000 0.050336 0.000000
# 6 0.000000 0.000000 0.000000 0.000000 0.000000 0.044041
#
#
# Mechanical properties :
#
#
# Convention : Reuss Voigt Hill
#
# Bulk Modulus (GPa) = 26.27627 49.26459 37.77043
# Shear Modulus (GPa) = 23.31215 29.80139 26.55677
#
# Velocity S-wave (km/s) = 3.32627 3.76084 3.55021
# Velocity P-wave (km/s) = 5.21756 6.49921 5.89333
#
# Compressibility (1/GPa) = 0.03805716
#
# Stress axis : x y z
#
# Youngs Moduli (GPa) = 120.56504 123.98728 27.25565
#
# Poissons Ratio (x) = 0.27309 0.00260
# Poissons Ratio (y) = 0.26555 0.14168
# Poissons Ratio (z) = 0.01150 0.64450
#
# Static dielectric constant tensor:
#      x y z
#    x 1.770280 0.000000 0.000000 
#    y 0.000000 1.762500 0.000000 
#    z 0.000000 0.000000 1.739320 
# 
# From -- ./inp_files/18501.got.cif
#   From: 2010.05.17/outbox.cif.g08.bks.cpg/sg52_10_cif.got.tgz:18501.got - 2010.06.03 12:15:38.
