data_PCOD9411437
_publ_section_title
;
Structure prediction by ZEFSAII (Michael W. Deem and Ramdas Pophale) SiO2 
 PCOD9411437
Probable space group: P N N A
;
_chemical_formula_sum "Si O2"
_cell_formula_units_Z 64
_cell_length_a 23.355079
_cell_length_b 22.475731
_cell_length_c 5.368356
_cell_angle_alpha 90.000000
_cell_angle_beta 90.000000
_cell_angle_gamma 90.000000
_cell_volume 2817.970708
_symmetry_space_group_name_H-M "P N N A"
_symmetry_group_IT_number 52
_symmetry_cell_setting 'orthorhombic'
loop_
_space_group_symop_operation_xyz
x,y,z
1/2-x,-y,z
x,1/2-y,1/2-z
1/2-x,1/2+y,1/2-z
-x,-y,-z
1/2+x,y,-z
-x,1/2+y,1/2+z
1/2+x,1/2-y,1/2+z
loop_
_atom_site_type_symbol
_atom_site_label
_atom_site_fract_x
_atom_site_fract_y
_atom_site_fract_z
Si Si1 0.759680 0.066656 0.817676
Si Si2 0.427005 0.286865 0.990580
Si Si3 0.827476 0.784851 0.485946
Si Si4 0.148859 0.085674 0.440410
Si Si5 0.951848 0.080656 0.419803
Si Si6 0.050701 0.018991 0.200450
Si Si7 0.797910 0.190566 0.577243
Si Si8 0.149198 0.985383 0.808254
O O1 0.693334 0.086739 0.792995
O O2 0.791483 0.125117 0.704552
O O3 0.750000 0.000000 0.701009
O O4 0.700591 0.951650 0.051045
O O5 0.432741 0.250000 0.250000
O O6 0.359460 0.302864 0.952558
O O7 0.445909 0.250000 0.750000
O O8 0.457322 0.350635 0.983509
O O9 0.849751 0.750000 0.250000
O O10 0.859691 0.846636 0.496132
O O11 0.761104 0.803060 0.426691
O O12 0.829909 0.750000 0.750000
O O13 0.088312 0.056813 0.391931
O O14 0.172087 0.042640 0.658536
O O15 0.992609 0.057625 0.193429
O O16 0.966272 0.041659 0.661881
O O17 0.886197 0.061521 0.359324
O O18 0.098794 0.008179 0.992107
O O19 0.796125 0.250000 0.750000
#
# Coordination Sequence:
#
# PCOD9411437 Si02
#       8
#     8   8   8   8   8   8   8   8
#     4  11  22  40  61  99 142 173 225 294 355 424
#     4  11  25  44  67 101 138 183 235 298 359 428
#     4  10  22  41  66  94 132 182 237 284 340 430
#     4  10  24  42  61 102 134 185 226 290 364 422
#     4  10  24  42  71 100 131 181 240 288 360 421
#     4  10  21  45  67  99 135 178 231 298 347 434
#     4   9  21  39  63  90 132 184 227 280 354 431
#     4  11  23  40  71  97 137 182 230 295 363 429
#
# _framework density 22.711379999999998
#
# number of rings (size 3 to 8) (size 9 to 14) (size 15 to 20)
#    0.000    1.750    1.250    1.500    8.750    1.500 
#    4.500    1.250    0.000    0.000    0.000    0.000 
#    0.000    0.000    0.000    0.000    0.000    0.000 
#
# Total GULP energy -356426.923854 kJ/mol
# GULP energy per Si atom -5569.170685 kJ/mol
# Density = 2.265969 g / cm^3
# Si number density = 22.711380 Si / 1000 Ang^3
#
#
#
# Elastic Constant Matrix: (Units=GPa)
#
#
# Indices 1 2 3 4 5 6 
#
# 1 64.7467 29.9224 31.5767 0.0000 0.0000 0.0000
# 2 29.9224 187.7516 54.1087 0.0000 0.0000 0.0000
# 3 31.5767 54.1087 99.4082 0.0000 0.0000 0.0000
# 4 0.0000 0.0000 0.0000 11.0363 0.0000 0.0000
# 5 0.0000 0.0000 0.0000 0.0000 18.4344 0.0000
# 6 0.0000 0.0000 0.0000 0.0000 0.0000 26.6125
#
#
#
# Elastic Compliance Matrix: (Units=1/GPa)
#
#
# Indices 1 2 3 4 5 6 
#
# 1 0.018625 -0.001498 -0.005101 0.000000 0.000000 0.000000
# 2 -0.001498 0.006438 -0.003028 0.000000 0.000000 0.000000
# 3 -0.005101 -0.003028 0.013328 0.000000 0.000000 0.000000
# 4 0.000000 0.000000 0.000000 0.090610 0.000000 0.000000
# 5 0.000000 0.000000 0.000000 0.000000 0.054246 0.000000
# 6 0.000000 0.000000 0.000000 0.000000 0.000000 0.037576
#
#
# Mechanical properties :
#
#
# Convention : Reuss Voigt Hill
#
# Bulk Modulus (GPa) = 52.25656 64.79135 58.52395
# Shear Modulus (GPa) = 20.28757 26.96988 23.62873
#
# Velocity S-wave (km/s) = 2.99202 3.44976 3.22901
# Velocity P-wave (km/s) = 5.91567 6.66767 6.30290
#
# Compressibility (1/GPa) = 0.01913635
#
# Stress axis : x y z
#
# Youngs Moduli (GPa) = 53.69195 155.33576 75.03033
#
# Poissons Ratio (x) = 0.23274 0.38270
# Poissons Ratio (y) = 0.08045 0.22720
# Poissons Ratio (z) = 0.27386 0.47038
#
# Static dielectric constant tensor:
#      x y z
#    x 1.867310 0.000000 0.000000 
#    y 0.000000 1.901690 0.000000 
#    z 0.000000 0.000000 1.874870 
# 
# From -- ./inp_files/6010.got.cif
#   From: 2010.05.17/outbox.cif.g08.bks.cpg/sg52_4_cif.got.tgz:6010.got - 2010.06.03 12:15:38.
