data_PCOD9411337
_publ_section_title
;
Structure prediction by ZEFSAII (Michael W. Deem and Ramdas Pophale) SiO2 
 PCOD9411337
Probable space group: P N N A
;
_chemical_formula_sum "Si O2"
_cell_formula_units_Z 36
_cell_length_a 23.414191
_cell_length_b 5.585770
_cell_length_c 12.885048
_cell_angle_alpha 90.000000
_cell_angle_beta 90.000000
_cell_angle_gamma 90.000000
_cell_volume 1685.187568
_symmetry_space_group_name_H-M "P N N A"
_symmetry_group_IT_number 52
_symmetry_cell_setting 'orthorhombic'
loop_
_space_group_symop_operation_xyz
x,y,z
1/2-x,-y,z
x,1/2-y,1/2-z
1/2-x,1/2+y,1/2-z
-x,-y,-z
1/2+x,y,-z
-x,1/2+y,1/2+z
1/2+x,1/2-y,1/2+z
loop_
_atom_site_type_symbol
_atom_site_label
_atom_site_fract_x
_atom_site_fract_y
_atom_site_fract_z
Si Si1 0.784884 0.251882 0.871779
Si Si2 0.283635 0.250000 0.750000
Si Si3 0.866861 0.322573 0.443104
Si Si4 0.452848 0.802739 0.971057
Si Si5 0.516381 0.596783 0.146868
O O1 0.750000 0.500000 0.888970
O O2 0.801150 0.250000 0.750000
O O3 0.750000 0.000000 0.891205
O O4 0.837923 0.256847 0.950391
O O5 0.250000 0.500000 0.767035
O O6 0.321935 0.297337 0.648820
O O7 0.890471 0.590875 0.459680
O O8 0.923763 0.186761 0.404365
O O9 0.462466 0.634436 0.070549
O O10 0.472692 0.685279 0.863308
O O11 0.500000 0.000000 0.000000
O O12 0.508836 0.750000 0.250000
#
# Coordination Sequence:
#
# PCOD9411337 Si02
#       5
#     8   4   8   8   8
#     4  10  23  44  66  93 131 177 226 285 341 405
#     4  12  28  42  66 106 136 180 228 284 352 422
#     4  11  23  41  66  96 133 176 223 281 345 420
#     4   9  22  41  63  95 133 173 223 271 348 408
#     4  10  21  42  66  98 136 177 223 287 351 425
#
# _framework density 21.362608000000002
#
# number of rings (size 3 to 8) (size 9 to 14) (size 15 to 20)
#    0.000    1.778    1.111    1.333    6.222    3.556 
#   12.000    0.000    0.000    0.000    0.000    0.000 
#    0.000    0.000    0.000    0.000    0.000    0.000 
#
# Total GULP energy -200545.475743 kJ/mol
# GULP energy per Si atom -5570.707660 kJ/mol
# Density = 2.131399 g / cm^3
# Si number density = 21.362608 Si / 1000 Ang^3
#
#
#
# Elastic Constant Matrix: (Units=GPa)
#
#
# Indices 1 2 3 4 5 6 
#
# 1 87.4380 52.7638 67.1288 0.0000 0.0000 0.0000
# 2 52.7638 120.0848 64.7287 0.0000 0.0000 0.0000
# 3 67.1288 64.7287 153.9707 0.0000 0.0000 0.0000
# 4 0.0000 0.0000 0.0000 30.8797 0.0000 0.0000
# 5 0.0000 0.0000 0.0000 0.0000 -34.2883 0.0000
# 6 0.0000 0.0000 0.0000 0.0000 0.0000 45.5561
#
#
#
# Elastic Compliance Matrix: (Units=1/GPa)
#
#
# Indices 1 2 3 4 5 6 
#
# 1 0.019348 -0.005113 -0.006286 0.000000 0.000000 0.000000
# 2 -0.005113 0.012119 -0.002865 0.000000 0.000000 0.000000
# 3 -0.006286 -0.002865 0.010440 0.000000 0.000000 0.000000
# 4 0.000000 0.000000 0.000000 0.032384 0.000000 0.000000
# 5 0.000000 0.000000 0.000000 0.000000 -0.029165 0.000000
# 6 0.000000 0.000000 0.000000 0.000000 0.000000 0.021951
#
#
# Mechanical properties :
#
#
# Convention : Reuss Voigt Hill
#
# Bulk Modulus (GPa) = 74.75081 81.19290 77.97186
# Shear Modulus (GPa) = 49.96772 20.22099 35.09436
#
# Velocity S-wave (km/s) = 4.84160 3.07996 4.05754
# Velocity P-wave (km/s) = 8.14384 7.12304 7.65049
#
# Compressibility (1/GPa) = 0.01337778
#
# Stress axis : x y z
#
# Youngs Moduli (GPa) = 51.68497 82.51805 95.78615
#
# Poissons Ratio (x) = 0.42191 0.60211
# Poissons Ratio (y) = 0.26427 0.27447
# Poissons Ratio (z) = 0.32489 0.23645
#
# Static dielectric constant tensor:
#      x y z
#    x 1.732720 0.000000 0.000000 
#    y 0.000000 2.225420 0.000000 
#    z 0.000000 0.000000 1.859100 
# 
# From -- ./inp_files/22064.got.cif
#   From: 2010.05.17/outbox.cif.g08.bks.cpg/sg52_12_cif.got.tgz:22064.got - 2010.06.03 12:15:38.
