data_PCOD9411673
_publ_section_title
;
Structure prediction by ZEFSAII (Michael W. Deem and Ramdas Pophale) SiO2 
 PCOD9411673
Probable space group: P N N A
;
_chemical_formula_sum "Si O2"
_cell_formula_units_Z 60
_cell_length_a 20.026011
_cell_length_b 6.503463
_cell_length_c 23.440867
_cell_angle_alpha 90.000000
_cell_angle_beta 90.000000
_cell_angle_gamma 90.000000
_cell_volume 3052.901518
_symmetry_space_group_name_H-M "P N N A"
_symmetry_group_IT_number 52
_symmetry_cell_setting 'orthorhombic'
loop_
_space_group_symop_operation_xyz
x,y,z
1/2-x,-y,z
x,1/2-y,1/2-z
1/2-x,1/2+y,1/2-z
-x,-y,-z
1/2+x,y,-z
-x,1/2+y,1/2+z
1/2+x,1/2-y,1/2+z
loop_
_atom_site_type_symbol
_atom_site_label
_atom_site_fract_x
_atom_site_fract_y
_atom_site_fract_z
Si Si1 0.365873 0.271643 0.894588
Si Si2 0.158907 0.343494 0.972365
Si Si3 0.534498 0.424008 0.442684
Si Si4 0.973543 0.370960 0.191623
Si Si5 0.675571 0.076941 0.606320
Si Si6 0.750000 0.500000 0.412017
Si Si7 0.938913 0.272573 0.846453
Si Si8 0.105045 0.353743 0.311894
O O1 0.338016 0.441211 0.938476
O O2 0.406608 0.381167 0.844623
O O3 0.304086 0.128706 0.876613
O O4 0.420050 0.113687 0.920870
O O5 0.085487 0.256777 0.959227
O O6 0.209678 0.167650 0.949811
O O7 0.168780 0.379939 0.039232
O O8 0.500000 0.500000 0.500000
O O9 0.482118 0.334153 0.396880
O O10 0.959555 0.250000 0.250000
O O11 0.009661 0.591662 0.191010
O O12 0.033495 0.232149 0.165705
O O13 0.618820 0.914868 0.626252
O O14 0.750000 0.000000 0.618062
O O15 0.659838 0.278815 0.643605
O O16 0.903072 0.096040 0.810246
O O17 0.115310 0.250000 0.250000
#
# Coordination Sequence:
#
# PCOD9411673 Si02
#       8
#     8   8   8   8   8   4   8   8
#     4  11  21  40  62  92 129 166 213 258 326 383
#     4  11  23  40  63  93 134 174 214 264 325 392
#     4  11  22  34  62  99 128 167 207 266 327 389
#     4  10  22  39  67  95 124 162 216 273 326 384
#     4  11  25  41  62  95 130 176 218 264 321 391
#     4  10  24  40  64  88 132 178 212 254 316 398
#     4  11  22  42  66  94 128 168 214 277 330 383
#     4  10  23  44  63  93 127 166 218 274 326 385
#
# _framework density 19.653435000000002
#
# number of rings (size 3 to 8) (size 9 to 14) (size 15 to 20)
#    0.000    1.333    2.667    2.800    1.867    9.600 
#    2.400    0.000    2.933    0.000    0.000    0.000 
#    0.000    0.000    0.000    0.000    0.000    0.000 
#
# Total GULP energy -334876.527238 kJ/mol
# GULP energy per Si atom -5581.275454 kJ/mol
# Density = 1.960870 g / cm^3
# Si number density = 19.653435 Si / 1000 Ang^3
#
#
#
# Elastic Constant Matrix: (Units=GPa)
#
#
# Indices 1 2 3 4 5 6 
#
# 1 102.5072 39.8235 48.3704 0.0000 0.0000 0.0000
# 2 39.8235 121.0988 45.4594 0.0000 0.0000 0.0000
# 3 48.3704 45.4594 88.9045 0.0000 0.0000 0.0000
# 4 0.0000 0.0000 0.0000 30.1287 0.0000 0.0000
# 5 0.0000 0.0000 0.0000 0.0000 7.4982 0.0000
# 6 0.0000 0.0000 0.0000 0.0000 0.0000 26.4557
#
#
#
# Elastic Compliance Matrix: (Units=1/GPa)
#
#
# Indices 1 2 3 4 5 6 
#
# 1 0.013539 -0.002088 -0.006298 0.000000 0.000000 0.000000
# 2 -0.002088 0.010541 -0.004254 0.000000 0.000000 0.000000
# 3 -0.006298 -0.004254 0.016850 0.000000 0.000000 0.000000
# 4 0.000000 0.000000 0.000000 0.033191 0.000000 0.000000
# 5 0.000000 0.000000 0.000000 0.000000 0.133365 0.000000
# 6 0.000000 0.000000 0.000000 0.000000 0.000000 0.037799
#
#
# Mechanical properties :
#
#
# Convention : Reuss Voigt Hill
#
# Bulk Modulus (GPa) = 63.90093 64.42411 64.16252
# Shear Modulus (GPa) = 18.13027 24.74034 21.43531
#
# Velocity S-wave (km/s) = 3.04056 3.55185 3.30610
# Velocity P-wave (km/s) = 6.70158 7.04784 6.87689
#
# Compressibility (1/GPa) = 0.01564922
#
# Stress axis : x y z
#
# Youngs Moduli (GPa) = 73.86314 94.86528 59.34698
#
# Poissons Ratio (x) = 0.19806 0.37379
# Poissons Ratio (y) = 0.15421 0.25247
# Poissons Ratio (z) = 0.46522 0.40357
#
# Static dielectric constant tensor:
#      x y z
#    x 1.690370 0.000000 0.000000 
#    y 0.000000 1.659700 0.000000 
#    z 0.000000 0.000000 1.710050 
# 
# From -- ./inp_files/41030.got.cif
#   From: 2010.05.17/outbox.cif.g08.bks.cpg/sg52_21_cif.got.tgz:41030.got - 2010.06.03 12:15:38.
