data_PCOD9411958
_publ_section_title
;
Structure prediction by ZEFSAII (Michael W. Deem and Ramdas Pophale) SiO2 
 PCOD9411958
Probable space group: P N N A
;
_chemical_formula_sum "Si O2"
_cell_formula_units_Z 28
_cell_length_a 9.044623
_cell_length_b 5.086832
_cell_length_c 28.542630
_cell_angle_alpha 90.000000
_cell_angle_beta 90.000000
_cell_angle_gamma 90.000000
_cell_volume 1313.202956
_symmetry_space_group_name_H-M "P N N A"
_symmetry_group_IT_number 52
_symmetry_cell_setting 'orthorhombic'
loop_
_space_group_symop_operation_xyz
x,y,z
1/2-x,-y,z
x,1/2-y,1/2-z
1/2-x,1/2+y,1/2-z
-x,-y,-z
1/2+x,y,-z
-x,1/2+y,1/2+z
1/2+x,1/2-y,1/2+z
loop_
_atom_site_type_symbol
_atom_site_label
_atom_site_fract_x
_atom_site_fract_y
_atom_site_fract_z
Si Si1 0.922542 0.934785 0.203891
Si Si2 0.574224 0.984764 0.550375
Si Si3 0.352361 0.750000 0.250000
Si Si4 0.926473 0.996265 0.888974
O O1 0.947216 0.750000 0.250000
O O2 0.979484 0.863751 0.152704
O O3 0.750000 0.000000 0.203954
O O4 0.031521 0.185362 0.209588
O O5 0.535077 0.208254 0.589748
O O6 0.750000 0.000000 0.544521
O O7 0.500000 0.000000 0.500000
O O8 0.545953 0.694480 0.568991
O O9 0.250000 0.500000 0.241357
O O10 0.750000 0.000000 0.876066
#
# Coordination Sequence:
#
# PCOD9411958 Si02
#       4
#     8   8   4   8
#     4  12  27  45  69 102 146 183 237 296 351 402
#     4  10  22  42  67  97 130 167 220 281 343 413
#     4  12  26  44  70  96 130 186 234 278 342 412
#     4  10  24  42  66  97 132 176 229 276 336 422
#
# _framework density 21.321915000000001
#
# number of rings (size 3 to 8) (size 9 to 14) (size 15 to 20)
#    0.000    1.143    2.857    1.714    4.000    3.429 
#    0.000    0.000    0.000    0.000    0.000    0.000 
#    0.000    0.000    0.000    0.000    0.000    0.000 
#
# Total GULP energy -155944.966157 kJ/mol
# GULP energy per Si atom -5569.463077 kJ/mol
# Density = 2.127339 g / cm^3
# Si number density = 21.321915 Si / 1000 Ang^3
#
#
#
# Elastic Constant Matrix: (Units=GPa)
#
#
# Indices 1 2 3 4 5 6 
#
# 1 115.8625 44.9499 54.3823 0.0000 0.0000 0.0000
# 2 44.9499 102.4081 13.1158 0.0000 0.0000 0.0000
# 3 54.3823 13.1158 107.2199 0.0000 0.0000 0.0000
# 4 0.0000 0.0000 0.0000 26.2354 0.0000 0.0000
# 5 0.0000 0.0000 0.0000 0.0000 39.9139 0.0000
# 6 0.0000 0.0000 0.0000 0.0000 0.0000 -2.6804
#
#
#
# Elastic Compliance Matrix: (Units=1/GPa)
#
#
# Indices 1 2 3 4 5 6 
#
# 1 0.013563 -0.005153 -0.006249 0.000000 0.000000 0.000000
# 2 -0.005153 0.011878 0.001161 0.000000 0.000000 0.000000
# 3 -0.006249 0.001161 0.012354 0.000000 0.000000 0.000000
# 4 0.000000 0.000000 0.000000 0.038116 0.000000 0.000000
# 5 0.000000 0.000000 0.000000 0.000000 0.025054 0.000000
# 6 0.000000 0.000000 0.000000 0.000000 0.000000 -0.373074
#
#
# Mechanical properties :
#
#
# Convention : Reuss Voigt Hill
#
# Bulk Modulus (GPa) = 57.76097 61.15403 59.45750
# Shear Modulus (GPa) = -20.33718 26.89661 3.27971
#
# Velocity S-wave (km/s) = -3.09174 3.55555 1.24158
# Velocity P-wave (km/s) = 3.79521 6.75274 5.47737
#
# Compressibility (1/GPa) = 0.01731273
#
# Stress axis : x y z
#
# Youngs Moduli (GPa) = 73.72963 84.18952 80.94463
#
# Poissons Ratio (x) = 0.43382 0.50581
# Poissons Ratio (y) = 0.37992 -0.09394
# Poissons Ratio (z) = 0.46073 -0.09771
#
# Static dielectric constant tensor:
#      x y z
#    x 1.810180 0.000000 0.000000 
#    y 0.000000 2.040100 0.000000 
#    z 0.000000 0.000000 2.021020 
# 
# From -- ./inp_files/41932.got.cif
#   From: 2010.05.17/outbox.cif.g08.bks.cpg/sg52_21_cif.got.tgz:41932.got - 2010.06.03 12:15:38.
