data_PCOD9411272
_publ_section_title
;
Structure prediction by ZEFSAII (Michael W. Deem and Ramdas Pophale) SiO2 
 PCOD9411272
Probable space group: P N N A
;
_chemical_formula_sum "Si O2"
_cell_formula_units_Z 64
_cell_length_a 9.399548
_cell_length_b 29.515342
_cell_length_c 9.959997
_cell_angle_alpha 90.000000
_cell_angle_beta 90.000000
_cell_angle_gamma 90.000000
_cell_volume 2763.210671
_symmetry_space_group_name_H-M "P N N A"
_symmetry_group_IT_number 52
_symmetry_cell_setting 'orthorhombic'
loop_
_space_group_symop_operation_xyz
x,y,z
1/2-x,-y,z
x,1/2-y,1/2-z
1/2-x,1/2+y,1/2-z
-x,-y,-z
1/2+x,y,-z
-x,1/2+y,1/2+z
1/2+x,1/2-y,1/2+z
loop_
_atom_site_type_symbol
_atom_site_label
_atom_site_fract_x
_atom_site_fract_y
_atom_site_fract_z
Si Si1 0.126345 0.802592 0.440030
Si Si2 0.349045 0.043362 0.129591
Si Si3 0.158118 0.248665 0.899654
Si Si4 0.103029 0.528180 0.093583
Si Si5 0.698152 0.897931 0.102803
Si Si6 0.050095 0.154129 0.998547
Si Si7 0.083089 0.888985 0.601878
Si Si8 0.200806 0.130544 0.264181
O O1 0.228103 0.762016 0.487201
O O2 0.970229 0.784764 0.408062
O O3 0.124956 0.838253 0.562113
O O4 0.190040 0.832965 0.321104
O O5 0.454733 0.032208 0.252968
O O6 0.268049 0.086231 0.196519
O O7 0.250000 0.000000 0.116006
O O8 0.370929 0.059847 0.977667
O O9 0.221823 0.250000 0.750000
O O10 0.087015 0.200143 0.925071
O O11 0.250000 0.500000 0.100159
O O12 0.118373 0.576330 0.017893
O O13 0.000000 0.500000 0.000000
O O14 0.863849 0.886481 0.077481
O O15 0.658683 0.901276 0.258190
O O16 0.614246 0.856840 0.027075
O O17 0.111203 0.154947 0.148642
O O18 0.913651 0.886853 0.627088
#
# Coordination Sequence:
#
# PCOD9411272 Si02
#       8
#     8   8   8   8   8   8   8   8
#     4  12  25  44  67  98 134 180 224 288 336 420
#     4  10  21  41  68  97 135 177 225 269 336 416
#     4  12  28  42  68 103 135 175 239 282 342 417
#     4  11  24  39  63  96 130 173 218 280 332 393
#     4  10  23  42  69  94 132 180 212 279 341 401
#     4  10  23  44  64  94 135 171 219 275 340 399
#     4  11  22  43  66  95 134 166 229 276 341 393
#     4  10  22  44  67  94 132 183 215 269 356 401
#
# _framework density 23.161462
#
# number of rings (size 3 to 8) (size 9 to 14) (size 15 to 20)
#    0.000    1.250    2.500    3.000    5.250    2.500 
#    0.000    8.750    0.000    0.000    0.000    0.000 
#    0.000    0.000    0.000    0.000    0.000    0.000 
#
# Total GULP energy -357661.360742 kJ/mol
# GULP energy per Si atom -5588.458762 kJ/mol
# Density = 2.310875 g / cm^3
# Si number density = 23.161462 Si / 1000 Ang^3
#
#
#
# Elastic Constant Matrix: (Units=GPa)
#
#
# Indices 1 2 3 4 5 6 
#
# 1 45.8726 -14.2015 -12.9583 0.0000 0.0000 0.0000
# 2 -14.2015 57.2622 28.6982 0.0000 0.0000 0.0000
# 3 -12.9583 28.6982 87.0270 0.0000 0.0000 0.0000
# 4 0.0000 0.0000 0.0000 31.1835 0.0000 0.0000
# 5 0.0000 0.0000 0.0000 0.0000 19.3879 0.0000
# 6 0.0000 0.0000 0.0000 0.0000 0.0000 26.7547
#
#
#
# Elastic Compliance Matrix: (Units=1/GPa)
#
#
# Indices 1 2 3 4 5 6 
#
# 1 0.023877 0.004960 0.001920 0.000000 0.000000 0.000000
# 2 0.004960 0.021951 -0.006500 0.000000 0.000000 0.000000
# 3 0.001920 -0.006500 0.013920 0.000000 0.000000 0.000000
# 4 0.000000 0.000000 0.000000 0.032068 0.000000 0.000000
# 5 0.000000 0.000000 0.000000 0.000000 0.051579 0.000000
# 6 0.000000 0.000000 0.000000 0.000000 0.000000 0.037377
#
#
# Mechanical properties :
#
#
# Convention : Reuss Voigt Hill
#
# Bulk Modulus (GPa) = 16.52703 21.47096 18.99900
# Shear Modulus (GPa) = 24.97720 28.04012 26.50866
#
# Velocity S-wave (km/s) = 3.28745 3.48320 3.38674
# Velocity P-wave (km/s) = 4.64337 5.04650 4.84912
#
# Compressibility (1/GPa) = 0.06050694
#
# Stress axis : x y z
#
# Youngs Moduli (GPa) = 41.88093 45.55551 71.83876
#
# Poissons Ratio (x) = -0.22594 -0.13792
# Poissons Ratio (y) = -0.20771 0.46697
# Poissons Ratio (z) = -0.08040 0.29612
#
# Static dielectric constant tensor:
#      x y z
#    x 1.887770 0.000000 0.000000 
#    y 0.000000 1.894480 0.000000 
#    z 0.000000 0.000000 1.900270 
# 
# From -- ./inp_files/9132.got.cif
#   From: 2010.05.17/outbox.cif.g08.bks.cpg/sg52_5_cif.got.tgz:9132.got - 2010.06.03 12:15:38.
