data_PCOD9411323
_publ_section_title
;
Structure prediction by ZEFSAII (Michael W. Deem and Ramdas Pophale) SiO2 
 PCOD9411323
Probable space group: P N N A
;
_chemical_formula_sum "Si O2"
_cell_formula_units_Z 52
_cell_length_a 23.246473
_cell_length_b 11.370199
_cell_length_c 9.529953
_cell_angle_alpha 90.000000
_cell_angle_beta 90.000000
_cell_angle_gamma 90.000000
_cell_volume 2518.928816
_symmetry_space_group_name_H-M "P N N A"
_symmetry_group_IT_number 52
_symmetry_cell_setting 'orthorhombic'
loop_
_space_group_symop_operation_xyz
x,y,z
1/2-x,-y,z
x,1/2-y,1/2-z
1/2-x,1/2+y,1/2-z
-x,-y,-z
1/2+x,y,-z
-x,1/2+y,1/2+z
1/2+x,1/2-y,1/2+z
loop_
_atom_site_type_symbol
_atom_site_label
_atom_site_fract_x
_atom_site_fract_y
_atom_site_fract_z
Si Si1 0.138829 0.974609 0.717919
Si Si2 0.099908 0.121345 0.473580
Si Si3 0.750000 0.500000 0.371856
Si Si4 0.985249 0.309769 0.883171
Si Si5 0.033843 0.653444 0.647305
Si Si6 0.927141 0.998559 0.799378
Si Si7 0.855318 0.881682 0.029118
O O1 0.091693 0.883288 0.772062
O O2 0.132418 0.019303 0.560609
O O3 0.126385 0.090581 0.811641
O O4 0.202271 0.940054 0.771356
O O5 0.099329 0.092443 0.311070
O O6 0.125688 0.251259 0.492779
O O7 0.034265 0.120519 0.532547
O O8 0.787274 0.590047 0.464976
O O9 0.015322 0.250000 0.750000
O O10 0.938247 0.388800 0.801188
O O11 0.960867 0.214399 0.994798
O O12 0.006090 0.750000 0.750000
O O13 0.989773 0.545342 0.649691
O O14 0.886313 0.981893 0.934080
#
# Coordination Sequence:
#
# PCOD9411323 Si02
#       7
#     8   8   4   8   8   8   8
#     4  10  22  41  64  87 125 168 212 271 310 375
#     4  12  21  37  66  98 126 166 212 255 321 399
#     4   8  24  44  62  84 118 160 226 272 304 366
#     4  12  24  35  59 100 132 168 208 245 318 414
#     4  12  22  38  59  94 136 169 196 260 340 385
#     4  12  23  39  63  97 139 163 207 268 325 400
#     4  10  21  42  66  87 122 172 214 266 319 371
#
# _framework density 20.643694
#
# number of rings (size 3 to 8) (size 9 to 14) (size 15 to 20)
#    0.923    0.000    4.615    4.154    0.000    1.231 
#    2.769    0.769    6.769    0.000    0.000    0.000 
#    0.000    0.000    0.000    0.000    0.000    0.000 
#
# Total GULP energy -289742.300089 kJ/mol
# GULP energy per Si atom -5571.967309 kJ/mol
# Density = 2.059671 g / cm^3
# Si number density = 20.643694 Si / 1000 Ang^3
#
#
#
# Elastic Constant Matrix: (Units=GPa)
#
#
# Indices 1 2 3 4 5 6 
#
# 1 104.4707 27.6493 13.6254 0.0000 0.0000 0.0000
# 2 27.6493 74.3328 14.2330 0.0000 0.0000 0.0000
# 3 13.6254 14.2330 88.9759 0.0000 0.0000 0.0000
# 4 0.0000 0.0000 0.0000 39.6533 0.0000 0.0000
# 5 0.0000 0.0000 0.0000 0.0000 14.5218 0.0000
# 6 0.0000 0.0000 0.0000 0.0000 0.0000 9.0528
#
#
#
# Elastic Compliance Matrix: (Units=1/GPa)
#
#
# Indices 1 2 3 4 5 6 
#
# 1 0.010709 -0.003785 -0.001034 0.000000 0.000000 0.000000
# 2 -0.003785 0.015216 -0.001854 0.000000 0.000000 0.000000
# 3 -0.001034 -0.001854 0.011694 0.000000 0.000000 0.000000
# 4 0.000000 0.000000 0.000000 0.025219 0.000000 0.000000
# 5 0.000000 0.000000 0.000000 0.000000 0.068862 0.000000
# 6 0.000000 0.000000 0.000000 0.000000 0.000000 0.110463
#
#
# Mechanical properties :
#
#
# Convention : Reuss Voigt Hill
#
# Bulk Modulus (GPa) = 41.20167 42.08830 41.64498
# Shear Modulus (GPa) = 18.96805 26.79702 22.88254
#
# Velocity S-wave (km/s) = 3.03451 3.60679 3.33295
# Velocity P-wave (km/s) = 5.68150 6.14634 5.91848
#
# Compressibility (1/GPa) = 0.02427086
#
# Stress axis : x y z
#
# Youngs Moduli (GPa) = 93.38140 65.72005 85.51374
#
# Poissons Ratio (x) = 0.24877 0.08845
# Poissons Ratio (y) = 0.35347 0.15857
# Poissons Ratio (z) = 0.09659 0.12187
#
# Static dielectric constant tensor:
#      x y z
#    x 1.741010 0.000000 0.000000 
#    y 0.000000 1.853790 0.000000 
#    z 0.000000 0.000000 1.741260 
# 
# From -- ./inp_files/15016.got.cif
#   From: 2010.05.17/outbox.cif.g08.bks.cpg/sg52_8_cif.got.tgz:15016.got - 2010.06.03 12:15:38.
