data_PCOD9411175
_publ_section_title
;
Structure prediction by ZEFSAII (Michael W. Deem and Ramdas Pophale) SiO2 
 PCOD9411175
Probable space group: P N N A
;
_chemical_formula_sum "Si O2"
_cell_formula_units_Z 64
_cell_length_a 14.339124
_cell_length_b 18.921920
_cell_length_c 11.841527
_cell_angle_alpha 90.000000
_cell_angle_beta 90.000000
_cell_angle_gamma 90.000000
_cell_volume 3212.887597
_symmetry_space_group_name_H-M "P N N A"
_symmetry_group_IT_number 52
_symmetry_cell_setting 'orthorhombic'
loop_
_space_group_symop_operation_xyz
x,y,z
1/2-x,-y,z
x,1/2-y,1/2-z
1/2-x,1/2+y,1/2-z
-x,-y,-z
1/2+x,y,-z
-x,1/2+y,1/2+z
1/2+x,1/2-y,1/2+z
loop_
_atom_site_type_symbol
_atom_site_label
_atom_site_fract_x
_atom_site_fract_y
_atom_site_fract_z
Si Si1 0.015328 0.808767 0.505368
Si Si2 0.844467 0.471864 0.739676
Si Si3 0.110390 0.443819 0.475378
Si Si4 0.090977 0.939709 0.851823
Si Si5 0.994239 0.456508 0.117823
Si Si6 0.124141 0.301356 0.575431
Si Si7 0.548947 0.829705 0.750938
Si Si8 0.833368 0.217932 0.130256
O O1 0.998846 0.874155 0.587218
O O2 0.928709 0.756024 0.499567
O O3 0.021580 0.840849 0.379280
O O4 0.106324 0.762231 0.538614
O O5 0.750000 0.500000 0.795673
O O6 0.845160 0.508268 0.618856
O O7 0.923402 0.509126 0.811879
O O8 0.876656 0.390797 0.721923
O O9 0.123161 0.487966 0.589908
O O10 0.150536 0.367542 0.498481
O O11 0.006379 0.430782 0.423792
O O12 0.143686 0.865804 0.871888
O O13 0.084408 0.955452 0.717323
O O14 0.000000 0.500000 0.000000
O O15 0.043836 0.325992 0.667889
O O16 0.221727 0.272572 0.621711
O O17 0.588458 0.750000 0.750000
O O18 0.864898 0.250000 0.250000
#
# Coordination Sequence:
#
# PCOD9411175 Si02
#       8
#     8   8   8   8   8   8   8   8
#     4  11  23  41  66  91 131 178 221 278 344 402
#     4  11  25  42  68 102 135 178 231 282 337 417
#     4  10  22  39  65  95 131 167 220 274 349 393
#     4  10  21  40  67  94 128 175 214 277 331 405
#     4  11  22  43  68  91 133 180 219 274 346 401
#     4  11  24  42  68 101 131 177 223 284 340 412
#     4  10  22  42  66  93 135 176 219 276 344 401
#     4  12  24  41  65  97 136 170 230 281 339 402
#
# _framework density 19.919775999999999
#
# number of rings (size 3 to 8) (size 9 to 14) (size 15 to 20)
#    0.000    1.250    3.750    3.375    3.500    1.000 
#    0.000    0.000    0.000    0.000    0.000    0.000 
#    0.000    0.000    0.000    0.000    0.000    0.000 
#
# Total GULP energy -356299.883995 kJ/mol
# GULP energy per Si atom -5567.185687 kJ/mol
# Density = 1.987444 g / cm^3
# Si number density = 19.919776 Si / 1000 Ang^3
#
#
#
# Elastic Constant Matrix: (Units=GPa)
#
#
# Indices 1 2 3 4 5 6 
#
# 1 81.5333 44.5803 7.0197 0.0000 0.0000 0.0000
# 2 44.5803 113.1619 54.8730 0.0000 0.0000 0.0000
# 3 7.0197 54.8730 102.5244 0.0000 0.0000 0.0000
# 4 0.0000 0.0000 0.0000 24.5498 0.0000 0.0000
# 5 0.0000 0.0000 0.0000 0.0000 36.8519 0.0000
# 6 0.0000 0.0000 0.0000 0.0000 0.0000 -6.8444
#
#
#
# Elastic Compliance Matrix: (Units=1/GPa)
#
#
# Indices 1 2 3 4 5 6 
#
# 1 0.016350 -0.007965 0.003144 0.000000 0.000000 0.000000
# 2 -0.007965 0.015815 -0.007919 0.000000 0.000000 0.000000
# 3 0.003144 -0.007919 0.013777 0.000000 0.000000 0.000000
# 4 0.000000 0.000000 0.000000 0.040734 0.000000 0.000000
# 5 0.000000 0.000000 0.000000 0.000000 0.027136 0.000000
# 6 0.000000 0.000000 0.000000 0.000000 0.000000 -0.146105
#
#
# Mechanical properties :
#
#
# Convention : Reuss Voigt Hill
#
# Bulk Modulus (GPa) = 48.87560 56.68507 52.78033
# Shear Modulus (GPa) = 734849.38654 23.62789 367436.50721
#
# Velocity S-wave (km/s) = 608.03396 3.44779 429.95185
# Velocity P-wave (km/s) = 702.11465 6.66094 496.49237
#
# Compressibility (1/GPa) = 0.02046011
#
# Stress axis : x y z
#
# Youngs Moduli (GPa) = 61.16382 63.23153 72.58492
#
# Poissons Ratio (x) = 0.50366 -0.22819
# Poissons Ratio (y) = 0.48719 0.57480
# Poissons Ratio (z) = -0.19229 0.50073
#
# Static dielectric constant tensor:
#      x y z
#    x 1.459570 0.000000 0.000000 
#    y 0.000000 1.703990 0.000000 
#    z 0.000000 0.000000 1.755040 
# 
# From -- ./inp_files/19863.got.cif
#   From: 2010.05.17/outbox.cif.g08.bks.cpg/sg52_10_cif.got.tgz:19863.got - 2010.06.03 12:15:38.
