data_PCOD9411406
_publ_section_title
;
Structure prediction by ZEFSAII (Michael W. Deem and Ramdas Pophale) SiO2 
 PCOD9411406
Probable space group: P N N A
;
_chemical_formula_sum "Si O2"
_cell_formula_units_Z 40
_cell_length_a 30.338691
_cell_length_b 11.417868
_cell_length_c 5.264824
_cell_angle_alpha 90.000000
_cell_angle_beta 90.000000
_cell_angle_gamma 90.000000
_cell_volume 1823.751719
_symmetry_space_group_name_H-M "P N N A"
_symmetry_group_IT_number 52
_symmetry_cell_setting 'orthorhombic'
loop_
_space_group_symop_operation_xyz
x,y,z
1/2-x,-y,z
x,1/2-y,1/2-z
1/2-x,1/2+y,1/2-z
-x,-y,-z
1/2+x,y,-z
-x,1/2+y,1/2+z
1/2+x,1/2-y,1/2+z
loop_
_atom_site_type_symbol
_atom_site_label
_atom_site_fract_x
_atom_site_fract_y
_atom_site_fract_z
Si Si1 0.161535 0.386274 0.750792
Si Si2 0.438793 0.209675 0.502726
Si Si3 0.571150 0.059177 0.490402
Si Si4 0.717138 0.390385 0.755201
Si Si5 0.024227 0.375197 0.495786
O O1 0.147931 0.250000 0.750000
O O2 0.120787 0.452338 0.884829
O O3 0.179269 0.406667 0.464330
O O4 0.200015 0.402897 0.956564
O O5 0.413027 0.250000 0.750000
O O6 0.484115 0.283914 0.513412
O O7 0.447348 0.072704 0.497104
O O8 0.414885 0.250000 0.250000
O O9 0.558618 0.118732 0.759288
O O10 0.548475 0.127941 0.262979
O O11 0.750000 0.500000 0.708890
O O12 0.731234 0.250000 0.750000
O O13 0.000000 0.500000 0.500000
#
# Coordination Sequence:
#
# PCOD9411406 Si02
#       5
#     8   8   8   8   8
#     4  10  23  43  66  99 134 174 212 262 328 394
#     4  12  23  38  57  82 113 159 218 276 332 374
#     4  12  24  42  61  87 127 167 222 279 328 383
#     4  10  21  43  76 106 137 170 214 259 320 412
#     4  12  23  39  61  83 114 168 232 267 334 378
#
# _framework density 21.932811999999998
#
# number of rings (size 3 to 8) (size 9 to 14) (size 15 to 20)
#    0.000    0.800    4.000    3.600    0.000    2.400 
#    0.000    3.000    0.000    0.000    0.000    0.000 
#    0.000    0.000    0.000    0.000    0.000    0.000 
#
# Total GULP energy -223144.164744 kJ/mol
# GULP energy per Si atom -5578.604119 kJ/mol
# Density = 2.188289 g / cm^3
# Si number density = 21.932812 Si / 1000 Ang^3
#
#
#
# Elastic Constant Matrix: (Units=GPa)
#
#
# Indices 1 2 3 4 5 6 
#
# 1 53.1418 40.2239 -1.1021 0.0000 0.0000 0.0000
# 2 40.2239 156.2652 21.2313 0.0000 0.0000 0.0000
# 3 -1.1021 21.2313 166.8598 0.0000 0.0000 0.0000
# 4 0.0000 0.0000 0.0000 18.4358 0.0000 0.0000
# 5 0.0000 0.0000 0.0000 0.0000 2.2158 0.0000
# 6 0.0000 0.0000 0.0000 0.0000 0.0000 7.4797
#
#
#
# Elastic Compliance Matrix: (Units=1/GPa)
#
#
# Indices 1 2 3 4 5 6 
#
# 1 0.023516 -0.006181 0.000942 0.000000 0.000000 0.000000
# 2 -0.006181 0.008137 -0.001076 0.000000 0.000000 0.000000
# 3 0.000942 -0.001076 0.006136 0.000000 0.000000 0.000000
# 4 0.000000 0.000000 0.000000 0.054242 0.000000 0.000000
# 5 0.000000 0.000000 0.000000 0.000000 0.451309 0.000000
# 6 0.000000 0.000000 0.000000 0.000000 0.000000 0.133695
#
#
# Mechanical properties :
#
#
# Convention : Reuss Voigt Hill
#
# Bulk Modulus (GPa) = 39.74928 55.21923 47.48425
# Shear Modulus (GPa) = 7.16280 26.68718 16.92499
#
# Velocity S-wave (km/s) = 1.80911 3.49201 2.78092
# Velocity P-wave (km/s) = 4.74620 6.44127 5.65758
#
# Compressibility (1/GPa) = 0.02515769
#
# Stress axis : x y z
#
# Youngs Moduli (GPa) = 42.52484 122.90067 162.96723
#
# Poissons Ratio (x) = 0.75966 -0.15348
# Poissons Ratio (y) = 0.26285 0.17537
# Poissons Ratio (z) = -0.04005 0.13226
#
# Static dielectric constant tensor:
#      x y z
#    x 1.889080 0.000000 0.000000 
#    y 0.000000 1.846830 0.000000 
#    z 0.000000 0.000000 1.944640 
# 
# From -- ./inp_files/6326.got.cif
#   From: 2010.05.17/outbox.cif.g08.bks.cpg/sg52_4_cif.got.tgz:6326.got - 2010.06.03 12:15:38.
