data_PCOD9411969
_publ_section_title
;
Structure prediction by ZEFSAII (Michael W. Deem and Ramdas Pophale) SiO2 
 PCOD9411969
Probable space group: P N N A
;
_chemical_formula_sum "Si O2"
_cell_formula_units_Z 56
_cell_length_a 15.133155
_cell_length_b 12.737723
_cell_length_c 13.658861
_cell_angle_alpha 90.000000
_cell_angle_beta 90.000000
_cell_angle_gamma 90.000000
_cell_volume 2632.908497
_symmetry_space_group_name_H-M "P N N A"
_symmetry_group_IT_number 52
_symmetry_cell_setting 'orthorhombic'
loop_
_space_group_symop_operation_xyz
x,y,z
1/2-x,-y,z
x,1/2-y,1/2-z
1/2-x,1/2+y,1/2-z
-x,-y,-z
1/2+x,y,-z
-x,1/2+y,1/2+z
1/2+x,1/2-y,1/2+z
loop_
_atom_site_type_symbol
_atom_site_label
_atom_site_fract_x
_atom_site_fract_y
_atom_site_fract_z
Si Si1 0.857096 0.742068 0.485210
Si Si2 0.433615 0.920599 0.835091
Si Si3 0.584046 0.631363 0.256338
Si Si4 0.700800 0.342369 0.680928
Si Si5 0.121175 0.947304 0.245758
Si Si6 0.544378 0.436319 0.914396
Si Si7 0.223529 0.112457 0.678020
O O1 0.910754 0.650494 0.428621
O O2 0.795845 0.693663 0.569401
O O3 0.916748 0.829010 0.541273
O O4 0.801683 0.804224 0.403640
O O5 0.530240 0.896398 0.791141
O O6 0.358442 0.897531 0.752939
O O7 0.430380 0.048460 0.844782
O O8 0.550739 0.750000 0.250000
O O9 0.531572 0.580687 0.166058
O O10 0.688484 0.637204 0.238364
O O11 0.664845 0.250000 0.750000
O O12 0.795105 0.375223 0.725013
O O13 0.639159 0.444418 0.687267
O O14 0.114131 0.989667 0.356976
O O15 0.500000 0.500000 0.000000
O O16 0.250000 0.000000 0.631642
#
# Coordination Sequence:
#
# PCOD9411969 Si02
#       7
#     8   8   8   8   8   8   8
#     4  12  24  40  70 101 138 180 241 286 350 424
#     4  10  23  42  71  98 137 178 231 301 352 415
#     4  10  22  42  68  93 137 179 218 280 366 408
#     4  11  25  45  67  95 138 194 225 285 356 431
#     4  10  24  47  65  94 142 180 231 287 359 413
#     4  11  24  42  71 103 132 179 238 288 348 428
#     4  10  22  44  66 100 136 176 223 295 358 403
#
# _framework density 21.269254
#
# number of rings (size 3 to 8) (size 9 to 14) (size 15 to 20)
#    0.000    1.429    1.429    3.857    4.000    6.286 
#   12.857    0.000    0.000    0.000    0.000    0.000 
#    0.000    0.000    0.000    0.000    0.000    0.000 
#
# Total GULP energy -312667.755179 kJ/mol
# GULP energy per Si atom -5583.352771 kJ/mol
# Density = 2.122084 g / cm^3
# Si number density = 21.269254 Si / 1000 Ang^3
#
#
#
# Elastic Constant Matrix: (Units=GPa)
#
#
# Indices 1 2 3 4 5 6 
#
# 1 129.2168 27.4696 37.6688 0.0000 0.0000 0.0000
# 2 27.4696 123.3606 56.0918 0.0000 0.0000 0.0000
# 3 37.6688 56.0918 93.8905 0.0000 0.0000 0.0000
# 4 0.0000 0.0000 0.0000 22.6984 0.0000 0.0000
# 5 0.0000 0.0000 0.0000 0.0000 -6.9631 0.0000
# 6 0.0000 0.0000 0.0000 0.0000 0.0000 11.6102
#
#
#
# Elastic Compliance Matrix: (Units=1/GPa)
#
#
# Indices 1 2 3 4 5 6 
#
# 1 0.008785 -0.000486 -0.003234 0.000000 0.000000 0.000000
# 2 -0.000486 0.011156 -0.006470 0.000000 0.000000 0.000000
# 3 -0.003234 -0.006470 0.015814 0.000000 0.000000 0.000000
# 4 0.000000 0.000000 0.000000 0.044056 0.000000 0.000000
# 5 0.000000 0.000000 0.000000 0.000000 -0.143614 0.000000
# 6 0.000000 0.000000 0.000000 0.000000 0.000000 0.086131
#
#
# Mechanical properties :
#
#
# Convention : Reuss Voigt Hill
#
# Bulk Modulus (GPa) = 65.04162 65.43649 65.23905
# Shear Modulus (GPa) = 104.52929 20.48496 62.50713
#
# Velocity S-wave (km/s) = 7.01801 3.10679 5.42700
# Velocity P-wave (km/s) = 9.81409 6.61076 8.36715
#
# Compressibility (1/GPa) = 0.01537477
#
# Stress axis : x y z
#
# Youngs Moduli (GPa) = 113.82973 89.63436 63.23585
#
# Poissons Ratio (x) = 0.04352 0.20454
# Poissons Ratio (y) = 0.05527 0.40915
# Poissons Ratio (z) = 0.36818 0.57996
#
# Static dielectric constant tensor:
#      x y z
#    x 1.764980 0.000000 0.000000 
#    y 0.000000 3.049990 0.000000 
#    z 0.000000 0.000000 1.742380 
# 
# From -- ./inp_files/27278.got.cif
#   From: 2010.05.17/outbox.cif.g08.bks.cpg/sg52_14_cif.got.tgz:27278.got - 2010.06.03 12:15:38.
