data_PCOD9411016
_publ_section_title
;
Structure prediction by ZEFSAII (Michael W. Deem and Ramdas Pophale) SiO2 
 PCOD9411016
Probable space group: P N N A
;
_chemical_formula_sum "Si O2"
_cell_formula_units_Z 64
_cell_length_a 13.612087
_cell_length_b 9.437990
_cell_length_c 24.347978
_cell_angle_alpha 90.000000
_cell_angle_beta 90.000000
_cell_angle_gamma 90.000000
_cell_volume 3128.002775
_symmetry_space_group_name_H-M "P N N A"
_symmetry_group_IT_number 52
_symmetry_cell_setting 'orthorhombic'
loop_
_space_group_symop_operation_xyz
x,y,z
1/2-x,-y,z
x,1/2-y,1/2-z
1/2-x,1/2+y,1/2-z
-x,-y,-z
1/2+x,y,-z
-x,1/2+y,1/2+z
1/2+x,1/2-y,1/2+z
loop_
_atom_site_type_symbol
_atom_site_label
_atom_site_fract_x
_atom_site_fract_y
_atom_site_fract_z
Si Si1 0.810213 0.643259 0.295552
Si Si2 0.347155 0.589490 0.991631
Si Si3 0.950988 0.669978 0.805040
Si Si4 0.972478 0.368950 0.074587
Si Si5 0.181719 0.363603 0.581795
Si Si6 0.648496 0.077499 0.856434
Si Si7 0.516311 0.936546 0.058792
Si Si8 0.961368 0.095322 0.765067
O O1 0.750000 0.500000 0.294442
O O2 0.771141 0.750000 0.250000
O O3 0.797642 0.699660 0.357802
O O4 0.922517 0.608612 0.278006
O O5 0.250000 0.500000 0.007136
O O6 0.403314 0.495661 0.945310
O O7 0.322893 0.741807 0.964094
O O8 0.423755 0.606458 0.042326
O O9 0.992092 0.750000 0.750000
O O10 0.015583 0.651602 0.859989
O O11 0.860546 0.770532 0.825111
O O12 0.934478 0.512361 0.783717
O O13 0.931804 0.216147 0.055117
O O14 0.250000 0.500000 0.568251
O O15 0.077882 0.444149 0.589752
O O16 0.586106 0.092471 0.911478
O O17 0.750000 0.000000 0.866486
O O18 0.589372 0.970904 0.817613
O O19 0.500000 0.000000 0.000000
O O20 0.924709 0.250000 0.750000
#
# Coordination Sequence:
#
# PCOD9411016 Si02
#       8
#     8   8   8   8   8   8   8   8
#     4  10  23  40  61  97 133 170 223 268 323 397
#     4  11  24  44  64  96 137 175 219 270 335 404
#     4   9  21  42  65  91 129 167 218 274 331 395
#     4  10  23  43  66  95 131 175 222 269 337 397
#     4  11  23  42  68  96 128 169 220 270 327 396
#     4  10  22  41  62  94 126 165 216 267 319 393
#     4  11  21  42  65  92 128 167 214 269 322 382
#     4  10  21  39  65  93 127 170 213 266 334 389
#
# _framework density 20.460341
#
# number of rings (size 3 to 8) (size 9 to 14) (size 15 to 20)
#    0.000    1.750    2.500    0.750    3.500    4.000 
#    6.750    2.500    0.000    0.000    0.000    0.000 
#    0.000    0.000    0.000    0.000    0.000    0.000 
#
# Total GULP energy -356863.085896 kJ/mol
# GULP energy per Si atom -5575.985717 kJ/mol
# Density = 2.041377 g / cm^3
# Si number density = 20.460341 Si / 1000 Ang^3
#
#
#
# Elastic Constant Matrix: (Units=GPa)
#
#
# Indices 1 2 3 4 5 6 
#
# 1 45.4088 12.7234 5.9791 0.0000 0.0000 0.0000
# 2 12.7234 126.7360 37.8395 0.0000 0.0000 0.0000
# 3 5.9791 37.8395 106.4621 0.0000 0.0000 0.0000
# 4 0.0000 0.0000 0.0000 29.5848 0.0000 0.0000
# 5 0.0000 0.0000 0.0000 0.0000 10.6736 0.0000
# 6 0.0000 0.0000 0.0000 0.0000 0.0000 27.9323
#
#
#
# Elastic Compliance Matrix: (Units=1/GPa)
#
#
# Indices 1 2 3 4 5 6 
#
# 1 0.022685 -0.002122 -0.000520 0.000000 0.000000 0.000000
# 2 -0.002122 0.009026 -0.003089 0.000000 0.000000 0.000000
# 3 -0.000520 -0.003089 0.010520 0.000000 0.000000 0.000000
# 4 0.000000 0.000000 0.000000 0.033801 0.000000 0.000000
# 5 0.000000 0.000000 0.000000 0.000000 0.093689 0.000000
# 6 0.000000 0.000000 0.000000 0.000000 0.000000 0.035801
#
#
# Mechanical properties :
#
#
# Convention : Reuss Voigt Hill
#
# Bulk Modulus (GPa) = 32.49982 43.52122 38.01052
# Shear Modulus (GPa) = 22.00319 28.44247 25.22283
#
# Velocity S-wave (km/s) = 3.28290 3.73249 3.51489
# Velocity P-wave (km/s) = 5.50351 6.31605 5.92373
#
# Compressibility (1/GPa) = 0.03076940
#
# Stress axis : x y z
#
# Youngs Moduli (GPa) = 44.08154 110.79475 95.05662
#
# Poissons Ratio (x) = 0.23513 0.04941
# Poissons Ratio (y) = 0.09355 0.29361
# Poissons Ratio (z) = 0.02291 0.34222
#
# Static dielectric constant tensor:
#      x y z
#    x 1.802180 0.000000 0.000000 
#    y 0.000000 1.933510 0.000000 
#    z 0.000000 0.000000 1.808910 
# 
# From -- ./inp_files/40688.got.cif
#   From: 2010.05.17/outbox.cif.g08.bks.cpg/sg52_21_cif.got.tgz:40688.got - 2010.06.03 12:15:38.
