data_PCOD9411274
_publ_section_title
;
Structure prediction by ZEFSAII (Michael W. Deem and Ramdas Pophale) SiO2 
 PCOD9411274
Probable space group: P N N A
;
_chemical_formula_sum "Si O2"
_cell_formula_units_Z 32
_cell_length_a 7.246563
_cell_length_b 13.563885
_cell_length_c 11.815170
_cell_angle_alpha 90.000000
_cell_angle_beta 90.000000
_cell_angle_gamma 90.000000
_cell_volume 1161.331339
_symmetry_space_group_name_H-M "P N N A"
_symmetry_group_IT_number 52
_symmetry_cell_setting 'orthorhombic'
loop_
_space_group_symop_operation_xyz
x,y,z
1/2-x,-y,z
x,1/2-y,1/2-z
1/2-x,1/2+y,1/2-z
-x,-y,-z
1/2+x,y,-z
-x,1/2+y,1/2+z
1/2+x,1/2-y,1/2+z
loop_
_atom_site_type_symbol
_atom_site_label
_atom_site_fract_x
_atom_site_fract_y
_atom_site_fract_z
Si Si1 0.093724 0.412589 0.355541
Si Si2 0.397054 0.299414 0.459321
Si Si3 0.970794 0.007784 0.633341
Si Si4 0.227953 0.304132 0.852799
O O1 0.250000 0.500000 0.369348
O O2 0.229056 0.319687 0.374938
O O3 0.990357 0.431369 0.236598
O O4 0.945557 0.389565 0.454832
O O5 0.355333 0.202521 0.535680
O O6 0.575839 0.279022 0.386767
O O7 0.102965 0.099924 0.663591
O O8 0.750000 0.000000 0.640684
O O9 0.000000 0.000000 0.500000
O O10 0.326045 0.250000 0.750000
#
# Coordination Sequence:
#
# PCOD9411274 Si02
#       4
#     8   8   8   8
#     4  10  21  41  68  99 129 169 222 279 332 395
#     4  10  23  41  67  96 132 174 222 277 337 399
#     4  11  24  42  65  95 133 177 222 275 333 398
#     4  11  23  42  63  94 132 174 220 273 334 400
#
# _framework density 27.554583999999998
#
# number of rings (size 3 to 8) (size 9 to 14) (size 15 to 20)
#    0.000    1.500    0.000    5.250    0.000    6.000 
#    0.000    7.500    0.000    0.000    0.000    0.000 
#    0.000    0.000    0.000    0.000    0.000    0.000 
#
# Total GULP energy -178541.126037 kJ/mol
# GULP energy per Si atom -5579.410189 kJ/mol
# Density = 2.749187 g / cm^3
# Si number density = 27.554584 Si / 1000 Ang^3
#
#
#
# Elastic Constant Matrix: (Units=GPa)
#
#
# Indices 1 2 3 4 5 6 
#
# 1 106.6877 40.7029 13.3921 0.0000 0.0000 0.0000
# 2 40.7029 143.5537 85.5107 0.0000 0.0000 0.0000
# 3 13.3921 85.5107 138.8026 0.0000 0.0000 0.0000
# 4 0.0000 0.0000 0.0000 40.1615 0.0000 0.0000
# 5 0.0000 0.0000 0.0000 0.0000 13.4694 0.0000
# 6 0.0000 0.0000 0.0000 0.0000 0.0000 42.4990
#
#
#
# Elastic Compliance Matrix: (Units=1/GPa)
#
#
# Indices 1 2 3 4 5 6 
#
# 1 0.010660 -0.003807 0.001317 0.000000 0.000000 0.000000
# 2 -0.003807 0.012364 -0.007250 0.000000 0.000000 0.000000
# 3 0.001317 -0.007250 0.011544 0.000000 0.000000 0.000000
# 4 0.000000 0.000000 0.000000 0.024899 0.000000 0.000000
# 5 0.000000 0.000000 0.000000 0.000000 0.074242 0.000000
# 6 0.000000 0.000000 0.000000 0.000000 0.000000 0.023530
#
#
# Mechanical properties :
#
#
# Convention : Reuss Voigt Hill
#
# Bulk Modulus (GPa) = 66.27689 74.25061 70.26375
# Shear Modulus (GPa) = 27.51059 35.85520 31.68289
#
# Velocity S-wave (km/s) = 3.16318 3.61119 3.39458
# Velocity P-wave (km/s) = 6.11932 6.66279 6.39683
#
# Compressibility (1/GPa) = 0.01508822
#
# Stress axis : x y z
#
# Youngs Moduli (GPa) = 93.80620 80.88146 86.62841
#
# Poissons Ratio (x) = 0.30791 -0.11407
# Poissons Ratio (y) = 0.35712 0.62801
# Poissons Ratio (z) = -0.12352 0.58635
#
# Static dielectric constant tensor:
#      x y z
#    x 2.258630 0.000000 0.000000 
#    y 0.000000 2.285400 0.000000 
#    z 0.000000 0.000000 2.151660 
# 
# From -- ./inp_files/16435.got.cif
#   From: 2010.05.17/outbox.cif.g08.bks.cpg/sg52_9_cif.got.tgz:16435.got - 2010.06.03 12:15:38.
