data_PCOD9411790
_publ_section_title
;
Structure prediction by ZEFSAII (Michael W. Deem and Ramdas Pophale) SiO2 
 PCOD9411790
Probable space group: P N N A
;
_chemical_formula_sum "Si O2"
_cell_formula_units_Z 32
_cell_length_a 13.436156
_cell_length_b 12.363846
_cell_length_c 8.376609
_cell_angle_alpha 90.000000
_cell_angle_beta 90.000000
_cell_angle_gamma 90.000000
_cell_volume 1391.543761
_symmetry_space_group_name_H-M "P N N A"
_symmetry_group_IT_number 52
_symmetry_cell_setting 'orthorhombic'
loop_
_space_group_symop_operation_xyz
x,y,z
1/2-x,-y,z
x,1/2-y,1/2-z
1/2-x,1/2+y,1/2-z
-x,-y,-z
1/2+x,y,-z
-x,1/2+y,1/2+z
1/2+x,1/2-y,1/2+z
loop_
_atom_site_type_symbol
_atom_site_label
_atom_site_fract_x
_atom_site_fract_y
_atom_site_fract_z
Si Si1 0.769195 0.250000 0.250000
Si Si2 0.049404 0.539830 0.283443
Si Si3 0.658236 0.750000 0.750000
Si Si4 0.153744 0.075033 0.937461
Si Si5 0.827058 0.408258 0.004307
O O1 0.696471 0.188269 0.126000
O O2 0.839058 0.166113 0.343017
O O3 0.090053 0.659874 0.339688
O O4 0.103020 0.447861 0.389594
O O5 0.083531 0.542316 0.099762
O O6 0.932911 0.539118 0.315556
O O7 0.717246 0.674898 0.870706
O O8 0.250000 0.000000 0.937183
O O9 0.750000 0.500000 0.045071
#
# Coordination Sequence:
#
# PCOD9411790 Si02
#       5
#     4   8   4   8   8
#     4  12  25  40  66 105 146 180 237 300 360 417
#     4   9  21  40  71 103 139 188 240 284 360 434
#     4   8  19  38  70  95 134 186 233 280 342 431
#     4  11  22  41  71 102 142 187 234 301 352 418
#     4  10  22  40  69 106 136 186 238 294 356 428
#
# _framework density 22.996041999999999
#
# number of rings (size 3 to 8) (size 9 to 14) (size 15 to 20)
#    1.500    0.500    0.000    3.750    3.500    0.000 
#    0.000    5.000    0.000    4.500    0.000    0.000 
#    0.000    0.000    0.000    0.000    0.000    0.000 
#
# Total GULP energy -178223.439781 kJ/mol
# GULP energy per Si atom -5569.482493 kJ/mol
# Density = 2.294370 g / cm^3
# Si number density = 22.996042 Si / 1000 Ang^3
#
#
#
# Elastic Constant Matrix: (Units=GPa)
#
#
# Indices 1 2 3 4 5 6 
#
# 1 113.6142 16.9510 65.8691 0.0000 0.0000 0.0000
# 2 16.9510 73.5887 36.9547 0.0000 0.0000 0.0000
# 3 65.8691 36.9547 105.9027 0.0000 0.0000 0.0000
# 4 0.0000 0.0000 0.0000 60.4663 0.0000 0.0000
# 5 0.0000 0.0000 0.0000 0.0000 -38.4970 0.0000
# 6 0.0000 0.0000 0.0000 0.0000 0.0000 35.0009
#
#
#
# Elastic Compliance Matrix: (Units=1/GPa)
#
#
# Indices 1 2 3 4 5 6 
#
# 1 0.013880 0.001380 -0.009115 0.000000 0.000000 0.000000
# 2 0.001380 0.016613 -0.006656 0.000000 0.000000 0.000000
# 3 -0.009115 -0.006656 0.017434 0.000000 0.000000 0.000000
# 4 0.000000 0.000000 0.000000 0.016538 0.000000 0.000000
# 5 0.000000 0.000000 0.000000 0.000000 -0.025976 0.000000
# 6 0.000000 0.000000 0.000000 0.000000 0.000000 0.028571
#
#
# Mechanical properties :
#
#
# Convention : Reuss Voigt Hill
#
# Bulk Modulus (GPa) = 52.22684 59.18392 55.70538
# Shear Modulus (GPa) = 48.91239 22.94943 35.93091
#
# Velocity S-wave (km/s) = 4.61694 3.16250 3.95711
# Velocity P-wave (km/s) = 7.15416 6.25521 6.71973
#
# Compressibility (1/GPa) = 0.01914724
#
# Stress axis : x y z
#
# Youngs Moduli (GPa) = 72.04521 60.19213 57.35849
#
# Poissons Ratio (x) = -0.08306 0.52280
# Poissons Ratio (y) = -0.09942 0.38175
# Poissons Ratio (z) = 0.65667 0.40061
#
# Static dielectric constant tensor:
#      x y z
#    x 1.792460 0.000000 0.000000 
#    y 0.000000 1.678580 0.000000 
#    z 0.000000 0.000000 1.945150 
# 
# From -- ./inp_files/9615.got.cif
#   From: 2010.05.17/outbox.cif.g08.bks.cpg/sg52_5_cif.got.tgz:9615.got - 2010.06.03 12:15:38.
