data_PCOD9411822
_publ_section_title
;
Structure prediction by ZEFSAII (Michael W. Deem and Ramdas Pophale) SiO2 
 PCOD9411822
Probable space group: P N N A
;
_chemical_formula_sum "Si O2"
_cell_formula_units_Z 28
_cell_length_a 14.185504
_cell_length_b 5.122549
_cell_length_c 17.400936
_cell_angle_alpha 90.000000
_cell_angle_beta 90.000000
_cell_angle_gamma 90.000000
_cell_volume 1264.455360
_symmetry_space_group_name_H-M "P N N A"
_symmetry_group_IT_number 52
_symmetry_cell_setting 'orthorhombic'
loop_
_space_group_symop_operation_xyz
x,y,z
1/2-x,-y,z
x,1/2-y,1/2-z
1/2-x,1/2+y,1/2-z
-x,-y,-z
1/2+x,y,-z
-x,1/2+y,1/2+z
1/2+x,1/2-y,1/2+z
loop_
_atom_site_type_symbol
_atom_site_label
_atom_site_fract_x
_atom_site_fract_y
_atom_site_fract_z
Si Si1 0.970746 0.250000 0.750000
Si Si2 0.605145 0.750000 0.250000
Si Si3 0.124014 0.285389 0.513172
Si Si4 0.750000 0.000000 0.369093
Si Si5 0.085843 0.774709 0.419250
O O1 0.037716 0.501808 0.736823
O O2 0.910389 0.225656 0.672430
O O3 0.673900 0.844939 0.318030
O O4 0.198366 0.207627 0.577191
O O5 0.138782 0.550438 0.466631
O O6 0.023216 0.279239 0.557064
O O7 0.116909 0.052143 0.451795
#
# Coordination Sequence:
#
# PCOD9411822 Si02
#       5
#     4   4   8   4   8
#     4  12  23  44  66  94 131 168 218 272 321 392
#     4  12  27  38  62 102 135 170 192 272 347 408
#     4  10  23  39  62  88 131 168 215 256 315 393
#     4  12  26  42  62 100 140 170 212 268 348 406
#     4  10  22  41  61  90 123 175 214 259 309 382
#
# _framework density 22.143919
#
# number of rings (size 3 to 8) (size 9 to 14) (size 15 to 20)
#    0.000    1.143    2.857    2.571    8.000    3.429 
#    0.000    0.000    0.000    3.429    0.000    0.000 
#    0.000    0.000    0.000    0.000    0.000    0.000 
#
# Total GULP energy -156829.693327 kJ/mol
# GULP energy per Si atom -5601.060476 kJ/mol
# Density = 2.209352 g / cm^3
# Si number density = 22.143919 Si / 1000 Ang^3
#
#
#
# Elastic Constant Matrix: (Units=GPa)
#
#
# Indices 1 2 3 4 5 6 
#
# 1 40.9453 9.5415 19.7489 0.0000 0.0000 0.0000
# 2 9.5415 90.1477 29.3332 0.0000 0.0000 0.0000
# 3 19.7489 29.3332 174.3027 0.0000 0.0000 0.0000
# 4 0.0000 0.0000 0.0000 21.2668 0.0000 0.0000
# 5 0.0000 0.0000 0.0000 0.0000 104.6661 0.0000
# 6 0.0000 0.0000 0.0000 0.0000 0.0000 7.3609
#
#
#
# Elastic Compliance Matrix: (Units=1/GPa)
#
#
# Indices 1 2 3 4 5 6 
#
# 1 0.026141 -0.001908 -0.002641 0.000000 0.000000 0.000000
# 2 -0.001908 0.011875 -0.001782 0.000000 0.000000 0.000000
# 3 -0.002641 -0.001782 0.006336 0.000000 0.000000 0.000000
# 4 0.000000 0.000000 0.000000 0.047022 0.000000 0.000000
# 5 0.000000 0.000000 0.000000 0.000000 0.009554 0.000000
# 6 0.000000 0.000000 0.000000 0.000000 0.000000 0.135854
#
#
# Mechanical properties :
#
#
# Convention : Reuss Voigt Hill
#
# Bulk Modulus (GPa) = 31.55486 46.96032 39.25759
# Shear Modulus (GPa) = 19.23029 43.11023 31.17026
#
# Velocity S-wave (km/s) = 2.95010 4.41707 3.75590
# Velocity P-wave (km/s) = 5.08772 6.87509 6.04780
#
# Compressibility (1/GPa) = 0.03169084
#
# Stress axis : x y z
#
# Youngs Moduli (GPa) = 38.25396 84.21234 157.82105
#
# Poissons Ratio (x) = 0.16064 0.41678
# Poissons Ratio (y) = 0.07297 0.28128
# Poissons Ratio (z) = 0.10102 0.15009
#
# Static dielectric constant tensor:
#      x y z
#    x 1.843090 0.000000 0.000000 
#    y 0.000000 1.801470 0.000000 
#    z 0.000000 0.000000 1.787070 
# 
# From -- ./inp_files/32565.got.cif
#   From: 2010.05.17/outbox.cif.g08.bks.cpg/sg52_17_cif.got.tgz:32565.got - 2010.06.03 12:15:38.
