data_PCOD9411913
_publ_section_title
;
Structure prediction by ZEFSAII (Michael W. Deem and Ramdas Pophale) SiO2 
 PCOD9411913
Probable space group: P N N A
;
_chemical_formula_sum "Si O2"
_cell_formula_units_Z 40
_cell_length_a 17.175043
_cell_length_b 7.628331
_cell_length_c 15.001409
_cell_angle_alpha 90.000000
_cell_angle_beta 90.000000
_cell_angle_gamma 90.000000
_cell_volume 1965.438297
_symmetry_space_group_name_H-M "P N N A"
_symmetry_group_IT_number 52
_symmetry_cell_setting 'orthorhombic'
loop_
_space_group_symop_operation_xyz
x,y,z
1/2-x,-y,z
x,1/2-y,1/2-z
1/2-x,1/2+y,1/2-z
-x,-y,-z
1/2+x,y,-z
-x,1/2+y,1/2+z
1/2+x,1/2-y,1/2+z
loop_
_atom_site_type_symbol
_atom_site_label
_atom_site_fract_x
_atom_site_fract_y
_atom_site_fract_z
Si Si1 0.324678 0.605962 0.175325
Si Si2 0.976658 0.540359 0.601076
Si Si3 0.680173 0.129002 0.973546
Si Si4 0.490059 0.548340 0.104666
Si Si5 0.404640 0.741099 0.655846
O O1 0.250000 0.500000 0.209049
O O2 0.345319 0.750000 0.250000
O O3 0.297034 0.703704 0.085119
O O4 0.404251 0.507792 0.145518
O O5 0.883517 0.533813 0.590883
O O6 0.998292 0.742828 0.619170
O O7 0.000000 0.500000 0.500000
O O8 0.024057 0.400602 0.658442
O O9 0.750000 0.000000 0.991398
O O10 0.642747 0.190988 0.067001
O O11 0.556411 0.430351 0.146195
O O12 0.500000 0.500000 0.000000
O O13 0.360697 0.750000 0.750000
#
# Coordination Sequence:
#
# PCOD9411913 Si02
#       5
#     8   8   8   8   8
#     4  11  25  40  63  97 133 169 215 271 341 400
#     4   9  19  37  62  92 120 162 211 268 319 372
#     4  10  22  42  62  88 130 167 212 264 322 390
#     4  11  21  41  65  96 128 164 226 266 319 400
#     4  11  24  40  67  95 128 171 219 266 324 381
#
# _framework density 20.351694999999999
#
# number of rings (size 3 to 8) (size 9 to 14) (size 15 to 20)
#    0.000    1.600    6.000    0.600    8.400    0.800 
#    0.000    1.000    0.000    0.000    0.000    0.000 
#    0.000    0.000    0.000    0.000    0.000    0.000 
#
# Total GULP energy -222931.874824 kJ/mol
# GULP energy per Si atom -5573.296871 kJ/mol
# Density = 2.030537 g / cm^3
# Si number density = 20.351695 Si / 1000 Ang^3
#
#
#
# Elastic Constant Matrix: (Units=GPa)
#
#
# Indices 1 2 3 4 5 6 
#
# 1 79.1891 39.6064 23.0105 0.0000 0.0000 0.0000
# 2 39.6064 74.0388 7.1981 0.0000 0.0000 0.0000
# 3 23.0105 7.1981 123.3423 0.0000 0.0000 0.0000
# 4 0.0000 0.0000 0.0000 20.5657 0.0000 0.0000
# 5 0.0000 0.0000 0.0000 0.0000 16.5061 0.0000
# 6 0.0000 0.0000 0.0000 0.0000 0.0000 39.7012
#
#
#
# Elastic Compliance Matrix: (Units=1/GPa)
#
#
# Indices 1 2 3 4 5 6 
#
# 1 0.018179 -0.009449 -0.002840 0.000000 0.000000 0.000000
# 2 -0.009449 0.018494 0.000683 0.000000 0.000000 0.000000
# 3 -0.002840 0.000683 0.008597 0.000000 0.000000 0.000000
# 4 0.000000 0.000000 0.000000 0.048625 0.000000 0.000000
# 5 0.000000 0.000000 0.000000 0.000000 0.060583 0.000000
# 6 0.000000 0.000000 0.000000 0.000000 0.000000 0.025188
#
#
# Mechanical properties :
#
#
# Convention : Reuss Voigt Hill
#
# Bulk Modulus (GPa) = 45.32999 46.24447 45.78723
# Shear Modulus (GPa) = 23.78337 29.13828 26.46083
#
# Velocity S-wave (km/s) = 3.42221 3.78794 3.60971
# Velocity P-wave (km/s) = 6.15931 6.47327 6.31824
#
# Compressibility (1/GPa) = 0.02206045
#
# Stress axis : x y z
#
# Youngs Moduli (GPa) = 55.00874 54.07039 116.31331
#
# Poissons Ratio (x) = 0.51089 0.33033
# Poissons Ratio (y) = 0.51975 -0.07949
# Poissons Ratio (z) = 0.15623 -0.03695
#
# Static dielectric constant tensor:
#      x y z
#    x 1.762990 0.000000 0.000000 
#    y 0.000000 1.735070 0.000000 
#    z 0.000000 0.000000 1.780240 
# 
# From -- ./inp_files/27873.got.cif
#   From: 2010.05.17/outbox.cif.g08.bks.cpg/sg52_14_cif.got.tgz:27873.got - 2010.06.03 12:15:38.
