data_PCOD9411232
_publ_section_title
;
Structure prediction by ZEFSAII (Michael W. Deem and Ramdas Pophale) SiO2 
 PCOD9411232
Probable space group: P N N A
;
_chemical_formula_sum "Si O2"
_cell_formula_units_Z 48
_cell_length_a 13.698533
_cell_length_b 13.491526
_cell_length_c 12.781960
_cell_angle_alpha 90.000000
_cell_angle_beta 90.000000
_cell_angle_gamma 90.000000
_cell_volume 2362.286614
_symmetry_space_group_name_H-M "P N N A"
_symmetry_group_IT_number 52
_symmetry_cell_setting 'orthorhombic'
loop_
_space_group_symop_operation_xyz
x,y,z
1/2-x,-y,z
x,1/2-y,1/2-z
1/2-x,1/2+y,1/2-z
-x,-y,-z
1/2+x,y,-z
-x,1/2+y,1/2+z
1/2+x,1/2-y,1/2+z
loop_
_atom_site_type_symbol
_atom_site_label
_atom_site_fract_x
_atom_site_fract_y
_atom_site_fract_z
Si Si1 0.750000 0.500000 0.684047
Si Si2 0.702016 0.250000 0.250000
Si Si3 0.110507 0.465959 0.501834
Si Si4 0.514300 0.075975 0.407637
Si Si5 0.354287 0.531399 0.733369
Si Si6 0.820335 0.738355 0.027317
Si Si7 0.810317 0.332654 0.833324
O O1 0.838695 0.491915 0.601891
O O2 0.747999 0.408186 0.762373
O O3 0.641407 0.349216 0.270432
O O4 0.746834 0.237777 0.365933
O O5 0.144337 0.507539 0.615228
O O6 0.135828 0.348182 0.504463
O O7 0.000000 0.500000 0.500000
O O8 0.558306 0.011152 0.311332
O O9 0.592174 0.160833 0.445139
O O10 0.410285 0.120494 0.375695
O O11 0.500000 0.000000 0.500000
O O12 0.250000 0.500000 0.779871
O O13 0.755680 0.705624 0.929050
O O14 0.839880 0.250000 0.750000
#
# Coordination Sequence:
#
# PCOD9411232 Si02
#       7
#     4   4   8   8   8   8   8
#     4  12  24  44  66 102 142 184 240 292 366 428
#     4   8  20  38  68  86 124 170 222 268 330 400
#     4  11  23  40  66 100 138 182 231 288 348 427
#     4  11  26  42  71 102 133 184 237 290 363 431
#     4  10  21  41  64  93 132 174 226 279 348 408
#     4  10  23  45  68  98 138 180 233 291 348 427
#     4  12  26  44  73 100 142 189 236 295 366 432
#
# _framework density 20.319296000000001
#
# number of rings (size 3 to 8) (size 9 to 14) (size 15 to 20)
#    0.000    1.333    2.500    2.000   14.000    0.000 
#    0.000    0.000    1.833    0.000    0.000    0.000 
#    0.000    0.000    0.000    0.000    0.000    0.000 
#
# Total GULP energy -267397.269181 kJ/mol
# GULP energy per Si atom -5570.776441 kJ/mol
# Density = 2.027305 g / cm^3
# Si number density = 20.319296 Si / 1000 Ang^3
#
#
#
# Elastic Constant Matrix: (Units=GPa)
#
#
# Indices 1 2 3 4 5 6 
#
# 1 114.2169 3.7164 57.2874 0.0000 0.0000 0.0000
# 2 3.7164 35.7294 35.5061 0.0000 0.0000 0.0000
# 3 57.2874 35.5061 189.9155 0.0000 0.0000 0.0000
# 4 0.0000 0.0000 0.0000 26.2265 0.0000 0.0000
# 5 0.0000 0.0000 0.0000 0.0000 0.4685 0.0000
# 6 0.0000 0.0000 0.0000 0.0000 0.0000 24.8372
#
#
#
# Elastic Compliance Matrix: (Units=1/GPa)
#
#
# Indices 1 2 3 4 5 6 
#
# 1 0.010498 0.002524 -0.003639 0.000000 0.000000 0.000000
# 2 0.002524 0.034981 -0.007301 0.000000 0.000000 0.000000
# 3 -0.003639 -0.007301 0.007728 0.000000 0.000000 0.000000
# 4 0.000000 0.000000 0.000000 0.038129 0.000000 0.000000
# 5 0.000000 0.000000 0.000000 0.000000 2.134604 0.000000
# 6 0.000000 0.000000 0.000000 0.000000 0.000000 0.040262
#
#
# Mechanical properties :
#
#
# Convention : Reuss Voigt Hill
#
# Bulk Modulus (GPa) = 27.49103 59.20905 43.35004
# Shear Modulus (GPa) = 2.17850 26.52989 14.35419
#
# Velocity S-wave (km/s) = 1.03656 3.61730 2.66076
# Velocity P-wave (km/s) = 3.87189 6.83001 5.55160
#
# Compressibility (1/GPa) = 0.03637550
#
# Stress axis : x y z
#
# Youngs Moduli (GPa) = 95.25497 28.58669 129.39781
#
# Poissons Ratio (x) = -0.07215 0.47083
# Poissons Ratio (y) = -0.24041 0.94478
# Poissons Ratio (z) = 0.34659 0.20872
#
# Static dielectric constant tensor:
#      x y z
#    x 1.727740 0.000000 0.000000 
#    y 0.000000 -10.510780 0.000000 
#    z 0.000000 0.000000 1.772560 
# 
# From -- ./inp_files/19586.got.cif
#   From: 2010.05.17/outbox.cif.g08.bks.cpg/sg52_10_cif.got.tgz:19586.got - 2010.06.03 12:15:38.
