data_PCOD9411303
_publ_section_title
;
Structure prediction by ZEFSAII (Michael W. Deem and Ramdas Pophale) SiO2 
 PCOD9411303
Probable space group: P N N A
;
_chemical_formula_sum "Si O2"
_cell_formula_units_Z 36
_cell_length_a 13.642617
_cell_length_b 17.271088
_cell_length_c 8.209160
_cell_angle_alpha 90.000000
_cell_angle_beta 90.000000
_cell_angle_gamma 90.000000
_cell_volume 1934.265583
_symmetry_space_group_name_H-M "P N N A"
_symmetry_group_IT_number 52
_symmetry_cell_setting 'orthorhombic'
loop_
_space_group_symop_operation_xyz
x,y,z
1/2-x,-y,z
x,1/2-y,1/2-z
1/2-x,1/2+y,1/2-z
-x,-y,-z
1/2+x,y,-z
-x,1/2+y,1/2+z
1/2+x,1/2-y,1/2+z
loop_
_atom_site_type_symbol
_atom_site_label
_atom_site_fract_x
_atom_site_fract_y
_atom_site_fract_z
Si Si1 0.250000 0.000000 0.072009
Si Si2 0.110724 0.365799 0.520343
Si Si3 0.883497 0.212973 0.491825
Si Si4 0.398004 0.127763 0.171340
Si Si5 0.723460 0.250000 0.250000
Si Si6 0.554943 0.250000 0.750000
O O1 0.325458 0.055642 0.165245
O O2 0.180374 0.060000 0.978631
O O3 0.154779 0.303469 0.642942
O O4 0.108440 0.320697 0.344510
O O5 0.002919 0.388167 0.586593
O O6 0.900812 0.157260 0.643524
O O7 0.861139 0.298276 0.566155
O O8 0.794744 0.199455 0.366754
O O9 0.982852 0.216291 0.387973
#
# Coordination Sequence:
#
# PCOD9411303 Si02
#       6
#     4   8   8   8   4   4
#     4  12  24  38  62  90 132 164 196 248 316 382
#     4  11  23  39  66  91 123 164 206 254 311 360
#     4   9  19  39  67  88 117 155 217 255 292 356
#     4  10  21  42  61  90 122 163 204 253 307 364
#     4  11  20  36  67  96 116 160 213 258 291 360
#     4   9  20  38  65  88 114 160 213 260 291 352
#
# _framework density 18.611713000000002
#
# number of rings (size 3 to 8) (size 9 to 14) (size 15 to 20)
#    0.000    1.778    2.222    3.333    3.111    0.000 
#    0.000    2.222    0.000    0.000    0.000    0.000 
#    0.000    0.000    0.000    0.000    0.000    0.000 
#
# Total GULP energy -200717.107070 kJ/mol
# GULP energy per Si atom -5575.475196 kJ/mol
# Density = 1.856935 g / cm^3
# Si number density = 18.611713 Si / 1000 Ang^3
#
#
#
# Elastic Constant Matrix: (Units=GPa)
#
#
# Indices 1 2 3 4 5 6 
#
# 1 93.5107 47.5893 31.3841 0.0000 0.0000 0.0000
# 2 47.5893 106.7223 46.5765 0.0000 0.0000 0.0000
# 3 31.3841 46.5765 107.2039 0.0000 0.0000 0.0000
# 4 0.0000 0.0000 0.0000 6.6871 0.0000 0.0000
# 5 0.0000 0.0000 0.0000 0.0000 -11.3639 0.0000
# 6 0.0000 0.0000 0.0000 0.0000 0.0000 20.6217
#
#
#
# Elastic Compliance Matrix: (Units=1/GPa)
#
#
# Indices 1 2 3 4 5 6 
#
# 1 0.014086 -0.005530 -0.001721 0.000000 0.000000 0.000000
# 2 -0.005530 0.013734 -0.004348 0.000000 0.000000 0.000000
# 3 -0.001721 -0.004348 0.011721 0.000000 0.000000 0.000000
# 4 0.000000 0.000000 0.000000 0.149541 0.000000 0.000000
# 5 0.000000 0.000000 0.000000 0.000000 -0.087998 0.000000
# 6 0.000000 0.000000 0.000000 0.000000 0.000000 0.048493
#
#
# Mechanical properties :
#
#
# Convention : Reuss Voigt Hill
#
# Bulk Modulus (GPa) = 61.19033 62.05965 61.62499
# Shear Modulus (GPa) = 28.05493 15.31477 21.68485
#
# Velocity S-wave (km/s) = 3.88671 2.87166 3.41709
# Velocity P-wave (km/s) = 7.28634 6.66424 6.98222
#
# Compressibility (1/GPa) = 0.01634245
#
# Stress axis : x y z
#
# Youngs Moduli (GPa) = 70.99282 72.81421 85.31797
#
# Poissons Ratio (x) = 0.40267 0.14684
# Poissons Ratio (y) = 0.39259 0.37095
# Poissons Ratio (z) = 0.12218 0.31659
#
# Static dielectric constant tensor:
#      x y z
#    x 1.689490 0.000000 0.000000 
#    y 0.000000 1.631990 0.000000 
#    z 0.000000 0.000000 1.652080 
# 
# From -- ./inp_files/9992.got.cif
#   From: 2010.05.17/outbox.cif.g08.bks.cpg/sg52_5_cif.got.tgz:9992.got - 2010.06.03 12:15:38.
