data_PCOD9411022
_publ_section_title
;
Structure prediction by ZEFSAII (Michael W. Deem and Ramdas Pophale) SiO2 
 PCOD9411022
Probable space group: P N N A
;
_chemical_formula_sum "Si O2"
_cell_formula_units_Z 32
_cell_length_a 11.216963
_cell_length_b 7.422827
_cell_length_c 16.929317
_cell_angle_alpha 90.000000
_cell_angle_beta 90.000000
_cell_angle_gamma 90.000000
_cell_volume 1409.561611
_symmetry_space_group_name_H-M "P N N A"
_symmetry_group_IT_number 52
_symmetry_cell_setting 'orthorhombic'
loop_
_space_group_symop_operation_xyz
x,y,z
1/2-x,-y,z
x,1/2-y,1/2-z
1/2-x,1/2+y,1/2-z
-x,-y,-z
1/2+x,y,-z
-x,1/2+y,1/2+z
1/2+x,1/2-y,1/2+z
loop_
_atom_site_type_symbol
_atom_site_label
_atom_site_fract_x
_atom_site_fract_y
_atom_site_fract_z
Si Si1 0.384804 0.543350 0.726408
Si Si2 0.026874 0.890417 0.610672
Si Si3 0.934717 0.518941 0.584206
Si Si4 0.845559 0.155894 0.544326
O O1 0.250000 0.500000 0.702867
O O2 0.387483 0.750000 0.750000
O O3 0.425514 0.422910 0.801559
O O4 0.475431 0.524134 0.654970
O O5 0.926745 0.734220 0.599274
O O6 0.132934 0.838595 0.550261
O O7 0.968200 0.075715 0.580629
O O8 0.836630 0.358274 0.578826
O O9 0.000000 0.500000 0.500000
O O10 0.750000 0.000000 0.560833
#
# Coordination Sequence:
#
# PCOD9411022 Si02
#       4
#     8   8   8   8
#     4  12  23  40  70 102 134 174 223 293 361 410
#     4  10  21  40  64  96 137 167 226 288 332 413
#     4  10  22  42  61  95 137 171 222 277 335 423
#     4  10  21  39  65  94 134 182 223 273 343 408
#
# _framework density 22.702095
#
# number of rings (size 3 to 8) (size 9 to 14) (size 15 to 20)
#    0.000    1.500    2.500    3.000    0.000    3.000 
#    0.000    0.000   11.000    0.000    0.000    0.000 
#    0.000    0.000    0.000    0.000    0.000    0.000 
#
# Total GULP energy -178526.208128 kJ/mol
# GULP energy per Si atom -5578.944004 kJ/mol
# Density = 2.265042 g / cm^3
# Si number density = 22.702095 Si / 1000 Ang^3
#
#
#
# Elastic Constant Matrix: (Units=GPa)
#
#
# Indices 1 2 3 4 5 6 
#
# 1 46.8426 40.2565 27.7459 0.0000 0.0000 0.0000
# 2 40.2565 191.7882 38.4087 0.0000 0.0000 0.0000
# 3 27.7459 38.4087 117.5664 0.0000 0.0000 0.0000
# 4 0.0000 0.0000 0.0000 30.4083 0.0000 0.0000
# 5 0.0000 0.0000 0.0000 0.0000 -5.6594 0.0000
# 6 0.0000 0.0000 0.0000 0.0000 0.0000 52.7986
#
#
#
# Elastic Compliance Matrix: (Units=1/GPa)
#
#
# Indices 1 2 3 4 5 6 
#
# 1 0.028681 -0.004991 -0.005138 0.000000 0.000000 0.000000
# 2 -0.004991 0.006448 -0.000929 0.000000 0.000000 0.000000
# 3 -0.005138 -0.000929 0.010022 0.000000 0.000000 0.000000
# 4 0.000000 0.000000 0.000000 0.032886 0.000000 0.000000
# 5 0.000000 0.000000 0.000000 0.000000 -0.176697 0.000000
# 6 0.000000 0.000000 0.000000 0.000000 0.000000 0.018940
#
#
# Mechanical properties :
#
#
# Convention : Reuss Voigt Hill
#
# Bulk Modulus (GPa) = 43.41270 63.22437 53.31854
# Shear Modulus (GPa) = -100.14618 32.16192 -33.99213
#
# Velocity S-wave (km/s) = -6.64898 3.76798 -3.87371
# Velocity P-wave (km/s) = 6.30722 6.84400 1.87874
#
# Compressibility (1/GPa) = 0.02303473
#
# Stress axis : x y z
#
# Youngs Moduli (GPa) = 34.86646 155.09452 99.78261
#
# Poissons Ratio (x) = 0.77410 0.51270
# Poissons Ratio (y) = 0.17402 0.09265
# Poissons Ratio (z) = 0.17915 0.14401
#
# Static dielectric constant tensor:
#      x y z
#    x 2.311260 0.000000 0.000000 
#    y 0.000000 1.888710 0.000000 
#    z 0.000000 0.000000 1.789670 
# 
# From -- ./inp_files/25480.got.cif
#   From: 2010.05.17/outbox.cif.g08.bks.cpg/sg52_13_cif.got.tgz:25480.got - 2010.06.03 12:15:38.
