data_PCOD9411632
_publ_section_title
;
Structure prediction by ZEFSAII (Michael W. Deem and Ramdas Pophale) SiO2 
 PCOD9411632
Probable space group: P N N A
;
_chemical_formula_sum "Si O2"
_cell_formula_units_Z 40
_cell_length_a 13.959162
_cell_length_b 7.982347
_cell_length_c 16.646516
_cell_angle_alpha 90.000000
_cell_angle_beta 90.000000
_cell_angle_gamma 90.000000
_cell_volume 1854.869256
_symmetry_space_group_name_H-M "P N N A"
_symmetry_group_IT_number 52
_symmetry_cell_setting 'orthorhombic'
loop_
_space_group_symop_operation_xyz
x,y,z
1/2-x,-y,z
x,1/2-y,1/2-z
1/2-x,1/2+y,1/2-z
-x,-y,-z
1/2+x,y,-z
-x,1/2+y,1/2+z
1/2+x,1/2-y,1/2+z
loop_
_atom_site_type_symbol
_atom_site_label
_atom_site_fract_x
_atom_site_fract_y
_atom_site_fract_z
Si Si1 0.289246 0.819474 0.140876
Si Si2 0.883237 0.387598 0.855531
Si Si3 0.170193 0.125589 0.503574
Si Si4 0.021443 0.375220 0.574893
Si Si5 0.490589 0.912108 0.216095
O O1 0.221778 0.671494 0.174089
O O2 0.398275 0.828800 0.170877
O O3 0.250000 0.000000 0.158635
O O4 0.283951 0.779144 0.046036
O O5 0.947841 0.466241 0.785164
O O6 0.927185 0.217571 0.891788
O O7 0.875071 0.515081 0.930607
O O8 0.091687 0.219778 0.556090
O O9 0.250000 0.000000 0.540055
O O10 0.000000 0.500000 0.500000
O O11 0.051162 0.488701 0.650299
O O12 0.544181 0.750000 0.250000
#
# Coordination Sequence:
#
# PCOD9411632 Si02
#       5
#     8   8   8   8   8
#     4  11  21  34  56  88 132 170 209 239 321 405
#     4  11  23  36  59  90 127 172 211 263 321 396
#     4  10  22  39  59  88 125 172 218 260 326 391
#     4  12  22  39  58  86 127 169 216 269 322 388
#     4  12  24  35  56  92 132 172 213 263 331 393
#
# _framework density 21.564859999999999
#
# number of rings (size 3 to 8) (size 9 to 14) (size 15 to 20)
#    0.000    0.800    6.000    1.200    2.800    0.000 
#    0.000    0.000    0.000    0.000    0.000   30.800 
#    0.000    0.000    0.000    0.000    0.000    0.000 
#
# Total GULP energy -223195.910980 kJ/mol
# GULP energy per Si atom -5579.897774 kJ/mol
# Density = 2.151578 g / cm^3
# Si number density = 21.564860 Si / 1000 Ang^3
#
#
#
# Elastic Constant Matrix: (Units=GPa)
#
#
# Indices 1 2 3 4 5 6 
#
# 1 43.8576 27.2666 27.1510 0.0000 0.0000 0.0000
# 2 27.2666 138.3901 51.8761 0.0000 0.0000 0.0000
# 3 27.1510 51.8761 80.0279 0.0000 0.0000 0.0000
# 4 0.0000 0.0000 0.0000 56.8826 0.0000 0.0000
# 5 0.0000 0.0000 0.0000 0.0000 10.1188 0.0000
# 6 0.0000 0.0000 0.0000 0.0000 0.0000 39.4818
#
#
#
# Elastic Compliance Matrix: (Units=1/GPa)
#
#
# Indices 1 2 3 4 5 6 
#
# 1 0.029626 -0.002734 -0.008279 0.000000 0.000000 0.000000
# 2 -0.002734 0.009798 -0.005424 0.000000 0.000000 0.000000
# 3 -0.008279 -0.005424 0.018820 0.000000 0.000000 0.000000
# 4 0.000000 0.000000 0.000000 0.017580 0.000000 0.000000
# 5 0.000000 0.000000 0.000000 0.000000 0.098826 0.000000
# 6 0.000000 0.000000 0.000000 0.000000 0.000000 0.025328
#
#
# Mechanical properties :
#
#
# Convention : Reuss Voigt Hill
#
# Bulk Modulus (GPa) = 39.41510 52.76256 46.08883
# Shear Modulus (GPa) = 20.72040 31.69544 26.20792
#
# Velocity S-wave (km/s) = 3.10311 3.83792 3.48991
# Velocity P-wave (km/s) = 5.58177 6.64526 6.13660
#
# Compressibility (1/GPa) = 0.02537099
#
# Stress axis : x y z
#
# Youngs Moduli (GPa) = 33.75413 102.06562 53.13435
#
# Poissons Ratio (x) = 0.27901 0.43991
# Poissons Ratio (y) = 0.09227 0.28818
# Poissons Ratio (z) = 0.27946 0.55356
#
# Static dielectric constant tensor:
#      x y z
#    x 1.848120 0.000000 0.000000 
#    y 0.000000 1.861640 0.000000 
#    z 0.000000 0.000000 1.860710 
# 
# From -- ./inp_files/26923.got.cif
#   From: 2010.05.17/outbox.cif.g08.bks.cpg/sg52_14_cif.got.tgz:26923.got - 2010.06.03 12:15:38.
