data_PCOD9411953
_publ_section_title
;
Structure prediction by ZEFSAII (Michael W. Deem and Ramdas Pophale) SiO2 
 PCOD9411953
Probable space group: P N N A
;
_chemical_formula_sum "Si O2"
_cell_formula_units_Z 40
_cell_length_a 9.466036
_cell_length_b 21.007773
_cell_length_c 7.446457
_cell_angle_alpha 90.000000
_cell_angle_beta 90.000000
_cell_angle_gamma 90.000000
_cell_volume 1480.804937
_symmetry_space_group_name_H-M "P N N A"
_symmetry_group_IT_number 52
_symmetry_cell_setting 'orthorhombic'
loop_
_space_group_symop_operation_xyz
x,y,z
1/2-x,-y,z
x,1/2-y,1/2-z
1/2-x,1/2+y,1/2-z
-x,-y,-z
1/2+x,y,-z
-x,1/2+y,1/2+z
1/2+x,1/2-y,1/2+z
loop_
_atom_site_type_symbol
_atom_site_label
_atom_site_fract_x
_atom_site_fract_y
_atom_site_fract_z
Si Si1 0.166402 0.564383 0.062628
Si Si2 0.055660 0.770615 0.037806
Si Si3 0.297642 0.847609 0.874442
Si Si4 0.377352 0.044043 0.069718
Si Si5 0.582153 0.358378 0.970267
O O1 0.250000 0.500000 0.002689
O O2 0.065729 0.564270 0.236771
O O3 0.048857 0.593663 0.930941
O O4 0.284024 0.614470 0.133404
O O5 0.076217 0.750000 0.250000
O O6 0.947914 0.830493 0.033107
O O7 0.982262 0.710729 0.943248
O O8 0.198266 0.789323 0.937726
O O9 0.339873 0.853484 0.666489
O O10 0.206261 0.907370 0.942630
O O11 0.250000 0.000000 0.134775
O O12 0.500000 0.000000 0.000000
#
# Coordination Sequence:
#
# PCOD9411953 Si02
#       5
#     8   8   8   8   8
#     4  11  25  44  67  99 139 184 229 285 345 410
#     4  10  22  42  67 101 137 178 229 288 348 411
#     4  11  23  43  71 100 135 180 230 285 342 412
#     4  11  23  41  64  94 130 177 231 282 336 401
#     4  11  24  44  67 100 139 179 230 286 348 416
#
# _framework density 27.012336999999999
#
# number of rings (size 3 to 8) (size 9 to 14) (size 15 to 20)
#    0.000    1.200    0.000    6.600    0.000    7.200 
#    0.000    5.000    0.000    0.000    0.000    0.000 
#    0.000    0.000    0.000    0.000    0.000    0.000 
#
# Total GULP energy -223430.913130 kJ/mol
# GULP energy per Si atom -5585.772828 kJ/mol
# Density = 2.695086 g / cm^3
# Si number density = 27.012337 Si / 1000 Ang^3
#
#
#
# Elastic Constant Matrix: (Units=GPa)
#
#
# Indices 1 2 3 4 5 6 
#
# 1 138.5222 21.4422 12.3966 0.0000 0.0000 0.0000
# 2 21.4422 94.0477 24.1173 0.0000 0.0000 0.0000
# 3 12.3966 24.1173 54.5616 0.0000 0.0000 0.0000
# 4 0.0000 0.0000 0.0000 24.4060 0.0000 0.0000
# 5 0.0000 0.0000 0.0000 0.0000 23.2514 0.0000
# 6 0.0000 0.0000 0.0000 0.0000 0.0000 60.9566
#
#
#
# Elastic Compliance Matrix: (Units=1/GPa)
#
#
# Indices 1 2 3 4 5 6 
#
# 1 0.007539 -0.001443 -0.001075 0.000000 0.000000 0.000000
# 2 -0.001443 0.012268 -0.005095 0.000000 0.000000 0.000000
# 3 -0.001075 -0.005095 0.020824 0.000000 0.000000 0.000000
# 4 0.000000 0.000000 0.000000 0.040974 0.000000 0.000000
# 5 0.000000 0.000000 0.000000 0.000000 0.043008 0.000000
# 6 0.000000 0.000000 0.000000 0.000000 0.000000 0.016405
#
#
# Mechanical properties :
#
#
# Convention : Reuss Voigt Hill
#
# Bulk Modulus (GPa) = 39.36199 44.78264 42.07232
# Shear Modulus (GPa) = 30.35590 37.00117 33.67854
#
# Velocity S-wave (km/s) = 3.35592 3.70508 3.53481
# Velocity P-wave (km/s) = 5.44240 5.90915 5.68057
#
# Compressibility (1/GPa) = 0.02540522
#
# Stress axis : x y z
#
# Youngs Moduli (GPa) = 132.64992 81.50979 48.02100
#
# Poissons Ratio (x) = 0.11763 0.05162
# Poissons Ratio (y) = 0.19143 0.24467
# Poissons Ratio (z) = 0.14259 0.41529
#
# Static dielectric constant tensor:
#      x y z
#    x 1.997910 0.000000 0.000000 
#    y 0.000000 2.346470 0.000000 
#    z 0.000000 0.000000 2.360230 
# 
# From -- ./inp_files/7392.got.cif
#   From: 2010.05.17/outbox.cif.g08.bks.cpg/sg52_4_cif.got.tgz:7392.got - 2010.06.03 12:15:38.
