data_PCOD9411136
_publ_section_title
;
Structure prediction by ZEFSAII (Michael W. Deem and Ramdas Pophale) SiO2 
 PCOD9411136
Probable space group: P N N A
;
_chemical_formula_sum "Si O2"
_cell_formula_units_Z 64
_cell_length_a 20.016967
_cell_length_b 17.564273
_cell_length_c 8.627735
_cell_angle_alpha 90.000000
_cell_angle_beta 90.000000
_cell_angle_gamma 90.000000
_cell_volume 3033.369036
_symmetry_space_group_name_H-M "P N N A"
_symmetry_group_IT_number 52
_symmetry_cell_setting 'orthorhombic'
loop_
_space_group_symop_operation_xyz
x,y,z
1/2-x,-y,z
x,1/2-y,1/2-z
1/2-x,1/2+y,1/2-z
-x,-y,-z
1/2+x,y,-z
-x,1/2+y,1/2+z
1/2+x,1/2-y,1/2+z
loop_
_atom_site_type_symbol
_atom_site_label
_atom_site_fract_x
_atom_site_fract_y
_atom_site_fract_z
Si Si1 0.708651 0.364759 0.626411
Si Si2 0.506858 0.769903 0.430819
Si Si3 0.603248 0.173232 0.348954
Si Si4 0.356543 0.317484 0.871006
Si Si5 0.303671 0.439192 0.634615
Si Si6 0.406475 0.984561 0.083185
Si Si7 0.222216 0.197169 0.462542
Si Si8 0.001318 0.887005 0.109761
O O1 0.764687 0.397297 0.508512
O O2 0.649950 0.426908 0.644810
O O3 0.689346 0.281352 0.558744
O O4 0.729516 0.345328 0.800240
O O5 0.494875 0.750000 0.250000
O O6 0.442037 0.808966 0.502167
O O7 0.570992 0.824999 0.446608
O O8 0.521046 0.695183 0.538699
O O9 0.613125 0.250000 0.250000
O O10 0.676063 0.152234 0.414076
O O11 0.557328 0.122300 0.236730
O O12 0.367903 0.250000 0.750000
O O13 0.328877 0.386582 0.771470
O O14 0.297033 0.291157 0.979954
O O15 0.250000 0.500000 0.692255
O O16 0.368544 0.479085 0.563409
O O17 0.438593 0.058387 0.166941
O O18 0.467367 0.930748 0.033973
#
# Coordination Sequence:
#
# PCOD9411136 Si02
#       8
#     8   8   8   8   8   8   8   8
#     4  10  22  39  60  93 120 167 202 264 317 378
#     4  10  22  38  64  94 127 158 210 273 325 364
#     4  10  22  38  60  93 127 165 208 263 316 374
#     4  11  21  39  63  96 123 162 213 278 315 371
#     4  10  22  40  65  90 128 172 213 257 323 394
#     4  10  21  40  65  85 124 169 217 243 312 402
#     4  11  23  37  65  95 127 156 213 273 324 363
#     4  10  22  39  64  90 120 174 212 258 309 390
#
# _framework density 21.098652999999999
#
# number of rings (size 3 to 8) (size 9 to 14) (size 15 to 20)
#    0.000    1.750    1.250    3.375    7.000    1.000 
#    4.500    3.750    0.000    0.000    0.000    0.000 
#    0.000    0.000    0.000    0.000    0.000    0.000 
#
# Total GULP energy -356937.836049 kJ/mol
# GULP energy per Si atom -5577.153688 kJ/mol
# Density = 2.105063 g / cm^3
# Si number density = 21.098653 Si / 1000 Ang^3
#
#
#
# Elastic Constant Matrix: (Units=GPa)
#
#
# Indices 1 2 3 4 5 6 
#
# 1 79.7841 -2.8398 12.0037 0.0000 0.0000 0.0000
# 2 -2.8398 53.4273 0.6070 0.0000 0.0000 0.0000
# 3 12.0037 0.6070 51.4799 0.0000 0.0000 0.0000
# 4 0.0000 0.0000 0.0000 17.9800 0.0000 0.0000
# 5 0.0000 0.0000 0.0000 0.0000 14.4235 0.0000
# 6 0.0000 0.0000 0.0000 0.0000 0.0000 1.2676
#
#
#
# Elastic Compliance Matrix: (Units=1/GPa)
#
#
# Indices 1 2 3 4 5 6 
#
# 1 0.013018 0.000727 -0.003044 0.000000 0.000000 0.000000
# 2 0.000727 0.018760 -0.000391 0.000000 0.000000 0.000000
# 3 -0.003044 -0.000391 0.020139 0.000000 0.000000 0.000000
# 4 0.000000 0.000000 0.000000 0.055617 0.000000 0.000000
# 5 0.000000 0.000000 0.000000 0.000000 0.069331 0.000000
# 6 0.000000 0.000000 0.000000 0.000000 0.000000 0.788917
#
#
# Mechanical properties :
#
#
# Convention : Reuss Voigt Hill
#
# Bulk Modulus (GPa) = 21.50486 22.69256 22.09871
# Shear Modulus (GPa) = 5.06740 18.39558 11.73149
#
# Velocity S-wave (km/s) = 1.55144 2.95597 2.36059
# Velocity P-wave (km/s) = 3.66387 4.73594 4.23398
#
# Compressibility (1/GPa) = 0.04650111
#
# Stress axis : x y z
#
# Youngs Moduli (GPa) = 76.81878 53.30470 49.65382
#
# Poissons Ratio (x) = -0.03873 0.15114
# Poissons Ratio (y) = -0.05581 0.01940
# Poissons Ratio (z) = 0.23383 0.02082
#
# Static dielectric constant tensor:
#      x y z
#    x 1.799430 0.000000 0.000000 
#    y 0.000000 1.733530 0.000000 
#    z 0.000000 0.000000 1.757330 
# 
# From -- ./inp_files/13625.got.cif
#   From: 2010.05.17/outbox.cif.g08.bks.cpg/sg52_7_cif.got.tgz:13625.got - 2010.06.03 12:15:38.
