data_PCOD9411507
_publ_section_title
;
Structure prediction by ZEFSAII (Michael W. Deem and Ramdas Pophale) SiO2 
 PCOD9411507
Probable space group: P N N A
;
_chemical_formula_sum "Si O2"
_cell_formula_units_Z 28
_cell_length_a 27.350894
_cell_length_b 7.355821
_cell_length_c 5.720893
_cell_angle_alpha 90.000000
_cell_angle_beta 90.000000
_cell_angle_gamma 90.000000
_cell_volume 1150.976625
_symmetry_space_group_name_H-M "P N N A"
_symmetry_group_IT_number 52
_symmetry_cell_setting 'orthorhombic'
loop_
_space_group_symop_operation_xyz
x,y,z
1/2-x,-y,z
x,1/2-y,1/2-z
1/2-x,1/2+y,1/2-z
-x,-y,-z
1/2+x,y,-z
-x,1/2+y,1/2+z
1/2+x,1/2-y,1/2+z
loop_
_atom_site_type_symbol
_atom_site_label
_atom_site_fract_x
_atom_site_fract_y
_atom_site_fract_z
Si Si1 0.701130 0.750000 0.750000
Si Si2 0.847732 0.447175 0.373392
Si Si3 0.425131 0.750000 0.750000
Si Si4 0.750000 0.500000 0.112771
Si Si5 0.983984 0.290936 0.504893
O O1 0.666538 0.596431 0.639760
O O2 0.735363 0.667690 0.948554
O O3 0.855467 0.250000 0.250000
O O4 0.891547 0.585745 0.335391
O O5 0.798550 0.529608 0.261505
O O6 0.463809 0.811449 0.549093
O O7 0.963528 0.250000 0.250000
O O8 0.000000 0.500000 0.500000
O O9 0.956084 0.250000 0.750000
#
# Coordination Sequence:
#
# PCOD9411507 Si02
#       5
#     4   8   4   4   8
#     4  10  22  38  61  90 122 186 226 291 338 408
#     4  10  23  42  58  96 135 177 235 286 345 413
#     4  10  26  40  69 100 142 178 232 291 358 420
#     4  10  22  36  64  88 130 180 238 282 344 408
#     4  10  23  46  73 107 138 182 229 286 359 433
#
# _framework density 24.327168
#
# number of rings (size 3 to 8) (size 9 to 14) (size 15 to 20)
#    0.857    1.143    0.000    1.714   10.000    5.714 
#    2.571    0.000    0.000    0.000    0.000    0.000 
#    0.000    0.000    0.000    0.000    0.000    0.000 
#
# Total GULP energy -156467.959463 kJ/mol
# GULP energy per Si atom -5588.141409 kJ/mol
# Density = 2.427180 g / cm^3
# Si number density = 24.327168 Si / 1000 Ang^3
#
#
#
# Elastic Constant Matrix: (Units=GPa)
#
#
# Indices 1 2 3 4 5 6 
#
# 1 162.4627 26.7750 33.8799 0.0000 0.0000 0.0000
# 2 26.7750 88.5394 32.1198 0.0000 0.0000 0.0000
# 3 33.8799 32.1198 152.4908 0.0000 0.0000 0.0000
# 4 0.0000 0.0000 0.0000 33.4917 0.0000 0.0000
# 5 0.0000 0.0000 0.0000 0.0000 -0.9795 0.0000
# 6 0.0000 0.0000 0.0000 0.0000 0.0000 -8.6686
#
#
#
# Elastic Compliance Matrix: (Units=1/GPa)
#
#
# Indices 1 2 3 4 5 6 
#
# 1 0.006657 -0.001599 -0.001142 0.000000 0.000000 0.000000
# 2 -0.001599 0.012613 -0.002301 0.000000 0.000000 0.000000
# 3 -0.001142 -0.002301 0.007296 0.000000 0.000000 0.000000
# 4 0.000000 0.000000 0.000000 0.029858 0.000000 0.000000
# 5 0.000000 0.000000 0.000000 0.000000 -1.020893 0.000000
# 6 0.000000 0.000000 0.000000 0.000000 0.000000 -0.115359
#
#
# Mechanical properties :
#
#
# Convention : Reuss Voigt Hill
#
# Bulk Modulus (GPa) = 60.67555 65.44913 63.06234
# Shear Modulus (GPa) = -4.69815 25.48326 10.39255
#
# Velocity S-wave (km/s) = -1.39120 3.24006 2.06912
# Velocity P-wave (km/s) = 4.73445 6.39995 5.62914
#
# Compressibility (1/GPa) = 0.01648110
#
# Stress axis : x y z
#
# Youngs Moduli (GPa) = 150.21898 79.28458 137.05512
#
# Poissons Ratio (x) = 0.12675 0.15655
# Poissons Ratio (y) = 0.24016 0.31543
# Poissons Ratio (z) = 0.17159 0.18247
#
# Static dielectric constant tensor:
#      x y z
#    x 1.898990 0.000000 0.000000 
#    y 0.000000 1.989040 0.000000 
#    z 0.000000 0.000000 2.015600 
# 
# From -- ./inp_files/6099.got.cif
#   From: 2010.05.17/outbox.cif.g08.bks.cpg/sg52_4_cif.got.tgz:6099.got - 2010.06.03 12:15:38.
