data_PCOD9411120
_publ_section_title
;
Structure prediction by ZEFSAII (Michael W. Deem and Ramdas Pophale) SiO2 
 PCOD9411120
Probable space group: P N N A
;
_chemical_formula_sum "Si O2"
_cell_formula_units_Z 40
_cell_length_a 12.771518
_cell_length_b 14.288431
_cell_length_c 11.879980
_cell_angle_alpha 90.000000
_cell_angle_beta 90.000000
_cell_angle_gamma 90.000000
_cell_volume 2167.917600
_symmetry_space_group_name_H-M "P N N A"
_symmetry_group_IT_number 52
_symmetry_cell_setting 'orthorhombic'
loop_
_space_group_symop_operation_xyz
x,y,z
1/2-x,-y,z
x,1/2-y,1/2-z
1/2-x,1/2+y,1/2-z
-x,-y,-z
1/2+x,y,-z
-x,1/2+y,1/2+z
1/2+x,1/2-y,1/2+z
loop_
_atom_site_type_symbol
_atom_site_label
_atom_site_fract_x
_atom_site_fract_y
_atom_site_fract_z
Si Si1 0.533019 0.577450 0.660545
Si Si2 0.930683 0.975625 0.391935
Si Si3 0.234062 0.901007 0.524750
Si Si4 0.656977 0.066344 0.995470
Si Si5 0.286270 0.224562 0.127980
O O1 0.500550 0.548152 0.785678
O O2 0.597504 0.494321 0.599837
O O3 0.427001 0.591012 0.589921
O O4 0.606763 0.668076 0.651975
O O5 0.848239 0.891763 0.418723
O O6 0.852249 0.065721 0.383778
O O7 0.000000 0.000000 0.500000
O O8 0.199738 0.817004 0.447141
O O9 0.250000 0.000000 0.456927
O O10 0.710053 0.155804 0.939533
O O11 0.750000 0.000000 0.041322
O O12 0.241060 0.250000 0.250000
#
# Coordination Sequence:
#
# PCOD9411120 Si02
#       5
#     8   8   8   8   8
#     4  10  21  40  64  89 119 170 204 256 313 382
#     4   9  19  36  63  85 119 159 204 248 315 363
#     4   8  22  37  57  91 122 157 201 263 301 366
#     4   9  22  39  63  86 124 159 209 253 313 375
#     4  11  22  37  60  92 126 159 207 259 315 371
#
# _framework density 18.450886000000001
#
# number of rings (size 3 to 8) (size 9 to 14) (size 15 to 20)
#    1.200    1.200    0.000    1.200    5.600    4.000 
#    0.000    0.000    0.000    0.000    0.000    0.000 
#    0.000    0.000    0.000    0.000    0.000    0.000 
#
# Total GULP energy -222685.285293 kJ/mol
# GULP energy per Si atom -5567.132132 kJ/mol
# Density = 1.840889 g / cm^3
# Si number density = 18.450886 Si / 1000 Ang^3
#
#
#
# Elastic Constant Matrix: (Units=GPa)
#
#
# Indices 1 2 3 4 5 6 
#
# 1 106.1356 31.0383 43.9679 0.0000 0.0000 0.0000
# 2 31.0383 105.0846 44.9560 0.0000 0.0000 0.0000
# 3 43.9679 44.9560 92.9496 0.0000 0.0000 0.0000
# 4 0.0000 0.0000 0.0000 23.7330 0.0000 0.0000
# 5 0.0000 0.0000 0.0000 0.0000 15.6158 0.0000
# 6 0.0000 0.0000 0.0000 0.0000 0.0000 5.7474
#
#
#
# Elastic Compliance Matrix: (Units=1/GPa)
#
#
# Indices 1 2 3 4 5 6 
#
# 1 0.011878 -0.001393 -0.004945 0.000000 0.000000 0.000000
# 2 -0.001393 0.012162 -0.005224 0.000000 0.000000 0.000000
# 3 -0.004945 -0.005224 0.015624 0.000000 0.000000 0.000000
# 4 0.000000 0.000000 0.000000 0.042135 0.000000 0.000000
# 5 0.000000 0.000000 0.000000 0.000000 0.064038 0.000000
# 6 0.000000 0.000000 0.000000 0.000000 0.000000 0.173992
#
#
# Mechanical properties :
#
#
# Convention : Reuss Voigt Hill
#
# Bulk Modulus (GPa) = 60.45402 60.45492 60.45447
# Shear Modulus (GPa) = 14.34862 21.29972 17.82417
#
# Velocity S-wave (km/s) = 2.79169 3.40133 3.11148
# Velocity P-wave (km/s) = 6.57475 6.94708 6.76348
#
# Compressibility (1/GPa) = 0.01654150
#
# Stress axis : x y z
#
# Youngs Moduli (GPa) = 84.19144 82.22201 64.00411
#
# Poissons Ratio (x) = 0.11452 0.31649
# Poissons Ratio (y) = 0.11726 0.33433
# Poissons Ratio (z) = 0.41631 0.42949
#
# Static dielectric constant tensor:
#      x y z
#    x 1.685760 0.000000 0.000000 
#    y 0.000000 1.673290 0.000000 
#    z 0.000000 0.000000 1.614260 
# 
# From -- ./inp_files/18028.got.cif
#   From: 2010.05.17/outbox.cif.g08.bks.cpg/sg52_10_cif.got.tgz:18028.got - 2010.06.03 12:15:38.
