data_PCOD9411817
_publ_section_title
;
Structure prediction by ZEFSAII (Michael W. Deem and Ramdas Pophale) SiO2 
 PCOD9411817
Probable space group: P N N A
;
_chemical_formula_sum "Si O2"
_cell_formula_units_Z 56
_cell_length_a 15.001682
_cell_length_b 5.254642
_cell_length_c 29.558155
_cell_angle_alpha 90.000000
_cell_angle_beta 90.000000
_cell_angle_gamma 90.000000
_cell_volume 2330.024085
_symmetry_space_group_name_H-M "P N N A"
_symmetry_group_IT_number 52
_symmetry_cell_setting 'orthorhombic'
loop_
_space_group_symop_operation_xyz
x,y,z
1/2-x,-y,z
x,1/2-y,1/2-z
1/2-x,1/2+y,1/2-z
-x,-y,-z
1/2+x,y,-z
-x,1/2+y,1/2+z
1/2+x,1/2-y,1/2+z
loop_
_atom_site_type_symbol
_atom_site_label
_atom_site_fract_x
_atom_site_fract_y
_atom_site_fract_z
Si Si1 0.147159 0.458362 0.714809
Si Si2 0.387313 0.993274 0.537175
Si Si3 0.176743 0.204789 0.044309
Si Si4 0.487266 0.221466 0.840891
Si Si5 0.195664 0.242408 0.348350
Si Si6 0.515254 0.491719 0.437957
Si Si7 0.659421 0.376517 0.132238
O O1 0.250000 0.500000 0.729787
O O2 0.112810 0.250000 0.750000
O O3 0.069159 0.657779 0.704240
O O4 0.156963 0.367551 0.663091
O O5 0.340197 0.937165 0.489916
O O6 0.468800 0.792123 0.543189
O O7 0.330761 0.867172 0.578512
O O8 0.415610 0.283757 0.546805
O O9 0.194230 0.274084 0.096527
O O10 0.081390 0.069146 0.045610
O O11 0.250000 0.000000 0.028963
O O12 0.592287 0.263791 0.833001
O O13 0.487028 0.019965 0.883268
O O14 0.429814 0.459991 0.859537
O O15 0.250000 0.500000 0.337206
O O16 0.250000 0.000000 0.331018
O O17 0.750000 0.500000 0.150424
#
# Coordination Sequence:
#
# PCOD9411817 Si02
#       7
#     8   8   8   8   8   8   8
#     4  12  25  42  68 103 144 173 218 269 342 419
#     4  11  23  39  61  87 126 179 231 277 337 402
#     4  10  23  37  60  90 132 171 230 294 350 386
#     4  10  23  41  68  97 134 182 225 277 347 408
#     4  10  24  43  68 101 137 181 240 298 344 400
#     4  10  22  41  60  87 125 178 227 282 332 407
#     4  11  23  40  62  93 135 179 224 274 332 427
#
# _framework density 24.034085999999999
#
# number of rings (size 3 to 8) (size 9 to 14) (size 15 to 20)
#    0.000    1.429    2.857    1.286    2.000   12.571 
#    0.000    0.000    0.000    0.000    3.714    0.000 
#    0.000    0.000    0.000    0.000    0.000    0.000 
#
# Total GULP energy -312484.559767 kJ/mol
# GULP energy per Si atom -5580.081424 kJ/mol
# Density = 2.397938 g / cm^3
# Si number density = 24.034086 Si / 1000 Ang^3
#
#
#
# Elastic Constant Matrix: (Units=GPa)
#
#
# Indices 1 2 3 4 5 6 
#
# 1 147.6055 42.5944 20.3325 0.0000 0.0000 0.0000
# 2 42.5944 88.5005 20.7944 0.0000 0.0000 0.0000
# 3 20.3325 20.7944 68.8971 0.0000 0.0000 0.0000
# 4 0.0000 0.0000 0.0000 28.4503 0.0000 0.0000
# 5 0.0000 0.0000 0.0000 0.0000 27.7909 0.0000
# 6 0.0000 0.0000 0.0000 0.0000 0.0000 36.7543
#
#
#
# Elastic Compliance Matrix: (Units=1/GPa)
#
#
# Indices 1 2 3 4 5 6 
#
# 1 0.007972 -0.003535 -0.001286 0.000000 0.000000 0.000000
# 2 -0.003535 0.013729 -0.003101 0.000000 0.000000 0.000000
# 3 -0.001286 -0.003101 0.015830 0.000000 0.000000 0.000000
# 4 0.000000 0.000000 0.000000 0.035149 0.000000 0.000000
# 5 0.000000 0.000000 0.000000 0.000000 0.035983 0.000000
# 6 0.000000 0.000000 0.000000 0.000000 0.000000 0.027208
#
#
# Mechanical properties :
#
#
# Convention : Reuss Voigt Hill
#
# Bulk Modulus (GPa) = 46.10716 52.49396 49.30056
# Shear Modulus (GPa) = 31.45800 33.35121 32.40460
#
# Velocity S-wave (km/s) = 3.62178 3.72918 3.67587
# Velocity P-wave (km/s) = 6.05933 6.35855 6.21074
#
# Compressibility (1/GPa) = 0.02168861
#
# Stress axis : x y z
#
# Youngs Moduli (GPa) = 125.44003 72.83797 63.17251
#
# Poissons Ratio (x) = 0.25746 0.08123
# Poissons Ratio (y) = 0.44339 0.19587
# Poissons Ratio (z) = 0.16129 0.22584
#
# Static dielectric constant tensor:
#      x y z
#    x 2.084280 0.000000 0.000000 
#    y 0.000000 2.122980 0.000000 
#    z 0.000000 0.000000 1.936720 
# 
# From -- ./inp_files/45002.got.cif
#   From: 2010.05.17/outbox.cif.g08.bks.cpg/sg52_23_cif.got.tgz:45002.got - 2010.06.03 12:15:38.
