data_PCOD9411281
_publ_section_title
;
Structure prediction by ZEFSAII (Michael W. Deem and Ramdas Pophale) SiO2 
 PCOD9411281
Probable space group: P N N A
;
_chemical_formula_sum "Si O2"
_cell_formula_units_Z 40
_cell_length_a 13.224177
_cell_length_b 8.602256
_cell_length_c 15.874431
_cell_angle_alpha 90.000000
_cell_angle_beta 90.000000
_cell_angle_gamma 90.000000
_cell_volume 1805.839647
_symmetry_space_group_name_H-M "P N N A"
_symmetry_group_IT_number 52
_symmetry_cell_setting 'orthorhombic'
loop_
_space_group_symop_operation_xyz
x,y,z
1/2-x,-y,z
x,1/2-y,1/2-z
1/2-x,1/2+y,1/2-z
-x,-y,-z
1/2+x,y,-z
-x,1/2+y,1/2+z
1/2+x,1/2-y,1/2+z
loop_
_atom_site_type_symbol
_atom_site_label
_atom_site_fract_x
_atom_site_fract_y
_atom_site_fract_z
Si Si1 0.988359 0.789129 0.884472
Si Si2 0.376228 0.250000 0.250000
Si Si3 0.750000 0.000000 0.208714
Si Si4 0.814773 0.353478 0.454307
Si Si5 0.036087 0.508347 0.779627
Si Si6 0.740150 0.182064 0.602335
O O1 0.063843 0.866058 0.951936
O O2 0.037063 0.624383 0.857805
O O3 0.995950 0.897113 0.802122
O O4 0.873685 0.745757 0.903056
O O5 0.453643 0.375479 0.212076
O O6 0.301707 0.282383 0.328330
O O7 0.780283 0.139051 0.143713
O O8 0.849885 0.958405 0.259537
O O9 0.750000 0.500000 0.489767
O O10 0.787060 0.208145 0.510586
O O11 0.750000 0.000000 0.626912
#
# Coordination Sequence:
#
# PCOD9411281 Si02
#       6
#     8   4   4   8   8   8
#     4  10  22  43  66  94 131 177 213 278 338 394
#     4  12  26  40  64 106 124 176 228 274 334 404
#     4   8  20  44  66  98 122 174 216 268 330 396
#     4   9  23  44  64  95 127 174 226 265 337 406
#     4  10  21  41  69  95 135 165 220 277 331 395
#     4  12  26  43  65  96 136 176 225 278 334 400
#
# _framework density 22.150361
#
# number of rings (size 3 to 8) (size 9 to 14) (size 15 to 20)
#    0.600    1.200    2.000    1.200    2.800    6.400 
#    5.400    0.000    0.000    0.000    0.000    0.000 
#    0.000    0.000    0.000    0.000    0.000    0.000 
#
# Total GULP energy -223005.568319 kJ/mol
# GULP energy per Si atom -5575.139208 kJ/mol
# Density = 2.209995 g / cm^3
# Si number density = 22.150361 Si / 1000 Ang^3
#
#
#
# Elastic Constant Matrix: (Units=GPa)
#
#
# Indices 1 2 3 4 5 6 
#
# 1 200.2635 24.9202 48.6109 0.0000 0.0000 0.0000
# 2 24.9202 35.5690 -4.2283 0.0000 0.0000 0.0000
# 3 48.6109 -4.2283 37.8273 0.0000 0.0000 0.0000
# 4 0.0000 0.0000 0.0000 -26.2825 0.0000 0.0000
# 5 0.0000 0.0000 0.0000 0.0000 49.3540 0.0000
# 6 0.0000 0.0000 0.0000 0.0000 0.0000 23.3415
#
#
#
# Elastic Compliance Matrix: (Units=1/GPa)
#
#
# Indices 1 2 3 4 5 6 
#
# 1 0.008965 -0.007754 -0.012388 0.000000 0.000000 0.000000
# 2 -0.007754 0.035199 0.013899 0.000000 0.000000 0.000000
# 3 -0.012388 0.013899 0.043908 0.000000 0.000000 0.000000
# 4 0.000000 0.000000 0.000000 -0.038048 0.000000 0.000000
# 5 0.000000 0.000000 0.000000 0.000000 0.020262 0.000000
# 6 0.000000 0.000000 0.000000 0.000000 0.000000 0.042842
#
#
# Mechanical properties :
#
#
# Convention : Reuss Voigt Hill
#
# Bulk Modulus (GPa) = 13.22975 45.80726 29.51850
# Shear Modulus (GPa) = 33.15437 22.90640 28.03039
#
# Velocity S-wave (km/s) = 3.87303 3.21928 3.56119
# Velocity P-wave (km/s) = 5.09766 5.87736 5.50134
#
# Compressibility (1/GPa) = 0.07558724
#
# Stress axis : x y z
#
# Youngs Moduli (GPa) = 111.54270 28.40988 22.77464
#
# Poissons Ratio (x) = 0.22028 0.28212
# Poissons Ratio (y) = 0.86487 -0.31654
# Poissons Ratio (z) = 1.38175 -0.39486
#
# Static dielectric constant tensor:
#      x y z
#    x 1.829180 0.000000 0.000000 
#    y 0.000000 1.882940 0.000000 
#    z 0.000000 0.000000 1.776140 
# 
# From -- ./inp_files/32017.got.cif
#   From: 2010.05.17/outbox.cif.g08.bks.cpg/sg52_17_cif.got.tgz:32017.got - 2010.06.03 12:15:38.
