data_PCOD9411762
_publ_section_title
;
Structure prediction by ZEFSAII (Michael W. Deem and Ramdas Pophale) SiO2 
 PCOD9411762
Probable space group: P N N A
;
_chemical_formula_sum "Si O2"
_cell_formula_units_Z 56
_cell_length_a 8.518903
_cell_length_b 20.569802
_cell_length_c 16.011212
_cell_angle_alpha 90.000000
_cell_angle_beta 90.000000
_cell_angle_gamma 90.000000
_cell_volume 2805.679070
_symmetry_space_group_name_H-M "P N N A"
_symmetry_group_IT_number 52
_symmetry_cell_setting 'orthorhombic'
loop_
_space_group_symop_operation_xyz
x,y,z
1/2-x,-y,z
x,1/2-y,1/2-z
1/2-x,1/2+y,1/2-z
-x,-y,-z
1/2+x,y,-z
-x,1/2+y,1/2+z
1/2+x,1/2-y,1/2+z
loop_
_atom_site_type_symbol
_atom_site_label
_atom_site_fract_x
_atom_site_fract_y
_atom_site_fract_z
Si Si1 0.331258 0.809703 0.512251
Si Si2 0.021467 0.574634 0.603451
Si Si3 0.062239 0.938889 0.699945
Si Si4 0.601051 0.416485 0.141469
Si Si5 0.250000 0.000000 0.022421
Si Si6 0.568746 0.728548 0.412782
Si Si7 0.238815 0.636292 0.165770
Si Si8 0.629004 0.250000 0.750000
O O1 0.383507 0.877410 0.554510
O O2 0.468693 0.760973 0.486424
O O3 0.230914 0.766192 0.576108
O O4 0.245936 0.829307 0.425306
O O5 0.846513 0.551563 0.578248
O O6 0.050448 0.554447 0.699700
O O7 0.132901 0.537121 0.539315
O O8 0.059037 0.650745 0.589462
O O9 0.228822 0.902190 0.684290
O O10 0.897724 0.907181 0.670661
O O11 0.082482 0.005762 0.648478
O O12 0.432884 0.393808 0.177468
O O13 0.482693 0.749349 0.328839
O O14 0.264371 0.687314 0.240197
#
# Coordination Sequence:
#
# PCOD9411762 Si02
#       8
#     8   8   8   8   4   8   8   4
#     4  11  23  42  66  99 134 176 231 281 338 415
#     4  11  23  45  68 101 133 182 229 290 350 414
#     4  11  25  44  70 100 142 182 227 286 351 411
#     4  11  24  44  66 102 138 179 232 282 342 424
#     4  10  24  42  70  98 132 174 236 286 346 416
#     4  11  22  42  68  93 137 177 221 286 336 409
#     4  11  23  45  67  99 135 184 228 283 349 414
#     4  10  22  40  66  94 132 172 228 274 342 404
#
# _framework density 19.959517999999999
#
# number of rings (size 3 to 8) (size 9 to 14) (size 15 to 20)
#    0.000    1.143    2.857    3.857    2.000    0.571 
#    5.143    0.000    0.000    0.000    0.000    0.000 
#    0.000    0.000    0.000    0.000    0.000    0.000 
#
# Total GULP energy -311963.967606 kJ/mol
# GULP energy per Si atom -5570.785136 kJ/mol
# Density = 1.991409 g / cm^3
# Si number density = 19.959518 Si / 1000 Ang^3
#
#
#
# Elastic Constant Matrix: (Units=GPa)
#
#
# Indices 1 2 3 4 5 6 
#
# 1 115.0579 19.0514 25.1760 0.0000 0.0000 0.0000
# 2 19.0514 97.2802 24.2445 0.0000 0.0000 0.0000
# 3 25.1760 24.2445 59.2824 0.0000 0.0000 0.0000
# 4 0.0000 0.0000 0.0000 -32.2828 0.0000 0.0000
# 5 0.0000 0.0000 0.0000 0.0000 25.6845 0.0000
# 6 0.0000 0.0000 0.0000 0.0000 0.0000 28.2670
#
#
#
# Elastic Compliance Matrix: (Units=1/GPa)
#
#
# Indices 1 2 3 4 5 6 
#
# 1 0.009663 -0.000968 -0.003708 0.000000 0.000000 0.000000
# 2 -0.000968 0.011543 -0.004310 0.000000 0.000000 0.000000
# 3 -0.003708 -0.004310 0.020205 0.000000 0.000000 0.000000
# 4 0.000000 0.000000 0.000000 -0.030976 0.000000 0.000000
# 5 0.000000 0.000000 0.000000 0.000000 0.038934 0.000000
# 6 0.000000 0.000000 0.000000 0.000000 0.000000 0.035377
#
#
# Mechanical properties :
#
#
# Convention : Reuss Voigt Hill
#
# Bulk Modulus (GPa) = 42.66119 45.39606 44.02862
# Shear Modulus (GPa) = 45.23629 17.87698 31.55663
#
# Velocity S-wave (km/s) = 4.76584 2.99601 3.98053
# Velocity P-wave (km/s) = 7.19059 5.89589 6.57518
#
# Compressibility (1/GPa) = 0.02344051
#
# Stress axis : x y z
#
# Youngs Moduli (GPa) = 103.48875 86.63050 49.49170
#
# Poissons Ratio (x) = 0.08389 0.18350
# Poissons Ratio (y) = 0.10022 0.21329
# Poissons Ratio (z) = 0.38369 0.37334
#
# Static dielectric constant tensor:
#      x y z
#    x 1.804970 0.000000 0.000000 
#    y 0.000000 1.763590 0.000000 
#    z 0.000000 0.000000 1.687650 
# 
# From -- ./inp_files/24990.got.cif
#   From: 2010.05.17/outbox.cif.g08.bks.cpg/sg52_13_cif.got.tgz:24990.got - 2010.06.03 12:15:38.
