data_PCOD9411063
_publ_section_title
;
Structure prediction by ZEFSAII (Michael W. Deem and Ramdas Pophale) SiO2 
 PCOD9411063
Probable space group: P N N A
;
_chemical_formula_sum "Si O2"
_cell_formula_units_Z 60
_cell_length_a 12.500412
_cell_length_b 16.566205
_cell_length_c 14.550257
_cell_angle_alpha 90.000000
_cell_angle_beta 90.000000
_cell_angle_gamma 90.000000
_cell_volume 3013.131063
_symmetry_space_group_name_H-M "P N N A"
_symmetry_group_IT_number 52
_symmetry_cell_setting 'orthorhombic'
loop_
_space_group_symop_operation_xyz
x,y,z
1/2-x,-y,z
x,1/2-y,1/2-z
1/2-x,1/2+y,1/2-z
-x,-y,-z
1/2+x,y,-z
-x,1/2+y,1/2+z
1/2+x,1/2-y,1/2+z
loop_
_atom_site_type_symbol
_atom_site_label
_atom_site_fract_x
_atom_site_fract_y
_atom_site_fract_z
Si Si1 0.299562 0.411205 0.426291
Si Si2 0.307567 0.177017 0.539335
Si Si3 0.750000 0.500000 0.097803
Si Si4 0.262340 0.841824 0.888473
Si Si5 0.239717 0.249280 0.146881
Si Si6 0.968945 0.557319 0.413241
Si Si7 0.616516 0.943076 0.241231
Si Si8 0.995570 0.686006 0.827026
O O1 0.250000 0.500000 0.426226
O O2 0.311219 0.379325 0.530438
O O3 0.226139 0.344770 0.378308
O O4 0.416405 0.410184 0.381753
O O5 0.258979 0.086230 0.545932
O O6 0.244705 0.245324 0.599501
O O7 0.305997 0.208847 0.434767
O O8 0.424473 0.180175 0.586754
O O9 0.653055 0.506865 0.170151
O O10 0.380256 0.872314 0.919422
O O11 0.210200 0.881348 0.796092
O O12 0.284643 0.250000 0.250000
O O13 0.124102 0.291465 0.147482
O O14 0.912056 0.500798 0.340410
O O15 0.000000 0.500000 0.500000
O O16 0.511053 0.896254 0.272003
O O17 0.032984 0.750000 0.750000
#
# Coordination Sequence:
#
# PCOD9411063 Si02
#       8
#     8   8   4   8   8   8   8   8
#     4  11  23  37  59  94 133 168 214 277 346 407
#     4  10  23  41  69  95 134 174 223 286 340 403
#     4  10  22  42  62 100 134 170 224 288 332 400
#     4  11  20  37  61  98 135 172 216 285 341 413
#     4  10  25  45  65  95 129 175 232 284 329 416
#     4  12  22  34  60  98 135 179 211 277 364 412
#     4  11  20  37  63  99 138 168 233 282 330 410
#     4  10  21  39  70  98 121 183 232 267 333 410
#
# _framework density 19.912842999999999
#
# number of rings (size 3 to 8) (size 9 to 14) (size 15 to 20)
#    0.000    1.333    5.333    0.000    3.733    4.267 
#    1.200    5.333    0.000    0.000    0.000    0.000 
#    0.000    0.000    0.000    0.000    0.000    0.000 
#
# Total GULP energy -334174.735142 kJ/mol
# GULP energy per Si atom -5569.578919 kJ/mol
# Density = 1.986752 g / cm^3
# Si number density = 19.912843 Si / 1000 Ang^3
#
#
#
# Elastic Constant Matrix: (Units=GPa)
#
#
# Indices 1 2 3 4 5 6 
#
# 1 31.4057 -11.8285 -14.0298 0.0000 0.0000 0.0000
# 2 -11.8285 76.2891 21.1426 0.0000 0.0000 0.0000
# 3 -14.0298 21.1426 87.9436 0.0000 0.0000 0.0000
# 4 0.0000 0.0000 0.0000 22.6803 0.0000 0.0000
# 5 0.0000 0.0000 0.0000 0.0000 20.1794 0.0000
# 6 0.0000 0.0000 0.0000 0.0000 0.0000 31.4837
#
#
#
# Elastic Compliance Matrix: (Units=1/GPa)
#
#
# Indices 1 2 3 4 5 6 
#
# 1 0.035507 0.004216 0.004651 0.000000 0.000000 0.000000
# 2 0.004216 0.014544 -0.002824 0.000000 0.000000 0.000000
# 3 0.004651 -0.002824 0.012792 0.000000 0.000000 0.000000
# 4 0.000000 0.000000 0.000000 0.044091 0.000000 0.000000
# 5 0.000000 0.000000 0.000000 0.000000 0.049556 0.000000
# 6 0.000000 0.000000 0.000000 0.000000 0.000000 0.031762
#
#
# Mechanical properties :
#
#
# Convention : Reuss Voigt Hill
#
# Bulk Modulus (GPa) = 13.34583 20.68967 17.01775
# Shear Modulus (GPa) = 24.85799 28.22562 26.54181
#
# Velocity S-wave (km/s) = 3.53702 3.76900 3.65485
# Velocity P-wave (km/s) = 4.83708 5.41785 5.13568
#
# Compressibility (1/GPa) = 0.07492978
#
# Stress axis : x y z
#
# Youngs Moduli (GPa) = 28.16338 68.75500 78.17512
#
# Poissons Ratio (x) = -0.28990 -0.36358
# Poissons Ratio (y) = -0.11875 0.22077
# Poissons Ratio (z) = -0.13098 0.19416
#
# Static dielectric constant tensor:
#      x y z
#    x 1.775550 0.000000 0.000000 
#    y 0.000000 1.824350 0.000000 
#    z 0.000000 0.000000 1.747130 
# 
# From -- ./inp_files/26335.got.cif
#   From: 2010.05.17/outbox.cif.g08.bks.cpg/sg52_14_cif.got.tgz:26335.got - 2010.06.03 12:15:38.
