data_PCOD9411174
_publ_section_title
;
Structure prediction by ZEFSAII (Michael W. Deem and Ramdas Pophale) SiO2 
 PCOD9411174
Probable space group: P N N A
;
_chemical_formula_sum "Si O2"
_cell_formula_units_Z 40
_cell_length_a 13.842473
_cell_length_b 13.731175
_cell_length_c 8.717023
_cell_angle_alpha 90.000000
_cell_angle_beta 90.000000
_cell_angle_gamma 90.000000
_cell_volume 1656.874367
_symmetry_space_group_name_H-M "P N N A"
_symmetry_group_IT_number 52
_symmetry_cell_setting 'orthorhombic'
loop_
_space_group_symop_operation_xyz
x,y,z
1/2-x,-y,z
x,1/2-y,1/2-z
1/2-x,1/2+y,1/2-z
-x,-y,-z
1/2+x,y,-z
-x,1/2+y,1/2+z
1/2+x,1/2-y,1/2+z
loop_
_atom_site_type_symbol
_atom_site_label
_atom_site_fract_x
_atom_site_fract_y
_atom_site_fract_z
Si Si1 0.150027 0.755832 0.932879
Si Si2 0.499757 0.897522 0.405024
Si Si3 0.647549 0.539263 0.595093
Si Si4 0.436055 0.955257 0.800977
Si Si5 0.307734 0.898473 0.518657
O O1 0.160992 0.750000 0.750000
O O2 0.165495 0.860413 0.005522
O O3 0.231314 0.684975 0.996435
O O4 0.049013 0.699353 0.969080
O O5 0.386714 0.883937 0.385878
O O6 0.500000 0.000000 0.500000
O O7 0.560272 0.932569 0.259156
O O8 0.750000 0.500000 0.659112
O O9 0.551247 0.565749 0.693651
O O10 0.609421 0.459899 0.469527
O O11 0.369924 0.897148 0.679254
O O12 0.250000 0.000000 0.517824
#
# Coordination Sequence:
#
# PCOD9411174 Si02
#       5
#     8   8   8   8   8
#     4  12  22  40  68  98 129 175 233 265 333 414
#     4  10  21  40  67  94 127 170 222 279 322 389
#     4  11  24  41  63  96 140 172 219 273 334 396
#     4  10  21  42  65  91 131 175 216 271 332 390
#     4  11  21  40  71  95 126 172 226 274 331 395
#
# _framework density 24.141843000000001
#
# number of rings (size 3 to 8) (size 9 to 14) (size 15 to 20)
#    0.000    1.200    6.000    1.800    0.000    5.600 
#    0.000    3.000    0.000    0.000    0.000    0.000 
#    0.000    0.000    0.000    0.000    0.000    0.000 
#
# Total GULP energy -223143.422836 kJ/mol
# GULP energy per Si atom -5578.585571 kJ/mol
# Density = 2.408690 g / cm^3
# Si number density = 24.141843 Si / 1000 Ang^3
#
#
#
# Elastic Constant Matrix: (Units=GPa)
#
#
# Indices 1 2 3 4 5 6 
#
# 1 164.7513 33.2277 4.7196 0.0000 0.0000 0.0000
# 2 33.2277 77.7615 -11.0640 0.0000 0.0000 0.0000
# 3 4.7196 -11.0640 36.5353 0.0000 0.0000 0.0000
# 4 0.0000 0.0000 0.0000 9.4945 0.0000 0.0000
# 5 0.0000 0.0000 0.0000 0.0000 39.9530 0.0000
# 6 0.0000 0.0000 0.0000 0.0000 0.0000 33.6438
#
#
#
# Elastic Compliance Matrix: (Units=1/GPa)
#
#
# Indices 1 2 3 4 5 6 
#
# 1 0.006757 -0.003147 -0.001826 0.000000 0.000000 0.000000
# 2 -0.003147 0.014905 0.004920 0.000000 0.000000 0.000000
# 3 -0.001826 0.004920 0.029097 0.000000 0.000000 0.000000
# 4 0.000000 0.000000 0.000000 0.105324 0.000000 0.000000
# 5 0.000000 0.000000 0.000000 0.000000 0.025029 0.000000
# 6 0.000000 0.000000 0.000000 0.000000 0.000000 0.029723
#
#
# Mechanical properties :
#
#
# Convention : Reuss Voigt Hill
#
# Bulk Modulus (GPa) = 19.74236 36.97943 28.36090
# Shear Modulus (GPa) = 21.94680 33.42926 27.68803
#
# Velocity S-wave (km/s) = 3.01836 3.72520 3.39025
# Velocity P-wave (km/s) = 4.51029 5.81838 5.20559
#
# Compressibility (1/GPa) = 0.05065249
#
# Stress axis : x y z
#
# Youngs Moduli (GPa) = 148.00013 67.09347 34.36830
#
# Poissons Ratio (x) = 0.21114 0.06275
# Poissons Ratio (y) = 0.46575 -0.16910
# Poissons Ratio (z) = 0.27022 -0.33011
#
# Static dielectric constant tensor:
#      x y z
#    x 1.991410 0.000000 0.000000 
#    y 0.000000 1.784660 0.000000 
#    z 0.000000 0.000000 2.138480 
# 
# From -- ./inp_files/18008.got.cif
#   From: 2010.05.17/outbox.cif.g08.bks.cpg/sg52_10_cif.got.tgz:18008.got - 2010.06.03 12:15:38.
