data_PCOD9411071
_publ_section_title
;
Structure prediction by ZEFSAII (Michael W. Deem and Ramdas Pophale) SiO2 
 PCOD9411071
Probable space group: P N N A
;
_chemical_formula_sum "Si O2"
_cell_formula_units_Z 40
_cell_length_a 9.748317
_cell_length_b 8.466216
_cell_length_c 26.486481
_cell_angle_alpha 90.000000
_cell_angle_beta 90.000000
_cell_angle_gamma 90.000000
_cell_volume 2185.965229
_symmetry_space_group_name_H-M "P N N A"
_symmetry_group_IT_number 52
_symmetry_cell_setting 'orthorhombic'
loop_
_space_group_symop_operation_xyz
x,y,z
1/2-x,-y,z
x,1/2-y,1/2-z
1/2-x,1/2+y,1/2-z
-x,-y,-z
1/2+x,y,-z
-x,1/2+y,1/2+z
1/2+x,1/2-y,1/2+z
loop_
_atom_site_type_symbol
_atom_site_label
_atom_site_fract_x
_atom_site_fract_y
_atom_site_fract_z
Si Si1 0.451434 0.335936 0.650829
Si Si2 0.308531 0.673821 0.803641
Si Si3 0.214337 0.315652 0.193171
Si Si4 0.033562 0.820312 0.141013
Si Si5 0.916351 0.000512 0.051713
O O1 0.302183 0.284702 0.668530
O O2 0.560321 0.218924 0.675193
O O3 0.492050 0.513826 0.668108
O O4 0.451344 0.354173 0.589952
O O5 0.250000 0.500000 0.798354
O O6 0.336837 0.750000 0.750000
O O7 0.446197 0.679476 0.835676
O O8 0.250000 0.500000 0.192228
O O9 0.235237 0.250000 0.250000
O O10 0.310606 0.219469 0.153738
O O11 0.978898 0.854992 0.084735
O O12 0.750000 0.000000 0.045949
O O13 0.000000 0.000000 0.000000
#
# Coordination Sequence:
#
# PCOD9411071 Si02
#       5
#     8   8   8   8   8
#     4  10  21  40  59  90 124 156 213 258 306 373
#     4  12  22  36  60  87 127 169 205 250 312 377
#     4  12  24  38  58  91 131 175 213 252 312 373
#     4  10  21  40  59  90 124 156 213 258 306 373
#     4  10  22  40  72  98 120 158 218 270 321 372
#
# _framework density 18.298552999999998
#
# number of rings (size 3 to 8) (size 9 to 14) (size 15 to 20)
#    1.200    0.000    2.000    6.000    2.800    0.000 
#    0.000    0.000    0.000    7.200    0.000    0.000 
#    0.000    0.000    0.000    0.000    0.000    0.000 
#
# Total GULP energy -222921.066597 kJ/mol
# GULP energy per Si atom -5573.026665 kJ/mol
# Density = 1.825691 g / cm^3
# Si number density = 18.298553 Si / 1000 Ang^3
#
#
#
# Elastic Constant Matrix: (Units=GPa)
#
#
# Indices 1 2 3 4 5 6 
#
# 1 71.9527 -4.6769 29.3942 0.0000 0.0000 0.0000
# 2 -4.6769 66.0789 15.4432 0.0000 0.0000 0.0000
# 3 29.3942 15.4432 129.3298 0.0000 0.0000 0.0000
# 4 0.0000 0.0000 0.0000 7.7088 0.0000 0.0000
# 5 0.0000 0.0000 0.0000 0.0000 38.8412 0.0000
# 6 0.0000 0.0000 0.0000 0.0000 0.0000 34.7855
#
#
#
# Elastic Compliance Matrix: (Units=1/GPa)
#
#
# Indices 1 2 3 4 5 6 
#
# 1 0.015569 0.001984 -0.003776 0.000000 0.000000 0.000000
# 2 0.001984 0.015821 -0.002340 0.000000 0.000000 0.000000
# 3 -0.003776 -0.002340 0.008870 0.000000 0.000000 0.000000
# 4 0.000000 0.000000 0.000000 0.129722 0.000000 0.000000
# 5 0.000000 0.000000 0.000000 0.000000 0.025746 0.000000
# 6 0.000000 0.000000 0.000000 0.000000 0.000000 0.028748
#
#
# Mechanical properties :
#
#
# Convention : Reuss Voigt Hill
#
# Bulk Modulus (GPa) = 31.25280 38.63139 34.94209
# Shear Modulus (GPa) = 20.54196 31.41381 25.97789
#
# Velocity S-wave (km/s) = 3.35416 4.14785 3.77194
# Velocity P-wave (km/s) = 5.66718 6.64056 6.17309
#
# Compressibility (1/GPa) = 0.03199713
#
# Stress axis : x y z
#
# Youngs Moduli (GPa) = 64.22856 63.20798 112.74309
#
# Poissons Ratio (x) = -0.12543 0.42567
# Poissons Ratio (y) = -0.12745 0.26384
# Poissons Ratio (z) = 0.24250 0.14792
#
# Static dielectric constant tensor:
#      x y z
#    x 1.594500 0.000000 0.000000 
#    y 0.000000 1.627820 0.000000 
#    z 0.000000 0.000000 1.621690 
# 
# From -- ./inp_files/42096.got.cif
#   From: 2010.05.17/outbox.cif.g08.bks.cpg/sg52_22_cif.got.tgz:42096.got - 2010.06.03 12:15:38.
