data_PCOD9411052
_publ_section_title
;
Structure prediction by ZEFSAII (Michael W. Deem and Ramdas Pophale) SiO2 
 PCOD9411052
Probable space group: P N N A
;
_chemical_formula_sum "Si O2"
_cell_formula_units_Z 60
_cell_length_a 12.067453
_cell_length_b 26.273976
_cell_length_c 7.617061
_cell_angle_alpha 90.000000
_cell_angle_beta 90.000000
_cell_angle_gamma 90.000000
_cell_volume 2415.065136
_symmetry_space_group_name_H-M "P N N A"
_symmetry_group_IT_number 52
_symmetry_cell_setting 'orthorhombic'
loop_
_space_group_symop_operation_xyz
x,y,z
1/2-x,-y,z
x,1/2-y,1/2-z
1/2-x,1/2+y,1/2-z
-x,-y,-z
1/2+x,y,-z
-x,1/2+y,1/2+z
1/2+x,1/2-y,1/2+z
loop_
_atom_site_type_symbol
_atom_site_label
_atom_site_fract_x
_atom_site_fract_y
_atom_site_fract_z
Si Si1 0.455713 0.690833 0.734378
Si Si2 0.279312 0.414856 0.396671
Si Si3 0.793828 0.305755 0.195986
Si Si4 0.023877 0.408150 0.552329
Si Si5 0.007382 0.150630 0.375030
Si Si6 0.765905 0.808738 0.711317
Si Si7 0.438791 0.949039 0.555672
Si Si8 0.750000 0.000000 0.606255
O O1 0.484628 0.750000 0.750000
O O2 0.322630 0.687693 0.711142
O O3 0.490603 0.652620 0.582920
O O4 0.494411 0.670728 0.924181
O O5 0.148643 0.419385 0.468207
O O6 0.396863 0.424683 0.503656
O O7 0.282355 0.356742 0.318709
O O8 0.292646 0.456844 0.242178
O O9 0.834915 0.250000 0.250000
O O10 0.892774 0.343790 0.222807
O O11 0.764126 0.313042 0.992718
O O12 0.036774 0.430237 0.750246
O O13 0.102446 0.182518 0.280879
O O14 0.037007 0.092541 0.406381
O O15 0.737915 0.750000 0.750000
O O16 0.313077 0.963644 0.529302
O O17 0.500000 0.000000 0.500000
#
# Coordination Sequence:
#
# PCOD9411052 Si02
#       8
#     8   8   8   8   8   8   8   4
#     4   9  21  41  64 100 151 192 246 306 372 454
#     4  12  28  51  77 112 159 203 255 332 397 478
#     4  10  22  39  65 101 144 190 251 310 365 456
#     4  11  27  49  76 115 152 204 262 326 400 472
#     4  10  21  39  68 103 138 190 254 312 376 461
#     4  11  24  43  65 103 149 200 245 306 392 462
#     4  11  23  47  81 107 144 205 264 329 398 476
#     4  12  26  52  78 106 154 194 266 326 406 474
#
# _framework density 24.844049999999999
#
# number of rings (size 3 to 8) (size 9 to 14) (size 15 to 20)
#    0.000    1.333    2.667    2.000    5.600    4.267 
#    2.400    0.000    0.000    0.000    0.000    0.000 
#    0.000    0.000    0.000    0.000    0.000    0.000 
#
# Total GULP energy -334383.997765 kJ/mol
# GULP energy per Si atom -5573.066629 kJ/mol
# Density = 2.478750 g / cm^3
# Si number density = 24.844050 Si / 1000 Ang^3
#
#
#
# Elastic Constant Matrix: (Units=GPa)
#
#
# Indices 1 2 3 4 5 6 
#
# 1 137.8693 18.5817 29.8965 0.0000 0.0000 0.0000
# 2 18.5817 99.5376 16.1746 0.0000 0.0000 0.0000
# 3 29.8965 16.1746 77.8508 0.0000 0.0000 0.0000
# 4 0.0000 0.0000 0.0000 12.5269 0.0000 0.0000
# 5 0.0000 0.0000 0.0000 0.0000 -132.7922 0.0000
# 6 0.0000 0.0000 0.0000 0.0000 0.0000 35.4252
#
#
#
# Elastic Compliance Matrix: (Units=1/GPa)
#
#
# Indices 1 2 3 4 5 6 
#
# 1 0.008013 -0.001031 -0.002863 0.000000 0.000000 0.000000
# 2 -0.001031 0.010530 -0.001792 0.000000 0.000000 0.000000
# 3 -0.002863 -0.001792 0.014317 0.000000 0.000000 0.000000
# 4 0.000000 0.000000 0.000000 0.079828 0.000000 0.000000
# 5 0.000000 0.000000 0.000000 0.000000 -0.007531 0.000000
# 6 0.000000 0.000000 0.000000 0.000000 0.000000 0.028228
#
#
# Mechanical properties :
#
#
# Convention : Reuss Voigt Hill
#
# Bulk Modulus (GPa) = 46.53632 49.39593 47.96613
# Shear Modulus (GPa) = 32.91199 -0.26102 16.32549
#
# Velocity S-wave (km/s) = 3.64365 -0.32449 2.56621
# Velocity P-wave (km/s) = 6.03934 4.44805 5.30372
#
# Compressibility (1/GPa) = 0.02148859
#
# Stress axis : x y z
#
# Youngs Moduli (GPa) = 124.79732 94.96639 69.84767
#
# Poissons Ratio (x) = 0.09788 0.19998
# Poissons Ratio (y) = 0.12862 0.12517
# Poissons Ratio (z) = 0.35730 0.17018
#
# Static dielectric constant tensor:
#      x y z
#    x 2.108710 0.000000 0.000000 
#    y 0.000000 1.902080 0.000000 
#    z 0.000000 0.000000 1.928340 
# 
# From -- ./inp_files/9019.got.cif
#   From: 2010.05.17/outbox.cif.g08.bks.cpg/sg52_5_cif.got.tgz:9019.got - 2010.06.03 12:15:38.
