data_PCOD9411997
_publ_section_title
;
Structure prediction by ZEFSAII (Michael W. Deem and Ramdas Pophale) SiO2 
 PCOD9411997
Probable space group: P N N A
;
_chemical_formula_sum "Si O2"
_cell_formula_units_Z 40
_cell_length_a 13.979271
_cell_length_b 7.361512
_cell_length_c 16.778932
_cell_angle_alpha 90.000000
_cell_angle_beta 90.000000
_cell_angle_gamma 90.000000
_cell_volume 1726.695919
_symmetry_space_group_name_H-M "P N N A"
_symmetry_group_IT_number 52
_symmetry_cell_setting 'orthorhombic'
loop_
_space_group_symop_operation_xyz
x,y,z
1/2-x,-y,z
x,1/2-y,1/2-z
1/2-x,1/2+y,1/2-z
-x,-y,-z
1/2+x,y,-z
-x,1/2+y,1/2+z
1/2+x,1/2-y,1/2+z
loop_
_atom_site_type_symbol
_atom_site_label
_atom_site_fract_x
_atom_site_fract_y
_atom_site_fract_z
Si Si1 0.999681 0.431137 0.283389
Si Si2 0.956235 0.384157 0.879695
Si Si3 0.137973 0.962987 0.538937
Si Si4 0.861177 0.462885 0.418103
Si Si5 0.863679 0.510308 0.593934
O O1 0.951400 0.250000 0.250000
O O2 0.040625 0.546266 0.210624
O O3 0.085869 0.365539 0.340943
O O4 0.922117 0.519716 0.341977
O O5 0.909763 0.184918 0.885013
O O6 0.064828 0.415428 0.910433
O O7 0.892458 0.487489 0.946541
O O8 0.122381 0.751879 0.564224
O O9 0.250000 0.000000 0.549864
O O10 0.750000 0.500000 0.404679
O O11 0.887781 0.556054 0.502476
O O12 0.750000 0.500000 0.600039
#
# Coordination Sequence:
#
# PCOD9411997 Si02
#       5
#     8   8   8   8   8
#     4  12  24  41  65 101 141 173 225 294 350 416
#     4  10  23  43  64 101 140 173 231 289 350 416
#     4  10  22  42  70  99 133 185 231 282 351 422
#     4  10  23  44  66 100 135 179 234 281 344 425
#     4  10  24  45  69  96 131 186 235 281 352 422
#
# _framework density 23.165628000000002
#
# number of rings (size 3 to 8) (size 9 to 14) (size 15 to 20)
#    0.000    1.600    2.000    1.200    2.800    8.000 
#    0.000    0.000    0.000    0.000    0.000    0.000 
#    0.000    0.000    0.000    0.000    0.000    0.000 
#
# Total GULP energy -223639.915764 kJ/mol
# GULP energy per Si atom -5590.997894 kJ/mol
# Density = 2.311290 g / cm^3
# Si number density = 23.165628 Si / 1000 Ang^3
#
#
#
# Elastic Constant Matrix: (Units=GPa)
#
#
# Indices 1 2 3 4 5 6 
#
# 1 159.5636 23.5730 50.2988 0.0000 0.0000 0.0000
# 2 23.5730 82.8995 31.8635 0.0000 0.0000 0.0000
# 3 50.2988 31.8635 139.1624 0.0000 0.0000 0.0000
# 4 0.0000 0.0000 0.0000 7.9350 0.0000 0.0000
# 5 0.0000 0.0000 0.0000 0.0000 -12.9421 0.0000
# 6 0.0000 0.0000 0.0000 0.0000 0.0000 35.6621
#
#
#
# Elastic Compliance Matrix: (Units=1/GPa)
#
#
# Indices 1 2 3 4 5 6 
#
# 1 0.007170 -0.001143 -0.002330 0.000000 0.000000 0.000000
# 2 -0.001143 0.013409 -0.002657 0.000000 0.000000 0.000000
# 3 -0.002330 -0.002657 0.008636 0.000000 0.000000 0.000000
# 4 0.000000 0.000000 0.000000 0.126025 0.000000 0.000000
# 5 0.000000 0.000000 0.000000 0.000000 -0.077267 0.000000
# 6 0.000000 0.000000 0.000000 0.000000 0.000000 0.028041
#
#
# Mechanical properties :
#
#
# Convention : Reuss Voigt Hill
#
# Bulk Modulus (GPa) = 58.97835 65.89958 62.43896
# Shear Modulus (GPa) = 40.34640 24.52368 32.43504
#
# Velocity S-wave (km/s) = 4.17783 3.25718 3.74590
# Velocity P-wave (km/s) = 6.98478 6.53104 6.76172
#
# Compressibility (1/GPa) = 0.01695538
#
# Stress axis : x y z
#
# Youngs Moduli (GPa) = 139.46110 74.57577 115.79017
#
# Poissons Ratio (x) = 0.08527 0.26978
# Poissons Ratio (y) = 0.15947 0.30765
# Poissons Ratio (z) = 0.32493 0.19815
#
# Static dielectric constant tensor:
#      x y z
#    x 1.832420 0.000000 0.000000 
#    y 0.000000 2.042260 0.000000 
#    z 0.000000 0.000000 1.899670 
# 
# From -- ./inp_files/26877.got.cif
#   From: 2010.05.17/outbox.cif.g08.bks.cpg/sg52_14_cif.got.tgz:26877.got - 2010.06.03 12:15:38.
