data_PCOD9411877
_publ_section_title
;
Structure prediction by ZEFSAII (Michael W. Deem and Ramdas Pophale) SiO2 
 PCOD9411877
Probable space group: P N N A
;
_chemical_formula_sum "Si O2"
_cell_formula_units_Z 48
_cell_length_a 16.414675
_cell_length_b 9.031641
_cell_length_c 15.733283
_cell_angle_alpha 90.000000
_cell_angle_beta 90.000000
_cell_angle_gamma 90.000000
_cell_volume 2332.482045
_symmetry_space_group_name_H-M "P N N A"
_symmetry_group_IT_number 52
_symmetry_cell_setting 'orthorhombic'
loop_
_space_group_symop_operation_xyz
x,y,z
1/2-x,-y,z
x,1/2-y,1/2-z
1/2-x,1/2+y,1/2-z
-x,-y,-z
1/2+x,y,-z
-x,1/2+y,1/2+z
1/2+x,1/2-y,1/2+z
loop_
_atom_site_type_symbol
_atom_site_label
_atom_site_fract_x
_atom_site_fract_y
_atom_site_fract_z
Si Si1 0.412126 0.837253 0.643057
Si Si2 0.845847 0.967602 0.192621
Si Si3 0.096214 0.361208 0.055673
Si Si4 0.260787 0.824944 0.331056
Si Si5 0.089082 0.698464 0.109069
Si Si6 0.955923 0.368371 0.446221
O O1 0.352987 0.698469 0.655662
O O2 0.407731 0.885977 0.545414
O O3 0.502944 0.768602 0.652771
O O4 0.388351 0.956685 0.714197
O O5 0.897994 0.070429 0.128232
O O6 0.750000 0.000000 0.199801
O O7 0.183675 0.303746 0.086411
O O8 0.085921 0.521028 0.098044
O O9 0.027213 0.244311 0.082362
O O10 0.301461 0.750000 0.250000
O O11 0.171205 0.758571 0.343780
O O12 0.250000 0.000000 0.316907
O O13 0.092207 0.775323 0.017343
O O14 0.000000 0.500000 0.500000
#
# Coordination Sequence:
#
# PCOD9411877 Si02
#       6
#     8   8   8   8   8   8
#     4  10  22  45  63  87 135 169 214 271 327 388
#     4  11  25  41  62  98 129 167 226 278 326 385
#     4  10  22  44  64  96 133 175 213 265 334 401
#     4  10  24  41  64  98 130 166 218 269 326 392
#     4  10  22  41  68  90 127 178 210 259 339 394
#     4  11  21  38  67  95 123 169 224 267 326 385
#
# _framework density 20.578937
#
# number of rings (size 3 to 8) (size 9 to 14) (size 15 to 20)
#    0.000    1.667    3.333    2.000    4.667    6.000 
#    9.000    0.000    0.000    0.000    0.000    0.000 
#    0.000    0.000    0.000    0.000    0.000    0.000 
#
# Total GULP energy -267817.379733 kJ/mol
# GULP energy per Si atom -5579.528744 kJ/mol
# Density = 2.053210 g / cm^3
# Si number density = 20.578937 Si / 1000 Ang^3
#
#
#
# Elastic Constant Matrix: (Units=GPa)
#
#
# Indices 1 2 3 4 5 6 
#
# 1 112.6022 16.8543 64.1296 0.0000 0.0000 0.0000
# 2 16.8543 51.6712 15.9007 0.0000 0.0000 0.0000
# 3 64.1296 15.9007 109.0056 0.0000 0.0000 0.0000
# 4 0.0000 0.0000 0.0000 32.7968 0.0000 0.0000
# 5 0.0000 0.0000 0.0000 0.0000 16.9636 0.0000
# 6 0.0000 0.0000 0.0000 0.0000 0.0000 21.5769
#
#
#
# Elastic Compliance Matrix: (Units=1/GPa)
#
#
# Indices 1 2 3 4 5 6 
#
# 1 0.013562 -0.002061 -0.007678 0.000000 0.000000 0.000000
# 2 -0.002061 0.020576 -0.001789 0.000000 0.000000 0.000000
# 3 -0.007678 -0.001789 0.013952 0.000000 0.000000 0.000000
# 4 0.000000 0.000000 0.000000 0.030491 0.000000 0.000000
# 5 0.000000 0.000000 0.000000 0.000000 0.058950 0.000000
# 6 0.000000 0.000000 0.000000 0.000000 0.000000 0.046346
#
#
# Mechanical properties :
#
#
# Convention : Reuss Voigt Hill
#
# Bulk Modulus (GPa) = 39.94580 51.89424 45.92002
# Shear Modulus (GPa) = 23.22585 26.02709 24.62647
#
# Velocity S-wave (km/s) = 3.36314 3.56018 3.46306
# Velocity P-wave (km/s) = 5.87657 6.49398 6.19298
#
# Compressibility (1/GPa) = 0.02503392
#
# Stress axis : x y z
#
# Youngs Moduli (GPa) = 73.73411 48.60055 71.67420
#
# Poissons Ratio (x) = 0.10016 0.55033
# Poissons Ratio (y) = 0.15196 0.12822
# Poissons Ratio (z) = 0.56615 0.08694
#
# Static dielectric constant tensor:
#      x y z
#    x 1.767800 0.000000 0.000000 
#    y 0.000000 1.734350 0.000000 
#    z 0.000000 0.000000 1.740860 
# 
# From -- ./inp_files/28097.got.cif
#   From: 2010.05.17/outbox.cif.g08.bks.cpg/sg52_15_cif.got.tgz:28097.got - 2010.06.03 12:15:38.
