data_PCOD9411324
_publ_section_title
;
Structure prediction by ZEFSAII (Michael W. Deem and Ramdas Pophale) SiO2 
 PCOD9411324
Probable space group: P N N A
;
_chemical_formula_sum "Si O2"
_cell_formula_units_Z 56
_cell_length_a 28.258146
_cell_length_b 6.579345
_cell_length_c 15.608294
_cell_angle_alpha 90.000000
_cell_angle_beta 90.000000
_cell_angle_gamma 90.000000
_cell_volume 2901.895450
_symmetry_space_group_name_H-M "P N N A"
_symmetry_group_IT_number 52
_symmetry_cell_setting 'orthorhombic'
loop_
_space_group_symop_operation_xyz
x,y,z
1/2-x,-y,z
x,1/2-y,1/2-z
1/2-x,1/2+y,1/2-z
-x,-y,-z
1/2+x,y,-z
-x,1/2+y,1/2+z
1/2+x,1/2-y,1/2+z
loop_
_atom_site_type_symbol
_atom_site_label
_atom_site_fract_x
_atom_site_fract_y
_atom_site_fract_z
Si Si1 0.016869 0.026886 0.400661
Si Si2 0.096625 0.338480 0.453295
Si Si3 0.887411 0.105828 0.108342
Si Si4 0.348759 0.450347 0.009548
Si Si5 0.295307 0.861034 0.833942
Si Si6 0.250000 0.500000 0.946132
Si Si7 0.595167 0.726973 0.650517
Si Si8 0.044324 0.750000 0.750000
O O1 0.043353 0.817510 0.374308
O O2 0.055951 0.199387 0.415475
O O3 0.000000 0.000000 0.500000
O O4 0.984641 0.113806 0.321338
O O5 0.085388 0.477297 0.535681
O O6 0.106337 0.500300 0.379701
O O7 0.137342 0.186312 0.485926
O O8 0.920356 0.118293 0.190907
O O9 0.837057 0.999113 0.127610
O O10 0.875613 0.327165 0.066706
O O11 0.368321 0.360684 0.097043
O O12 0.293517 0.413142 0.999505
O O13 0.314852 0.750000 0.750000
O O14 0.274120 0.680428 0.891988
O O15 0.250000 0.000000 0.810983
O O16 0.600719 0.750000 0.750000
#
# Coordination Sequence:
#
# PCOD9411324 Si02
#       8
#     8   8   8   8   8   4   8   4
#     4  11  24  42  62  94 128 169 223 281 327 413
#     4  10  21  42  66  87 123 172 212 264 338 388
#     4  11  25  41  60  94 130 171 213 274 326 397
#     4  10  22  40  65  96 126 167 219 270 325 408
#     4  12  25  38  61  93 130 173 216 259 324 405
#     4  12  22  40  68  90 130 170 216 262 332 394
#     4  10  22  41  67  90 126 167 222 270 340 402
#     4  12  26  40  64  96 136 168 228 284 334 392
#
# _framework density 19.297732
#
# number of rings (size 3 to 8) (size 9 to 14) (size 15 to 20)
#    0.000    1.143    3.571    3.429    3.000    6.286 
#    0.000    1.429    3.143    0.000    0.000    0.000 
#    0.000    0.000    0.000    0.000    0.000    0.000 
#
# Total GULP energy -312173.024756 kJ/mol
# GULP energy per Si atom -5574.518299 kJ/mol
# Density = 1.925381 g / cm^3
# Si number density = 19.297732 Si / 1000 Ang^3
#
#
#
# Elastic Constant Matrix: (Units=GPa)
#
#
# Indices 1 2 3 4 5 6 
#
# 1 89.9580 30.2393 53.8106 0.0000 0.0000 0.0000
# 2 30.2393 100.0272 41.0207 0.0000 0.0000 0.0000
# 3 53.8106 41.0207 139.2735 0.0000 0.0000 0.0000
# 4 0.0000 0.0000 0.0000 6.6352 0.0000 0.0000
# 5 0.0000 0.0000 0.0000 0.0000 98.4539 0.0000
# 6 0.0000 0.0000 0.0000 0.0000 0.0000 28.7658
#
#
#
# Elastic Compliance Matrix: (Units=1/GPa)
#
#
# Indices 1 2 3 4 5 6 
#
# 1 0.014967 -0.002449 -0.005062 0.000000 0.000000 0.000000
# 2 -0.002449 0.011771 -0.002521 0.000000 0.000000 0.000000
# 3 -0.005062 -0.002521 0.009878 0.000000 0.000000 0.000000
# 4 0.000000 0.000000 0.000000 0.150711 0.000000 0.000000
# 5 0.000000 0.000000 0.000000 0.000000 0.010157 0.000000
# 6 0.000000 0.000000 0.000000 0.000000 0.000000 0.034763
#
#
# Mechanical properties :
#
#
# Convention : Reuss Voigt Hill
#
# Bulk Modulus (GPa) = 60.40824 64.37776 62.39300
# Shear Modulus (GPa) = 19.39266 40.38353 29.88809
#
# Velocity S-wave (km/s) = 3.17348 4.57952 3.93973
# Velocity P-wave (km/s) = 6.69322 7.83552 7.28679
#
# Compressibility (1/GPa) = 0.01655403
#
# Stress axis : x y z
#
# Youngs Moduli (GPa) = 66.81274 84.95131 101.23315
#
# Poissons Ratio (x) = 0.20805 0.51239
# Poissons Ratio (y) = 0.16363 0.25519
# Poissons Ratio (z) = 0.33817 0.21415
#
# Static dielectric constant tensor:
#      x y z
#    x 1.032570 0.000000 0.000000 
#    y 0.000000 1.739930 0.000000 
#    z 0.000000 0.000000 1.678880 
# 
# From -- ./inp_files/29708.got.cif
#   From: 2010.05.17/outbox.cif.g08.bks.cpg/sg52_15_cif.got.tgz:29708.got - 2010.06.03 12:15:38.
