data_PCOD9411935
_publ_section_title
;
Structure prediction by ZEFSAII (Michael W. Deem and Ramdas Pophale) SiO2 
 PCOD9411935
Probable space group: P N N A
;
_chemical_formula_sum "Si O2"
_cell_formula_units_Z 40
_cell_length_a 9.695408
_cell_length_b 7.934073
_cell_length_c 24.135097
_cell_angle_alpha 90.000000
_cell_angle_beta 90.000000
_cell_angle_gamma 90.000000
_cell_volume 1856.570008
_symmetry_space_group_name_H-M "P N N A"
_symmetry_group_IT_number 52
_symmetry_cell_setting 'orthorhombic'
loop_
_space_group_symop_operation_xyz
x,y,z
1/2-x,-y,z
x,1/2-y,1/2-z
1/2-x,1/2+y,1/2-z
-x,-y,-z
1/2+x,y,-z
-x,1/2+y,1/2+z
1/2+x,1/2-y,1/2+z
loop_
_atom_site_type_symbol
_atom_site_label
_atom_site_fract_x
_atom_site_fract_y
_atom_site_fract_z
Si Si1 0.491851 0.217785 0.117499
Si Si2 0.297614 0.190987 0.601397
Si Si3 0.405399 0.070133 0.282133
Si Si4 0.624445 0.628092 0.506052
Si Si5 0.907290 0.071613 0.191963
O O1 0.649708 0.217544 0.097656
O O2 0.460414 0.374732 0.157588
O O3 0.495203 0.046425 0.153273
O O4 0.391397 0.215996 0.065511
O O5 0.373293 0.240415 0.544618
O O6 0.377592 0.263918 0.654742
O O7 0.250000 0.000000 0.606338
O O8 0.404982 0.250000 0.250000
O O9 0.250000 0.000000 0.283910
O O10 0.509530 0.945095 0.249529
O O11 0.750000 0.500000 0.505185
O O12 0.500000 0.500000 0.500000
O O13 0.750000 0.000000 0.201413
#
# Coordination Sequence:
#
# PCOD9411935 Si02
#       5
#     8   8   8   8   8
#     4  10  22  42  65  96 136 180 234 281 351 431
#     4  11  23  40  66 104 137 173 237 296 344 422
#     4  10  23  42  64  95 136 179 232 291 356 432
#     4  12  22  44  73  96 133 189 230 282 360 429
#     4   9  19  42  70  91 130 189 233 281 350 427
#
# _framework density 21.545107000000002
#
# number of rings (size 3 to 8) (size 9 to 14) (size 15 to 20)
#    0.000    1.600    4.000    0.600    0.000    7.200 
#    3.600    5.000    0.000    0.000    0.000    0.000 
#    0.000    0.000    0.000    0.000    0.000    0.000 
#
# Total GULP energy -223146.239279 kJ/mol
# GULP energy per Si atom -5578.655982 kJ/mol
# Density = 2.149607 g / cm^3
# Si number density = 21.545107 Si / 1000 Ang^3
#
#
#
# Elastic Constant Matrix: (Units=GPa)
#
#
# Indices 1 2 3 4 5 6 
#
# 1 107.7438 36.5243 70.0346 0.0000 0.0000 0.0000
# 2 36.5243 117.4816 88.3807 0.0000 0.0000 0.0000
# 3 70.0346 88.3807 179.0895 0.0000 0.0000 0.0000
# 4 0.0000 0.0000 0.0000 37.1754 0.0000 0.0000
# 5 0.0000 0.0000 0.0000 0.0000 28.5318 0.0000
# 6 0.0000 0.0000 0.0000 0.0000 0.0000 35.4884
#
#
#
# Elastic Compliance Matrix: (Units=1/GPa)
#
#
# Indices 1 2 3 4 5 6 
#
# 1 0.012453 -0.000331 -0.004706 0.000000 0.000000 0.000000
# 2 -0.000331 0.013547 -0.006556 0.000000 0.000000 0.000000
# 3 -0.004706 -0.006556 0.010660 0.000000 0.000000 0.000000
# 4 0.000000 0.000000 0.000000 0.026900 0.000000 0.000000
# 5 0.000000 0.000000 0.000000 0.000000 0.035049 0.000000
# 6 0.000000 0.000000 0.000000 0.000000 0.000000 0.028178
#
#
# Mechanical properties :
#
#
# Convention : Reuss Voigt Hill
#
# Bulk Modulus (GPa) = 74.22447 88.24378 81.23412
# Shear Modulus (GPa) = 32.37019 34.19747 33.28383
#
# Velocity S-wave (km/s) = 3.88033 3.98835 3.93471
# Velocity P-wave (km/s) = 7.38928 7.89024 7.64387
#
# Compressibility (1/GPa) = 0.01347265
#
# Stress axis : x y z
#
# Youngs Moduli (GPa) = 80.30404 73.81782 93.81123
#
# Poissons Ratio (x) = 0.02442 0.44152
# Poissons Ratio (y) = 0.02657 0.61503
# Poissons Ratio (z) = 0.37795 0.48395
#
# Static dielectric constant tensor:
#      x y z
#    x 1.743470 0.000000 0.000000 
#    y 0.000000 1.879720 0.000000 
#    z 0.000000 0.000000 1.845910 
# 
# From -- ./inp_files/39186.got.cif
#   From: 2010.05.17/outbox.cif.g08.bks.cpg/sg52_20_cif.got.tgz:39186.got - 2010.06.03 12:15:38.
