data_PCOD9411555
_publ_section_title
;
Structure prediction by ZEFSAII (Michael W. Deem and Ramdas Pophale) SiO2 
 PCOD9411555
Probable space group: P N N A
;
_chemical_formula_sum "Si O2"
_cell_formula_units_Z 40
_cell_length_a 14.705458
_cell_length_b 8.180151
_cell_length_c 18.400293
_cell_angle_alpha 90.000000
_cell_angle_beta 90.000000
_cell_angle_gamma 90.000000
_cell_volume 2213.423998
_symmetry_space_group_name_H-M "P N N A"
_symmetry_group_IT_number 52
_symmetry_cell_setting 'orthorhombic'
loop_
_space_group_symop_operation_xyz
x,y,z
1/2-x,-y,z
x,1/2-y,1/2-z
1/2-x,1/2+y,1/2-z
-x,-y,-z
1/2+x,y,-z
-x,1/2+y,1/2+z
1/2+x,1/2-y,1/2+z
loop_
_atom_site_type_symbol
_atom_site_label
_atom_site_fract_x
_atom_site_fract_y
_atom_site_fract_z
Si Si1 0.476659 0.645145 0.639153
Si Si2 0.062298 0.015935 0.700457
Si Si3 0.750000 0.000000 0.388007
Si Si4 0.808714 0.831265 0.032403
Si Si5 0.562143 0.250000 0.750000
Si Si6 0.350325 0.930334 0.120624
O O1 0.487962 0.834484 0.660736
O O2 0.439157 0.560930 0.713590
O O3 0.397064 0.637185 0.581026
O O4 0.569057 0.563243 0.610841
O O5 0.160758 0.995264 0.663831
O O6 0.003252 0.853663 0.697592
O O7 0.739916 0.167193 0.435881
O O8 0.750000 0.000000 0.035583
O O9 0.842983 0.813104 0.949456
O O10 0.623901 0.146807 0.802961
O O11 0.250000 0.000000 0.127118
#
# Coordination Sequence:
#
# PCOD9411555 Si02
#       6
#     8   8   4   8   4   8
#     4   9  19  38  59  85 120 156 197 240 301 359
#     4   9  20  35  59  91 119 154 192 246 300 359
#     4  10  22  38  58  96 128 148 198 240 302 376
#     4  10  22  39  60  88 122 162 190 247 304 364
#     4  10  22  38  60  86 114 156 204 248 302 352
#     4  10  22  41  58  82 114 158 207 249 297 347
#
# _framework density 18.071549000000001
#
# number of rings (size 3 to 8) (size 9 to 14) (size 15 to 20)
#    0.000    2.400    0.000    0.600    7.000    4.800 
#    9.000    2.000    0.000    0.000    0.000    0.000 
#    0.000    0.000    0.000    0.000    0.000    0.000 
#
# Total GULP energy -222768.924121 kJ/mol
# GULP energy per Si atom -5569.223103 kJ/mol
# Density = 1.803042 g / cm^3
# Si number density = 18.071549 Si / 1000 Ang^3
#
#
#
# Elastic Constant Matrix: (Units=GPa)
#
#
# Indices 1 2 3 4 5 6 
#
# 1 102.0090 50.5265 45.6032 0.0000 0.0000 0.0000
# 2 50.5265 78.7720 22.6661 0.0000 0.0000 0.0000
# 3 45.6032 22.6661 62.5023 0.0000 0.0000 0.0000
# 4 0.0000 0.0000 0.0000 144.9052 0.0000 0.0000
# 5 0.0000 0.0000 0.0000 0.0000 10.3904 0.0000
# 6 0.0000 0.0000 0.0000 0.0000 0.0000 16.7570
#
#
#
# Elastic Compliance Matrix: (Units=1/GPa)
#
#
# Indices 1 2 3 4 5 6 
#
# 1 0.019098 -0.009201 -0.010598 0.000000 0.000000 0.000000
# 2 -0.009201 0.018606 -0.000035 0.000000 0.000000 0.000000
# 3 -0.010598 -0.000035 0.023744 0.000000 0.000000 0.000000
# 4 0.000000 0.000000 0.000000 0.006901 0.000000 0.000000
# 5 0.000000 0.000000 0.000000 0.000000 0.096243 0.000000
# 6 0.000000 0.000000 0.000000 0.000000 0.000000 0.059677
#
#
# Mechanical properties :
#
#
# Convention : Reuss Voigt Hill
#
# Bulk Modulus (GPa) = 45.90769 53.43054 49.66912
# Shear Modulus (GPa) = 18.43686 42.70968 30.57327
#
# Velocity S-wave (km/s) = 3.19755 4.86672 4.11760
# Velocity P-wave (km/s) = 6.25227 7.82370 7.08170
#
# Compressibility (1/GPa) = 0.02178284
#
# Stress axis : x y z
#
# Youngs Moduli (GPa) = 52.36158 53.74533 42.11526
#
# Poissons Ratio (x) = 0.49448 0.44633
# Poissons Ratio (y) = 0.48175 0.00146
# Poissons Ratio (z) = 0.55492 0.00186
#
# Static dielectric constant tensor:
#      x y z
#    x 1.581270 0.000000 0.000000 
#    y 0.000000 1.672190 0.000000 
#    z 0.000000 0.000000 1.626230 
# 
# From -- ./inp_files/26953.got.cif
#   From: 2010.05.17/outbox.cif.g08.bks.cpg/sg52_14_cif.got.tgz:26953.got - 2010.06.03 12:15:38.
