data_PCOD9411749
_publ_section_title
;
Structure prediction by ZEFSAII (Michael W. Deem and Ramdas Pophale) SiO2 
 PCOD9411749
Probable space group: P N N A
;
_chemical_formula_sum "Si O2"
_cell_formula_units_Z 60
_cell_length_a 7.854855
_cell_length_b 30.512870
_cell_length_c 10.957656
_cell_angle_alpha 90.000000
_cell_angle_beta 90.000000
_cell_angle_gamma 90.000000
_cell_volume 2626.267101
_symmetry_space_group_name_H-M "P N N A"
_symmetry_group_IT_number 52
_symmetry_cell_setting 'orthorhombic'
loop_
_space_group_symop_operation_xyz
x,y,z
1/2-x,-y,z
x,1/2-y,1/2-z
1/2-x,1/2+y,1/2-z
-x,-y,-z
1/2+x,y,-z
-x,1/2+y,1/2+z
1/2+x,1/2-y,1/2+z
loop_
_atom_site_type_symbol
_atom_site_label
_atom_site_fract_x
_atom_site_fract_y
_atom_site_fract_z
Si Si1 0.400477 0.799226 0.247537
Si Si2 0.494078 0.153504 0.517713
Si Si3 0.455272 0.617981 0.648462
Si Si4 0.250000 0.000000 0.678206
Si Si5 0.138266 0.111235 0.124133
Si Si6 0.947169 0.514467 0.639382
Si Si7 0.489870 0.297344 0.242730
Si Si8 0.284903 0.592849 0.894659
O O1 0.479831 0.750000 0.250000
O O2 0.409139 0.816898 0.385474
O O3 0.447247 0.842949 0.168424
O O4 0.203821 0.792516 0.210815
O O5 0.479848 0.179802 0.390556
O O6 0.324319 0.137261 0.584515
O O7 0.570838 0.105367 0.491709
O O8 0.380102 0.605339 0.520138
O O9 0.660176 0.611270 0.656519
O O10 0.421177 0.669357 0.666978
O O11 0.363048 0.595786 0.760418
O O12 0.223849 0.956639 0.596479
O O13 0.085299 0.004472 0.766789
O O14 0.050478 0.066716 0.168800
O O15 0.750000 0.500000 0.655386
O O16 0.000000 0.500000 0.500000
O O17 0.571770 0.250000 0.250000
#
# Coordination Sequence:
#
# PCOD9411749 Si02
#       8
#     8   8   8   4   8   8   8   8
#     4  10  22  40  65  98 130 176 226 270 340 411
#     4  11  22  44  70  92 136 178 221 282 343 394
#     4  10  24  40  65 100 133 177 221 274 347 409
#     4  12  26  44  68 102 138 172 248 286 334 434
#     4  11  23  42  66  97 143 176 219 285 345 412
#     4  12  24  41  68 101 141 188 229 281 354 417
#     4   9  20  41  65  94 132 171 223 282 326 400
#     4  11  25  46  68  97 132 177 232 282 343 409
#
# _framework density 22.846115999999999
#
# number of rings (size 3 to 8) (size 9 to 14) (size 15 to 20)
#    0.000    1.333    2.000    3.200    5.600    0.533 
#    2.400    2.667    0.000    0.000    0.000    0.000 
#    0.000    0.000    0.000    0.000    0.000    0.000 
#
# Total GULP energy -334495.482323 kJ/mol
# GULP energy per Si atom -5574.924705 kJ/mol
# Density = 2.279412 g / cm^3
# Si number density = 22.846116 Si / 1000 Ang^3
#
#
#
# Elastic Constant Matrix: (Units=GPa)
#
#
# Indices 1 2 3 4 5 6 
#
# 1 59.1076 11.3701 -0.1679 0.0000 0.0000 0.0000
# 2 11.3701 170.0675 13.9019 0.0000 0.0000 0.0000
# 3 -0.1679 13.9019 48.5116 0.0000 0.0000 0.0000
# 4 0.0000 0.0000 0.0000 5585.3778 0.0000 0.0000
# 5 0.0000 0.0000 0.0000 0.0000 5.7354 0.0000
# 6 0.0000 0.0000 0.0000 0.0000 0.0000 9.2763
#
#
#
# Elastic Compliance Matrix: (Units=1/GPa)
#
#
# Indices 1 2 3 4 5 6 
#
# 1 0.017146 -0.001179 0.000397 0.000000 0.000000 0.000000
# 2 -0.001179 0.006102 -0.001753 0.000000 0.000000 0.000000
# 3 0.000397 -0.001753 0.021117 0.000000 0.000000 0.000000
# 4 0.000000 0.000000 0.000000 0.000179 0.000000 0.000000
# 5 0.000000 0.000000 0.000000 0.000000 0.174355 0.000000
# 6 0.000000 0.000000 0.000000 0.000000 0.000000 0.107801
#
#
# Mechanical properties :
#
#
# Convention : Reuss Voigt Hill
#
# Bulk Modulus (GPa) = 25.44737 36.43277 30.94007
# Shear Modulus (GPa) = 14.49829 1136.91676 575.70753
#
# Velocity S-wave (km/s) = 2.52187 22.33207 15.89153
# Velocity P-wave (km/s) = 4.43199 26.09490 18.71612
#
# Compressibility (1/GPa) = 0.03929679
#
# Stress axis : x y z
#
# Youngs Moduli (GPa) = 58.32206 163.87793 47.35457
#
# Poissons Ratio (x) = 0.19318 -0.01881
# Poissons Ratio (y) = 0.06875 0.08300
# Poissons Ratio (z) = -0.02316 0.28724
#
# Static dielectric constant tensor:
#      x y z
#    x 2.031510 0.000000 0.000000 
#    y 0.000000 1.891420 0.000000 
#    z 0.000000 0.000000 1.670910 
# 
# From -- ./inp_files/17148.got.cif
#   From: 2010.05.17/outbox.cif.g08.bks.cpg/sg52_9_cif.got.tgz:17148.got - 2010.06.03 12:15:38.
