data_PCOD9411713
_publ_section_title
;
Structure prediction by ZEFSAII (Michael W. Deem and Ramdas Pophale) SiO2 
 PCOD9411713
Probable space group: P N N A
;
_chemical_formula_sum "Si O2"
_cell_formula_units_Z 32
_cell_length_a 14.036534
_cell_length_b 6.272271
_cell_length_c 13.119615
_cell_angle_alpha 90.000000
_cell_angle_beta 90.000000
_cell_angle_gamma 90.000000
_cell_volume 1155.063305
_symmetry_space_group_name_H-M "P N N A"
_symmetry_group_IT_number 52
_symmetry_cell_setting 'orthorhombic'
loop_
_space_group_symop_operation_xyz
x,y,z
1/2-x,-y,z
x,1/2-y,1/2-z
1/2-x,1/2+y,1/2-z
-x,-y,-z
1/2+x,y,-z
-x,1/2+y,1/2+z
1/2+x,1/2-y,1/2+z
loop_
_atom_site_type_symbol
_atom_site_label
_atom_site_fract_x
_atom_site_fract_y
_atom_site_fract_z
Si Si1 0.827806 0.250000 0.250000
Si Si2 0.583435 0.249243 0.501937
Si Si3 0.996203 0.493087 0.172988
Si Si4 0.659692 0.750000 0.750000
Si Si5 0.750000 0.500000 0.918769
Si Si6 0.250000 0.500000 0.573319
O O1 0.768204 0.303717 0.349915
O O2 0.899298 0.446064 0.230834
O O3 0.521404 0.190826 0.403704
O O4 0.658685 0.055538 0.516009
O O5 0.652746 0.449890 0.487530
O O6 0.480205 0.787577 0.397883
O O7 0.087116 0.551156 0.241407
O O8 0.226390 0.701677 0.153624
#
# Coordination Sequence:
#
# PCOD9411713 Si02
#       6
#     4   8   8   4   4   4
#     4  12  24  38  62  90 122 162 206 252 304 358
#     4  10  22  40  62  87 123 161 201 250 304 360
#     4  10  22  41  62  88 122 162 202 251 304 361
#     4  10  22  40  64  90 124 160 202 250 304 366
#     4  10  22  40  64  92 124 160 200 252 306 360
#     4  12  24  38  62  92 124 162 206 252 302 358
#
# _framework density 27.704111000000001
#
# number of rings (size 3 to 8) (size 9 to 14) (size 15 to 20)
#    0.000    1.500    0.000    4.500    0.000    8.000 
#    0.000    0.000    0.000    0.000    0.000    0.000 
#    0.000    0.000    0.000    0.000    0.000    0.000 
#
# Total GULP energy -179153.554145 kJ/mol
# GULP energy per Si atom -5598.548567 kJ/mol
# Density = 2.764106 g / cm^3
# Si number density = 27.704111 Si / 1000 Ang^3
#
#
#
# Elastic Constant Matrix: (Units=GPa)
#
#
# Indices 1 2 3 4 5 6 
#
# 1 108.5810 29.9079 36.3771 0.0000 0.0000 0.0000
# 2 29.9079 76.0172 51.2840 0.0000 0.0000 0.0000
# 3 36.3771 51.2840 79.4499 0.0000 0.0000 0.0000
# 4 0.0000 0.0000 0.0000 53.5945 0.0000 0.0000
# 5 0.0000 0.0000 0.0000 0.0000 29.5797 0.0000
# 6 0.0000 0.0000 0.0000 0.0000 0.0000 66.3101
#
#
#
# Elastic Compliance Matrix: (Units=1/GPa)
#
#
# Indices 1 2 3 4 5 6 
#
# 1 0.010994 -0.001646 -0.003971 0.000000 0.000000 0.000000
# 2 -0.001646 0.023549 -0.014447 0.000000 0.000000 0.000000
# 3 -0.003971 -0.014447 0.023730 0.000000 0.000000 0.000000
# 4 0.000000 0.000000 0.000000 0.018659 0.000000 0.000000
# 5 0.000000 0.000000 0.000000 0.000000 0.033807 0.000000
# 6 0.000000 0.000000 0.000000 0.000000 0.000000 0.015081
#
#
# Mechanical properties :
#
#
# Convention : Reuss Voigt Hill
#
# Bulk Modulus (GPa) = 55.11335 55.46512 55.28924
# Shear Modulus (GPa) = 29.07065 39.66213 34.36639
#
# Velocity S-wave (km/s) = 3.24284 3.78780 3.52587
# Velocity P-wave (km/s) = 5.82736 6.26050 6.04781
#
# Compressibility (1/GPa) = 0.01814443
#
# Stress axis : x y z
#
# Youngs Moduli (GPa) = 90.96280 42.46458 42.14099
#
# Poissons Ratio (x) = 0.06991 0.16733
# Poissons Ratio (y) = 0.14976 0.60880
# Poissons Ratio (z) = 0.36119 0.61348
#
# Static dielectric constant tensor:
#      x y z
#    x 1.993730 0.000000 0.000000 
#    y 0.000000 2.179870 0.000000 
#    z 0.000000 0.000000 2.112740 
# 
# From -- ./inp_files/31915.got.cif
#   From: 2010.05.17/outbox.cif.g08.bks.cpg/sg52_16_cif.got.tgz:31915.got - 2010.06.03 12:15:38.
