data_PCOD9411103
_publ_section_title
;
Structure prediction by ZEFSAII (Michael W. Deem and Ramdas Pophale) SiO2 
 PCOD9411103
Probable space group: P N N A
;
_chemical_formula_sum "Si O2"
_cell_formula_units_Z 40
_cell_length_a 20.652621
_cell_length_b 7.033774
_cell_length_c 12.650142
_cell_angle_alpha 90.000000
_cell_angle_beta 90.000000
_cell_angle_gamma 90.000000
_cell_volume 1837.633866
_symmetry_space_group_name_H-M "P N N A"
_symmetry_group_IT_number 52
_symmetry_cell_setting 'orthorhombic'
loop_
_space_group_symop_operation_xyz
x,y,z
1/2-x,-y,z
x,1/2-y,1/2-z
1/2-x,1/2+y,1/2-z
-x,-y,-z
1/2+x,y,-z
-x,1/2+y,1/2+z
1/2+x,1/2-y,1/2+z
loop_
_atom_site_type_symbol
_atom_site_label
_atom_site_fract_x
_atom_site_fract_y
_atom_site_fract_z
Si Si1 0.417666 0.394308 0.090908
Si Si2 0.564403 0.323430 0.086123
Si Si3 0.820013 0.250000 0.750000
Si Si4 0.319803 0.969709 0.717685
Si Si5 0.635066 0.557373 0.437675
Si Si6 0.250000 0.000000 0.083838
O O1 0.425860 0.594006 0.031474
O O2 0.368252 0.393112 0.188527
O O3 0.490845 0.343803 0.122670
O O4 0.392426 0.232655 0.006610
O O5 0.614241 0.455429 0.151648
O O6 0.582434 0.102513 0.088216
O O7 0.774719 0.336285 0.660521
O O8 0.313358 0.750000 0.750000
O O9 0.330704 0.094665 0.824248
O O10 0.250000 0.000000 0.662869
O O11 0.689738 0.455519 0.508780
#
# Coordination Sequence:
#
# PCOD9411103 Si02
#       6
#     8   8   4   8   8   4
#     4  10  23  42  61  89 122 163 204 244 306 357
#     4  10  23  40  63  92 122 158 202 251 302 366
#     4  10  24  38  64  86 126 160 206 258 288 364
#     4  10  22  36  62  93 122 155 199 250 307 360
#     4  10  21  40  63  87 122 157 198 256 303 357
#     4  10  22  40  60  88 118 162 210 248 304 358
#
# _framework density 21.767120999999999
#
# number of rings (size 3 to 8) (size 9 to 14) (size 15 to 20)
#    0.000    2.000    1.000    0.600    9.800    1.600 
#    0.000    0.000    0.000    0.000    0.000    0.000 
#    0.000    0.000    0.000    0.000    0.000    0.000 
#
# Total GULP energy -223070.171400 kJ/mol
# GULP energy per Si atom -5576.754285 kJ/mol
# Density = 2.171758 g / cm^3
# Si number density = 21.767121 Si / 1000 Ang^3
#
#
#
# Elastic Constant Matrix: (Units=GPa)
#
#
# Indices 1 2 3 4 5 6 
#
# 1 122.7990 17.4989 20.4005 0.0000 0.0000 0.0000
# 2 17.4989 20.6851 10.9844 0.0000 0.0000 0.0000
# 3 20.4005 10.9844 69.9731 0.0000 0.0000 0.0000
# 4 0.0000 0.0000 0.0000 25.4375 0.0000 0.0000
# 5 0.0000 0.0000 0.0000 0.0000 20.8284 0.0000
# 6 0.0000 0.0000 0.0000 0.0000 0.0000 26.5632
#
#
#
# Elastic Compliance Matrix: (Units=1/GPa)
#
#
# Indices 1 2 3 4 5 6 
#
# 1 0.009428 -0.007108 -0.001633 0.000000 0.000000 0.000000
# 2 -0.007108 0.058100 -0.007048 0.000000 0.000000 0.000000
# 3 -0.001633 -0.007048 0.015874 0.000000 0.000000 0.000000
# 4 0.000000 0.000000 0.000000 0.039312 0.000000 0.000000
# 5 0.000000 0.000000 0.000000 0.000000 0.048011 0.000000
# 6 0.000000 0.000000 0.000000 0.000000 0.000000 0.037646
#
#
# Mechanical properties :
#
#
# Convention : Reuss Voigt Hill
#
# Bulk Modulus (GPa) = 19.29646 34.58054 26.93850
# Shear Modulus (GPa) = 19.43832 25.53738 22.48785
#
# Velocity S-wave (km/s) = 2.99157 3.42893 3.21769
# Velocity P-wave (km/s) = 4.56255 5.62119 5.11931
#
# Compressibility (1/GPa) = 0.05182298
#
# Stress axis : x y z
#
# Youngs Moduli (GPa) = 106.07170 17.21161 62.99759
#
# Poissons Ratio (x) = 0.12235 0.10286
# Poissons Ratio (y) = 0.75400 0.44401
# Poissons Ratio (z) = 0.17318 0.12131
#
# Static dielectric constant tensor:
#      x y z
#    x 1.796300 0.000000 0.000000 
#    y 0.000000 1.817600 0.000000 
#    z 0.000000 0.000000 1.837160 
# 
# From -- ./inp_files/20359.got.cif
#   From: 2010.05.17/outbox.cif.g08.bks.cpg/sg52_11_cif.got.tgz:20359.got - 2010.06.03 12:15:38.
