data_PCOD9411378
_publ_section_title
;
Structure prediction by ZEFSAII (Michael W. Deem and Ramdas Pophale) SiO2 
 PCOD9411378
Probable space group: P N N A
;
_chemical_formula_sum "Si O2"
_cell_formula_units_Z 40
_cell_length_a 22.096755
_cell_length_b 14.135634
_cell_length_c 6.517279
_cell_angle_alpha 90.000000
_cell_angle_beta 90.000000
_cell_angle_gamma 90.000000
_cell_volume 2035.682792
_symmetry_space_group_name_H-M "P N N A"
_symmetry_group_IT_number 52
_symmetry_cell_setting 'orthorhombic'
loop_
_space_group_symop_operation_xyz
x,y,z
1/2-x,-y,z
x,1/2-y,1/2-z
1/2-x,1/2+y,1/2-z
-x,-y,-z
1/2+x,y,-z
-x,1/2+y,1/2+z
1/2+x,1/2-y,1/2+z
loop_
_atom_site_type_symbol
_atom_site_label
_atom_site_fract_x
_atom_site_fract_y
_atom_site_fract_z
Si Si1 0.896978 0.658946 0.123131
Si Si2 0.089728 0.975640 0.921952
Si Si3 0.473404 0.940201 0.308215
Si Si4 0.285043 0.401369 0.716700
Si Si5 0.235739 0.277919 0.016379
O O1 0.917110 0.750000 0.250000
O O2 0.901250 0.569233 0.277881
O O3 0.937754 0.642028 0.923200
O O4 0.828926 0.677830 0.044841
O O5 0.150542 0.916837 0.888665
O O6 0.031493 0.920134 0.833123
O O7 0.072816 0.005977 0.153798
O O8 0.500000 0.000000 0.500000
O O9 0.250000 0.500000 0.719896
O O10 0.247712 0.321355 0.596855
O O11 0.285853 0.354360 0.943024
O O12 0.237435 0.250000 0.250000
#
# Coordination Sequence:
#
# PCOD9411378 Si02
#       5
#     8   8   8   8   8
#     4  11  21  38  62  95 128 162 224 272 322 395
#     4  10  21  43  65  90 129 171 218 271 329 403
#     4   9  22  39  65  93 120 165 222 266 329 396
#     4  11  22  42  63  91 131 172 215 275 341 398
#     4  11  25  39  60  98 131 167 227 276 332 402
#
# _framework density 19.649426999999999
#
# number of rings (size 3 to 8) (size 9 to 14) (size 15 to 20)
#    0.000    1.600    4.000    0.000    5.600    4.000 
#    0.000   13.000    0.000    0.000    0.000    0.000 
#    0.000    0.000    0.000    0.000    0.000    0.000 
#
# Total GULP energy -223044.689551 kJ/mol
# GULP energy per Si atom -5576.117239 kJ/mol
# Density = 1.960470 g / cm^3
# Si number density = 19.649427 Si / 1000 Ang^3
#
#
#
# Elastic Constant Matrix: (Units=GPa)
#
#
# Indices 1 2 3 4 5 6 
#
# 1 102.8451 32.8512 53.0113 0.0000 0.0000 0.0000
# 2 32.8512 65.0242 26.6469 0.0000 0.0000 0.0000
# 3 53.0113 26.6469 133.6021 0.0000 0.0000 0.0000
# 4 0.0000 0.0000 0.0000 23.1119 0.0000 0.0000
# 5 0.0000 0.0000 0.0000 0.0000 24.4011 0.0000
# 6 0.0000 0.0000 0.0000 0.0000 0.0000 31.5868
#
#
#
# Elastic Compliance Matrix: (Units=1/GPa)
#
#
# Indices 1 2 3 4 5 6 
#
# 1 0.013606 -0.005076 -0.004386 0.000000 0.000000 0.000000
# 2 -0.005076 0.018642 -0.001704 0.000000 0.000000 0.000000
# 3 -0.004386 -0.001704 0.009565 0.000000 0.000000 0.000000
# 4 0.000000 0.000000 0.000000 0.043268 0.000000 0.000000
# 5 0.000000 0.000000 0.000000 0.000000 0.040982 0.000000
# 6 0.000000 0.000000 0.000000 0.000000 0.000000 0.031659
#
#
# Mechanical properties :
#
#
# Convention : Reuss Voigt Hill
#
# Bulk Modulus (GPa) = 51.33485 58.49890 54.91688
# Shear Modulus (GPa) = 26.80295 28.41743 27.61019
#
# Velocity S-wave (km/s) = 3.69732 3.80705 3.75259
# Velocity P-wave (km/s) = 6.66401 7.01147 6.83995
#
# Compressibility (1/GPa) = 0.01947994
#
# Stress axis : x y z
#
# Youngs Moduli (GPa) = 73.49888 53.64284 104.54715
#
# Poissons Ratio (x) = 0.27231 0.45855
# Poissons Ratio (y) = 0.37311 0.17814
# Poissons Ratio (z) = 0.32237 0.09140
#
# Static dielectric constant tensor:
#      x y z
#    x 1.713920 0.000000 0.000000 
#    y 0.000000 1.681580 0.000000 
#    z 0.000000 0.000000 1.769900 
# 
# From -- ./inp_files/5027.got.cif
#   From: 2010.05.17/outbox.cif.g08.bks.cpg/sg52_3_cif.got.tgz:5027.got - 2010.06.03 12:15:38.
