data_PCOD9411264
_publ_section_title
;
Structure prediction by ZEFSAII (Michael W. Deem and Ramdas Pophale) SiO2 
 PCOD9411264
Probable space group: P N N A
;
_chemical_formula_sum "Si O2"
_cell_formula_units_Z 32
_cell_length_a 7.308143
_cell_length_b 17.330988
_cell_length_c 10.432139
_cell_angle_alpha 90.000000
_cell_angle_beta 90.000000
_cell_angle_gamma 90.000000
_cell_volume 1321.306962
_symmetry_space_group_name_H-M "P N N A"
_symmetry_group_IT_number 52
_symmetry_cell_setting 'orthorhombic'
loop_
_space_group_symop_operation_xyz
x,y,z
1/2-x,-y,z
x,1/2-y,1/2-z
1/2-x,1/2+y,1/2-z
-x,-y,-z
1/2+x,y,-z
-x,1/2+y,1/2+z
1/2+x,1/2-y,1/2+z
loop_
_atom_site_type_symbol
_atom_site_label
_atom_site_fract_x
_atom_site_fract_y
_atom_site_fract_z
Si Si1 0.242927 0.322820 0.841630
Si Si2 0.619386 0.402292 0.604482
Si Si3 0.626103 0.230637 0.618959
Si Si4 0.971816 0.558438 0.321911
O O1 0.191826 0.250000 0.750000
O O2 0.463076 0.325449 0.838455
O O3 0.134030 0.396794 0.789970
O O4 0.208997 0.302921 0.990643
O O5 0.547568 0.315414 0.586959
O O6 0.629601 0.428549 0.456654
O O7 0.823838 0.406652 0.661583
O O8 0.504220 0.466447 0.681422
O O9 0.737243 0.250000 0.750000
#
# Coordination Sequence:
#
# PCOD9411264 Si02
#       4
#     8   8   8   8
#     4  11  24  41  64 101 131 171 231 283 333 407
#     4  10  21  41  68 101 134 178 220 280 345 406
#     4  11  25  40  64  97 131 177 221 270 347 397
#     4  10  22  39  70 102 137 170 229 281 341 413
#
# _framework density 24.218443000000001
#
# number of rings (size 3 to 8) (size 9 to 14) (size 15 to 20)
#    0.000    1.500    2.500    1.500    7.000    0.000 
#    0.000    1.250    0.000    0.000    0.000    0.000 
#    0.000    0.000    0.000    0.000    0.000    0.000 
#
# Total GULP energy -178725.954572 kJ/mol
# GULP energy per Si atom -5585.186080 kJ/mol
# Density = 2.416332 g / cm^3
# Si number density = 24.218443 Si / 1000 Ang^3
#
#
#
# Elastic Constant Matrix: (Units=GPa)
#
#
# Indices 1 2 3 4 5 6 
#
# 1 59.5068 -0.4914 13.0031 0.0000 0.0000 0.0000
# 2 -0.4914 112.3077 20.9131 0.0000 0.0000 0.0000
# 3 13.0031 20.9131 155.1386 0.0000 0.0000 0.0000
# 4 0.0000 0.0000 0.0000 50.4189 0.0000 0.0000
# 5 0.0000 0.0000 0.0000 0.0000 37.2688 0.0000
# 6 0.0000 0.0000 0.0000 0.0000 0.0000 35.5734
#
#
#
# Elastic Compliance Matrix: (Units=1/GPa)
#
#
# Indices 1 2 3 4 5 6 
#
# 1 0.017132 0.000351 -0.001483 0.000000 0.000000 0.000000
# 2 0.000351 0.009141 -0.001262 0.000000 0.000000 0.000000
# 3 -0.001483 -0.001262 0.006740 0.000000 0.000000 0.000000
# 4 0.000000 0.000000 0.000000 0.019834 0.000000 0.000000
# 5 0.000000 0.000000 0.000000 0.000000 0.026832 0.000000
# 6 0.000000 0.000000 0.000000 0.000000 0.000000 0.028111
#
#
# Mechanical properties :
#
#
# Convention : Reuss Voigt Hill
#
# Bulk Modulus (GPa) = 35.42929 43.75584 39.59257
# Shear Modulus (GPa) = 40.98855 44.22077 42.60466
#
# Velocity S-wave (km/s) = 4.11841 4.27771 4.19881
# Velocity P-wave (km/s) = 6.10539 6.51957 6.31588
#
# Compressibility (1/GPa) = 0.02822523
#
# Stress axis : x y z
#
# Youngs Moduli (GPa) = 58.37090 109.40238 148.36271
#
# Poissons Ratio (x) = -0.03842 0.22006
# Poissons Ratio (y) = -0.02050 0.18718
# Poissons Ratio (z) = 0.08658 0.13802
#
# Static dielectric constant tensor:
#      x y z
#    x 2.010890 0.000000 0.000000 
#    y 0.000000 1.974650 0.000000 
#    z 0.000000 0.000000 1.992990 
# 
# From -- ./inp_files/16587.got.cif
#   From: 2010.05.17/outbox.cif.g08.bks.cpg/sg52_9_cif.got.tgz:16587.got - 2010.06.03 12:15:38.
