data_PCOD9411151
_publ_section_title
;
Structure prediction by ZEFSAII (Michael W. Deem and Ramdas Pophale) SiO2 
 PCOD9411151
Probable space group: P N N A
;
_chemical_formula_sum "Si O2"
_cell_formula_units_Z 36
_cell_length_a 13.866865
_cell_length_b 5.175698
_cell_length_c 21.273644
_cell_angle_alpha 90.000000
_cell_angle_beta 90.000000
_cell_angle_gamma 90.000000
_cell_volume 1526.824437
_symmetry_space_group_name_H-M "P N N A"
_symmetry_group_IT_number 52
_symmetry_cell_setting 'orthorhombic'
loop_
_space_group_symop_operation_xyz
x,y,z
1/2-x,-y,z
x,1/2-y,1/2-z
1/2-x,1/2+y,1/2-z
-x,-y,-z
1/2+x,y,-z
-x,1/2+y,1/2+z
1/2+x,1/2-y,1/2+z
loop_
_atom_site_type_symbol
_atom_site_label
_atom_site_fract_x
_atom_site_fract_y
_atom_site_fract_z
Si Si1 0.650106 0.168399 0.391592
Si Si2 0.683111 0.250000 0.250000
Si Si3 0.866082 0.500151 0.786235
Si Si4 0.444136 0.973484 0.425561
Si Si5 0.359683 0.021738 0.009524
O O1 0.634032 0.236485 0.318324
O O2 0.556762 0.010111 0.412697
O O3 0.647510 0.419921 0.437267
O O4 0.750000 0.000000 0.398928
O O5 0.750000 0.500000 0.253135
O O6 0.750000 0.500000 0.782101
O O7 0.902850 0.250000 0.750000
O O8 0.893566 0.503193 0.858426
O O9 0.903973 0.750000 0.750000
O O10 0.400650 0.202130 0.469126
O O11 0.421089 0.697136 0.455193
O O12 0.250000 0.000000 0.033597
#
# Coordination Sequence:
#
# PCOD9411151 Si02
#       5
#     8   4   8   8   8
#     4  11  26  49  73 108 150 196 250 310 370 442
#     4  10  24  46  72 100 140 194 250 302 364 434
#     4  10  21  40  65  97 138 182 234 293 355 423
#     4  12  26  44  74 108 147 190 245 299 375 444
#     4  12  25  46  74 107 146 190 242 307 375 441
#
# _framework density 23.578351000000001
#
# number of rings (size 3 to 8) (size 9 to 14) (size 15 to 20)
#    0.000    0.889    0.000    6.667    1.556    8.889 
#    8.000    0.000    0.000    0.000    0.000    0.000 
#    0.000    0.000    0.000    0.000    0.000    0.000 
#
# Total GULP energy -201610.758256 kJ/mol
# GULP energy per Si atom -5600.298840 kJ/mol
# Density = 2.352469 g / cm^3
# Si number density = 23.578351 Si / 1000 Ang^3
#
#
#
# Elastic Constant Matrix: (Units=GPa)
#
#
# Indices 1 2 3 4 5 6 
#
# 1 89.8243 2.1438 7.4025 0.0000 0.0000 0.0000
# 2 2.1438 138.4290 64.0392 0.0000 0.0000 0.0000
# 3 7.4025 64.0392 215.0858 0.0000 0.0000 0.0000
# 4 0.0000 0.0000 0.0000 5.8019 0.0000 0.0000
# 5 0.0000 0.0000 0.0000 0.0000 44.3287 0.0000
# 6 0.0000 0.0000 0.0000 0.0000 0.0000 58.9262
#
#
#
# Elastic Compliance Matrix: (Units=1/GPa)
#
#
# Indices 1 2 3 4 5 6 
#
# 1 0.011165 0.000006 -0.000386 0.000000 0.000000 0.000000
# 2 0.000006 0.008378 -0.002495 0.000000 0.000000 0.000000
# 3 -0.000386 -0.002495 0.005405 0.000000 0.000000 0.000000
# 4 0.000000 0.000000 0.000000 0.172358 0.000000 0.000000
# 5 0.000000 0.000000 0.000000 0.000000 0.022559 0.000000
# 6 0.000000 0.000000 0.000000 0.000000 0.000000 0.016970
#
#
# Mechanical properties :
#
#
# Convention : Reuss Voigt Hill
#
# Bulk Modulus (GPa) = 52.08896 65.61224 58.85060
# Shear Modulus (GPa) = 20.08160 46.46159 33.27159
#
# Velocity S-wave (km/s) = 2.92155 4.44387 3.76055
# Velocity P-wave (km/s) = 5.78968 7.36331 6.62340
#
# Compressibility (1/GPa) = 0.01919793
#
# Stress axis : x y z
#
# Youngs Moduli (GPa) = 89.56951 119.36203 185.00265
#
# Poissons Ratio (x) = -0.00067 0.07140
# Poissons Ratio (y) = -0.00050 0.46151
# Poissons Ratio (z) = 0.03457 0.29776
#
# Static dielectric constant tensor:
#      x y z
#    x 1.899170 0.000000 0.000000 
#    y 0.000000 1.862090 0.000000 
#    z 0.000000 0.000000 1.925710 
# 
# From -- ./inp_files/37047.got.cif
#   From: 2010.05.17/outbox.cif.g08.bks.cpg/sg52_19_cif.got.tgz:37047.got - 2010.06.03 12:15:38.
