data_PCOD9411793
_publ_section_title
;
Structure prediction by ZEFSAII (Michael W. Deem and Ramdas Pophale) SiO2 
 PCOD9411793
Probable space group: P N N A
;
_chemical_formula_sum "Si O2"
_cell_formula_units_Z 32
_cell_length_a 14.951332
_cell_length_b 16.368660
_cell_length_c 5.354131
_cell_angle_alpha 90.000000
_cell_angle_beta 90.000000
_cell_angle_gamma 90.000000
_cell_volume 1310.333988
_symmetry_space_group_name_H-M "P N N A"
_symmetry_group_IT_number 52
_symmetry_cell_setting 'orthorhombic'
loop_
_space_group_symop_operation_xyz
x,y,z
1/2-x,-y,z
x,1/2-y,1/2-z
1/2-x,1/2+y,1/2-z
-x,-y,-z
1/2+x,y,-z
-x,1/2+y,1/2+z
1/2+x,1/2-y,1/2+z
loop_
_atom_site_type_symbol
_atom_site_label
_atom_site_fract_x
_atom_site_fract_y
_atom_site_fract_z
Si Si1 0.579766 0.889981 0.484341
Si Si2 0.686302 0.750000 0.250000
Si Si3 0.660397 0.165940 0.011845
Si Si4 0.996923 0.750000 0.250000
Si Si5 0.873498 0.931559 0.531432
O O1 0.626963 0.828989 0.295648
O O2 0.558285 0.828550 0.710567
O O3 0.479754 0.917933 0.413644
O O4 0.637470 0.970879 0.524565
O O5 0.755361 0.774921 0.034940
O O6 0.572088 0.223747 0.030644
O O7 0.651325 0.109761 0.264897
O O8 0.670012 0.111281 0.768670
#
# Coordination Sequence:
#
# PCOD9411793 Si02
#       5
#     8   4   8   4   8
#     4  10  22  40  69  99 126 168 226 272 314 383
#     4  11  24  40  64  99 134 174 222 271 324 394
#     4  10  23  43  65  92 134 175 209 264 336 389
#     4   9  20  38  66  95 126 168 218 267 320 382
#     4  10  23  45  69  94 130 173 215 268 328 384
#
# _framework density 24.421257000000001
#
# number of rings (size 3 to 8) (size 9 to 14) (size 15 to 20)
#    0.000    2.000    0.000    1.500    0.000   22.000 
#    0.000    2.500    0.000    3.000    0.000    0.000 
#    0.000    0.000    0.000    0.000    0.000    0.000 
#
# Total GULP energy -178916.099766 kJ/mol
# GULP energy per Si atom -5591.128118 kJ/mol
# Density = 2.436567 g / cm^3
# Si number density = 24.421257 Si / 1000 Ang^3
#
#
#
# Elastic Constant Matrix: (Units=GPa)
#
#
# Indices 1 2 3 4 5 6 
#
# 1 55.1843 25.5086 26.9616 0.0000 0.0000 0.0000
# 2 25.5086 211.2997 71.8139 0.0000 0.0000 0.0000
# 3 26.9616 71.8139 139.2048 0.0000 0.0000 0.0000
# 4 0.0000 0.0000 0.0000 40.7667 0.0000 0.0000
# 5 0.0000 0.0000 0.0000 0.0000 28.7852 0.0000
# 6 0.0000 0.0000 0.0000 0.0000 0.0000 31.9098
#
#
#
# Elastic Compliance Matrix: (Units=1/GPa)
#
#
# Indices 1 2 3 4 5 6 
#
# 1 0.020329 -0.001353 -0.003239 0.000000 0.000000 0.000000
# 2 -0.001353 0.005829 -0.002745 0.000000 0.000000 0.000000
# 3 -0.003239 -0.002745 0.009227 0.000000 0.000000 0.000000
# 4 0.000000 0.000000 0.000000 0.024530 0.000000 0.000000
# 5 0.000000 0.000000 0.000000 0.000000 0.034740 0.000000
# 6 0.000000 0.000000 0.000000 0.000000 0.000000 0.031338
#
#
# Mechanical properties :
#
#
# Convention : Reuss Voigt Hill
#
# Bulk Modulus (GPa) = 48.28517 72.69520 60.49019
# Shear Modulus (GPa) = 33.88175 39.05265 36.46720
#
# Velocity S-wave (km/s) = 3.72881 4.00324 3.86846
# Velocity P-wave (km/s) = 6.19301 7.15540 6.69153
#
# Compressibility (1/GPa) = 0.02071029
#
# Stress axis : x y z
#
# Youngs Moduli (GPa) = 49.19016 171.55891 108.37599
#
# Poissons Ratio (x) = 0.23216 0.35106
# Poissons Ratio (y) = 0.06657 0.29749
# Poissons Ratio (z) = 0.15934 0.47092
#
# Static dielectric constant tensor:
#      x y z
#    x 1.998590 0.000000 0.000000 
#    y 0.000000 1.961570 0.000000 
#    z 0.000000 0.000000 2.051000 
# 
# From -- ./inp_files/1979.got.cif
#   From: 2010.05.17/outbox.cif.g08.bks.cpg/sg52_1_cif.got.tgz:1979.got - 2010.06.03 12:15:38.
