data_PCOD9411213
_publ_section_title
;
Structure prediction by ZEFSAII (Michael W. Deem and Ramdas Pophale) SiO2 
 PCOD9411213
Probable space group: P N N A
;
_chemical_formula_sum "Si O2"
_cell_formula_units_Z 28
_cell_length_a 11.608084
_cell_length_b 5.276253
_cell_length_c 23.193298
_cell_angle_alpha 90.000000
_cell_angle_beta 90.000000
_cell_angle_gamma 90.000000
_cell_volume 1420.524284
_symmetry_space_group_name_H-M "P N N A"
_symmetry_group_IT_number 52
_symmetry_cell_setting 'orthorhombic'
loop_
_space_group_symop_operation_xyz
x,y,z
1/2-x,-y,z
x,1/2-y,1/2-z
1/2-x,1/2+y,1/2-z
-x,-y,-z
1/2+x,y,-z
-x,1/2+y,1/2+z
1/2+x,1/2-y,1/2+z
loop_
_atom_site_type_symbol
_atom_site_label
_atom_site_fract_x
_atom_site_fract_y
_atom_site_fract_z
Si Si1 0.898335 0.169761 0.938386
Si Si2 0.171988 0.250000 0.250000
Si Si3 0.075662 0.173018 0.374646
Si Si4 0.129629 0.599500 0.566112
O O1 0.880643 0.402370 0.895890
O O2 0.864388 0.898931 0.911178
O O3 0.851801 0.214284 0.002349
O O4 0.037853 0.129059 0.944232
O O5 0.250000 0.500000 0.256703
O O6 0.098047 0.214764 0.307776
O O7 0.942048 0.213497 0.392781
O O8 0.250000 0.500000 0.589197
#
# Coordination Sequence:
#
# PCOD9411213 Si02
#       4
#     8   4   8   8
#     4   9  20  37  58  88 123 151 192 246 290 360
#     4  12  26  42  66  86 114 164 204 254 306 346
#     4  10  21  41  56  85 121 150 203 248 285 361
#     4   9  20  36  61  89 121 157 190 241 306 359
#
# _framework density 19.711034000000001
#
# number of rings (size 3 to 8) (size 9 to 14) (size 15 to 20)
#    1.714    0.571    0.000    2.571    0.000    4.571 
#    0.000    0.000    6.286    0.000    0.000    0.000 
#    0.000    0.000    0.000    0.000    0.000    0.000 
#
# Total GULP energy -156149.204394 kJ/mol
# GULP energy per Si atom -5576.757300 kJ/mol
# Density = 1.966617 g / cm^3
# Si number density = 19.711034 Si / 1000 Ang^3
#
#
#
# Elastic Constant Matrix: (Units=GPa)
#
#
# Indices 1 2 3 4 5 6 
#
# 1 44.3862 5.9370 0.8734 0.0000 0.0000 0.0000
# 2 5.9370 116.3671 40.7278 0.0000 0.0000 0.0000
# 3 0.8734 40.7278 152.1598 0.0000 0.0000 0.0000
# 4 0.0000 0.0000 0.0000 30.7552 0.0000 0.0000
# 5 0.0000 0.0000 0.0000 0.0000 -11.4855 0.0000
# 6 0.0000 0.0000 0.0000 0.0000 0.0000 12.6630
#
#
#
# Elastic Compliance Matrix: (Units=1/GPa)
#
#
# Indices 1 2 3 4 5 6 
#
# 1 0.022690 -0.001227 0.000198 0.000000 0.000000 0.000000
# 2 -0.001227 0.009548 -0.002549 0.000000 0.000000 0.000000
# 3 0.000198 -0.002549 0.007253 0.000000 0.000000 0.000000
# 4 0.000000 0.000000 0.000000 0.032515 0.000000 0.000000
# 5 0.000000 0.000000 0.000000 0.000000 -0.087066 0.000000
# 6 0.000000 0.000000 0.000000 0.000000 0.000000 0.078970
#
#
# Mechanical properties :
#
#
# Convention : Reuss Voigt Hill
#
# Bulk Modulus (GPa) = 30.92524 45.33217 38.12870
# Shear Modulus (GPa) = 61.09214 24.07819 42.58517
#
# Velocity S-wave (km/s) = 5.57325 3.49887 4.65313
# Velocity P-wave (km/s) = 7.55898 6.27464 6.94656
#
# Compressibility (1/GPa) = 0.03233604
#
# Stress axis : x y z
#
# Youngs Moduli (GPa) = 44.07275 104.73279 137.87234
#
# Poissons Ratio (x) = 0.12851 -0.02732
# Poissons Ratio (y) = 0.05408 0.35139
# Poissons Ratio (z) = -0.00873 0.26693
#
# Static dielectric constant tensor:
#      x y z
#    x 1.775940 0.000000 0.000000 
#    y 0.000000 1.717920 0.000000 
#    z 0.000000 0.000000 1.653970 
# 
# From -- ./inp_files/32532.got.cif
#   From: 2010.05.17/outbox.cif.g08.bks.cpg/sg52_17_cif.got.tgz:32532.got - 2010.06.03 12:15:38.
