data_PCOD9411302
_publ_section_title
;
Structure prediction by ZEFSAII (Michael W. Deem and Ramdas Pophale) SiO2 
 PCOD9411302
Probable space group: P N N A
;
_chemical_formula_sum "Si O2"
_cell_formula_units_Z 56
_cell_length_a 19.962585
_cell_length_b 25.655167
_cell_length_c 5.179251
_cell_angle_alpha 90.000000
_cell_angle_beta 90.000000
_cell_angle_gamma 90.000000
_cell_volume 2652.519486
_symmetry_space_group_name_H-M "P N N A"
_symmetry_group_IT_number 52
_symmetry_cell_setting 'orthorhombic'
loop_
_space_group_symop_operation_xyz
x,y,z
1/2-x,-y,z
x,1/2-y,1/2-z
1/2-x,1/2+y,1/2-z
-x,-y,-z
1/2+x,y,-z
-x,1/2+y,1/2+z
1/2+x,1/2-y,1/2+z
loop_
_atom_site_type_symbol
_atom_site_label
_atom_site_fract_x
_atom_site_fract_y
_atom_site_fract_z
Si Si1 0.224518 0.153642 0.814219
Si Si2 0.262251 0.559063 0.066750
Si Si3 0.364716 0.782937 0.511688
Si Si4 0.839849 0.373701 0.635782
Si Si5 0.384682 0.884718 0.217185
Si Si6 0.059354 0.694575 0.112305
Si Si7 0.475442 0.140471 0.900924
O O1 0.240204 0.100280 0.665057
O O2 0.208060 0.199362 0.616052
O O3 0.287430 0.163790 0.993844
O O4 0.158810 0.142701 0.989855
O O5 0.250000 0.500000 0.991851
O O6 0.204362 0.578562 0.262628
O O7 0.335790 0.569386 0.189637
O O8 0.395197 0.750000 0.750000
O O9 0.391426 0.839811 0.434179
O O10 0.365158 0.750000 0.250000
O O11 0.873912 0.340826 0.864618
O O12 0.903097 0.386162 0.450627
O O13 0.461398 0.896376 0.151566
O O14 0.071972 0.750000 0.250000
O O15 0.011045 0.667591 0.324034
O O16 0.033537 0.684705 0.822429
#
# Coordination Sequence:
#
# PCOD9411302 Si02
#       7
#     8   8   8   8   8   8   8
#     4  10  21  42  59  94 124 169 211 275 322 388
#     4  10  22  42  70  96 124 168 219 277 345 394
#     4  11  22  38  57  92 130 172 212 266 316 385
#     4   9  22  41  63  87 133 162 214 267 321 380
#     4  10  23  41  64  93 133 169 216 273 318 383
#     4  10  22  41  61  94 129 183 216 256 305 391
#     4  10  23  40  63  90 134 168 213 259 318 369
#
# _framework density 21.112002
#
# number of rings (size 3 to 8) (size 9 to 14) (size 15 to 20)
#    0.857    1.143    1.429    1.286    4.000    4.000 
#   10.286    0.714    0.000    2.571    0.000    0.000 
#    0.000    0.000    0.000    0.000    0.000    0.000 
#
# Total GULP energy -311757.095740 kJ/mol
# GULP energy per Si atom -5567.090995 kJ/mol
# Density = 2.106395 g / cm^3
# Si number density = 21.112002 Si / 1000 Ang^3
#
#
#
# Elastic Constant Matrix: (Units=GPa)
#
#
# Indices 1 2 3 4 5 6 
#
# 1 131.4876 16.6625 26.6578 0.0000 0.0000 0.0000
# 2 16.6625 54.6623 4.7842 0.0000 0.0000 0.0000
# 3 26.6578 4.7842 109.0808 0.0000 0.0000 0.0000
# 4 0.0000 0.0000 0.0000 18.5300 0.0000 0.0000
# 5 0.0000 0.0000 0.0000 0.0000 15.4645 0.0000
# 6 0.0000 0.0000 0.0000 0.0000 0.0000 6.5401
#
#
#
# Elastic Compliance Matrix: (Units=1/GPa)
#
#
# Indices 1 2 3 4 5 6 
#
# 1 0.008294 -0.002360 -0.001924 0.000000 0.000000 0.000000
# 2 -0.002360 0.019036 -0.000258 0.000000 0.000000 0.000000
# 3 -0.001924 -0.000258 0.009649 0.000000 0.000000 0.000000
# 4 0.000000 0.000000 0.000000 0.053967 0.000000 0.000000
# 5 0.000000 0.000000 0.000000 0.000000 0.064664 0.000000
# 6 0.000000 0.000000 0.000000 0.000000 0.000000 0.152902
#
#
# Mechanical properties :
#
#
# Convention : Reuss Voigt Hill
#
# Bulk Modulus (GPa) = 35.84734 43.49330 39.67032
# Shear Modulus (GPa) = 15.29546 24.58199 19.93873
#
# Velocity S-wave (km/s) = 2.69456 3.41598 3.07649
# Velocity P-wave (km/s) = 5.16694 6.01701 5.60811
#
# Compressibility (1/GPa) = 0.02789607
#
# Stress axis : x y z
#
# Youngs Moduli (GPa) = 120.56451 52.53169 103.63852
#
# Poissons Ratio (x) = 0.12397 0.19935
# Poissons Ratio (y) = 0.28453 0.02676
# Poissons Ratio (z) = 0.23191 0.01356
#
# Static dielectric constant tensor:
#      x y z
#    x 1.816200 0.000000 0.000000 
#    y 0.000000 1.728400 0.000000 
#    z 0.000000 0.000000 1.841320 
# 
# From -- ./inp_files/4597.got.cif
#   From: 2010.05.17/outbox.cif.g08.bks.cpg/sg52_3_cif.got.tgz:4597.got - 2010.06.03 12:15:38.
