data_PCOD9411634
_publ_section_title
;
Structure prediction by ZEFSAII (Michael W. Deem and Ramdas Pophale) SiO2 
 PCOD9411634
Probable space group: P N N A
;
_chemical_formula_sum "Si O2"
_cell_formula_units_Z 64
_cell_length_a 9.478737
_cell_length_b 14.621491
_cell_length_c 25.333401
_cell_angle_alpha 90.000000
_cell_angle_beta 90.000000
_cell_angle_gamma 90.000000
_cell_volume 3511.038827
_symmetry_space_group_name_H-M "P N N A"
_symmetry_group_IT_number 52
_symmetry_cell_setting 'orthorhombic'
loop_
_space_group_symop_operation_xyz
x,y,z
1/2-x,-y,z
x,1/2-y,1/2-z
1/2-x,1/2+y,1/2-z
-x,-y,-z
1/2+x,y,-z
-x,1/2+y,1/2+z
1/2+x,1/2-y,1/2+z
loop_
_atom_site_type_symbol
_atom_site_label
_atom_site_fract_x
_atom_site_fract_y
_atom_site_fract_z
Si Si1 0.918170 0.990947 0.651523
Si Si2 0.919393 0.498669 0.261174
Si Si3 0.394168 0.695718 0.696887
Si Si4 0.831230 0.092039 0.032262
Si Si5 0.404494 0.702021 0.100714
Si Si6 0.901776 0.356877 0.352632
Si Si7 0.070000 0.692227 0.113973
Si Si8 0.936657 0.788547 0.013723
O O1 0.959484 0.085042 0.622769
O O2 0.999351 0.983396 0.706854
O O3 0.750000 0.000000 0.661405
O O4 0.945569 0.901077 0.616485
O O5 0.750000 0.500000 0.251770
O O6 0.953731 0.597294 0.286037
O O7 0.949204 0.421356 0.304716
O O8 0.357311 0.750000 0.750000
O O9 0.252315 0.680131 0.663395
O O10 0.504127 0.752893 0.662795
O O11 0.883253 0.086848 0.092859
O O12 0.717507 0.173750 0.027642
O O13 0.750000 0.000000 0.016742
O O14 0.962175 0.123805 0.996733
O O15 0.492068 0.774280 0.135578
O O16 0.237319 0.708786 0.110720
O O17 0.433181 0.730516 0.040253
O O18 0.998854 0.729912 0.061140
#
# Coordination Sequence:
#
# PCOD9411634 Si02
#       8
#     8   8   8   8   8   8   8   8
#     4  10  23  41  62  83 121 161 206 251 304 355
#     4  10  22  39  59  93 124 156 200 245 301 365
#     4  11  21  37  62  90 120 159 198 245 303 359
#     4  11  21  39  63  92 121 161 198 246 304 361
#     4  10  24  42  59  90 118 162 206 253 306 357
#     4  10  23  38  62  89 127 157 196 252 303 360
#     4  11  22  42  62  87 121 160 202 256 298 368
#     4  11  22  40  64  87 125 158 202 251 303 359
#
# _framework density 18.228224000000001
#
# number of rings (size 3 to 8) (size 9 to 14) (size 15 to 20)
#    0.000    1.500    3.750    1.500    3.500    1.500 
#    0.000    0.000    0.000    0.000    0.000    0.000 
#    0.000    0.000    0.000    0.000    0.000    0.000 
#
# Total GULP energy -357480.814402 kJ/mol
# GULP energy per Si atom -5585.637725 kJ/mol
# Density = 1.818674 g / cm^3
# Si number density = 18.228224 Si / 1000 Ang^3
#
#
#
# Elastic Constant Matrix: (Units=GPa)
#
#
# Indices 1 2 3 4 5 6 
#
# 1 17.4618 3.5012 -4.0398 0.0000 0.0000 0.0000
# 2 3.5012 89.4698 17.8467 0.0000 0.0000 0.0000
# 3 -4.0398 17.8467 70.9697 0.0000 0.0000 0.0000
# 4 0.0000 0.0000 0.0000 24.1031 0.0000 0.0000
# 5 0.0000 0.0000 0.0000 0.0000 29.1677 0.0000
# 6 0.0000 0.0000 0.0000 0.0000 0.0000 28.6070
#
#
#
# Elastic Compliance Matrix: (Units=1/GPa)
#
#
# Indices 1 2 3 4 5 6 
#
# 1 0.058852 -0.003128 0.004137 0.000000 0.000000 0.000000
# 2 -0.003128 0.011933 -0.003179 0.000000 0.000000 0.000000
# 3 0.004137 -0.003179 0.015125 0.000000 0.000000 0.000000
# 4 0.000000 0.000000 0.000000 0.041488 0.000000 0.000000
# 5 0.000000 0.000000 0.000000 0.000000 0.034285 0.000000
# 6 0.000000 0.000000 0.000000 0.000000 0.000000 0.034956
#
#
# Mechanical properties :
#
#
# Convention : Reuss Voigt Hill
#
# Bulk Modulus (GPa) = 12.25941 23.61305 17.93623
# Shear Modulus (GPa) = 21.91335 27.08177 24.49756
#
# Velocity S-wave (km/s) = 3.47099 3.85867 3.66995
# Velocity P-wave (km/s) = 4.77533 5.73015 5.27439
#
# Compressibility (1/GPa) = 0.08156997
#
# Stress axis : x y z
#
# Youngs Moduli (GPa) = 16.99176 83.79779 66.11391
#
# Poissons Ratio (x) = 0.26213 -0.27349
# Poissons Ratio (y) = 0.05315 0.21017
# Poissons Ratio (z) = -0.07029 0.26639
#
# Static dielectric constant tensor:
#      x y z
#    x 1.611850 0.000000 0.000000 
#    y 0.000000 1.625990 0.000000 
#    z 0.000000 0.000000 1.600620 
# 
# From -- ./inp_files/39688.got.cif
#   From: 2010.05.17/outbox.cif.g08.bks.cpg/sg52_20_cif.got.tgz:39688.got - 2010.06.03 12:15:38.
