data_PCOD9411996
_publ_section_title
;
Structure prediction by ZEFSAII (Michael W. Deem and Ramdas Pophale) SiO2 
 PCOD9411996
Probable space group: P N N A
;
_chemical_formula_sum "Si O2"
_cell_formula_units_Z 36
_cell_length_a 8.494687
_cell_length_b 7.696979
_cell_length_c 22.436097
_cell_angle_alpha 90.000000
_cell_angle_beta 90.000000
_cell_angle_gamma 90.000000
_cell_volume 1466.948920
_symmetry_space_group_name_H-M "P N N A"
_symmetry_group_IT_number 52
_symmetry_cell_setting 'orthorhombic'
loop_
_space_group_symop_operation_xyz
x,y,z
1/2-x,-y,z
x,1/2-y,1/2-z
1/2-x,1/2+y,1/2-z
-x,-y,-z
1/2+x,y,-z
-x,1/2+y,1/2+z
1/2+x,1/2-y,1/2+z
loop_
_atom_site_type_symbol
_atom_site_label
_atom_site_fract_x
_atom_site_fract_y
_atom_site_fract_z
Si Si1 0.250000 0.000000 0.164553
Si Si2 0.430428 0.747671 0.980686
Si Si3 0.250000 0.000000 0.909655
Si Si4 0.750000 0.000000 0.387738
Si Si5 0.562393 0.765795 0.182855
Si Si6 0.772333 0.188444 0.585064
O O1 0.394168 0.875659 0.190084
O O2 0.171868 0.846202 0.125818
O O3 0.383005 0.934195 0.955464
O O4 0.331689 0.633597 0.933095
O O5 0.605034 0.683306 0.968884
O O6 0.386638 0.732006 0.049691
O O7 0.162231 0.877495 0.863064
O O8 0.893270 0.076574 0.346530
O O9 0.622751 0.750000 0.250000
O O10 0.750000 0.000000 0.614125
#
# Coordination Sequence:
#
# PCOD9411996 Si02
#       6
#     4   8   4   4   8   8
#     4  12  27  46  70 108 148 180 243 310 374 426
#     4  11  23  40  65 103 140 182 238 283 359 445
#     4  10  22  42  70  98 132 180 244 302 356 446
#     4  10  23  44  74  98 140 190 245 296 350 452
#     4  11  24  48  71 101 135 189 247 313 374 431
#     4  12  25  41  68 103 148 195 228 289 366 453
#
# _framework density 24.540731000000001
#
# number of rings (size 3 to 8) (size 9 to 14) (size 15 to 20)
#    0.000    0.889    3.333    3.333    6.222    1.778 
#    6.000    1.111    0.000    0.000    0.000    0.000 
#    0.000    0.000    0.000    0.000    0.000    0.000 
#
# Total GULP energy -200442.240968 kJ/mol
# GULP energy per Si atom -5567.840027 kJ/mol
# Density = 2.448488 g / cm^3
# Si number density = 24.540731 Si / 1000 Ang^3
#
#
#
# Elastic Constant Matrix: (Units=GPa)
#
#
# Indices 1 2 3 4 5 6 
#
# 1 88.8829 26.0710 16.7907 0.0000 0.0000 0.0000
# 2 26.0710 97.7955 38.7762 0.0000 0.0000 0.0000
# 3 16.7907 38.7762 94.8281 0.0000 0.0000 0.0000
# 4 0.0000 0.0000 0.0000 25.2054 0.0000 0.0000
# 5 0.0000 0.0000 0.0000 0.0000 4.4325 0.0000
# 6 0.0000 0.0000 0.0000 0.0000 0.0000 31.3233
#
#
#
# Elastic Compliance Matrix: (Units=1/GPa)
#
#
# Indices 1 2 3 4 5 6 
#
# 1 0.012284 -0.002879 -0.000998 0.000000 0.000000 0.000000
# 2 -0.002879 0.012879 -0.004757 0.000000 0.000000 0.000000
# 3 -0.000998 -0.004757 0.012667 0.000000 0.000000 0.000000
# 4 0.000000 0.000000 0.000000 0.039674 0.000000 0.000000
# 5 0.000000 0.000000 0.000000 0.000000 0.225604 0.000000
# 6 0.000000 0.000000 0.000000 0.000000 0.000000 0.031925
#
#
# Mechanical properties :
#
#
# Convention : Reuss Voigt Hill
#
# Bulk Modulus (GPa) = 48.63099 49.42024 49.02562
# Shear Modulus (GPa) = 13.92162 25.51682 19.71922
#
# Velocity S-wave (km/s) = 2.38436 3.22805 2.83774
# Velocity P-wave (km/s) = 5.23829 5.83742 5.54595
#
# Compressibility (1/GPa) = 0.02056302
#
# Stress axis : x y z
#
# Youngs Moduli (GPa) = 81.40850 77.64619 78.94497
#
# Poissons Ratio (x) = 0.22355 0.07877
# Poissons Ratio (y) = 0.23438 0.37551
# Poissons Ratio (z) = 0.08122 0.36933
#
# Static dielectric constant tensor:
#      x y z
#    x 2.072730 0.000000 0.000000 
#    y 0.000000 2.177060 0.000000 
#    z 0.000000 0.000000 1.866250 
# 
# From -- ./inp_files/35606.got.cif
#   From: 2010.05.17/outbox.cif.g08.bks.cpg/sg52_18_cif.got.tgz:35606.got - 2010.06.03 12:15:38.
