data_PCOD9411560
_publ_section_title
;
Structure prediction by ZEFSAII (Michael W. Deem and Ramdas Pophale) SiO2 
 PCOD9411560
Probable space group: P N N A
;
_chemical_formula_sum "Si O2"
_cell_formula_units_Z 64
_cell_length_a 9.663825
_cell_length_b 27.818013
_cell_length_c 13.536419
_cell_angle_alpha 90.000000
_cell_angle_beta 90.000000
_cell_angle_gamma 90.000000
_cell_volume 3638.973990
_symmetry_space_group_name_H-M "P N N A"
_symmetry_group_IT_number 52
_symmetry_cell_setting 'orthorhombic'
loop_
_space_group_symop_operation_xyz
x,y,z
1/2-x,-y,z
x,1/2-y,1/2-z
1/2-x,1/2+y,1/2-z
-x,-y,-z
1/2+x,y,-z
-x,1/2+y,1/2+z
1/2+x,1/2-y,1/2+z
loop_
_atom_site_type_symbol
_atom_site_label
_atom_site_fract_x
_atom_site_fract_y
_atom_site_fract_z
Si Si1 0.736829 0.196691 0.791950
Si Si2 0.971191 0.351893 0.203573
Si Si3 0.411091 0.556902 0.900025
Si Si4 0.082318 0.554807 0.897323
Si Si5 0.120760 0.799876 0.503528
Si Si6 0.737058 0.300681 0.295008
Si Si7 0.982037 0.150106 0.695271
Si Si8 0.131091 0.265794 0.497454
O O1 0.772136 0.250000 0.750000
O O2 0.615299 0.173097 0.727645
O O3 0.868991 0.162595 0.778473
O O4 0.678755 0.204948 0.901583
O O5 0.974684 0.408478 0.184030
O O6 0.912029 0.329282 0.101949
O O7 0.863797 0.337203 0.288829
O O8 0.246171 0.565238 0.913951
O O9 0.429268 0.501292 0.869655
O O10 0.473049 0.595439 0.823864
O O11 0.493672 0.562522 0.003043
O O12 0.079662 0.829529 0.406974
O O13 0.278650 0.783303 0.497799
O O14 0.027293 0.751407 0.505729
O O15 0.788009 0.250000 0.250000
O O16 0.617255 0.319907 0.223838
O O17 0.672008 0.292273 0.401954
#
# Coordination Sequence:
#
# PCOD9411560 Si02
#       8
#     8   8   8   8   8   8   8   8
#     4  12  24  38  53  83 115 155 193 237 280 337
#     4  12  22  36  57  83 115 156 188 226 292 347
#     4  10  22  38  59  88 118 149 190 239 288 345
#     4  10  22  38  59  88 118 149 190 239 288 345
#     4  12  20  32  55  78 114 148 187 228 276 336
#     4  12  22  36  55  79 107 155 199 229 278 345
#     4  12  22  36  57  83 115 156 188 226 292 347
#     4  12  24  36  52  76 114 152 192 242 264 324
#
# _framework density 17.587374000000001
#
# number of rings (size 3 to 8) (size 9 to 14) (size 15 to 20)
#    0.000    0.500    7.500    2.250    1.750    0.000 
#    0.000    0.000    0.000    0.000    0.000    5.250 
#    0.000    0.000    0.000    0.000    0.000    0.000 
#
# Total GULP energy -357764.990965 kJ/mol
# GULP energy per Si atom -5590.077984 kJ/mol
# Density = 1.754734 g / cm^3
# Si number density = 17.587374 Si / 1000 Ang^3
#
#
#
# Elastic Constant Matrix: (Units=GPa)
#
#
# Indices 1 2 3 4 5 6 
#
# 1 48.7998 9.5319 -6.9461 0.0000 0.0000 0.0000
# 2 9.5319 86.1127 27.4558 0.0000 0.0000 0.0000
# 3 -6.9461 27.4558 60.7151 0.0000 0.0000 0.0000
# 4 0.0000 0.0000 0.0000 31.0386 0.0000 0.0000
# 5 0.0000 0.0000 0.0000 0.0000 21.1265 0.0000
# 6 0.0000 0.0000 0.0000 0.0000 0.0000 22.7811
#
#
#
# Elastic Compliance Matrix: (Units=1/GPa)
#
#
# Indices 1 2 3 4 5 6 
#
# 1 0.021822 -0.003752 0.004193 0.000000 0.000000 0.000000
# 2 -0.003752 0.014214 -0.006857 0.000000 0.000000 0.000000
# 3 0.004193 -0.006857 0.020051 0.000000 0.000000 0.000000
# 4 0.000000 0.000000 0.000000 0.032218 0.000000 0.000000
# 5 0.000000 0.000000 0.000000 0.000000 0.047334 0.000000
# 6 0.000000 0.000000 0.000000 0.000000 0.000000 0.043896
#
#
# Mechanical properties :
#
#
# Convention : Reuss Voigt Hill
#
# Bulk Modulus (GPa) = 23.11890 28.41232 25.76561
# Shear Modulus (GPa) = 24.17961 26.02829 25.10395
#
# Velocity S-wave (km/s) = 3.71189 3.85117 3.78217
# Velocity P-wave (km/s) = 5.61645 5.99712 5.80990
#
# Compressibility (1/GPa) = 0.04325466
#
# Stress axis : x y z
#
# Youngs Moduli (GPa) = 45.82582 70.35140 49.87291
#
# Poissons Ratio (x) = 0.26399 -0.20914
# Poissons Ratio (y) = 0.17196 0.34199
# Poissons Ratio (z) = -0.19217 0.48241
#
# Static dielectric constant tensor:
#      x y z
#    x 1.619770 0.000000 0.000000 
#    y 0.000000 1.607350 0.000000 
#    z 0.000000 0.000000 1.598250 
# 
# From -- ./inp_files/25223.got.cif
#   From: 2010.05.17/outbox.cif.g08.bks.cpg/sg52_13_cif.got.tgz:25223.got - 2010.06.03 12:15:38.
