data_PCOD9411171
_publ_section_title
;
Structure prediction by ZEFSAII (Michael W. Deem and Ramdas Pophale) SiO2 
 PCOD9411171
Probable space group: P N N A
;
_chemical_formula_sum "Si O2"
_cell_formula_units_Z 44
_cell_length_a 20.953676
_cell_length_b 11.753223
_cell_length_c 7.927355
_cell_angle_alpha 90.000000
_cell_angle_beta 90.000000
_cell_angle_gamma 90.000000
_cell_volume 1952.295295
_symmetry_space_group_name_H-M "P N N A"
_symmetry_group_IT_number 52
_symmetry_cell_setting 'orthorhombic'
loop_
_space_group_symop_operation_xyz
x,y,z
1/2-x,-y,z
x,1/2-y,1/2-z
1/2-x,1/2+y,1/2-z
-x,-y,-z
1/2+x,y,-z
-x,1/2+y,1/2+z
1/2+x,1/2-y,1/2+z
loop_
_atom_site_type_symbol
_atom_site_label
_atom_site_fract_x
_atom_site_fract_y
_atom_site_fract_z
Si Si1 0.519179 0.847736 0.104865
Si Si2 0.948261 0.495471 0.851029
Si Si3 0.666190 0.626677 0.330467
Si Si4 0.535978 0.750000 0.750000
Si Si5 0.750000 0.000000 0.928221
Si Si6 0.826630 0.628131 0.833018
Si Si7 0.250000 0.000000 0.582115
O O1 0.513709 0.750000 0.250000
O O2 0.477564 0.950561 0.179823
O O3 0.593958 0.883747 0.104319
O O4 0.501439 0.796807 0.920716
O O5 0.928775 0.363891 0.818244
O O6 0.891657 0.578447 0.904500
O O7 0.000000 0.500000 0.000000
O O8 0.671338 0.750000 0.250000
O O9 0.720294 0.603926 0.468722
O O10 0.688792 0.534757 0.192017
O O11 0.807754 0.955657 0.817790
O O12 0.832793 0.750000 0.750000
O O13 0.770735 0.606730 0.967662
#
# Coordination Sequence:
#
# PCOD9411171 Si02
#       7
#     8   8   8   4   4   8   4
#     4  11  23  44  69 103 140 181 232 289 352 419
#     4  12  25  46  70 104 140 185 235 293 362 424
#     4  10  21  40  67  93 136 175 223 286 336 413
#     4  12  26  42  72 100 138 186 226 288 352 422
#     4  10  22  42  62 100 130 178 230 274 340 412
#     4  11  24  42  68  98 138 180 227 288 342 419
#     4  10  22  40  64 102 130 182 232 276 354 408
#
# _framework density 22.537575
#
# number of rings (size 3 to 8) (size 9 to 14) (size 15 to 20)
#    0.000    1.091    1.818    4.364    2.545    0.000 
#    8.182    0.000    6.000    0.000    0.000    0.000 
#    0.000    0.000    0.000    0.000    0.000    0.000 
#
# Total GULP energy -245650.955079 kJ/mol
# GULP energy per Si atom -5582.976252 kJ/mol
# Density = 2.248628 g / cm^3
# Si number density = 22.537575 Si / 1000 Ang^3
#
#
#
# Elastic Constant Matrix: (Units=GPa)
#
#
# Indices 1 2 3 4 5 6 
#
# 1 83.4904 20.1935 20.9440 0.0000 0.0000 0.0000
# 2 20.1935 117.7483 18.6182 0.0000 0.0000 0.0000
# 3 20.9440 18.6182 113.2875 0.0000 0.0000 0.0000
# 4 0.0000 0.0000 0.0000 28.2894 0.0000 0.0000
# 5 0.0000 0.0000 0.0000 0.0000 28.3299 0.0000
# 6 0.0000 0.0000 0.0000 0.0000 0.0000 27.2449
#
#
#
# Elastic Compliance Matrix: (Units=1/GPa)
#
#
# Indices 1 2 3 4 5 6 
#
# 1 0.012958 -0.001893 -0.002085 0.000000 0.000000 0.000000
# 2 -0.001893 0.008996 -0.001128 0.000000 0.000000 0.000000
# 3 -0.002085 -0.001128 0.009398 0.000000 0.000000 0.000000
# 4 0.000000 0.000000 0.000000 0.035349 0.000000 0.000000
# 5 0.000000 0.000000 0.000000 0.000000 0.035298 0.000000
# 6 0.000000 0.000000 0.000000 0.000000 0.000000 0.036704
#
#
# Mechanical properties :
#
#
# Convention : Reuss Voigt Hill
#
# Bulk Modulus (GPa) = 47.30301 48.22640 47.76470
# Shear Modulus (GPa) = 32.05918 33.75753 32.90835
#
# Velocity S-wave (km/s) = 3.77567 3.87438 3.82534
# Velocity P-wave (km/s) = 6.32784 6.43888 6.38360
#
# Compressibility (1/GPa) = 0.02114030
#
# Stress axis : x y z
#
# Youngs Moduli (GPa) = 77.17165 111.16406 106.40615
#
# Poissons Ratio (x) = 0.21040 0.22181
# Poissons Ratio (y) = 0.14606 0.12008
# Poissons Ratio (z) = 0.16087 0.12545
#
# Static dielectric constant tensor:
#      x y z
#    x 1.875110 0.000000 0.000000 
#    y 0.000000 1.822010 0.000000 
#    z 0.000000 0.000000 1.921110 
# 
# From -- ./inp_files/14210.got.cif
#   From: 2010.05.17/outbox.cif.g08.bks.cpg/sg52_8_cif.got.tgz:14210.got - 2010.06.03 12:15:38.
