data_PCOD9411529
_publ_section_title
;
Structure prediction by ZEFSAII (Michael W. Deem and Ramdas Pophale) SiO2 
 PCOD9411529
Probable space group: P N N A
;
_chemical_formula_sum "Si O2"
_cell_formula_units_Z 60
_cell_length_a 15.921589
_cell_length_b 22.746127
_cell_length_c 7.226275
_cell_angle_alpha 90.000000
_cell_angle_beta 90.000000
_cell_angle_gamma 90.000000
_cell_volume 2617.027904
_symmetry_space_group_name_H-M "P N N A"
_symmetry_group_IT_number 52
_symmetry_cell_setting 'orthorhombic'
loop_
_space_group_symop_operation_xyz
x,y,z
1/2-x,-y,z
x,1/2-y,1/2-z
1/2-x,1/2+y,1/2-z
-x,-y,-z
1/2+x,y,-z
-x,1/2+y,1/2+z
1/2+x,1/2-y,1/2+z
loop_
_atom_site_type_symbol
_atom_site_label
_atom_site_fract_x
_atom_site_fract_y
_atom_site_fract_z
Si Si1 0.619318 0.199367 0.883110
Si Si2 0.350734 0.954484 0.397418
Si Si3 0.232907 0.613279 0.342580
Si Si4 0.434529 0.750000 0.750000
Si Si5 0.021804 0.417897 0.412354
Si Si6 0.037113 0.628826 0.231939
Si Si7 0.732393 0.071620 0.258603
Si Si8 0.400356 0.428408 0.892222
O O1 0.591328 0.250000 0.750000
O O2 0.705183 0.168901 0.813818
O O3 0.547042 0.150115 0.885279
O O4 0.624539 0.229819 0.081943
O O5 0.261936 0.937417 0.301118
O O6 0.408603 0.947858 0.215809
O O7 0.341736 0.917382 0.592518
O O8 0.382958 0.014259 0.487647
O O9 0.134516 0.627507 0.309184
O O10 0.263849 0.592129 0.547415
O O11 0.494550 0.692838 0.770945
O O12 0.010005 0.418042 0.632360
O O13 0.937888 0.438385 0.310452
O O14 0.038224 0.608420 0.019909
O O15 0.812630 0.102366 0.351967
O O16 0.750000 0.000000 0.259280
#
# Coordination Sequence:
#
# PCOD9411529 Si02
#       8
#     8   8   8   4   8   8   8   8
#     4  10  23  43  66  89 123 163 209 267 317 370
#     4  10  23  38  61  94 129 170 211 248 304 370
#     4  11  23  39  63  95 128 165 214 251 314 378
#     4  10  24  46  64  90 122 164 206 270 328 368
#     4  10  22  40  61  93 127 161 206 259 311 368
#     4  11  23  39  65  91 126 163 210 260 316 370
#     4  10  22  37  61  91 133 172 201 251 303 368
#     4  11  21  38  64  92 128 170 208 252 306 369
#
# _framework density 22.926770000000001
#
# number of rings (size 3 to 8) (size 9 to 14) (size 15 to 20)
#    0.000    1.600    2.667    1.200    2.800    5.867 
#    0.000    0.000    1.467    0.000    0.000    0.000 
#    0.000    0.000    0.000    0.000    0.000    0.000 
#
# Total GULP energy -334046.681074 kJ/mol
# GULP energy per Si atom -5567.444685 kJ/mol
# Density = 2.287459 g / cm^3
# Si number density = 22.926770 Si / 1000 Ang^3
#
#
#
# Elastic Constant Matrix: (Units=GPa)
#
#
# Indices 1 2 3 4 5 6 
#
# 1 61.6028 -16.8668 -11.9192 0.0000 0.0000 0.0000
# 2 -16.8668 41.1668 4.5040 0.0000 0.0000 0.0000
# 3 -11.9192 4.5040 95.1844 0.0000 0.0000 0.0000
# 4 0.0000 0.0000 0.0000 27.0190 0.0000 0.0000
# 5 0.0000 0.0000 0.0000 0.0000 43.8878 0.0000
# 6 0.0000 0.0000 0.0000 0.0000 0.0000 50.4160
#
#
#
# Elastic Compliance Matrix: (Units=1/GPa)
#
#
# Indices 1 2 3 4 5 6 
#
# 1 0.018650 0.007424 0.001984 0.000000 0.000000 0.000000
# 2 0.007424 0.027373 -0.000366 0.000000 0.000000 0.000000
# 3 0.001984 -0.000366 0.010772 0.000000 0.000000 0.000000
# 4 0.000000 0.000000 0.000000 0.037011 0.000000 0.000000
# 5 0.000000 0.000000 0.000000 0.000000 0.022785 0.000000
# 6 0.000000 0.000000 0.000000 0.000000 0.000000 0.019835
#
#
# Mechanical properties :
#
#
# Convention : Reuss Voigt Hill
#
# Bulk Modulus (GPa) = 13.35480 16.59888 14.97684
# Shear Modulus (GPa) = 34.89167 39.08029 36.98598
#
# Velocity S-wave (km/s) = 3.90535 4.13312 4.02085
# Velocity P-wave (km/s) = 5.11599 5.48020 5.30122
#
# Compressibility (1/GPa) = 0.07487947
#
# Stress axis : x y z
#
# Youngs Moduli (GPa) = 53.62042 36.53207 92.83614
#
# Poissons Ratio (x) = -0.27122 -0.18419
# Poissons Ratio (y) = -0.39808 0.03394
# Poissons Ratio (z) = -0.10639 0.01336
#
# Static dielectric constant tensor:
#      x y z
#    x 1.939360 0.000000 0.000000 
#    y 0.000000 1.870710 0.000000 
#    z 0.000000 0.000000 1.824060 
# 
# From -- ./inp_files/3588.got.cif
#   From: 2010.05.17/outbox.cif.g08.bks.cpg/sg52_2_cif.got.tgz:3588.got - 2010.06.03 12:15:38.
