data_PCOD9411971
_publ_section_title
;
Structure prediction by ZEFSAII (Michael W. Deem and Ramdas Pophale) SiO2 
 PCOD9411971
Probable space group: P N N A
;
_chemical_formula_sum "Si O2"
_cell_formula_units_Z 32
_cell_length_a 16.792363
_cell_length_b 6.699658
_cell_length_c 14.043180
_cell_angle_alpha 90.000000
_cell_angle_beta 90.000000
_cell_angle_gamma 90.000000
_cell_volume 1579.901131
_symmetry_space_group_name_H-M "P N N A"
_symmetry_group_IT_number 52
_symmetry_cell_setting 'orthorhombic'
loop_
_space_group_symop_operation_xyz
x,y,z
1/2-x,-y,z
x,1/2-y,1/2-z
1/2-x,1/2+y,1/2-z
-x,-y,-z
1/2+x,y,-z
-x,1/2+y,1/2+z
1/2+x,1/2-y,1/2+z
loop_
_atom_site_type_symbol
_atom_site_label
_atom_site_fract_x
_atom_site_fract_y
_atom_site_fract_z
Si Si1 0.493568 0.563072 0.109825
Si Si2 0.428014 0.750000 0.750000
Si Si3 0.750000 0.000000 0.999507
Si Si4 0.635967 0.637367 0.343016
Si Si5 0.311754 0.822755 0.357184
O O1 0.521427 0.382616 0.177175
O O2 0.553820 0.747305 0.131423
O O3 0.403064 0.611560 0.135117
O O4 0.500000 0.500000 0.000000
O O5 0.378933 0.589992 0.688706
O O6 0.799545 0.855326 0.931579
O O7 0.693812 0.868184 0.067466
O O8 0.669606 0.750000 0.250000
O O9 0.295031 0.750000 0.250000
O O10 0.250000 0.000000 0.379666
#
# Coordination Sequence:
#
# PCOD9411971 Si02
#       5
#     8   4   4   8   8
#     4  11  24  43  68  99 135 178 233 279 347 418
#     4  10  22  42  68  94 132 174 224 286 334 408
#     4  12  26  44  68  98 142 176 228 288 344 412
#     4  10  24  44  68 100 131 181 227 280 351 408
#     4  12  26  43  67  99 136 183 231 282 345 412
#
# _framework density 20.254432999999999
#
# number of rings (size 3 to 8) (size 9 to 14) (size 15 to 20)
#    0.000    1.000    1.250    5.250    3.500   10.000 
#    0.000    0.000    0.000    0.000    0.000    0.000 
#    0.000    0.000    0.000    0.000    0.000    0.000 
#
# Total GULP energy -179037.925669 kJ/mol
# GULP energy per Si atom -5594.935177 kJ/mol
# Density = 2.020833 g / cm^3
# Si number density = 20.254433 Si / 1000 Ang^3
#
#
#
# Elastic Constant Matrix: (Units=GPa)
#
#
# Indices 1 2 3 4 5 6 
#
# 1 76.9142 27.0309 23.0694 0.0000 0.0000 0.0000
# 2 27.0309 87.1620 22.7932 0.0000 0.0000 0.0000
# 3 23.0694 22.7932 121.6078 0.0000 0.0000 0.0000
# 4 0.0000 0.0000 0.0000 33.2970 0.0000 0.0000
# 5 0.0000 0.0000 0.0000 0.0000 41.2647 0.0000
# 6 0.0000 0.0000 0.0000 0.0000 0.0000 13.2628
#
#
#
# Elastic Compliance Matrix: (Units=1/GPa)
#
#
# Indices 1 2 3 4 5 6 
#
# 1 0.015079 -0.004131 -0.002086 0.000000 0.000000 0.000000
# 2 -0.004131 0.013196 -0.001690 0.000000 0.000000 0.000000
# 3 -0.002086 -0.001690 0.008936 0.000000 0.000000 0.000000
# 4 0.000000 0.000000 0.000000 0.030033 0.000000 0.000000
# 5 0.000000 0.000000 0.000000 0.000000 0.024234 0.000000
# 6 0.000000 0.000000 0.000000 0.000000 0.000000 0.075399
#
#
# Mechanical properties :
#
#
# Convention : Reuss Voigt Hill
#
# Bulk Modulus (GPa) = 46.73573 47.94123 47.33848
# Shear Modulus (GPa) = 26.34049 31.75092 29.04571
#
# Velocity S-wave (km/s) = 3.61013 3.96359 3.79098
# Velocity P-wave (km/s) = 6.36410 6.68339 6.52570
#
# Compressibility (1/GPa) = 0.02139690
#
# Stress axis : x y z
#
# Youngs Moduli (GPa) = 66.31749 75.78169 111.91145
#
# Poissons Ratio (x) = 0.31304 0.23348
# Poissons Ratio (y) = 0.27394 0.18910
# Poissons Ratio (z) = 0.13836 0.12805
#
# Static dielectric constant tensor:
#      x y z
#    x 1.833970 0.000000 0.000000 
#    y 0.000000 1.707900 0.000000 
#    z 0.000000 0.000000 1.747790 
# 
# From -- ./inp_files/27624.got.cif
#   From: 2010.05.17/outbox.cif.g08.bks.cpg/sg52_14_cif.got.tgz:27624.got - 2010.06.03 12:15:38.
