data_PCOD9411342
_publ_section_title
;
Structure prediction by ZEFSAII (Michael W. Deem and Ramdas Pophale) SiO2 
 PCOD9411342
Probable space group: P N N A
;
_chemical_formula_sum "Si O2"
_cell_formula_units_Z 28
_cell_length_a 30.809846
_cell_length_b 5.170856
_cell_length_c 8.720357
_cell_angle_alpha 90.000000
_cell_angle_beta 90.000000
_cell_angle_gamma 90.000000
_cell_volume 1389.268651
_symmetry_space_group_name_H-M "P N N A"
_symmetry_group_IT_number 52
_symmetry_cell_setting 'orthorhombic'
loop_
_space_group_symop_operation_xyz
x,y,z
1/2-x,-y,z
x,1/2-y,1/2-z
1/2-x,1/2+y,1/2-z
-x,-y,-z
1/2+x,y,-z
-x,1/2+y,1/2+z
1/2+x,1/2-y,1/2+z
loop_
_atom_site_type_symbol
_atom_site_label
_atom_site_fract_x
_atom_site_fract_y
_atom_site_fract_z
Si Si1 0.250000 0.500000 0.855430
Si Si2 0.968080 0.500201 0.356477
Si Si3 0.295647 0.657691 0.420196
Si Si4 0.132344 0.501921 0.643118
O O1 0.240399 0.750000 0.750000
O O2 0.287098 0.596546 0.969954
O O3 0.974585 0.250000 0.250000
O O4 0.917745 0.501203 0.409588
O O5 0.000000 0.500000 0.500000
O O6 0.974855 0.750000 0.250000
O O7 0.250000 0.500000 0.415246
O O8 0.306208 0.750000 0.250000
O O9 0.333844 0.503620 0.503740
O O10 0.138890 0.250000 0.750000
O O11 0.138415 0.750000 0.750000
#
# Coordination Sequence:
#
# PCOD9411342 Si02
#       4
#     4   8   8   8
#     4  12  26  42  66  90 118 172 218 260 318 386
#     4  10  21  42  68 100 131 166 213 264 321 389
#     4  12  27  43  62  94 131 166 217 275 324 367
#     4  10  25  42  66  95 127 171 221 260 314 397
#
# _framework density 20.154489000000002
#
# number of rings (size 3 to 8) (size 9 to 14) (size 15 to 20)
#    0.000    1.143    2.857    1.714    8.000    1.143 
#    0.000    1.429    0.000    0.000    0.000    0.000 
#    0.000    0.000    0.000    0.000    0.000    0.000 
#
# Total GULP energy -156640.443747 kJ/mol
# GULP energy per Si atom -5594.301562 kJ/mol
# Density = 2.010862 g / cm^3
# Si number density = 20.154489 Si / 1000 Ang^3
#
#
#
# Elastic Constant Matrix: (Units=GPa)
#
#
# Indices 1 2 3 4 5 6 
#
# 1 179.1549 57.6686 119.3390 0.0000 0.0000 0.0000
# 2 57.6686 161.2153 71.3510 0.0000 0.0000 0.0000
# 3 119.3390 71.3510 174.3662 0.0000 0.0000 0.0000
# 4 0.0000 0.0000 0.0000 21.0142 0.0000 0.0000
# 5 0.0000 0.0000 0.0000 0.0000 36.3017 0.0000
# 6 0.0000 0.0000 0.0000 0.0000 0.0000 38.2988
#
#
#
# Elastic Compliance Matrix: (Units=1/GPa)
#
#
# Indices 1 2 3 4 5 6 
#
# 1 0.010321 -0.000691 -0.006781 0.000000 0.000000 0.000000
# 2 -0.000691 0.007621 -0.002646 0.000000 0.000000 0.000000
# 3 -0.006781 -0.002646 0.011459 0.000000 0.000000 0.000000
# 4 0.000000 0.000000 0.000000 0.047587 0.000000 0.000000
# 5 0.000000 0.000000 0.000000 0.000000 0.027547 0.000000
# 6 0.000000 0.000000 0.000000 0.000000 0.000000 0.026110
#
#
# Mechanical properties :
#
#
# Convention : Reuss Voigt Hill
#
# Bulk Modulus (GPa) = 109.10528 112.38374 110.74451
# Shear Modulus (GPa) = 32.48087 36.88146 34.68116
#
# Velocity S-wave (km/s) = 4.01882 4.28242 4.15271
# Velocity P-wave (km/s) = 8.70555 8.96294 8.83518
#
# Compressibility (1/GPa) = 0.00916546
#
# Stress axis : x y z
#
# Youngs Moduli (GPa) = 96.88607 131.21760 87.26718
#
# Poissons Ratio (x) = 0.09064 0.59180
# Poissons Ratio (y) = 0.06692 0.23089
# Poissons Ratio (z) = 0.65703 0.34717
#
# Static dielectric constant tensor:
#      x y z
#    x 1.739280 0.000000 0.000000 
#    y 0.000000 1.766810 0.000000 
#    z 0.000000 0.000000 1.670690 
# 
# From -- ./inp_files/15138.got.cif
#   From: 2010.05.17/outbox.cif.g08.bks.cpg/sg52_8_cif.got.tgz:15138.got - 2010.06.03 12:15:38.
