data_PCOD9411870
_publ_section_title
;
Structure prediction by ZEFSAII (Michael W. Deem and Ramdas Pophale) SiO2 
 PCOD9411870
Probable space group: P N N A
;
_chemical_formula_sum "Si O2"
_cell_formula_units_Z 64
_cell_length_a 17.079948
_cell_length_b 15.099875
_cell_length_c 11.088916
_cell_angle_alpha 90.000000
_cell_angle_beta 90.000000
_cell_angle_gamma 90.000000
_cell_volume 2859.887766
_symmetry_space_group_name_H-M "P N N A"
_symmetry_group_IT_number 52
_symmetry_cell_setting 'orthorhombic'
loop_
_space_group_symop_operation_xyz
x,y,z
1/2-x,-y,z
x,1/2-y,1/2-z
1/2-x,1/2+y,1/2-z
-x,-y,-z
1/2+x,y,-z
-x,1/2+y,1/2+z
1/2+x,1/2-y,1/2+z
loop_
_atom_site_type_symbol
_atom_site_label
_atom_site_fract_x
_atom_site_fract_y
_atom_site_fract_z
Si Si1 0.278940 0.302403 0.626888
Si Si2 0.934331 0.885393 0.933434
Si Si3 0.900014 0.039010 0.125268
Si Si4 0.184322 0.433355 0.251690
Si Si5 0.585799 0.561719 0.900954
Si Si6 0.400793 0.553419 0.880603
Si Si7 0.291031 0.198391 0.375088
Si Si8 0.892992 0.748205 0.379134
O O1 0.304104 0.250000 0.750000
O O2 0.328823 0.391915 0.615177
O O3 0.285715 0.250814 0.499664
O O4 0.185146 0.310719 0.638960
O O5 0.860684 0.870850 0.844887
O O6 0.017328 0.907435 0.872061
O O7 0.941760 0.799443 0.017816
O O8 0.910140 0.970542 0.014650
O O9 0.889341 0.983265 0.247223
O O10 0.250000 0.500000 0.305336
O O11 0.115334 0.494437 0.200640
O O12 0.228182 0.380550 0.145700
O O13 0.493409 0.566545 0.902567
O O14 0.623785 0.654925 0.875394
O O15 0.621582 0.521951 0.024155
O O16 0.367313 0.650996 0.904125
O O17 0.282469 0.250000 0.250000
O O18 0.935332 0.750000 0.250000
#
# Coordination Sequence:
#
# PCOD9411870 Si02
#       8
#     8   8   8   8   8   8   8   8
#     4  11  26  46  66 104 142 184 239 290 355 420
#     4  11  24  43  69 107 137 185 234 290 358 423
#     4  11  25  43  71 101 145 182 237 289 357 429
#     4  10  22  41  67 100 139 181 232 290 346 426
#     4  10  23  40  69  97 136 183 234 281 359 422
#     4  11  22  45  67  99 136 185 233 294 347 426
#     4  11  24  41  68 102 139 182 233 293 353 418
#     4  11  24  43  67  98 136 181 236 285 350 416
#
# _framework density 22.378501
#
# number of rings (size 3 to 8) (size 9 to 14) (size 15 to 20)
#    0.000    1.250    2.500    2.250    7.000    0.500 
#    0.000    1.875    0.000    0.000    0.000    0.000 
#    0.000    0.000    0.000    0.000    0.000    0.000 
#
# Total GULP energy -357615.536719 kJ/mol
# GULP energy per Si atom -5587.742761 kJ/mol
# Density = 2.232757 g / cm^3
# Si number density = 22.378501 Si / 1000 Ang^3
#
#
#
# Elastic Constant Matrix: (Units=GPa)
#
#
# Indices 1 2 3 4 5 6 
#
# 1 71.7295 37.0257 20.4156 0.0000 0.0000 0.0000
# 2 37.0257 85.9279 28.2343 0.0000 0.0000 0.0000
# 3 20.4156 28.2343 86.0334 0.0000 0.0000 0.0000
# 4 0.0000 0.0000 0.0000 32.5930 0.0000 0.0000
# 5 0.0000 0.0000 0.0000 0.0000 12.8625 0.0000
# 6 0.0000 0.0000 0.0000 0.0000 0.0000 27.3815
#
#
#
# Elastic Compliance Matrix: (Units=1/GPa)
#
#
# Indices 1 2 3 4 5 6 
#
# 1 0.018219 -0.007207 -0.001958 0.000000 0.000000 0.000000
# 2 -0.007207 0.015895 -0.003506 0.000000 0.000000 0.000000
# 3 -0.001958 -0.003506 0.013239 0.000000 0.000000 0.000000
# 4 0.000000 0.000000 0.000000 0.030681 0.000000 0.000000
# 5 0.000000 0.000000 0.000000 0.000000 0.077745 0.000000
# 6 0.000000 0.000000 0.000000 0.000000 0.000000 0.036521
#
#
# Mechanical properties :
#
#
# Convention : Reuss Voigt Hill
#
# Bulk Modulus (GPa) = 45.43386 46.11577 45.77482
# Shear Modulus (GPa) = 22.22425 25.10174 23.66300
#
# Velocity S-wave (km/s) = 3.15478 3.35280 3.25529
# Velocity P-wave (km/s) = 5.79799 5.96995 5.88460
#
# Compressibility (1/GPa) = 0.02201002
#
# Stress axis : x y z
#
# Youngs Moduli (GPa) = 54.88871 62.91228 75.53592
#
# Poissons Ratio (x) = 0.45340 0.14791
# Poissons Ratio (y) = 0.39558 0.26485
# Poissons Ratio (z) = 0.10748 0.22059
#
# Static dielectric constant tensor:
#      x y z
#    x 1.808520 0.000000 0.000000 
#    y 0.000000 1.852140 0.000000 
#    z 0.000000 0.000000 1.907060 
# 
# From -- ./inp_files/20902.got.cif
#   From: 2010.05.17/outbox.cif.g08.bks.cpg/sg52_11_cif.got.tgz:20902.got - 2010.06.03 12:15:38.
