data_PCOD9411094
_publ_section_title
;
Structure prediction by ZEFSAII (Michael W. Deem and Ramdas Pophale) SiO2 
 PCOD9411094
Probable space group: P N N A
;
_chemical_formula_sum "Si O2"
_cell_formula_units_Z 64
_cell_length_a 8.791578
_cell_length_b 12.287606
_cell_length_c 29.708222
_cell_angle_alpha 90.000000
_cell_angle_beta 90.000000
_cell_angle_gamma 90.000000
_cell_volume 3209.303365
_symmetry_space_group_name_H-M "P N N A"
_symmetry_group_IT_number 52
_symmetry_cell_setting 'orthorhombic'
loop_
_space_group_symop_operation_xyz
x,y,z
1/2-x,-y,z
x,1/2-y,1/2-z
1/2-x,1/2+y,1/2-z
-x,-y,-z
1/2+x,y,-z
-x,1/2+y,1/2+z
1/2+x,1/2-y,1/2+z
loop_
_atom_site_type_symbol
_atom_site_label
_atom_site_fract_x
_atom_site_fract_y
_atom_site_fract_z
Si Si1 0.355947 0.634317 0.851286
Si Si2 0.465525 0.235767 0.990975
Si Si3 0.315688 0.770329 0.157996
Si Si4 0.701800 0.120481 0.455721
Si Si5 0.576346 0.456139 0.717462
Si Si6 0.001737 0.305284 0.702794
Si Si7 0.236894 0.128690 0.061533
Si Si8 0.479757 0.078228 0.682865
O O1 0.349146 0.614385 0.904111
O O2 0.402390 0.754499 0.837438
O O3 0.477516 0.549232 0.830261
O O4 0.190463 0.613212 0.830173
O O5 0.569363 0.327425 0.014490
O O6 0.371119 0.171034 0.028941
O O7 0.344343 0.297986 0.959896
O O8 0.578693 0.158947 0.963142
O O9 0.423338 0.863932 0.179405
O O10 0.171562 0.770903 0.191412
O O11 0.261640 0.808723 0.109055
O O12 0.401323 0.655490 0.157449
O O13 0.750000 0.000000 0.470932
O O14 0.750000 0.500000 0.723390
O O15 0.486101 0.565391 0.705288
O O16 0.516106 0.410853 0.764555
O O17 0.046713 0.250000 0.750000
O O18 0.250000 0.000000 0.069140
#
# Coordination Sequence:
#
# PCOD9411094 Si02
#       8
#     8   8   8   8   8   8   8   8
#     4  11  24  39  61  87 126 166 198 251 310 374
#     4  10  24  40  66  93 120 167 204 262 333 385
#     4  11  23  38  64  89 119 158 211 257 301 362
#     4  11  21  42  63  90 128 159 210 260 322 383
#     4  10  21  40  62  87 120 162 209 257 302 352
#     4  11  21  38  60  87 120 160 205 253 300 362
#     4  11  22  42  65  93 125 159 209 263 324 384
#     4  11  22  40  57  87 125 165 202 249 307 368
#
# _framework density 19.942022999999999
#
# number of rings (size 3 to 8) (size 9 to 14) (size 15 to 20)
#    0.000    1.250    2.500    5.250    0.000    1.000 
#    0.000    0.000    0.000    3.000    0.000    0.000 
#    0.000    0.000    0.000    0.000    0.000    0.000 
#
# Total GULP energy -357688.366524 kJ/mol
# GULP energy per Si atom -5588.880727 kJ/mol
# Density = 1.989663 g / cm^3
# Si number density = 19.942023 Si / 1000 Ang^3
#
#
#
# Elastic Constant Matrix: (Units=GPa)
#
#
# Indices 1 2 3 4 5 6 
#
# 1 22.2031 -0.8499 -3.6117 0.0000 0.0000 0.0000
# 2 -0.8499 59.2453 1.4634 0.0000 0.0000 0.0000
# 3 -3.6117 1.4634 62.2662 0.0000 0.0000 0.0000
# 4 0.0000 0.0000 0.0000 20.6328 0.0000 0.0000
# 5 0.0000 0.0000 0.0000 0.0000 29.0576 0.0000
# 6 0.0000 0.0000 0.0000 0.0000 0.0000 16.7116
#
#
#
# Elastic Compliance Matrix: (Units=1/GPa)
#
#
# Indices 1 2 3 4 5 6 
#
# 1 0.045488 0.000588 0.002625 0.000000 0.000000 0.000000
# 2 0.000588 0.016896 -0.000363 0.000000 0.000000 0.000000
# 3 0.002625 -0.000363 0.016221 0.000000 0.000000 0.000000
# 4 0.000000 0.000000 0.000000 0.048467 0.000000 0.000000
# 5 0.000000 0.000000 0.000000 0.000000 0.034414 0.000000
# 6 0.000000 0.000000 0.000000 0.000000 0.000000 0.059839
#
#
# Mechanical properties :
#
#
# Convention : Reuss Voigt Hill
#
# Bulk Modulus (GPa) = 11.86182 15.30204 13.58193
# Shear Modulus (GPa) = 20.51469 23.06124 21.78797
#
# Velocity S-wave (km/s) = 3.21084 3.40430 3.30898
# Velocity P-wave (km/s) = 4.43926 4.81064 4.62868
#
# Compressibility (1/GPa) = 0.08430410
#
# Stress axis : x y z
#
# Youngs Moduli (GPa) = 21.98372 59.18429 61.64909
#
# Poissons Ratio (x) = -0.03478 -0.16181
# Poissons Ratio (y) = -0.01292 0.02238
# Poissons Ratio (z) = -0.05770 0.02149
#
# Static dielectric constant tensor:
#      x y z
#    x 1.715840 0.000000 0.000000 
#    y 0.000000 1.697040 0.000000 
#    z 0.000000 0.000000 1.662420 
# 
# From -- ./inp_files/44596.got.cif
#   From: 2010.05.17/outbox.cif.g08.bks.cpg/sg52_23_cif.got.tgz:44596.got - 2010.06.03 12:15:38.
