data_PCOD9411017
_publ_section_title
;
Structure prediction by ZEFSAII (Michael W. Deem and Ramdas Pophale) SiO2 
 PCOD9411017
Probable space group: P N N A
;
_chemical_formula_sum "Si O2"
_cell_formula_units_Z 64
_cell_length_a 5.674436
_cell_length_b 16.401747
_cell_length_c 30.571613
_cell_angle_alpha 90.000000
_cell_angle_beta 90.000000
_cell_angle_gamma 90.000000
_cell_volume 2845.320310
_symmetry_space_group_name_H-M "P N N A"
_symmetry_group_IT_number 52
_symmetry_cell_setting 'orthorhombic'
loop_
_space_group_symop_operation_xyz
x,y,z
1/2-x,-y,z
x,1/2-y,1/2-z
1/2-x,1/2+y,1/2-z
-x,-y,-z
1/2+x,y,-z
-x,1/2+y,1/2+z
1/2+x,1/2-y,1/2+z
loop_
_atom_site_type_symbol
_atom_site_label
_atom_site_fract_x
_atom_site_fract_y
_atom_site_fract_z
Si Si1 0.844149 0.707667 0.484928
Si Si2 0.609522 0.832015 0.679999
Si Si3 0.408139 0.429354 0.337196
Si Si4 0.379552 0.606668 0.985389
Si Si5 0.007746 0.955879 0.393845
Si Si6 0.810555 0.585281 0.254223
Si Si7 0.465025 0.701923 0.310256
Si Si8 0.669435 0.295660 0.381519
O O1 0.597533 0.670056 0.501830
O O2 0.853875 0.800597 0.503097
O O3 0.830266 0.715803 0.432751
O O4 0.609587 0.910514 0.648905
O O5 0.456378 0.858097 0.721368
O O6 0.487808 0.766300 0.647479
O O7 0.848454 0.790349 0.698512
O O8 0.250000 0.500000 0.356434
O O9 0.544822 0.456381 0.294086
O O10 0.577873 0.386486 0.371225
O O11 0.244098 0.360562 0.316753
O O12 0.440865 0.602982 0.934158
O O13 0.613832 0.572644 0.009268
O O14 0.250000 0.000000 0.409927
O O15 0.750000 0.000000 0.385130
O O16 0.750000 0.500000 0.229155
O O17 0.642090 0.652399 0.278462
O O18 0.581072 0.712334 0.357984
#
# Coordination Sequence:
#
# PCOD9411017 Si02
#       8
#     8   8   8   8   8   8   8   8
#     4  10  22  39  69 100 138 181 230 289 353 419
#     4  11  26  43  67  97 138 181 238 288 353 417
#     4  10  21  40  68 103 132 175 227 281 352 424
#     4  10  21  39  65  93 127 176 233 294 345 411
#     4  12  27  44  66  96 138 188 232 288 362 421
#     4  11  23  44  70 100 140 183 234 292 365 427
#     4  10  24  43  73  96 137 175 232 294 346 424
#     4  10  23  40  68 102 134 180 228 288 350 418
#
# _framework density 22.493072999999999
#
# number of rings (size 3 to 8) (size 9 to 14) (size 15 to 20)
#    0.000    1.500    2.500    1.125    5.250    9.500 
#    0.000    0.000    0.000    0.750    0.000    0.000 
#    0.000    0.000    0.000    0.000    0.000    0.000 
#
# Total GULP energy -356596.183306 kJ/mol
# GULP energy per Si atom -5571.815364 kJ/mol
# Density = 2.244188 g / cm^3
# Si number density = 22.493073 Si / 1000 Ang^3
#
#
#
# Elastic Constant Matrix: (Units=GPa)
#
#
# Indices 1 2 3 4 5 6 
#
# 1 123.6245 21.5124 43.7740 0.0000 0.0000 0.0000
# 2 21.5124 50.7220 24.6550 0.0000 0.0000 0.0000
# 3 43.7740 24.6550 97.3280 0.0000 0.0000 0.0000
# 4 0.0000 0.0000 0.0000 11.1066 0.0000 0.0000
# 5 0.0000 0.0000 0.0000 0.0000 124.3319 0.0000
# 6 0.0000 0.0000 0.0000 0.0000 0.0000 36.2404
#
#
#
# Elastic Compliance Matrix: (Units=1/GPa)
#
#
# Indices 1 2 3 4 5 6 
#
# 1 0.009853 -0.002309 -0.003846 0.000000 0.000000 0.000000
# 2 -0.002309 0.023025 -0.004794 0.000000 0.000000 0.000000
# 3 -0.003846 -0.004794 0.013219 0.000000 0.000000 0.000000
# 4 0.000000 0.000000 0.000000 0.090036 0.000000 0.000000
# 5 0.000000 0.000000 0.000000 0.000000 0.008043 0.000000
# 6 0.000000 0.000000 0.000000 0.000000 0.000000 0.027593
#
#
# Mechanical properties :
#
#
# Convention : Reuss Voigt Hill
#
# Bulk Modulus (GPa) = 41.32677 50.17303 45.74990
# Shear Modulus (GPa) = 24.78504 46.45134 35.61819
#
# Velocity S-wave (km/s) = 3.32308 4.54931 3.98366
# Velocity P-wave (km/s) = 5.75646 7.06749 6.44540
#
# Compressibility (1/GPa) = 0.02419739
#
# Stress axis : x y z
#
# Youngs Moduli (GPa) = 101.49395 43.43109 75.64910
#
# Poissons Ratio (x) = 0.10029 0.29098
# Poissons Ratio (y) = 0.23436 0.36267
# Poissons Ratio (z) = 0.39039 0.20821
#
# Static dielectric constant tensor:
#      x y z
#    x 1.882950 0.000000 0.000000 
#    y 0.000000 1.964020 0.000000 
#    z 0.000000 0.000000 1.790300 
# 
# From -- ./inp_files/43908.got.cif
#   From: 2010.05.17/outbox.cif.g08.bks.cpg/sg52_22_cif.got.tgz:43908.got - 2010.06.03 12:15:38.
