data_PCOD9411414
_publ_section_title
;
Structure prediction by ZEFSAII (Michael W. Deem and Ramdas Pophale) SiO2 
 PCOD9411414
Probable space group: P N N A
;
_chemical_formula_sum "Si O2"
_cell_formula_units_Z 36
_cell_length_a 12.345896
_cell_length_b 23.196413
_cell_length_c 4.723574
_cell_angle_alpha 90.000000
_cell_angle_beta 90.000000
_cell_angle_gamma 90.000000
_cell_volume 1352.739496
_symmetry_space_group_name_H-M "P N N A"
_symmetry_group_IT_number 52
_symmetry_cell_setting 'orthorhombic'
loop_
_space_group_symop_operation_xyz
x,y,z
1/2-x,-y,z
x,1/2-y,1/2-z
1/2-x,1/2+y,1/2-z
-x,-y,-z
1/2+x,y,-z
-x,1/2+y,1/2+z
1/2+x,1/2-y,1/2+z
loop_
_atom_site_type_symbol
_atom_site_label
_atom_site_fract_x
_atom_site_fract_y
_atom_site_fract_z
Si Si1 0.795515 0.662252 0.490631
Si Si2 0.374933 0.001591 0.810669
Si Si3 0.061377 0.066897 0.301786
Si Si4 0.959488 0.750000 0.750000
Si Si5 0.344146 0.308449 0.060207
O O1 0.874499 0.614253 0.630269
O O2 0.878727 0.715606 0.545500
O O3 0.687254 0.649814 0.683475
O O4 0.743510 0.675201 0.182597
O O5 0.432369 0.061159 0.724627
O O6 0.250000 0.000000 0.763879
O O7 0.413661 0.946439 0.624742
O O8 0.400702 0.991039 0.137794
O O9 0.040883 0.794531 0.586528
O O10 0.325587 0.250000 0.250000
#
# Coordination Sequence:
#
# PCOD9411414 Si02
#       5
#     8   8   8   4   8
#     4  12  26  43  68  99 139 181 233 296 341 415
#     4  10  21  44  68  97 135 176 217 282 346 411
#     4  10  23  41  67 100 132 173 226 277 344 409
#     4  12  26  44  70  96 134 194 228 282 354 412
#     4  12  25  45  64  96 138 184 233 286 343 408
#
# _framework density 26.612666000000001
#
# number of rings (size 3 to 8) (size 9 to 14) (size 15 to 20)
#    0.000    0.889    3.333    2.000    3.111    3.556 
#    0.000    0.000    0.000    0.000    0.000    0.000 
#    0.000    0.000    0.000    0.000    0.000    0.000 
#
# Total GULP energy -200432.073808 kJ/mol
# GULP energy per Si atom -5567.557606 kJ/mol
# Density = 2.655209 g / cm^3
# Si number density = 26.612666 Si / 1000 Ang^3
#
#
#
# Elastic Constant Matrix: (Units=GPa)
#
#
# Indices 1 2 3 4 5 6 
#
# 1 116.1298 7.8683 35.4023 0.0000 0.0000 0.0000
# 2 7.8683 38.1391 25.5841 0.0000 0.0000 0.0000
# 3 35.4023 25.5841 161.0859 0.0000 0.0000 0.0000
# 4 0.0000 0.0000 0.0000 47.7225 0.0000 0.0000
# 5 0.0000 0.0000 0.0000 0.0000 37.8650 0.0000
# 6 0.0000 0.0000 0.0000 0.0000 0.0000 31.5216
#
#
#
# Elastic Compliance Matrix: (Units=1/GPa)
#
#
# Indices 1 2 3 4 5 6 
#
# 1 0.009242 -0.000609 -0.001934 0.000000 0.000000 0.000000
# 2 -0.000609 0.029387 -0.004533 0.000000 0.000000 0.000000
# 3 -0.001934 -0.004533 0.007353 0.000000 0.000000 0.000000
# 4 0.000000 0.000000 0.000000 0.020954 0.000000 0.000000
# 5 0.000000 0.000000 0.000000 0.000000 0.026410 0.000000
# 6 0.000000 0.000000 0.000000 0.000000 0.000000 0.031724
#
#
# Mechanical properties :
#
#
# Convention : Reuss Voigt Hill
#
# Bulk Modulus (GPa) = 31.41905 50.34048 40.87977
# Shear Modulus (GPa) = 33.37051 39.85517 36.61284
#
# Velocity S-wave (km/s) = 3.54493 3.87408 3.71316
# Velocity P-wave (km/s) = 5.34669 6.24247 5.81186
#
# Compressibility (1/GPa) = 0.03182782
#
# Stress axis : x y z
#
# Youngs Moduli (GPa) = 108.20137 34.02921 135.99873
#
# Poissons Ratio (x) = 0.02073 0.26308
# Poissons Ratio (y) = 0.06590 0.61654
# Poissons Ratio (z) = 0.20931 0.15427
#
# Static dielectric constant tensor:
#      x y z
#    x 2.198170 0.000000 0.000000 
#    y 0.000000 2.442140 0.000000 
#    z 0.000000 0.000000 2.031080 
# 
# From -- ./inp_files/2224.got.cif
#   From: 2010.05.17/outbox.cif.g08.bks.cpg/sg52_2_cif.got.tgz:2224.got - 2010.06.03 12:15:38.
