data_PCOD9411984
_publ_section_title
;
Structure prediction by ZEFSAII (Michael W. Deem and Ramdas Pophale) SiO2 
 PCOD9411984
Probable space group: P N N A
;
_chemical_formula_sum "Si O2"
_cell_formula_units_Z 36
_cell_length_a 22.928506
_cell_length_b 5.495823
_cell_length_c 13.311064
_cell_angle_alpha 90.000000
_cell_angle_beta 90.000000
_cell_angle_gamma 90.000000
_cell_volume 1677.340627
_symmetry_space_group_name_H-M "P N N A"
_symmetry_group_IT_number 52
_symmetry_cell_setting 'orthorhombic'
loop_
_space_group_symop_operation_xyz
x,y,z
1/2-x,-y,z
x,1/2-y,1/2-z
1/2-x,1/2+y,1/2-z
-x,-y,-z
1/2+x,y,-z
-x,1/2+y,1/2+z
1/2+x,1/2-y,1/2+z
loop_
_atom_site_type_symbol
_atom_site_label
_atom_site_fract_x
_atom_site_fract_y
_atom_site_fract_z
Si Si1 0.787318 0.253261 0.862806
Si Si2 0.250000 0.000000 0.810667
Si Si3 0.858419 0.365938 0.451469
Si Si4 0.452373 0.790410 0.983491
Si Si5 0.528748 0.605088 0.147890
O O1 0.750000 0.500000 0.868849
O O2 0.812672 0.250000 0.750000
O O3 0.750000 0.000000 0.875800
O O4 0.833355 0.268211 0.952157
O O5 0.236613 0.250000 0.750000
O O6 0.306044 0.071123 0.877082
O O7 0.887930 0.611091 0.492292
O O8 0.911756 0.225328 0.397663
O O9 0.458175 0.679155 0.871569
O O10 0.471613 0.622963 0.076152
O O11 0.500000 0.000000 0.000000
O O12 0.518151 0.750000 0.250000
#
# Coordination Sequence:
#
# PCOD9411984 Si02
#       5
#     8   4   8   8   8
#     4  10  23  44  67  96 135 184 232 287 348 416
#     4  12  30  44  68 110 146 196 240 286 362 438
#     4  11  24  41  69  95 144 180 238 289 358 431
#     4   9  22  43  63  96 128 180 230 295 361 415
#     4  10  22  42  69  97 138 181 238 297 368 438
#
# _framework density 21.462547000000001
#
# number of rings (size 3 to 8) (size 9 to 14) (size 15 to 20)
#    0.000    1.778    1.111    0.667   10.889    2.667 
#   12.000    0.000    0.000    0.000    0.000    0.000 
#    0.000    0.000    0.000    0.000    0.000    0.000 
#
# Total GULP energy -200505.159484 kJ/mol
# GULP energy per Si atom -5569.587763 kJ/mol
# Density = 2.141370 g / cm^3
# Si number density = 21.462547 Si / 1000 Ang^3
#
#
#
# Elastic Constant Matrix: (Units=GPa)
#
#
# Indices 1 2 3 4 5 6 
#
# 1 74.4221 17.0387 42.3420 0.0000 0.0000 0.0000
# 2 17.0387 97.5587 41.5911 0.0000 0.0000 0.0000
# 3 42.3420 41.5911 143.2621 0.0000 0.0000 0.0000
# 4 0.0000 0.0000 0.0000 37.0806 0.0000 0.0000
# 5 0.0000 0.0000 0.0000 0.0000 56.6882 0.0000
# 6 0.0000 0.0000 0.0000 0.0000 0.0000 33.0394
#
#
#
# Elastic Compliance Matrix: (Units=1/GPa)
#
#
# Indices 1 2 3 4 5 6 
#
# 1 0.016222 -0.000901 -0.004533 0.000000 0.000000 0.000000
# 2 -0.000901 0.011748 -0.003144 0.000000 0.000000 0.000000
# 3 -0.004533 -0.003144 0.009233 0.000000 0.000000 0.000000
# 4 0.000000 0.000000 0.000000 0.026968 0.000000 0.000000
# 5 0.000000 0.000000 0.000000 0.000000 0.017640 0.000000
# 6 0.000000 0.000000 0.000000 0.000000 0.000000 0.030267
#
#
# Mechanical properties :
#
#
# Convention : Reuss Voigt Hill
#
# Bulk Modulus (GPa) = 49.88352 57.46519 53.67436
# Shear Modulus (GPa) = 36.78710 39.64639 38.21674
#
# Velocity S-wave (km/s) = 4.14456 4.30261 4.22432
# Velocity P-wave (km/s) = 6.79674 7.17747 6.98970
#
# Compressibility (1/GPa) = 0.02004670
#
# Stress axis : x y z
#
# Youngs Moduli (GPa) = 61.64416 85.12036 108.30870
#
# Poissons Ratio (x) = 0.07667 0.49097
# Poissons Ratio (y) = 0.05552 0.34057
# Poissons Ratio (z) = 0.27944 0.26766
#
# Static dielectric constant tensor:
#      x y z
#    x 1.753960 0.000000 0.000000 
#    y 0.000000 2.002130 0.000000 
#    z 0.000000 0.000000 1.831280 
# 
# From -- ./inp_files/22065.got.cif
#   From: 2010.05.17/outbox.cif.g08.bks.cpg/sg52_12_cif.got.tgz:22065.got - 2010.06.03 12:15:38.
