data_PCOD9411523
_publ_section_title
;
Structure prediction by ZEFSAII (Michael W. Deem and Ramdas Pophale) SiO2 
 PCOD9411523
Probable space group: P N N A
;
_chemical_formula_sum "Si O2"
_cell_formula_units_Z 36
_cell_length_a 22.987405
_cell_length_b 12.849671
_cell_length_c 5.096018
_cell_angle_alpha 90.000000
_cell_angle_beta 90.000000
_cell_angle_gamma 90.000000
_cell_volume 1505.264811
_symmetry_space_group_name_H-M "P N N A"
_symmetry_group_IT_number 52
_symmetry_cell_setting 'orthorhombic'
loop_
_space_group_symop_operation_xyz
x,y,z
1/2-x,-y,z
x,1/2-y,1/2-z
1/2-x,1/2+y,1/2-z
-x,-y,-z
1/2+x,y,-z
-x,1/2+y,1/2+z
1/2+x,1/2-y,1/2+z
loop_
_atom_site_type_symbol
_atom_site_label
_atom_site_fract_x
_atom_site_fract_y
_atom_site_fract_z
Si Si1 0.250000 0.000000 0.300688
Si Si2 0.424635 0.375975 0.774599
Si Si3 0.829604 0.677477 0.009337
Si Si4 0.143186 0.875363 0.223395
Si Si5 0.460950 0.678047 0.997268
O O1 0.285869 0.916335 0.466875
O O2 0.202171 0.933047 0.144881
O O3 0.422991 0.250000 0.750000
O O4 0.406357 0.409287 0.484592
O O5 0.487690 0.396151 0.900496
O O6 0.377039 0.406978 0.987255
O O7 0.812174 0.750000 0.250000
O O8 0.828519 0.750000 0.750000
O O9 0.896116 0.639345 0.065676
O O10 0.150271 0.750000 0.250000
O O11 0.451659 0.750000 0.250000
O O12 0.480653 0.750000 0.750000
#
# Coordination Sequence:
#
# PCOD9411523 Si02
#       5
#     4   8   8   8   8
#     4  12  26  44  64  90 132 180 220 266 314 378
#     4   9  17  34  59  88 118 156 203 261 323 377
#     4  10  24  43  66  96 129 172 220 266 322 387
#     4  10  22  37  59  89 122 163 212 260 315 376
#     4   9  16  33  62  92 123 160 205 262 328 387
#
# _framework density 23.916060000000002
#
# number of rings (size 3 to 8) (size 9 to 14) (size 15 to 20)
#    0.000    2.222    0.000    4.000    0.000    8.000 
#    0.000    2.222    0.000    0.000    0.000    9.333 
#    0.000    0.000    0.000    0.000    0.000    0.000 
#
# Total GULP energy -201056.319186 kJ/mol
# GULP energy per Si atom -5584.897755 kJ/mol
# Density = 2.386163 g / cm^3
# Si number density = 23.916060 Si / 1000 Ang^3
#
#
#
# Elastic Constant Matrix: (Units=GPa)
#
#
# Indices 1 2 3 4 5 6 
#
# 1 146.1533 53.5520 27.3730 0.0000 0.0000 0.0000
# 2 53.5520 97.9275 35.6466 0.0000 0.0000 0.0000
# 3 27.3730 35.6466 136.5607 0.0000 0.0000 0.0000
# 4 0.0000 0.0000 0.0000 7.3819 0.0000 0.0000
# 5 0.0000 0.0000 0.0000 0.0000 -192.6800 0.0000
# 6 0.0000 0.0000 0.0000 0.0000 0.0000 -3.9868
#
#
#
# Elastic Compliance Matrix: (Units=1/GPa)
#
#
# Indices 1 2 3 4 5 6 
#
# 1 0.008594 -0.004500 -0.000548 0.000000 0.000000 0.000000
# 2 -0.004500 0.013640 -0.002659 0.000000 0.000000 0.000000
# 3 -0.000548 -0.002659 0.008127 0.000000 0.000000 0.000000
# 4 0.000000 0.000000 0.000000 0.135466 0.000000 0.000000
# 5 0.000000 0.000000 0.000000 0.000000 -0.005190 0.000000
# 6 0.000000 0.000000 0.000000 0.000000 0.000000 -0.250829
#
#
# Mechanical properties :
#
#
# Convention : Reuss Voigt Hill
#
# Bulk Modulus (GPa) = 66.90087 68.19831 67.54959
# Shear Modulus (GPa) = -71.63631 -20.25232 -45.94431
#
# Velocity S-wave (km/s) = -5.47889 -2.91315 -4.38775
# Velocity P-wave (km/s) = 3.46272 4.15479 1.62356
#
# Compressibility (1/GPa) = 0.01494749
#
# Stress axis : x y z
#
# Youngs Moduli (GPa) = 116.36576 73.31273 123.05371
#
# Poissons Ratio (x) = 0.32991 0.06742
# Poissons Ratio (y) = 0.52365 0.32714
# Poissons Ratio (z) = 0.06376 0.19490
#
# Static dielectric constant tensor:
#      x y z
#    x 1.973450 0.000000 0.000000 
#    y 0.000000 1.955740 0.000000 
#    z 0.000000 0.000000 2.059000 
# 
# From -- ./inp_files/4851.got.cif
#   From: 2010.05.17/outbox.cif.g08.bks.cpg/sg52_3_cif.got.tgz:4851.got - 2010.06.03 12:15:38.
