data_PCOD9411733
_publ_section_title
;
Structure prediction by ZEFSAII (Michael W. Deem and Ramdas Pophale) SiO2 
 PCOD9411733
Probable space group: P N N A
;
_chemical_formula_sum "Si O2"
_cell_formula_units_Z 40
_cell_length_a 28.821187
_cell_length_b 5.095602
_cell_length_c 13.204596
_cell_angle_alpha 90.000000
_cell_angle_beta 90.000000
_cell_angle_gamma 90.000000
_cell_volume 1939.244110
_symmetry_space_group_name_H-M "P N N A"
_symmetry_group_IT_number 52
_symmetry_cell_setting 'orthorhombic'
loop_
_space_group_symop_operation_xyz
x,y,z
1/2-x,-y,z
x,1/2-y,1/2-z
1/2-x,1/2+y,1/2-z
-x,-y,-z
1/2+x,y,-z
-x,1/2+y,1/2+z
1/2+x,1/2-y,1/2+z
loop_
_atom_site_type_symbol
_atom_site_label
_atom_site_fract_x
_atom_site_fract_y
_atom_site_fract_z
Si Si1 0.854253 0.750000 0.750000
Si Si2 0.823493 0.860866 0.965625
Si Si3 0.530126 0.750886 0.969400
Si Si4 0.174691 0.750000 0.750000
Si Si5 0.922573 0.250000 0.750000
Si Si6 0.250000 0.000000 0.894431
Si Si7 0.128904 0.626104 0.949804
O O1 0.822582 0.810238 0.846965
O O2 0.888709 0.501153 0.761064
O O3 0.776475 0.804669 0.028432
O O4 0.862610 0.659834 0.004349
O O5 0.838572 0.158609 0.992878
O O6 0.546417 0.764247 0.851800
O O7 0.500000 0.500000 0.000000
O O8 0.577537 0.728248 0.032718
O O9 0.500000 0.000000 0.000000
O O10 0.209232 0.581121 0.681305
O O11 0.143210 0.608417 0.832638
#
# Coordination Sequence:
#
# PCOD9411733 Si02
#       7
#     4   8   8   4   4   4   8
#     4  12  20  42  70  94 124 190 218 269 329 416
#     4  11  22  40  67  95 135 169 235 266 334 408
#     4  12  25  43  68 102 135 167 228 291 335 408
#     4  10  22  40  69  89 144 176 227 265 352 408
#     4  12  24  44  71  93 130 184 219 260 361 404
#     4  10  22  40  64 106 132 186 220 292 330 402
#     4  11  23  42  64  98 127 185 218 275 336 419
#
# _framework density 20.626594000000001
#
# number of rings (size 3 to 8) (size 9 to 14) (size 15 to 20)
#    0.000    0.800    4.000    3.600    0.000    6.400 
#    0.000    5.000    0.000    0.000    0.000    0.000 
#    0.000    0.000    0.000    0.000    0.000    0.000 
#
# Total GULP energy -223368.294004 kJ/mol
# GULP energy per Si atom -5584.207350 kJ/mol
# Density = 2.057965 g / cm^3
# Si number density = 20.626594 Si / 1000 Ang^3
#
#
#
# Elastic Constant Matrix: (Units=GPa)
#
#
# Indices 1 2 3 4 5 6 
#
# 1 106.6667 20.4924 64.9968 0.0000 0.0000 0.0000
# 2 20.4924 103.5532 25.5499 0.0000 0.0000 0.0000
# 3 64.9968 25.5499 198.3620 0.0000 0.0000 0.0000
# 4 0.0000 0.0000 0.0000 21.7863 0.0000 0.0000
# 5 0.0000 0.0000 0.0000 0.0000 37.9776 0.0000
# 6 0.0000 0.0000 0.0000 0.0000 0.0000 31.2428
#
#
#
# Elastic Compliance Matrix: (Units=1/GPa)
#
#
# Indices 1 2 3 4 5 6 
#
# 1 0.011918 -0.001441 -0.003720 0.000000 0.000000 0.000000
# 2 -0.001441 0.010148 -0.000835 0.000000 0.000000 0.000000
# 3 -0.003720 -0.000835 0.006368 0.000000 0.000000 0.000000
# 4 0.000000 0.000000 0.000000 0.045900 0.000000 0.000000
# 5 0.000000 0.000000 0.000000 0.000000 0.026331 0.000000
# 6 0.000000 0.000000 0.000000 0.000000 0.000000 0.032007
#
#
# Mechanical properties :
#
#
# Convention : Reuss Voigt Hill
#
# Bulk Modulus (GPa) = 60.81587 70.07336 65.44461
# Shear Modulus (GPa) = 33.30111 38.03753 35.66932
#
# Velocity S-wave (km/s) = 4.02241 4.29896 4.16298
# Velocity P-wave (km/s) = 7.14991 7.66078 7.40975
#
# Compressibility (1/GPa) = 0.01644308
#
# Stress axis : x y z
#
# Youngs Moduli (GPa) = 83.90412 98.54144 157.04351
#
# Poissons Ratio (x) = 0.14198 0.58415
# Poissons Ratio (y) = 0.12089 0.13113
# Poissons Ratio (z) = 0.31210 0.08228
#
# Static dielectric constant tensor:
#      x y z
#    x 1.749090 0.000000 0.000000 
#    y 0.000000 1.757190 0.000000 
#    z 0.000000 0.000000 1.801820 
# 
# From -- ./inp_files/22719.got.cif
#   From: 2010.05.17/outbox.cif.g08.bks.cpg/sg52_12_cif.got.tgz:22719.got - 2010.06.03 12:15:38.
