data_PCOD9411933
_publ_section_title
;
Structure prediction by ZEFSAII (Michael W. Deem and Ramdas Pophale) SiO2 
 PCOD9411933
Probable space group: P N N A
;
_chemical_formula_sum "Si O2"
_cell_formula_units_Z 32
_cell_length_a 4.843235
_cell_length_b 8.825231
_cell_length_c 31.079192
_cell_angle_alpha 90.000000
_cell_angle_beta 90.000000
_cell_angle_gamma 90.000000
_cell_volume 1328.407575
_symmetry_space_group_name_H-M "P N N A"
_symmetry_group_IT_number 52
_symmetry_cell_setting 'orthorhombic'
loop_
_space_group_symop_operation_xyz
x,y,z
1/2-x,-y,z
x,1/2-y,1/2-z
1/2-x,1/2+y,1/2-z
-x,-y,-z
1/2+x,y,-z
-x,1/2+y,1/2+z
1/2+x,1/2-y,1/2+z
loop_
_atom_site_type_symbol
_atom_site_label
_atom_site_fract_x
_atom_site_fract_y
_atom_site_fract_z
Si Si1 0.546603 0.734553 0.528469
Si Si2 0.750000 0.000000 0.088001
Si Si3 0.934174 0.225877 0.353388
Si Si4 0.250000 0.500000 0.920821
Si Si5 0.908793 0.336947 0.794991
O O1 0.865323 0.730964 0.515464
O O2 0.459232 0.592599 0.557469
O O3 0.436697 0.885776 0.551667
O O4 0.630148 0.874351 0.119698
O O5 0.946264 0.095200 0.389144
O O6 0.703393 0.172151 0.318824
O O7 0.211766 0.250781 0.327709
O O8 0.750000 0.500000 0.790052
O O9 0.928005 0.250000 0.750000
#
# Coordination Sequence:
#
# PCOD9411933 Si02
#       5
#     8   4   8   4   8
#     4  11  24  41  65  95 132 170 221 269 327 385
#     4  10  26  42  69  96 136 178 216 270 329 384
#     4  11  25  44  68  97 136 172 223 265 324 393
#     4  10  22  42  65  96 126 178 214 274 321 384
#     4  12  26  45  70  99 133 171 217 271 326 389
#
# _framework density 24.088992999999999
#
# number of rings (size 3 to 8) (size 9 to 14) (size 15 to 20)
#    0.000    1.000    2.500    2.250    3.500   12.000 
#    0.000    0.000    0.000    0.000    0.000    0.000 
#    0.000    0.000    0.000    0.000    0.000    0.000 
#
# Total GULP energy -179408.594851 kJ/mol
# GULP energy per Si atom -5606.518589 kJ/mol
# Density = 2.403417 g / cm^3
# Si number density = 24.088993 Si / 1000 Ang^3
#
#
#
# Elastic Constant Matrix: (Units=GPa)
#
#
# Indices 1 2 3 4 5 6 
#
# 1 77.4727 2.2337 -2.6681 0.0000 0.0000 0.0000
# 2 2.2337 140.1948 53.4984 0.0000 0.0000 0.0000
# 3 -2.6681 53.4984 101.4278 0.0000 0.0000 0.0000
# 4 0.0000 0.0000 0.0000 42.0804 0.0000 0.0000
# 5 0.0000 0.0000 0.0000 0.0000 13.5356 0.0000
# 6 0.0000 0.0000 0.0000 0.0000 0.0000 12.9724
#
#
#
# Elastic Compliance Matrix: (Units=1/GPa)
#
#
# Indices 1 2 3 4 5 6 
#
# 1 0.012939 -0.000421 0.000562 0.000000 0.000000 0.000000
# 2 -0.000421 0.008944 -0.004729 0.000000 0.000000 0.000000
# 3 0.000562 -0.004729 0.012368 0.000000 0.000000 0.000000
# 4 0.000000 0.000000 0.000000 0.023764 0.000000 0.000000
# 5 0.000000 0.000000 0.000000 0.000000 0.073879 0.000000
# 6 0.000000 0.000000 0.000000 0.000000 0.000000 0.077086
#
#
# Mechanical properties :
#
#
# Convention : Reuss Voigt Hill
#
# Bulk Modulus (GPa) = 39.87668 47.24705 43.56186
# Shear Modulus (GPa) = 22.07363 31.45311 26.76337
#
# Velocity S-wave (km/s) = 3.03039 3.61737 3.33681
# Velocity P-wave (km/s) = 5.36975 6.09125 5.74184
#
# Compressibility (1/GPa) = 0.02507731
#
# Stress axis : x y z
#
# Youngs Moduli (GPa) = 77.28414 111.80565 80.85277
#
# Poissons Ratio (x) = 0.04704 -0.04546
# Poissons Ratio (y) = 0.03252 0.38232
# Poissons Ratio (z) = -0.04346 0.52869
#
# Static dielectric constant tensor:
#      x y z
#    x 1.858460 0.000000 0.000000 
#    y 0.000000 1.937900 0.000000 
#    z 0.000000 0.000000 1.873480 
# 
# From -- ./inp_files/43475.got.cif
#   From: 2010.05.17/outbox.cif.g08.bks.cpg/sg52_22_cif.got.tgz:43475.got - 2010.06.03 12:15:38.
