data_PCOD9411276
_publ_section_title
;
Structure prediction by ZEFSAII (Michael W. Deem and Ramdas Pophale) SiO2 
 PCOD9411276
Probable space group: P N N A
;
_chemical_formula_sum "Si O2"
_cell_formula_units_Z 32
_cell_length_a 18.187443
_cell_length_b 13.396696
_cell_length_c 5.347454
_cell_angle_alpha 90.000000
_cell_angle_beta 90.000000
_cell_angle_gamma 90.000000
_cell_volume 1302.915963
_symmetry_space_group_name_H-M "P N N A"
_symmetry_group_IT_number 52
_symmetry_cell_setting 'orthorhombic'
loop_
_space_group_symop_operation_xyz
x,y,z
1/2-x,-y,z
x,1/2-y,1/2-z
1/2-x,1/2+y,1/2-z
-x,-y,-z
1/2+x,y,-z
-x,1/2+y,1/2+z
1/2+x,1/2-y,1/2+z
loop_
_atom_site_type_symbol
_atom_site_label
_atom_site_fract_x
_atom_site_fract_y
_atom_site_fract_z
Si Si1 0.320839 0.723324 0.994469
Si Si2 0.082435 0.954541 0.198616
Si Si3 0.025668 0.163667 0.079588
Si Si4 0.336801 0.999348 0.670460
O O1 0.280993 0.750000 0.250000
O O2 0.393650 0.793760 0.007769
O O3 0.275276 0.750000 0.750000
O O4 0.346908 0.611525 0.948584
O O5 0.125986 0.973997 0.935614
O O6 0.024434 0.866903 0.151708
O O7 0.132889 0.935867 0.438960
O O8 0.036736 0.058472 0.224054
O O9 0.992250 0.250000 0.250000
O O10 0.250000 0.000000 0.710075
#
# Coordination Sequence:
#
# PCOD9411276 Si02
#       4
#     8   8   8   8
#     4  11  20  39  64  94 121 174 220 262 334 400
#     4  11  24  40  68 102 129 171 225 277 335 398
#     4  10  21  41  69 100 131 166 220 281 343 400
#     4  12  24  44  65  96 135 182 226 266 328 413
#
# _framework density 24.560293999999999
#
# number of rings (size 3 to 8) (size 9 to 14) (size 15 to 20)
#    0.000    1.000    7.500    0.750    0.000    8.000 
#    0.000    3.750    0.000    0.000    0.000    0.000 
#    0.000    0.000    0.000    0.000    0.000    0.000 
#
# Total GULP energy -178751.175756 kJ/mol
# GULP energy per Si atom -5585.974242 kJ/mol
# Density = 2.450439 g / cm^3
# Si number density = 24.560294 Si / 1000 Ang^3
#
#
#
# Elastic Constant Matrix: (Units=GPa)
#
#
# Indices 1 2 3 4 5 6 
#
# 1 76.0356 13.1225 23.3442 0.0000 0.0000 0.0000
# 2 13.1225 89.3986 11.2466 0.0000 0.0000 0.0000
# 3 23.3442 11.2466 184.3579 0.0000 0.0000 0.0000
# 4 0.0000 0.0000 0.0000 31.1806 0.0000 0.0000
# 5 0.0000 0.0000 0.0000 0.0000 21.8023 0.0000
# 6 0.0000 0.0000 0.0000 0.0000 0.0000 11.9841
#
#
#
# Elastic Compliance Matrix: (Units=1/GPa)
#
#
# Indices 1 2 3 4 5 6 
#
# 1 0.013979 -0.001843 -0.001658 0.000000 0.000000 0.000000
# 2 -0.001843 0.011515 -0.000469 0.000000 0.000000 0.000000
# 3 -0.001658 -0.000469 0.005663 0.000000 0.000000 0.000000
# 4 0.000000 0.000000 0.000000 0.032071 0.000000 0.000000
# 5 0.000000 0.000000 0.000000 0.000000 0.045867 0.000000
# 6 0.000000 0.000000 0.000000 0.000000 0.000000 0.083444
#
#
# Mechanical properties :
#
#
# Convention : Reuss Voigt Hill
#
# Bulk Modulus (GPa) = 43.07210 49.46876 46.27043
# Shear Modulus (GPa) = 24.01328 33.13198 28.57263
#
# Velocity S-wave (km/s) = 3.13026 3.67687 3.41452
# Velocity P-wave (km/s) = 5.53534 6.18153 5.86734
#
# Compressibility (1/GPa) = 0.02321688
#
# Stress axis : x y z
#
# Youngs Moduli (GPa) = 71.53703 86.83984 176.59295
#
# Poissons Ratio (x) = 0.16008 0.29272
# Poissons Ratio (y) = 0.13187 0.08284
# Poissons Ratio (z) = 0.11858 0.04073
#
# Static dielectric constant tensor:
#      x y z
#    x 1.930040 0.000000 0.000000 
#    y 0.000000 2.071100 0.000000 
#    z 0.000000 0.000000 2.145040 
# 
# From -- ./inp_files/3873.got.cif
#   From: 2010.05.17/outbox.cif.g08.bks.cpg/sg52_2_cif.got.tgz:3873.got - 2010.06.03 12:15:38.
