data_PCOD9411056
_publ_section_title
;
Structure prediction by ZEFSAII (Michael W. Deem and Ramdas Pophale) SiO2 
 PCOD9411056
Probable space group: P N N A
;
_chemical_formula_sum "Si O2"
_cell_formula_units_Z 32
_cell_length_a 9.293447
_cell_length_b 5.570174
_cell_length_c 30.556337
_cell_angle_alpha 90.000000
_cell_angle_beta 90.000000
_cell_angle_gamma 90.000000
_cell_volume 1581.782912
_symmetry_space_group_name_H-M "P N N A"
_symmetry_group_IT_number 52
_symmetry_cell_setting 'orthorhombic'
loop_
_space_group_symop_operation_xyz
x,y,z
1/2-x,-y,z
x,1/2-y,1/2-z
1/2-x,1/2+y,1/2-z
-x,-y,-z
1/2+x,y,-z
-x,1/2+y,1/2+z
1/2+x,1/2-y,1/2+z
loop_
_atom_site_type_symbol
_atom_site_label
_atom_site_fract_x
_atom_site_fract_y
_atom_site_fract_z
Si Si1 0.160736 0.748561 0.800969
Si Si2 0.993946 0.289996 0.113014
Si Si3 0.750000 0.000000 0.063592
Si Si4 0.750000 0.000000 0.931052
Si Si5 0.994498 0.324102 0.959178
O O1 0.250000 0.500000 0.807840
O O2 0.117172 0.750000 0.750000
O O3 0.031150 0.724097 0.835413
O O4 0.250000 0.000000 0.808307
O O5 0.134292 0.145304 0.097685
O O6 0.001882 0.543287 0.087928
O O7 0.850219 0.170198 0.092950
O O8 0.866645 0.843494 0.038221
O O9 0.652952 0.821350 0.959184
O O10 0.000000 0.500000 0.000000
#
# Coordination Sequence:
#
# PCOD9411056 Si02
#       5
#     8   8   4   4   8
#     4  10  21  39  69 105 136 171 227 286 339 404
#     4  11  22  40  66  94 130 173 216 274 340 396
#     4  10  22  39  66  92 124 166 222 270 319 402
#     4  10  26  43  62  90 134 170 218 280 333 406
#     4  11  25  43  64  92 129 175 225 273 336 402
#
# _framework density 20.230336000000001
#
# number of rings (size 3 to 8) (size 9 to 14) (size 15 to 20)
#    0.000    1.500    1.250    3.000    3.500   10.000 
#    0.000    3.750    5.500    0.000    0.000    0.000 
#    0.000    0.000    0.000    0.000    0.000    0.000 
#
# Total GULP energy -178919.593209 kJ/mol
# GULP energy per Si atom -5591.237288 kJ/mol
# Density = 2.018429 g / cm^3
# Si number density = 20.230336 Si / 1000 Ang^3
#
#
#
# Elastic Constant Matrix: (Units=GPa)
#
#
# Indices 1 2 3 4 5 6 
#
# 1 123.0695 40.5949 55.2942 0.0000 0.0000 0.0000
# 2 40.5949 108.4036 54.0963 0.0000 0.0000 0.0000
# 3 55.2942 54.0963 131.8910 0.0000 0.0000 0.0000
# 4 0.0000 0.0000 0.0000 -7.6528 0.0000 0.0000
# 5 0.0000 0.0000 0.0000 0.0000 -4.2231 0.0000
# 6 0.0000 0.0000 0.0000 0.0000 0.0000 -42.4174
#
#
#
# Elastic Compliance Matrix: (Units=1/GPa)
#
#
# Indices 1 2 3 4 5 6 
#
# 1 0.010399 -0.002161 -0.003473 0.000000 0.000000 0.000000
# 2 -0.002161 0.012048 -0.004036 0.000000 0.000000 0.000000
# 3 -0.003473 -0.004036 0.010693 0.000000 0.000000 0.000000
# 4 0.000000 0.000000 0.000000 -0.130671 0.000000 0.000000
# 5 0.000000 0.000000 0.000000 0.000000 -0.236794 0.000000
# 6 0.000000 0.000000 0.000000 0.000000 0.000000 -0.023575
#
#
# Mechanical properties :
#
#
# Convention : Reuss Voigt Hill
#
# Bulk Modulus (GPa) = 72.46114 73.70388 73.08251
# Shear Modulus (GPa) = -14.97181 3.36659 -5.80261
#
# Velocity S-wave (km/s) = -2.72337 1.29141 -1.69543
# Velocity P-wave (km/s) = 5.09969 6.22375 5.68955
#
# Compressibility (1/GPa) = 0.01380050
#
# Stress axis : x y z
#
# Youngs Moduli (GPa) = 96.16509 83.00220 93.51536
#
# Poissons Ratio (x) = 0.17936 0.32481
# Poissons Ratio (y) = 0.20780 0.37739
# Poissons Ratio (z) = 0.33401 0.33497
#
# Static dielectric constant tensor:
#      x y z
#    x 1.659690 0.000000 0.000000 
#    y 0.000000 1.781860 0.000000 
#    z 0.000000 0.000000 1.731840 
# 
# From -- ./inp_files/44037.got.cif
#   From: 2010.05.17/outbox.cif.g08.bks.cpg/sg52_23_cif.got.tgz:44037.got - 2010.06.03 12:15:38.
