data_PCOD9411212
_publ_section_title
;
Structure prediction by ZEFSAII (Michael W. Deem and Ramdas Pophale) SiO2 
 PCOD9411212
Probable space group: P N N A
;
_chemical_formula_sum "Si O2"
_cell_formula_units_Z 48
_cell_length_a 23.878363
_cell_length_b 16.268188
_cell_length_c 5.947588
_cell_angle_alpha 90.000000
_cell_angle_beta 90.000000
_cell_angle_gamma 90.000000
_cell_volume 2310.386346
_symmetry_space_group_name_H-M "P N N A"
_symmetry_group_IT_number 52
_symmetry_cell_setting 'orthorhombic'
loop_
_space_group_symop_operation_xyz
x,y,z
1/2-x,-y,z
x,1/2-y,1/2-z
1/2-x,1/2+y,1/2-z
-x,-y,-z
1/2+x,y,-z
-x,1/2+y,1/2+z
1/2+x,1/2-y,1/2+z
loop_
_atom_site_type_symbol
_atom_site_label
_atom_site_fract_x
_atom_site_fract_y
_atom_site_fract_z
Si Si1 0.766912 0.210103 0.997632
Si Si2 0.117494 0.469982 0.007110
Si Si3 0.841358 0.880041 0.892560
Si Si4 0.545013 0.939561 0.883943
Si Si5 0.839912 0.055463 0.119635
Si Si6 0.057999 0.157887 0.824946
O O1 0.783252 0.250000 0.750000
O O2 0.701365 0.188895 0.967508
O O3 0.775147 0.250000 0.250000
O O4 0.799421 0.123965 0.025482
O O5 0.155078 0.538464 0.884224
O O6 0.082645 0.412373 0.839200
O O7 0.158315 0.407100 0.135456
O O8 0.074076 0.516053 0.171660
O O9 0.905193 0.856062 0.951413
O O10 0.827167 0.965385 0.019149
O O11 0.507804 0.859899 0.837708
O O12 0.596911 0.922455 0.045961
O O13 0.500000 0.000000 0.000000
O O14 0.068798 0.250000 0.750000
#
# Coordination Sequence:
#
# PCOD9411212 Si02
#       6
#     8   8   8   8   8   8
#     4  12  30  49  72 105 148 185 235 306 366 421
#     4  10  21  40  75  91 138 184 236 283 346 430
#     4  10  23  44  70  99 135 183 238 291 351 431
#     4  11  20  42  64 100 135 187 229 285 343 429
#     4  10  24  45  71  99 135 192 244 281 351 433
#     4  11  23  37  63 104 139 173 232 292 359 405
#
# _framework density 20.775746000000002
#
# number of rings (size 3 to 8) (size 9 to 14) (size 15 to 20)
#    0.000    1.333    5.000    1.500   11.667    0.667 
#    0.000    0.000    0.000    0.000    0.000    0.000 
#    0.000    0.000    0.000    0.000    0.000    0.000 
#
# Total GULP energy -267526.961252 kJ/mol
# GULP energy per Si atom -5573.478359 kJ/mol
# Density = 2.072846 g / cm^3
# Si number density = 20.775746 Si / 1000 Ang^3
#
#
#
# Elastic Constant Matrix: (Units=GPa)
#
#
# Indices 1 2 3 4 5 6 
#
# 1 39.7872 8.3953 3.6921 0.0000 0.0000 0.0000
# 2 8.3953 81.6088 24.1936 0.0000 0.0000 0.0000
# 3 3.6921 24.1936 87.3363 0.0000 0.0000 0.0000
# 4 0.0000 0.0000 0.0000 24.6365 0.0000 0.0000
# 5 0.0000 0.0000 0.0000 0.0000 11.5442 0.0000
# 6 0.0000 0.0000 0.0000 0.0000 0.0000 21.6743
#
#
#
# Elastic Compliance Matrix: (Units=1/GPa)
#
#
# Indices 1 2 3 4 5 6 
#
# 1 0.025703 -0.002530 -0.000386 0.000000 0.000000 0.000000
# 2 -0.002530 0.013599 -0.003660 0.000000 0.000000 0.000000
# 3 -0.000386 -0.003660 0.012480 0.000000 0.000000 0.000000
# 4 0.000000 0.000000 0.000000 0.040590 0.000000 0.000000
# 5 0.000000 0.000000 0.000000 0.000000 0.086623 0.000000
# 6 0.000000 0.000000 0.000000 0.000000 0.000000 0.046138
#
#
# Mechanical properties :
#
#
# Convention : Reuss Voigt Hill
#
# Bulk Modulus (GPa) = 25.88601 31.25494 28.57047
# Shear Modulus (GPa) = 19.90746 23.06775 21.48760
#
# Velocity S-wave (km/s) = 3.09885 3.33576 3.21949
# Velocity P-wave (km/s) = 5.02898 5.46928 5.25374
#
# Compressibility (1/GPa) = 0.03863090
#
# Stress axis : x y z
#
# Youngs Moduli (GPa) = 38.90547 73.53521 80.12674
#
# Poissons Ratio (x) = 0.18603 0.03091
# Poissons Ratio (y) = 0.09842 0.29328
# Poissons Ratio (z) = 0.01501 0.26915
#
# Static dielectric constant tensor:
#      x y z
#    x 1.739080 0.000000 0.000000 
#    y 0.000000 1.758870 0.000000 
#    z 0.000000 0.000000 1.880200 
# 
# From -- ./inp_files/5111.got.cif
#   From: 2010.05.17/outbox.cif.g08.bks.cpg/sg52_3_cif.got.tgz:5111.got - 2010.06.03 12:15:38.
