data_PCOD9411685
_publ_section_title
;
Structure prediction by ZEFSAII (Michael W. Deem and Ramdas Pophale) SiO2 
 PCOD9411685
Probable space group: P N N A
;
_chemical_formula_sum "Si O2"
_cell_formula_units_Z 64
_cell_length_a 13.545054
_cell_length_b 12.854291
_cell_length_c 15.381204
_cell_angle_alpha 90.000000
_cell_angle_beta 90.000000
_cell_angle_gamma 90.000000
_cell_volume 2678.053202
_symmetry_space_group_name_H-M "P N N A"
_symmetry_group_IT_number 52
_symmetry_cell_setting 'orthorhombic'
loop_
_space_group_symop_operation_xyz
x,y,z
1/2-x,-y,z
x,1/2-y,1/2-z
1/2-x,1/2+y,1/2-z
-x,-y,-z
1/2+x,y,-z
-x,1/2+y,1/2+z
1/2+x,1/2-y,1/2+z
loop_
_atom_site_type_symbol
_atom_site_label
_atom_site_fract_x
_atom_site_fract_y
_atom_site_fract_z
Si Si1 0.935383 0.517568 0.152614
Si Si2 0.145090 0.907679 0.924643
Si Si3 0.442880 0.725782 0.931806
Si Si4 0.441646 0.288313 0.842229
Si Si5 0.134622 0.499104 0.261275
Si Si6 0.635667 0.292070 0.618345
Si Si7 0.852835 0.898155 0.170031
Si Si8 0.148379 0.679288 0.393630
O O1 0.927342 0.602610 0.077008
O O2 0.903075 0.400146 0.130421
O O3 0.871531 0.559888 0.234074
O O4 0.046951 0.504994 0.190546
O O5 0.080587 0.807925 0.903853
O O6 0.240816 0.895857 0.863650
O O7 0.097012 0.015622 0.894674
O O8 0.171619 0.898251 0.025144
O O9 0.395744 0.785958 0.850197
O O10 0.558784 0.747883 0.920850
O O11 0.392856 0.779253 0.016123
O O12 0.401962 0.250000 0.750000
O O13 0.560271 0.288257 0.838267
O O14 0.250000 0.500000 0.231762
O O15 0.123572 0.402881 0.331177
O O16 0.120024 0.606087 0.314420
O O17 0.749970 0.263106 0.626822
#
# Coordination Sequence:
#
# PCOD9411685 Si02
#       8
#     8   8   8   8   8   8   8   8
#     4  12  26  45  64 102 135 189 223 282 340 411
#     4  11  23  42  71 101 131 175 221 283 339 407
#     4  12  25  42  70  97 140 171 225 282 343 410
#     4  12  24  45  69  93 137 184 236 270 338 415
#     4  10  22  39  70 104 137 169 227 286 348 398
#     4  11  23  44  68  99 132 183 225 284 333 409
#     4  11  23  42  67 102 137 165 217 282 350 397
#     4  11  23  40  68 106 133 169 225 283 347 400
#
# _framework density 23.897956000000001
#
# number of rings (size 3 to 8) (size 9 to 14) (size 15 to 20)
#    0.000    0.750    6.250    1.125    3.500    3.500 
#    0.000    0.000    0.000    0.000    0.000    0.000 
#    0.000    0.000    0.000    0.000    0.000    0.000 
#
# Total GULP energy -357669.808001 kJ/mol
# GULP energy per Si atom -5588.590750 kJ/mol
# Density = 2.384356 g / cm^3
# Si number density = 23.897956 Si / 1000 Ang^3
#
#
#
# Elastic Constant Matrix: (Units=GPa)
#
#
# Indices 1 2 3 4 5 6 
#
# 1 68.5390 12.2696 -9.6440 0.0000 0.0000 0.0000
# 2 12.2696 135.5960 4.8236 0.0000 0.0000 0.0000
# 3 -9.6440 4.8236 40.2351 0.0000 0.0000 0.0000
# 4 0.0000 0.0000 0.0000 24.8970 0.0000 0.0000
# 5 0.0000 0.0000 0.0000 0.0000 21.9199 0.0000
# 6 0.0000 0.0000 0.0000 0.0000 0.0000 3.0668
#
#
#
# Elastic Compliance Matrix: (Units=1/GPa)
#
#
# Indices 1 2 3 4 5 6 
#
# 1 0.015410 -0.001532 0.003877 0.000000 0.000000 0.000000
# 2 -0.001532 0.007559 -0.001273 0.000000 0.000000 0.000000
# 3 0.003877 -0.001273 0.025936 0.000000 0.000000 0.000000
# 4 0.000000 0.000000 0.000000 0.040165 0.000000 0.000000
# 5 0.000000 0.000000 0.000000 0.000000 0.045621 0.000000
# 6 0.000000 0.000000 0.000000 0.000000 0.000000 0.326069
#
#
# Mechanical properties :
#
#
# Convention : Reuss Voigt Hill
#
# Bulk Modulus (GPa) = 19.58940 28.80761 24.19851
# Shear Modulus (GPa) = 10.51230 25.77149 18.14189
#
# Velocity S-wave (km/s) = 2.09961 3.28746 2.75824
# Velocity P-wave (km/s) = 3.75403 5.14689 4.50462
#
# Compressibility (1/GPa) = 0.05104802
#
# Stress axis : x y z
#
# Youngs Moduli (GPa) = 64.89243 132.29606 38.55652
#
# Poissons Ratio (x) = 0.20272 -0.14950
# Poissons Ratio (y) = 0.09944 0.04910
# Poissons Ratio (z) = -0.25161 0.16848
#
# Static dielectric constant tensor:
#      x y z
#    x 1.964290 0.000000 0.000000 
#    y 0.000000 1.926600 0.000000 
#    z 0.000000 0.000000 2.040500 
# 
# From -- ./inp_files/33287.got.cif
#   From: 2010.05.17/outbox.cif.g08.bks.cpg/sg52_17_cif.got.tgz:33287.got - 2010.06.03 12:15:38.
