data_PCOD9411251
_publ_section_title
;
Structure prediction by ZEFSAII (Michael W. Deem and Ramdas Pophale) SiO2 
 PCOD9411251
Probable space group: P N N A
;
_chemical_formula_sum "Si O2"
_cell_formula_units_Z 40
_cell_length_a 19.622022
_cell_length_b 10.609144
_cell_length_c 9.783211
_cell_angle_alpha 90.000000
_cell_angle_beta 90.000000
_cell_angle_gamma 90.000000
_cell_volume 2036.598984
_symmetry_space_group_name_H-M "P N N A"
_symmetry_group_IT_number 52
_symmetry_cell_setting 'orthorhombic'
loop_
_space_group_symop_operation_xyz
x,y,z
1/2-x,-y,z
x,1/2-y,1/2-z
1/2-x,1/2+y,1/2-z
-x,-y,-z
1/2+x,y,-z
-x,1/2+y,1/2+z
1/2+x,1/2-y,1/2+z
loop_
_atom_site_type_symbol
_atom_site_label
_atom_site_fract_x
_atom_site_fract_y
_atom_site_fract_z
Si Si1 0.037883 0.892123 0.411264
Si Si2 0.012951 0.117396 0.899469
Si Si3 0.160167 0.237062 0.897146
Si Si4 0.169287 0.031116 0.430812
Si Si5 0.279973 0.862200 0.172935
O O1 0.016561 0.906593 0.252100
O O2 0.019157 0.749362 0.452553
O O3 0.881314 0.085050 0.575706
O O4 0.000000 0.000000 0.500000
O O5 0.092667 0.152724 0.883597
O O6 0.000000 0.000000 0.000000
O O7 0.194511 0.250000 0.750000
O O8 0.144808 0.378131 0.948386
O O9 0.202396 0.181900 0.022514
O O10 0.162071 0.110240 0.288349
O O11 0.250000 0.000000 0.446638
O O12 0.239118 0.750000 0.250000
O O13 0.250000 0.000000 0.159240
#
# Coordination Sequence:
#
# PCOD9411251 Si02
#       5
#     8   8   8   8   8
#     4  11  21  42  67  89 126 169 209 264 316 374
#     4  11  23  39  62  96 125 162 210 259 313 379
#     4  11  20  40  62  90 129 167 206 261 318 375
#     4  10  21  41  66  91 125 167 216 261 318 377
#     4   9  20  38  61  92 123 164 211 260 313 375
#
# _framework density 19.640588000000001
#
# number of rings (size 3 to 8) (size 9 to 14) (size 15 to 20)
#    0.000    1.600    4.000    1.200    0.000    1.600 
#   39.600    0.000    0.000    0.000    0.000    0.000 
#    0.000    0.000    0.000    0.000    0.000    0.000 
#
# Total GULP energy -222806.966845 kJ/mol
# GULP energy per Si atom -5570.174171 kJ/mol
# Density = 1.959589 g / cm^3
# Si number density = 19.640588 Si / 1000 Ang^3
#
#
#
# Elastic Constant Matrix: (Units=GPa)
#
#
# Indices 1 2 3 4 5 6 
#
# 1 78.9699 41.1084 31.6788 0.0000 0.0000 0.0000
# 2 41.1084 159.4770 68.3119 0.0000 0.0000 0.0000
# 3 31.6788 68.3119 141.0981 0.0000 0.0000 0.0000
# 4 0.0000 0.0000 0.0000 36.8640 0.0000 0.0000
# 5 0.0000 0.0000 0.0000 0.0000 16.1493 0.0000
# 6 0.0000 0.0000 0.0000 0.0000 0.0000 27.4365
#
#
#
# Elastic Compliance Matrix: (Units=1/GPa)
#
#
# Indices 1 2 3 4 5 6 
#
# 1 0.015014 -0.003061 -0.001889 0.000000 0.000000 0.000000
# 2 -0.003061 0.008535 -0.003445 0.000000 0.000000 0.000000
# 3 -0.001889 -0.003445 0.009179 0.000000 0.000000 0.000000
# 4 0.000000 0.000000 0.000000 0.027127 0.000000 0.000000
# 5 0.000000 0.000000 0.000000 0.000000 0.061922 0.000000
# 6 0.000000 0.000000 0.000000 0.000000 0.000000 0.036448
#
#
# Mechanical properties :
#
#
# Convention : Reuss Voigt Hill
#
# Bulk Modulus (GPa) = 62.74057 73.52702 68.13379
# Shear Modulus (GPa) = 27.72716 31.98635 29.85675
#
# Velocity S-wave (km/s) = 3.76137 4.03995 3.90315
# Velocity P-wave (km/s) = 7.13285 7.69929 7.42148
#
# Compressibility (1/GPa) = 0.01593865
#
# Stress axis : x y z
#
# Youngs Moduli (GPa) = 66.60325 117.16145 108.94140
#
# Poissons Ratio (x) = 0.35864 0.20578
# Poissons Ratio (y) = 0.20388 0.37531
# Poissons Ratio (z) = 0.12581 0.40362
#
# Static dielectric constant tensor:
#      x y z
#    x 1.732870 0.000000 0.000000 
#    y 0.000000 1.765930 0.000000 
#    z 0.000000 0.000000 1.699600 
# 
# From -- ./inp_files/13144.got.cif
#   From: 2010.05.17/outbox.cif.g08.bks.cpg/sg52_7_cif.got.tgz:13144.got - 2010.06.03 12:15:38.
