data_PCOD9411669
_publ_section_title
;
Structure prediction by ZEFSAII (Michael W. Deem and Ramdas Pophale) SiO2 
 PCOD9411669
Probable space group: P N N A
;
_chemical_formula_sum "Si O2"
_cell_formula_units_Z 40
_cell_length_a 8.654074
_cell_length_b 12.383323
_cell_length_c 17.930501
_cell_angle_alpha 90.000000
_cell_angle_beta 90.000000
_cell_angle_gamma 90.000000
_cell_volume 1921.543542
_symmetry_space_group_name_H-M "P N N A"
_symmetry_group_IT_number 52
_symmetry_cell_setting 'orthorhombic'
loop_
_space_group_symop_operation_xyz
x,y,z
1/2-x,-y,z
x,1/2-y,1/2-z
1/2-x,1/2+y,1/2-z
-x,-y,-z
1/2+x,y,-z
-x,1/2+y,1/2+z
1/2+x,1/2-y,1/2+z
loop_
_atom_site_type_symbol
_atom_site_label
_atom_site_fract_x
_atom_site_fract_y
_atom_site_fract_z
Si Si1 0.116460 0.132174 0.067967
Si Si2 0.750000 0.500000 0.800968
Si Si3 0.750000 0.500000 0.042321
Si Si4 0.114187 0.066501 0.903022
Si Si5 0.449883 0.624968 0.080721
Si Si6 0.118314 0.654756 0.307765
O O1 0.029602 0.246702 0.073477
O O2 0.252116 0.144264 0.128317
O O3 0.169267 0.113739 0.982466
O O4 0.016386 0.025500 0.084121
O O5 0.660924 0.412979 0.851667
O O6 0.874730 0.448335 0.745897
O O7 0.616320 0.566611 0.084453
O O8 0.648494 0.419141 0.990312
O O9 0.041353 0.158523 0.852169
O O10 0.250000 0.000000 0.865589
O O11 0.145050 0.750000 0.250000
#
# Coordination Sequence:
#
# PCOD9411669 Si02
#       6
#     8   4   4   8   8   8
#     4  11  22  41  71  98 133 178 225 276 339 404
#     4  11  22  44  62  94 133 182 226 276 339 418
#     4   9  22  40  60  98 135 172 230 278 333 416
#     4  11  25  42  65 102 135 168 223 286 334 405
#     4  10  22  39  66  95 136 178 224 282 342 402
#     4  12  24  45  72  97 134 184 226 274 350 418
#
# _framework density 20.816597999999999
#
# number of rings (size 3 to 8) (size 9 to 14) (size 15 to 20)
#    0.000    1.200    4.000    2.400    5.600    1.600 
#    1.800    1.000    0.000    0.000    0.000    0.000 
#    0.000    0.000    0.000    0.000    0.000    0.000 
#
# Total GULP energy -223195.617331 kJ/mol
# GULP energy per Si atom -5579.890433 kJ/mol
# Density = 2.076922 g / cm^3
# Si number density = 20.816598 Si / 1000 Ang^3
#
#
#
# Elastic Constant Matrix: (Units=GPa)
#
#
# Indices 1 2 3 4 5 6 
#
# 1 92.0808 12.4504 37.7347 0.0000 0.0000 0.0000
# 2 12.4504 88.7164 36.0550 0.0000 0.0000 0.0000
# 3 37.7347 36.0550 104.8573 0.0000 0.0000 0.0000
# 4 0.0000 0.0000 0.0000 29.1481 0.0000 0.0000
# 5 0.0000 0.0000 0.0000 0.0000 -33.3548 0.0000
# 6 0.0000 0.0000 0.0000 0.0000 0.0000 28.0048
#
#
#
# Elastic Compliance Matrix: (Units=1/GPa)
#
#
# Indices 1 2 3 4 5 6 
#
# 1 0.012739 0.000088 -0.004615 0.000000 0.000000 0.000000
# 2 0.000088 0.013104 -0.004537 0.000000 0.000000 0.000000
# 3 -0.004615 -0.004537 0.012757 0.000000 0.000000 0.000000
# 4 0.000000 0.000000 0.000000 0.034308 0.000000 0.000000
# 5 0.000000 0.000000 0.000000 0.000000 -0.029981 0.000000
# 6 0.000000 0.000000 0.000000 0.000000 0.000000 0.035708
#
#
# Mechanical properties :
#
#
# Convention : Reuss Voigt Hill
#
# Bulk Modulus (GPa) = 48.84720 50.90386 49.87553
# Shear Modulus (GPa) = 48.26835 18.05390 33.16113
#
# Velocity S-wave (km/s) = 4.82056 2.94816 3.99559
# Velocity P-wave (km/s) = 7.38242 6.00795 6.73036
#
# Compressibility (1/GPa) = 0.02047200
#
# Stress axis : x y z
#
# Youngs Moduli (GPa) = 78.49773 76.31543 78.38537
#
# Poissons Ratio (x) = -0.00668 0.36171
# Poissons Ratio (y) = -0.00687 0.35564
# Poissons Ratio (z) = 0.36223 0.34625
#
# Static dielectric constant tensor:
#      x y z
#    x 1.778560 0.000000 0.000000 
#    y 0.000000 1.781610 0.000000 
#    z 0.000000 0.000000 1.740060 
# 
# From -- ./inp_files/30934.got.cif
#   From: 2010.05.17/outbox.cif.g08.bks.cpg/sg52_16_cif.got.tgz:30934.got - 2010.06.03 12:15:38.
