data_PCOD9411364
_publ_section_title
;
Structure prediction by ZEFSAII (Michael W. Deem and Ramdas Pophale) SiO2 
 PCOD9411364
Probable space group: P N N A
;
_chemical_formula_sum "Si O2"
_cell_formula_units_Z 48
_cell_length_a 18.520340
_cell_length_b 9.271923
_cell_length_c 12.759748
_cell_angle_alpha 90.000000
_cell_angle_beta 90.000000
_cell_angle_gamma 90.000000
_cell_volume 2191.093290
_symmetry_space_group_name_H-M "P N N A"
_symmetry_group_IT_number 52
_symmetry_cell_setting 'orthorhombic'
loop_
_space_group_symop_operation_xyz
x,y,z
1/2-x,-y,z
x,1/2-y,1/2-z
1/2-x,1/2+y,1/2-z
-x,-y,-z
1/2+x,y,-z
-x,1/2+y,1/2+z
1/2+x,1/2-y,1/2+z
loop_
_atom_site_type_symbol
_atom_site_label
_atom_site_fract_x
_atom_site_fract_y
_atom_site_fract_z
Si Si1 0.028083 0.161054 0.489073
Si Si2 0.515274 0.431941 0.384103
Si Si3 0.787245 0.366200 0.526902
Si Si4 0.128167 0.921841 0.228024
Si Si5 0.309895 0.894050 0.420650
Si Si6 0.598183 0.807927 0.138368
O O1 0.017822 0.262742 0.590846
O O2 0.113319 0.147466 0.470057
O O3 0.977591 0.234206 0.398997
O O4 0.000000 0.000000 0.500000
O O5 0.500000 0.500000 0.500000
O O6 0.454141 0.462011 0.298103
O O7 0.585307 0.520265 0.351807
O O8 0.750000 0.500000 0.468351
O O9 0.832361 0.442061 0.618163
O O10 0.733488 0.255357 0.583270
O O11 0.843241 0.284075 0.452156
O O12 0.132044 0.750000 0.250000
O O13 0.165701 0.018585 0.316263
O O14 0.250000 0.000000 0.472914
O O15 0.620565 0.750000 0.250000
#
# Coordination Sequence:
#
# PCOD9411364 Si02
#       6
#     8   8   8   8   8   8
#     4  11  22  43  71 101 143 188 234 301 360 424
#     4  10  21  42  69  99 137 186 238 296 345 420
#     4  12  26  45  67 104 151 183 235 306 365 443
#     4  12  23  42  67 106 148 178 231 288 363 440
#     4  12  25  41  66 109 144 185 230 290 377 434
#     4  11  24  48  72  97 134 197 254 295 354 437
#
# _framework density 21.906872
#
# number of rings (size 3 to 8) (size 9 to 14) (size 15 to 20)
#    0.000    0.667    5.000    4.500    2.333    0.000 
#    3.000    2.500    0.000    2.000    0.000    0.000 
#    0.000    0.000    0.000    0.000    0.000    0.000 
#
# Total GULP energy -267948.223223 kJ/mol
# GULP energy per Si atom -5582.254650 kJ/mol
# Density = 2.185701 g / cm^3
# Si number density = 21.906872 Si / 1000 Ang^3
#
#
#
# Elastic Constant Matrix: (Units=GPa)
#
#
# Indices 1 2 3 4 5 6 
#
# 1 121.2490 24.4430 43.2635 0.0000 0.0000 0.0000
# 2 24.4430 124.8658 40.1139 0.0000 0.0000 0.0000
# 3 43.2635 40.1139 40.4189 0.0000 0.0000 0.0000
# 4 0.0000 0.0000 0.0000 28.9538 0.0000 0.0000
# 5 0.0000 0.0000 0.0000 0.0000 32.7457 0.0000
# 6 0.0000 0.0000 0.0000 0.0000 0.0000 43.6043
#
#
#
# Elastic Compliance Matrix: (Units=1/GPa)
#
#
# Indices 1 2 3 4 5 6 
#
# 1 0.014101 0.003066 -0.018136 0.000000 0.000000 0.000000
# 2 0.003066 0.012424 -0.015612 0.000000 0.000000 0.000000
# 3 -0.018136 -0.015612 0.059647 0.000000 0.000000 0.000000
# 4 0.000000 0.000000 0.000000 0.034538 0.000000 0.000000
# 5 0.000000 0.000000 0.000000 0.000000 0.030538 0.000000
# 6 0.000000 0.000000 0.000000 0.000000 0.000000 0.022934
#
#
# Mechanical properties :
#
#
# Convention : Reuss Voigt Hill
#
# Bulk Modulus (GPa) = 40.30925 55.79716 48.05320
# Shear Modulus (GPa) = 20.50745 32.97498 26.74122
#
# Velocity S-wave (km/s) = 3.06293 3.88394 3.49761
# Velocity P-wave (km/s) = 5.56317 6.75565 6.18820
#
# Compressibility (1/GPa) = 0.02480820
#
# Stress axis : x y z
#
# Youngs Moduli (GPa) = 70.91935 80.49045 16.76527
#
# Poissons Ratio (x) = -0.24678 0.30405
# Poissons Ratio (y) = -0.21744 0.26174
# Poissons Ratio (z) = 1.28618 1.25661
#
# Static dielectric constant tensor:
#      x y z
#    x 1.964630 0.000000 0.000000 
#    y 0.000000 1.896000 0.000000 
#    z 0.000000 0.000000 1.810100 
# 
# From -- ./inp_files/28061.got.cif
#   From: 2010.05.17/outbox.cif.g08.bks.cpg/sg52_15_cif.got.tgz:28061.got - 2010.06.03 12:15:38.
