data_PCOD9411804
_publ_section_title
;
Structure prediction by ZEFSAII (Michael W. Deem and Ramdas Pophale) SiO2 
 PCOD9411804
Probable space group: P N N A
;
_chemical_formula_sum "Si O2"
_cell_formula_units_Z 48
_cell_length_a 26.051206
_cell_length_b 13.798128
_cell_length_c 6.202820
_cell_angle_alpha 90.000000
_cell_angle_beta 90.000000
_cell_angle_gamma 90.000000
_cell_volume 2229.652496
_symmetry_space_group_name_H-M "P N N A"
_symmetry_group_IT_number 52
_symmetry_cell_setting 'orthorhombic'
loop_
_space_group_symop_operation_xyz
x,y,z
1/2-x,-y,z
x,1/2-y,1/2-z
1/2-x,1/2+y,1/2-z
-x,-y,-z
1/2+x,y,-z
-x,1/2+y,1/2+z
1/2+x,1/2-y,1/2+z
loop_
_atom_site_type_symbol
_atom_site_label
_atom_site_fract_x
_atom_site_fract_y
_atom_site_fract_z
Si Si1 0.733683 0.750000 0.750000
Si Si2 0.793688 0.568265 0.575265
Si Si3 0.933522 0.114931 0.905281
Si Si4 0.386599 0.967924 0.783475
Si Si5 0.032031 0.750000 0.750000
Si Si6 0.480176 0.894596 0.568579
Si Si7 0.661432 0.587715 0.909637
O O1 0.768623 0.670543 0.631852
O O2 0.698095 0.681560 0.901834
O O3 0.750000 0.500000 0.468428
O O4 0.842463 0.581068 0.422619
O O5 0.811444 0.502717 0.782200
O O6 0.888132 0.113754 0.733821
O O7 0.986675 0.128199 0.780499
O O8 0.925999 0.018833 0.049384
O O9 0.931853 0.200846 0.074712
O O10 0.358900 0.049649 0.637657
O O11 0.420564 0.901128 0.627972
O O12 0.996025 0.824975 0.624480
O O13 0.500000 0.000000 0.500000
#
# Coordination Sequence:
#
# PCOD9411804 Si02
#       7
#     4   8   8   8   4   8   8
#     4  10  22  44  75  96 138 180 231 306 340 410
#     4   9  22  45  66 101 136 177 235 296 352 417
#     4  11  23  42  67 103 140 173 230 285 343 417
#     4  11  23  43  73  97 138 191 228 282 360 414
#     4  12  26  38  67 102 148 176 231 282 346 416
#     4  12  24  43  68  99 144 187 224 287 342 416
#     4  10  22  40  71 102 135 179 233 287 358 415
#
# _framework density 21.528019
#
# number of rings (size 3 to 8) (size 9 to 14) (size 15 to 20)
#    0.000    1.333    3.333    1.000    4.667    2.000 
#    0.000   10.833    0.000    2.000    0.000    0.000 
#    0.000    0.000    0.000    0.000    0.000    0.000 
#
# Total GULP energy -268340.384106 kJ/mol
# GULP energy per Si atom -5590.424669 kJ/mol
# Density = 2.147902 g / cm^3
# Si number density = 21.528019 Si / 1000 Ang^3
#
#
#
# Elastic Constant Matrix: (Units=GPa)
#
#
# Indices 1 2 3 4 5 6 
#
# 1 102.3804 53.8969 28.5140 0.0000 0.0000 0.0000
# 2 53.8969 108.8730 37.6263 0.0000 0.0000 0.0000
# 3 28.5140 37.6263 74.0137 0.0000 0.0000 0.0000
# 4 0.0000 0.0000 0.0000 30.7120 0.0000 0.0000
# 5 0.0000 0.0000 0.0000 0.0000 28.7446 0.0000
# 6 0.0000 0.0000 0.0000 0.0000 0.0000 28.9563
#
#
#
# Elastic Compliance Matrix: (Units=1/GPa)
#
#
# Indices 1 2 3 4 5 6 
#
# 1 0.013496 -0.005925 -0.002187 0.000000 0.000000 0.000000
# 2 -0.005925 0.013744 -0.004704 0.000000 0.000000 0.000000
# 3 -0.002187 -0.004704 0.016745 0.000000 0.000000 0.000000
# 4 0.000000 0.000000 0.000000 0.032561 0.000000 0.000000
# 5 0.000000 0.000000 0.000000 0.000000 0.034789 0.000000
# 6 0.000000 0.000000 0.000000 0.000000 0.000000 0.034535
#
#
# Mechanical properties :
#
#
# Convention : Reuss Voigt Hill
#
# Bulk Modulus (GPa) = 54.49081 58.37129 56.43105
# Shear Modulus (GPa) = 28.14996 28.69792 28.42394
#
# Velocity S-wave (km/s) = 3.61999 3.65506 3.63757
# Velocity P-wave (km/s) = 6.54515 6.70713 6.62663
#
# Compressibility (1/GPa) = 0.01835172
#
# Stress axis : x y z
#
# Youngs Moduli (GPa) = 74.09669 72.75875 59.71873
#
# Poissons Ratio (x) = 0.43111 0.13061
# Poissons Ratio (y) = 0.43904 0.28094
# Poissons Ratio (z) = 0.16206 0.34228
#
# Static dielectric constant tensor:
#      x y z
#    x 1.799610 0.000000 0.000000 
#    y 0.000000 1.853350 0.000000 
#    z 0.000000 0.000000 1.816420 
# 
# From -- ./inp_files/5829.got.cif
#   From: 2010.05.17/outbox.cif.g08.bks.cpg/sg52_3_cif.got.tgz:5829.got - 2010.06.03 12:15:38.
