data_PCOD9411750
_publ_section_title
;
Structure prediction by ZEFSAII (Michael W. Deem and Ramdas Pophale) SiO2 
 PCOD9411750
Probable space group: P N N A
;
_chemical_formula_sum "Si O2"
_cell_formula_units_Z 28
_cell_length_a 4.754970
_cell_length_b 18.547938
_cell_length_c 11.667395
_cell_angle_alpha 90.000000
_cell_angle_beta 90.000000
_cell_angle_gamma 90.000000
_cell_volume 1029.004604
_symmetry_space_group_name_H-M "P N N A"
_symmetry_group_IT_number 52
_symmetry_cell_setting 'orthorhombic'
loop_
_space_group_symop_operation_xyz
x,y,z
1/2-x,-y,z
x,1/2-y,1/2-z
1/2-x,1/2+y,1/2-z
-x,-y,-z
1/2+x,y,-z
-x,1/2+y,1/2+z
1/2+x,1/2-y,1/2+z
loop_
_atom_site_type_symbol
_atom_site_label
_atom_site_fract_x
_atom_site_fract_y
_atom_site_fract_z
Si Si1 0.250000 0.500000 0.747133
Si Si2 0.632682 0.905391 0.587053
Si Si3 0.875830 0.764769 0.575849
Si Si4 0.882831 0.596199 0.578936
O O1 0.470518 0.548014 0.819836
O O2 0.042895 0.552964 0.676552
O O3 0.932118 0.916832 0.524906
O O4 0.716692 0.827338 0.644041
O O5 0.701572 0.775396 0.455715
O O6 0.868481 0.681381 0.606320
O O7 0.068715 0.580904 0.463955
#
# Coordination Sequence:
#
# PCOD9411750 Si02
#       4
#     4   8   8   8
#     4  12  24  38  68 110 148 184 228 306 372 416
#     4  10  22  40  65  99 140 187 237 289 353 428
#     4   8  16  36  64  86 122 178 230 281 336 409
#     4  10  22  40  65  99 140 187 237 289 353 428
#
# _framework density 27.210766
#
# number of rings (size 3 to 8) (size 9 to 14) (size 15 to 20)
#    0.000    2.286    0.000    1.714    0.000    4.571 
#    0.000    0.000    0.000  113.143    0.000   12.000 
#    0.000    0.000    0.000    0.000    0.000    0.000 
#
# Total GULP energy -156191.804916 kJ/mol
# GULP energy per Si atom -5578.278747 kJ/mol
# Density = 2.714883 g / cm^3
# Si number density = 27.210766 Si / 1000 Ang^3
#
#
#
# Elastic Constant Matrix: (Units=GPa)
#
#
# Indices 1 2 3 4 5 6 
#
# 1 182.5668 83.1580 39.9588 0.0000 0.0000 0.0000
# 2 83.1580 247.9312 84.6745 0.0000 0.0000 0.0000
# 3 39.9588 84.6745 108.0604 0.0000 0.0000 0.0000
# 4 0.0000 0.0000 0.0000 5.8734 0.0000 0.0000
# 5 0.0000 0.0000 0.0000 0.0000 28.3522 0.0000
# 6 0.0000 0.0000 0.0000 0.0000 0.0000 58.0391
#
#
#
# Elastic Compliance Matrix: (Units=1/GPa)
#
#
# Indices 1 2 3 4 5 6 
#
# 1 0.006537 -0.001866 -0.000955 0.000000 0.000000 0.000000
# 2 -0.001866 0.006040 -0.004043 0.000000 0.000000 0.000000
# 3 -0.000955 -0.004043 0.012775 0.000000 0.000000 0.000000
# 4 0.000000 0.000000 0.000000 0.170259 0.000000 0.000000
# 5 0.000000 0.000000 0.000000 0.000000 0.035271 0.000000
# 6 0.000000 0.000000 0.000000 0.000000 0.000000 0.017230
#
#
# Mechanical properties :
#
#
# Convention : Reuss Voigt Hill
#
# Bulk Modulus (GPa) = 86.02885 106.01566 96.02225
# Shear Modulus (GPa) = 18.81725 40.50407 29.66066
#
# Velocity S-wave (km/s) = 2.63256 3.86233 3.30515
# Velocity P-wave (km/s) = 6.39726 7.67696 7.06614
#
# Compressibility (1/GPa) = 0.01162401
#
# Stress axis : x y z
#
# Youngs Moduli (GPa) = 152.98697 165.56090 78.27822
#
# Poissons Ratio (x) = 0.30900 0.07473
# Poissons Ratio (y) = 0.28553 0.31646
# Poissons Ratio (z) = 0.14605 0.66932
#
# Static dielectric constant tensor:
#      x y z
#    x 1.997230 0.000000 0.000000 
#    y 0.000000 2.401250 0.000000 
#    z 0.000000 0.000000 2.187980 
# 
# From -- ./inp_files/943.got.cif
#   From: 2010.05.17/outbox.cif.g08.bks.cpg/sg52_1_cif.got.tgz:943.got - 2010.06.03 12:15:38.
