data_PCOD9411362
_publ_section_title
;
Structure prediction by ZEFSAII (Michael W. Deem and Ramdas Pophale) SiO2 
 PCOD9411362
Probable space group: P N N A
;
_chemical_formula_sum "Si O2"
_cell_formula_units_Z 56
_cell_length_a 12.334109
_cell_length_b 15.799608
_cell_length_c 14.104820
_cell_angle_alpha 90.000000
_cell_angle_beta 90.000000
_cell_angle_gamma 90.000000
_cell_volume 2748.663923
_symmetry_space_group_name_H-M "P N N A"
_symmetry_group_IT_number 52
_symmetry_cell_setting 'orthorhombic'
loop_
_space_group_symop_operation_xyz
x,y,z
1/2-x,-y,z
x,1/2-y,1/2-z
1/2-x,1/2+y,1/2-z
-x,-y,-z
1/2+x,y,-z
-x,1/2+y,1/2+z
1/2+x,1/2-y,1/2+z
loop_
_atom_site_type_symbol
_atom_site_label
_atom_site_fract_x
_atom_site_fract_y
_atom_site_fract_z
Si Si1 0.627004 0.285418 0.105334
Si Si2 0.298277 0.822780 0.396536
Si Si3 0.040445 0.530162 0.328274
Si Si4 0.319928 0.883752 0.793614
Si Si5 0.901777 0.292344 0.576002
Si Si6 0.591427 0.619937 0.375277
Si Si7 0.250000 0.000000 0.301201
Si Si8 0.030206 0.250000 0.250000
O O1 0.655796 0.187884 0.126925
O O2 0.680367 0.336732 0.191946
O O3 0.496639 0.275095 0.100406
O O4 0.667018 0.321521 0.006188
O O5 0.206396 0.751502 0.388161
O O6 0.395976 0.791108 0.331173
O O7 0.256804 0.914169 0.362464
O O8 0.079969 0.616793 0.375875
O O9 0.140073 0.501774 0.262166
O O10 0.925585 0.557290 0.282096
O O11 0.998499 0.452977 0.394206
O O12 0.204963 0.915159 0.833928
O O13 0.896194 0.318369 0.465480
O O14 0.543051 0.676941 0.292586
#
# Coordination Sequence:
#
# PCOD9411362 Si02
#       8
#     8   8   8   8   8   8   4   4
#     4  10  21  42  69  98 132 183 235 279 348 427
#     4  12  24  45  68 102 140 189 239 284 358 426
#     4  11  25  45  67 102 144 183 235 296 357 419
#     4  10  22  43  69 101 139 178 230 294 355 414
#     4  11  24  42  73 101 138 186 239 291 357 430
#     4  12  23  43  70 105 140 181 234 298 362 423
#     4  12  26  48  68 104 148 192 240 296 350 430
#     4  12  24  42  72  98 146 184 228 298 356 434
#
# _framework density 20.373535
#
# number of rings (size 3 to 8) (size 9 to 14) (size 15 to 20)
#    0.000    0.857    4.286    3.429    0.000    2.286 
#    5.143    1.429    0.000    0.000    0.000    0.000 
#    0.000    0.000    0.000    0.000    0.000    0.000 
#
# Total GULP energy -312372.257118 kJ/mol
# GULP energy per Si atom -5578.076020 kJ/mol
# Density = 2.032716 g / cm^3
# Si number density = 20.373535 Si / 1000 Ang^3
#
#
#
# Elastic Constant Matrix: (Units=GPa)
#
#
# Indices 1 2 3 4 5 6 
#
# 1 87.0118 49.0723 34.4851 0.0000 0.0000 0.0000
# 2 49.0723 62.8034 18.9795 0.0000 0.0000 0.0000
# 3 34.4851 18.9795 84.9783 0.0000 0.0000 0.0000
# 4 0.0000 0.0000 0.0000 19.2383 0.0000 0.0000
# 5 0.0000 0.0000 0.0000 0.0000 13.7539 0.0000
# 6 0.0000 0.0000 0.0000 0.0000 0.0000 44.6572
#
#
#
# Elastic Compliance Matrix: (Units=1/GPa)
#
#
# Indices 1 2 3 4 5 6 
#
# 1 0.022835 -0.016130 -0.005664 0.000000 0.000000 0.000000
# 2 -0.016130 0.028470 0.000187 0.000000 0.000000 0.000000
# 3 -0.005664 0.000187 0.014024 0.000000 0.000000 0.000000
# 4 0.000000 0.000000 0.000000 0.051980 0.000000 0.000000
# 5 0.000000 0.000000 0.000000 0.000000 0.072706 0.000000
# 6 0.000000 0.000000 0.000000 0.000000 0.000000 0.022393
#
#
# Mechanical properties :
#
#
# Convention : Reuss Voigt Hill
#
# Bulk Modulus (GPa) = 45.21870 48.87414 47.04642
# Shear Modulus (GPa) = 19.01188 24.34699 21.67943
#
# Velocity S-wave (km/s) = 3.05809 3.46067 3.26559
# Velocity P-wave (km/s) = 5.89171 6.32530 6.11235
#
# Compressibility (1/GPa) = 0.02211474
#
# Stress axis : x y z
#
# Youngs Moduli (GPa) = 43.79318 35.12483 71.30473
#
# Poissons Ratio (x) = 0.56658 0.40386
# Poissons Ratio (y) = 0.70641 -0.01336
# Poissons Ratio (z) = 0.24804 -0.00658
#
# Static dielectric constant tensor:
#      x y z
#    x 1.762870 0.000000 0.000000 
#    y 0.000000 1.745560 0.000000 
#    z 0.000000 0.000000 1.725620 
# 
# From -- ./inp_files/26188.got.cif
#   From: 2010.05.17/outbox.cif.g08.bks.cpg/sg52_14_cif.got.tgz:26188.got - 2010.06.03 12:15:38.
