data_PCOD9411072
_publ_section_title
;
Structure prediction by ZEFSAII (Michael W. Deem and Ramdas Pophale) SiO2 
 PCOD9411072
Probable space group: P N N A
;
_chemical_formula_sum "Si O2"
_cell_formula_units_Z 52
_cell_length_a 7.662090
_cell_length_b 27.607965
_cell_length_c 13.217348
_cell_angle_alpha 90.000000
_cell_angle_beta 90.000000
_cell_angle_gamma 90.000000
_cell_volume 2795.927910
_symmetry_space_group_name_H-M "P N N A"
_symmetry_group_IT_number 52
_symmetry_cell_setting 'orthorhombic'
loop_
_space_group_symop_operation_xyz
x,y,z
1/2-x,-y,z
x,1/2-y,1/2-z
1/2-x,1/2+y,1/2-z
-x,-y,-z
1/2+x,y,-z
-x,1/2+y,1/2+z
1/2+x,1/2-y,1/2+z
loop_
_atom_site_type_symbol
_atom_site_label
_atom_site_fract_x
_atom_site_fract_y
_atom_site_fract_z
Si Si1 0.722972 0.673618 0.385751
Si Si2 0.427055 0.525982 0.400922
Si Si3 0.750000 0.000000 0.561149
Si Si4 0.336952 0.862313 0.105192
Si Si5 0.250000 0.000000 0.763475
Si Si6 0.019556 0.851929 0.259818
Si Si7 0.933811 0.561233 0.110208
Si Si8 0.886011 0.750000 0.250000
O O1 0.521425 0.661873 0.366202
O O2 0.762079 0.663700 0.504005
O O3 0.772573 0.726656 0.341120
O O4 0.857773 0.640876 0.319567
O O5 0.250000 0.500000 0.367646
O O6 0.500000 0.500000 0.500000
O O7 0.382259 0.581946 0.419653
O O8 0.583787 0.517131 0.324916
O O9 0.845143 0.957920 0.493618
O O10 0.602283 0.972797 0.622083
O O11 0.194699 0.861182 0.195312
O O12 0.296828 0.955139 0.693094
O O13 0.992513 0.885173 0.358444
O O14 0.001766 0.795181 0.286433
#
# Coordination Sequence:
#
# PCOD9411072 Si02
#       8
#     8   8   4   8   4   8   8   4
#     4  10  21  40  59  90 126 165 207 257 314 376
#     4  12  25  35  53  94 139 177 209 246 297 389
#     4   9  22  42  63  86 122 166 215 264 328 373
#     4  12  22  37  65  90 128 178 201 251 328 371
#     4  11  24  36  59  92 130 166 217 252 306 381
#     4  10  22  40  65  92 126 160 213 266 318 383
#     4  10  21  42  63  87 123 162 211 268 316 382
#     4   8  22  42  60  88 124 156 214 274 302 386
#
# _framework density 18.598475000000001
#
# number of rings (size 3 to 8) (size 9 to 14) (size 15 to 20)
#    0.923    0.615    2.308    2.769    5.385    0.615 
#    2.769    3.077    0.000    0.000    0.000    0.000 
#    0.000    0.000    0.000    0.000    0.000    0.000 
#
# Total GULP energy -289616.029141 kJ/mol
# GULP energy per Si atom -5569.539022 kJ/mol
# Density = 1.855614 g / cm^3
# Si number density = 18.598475 Si / 1000 Ang^3
#
#
#
# Elastic Constant Matrix: (Units=GPa)
#
#
# Indices 1 2 3 4 5 6 
#
# 1 120.9112 28.8105 20.8519 0.0000 0.0000 0.0000
# 2 28.8105 134.1817 36.8996 0.0000 0.0000 0.0000
# 3 20.8519 36.8996 40.9169 0.0000 0.0000 0.0000
# 4 0.0000 0.0000 0.0000 49.0652 0.0000 0.0000
# 5 0.0000 0.0000 0.0000 0.0000 20.3131 0.0000
# 6 0.0000 0.0000 0.0000 0.0000 0.0000 26.0887
#
#
#
# Elastic Compliance Matrix: (Units=1/GPa)
#
#
# Indices 1 2 3 4 5 6 
#
# 1 0.009150 -0.000907 -0.003845 0.000000 0.000000 0.000000
# 2 -0.000907 0.010000 -0.008556 0.000000 0.000000 0.000000
# 3 -0.003845 -0.008556 0.034115 0.000000 0.000000 0.000000
# 4 0.000000 0.000000 0.000000 0.020381 0.000000 0.000000
# 5 0.000000 0.000000 0.000000 0.000000 0.049229 0.000000
# 6 0.000000 0.000000 0.000000 0.000000 0.000000 0.038331
#
#
# Mechanical properties :
#
#
# Convention : Reuss Voigt Hill
#
# Bulk Modulus (GPa) = 37.52468 52.12597 44.82532
# Shear Modulus (GPa) = 25.41873 33.05658 29.23766
#
# Velocity S-wave (km/s) = 3.70092 4.22047 3.96920
# Velocity P-wave (km/s) = 6.20342 7.19984 6.72012
#
# Compressibility (1/GPa) = 0.02664913
#
# Stress axis : x y z
#
# Youngs Moduli (GPa) = 109.29250 99.99726 29.31256
#
# Poissons Ratio (x) = 0.09073 0.11270
# Poissons Ratio (y) = 0.09916 0.25080
# Poissons Ratio (z) = 0.42019 0.85558
#
# Static dielectric constant tensor:
#      x y z
#    x 1.609550 0.000000 0.000000 
#    y 0.000000 1.653200 0.000000 
#    z 0.000000 0.000000 1.649980 
# 
# From -- ./inp_files/17110.got.cif
#   From: 2010.05.17/outbox.cif.g08.bks.cpg/sg52_9_cif.got.tgz:17110.got - 2010.06.03 12:15:38.
