data_PCOD9411157
_publ_section_title
;
Structure prediction by ZEFSAII (Michael W. Deem and Ramdas Pophale) SiO2 
 PCOD9411157
Probable space group: P N N A
;
_chemical_formula_sum "Si O2"
_cell_formula_units_Z 56
_cell_length_a 19.808281
_cell_length_b 11.100477
_cell_length_c 12.398070
_cell_angle_alpha 90.000000
_cell_angle_beta 90.000000
_cell_angle_gamma 90.000000
_cell_volume 2726.104588
_symmetry_space_group_name_H-M "P N N A"
_symmetry_group_IT_number 52
_symmetry_cell_setting 'orthorhombic'
loop_
_space_group_symop_operation_xyz
x,y,z
1/2-x,-y,z
x,1/2-y,1/2-z
1/2-x,1/2+y,1/2-z
-x,-y,-z
1/2+x,y,-z
-x,1/2+y,1/2+z
1/2+x,1/2-y,1/2+z
loop_
_atom_site_type_symbol
_atom_site_label
_atom_site_fract_x
_atom_site_fract_y
_atom_site_fract_z
Si Si1 0.714570 0.619665 0.805711
Si Si2 0.530423 0.288310 0.015875
Si Si3 0.057392 0.616495 0.198450
Si Si4 0.709994 0.845708 0.445876
Si Si5 0.938785 0.936093 0.171331
Si Si6 0.651755 0.395779 0.119353
Si Si7 0.586121 0.796895 0.128794
O O1 0.750000 0.500000 0.759894
O O2 0.725915 0.750000 0.750000
O O3 0.635180 0.589330 0.804172
O O4 0.732763 0.635276 0.931260
O O5 0.478265 0.371185 0.083610
O O6 0.548014 0.167046 0.083729
O O7 0.601396 0.357922 0.022077
O O8 0.486213 0.251249 0.913487
O O9 0.051182 0.750000 0.250000
O O10 0.010617 0.534246 0.272501
O O11 0.779130 0.819159 0.381543
O O12 0.649450 0.751138 0.439814
O O13 0.676930 0.968329 0.400236
O O14 0.890796 0.891457 0.269546
O O15 0.912051 0.059342 0.123641
O O16 0.596469 0.750000 0.250000
#
# Coordination Sequence:
#
# PCOD9411157 Si02
#       7
#     8   8   8   8   8   8   8
#     4  11  22  43  69  94 131 178 227 274 335 401
#     4  10  21  40  66  90 129 167 217 271 331 393
#     4   8  17  36  65  87 116 167 214 263 324 394
#     4  11  23  43  65  93 133 175 215 267 333 404
#     4  10  21  41  64  98 123 166 220 273 333 391
#     4  10  21  42  68  92 123 172 224 263 324 407
#     4  12  24  39  61  98 134 170 215 273 338 397
#
# _framework density 20.542131999999999
#
# number of rings (size 3 to 8) (size 9 to 14) (size 15 to 20)
#    0.000    1.714    4.286    1.714    0.000    2.857 
#    2.571    0.000    0.000    0.000    0.000    0.000 
#    0.000    0.000    0.000    0.000    0.000    0.000 
#
# Total GULP energy -312479.253988 kJ/mol
# GULP energy per Si atom -5579.986678 kJ/mol
# Density = 2.049538 g / cm^3
# Si number density = 20.542132 Si / 1000 Ang^3
#
#
#
# Elastic Constant Matrix: (Units=GPa)
#
#
# Indices 1 2 3 4 5 6 
#
# 1 131.4417 45.6823 10.7215 0.0000 0.0000 0.0000
# 2 45.6823 86.5147 2.3044 0.0000 0.0000 0.0000
# 3 10.7215 2.3044 36.3992 0.0000 0.0000 0.0000
# 4 0.0000 0.0000 0.0000 22.6635 0.0000 0.0000
# 5 0.0000 0.0000 0.0000 0.0000 19.1988 0.0000
# 6 0.0000 0.0000 0.0000 0.0000 0.0000 32.8097
#
#
#
# Elastic Compliance Matrix: (Units=1/GPa)
#
#
# Indices 1 2 3 4 5 6 
#
# 1 0.009539 -0.004970 -0.002495 0.000000 0.000000 0.000000
# 2 -0.004970 0.014168 0.000567 0.000000 0.000000 0.000000
# 3 -0.002495 0.000567 0.028172 0.000000 0.000000 0.000000
# 4 0.000000 0.000000 0.000000 0.044124 0.000000 0.000000
# 5 0.000000 0.000000 0.000000 0.000000 0.052087 0.000000
# 6 0.000000 0.000000 0.000000 0.000000 0.000000 0.030479
#
#
# Mechanical properties :
#
#
# Convention : Reuss Voigt Hill
#
# Bulk Modulus (GPa) = 26.25877 41.30800 33.78339
# Shear Modulus (GPa) = 24.38321 27.97757 26.18039
#
# Velocity S-wave (km/s) = 3.44900 3.69448 3.57385
# Velocity P-wave (km/s) = 5.35457 6.19286 5.78891
#
# Compressibility (1/GPa) = 0.03808251
#
# Stress axis : x y z
#
# Youngs Moduli (GPa) = 104.83403 70.58106 35.49602
#
# Poissons Ratio (x) = 0.35081 0.08856
# Poissons Ratio (y) = 0.52106 -0.02013
# Poissons Ratio (z) = 0.26157 -0.04002
#
# Static dielectric constant tensor:
#      x y z
#    x 1.752500 0.000000 0.000000 
#    y 0.000000 1.744770 0.000000 
#    z 0.000000 0.000000 1.761130 
# 
# From -- ./inp_files/21685.got.cif
#   From: 2010.05.17/outbox.cif.g08.bks.cpg/sg52_11_cif.got.tgz:21685.got - 2010.06.03 12:15:38.
