data_PCOD9411949
_publ_section_title
;
Structure prediction by ZEFSAII (Michael W. Deem and Ramdas Pophale) SiO2 
 PCOD9411949
Probable space group: P N N A
;
_chemical_formula_sum "Si O2"
_cell_formula_units_Z 40
_cell_length_a 9.371943
_cell_length_b 21.082851
_cell_length_c 9.242201
_cell_angle_alpha 90.000000
_cell_angle_beta 90.000000
_cell_angle_gamma 90.000000
_cell_volume 1826.141337
_symmetry_space_group_name_H-M "P N N A"
_symmetry_group_IT_number 52
_symmetry_cell_setting 'orthorhombic'
loop_
_space_group_symop_operation_xyz
x,y,z
1/2-x,-y,z
x,1/2-y,1/2-z
1/2-x,1/2+y,1/2-z
-x,-y,-z
1/2+x,y,-z
-x,1/2+y,1/2+z
1/2+x,1/2-y,1/2+z
loop_
_atom_site_type_symbol
_atom_site_label
_atom_site_fract_x
_atom_site_fract_y
_atom_site_fract_z
Si Si1 0.985441 0.564209 0.091850
Si Si2 0.928361 0.744086 0.417953
Si Si3 0.153594 0.831534 0.912021
Si Si4 0.392277 0.041227 0.092186
Si Si5 0.792039 0.358642 0.087471
O O1 0.043787 0.553926 0.251301
O O2 0.820088 0.583680 0.100137
O O3 0.084855 0.619574 0.022004
O O4 0.000000 0.500000 0.000000
O O5 0.977954 0.750000 0.250000
O O6 0.819880 0.685281 0.423588
O O7 0.819210 0.801906 0.451183
O O8 0.055243 0.725553 0.525896
O O9 0.134066 0.843564 0.741384
O O10 0.128783 0.893136 0.007860
O O11 0.250000 0.000000 0.106963
O O12 0.500000 0.000000 0.000000
#
# Coordination Sequence:
#
# PCOD9411949 Si02
#       5
#     8   8   8   8   8
#     4  12  25  44  67  99 139 180 227 285 347 413
#     4  10  22  42  66  97 132 172 222 277 335 401
#     4  11  23  43  68  97 132 175 223 276 331 400
#     4  12  24  41  65  96 131 176 226 278 339 407
#     4  11  24  44  68  99 136 179 228 282 343 411
#
# _framework density 21.904108000000001
#
# number of rings (size 3 to 8) (size 9 to 14) (size 15 to 20)
#    0.000    0.800    0.000    9.000    0.000    1.600 
#    0.000    5.000    0.000    0.000    0.000    0.000 
#    0.000    0.000    0.000    0.000    0.000    0.000 
#
# Total GULP energy -223808.036828 kJ/mol
# GULP energy per Si atom -5595.200921 kJ/mol
# Density = 2.185425 g / cm^3
# Si number density = 21.904108 Si / 1000 Ang^3
#
#
#
# Elastic Constant Matrix: (Units=GPa)
#
#
# Indices 1 2 3 4 5 6 
#
# 1 89.9957 8.8185 82.7464 0.0000 0.0000 0.0000
# 2 8.8185 94.5429 55.0973 0.0000 0.0000 0.0000
# 3 82.7464 55.0973 172.7590 0.0000 0.0000 0.0000
# 4 0.0000 0.0000 0.0000 48.0039 0.0000 0.0000
# 5 0.0000 0.0000 0.0000 0.0000 42.0407 0.0000
# 6 0.0000 0.0000 0.0000 0.0000 0.0000 42.2819
#
#
#
# Elastic Compliance Matrix: (Units=1/GPa)
#
#
# Indices 1 2 3 4 5 6 
#
# 1 0.021574 0.004925 -0.011904 0.000000 0.000000 0.000000
# 2 0.004925 0.014116 -0.006861 0.000000 0.000000 0.000000
# 3 -0.011904 -0.006861 0.013678 0.000000 0.000000 0.000000
# 4 0.000000 0.000000 0.000000 0.020832 0.000000 0.000000
# 5 0.000000 0.000000 0.000000 0.000000 0.023786 0.000000
# 6 0.000000 0.000000 0.000000 0.000000 0.000000 0.023651
#
#
# Mechanical properties :
#
#
# Convention : Reuss Voigt Hill
#
# Bulk Modulus (GPa) = 46.10695 72.29133 59.19914
# Shear Modulus (GPa) = 32.77666 40.50767 36.64216
#
# Velocity S-wave (km/s) = 3.87249 4.30504 4.09448
# Velocity P-wave (km/s) = 6.41015 7.60173 7.03123
#
# Compressibility (1/GPa) = 0.02168871
#
# Stress axis : x y z
#
# Youngs Moduli (GPa) = 46.35138 70.84034 73.10840
#
# Poissons Ratio (x) = -0.34890 0.87030
# Poissons Ratio (y) = -0.22829 0.50160
# Poissons Ratio (z) = 0.55178 0.48604
#
# Static dielectric constant tensor:
#      x y z
#    x 1.759450 0.000000 0.000000 
#    y 0.000000 1.861300 0.000000 
#    z 0.000000 0.000000 1.929870 
# 
# From -- ./inp_files/7393.got.cif
#   From: 2010.05.17/outbox.cif.g08.bks.cpg/sg52_4_cif.got.tgz:7393.got - 2010.06.03 12:15:38.
