data_PCOD9411723
_publ_section_title
;
Structure prediction by ZEFSAII (Michael W. Deem and Ramdas Pophale) SiO2 
 PCOD9411723
Probable space group: P N N A
;
_chemical_formula_sum "Si O2"
_cell_formula_units_Z 40
_cell_length_a 30.829181
_cell_length_b 5.147496
_cell_length_c 12.128530
_cell_angle_alpha 90.000000
_cell_angle_beta 90.000000
_cell_angle_gamma 90.000000
_cell_volume 1924.713853
_symmetry_space_group_name_H-M "P N N A"
_symmetry_group_IT_number 52
_symmetry_cell_setting 'orthorhombic'
loop_
_space_group_symop_operation_xyz
x,y,z
1/2-x,-y,z
x,1/2-y,1/2-z
1/2-x,1/2+y,1/2-z
-x,-y,-z
1/2+x,y,-z
-x,1/2+y,1/2+z
1/2+x,1/2-y,1/2+z
loop_
_atom_site_type_symbol
_atom_site_label
_atom_site_fract_x
_atom_site_fract_y
_atom_site_fract_z
Si Si1 0.823161 0.384567 0.485440
Si Si2 0.278883 0.250000 0.750000
Si Si3 0.879298 0.895128 0.504793
Si Si4 0.449819 0.501161 0.825831
Si Si5 0.250000 0.500000 0.331370
Si Si6 0.045195 0.002008 0.325049
O O1 0.804343 0.347274 0.360439
O O2 0.860213 0.607739 0.486931
O O3 0.789659 0.466837 0.581668
O O4 0.841167 0.102320 0.517807
O O5 0.250000 0.500000 0.783943
O O6 0.913363 0.928995 0.602980
O O7 0.908682 0.988857 0.403610
O O8 0.447412 0.250000 0.750000
O O9 0.497648 0.526312 0.880496
O O10 0.447089 0.750000 0.750000
O O11 0.245990 0.250000 0.250000
O O12 0.038816 0.250000 0.250000
O O13 0.053046 0.750000 0.250000
#
# Coordination Sequence:
#
# PCOD9411723 Si02
#       6
#     8   4   8   8   4   8
#     4  12  28  45  72 108 128 184 221 282 356 404
#     4  12  26  50  78  96 148 174 228 284 350 442
#     4  12  25  41  67 102 138 166 231 279 339 395
#     4  10  22  40  62  95 135 182 225 272 337 393
#     4  12  28  52  74  98 140 178 226 280 344 426
#     4  10  22  41  65  91 134 187 230 272 329 395
#
# _framework density 20.782308
#
# number of rings (size 3 to 8) (size 9 to 14) (size 15 to 20)
#    0.000    0.800    1.000    5.400    5.600    4.800 
#    0.000    8.000    0.000    0.000    0.000    0.000 
#    0.000    0.000    0.000    0.000    0.000    0.000 
#
# Total GULP energy -223275.831932 kJ/mol
# GULP energy per Si atom -5581.895798 kJ/mol
# Density = 2.073501 g / cm^3
# Si number density = 20.782308 Si / 1000 Ang^3
#
#
#
# Elastic Constant Matrix: (Units=GPa)
#
#
# Indices 1 2 3 4 5 6 
#
# 1 67.4798 5.6836 38.4827 0.0000 0.0000 0.0000
# 2 5.6836 134.9789 30.5365 0.0000 0.0000 0.0000
# 3 38.4827 30.5365 111.8880 0.0000 0.0000 0.0000
# 4 0.0000 0.0000 0.0000 24.5900 0.0000 0.0000
# 5 0.0000 0.0000 0.0000 0.0000 74.0766 0.0000
# 6 0.0000 0.0000 0.0000 0.0000 0.0000 39.1802
#
#
#
# Elastic Compliance Matrix: (Units=1/GPa)
#
#
# Indices 1 2 3 4 5 6 
#
# 1 0.018498 0.000704 -0.006554 0.000000 0.000000 0.000000
# 2 0.000704 0.007923 -0.002404 0.000000 0.000000 0.000000
# 3 -0.006554 -0.002404 0.011848 0.000000 0.000000 0.000000
# 4 0.000000 0.000000 0.000000 0.040667 0.000000 0.000000
# 5 0.000000 0.000000 0.000000 0.000000 0.013500 0.000000
# 6 0.000000 0.000000 0.000000 0.000000 0.000000 0.025523
#
#
# Mechanical properties :
#
#
# Convention : Reuss Voigt Hill
#
# Bulk Modulus (GPa) = 45.95775 51.52804 48.74290
# Shear Modulus (GPa) = 35.28067 43.54562 39.41315
#
# Velocity S-wave (km/s) = 4.12470 4.58243 4.35958
# Velocity P-wave (km/s) = 6.69672 7.26955 6.98901
#
# Compressibility (1/GPa) = 0.02175911
#
# Stress axis : x y z
#
# Youngs Moduli (GPa) = 54.06072 126.21668 84.40266
#
# Poissons Ratio (x) = -0.08884 0.55319
# Poissons Ratio (y) = -0.03805 0.20294
# Poissons Ratio (z) = 0.35432 0.30348
#
# Static dielectric constant tensor:
#      x y z
#    x 1.782470 0.000000 0.000000 
#    y 0.000000 1.681130 0.000000 
#    z 0.000000 0.000000 1.776900 
# 
# From -- ./inp_files/22656.got.cif
#   From: 2010.05.17/outbox.cif.g08.bks.cpg/sg52_12_cif.got.tgz:22656.got - 2010.06.03 12:15:38.
