data_PCOD9411024
_publ_section_title
;
Structure prediction by ZEFSAII (Michael W. Deem and Ramdas Pophale) SiO2 
 PCOD9411024
Probable space group: P N N A
;
_chemical_formula_sum "Si O2"
_cell_formula_units_Z 40
_cell_length_a 10.112960
_cell_length_b 10.313629
_cell_length_c 19.857834
_cell_angle_alpha 90.000000
_cell_angle_beta 90.000000
_cell_angle_gamma 90.000000
_cell_volume 2071.198250
_symmetry_space_group_name_H-M "P N N A"
_symmetry_group_IT_number 52
_symmetry_cell_setting 'orthorhombic'
loop_
_space_group_symop_operation_xyz
x,y,z
1/2-x,-y,z
x,1/2-y,1/2-z
1/2-x,1/2+y,1/2-z
-x,-y,-z
1/2+x,y,-z
-x,1/2+y,1/2+z
1/2+x,1/2-y,1/2+z
loop_
_atom_site_type_symbol
_atom_site_label
_atom_site_fract_x
_atom_site_fract_y
_atom_site_fract_z
Si Si1 0.207913 0.646561 0.954427
Si Si2 0.365148 0.598655 0.251942
Si Si3 0.843187 0.124282 0.297240
Si Si4 0.522765 0.208793 0.018561
Si Si5 0.097039 0.012864 0.094766
O O1 0.250000 0.500000 0.966924
O O2 0.177442 0.659772 0.875196
O O3 0.331982 0.737042 0.970961
O O4 0.083783 0.683024 0.000342
O O5 0.250000 0.500000 0.229351
O O6 0.322407 0.750000 0.250000
O O7 0.502492 0.588013 0.212038
O O8 0.399968 0.560309 0.328842
O O9 0.817374 0.250000 0.250000
O O10 0.750000 0.000000 0.281236
O O11 0.473701 0.123882 0.081704
O O12 0.525893 0.114836 0.953649
O O13 0.250000 0.000000 0.072749
#
# Coordination Sequence:
#
# PCOD9411024 Si02
#       5
#     8   8   8   8   8
#     4  11  24  42  61  94 131 169 213 259 327 381
#     4  10  22  43  64  93 128 167 214 265 316 382
#     4  10  23  42  62  93 128 166 214 262 319 386
#     4  11  21  40  65  93 128 165 209 265 315 379
#     4  10  21  39  65  97 123 161 217 266 313 379
#
# _framework density 19.312493
#
# number of rings (size 3 to 8) (size 9 to 14) (size 15 to 20)
#    0.000    1.600    2.000    3.000    2.800    0.800 
#   10.800    2.000    0.000    0.000    0.000    0.000 
#    0.000    0.000    0.000    0.000    0.000    0.000 
#
# Total GULP energy -223425.056908 kJ/mol
# GULP energy per Si atom -5585.626423 kJ/mol
# Density = 1.926854 g / cm^3
# Si number density = 19.312493 Si / 1000 Ang^3
#
#
#
# Elastic Constant Matrix: (Units=GPa)
#
#
# Indices 1 2 3 4 5 6 
#
# 1 100.0594 29.2639 17.5212 0.0000 0.0000 0.0000
# 2 29.2639 75.6560 34.1042 0.0000 0.0000 0.0000
# 3 17.5212 34.1042 65.2581 0.0000 0.0000 0.0000
# 4 0.0000 0.0000 0.0000 16.6595 0.0000 0.0000
# 5 0.0000 0.0000 0.0000 0.0000 431.0983 0.0000
# 6 0.0000 0.0000 0.0000 0.0000 0.0000 18.6839
#
#
#
# Elastic Compliance Matrix: (Units=1/GPa)
#
#
# Indices 1 2 3 4 5 6 
#
# 1 0.011317 -0.003935 -0.000982 0.000000 0.000000 0.000000
# 2 -0.003935 0.018659 -0.008695 0.000000 0.000000 0.000000
# 3 -0.000982 -0.008695 0.020131 0.000000 0.000000 0.000000
# 4 0.000000 0.000000 0.000000 0.060026 0.000000 0.000000
# 5 0.000000 0.000000 0.000000 0.000000 0.002320 0.000000
# 6 0.000000 0.000000 0.000000 0.000000 0.000000 0.053522
#
#
# Mechanical properties :
#
#
# Convention : Reuss Voigt Hill
#
# Bulk Modulus (GPa) = 43.69882 44.75022 44.22452
# Shear Modulus (GPa) = 24.89711 103.96062 64.42886
#
# Velocity S-wave (km/s) = 3.59440 7.34490 5.78218
# Velocity P-wave (km/s) = 6.31685 9.75459 8.21750
#
# Compressibility (1/GPa) = 0.02288391
#
# Stress axis : x y z
#
# Youngs Moduli (GPa) = 88.36434 53.59305 49.67341
#
# Poissons Ratio (x) = 0.21087 0.04879
# Poissons Ratio (y) = 0.34768 0.43191
# Poissons Ratio (z) = 0.08679 0.46599
#
# Static dielectric constant tensor:
#      x y z
#    x 1.671400 0.000000 0.000000 
#    y 0.000000 1.690300 0.000000 
#    z 0.000000 0.000000 1.650900 
# 
# From -- ./inp_files/31967.got.cif
#   From: 2010.05.17/outbox.cif.g08.bks.cpg/sg52_16_cif.got.tgz:31967.got - 2010.06.03 12:15:38.
