data_PCOD9411837
_publ_section_title
;
Structure prediction by ZEFSAII (Michael W. Deem and Ramdas Pophale) SiO2 
 PCOD9411837
Probable space group: P N N A
;
_chemical_formula_sum "Si O2"
_cell_formula_units_Z 56
_cell_length_a 20.754832
_cell_length_b 5.044434
_cell_length_c 25.446647
_cell_angle_alpha 90.000000
_cell_angle_beta 90.000000
_cell_angle_gamma 90.000000
_cell_volume 2664.171829
_symmetry_space_group_name_H-M "P N N A"
_symmetry_group_IT_number 52
_symmetry_cell_setting 'orthorhombic'
loop_
_space_group_symop_operation_xyz
x,y,z
1/2-x,-y,z
x,1/2-y,1/2-z
1/2-x,1/2+y,1/2-z
-x,-y,-z
1/2+x,y,-z
-x,1/2+y,1/2+z
1/2+x,1/2-y,1/2+z
loop_
_atom_site_type_symbol
_atom_site_label
_atom_site_fract_x
_atom_site_fract_y
_atom_site_fract_z
Si Si1 0.250000 0.000000 0.836824
Si Si2 0.447310 0.416984 0.705210
Si Si3 0.373485 0.300459 0.603389
Si Si4 0.321548 0.999366 0.211975
Si Si5 0.058465 0.874199 0.141842
Si Si6 0.331686 0.750000 0.750000
Si Si7 0.586666 0.171045 0.457102
Si Si8 0.048673 0.113561 0.426583
O O1 0.306246 0.113071 0.872362
O O2 0.216653 0.220681 0.799116
O O3 0.483123 0.250000 0.750000
O O4 0.420185 0.263052 0.654184
O O5 0.496554 0.631850 0.680916
O O6 0.384103 0.525196 0.735385
O O7 0.401583 0.537802 0.566812
O O8 0.365586 0.032116 0.571182
O O9 0.325521 0.250000 0.250000
O O10 0.379603 0.016559 0.171734
O O11 0.250000 0.000000 0.187013
O O12 0.327336 0.750000 0.250000
O O13 0.075238 0.592406 0.116292
O O14 0.041490 0.096099 0.098207
O O15 0.588469 0.154232 0.519891
O O16 0.517989 0.036496 0.441738
#
# Coordination Sequence:
#
# PCOD9411837 Si02
#       8
#     4   8   8   8   8   4   8   8
#     4  10  26  40  64  88 128 190 226 264 320 390
#     4  11  25  37  61  93 134 166 214 273 319 380
#     4  11  24  42  66  89 127 171 222 267 323 382
#     4  10  22  41  64  92 131 171 204 240 303 390
#     4  12  23  39  66 101 127 168 206 266 325 388
#     4  10  26  42  56  90 132 180 226 266 320 368
#     4  11  22  44  66  93 124 163 210 280 328 389
#     4  11  23  40  68  97 126 159 210 267 344 380
#
# _framework density 21.019663999999999
#
# number of rings (size 3 to 8) (size 9 to 14) (size 15 to 20)
#    0.000    1.143    2.857    2.143   11.000    2.857 
#    0.000    0.000    9.429    0.000    0.000    0.000 
#    0.000    0.000    0.000    0.000    0.000    0.000 
#
# Total GULP energy -312713.482910 kJ/mol
# GULP energy per Si atom -5584.169338 kJ/mol
# Density = 2.097182 g / cm^3
# Si number density = 21.019664 Si / 1000 Ang^3
#
#
#
# Elastic Constant Matrix: (Units=GPa)
#
#
# Indices 1 2 3 4 5 6 
#
# 1 90.4743 -1.7403 37.7189 0.0000 0.0000 0.0000
# 2 -1.7403 108.6039 37.9174 0.0000 0.0000 0.0000
# 3 37.7189 37.9174 106.9548 0.0000 0.0000 0.0000
# 4 0.0000 0.0000 0.0000 32.6424 0.0000 0.0000
# 5 0.0000 0.0000 0.0000 0.0000 14.5623 0.0000
# 6 0.0000 0.0000 0.0000 0.0000 0.0000 13.6064
#
#
#
# Elastic Compliance Matrix: (Units=1/GPa)
#
#
# Indices 1 2 3 4 5 6 
#
# 1 0.013374 0.002124 -0.005469 0.000000 0.000000 0.000000
# 2 0.002124 0.010846 -0.004594 0.000000 0.000000 0.000000
# 3 -0.005469 -0.004594 0.012907 0.000000 0.000000 0.000000
# 4 0.000000 0.000000 0.000000 0.030635 0.000000 0.000000
# 5 0.000000 0.000000 0.000000 0.000000 0.068671 0.000000
# 6 0.000000 0.000000 0.000000 0.000000 0.000000 0.073495
#
#
# Mechanical properties :
#
#
# Convention : Reuss Voigt Hill
#
# Bulk Modulus (GPa) = 47.06372 50.42500 48.74436
# Shear Modulus (GPa) = 21.46946 27.63801 24.55374
#
# Velocity S-wave (km/s) = 3.19940 3.63004 3.42150
# Velocity P-wave (km/s) = 6.00726 6.45067 6.23291
#
# Compressibility (1/GPa) = 0.02124779
#
# Stress axis : x y z
#
# Youngs Moduli (GPa) = 74.77229 92.20211 77.47570
#
# Poissons Ratio (x) = -0.19583 0.42375
# Poissons Ratio (y) = -0.15881 0.35592
# Poissons Ratio (z) = 0.40896 0.42358
#
# Static dielectric constant tensor:
#      x y z
#    x 1.781230 0.000000 0.000000 
#    y 0.000000 1.792920 0.000000 
#    z 0.000000 0.000000 1.769940 
# 
# From -- ./inp_files/41026.got.cif
#   From: 2010.05.17/outbox.cif.g08.bks.cpg/sg52_21_cif.got.tgz:41026.got - 2010.06.03 12:15:38.
