data_PCOD9411183
_publ_section_title
;
Structure prediction by ZEFSAII (Michael W. Deem and Ramdas Pophale) SiO2 
 PCOD9411183
Probable space group: P N N A
;
_chemical_formula_sum "Si O2"
_cell_formula_units_Z 56
_cell_length_a 27.634738
_cell_length_b 15.840838
_cell_length_c 4.931128
_cell_angle_alpha 90.000000
_cell_angle_beta 90.000000
_cell_angle_gamma 90.000000
_cell_volume 2158.637811
_symmetry_space_group_name_H-M "P N N A"
_symmetry_group_IT_number 52
_symmetry_cell_setting 'orthorhombic'
loop_
_space_group_symop_operation_xyz
x,y,z
1/2-x,-y,z
x,1/2-y,1/2-z
1/2-x,1/2+y,1/2-z
-x,-y,-z
1/2+x,y,-z
-x,1/2+y,1/2+z
1/2+x,1/2-y,1/2+z
loop_
_atom_site_type_symbol
_atom_site_label
_atom_site_fract_x
_atom_site_fract_y
_atom_site_fract_z
Si Si1 0.095248 0.250000 0.750000
Si Si2 0.785468 0.172065 0.544876
Si Si3 0.698070 0.502165 0.628393
Si Si4 0.054272 0.890277 0.688863
Si Si5 0.051174 0.341705 0.325718
Si Si6 0.409696 0.018761 0.147509
Si Si7 0.316687 0.828847 0.456346
Si Si8 0.874655 0.250000 0.250000
O O1 0.056616 0.321294 0.642549
O O2 0.136928 0.183151 0.642763
O O3 0.778457 0.250000 0.750000
O O4 0.734822 0.170462 0.383155
O O5 0.836437 0.196384 0.419528
O O6 0.792004 0.080436 0.672044
O O7 0.750000 0.500000 0.470243
O O8 0.644588 0.525233 0.520767
O O9 0.688185 0.414384 0.782065
O O10 0.075844 0.920025 0.399779
O O11 0.088426 0.822058 0.843807
O O12 0.000966 0.851502 0.694140
O O13 0.054124 0.967349 0.897550
O O14 0.074117 0.250000 0.250000
O O15 0.081442 0.423526 0.255876
O O16 0.318986 0.750000 0.250000
#
# Coordination Sequence:
#
# PCOD9411183 Si02
#       8
#     4   8   8   8   8   8   8   4
#     4  12  25  42  74 102 144 194 245 312 376 454
#     4  10  21  40  68 102 145 187 247 303 377 448
#     4  10  21  42  71 105 148 193 245 303 371 452
#     4  12  29  49  77 106 151 196 255 314 377 445
#     4  12  29  48  74 107 146 197 255 313 378 448
#     4  12  27  51  76 111 151 199 248 313 381 448
#     4  10  22  43  67 105 146 193 242 304 376 454
#     4  12  23  42  74 104 144 194 249 312 378 444
#
# _framework density 25.942287
#
# number of rings (size 3 to 8) (size 9 to 14) (size 15 to 20)
#    0.000    0.857    2.143    4.286    6.000    0.000 
#    0.000    2.143    0.000    0.000    0.000    0.000 
#    0.000    0.000    0.000    0.000    0.000    0.000 
#
# Total GULP energy -311950.268338 kJ/mol
# GULP energy per Si atom -5570.540506 kJ/mol
# Density = 2.588324 g / cm^3
# Si number density = 25.942287 Si / 1000 Ang^3
#
#
#
# Elastic Constant Matrix: (Units=GPa)
#
#
# Indices 1 2 3 4 5 6 
#
# 1 187.1112 15.5629 22.9607 0.0000 0.0000 0.0000
# 2 15.5629 151.6928 19.4008 0.0000 0.0000 0.0000
# 3 22.9607 19.4008 37.8830 0.0000 0.0000 0.0000
# 4 0.0000 0.0000 0.0000 44.4831 0.0000 0.0000
# 5 0.0000 0.0000 0.0000 0.0000 -2.2688 0.0000
# 6 0.0000 0.0000 0.0000 0.0000 0.0000 41.2546
#
#
#
# Elastic Compliance Matrix: (Units=1/GPa)
#
#
# Indices 1 2 3 4 5 6 
#
# 1 0.005777 -0.000155 -0.003422 0.000000 0.000000 0.000000
# 2 -0.000155 0.007058 -0.003521 0.000000 0.000000 0.000000
# 3 -0.003422 -0.003521 0.030274 0.000000 0.000000 0.000000
# 4 0.000000 0.000000 0.000000 0.022480 0.000000 0.000000
# 5 0.000000 0.000000 0.000000 0.000000 -0.440758 0.000000
# 6 0.000000 0.000000 0.000000 0.000000 0.000000 0.024240
#
#
# Mechanical properties :
#
#
# Convention : Reuss Voigt Hill
#
# Bulk Modulus (GPa) = 34.58535 54.72620 44.65577
# Shear Modulus (GPa) = -15.28616 37.94461 11.32923
#
# Velocity S-wave (km/s) = -2.43005 3.82862 2.09203
# Velocity P-wave (km/s) = 2.34244 6.37852 4.80482
#
# Compressibility (1/GPa) = 0.02891398
#
# Stress axis : x y z
#
# Youngs Moduli (GPa) = 173.09277 141.67361 33.03125
#
# Poissons Ratio (x) = 0.02196 0.11304
# Poissons Ratio (y) = 0.02684 0.11630
# Poissons Ratio (z) = 0.59235 0.49881
#
# Static dielectric constant tensor:
#      x y z
#    x 2.077320 0.000000 0.000000 
#    y 0.000000 1.058060 0.000000 
#    z 0.000000 0.000000 1.799290 
# 
# From -- ./inp_files/6461.got.cif
#   From: 2010.05.17/outbox.cif.g08.bks.cpg/sg52_4_cif.got.tgz:6461.got - 2010.06.03 12:15:38.
