data_PCOD9411442
_publ_section_title
;
Structure prediction by ZEFSAII (Michael W. Deem and Ramdas Pophale) SiO2 
 PCOD9411442
Probable space group: P N N A
;
_chemical_formula_sum "Si O2"
_cell_formula_units_Z 40
_cell_length_a 11.811961
_cell_length_b 12.710552
_cell_length_c 12.159308
_cell_angle_alpha 90.000000
_cell_angle_beta 90.000000
_cell_angle_gamma 90.000000
_cell_volume 1825.556487
_symmetry_space_group_name_H-M "P N N A"
_symmetry_group_IT_number 52
_symmetry_cell_setting 'orthorhombic'
loop_
_space_group_symop_operation_xyz
x,y,z
1/2-x,-y,z
x,1/2-y,1/2-z
1/2-x,1/2+y,1/2-z
-x,-y,-z
1/2+x,y,-z
-x,1/2+y,1/2+z
1/2+x,1/2-y,1/2+z
loop_
_atom_site_type_symbol
_atom_site_label
_atom_site_fract_x
_atom_site_fract_y
_atom_site_fract_z
Si Si1 0.950051 0.132155 0.299402
Si Si2 0.689501 0.375155 0.226987
Si Si3 0.511138 0.160525 0.451107
Si Si4 0.490892 0.597047 0.583584
Si Si5 0.627308 0.955838 0.731353
O O1 0.959102 0.250000 0.250000
O O2 0.820741 0.094054 0.280969
O O3 0.979191 0.123698 0.428274
O O4 0.044523 0.055831 0.250321
O O5 0.692323 0.250000 0.250000
O O6 0.623285 0.383609 0.110509
O O7 0.613320 0.413651 0.329892
O O8 0.522615 0.286247 0.464451
O O9 0.416118 0.119829 0.365590
O O10 0.500000 0.500000 0.500000
O O11 0.606869 0.604215 0.654506
O O12 0.750000 0.000000 0.710866
#
# Coordination Sequence:
#
# PCOD9411442 Si02
#       5
#     8   8   8   8   8
#     4  11  23  41  67 101 131 176 236 282 336 418
#     4   8  19  40  66  96 130 171 224 286 339 408
#     4  10  22  42  68  92 136 176 224 283 350 405
#     4  10  21  45  69  98 131 177 227 285 353 410
#     4  11  25  43  62  99 139 180 225 277 347 418
#
# _framework density 21.911127
#
# number of rings (size 3 to 8) (size 9 to 14) (size 15 to 20)
#    0.000    2.000    0.000    3.600    2.800    4.800 
#   14.400    2.000    0.000    0.000    0.000    0.000 
#    0.000    0.000    0.000    0.000    0.000    0.000 
#
# Total GULP energy -223248.096734 kJ/mol
# GULP energy per Si atom -5581.202418 kJ/mol
# Density = 2.186126 g / cm^3
# Si number density = 21.911127 Si / 1000 Ang^3
#
#
#
# Elastic Constant Matrix: (Units=GPa)
#
#
# Indices 1 2 3 4 5 6 
#
# 1 144.7939 46.7454 15.6373 0.0000 0.0000 0.0000
# 2 46.7454 105.8932 17.3395 0.0000 0.0000 0.0000
# 3 15.6373 17.3395 81.8128 0.0000 0.0000 0.0000
# 4 0.0000 0.0000 0.0000 48.4498 0.0000 0.0000
# 5 0.0000 0.0000 0.0000 0.0000 5.7278 0.0000
# 6 0.0000 0.0000 0.0000 0.0000 0.0000 40.3370
#
#
#
# Elastic Compliance Matrix: (Units=1/GPa)
#
#
# Indices 1 2 3 4 5 6 
#
# 1 0.008107 -0.003445 -0.000819 0.000000 0.000000 0.000000
# 2 -0.003445 0.011247 -0.001725 0.000000 0.000000 0.000000
# 3 -0.000819 -0.001725 0.012745 0.000000 0.000000 0.000000
# 4 0.000000 0.000000 0.000000 0.020640 0.000000 0.000000
# 5 0.000000 0.000000 0.000000 0.000000 0.174586 0.000000
# 6 0.000000 0.000000 0.000000 0.000000 0.000000 0.024791
#
#
# Mechanical properties :
#
#
# Convention : Reuss Voigt Hill
#
# Bulk Modulus (GPa) = 49.70115 54.66049 52.18082
# Shear Modulus (GPa) = 18.46371 35.75476 27.10924
#
# Velocity S-wave (km/s) = 2.90602 4.04395 3.52125
# Velocity P-wave (km/s) = 5.83028 6.84144 6.35600
#
# Compressibility (1/GPa) = 0.02012026
#
# Stress axis : x y z
#
# Youngs Moduli (GPa) = 123.35173 88.91638 78.46029
#
# Poissons Ratio (x) = 0.30627 0.06430
# Poissons Ratio (y) = 0.42489 0.13536
# Poissons Ratio (z) = 0.10108 0.15340
#
# Static dielectric constant tensor:
#      x y z
#    x 1.797460 0.000000 0.000000 
#    y 0.000000 1.918250 0.000000 
#    z 0.000000 0.000000 1.755930 
# 
# From -- ./inp_files/17977.got.cif
#   From: 2010.05.17/outbox.cif.g08.bks.cpg/sg52_9_cif.got.tgz:17977.got - 2010.06.03 12:15:38.
