data_PCOD9411851
_publ_section_title
;
Structure prediction by ZEFSAII (Michael W. Deem and Ramdas Pophale) SiO2 
 PCOD9411851
Probable space group: P N N A
;
_chemical_formula_sum "Si O2"
_cell_formula_units_Z 60
_cell_length_a 27.544793
_cell_length_b 7.755780
_cell_length_c 12.728630
_cell_angle_alpha 90.000000
_cell_angle_beta 90.000000
_cell_angle_gamma 90.000000
_cell_volume 2719.234470
_symmetry_space_group_name_H-M "P N N A"
_symmetry_group_IT_number 52
_symmetry_cell_setting 'orthorhombic'
loop_
_space_group_symop_operation_xyz
x,y,z
1/2-x,-y,z
x,1/2-y,1/2-z
1/2-x,1/2+y,1/2-z
-x,-y,-z
1/2+x,y,-z
-x,1/2+y,1/2+z
1/2+x,1/2-y,1/2+z
loop_
_atom_site_type_symbol
_atom_site_label
_atom_site_fract_x
_atom_site_fract_y
_atom_site_fract_z
Si Si1 0.230857 0.175454 0.925799
Si Si2 0.107267 0.908245 0.680103
Si Si3 0.348194 0.750000 0.750000
Si Si4 0.820257 0.112430 0.512123
Si Si5 0.574467 0.217324 0.632885
Si Si6 0.480241 0.185061 0.537500
Si Si7 0.316026 0.748904 0.372751
Si Si8 0.905919 0.305170 0.868678
O O1 0.188053 0.244048 0.850667
O O2 0.250000 0.000000 0.874456
O O3 0.275351 0.303505 0.950982
O O4 0.210468 0.132642 0.041777
O O5 0.125281 0.750000 0.750000
O O6 0.139503 0.927128 0.575836
O O7 0.053747 0.858438 0.637940
O O8 0.117100 0.083569 0.742883
O O9 0.851018 0.231391 0.592703
O O10 0.808009 0.940447 0.577869
O O11 0.557164 0.250000 0.750000
O O12 0.530720 0.279650 0.560529
O O13 0.627179 0.300043 0.620864
O O14 0.585922 0.012696 0.624241
O O15 0.445657 0.267363 0.449652
O O16 0.500000 0.000000 0.500000
O O17 0.301758 0.750000 0.250000
O O18 0.913423 0.250000 0.750000
#
# Coordination Sequence:
#
# PCOD9411851 Si02
#       8
#     8   8   4   8   8   8   8   8
#     4  12  27  41  64 101 131 179 233 291 357 428
#     4  11  23  44  71 101 139 188 231 291 361 430
#     4  12  28  44  70 104 146 182 238 298 358 436
#     4  10  22  42  65  87 133 176 220 285 350 407
#     4   9  18  36  61  87 123 170 210 271 341 406
#     4   9  19  38  66  91 134 177 219 277 359 419
#     4  10  22  41  65  93 130 181 230 280 352 419
#     4   9  19  36  60  88 118 167 215 267 332 405
#
# _framework density 22.065035000000002
#
# number of rings (size 3 to 8) (size 9 to 14) (size 15 to 20)
#    0.000    1.867    1.333    2.400    2.800    4.800 
#    4.800    0.667    0.000    0.000    0.000    0.000 
#    0.000    0.000    0.000    0.000    0.000    0.000 
#
# Total GULP energy -334684.000116 kJ/mol
# GULP energy per Si atom -5578.066669 kJ/mol
# Density = 2.201481 g / cm^3
# Si number density = 22.065035 Si / 1000 Ang^3
#
#
#
# Elastic Constant Matrix: (Units=GPa)
#
#
# Indices 1 2 3 4 5 6 
#
# 1 61.9456 4.8342 27.5379 0.0000 0.0000 0.0000
# 2 4.8342 67.1222 22.8530 0.0000 0.0000 0.0000
# 3 27.5379 22.8530 101.1552 0.0000 0.0000 0.0000
# 4 0.0000 0.0000 0.0000 29.1262 0.0000 0.0000
# 5 0.0000 0.0000 0.0000 0.0000 9.4965 0.0000
# 6 0.0000 0.0000 0.0000 0.0000 0.0000 15.4846
#
#
#
# Elastic Compliance Matrix: (Units=1/GPa)
#
#
# Indices 1 2 3 4 5 6 
#
# 1 0.018376 0.000411 -0.005096 0.000000 0.000000 0.000000
# 2 0.000411 0.016149 -0.003760 0.000000 0.000000 0.000000
# 3 -0.005096 -0.003760 0.012123 0.000000 0.000000 0.000000
# 4 0.000000 0.000000 0.000000 0.034333 0.000000 0.000000
# 5 0.000000 0.000000 0.000000 0.000000 0.105302 0.000000
# 6 0.000000 0.000000 0.000000 0.000000 0.000000 0.064580
#
#
# Mechanical properties :
#
#
# Convention : Reuss Voigt Hill
#
# Bulk Modulus (GPa) = 33.60370 37.85259 35.72814
# Shear Modulus (GPa) = 18.00686 22.48799 20.24742
#
# Velocity S-wave (km/s) = 2.85981 3.19591 3.03252
# Velocity P-wave (km/s) = 5.11538 5.55074 5.33750
#
# Compressibility (1/GPa) = 0.02975862
#
# Stress axis : x y z
#
# Youngs Moduli (GPa) = 54.41780 61.92388 82.49097
#
# Poissons Ratio (x) = -0.02548 0.42034
# Poissons Ratio (y) = -0.02239 0.31020
# Poissons Ratio (z) = 0.27729 0.23286
#
# Static dielectric constant tensor:
#      x y z
#    x 1.887380 0.000000 0.000000 
#    y 0.000000 2.091810 0.000000 
#    z 0.000000 0.000000 1.833010 
# 
# From -- ./inp_files/22911.got.cif
#   From: 2010.05.17/outbox.cif.g08.bks.cpg/sg52_12_cif.got.tgz:22911.got - 2010.06.03 12:15:38.
