data_PCOD9411445
_publ_section_title
;
Structure prediction by ZEFSAII (Michael W. Deem and Ramdas Pophale) SiO2 
 PCOD9411445
Probable space group: P N N A
;
_chemical_formula_sum "Si O2"
_cell_formula_units_Z 28
_cell_length_a 17.468676
_cell_length_b 6.780256
_cell_length_c 9.801453
_cell_angle_alpha 90.000000
_cell_angle_beta 90.000000
_cell_angle_gamma 90.000000
_cell_volume 1160.904630
_symmetry_space_group_name_H-M "P N N A"
_symmetry_group_IT_number 52
_symmetry_cell_setting 'orthorhombic'
loop_
_space_group_symop_operation_xyz
x,y,z
1/2-x,-y,z
x,1/2-y,1/2-z
1/2-x,1/2+y,1/2-z
-x,-y,-z
1/2+x,y,-z
-x,1/2+y,1/2+z
1/2+x,1/2-y,1/2+z
loop_
_atom_site_type_symbol
_atom_site_label
_atom_site_fract_x
_atom_site_fract_y
_atom_site_fract_z
Si Si1 0.250000 0.500000 0.616463
Si Si2 0.623555 0.250000 0.250000
Si Si3 0.498087 0.737654 0.518074
Si Si4 0.157270 0.644960 0.376951
Si Si5 0.917505 0.750000 0.750000
O O1 0.319020 0.577648 0.706979
O O2 0.210855 0.647272 0.508665
O O3 0.568570 0.209825 0.376823
O O4 0.500000 0.500000 0.500000
O O5 0.581468 0.767470 0.581938
O O6 0.474219 0.821815 0.371389
O O7 0.196087 0.750000 0.250000
O O8 0.131076 0.426490 0.322385
#
# Coordination Sequence:
#
# PCOD9411445 Si02
#       5
#     4   4   8   8   4
#     4  12  28  44  68 114 158 194 256 322 406 446
#     4  12  24  47  73 106 160 192 250 328 380 465
#     4  10  21  45  72 102 140 195 254 304 364 461
#     4  11  25  46  72 108 148 199 258 310 380 461
#     4  10  22  43  75 102 140 188 250 312 370 453
#
# _framework density 24.119122999999998
#
# number of rings (size 3 to 8) (size 9 to 14) (size 15 to 20)
#    0.000    1.143    7.143    0.000    2.000    4.571 
#    0.000    0.000    0.000    0.000    0.000    0.000 
#    0.000    0.000    0.000    0.000    0.000    0.000 
#
# Total GULP energy -156500.989479 kJ/mol
# GULP energy per Si atom -5589.321053 kJ/mol
# Density = 2.406423 g / cm^3
# Si number density = 24.119123 Si / 1000 Ang^3
#
#
#
# Elastic Constant Matrix: (Units=GPa)
#
#
# Indices 1 2 3 4 5 6 
#
# 1 150.2119 15.4485 68.2240 0.0000 0.0000 0.0000
# 2 15.4485 76.6789 10.9355 0.0000 0.0000 0.0000
# 3 68.2240 10.9355 173.2901 0.0000 0.0000 0.0000
# 4 0.0000 0.0000 0.0000 44.2575 0.0000 0.0000
# 5 0.0000 0.0000 0.0000 0.0000 16.3051 0.0000
# 6 0.0000 0.0000 0.0000 0.0000 0.0000 64.3756
#
#
#
# Elastic Compliance Matrix: (Units=1/GPa)
#
#
# Indices 1 2 3 4 5 6 
#
# 1 0.008216 -0.001205 -0.003158 0.000000 0.000000 0.000000
# 2 -0.001205 0.013337 -0.000367 0.000000 0.000000 0.000000
# 3 -0.003158 -0.000367 0.007037 0.000000 0.000000 0.000000
# 4 0.000000 0.000000 0.000000 0.022595 0.000000 0.000000
# 5 0.000000 0.000000 0.000000 0.000000 0.061330 0.000000
# 6 0.000000 0.000000 0.000000 0.000000 0.000000 0.015534
#
#
# Mechanical properties :
#
#
# Convention : Reuss Voigt Hill
#
# Bulk Modulus (GPa) = 52.27809 65.48852 58.88330
# Shear Modulus (GPa) = 34.74972 45.35918 40.05445
#
# Velocity S-wave (km/s) = 3.79984 4.34133 4.07958
# Velocity P-wave (km/s) = 6.40108 7.23468 6.83061
#
# Compressibility (1/GPa) = 0.01912847
#
# Stress axis : x y z
#
# Youngs Moduli (GPa) = 121.71814 74.98217 142.09929
#
# Poissons Ratio (x) = 0.09034 0.44882
# Poissons Ratio (y) = 0.14664 0.05219
# Poissons Ratio (z) = 0.38444 0.02754
#
# Static dielectric constant tensor:
#      x y z
#    x 1.916780 0.000000 0.000000 
#    y 0.000000 2.119090 0.000000 
#    z 0.000000 0.000000 1.975760 
# 
# From -- ./inp_files/11409.got.cif
#   From: 2010.05.17/outbox.cif.g08.bks.cpg/sg52_6_cif.got.tgz:11409.got - 2010.06.03 12:15:38.
