data_PCOD9411839
_publ_section_title
;
Structure prediction by ZEFSAII (Michael W. Deem and Ramdas Pophale) SiO2 
 PCOD9411839
Probable space group: P N N A
;
_chemical_formula_sum "Si O2"
_cell_formula_units_Z 56
_cell_length_a 16.395686
_cell_length_b 11.251787
_cell_length_c 14.785039
_cell_angle_alpha 90.000000
_cell_angle_beta 90.000000
_cell_angle_gamma 90.000000
_cell_volume 2727.555329
_symmetry_space_group_name_H-M "P N N A"
_symmetry_group_IT_number 52
_symmetry_cell_setting 'orthorhombic'
loop_
_space_group_symop_operation_xyz
x,y,z
1/2-x,-y,z
x,1/2-y,1/2-z
1/2-x,1/2+y,1/2-z
-x,-y,-z
1/2+x,y,-z
-x,1/2+y,1/2+z
1/2+x,1/2-y,1/2+z
loop_
_atom_site_type_symbol
_atom_site_label
_atom_site_fract_x
_atom_site_fract_y
_atom_site_fract_z
Si Si1 0.547849 0.597693 0.826559
Si Si2 0.578281 0.740595 0.502457
Si Si3 0.698380 0.187252 0.847728
Si Si4 0.130981 0.079832 0.632902
Si Si5 0.626768 0.569047 0.635894
Si Si6 0.082776 0.366003 0.063938
Si Si7 0.305417 0.181875 0.656638
O O1 0.585455 0.675554 0.908056
O O2 0.451500 0.622937 0.820055
O O3 0.587640 0.612732 0.729470
O O4 0.560488 0.461647 0.859839
O O5 0.577871 0.610364 0.547335
O O6 0.494496 0.781925 0.455537
O O7 0.649430 0.759045 0.429115
O O8 0.701997 0.250000 0.750000
O O9 0.786157 0.135083 0.872806
O O10 0.660641 0.287596 0.911181
O O11 0.640794 0.071266 0.852641
O O12 0.103881 0.066281 0.528504
O O13 0.208568 0.165622 0.640513
O O14 0.158103 0.950640 0.666062
O O15 0.319737 0.250000 0.750000
#
# Coordination Sequence:
#
# PCOD9411839 Si02
#       7
#     8   8   8   8   8   8   8
#     4  11  20  42  68 100 132 174 221 274 327 403
#     4  11  22  41  65 100 129 172 227 270 336 391
#     4  11  23  42  61  96 134 172 217 262 341 399
#     4  10  22  41  64  95 126 169 233 267 321 390
#     4  11  25  40  65 100 137 169 212 278 337 398
#     4  11  21  40  70  95 129 175 224 274 323 402
#     4  11  23  40  63  94 130 176 224 279 325 388
#
# _framework density 20.531206000000001
#
# number of rings (size 3 to 8) (size 9 to 14) (size 15 to 20)
#    0.000    1.143    4.286    3.000    0.000    4.571 
#    0.000    5.714    0.000    0.000    0.000    0.000 
#    0.000    0.000    0.000    0.000    0.000    0.000 
#
# Total GULP energy -312910.073207 kJ/mol
# GULP energy per Si atom -5587.679879 kJ/mol
# Density = 2.048448 g / cm^3
# Si number density = 20.531206 Si / 1000 Ang^3
#
#
#
# Elastic Constant Matrix: (Units=GPa)
#
#
# Indices 1 2 3 4 5 6 
#
# 1 91.5036 22.0786 48.6209 0.0000 0.0000 0.0000
# 2 22.0786 67.7265 22.3064 0.0000 0.0000 0.0000
# 3 48.6209 22.3064 93.2033 0.0000 0.0000 0.0000
# 4 0.0000 0.0000 0.0000 40.8551 0.0000 0.0000
# 5 0.0000 0.0000 0.0000 0.0000 31.4775 0.0000
# 6 0.0000 0.0000 0.0000 0.0000 0.0000 21.6443
#
#
#
# Elastic Compliance Matrix: (Units=1/GPa)
#
#
# Indices 1 2 3 4 5 6 
#
# 1 0.015530 -0.002599 -0.007479 0.000000 0.000000 0.000000
# 2 -0.002599 0.016464 -0.002584 0.000000 0.000000 0.000000
# 3 -0.007479 -0.002584 0.015249 0.000000 0.000000 0.000000
# 4 0.000000 0.000000 0.000000 0.024477 0.000000 0.000000
# 5 0.000000 0.000000 0.000000 0.000000 0.031769 0.000000
# 6 0.000000 0.000000 0.000000 0.000000 0.000000 0.046202
#
#
# Mechanical properties :
#
#
# Convention : Reuss Voigt Hill
#
# Bulk Modulus (GPa) = 45.62614 48.71612 47.17113
# Shear Modulus (GPa) = 27.42405 29.42389 28.42397
#
# Velocity S-wave (km/s) = 3.65872 3.78978 3.72483
# Velocity P-wave (km/s) = 6.33399 6.55204 6.44394
#
# Compressibility (1/GPa) = 0.02191726
#
# Stress axis : x y z
#
# Youngs Moduli (GPa) = 64.39205 60.73933 65.57627
#
# Poissons Ratio (x) = 0.15788 0.49046
# Poissons Ratio (y) = 0.16737 0.16947
# Poissons Ratio (z) = 0.48161 0.15697
#
# Static dielectric constant tensor:
#      x y z
#    x 1.743140 0.000000 0.000000 
#    y 0.000000 1.763160 0.000000 
#    z 0.000000 0.000000 1.698640 
# 
# From -- ./inp_files/27291.got.cif
#   From: 2010.05.17/outbox.cif.g08.bks.cpg/sg52_14_cif.got.tgz:27291.got - 2010.06.03 12:15:38.
