data_PCOD9411260
_publ_section_title
;
Structure prediction by ZEFSAII (Michael W. Deem and Ramdas Pophale) SiO2 
 PCOD9411260
Probable space group: P N N A
;
_chemical_formula_sum "Si O2"
_cell_formula_units_Z 40
_cell_length_a 12.254618
_cell_length_b 13.997289
_cell_length_c 9.750949
_cell_angle_alpha 90.000000
_cell_angle_beta 90.000000
_cell_angle_gamma 90.000000
_cell_volume 1672.594223
_symmetry_space_group_name_H-M "P N N A"
_symmetry_group_IT_number 52
_symmetry_cell_setting 'orthorhombic'
loop_
_space_group_symop_operation_xyz
x,y,z
1/2-x,-y,z
x,1/2-y,1/2-z
1/2-x,1/2+y,1/2-z
-x,-y,-z
1/2+x,y,-z
-x,1/2+y,1/2+z
1/2+x,1/2-y,1/2+z
loop_
_atom_site_type_symbol
_atom_site_label
_atom_site_fract_x
_atom_site_fract_y
_atom_site_fract_z
Si Si1 0.862803 0.224401 0.901818
Si Si2 0.127717 0.973592 0.199160
Si Si3 0.989216 0.363831 0.235051
Si Si4 0.971814 0.873570 0.419768
Si Si5 0.744887 0.664793 0.156019
O O1 0.817866 0.250000 0.750000
O O2 0.861132 0.110316 0.913513
O O3 0.987108 0.263281 0.909077
O O4 0.800083 0.284793 0.017157
O O5 0.058631 0.924056 0.320987
O O6 0.250000 0.000000 0.242759
O O7 0.060558 0.069728 0.166254
O O8 0.007976 0.250000 0.250000
O O9 0.858795 0.377794 0.235508
O O10 0.020816 0.393034 0.080372
O O11 0.849689 0.897455 0.375669
O O12 0.787248 0.750000 0.250000
#
# Coordination Sequence:
#
# PCOD9411260 Si02
#       5
#     8   8   8   8   8
#     4   9  21  41  66  97 126 176 221 274 333 396
#     4  11  24  39  66 101 129 172 232 279 329 404
#     4  10  24  40  63  96 133 178 223 279 338 403
#     4  10  22  41  69  92 133 178 223 278 340 411
#     4  10  21  41  67  94 129 173 219 269 342 399
#
# _framework density 23.914947000000002
#
# number of rings (size 3 to 8) (size 9 to 14) (size 15 to 20)
#    0.000    2.000    0.000    2.400   11.200    0.800 
#    0.000    9.000   13.200    0.000    0.000    0.000 
#    0.000    0.000    0.000    0.000    0.000    0.000 
#
# Total GULP energy -223368.309269 kJ/mol
# GULP energy per Si atom -5584.207732 kJ/mol
# Density = 2.386052 g / cm^3
# Si number density = 23.914947 Si / 1000 Ang^3
#
#
#
# Elastic Constant Matrix: (Units=GPa)
#
#
# Indices 1 2 3 4 5 6 
#
# 1 169.0729 57.6150 6.4837 0.0000 0.0000 0.0000
# 2 57.6150 116.7326 -4.6611 0.0000 0.0000 0.0000
# 3 6.4837 -4.6611 65.6260 0.0000 0.0000 0.0000
# 4 0.0000 0.0000 0.0000 29.3984 0.0000 0.0000
# 5 0.0000 0.0000 0.0000 0.0000 24.7717 0.0000
# 6 0.0000 0.0000 0.0000 0.0000 0.0000 24.4052
#
#
#
# Elastic Compliance Matrix: (Units=1/GPa)
#
#
# Indices 1 2 3 4 5 6 
#
# 1 0.007171 -0.003578 -0.000963 0.000000 0.000000 0.000000
# 2 -0.003578 0.010376 0.001090 0.000000 0.000000 0.000000
# 3 -0.000963 0.001090 0.015410 0.000000 0.000000 0.000000
# 4 0.000000 0.000000 0.000000 0.034016 0.000000 0.000000
# 5 0.000000 0.000000 0.000000 0.000000 0.040369 0.000000
# 6 0.000000 0.000000 0.000000 0.000000 0.000000 0.040975
#
#
# Mechanical properties :
#
#
# Convention : Reuss Voigt Hill
#
# Bulk Modulus (GPa) = 38.37669 52.25630 45.31649
# Shear Modulus (GPa) = 30.50616 35.18131 32.84374
#
# Velocity S-wave (km/s) = 3.57544 3.83966 3.70990
# Velocity P-wave (km/s) = 5.75561 6.44636 6.11076
#
# Compressibility (1/GPa) = 0.02605749
#
# Stress axis : x y z
#
# Youngs Moduli (GPa) = 139.45708 96.37706 64.89120
#
# Poissons Ratio (x) = 0.34480 0.06246
# Poissons Ratio (y) = 0.49892 -0.07076
# Poissons Ratio (z) = 0.13423 -0.10509
#
# Static dielectric constant tensor:
#      x y z
#    x 1.924970 0.000000 0.000000 
#    y 0.000000 2.074550 0.000000 
#    z 0.000000 0.000000 1.936270 
# 
# From -- ./inp_files/18022.got.cif
#   From: 2010.05.17/outbox.cif.g08.bks.cpg/sg52_10_cif.got.tgz:18022.got - 2010.06.03 12:15:38.
