data_PCOD9411647
_publ_section_title
;
Structure prediction by ZEFSAII (Michael W. Deem and Ramdas Pophale) SiO2 
 PCOD9411647
Probable space group: P N N A
;
_chemical_formula_sum "Si O2"
_cell_formula_units_Z 60
_cell_length_a 19.120690
_cell_length_b 25.426547
_cell_length_c 5.235992
_cell_angle_alpha 90.000000
_cell_angle_beta 90.000000
_cell_angle_gamma 90.000000
_cell_volume 2545.598582
_symmetry_space_group_name_H-M "P N N A"
_symmetry_group_IT_number 52
_symmetry_cell_setting 'orthorhombic'
loop_
_space_group_symop_operation_xyz
x,y,z
1/2-x,-y,z
x,1/2-y,1/2-z
1/2-x,1/2+y,1/2-z
-x,-y,-z
1/2+x,y,-z
-x,1/2+y,1/2+z
1/2+x,1/2-y,1/2+z
loop_
_atom_site_type_symbol
_atom_site_label
_atom_site_fract_x
_atom_site_fract_y
_atom_site_fract_z
Si Si1 0.693369 0.647350 0.155961
Si Si2 0.141585 0.531046 0.874622
Si Si3 0.271181 0.854901 0.155098
Si Si4 0.018375 0.250000 0.750000
Si Si5 0.087131 0.308081 0.129925
Si Si6 0.344866 0.962011 0.133062
Si Si7 0.951890 0.335536 0.406203
Si Si8 0.503187 0.943132 0.132986
O O1 0.684493 0.584242 0.164091
O O2 0.750525 0.662646 0.370346
O O3 0.620112 0.669330 0.256474
O O4 0.712652 0.659824 0.864645
O O5 0.154876 0.491449 0.638730
O O6 0.059113 0.547573 0.860953
O O7 0.160409 0.503205 0.137540
O O8 0.341791 0.831415 0.272406
O O9 0.286378 0.917231 0.145462
O O10 0.966851 0.284445 0.574374
O O11 0.072876 0.204311 0.663800
O O12 0.081932 0.250000 0.250000
O O13 0.016656 0.337113 0.211015
O O14 0.420845 0.934569 0.176866
O O15 0.960825 0.394563 0.523533
O O16 0.500000 0.000000 0.000000
#
# Coordination Sequence:
#
# PCOD9411647 Si02
#       8
#     8   8   8   4   8   8   8   8
#     4  11  27  44  66 103 147 187 227 288 355 421
#     4  10  22  39  61  95 141 184 232 280 335 413
#     4  12  26  44  68 103 141 183 232 287 361 418
#     4  10  24  44  80 100 128 182 248 296 366 410
#     4  10  24  46  72 101 130 175 235 295 353 418
#     4  11  21  38  65  96 135 186 235 278 341 416
#     4  10  22  47  71 101 139 181 241 292 349 435
#     4   9  19  37  63 102 137 174 230 294 350 404
#
# _framework density 23.570094999999998
#
# number of rings (size 3 to 8) (size 9 to 14) (size 15 to 20)
#    0.000    1.600    1.333    2.000    5.600    5.333 
#    6.000    0.000    0.000    0.000    0.000    0.000 
#    0.000    0.000    0.000    0.000    0.000    0.000 
#
# Total GULP energy -334940.320585 kJ/mol
# GULP energy per Si atom -5582.338676 kJ/mol
# Density = 2.351645 g / cm^3
# Si number density = 23.570095 Si / 1000 Ang^3
#
#
#
# Elastic Constant Matrix: (Units=GPa)
#
#
# Indices 1 2 3 4 5 6 
#
# 1 67.8363 3.6243 2.7645 0.0000 0.0000 0.0000
# 2 3.6243 49.7848 3.6074 0.0000 0.0000 0.0000
# 3 2.7645 3.6074 64.6766 0.0000 0.0000 0.0000
# 4 0.0000 0.0000 0.0000 18.6218 0.0000 0.0000
# 5 0.0000 0.0000 0.0000 0.0000 24.8361 0.0000
# 6 0.0000 0.0000 0.0000 0.0000 0.0000 17.4890
#
#
#
# Elastic Compliance Matrix: (Units=1/GPa)
#
#
# Indices 1 2 3 4 5 6 
#
# 1 0.014820 -0.001037 -0.000576 0.000000 0.000000 0.000000
# 2 -0.001037 0.020241 -0.001085 0.000000 0.000000 0.000000
# 3 -0.000576 -0.001085 0.015547 0.000000 0.000000 0.000000
# 4 0.000000 0.000000 0.000000 0.053700 0.000000 0.000000
# 5 0.000000 0.000000 0.000000 0.000000 0.040264 0.000000
# 6 0.000000 0.000000 0.000000 0.000000 0.000000 0.057179
#
#
# Mechanical properties :
#
#
# Convention : Reuss Voigt Hill
#
# Bulk Modulus (GPa) = 22.11773 22.47668 22.29721
# Shear Modulus (GPa) = 22.50059 23.67615 23.08837
#
# Velocity S-wave (km/s) = 3.09305 3.17282 3.13319
# Velocity P-wave (km/s) = 4.70746 4.79366 4.75076
#
# Compressibility (1/GPa) = 0.04521259
#
# Stress axis : x y z
#
# Youngs Moduli (GPa) = 67.47531 49.40582 64.32254
#
# Poissons Ratio (x) = 0.05124 0.03702
# Poissons Ratio (y) = 0.06999 0.06976
# Poissons Ratio (z) = 0.03884 0.05358
#
# Static dielectric constant tensor:
#      x y z
#    x 1.919130 0.000000 0.000000 
#    y 0.000000 1.971910 0.000000 
#    z 0.000000 0.000000 2.169470 
# 
# From -- ./inp_files/3612.got.cif
#   From: 2010.05.17/outbox.cif.g08.bks.cpg/sg52_2_cif.got.tgz:3612.got - 2010.06.03 12:15:38.
