data_PCOD9411161
_publ_section_title
;
Structure prediction by ZEFSAII (Michael W. Deem and Ramdas Pophale) SiO2 
 PCOD9411161
Probable space group: P N N A
;
_chemical_formula_sum "Si O2"
_cell_formula_units_Z 36
_cell_length_a 14.697407
_cell_length_b 13.977562
_cell_length_c 7.691288
_cell_angle_alpha 90.000000
_cell_angle_beta 90.000000
_cell_angle_gamma 90.000000
_cell_volume 1580.051425
_symmetry_space_group_name_H-M "P N N A"
_symmetry_group_IT_number 52
_symmetry_cell_setting 'orthorhombic'
loop_
_space_group_symop_operation_xyz
x,y,z
1/2-x,-y,z
x,1/2-y,1/2-z
1/2-x,1/2+y,1/2-z
-x,-y,-z
1/2+x,y,-z
-x,1/2+y,1/2+z
1/2+x,1/2-y,1/2+z
loop_
_atom_site_type_symbol
_atom_site_label
_atom_site_fract_x
_atom_site_fract_y
_atom_site_fract_z
Si Si1 0.503415 0.174492 0.407652
Si Si2 0.727205 0.105727 0.920498
Si Si3 0.404147 0.750000 0.250000
Si Si4 0.327381 0.224903 0.553418
Si Si5 0.180543 0.085776 0.675009
O O1 0.510997 0.250000 0.250000
O O2 0.538099 0.227038 0.580620
O O3 0.397836 0.157294 0.453045
O O4 0.574326 0.088376 0.373622
O O5 0.658259 0.159470 0.796085
O O6 0.750000 0.000000 0.858699
O O7 0.812696 0.176736 0.949025
O O8 0.686625 0.096055 0.115917
O O9 0.357279 0.250000 0.750000
O O10 0.229258 0.176279 0.583622
O O11 0.250000 0.000000 0.632345
#
# Coordination Sequence:
#
# PCOD9411161 Si02
#       5
#     8   8   4   8   8
#     4  12  23  40  67  96 132 175 218 275 328 386
#     4  10  22  43  69  96 132 175 220 276 338 394
#     4  12  22  42  68  94 126 178 214 276 322 402
#     4  10  21  40  66  96 131 175 223 272 332 394
#     4  10  21  42  68  96 134 175 218 274 331 392
#
# _framework density 22.784067
#
# number of rings (size 3 to 8) (size 9 to 14) (size 15 to 20)
#    0.000    1.333    5.556    0.667    1.556    1.778 
#    0.000    3.333    0.000    0.000    0.000    0.000 
#    0.000    0.000    0.000    0.000    0.000    0.000 
#
# Total GULP energy -201161.081263 kJ/mol
# GULP energy per Si atom -5587.807813 kJ/mol
# Density = 2.273221 g / cm^3
# Si number density = 22.784067 Si / 1000 Ang^3
#
#
#
# Elastic Constant Matrix: (Units=GPa)
#
#
# Indices 1 2 3 4 5 6 
#
# 1 81.6385 -3.5045 20.3136 0.0000 0.0000 0.0000
# 2 -3.5045 69.4555 1.4544 0.0000 0.0000 0.0000
# 3 20.3136 1.4544 112.1819 0.0000 0.0000 0.0000
# 4 0.0000 0.0000 0.0000 25.2397 0.0000 0.0000
# 5 0.0000 0.0000 0.0000 0.0000 26.3001 0.0000
# 6 0.0000 0.0000 0.0000 0.0000 0.0000 25.6085
#
#
#
# Elastic Compliance Matrix: (Units=1/GPa)
#
#
# Indices 1 2 3 4 5 6 
#
# 1 0.012861 0.000698 -0.002338 0.000000 0.000000 0.000000
# 2 0.000698 0.014439 -0.000314 0.000000 0.000000 0.000000
# 3 -0.002338 -0.000314 0.009341 0.000000 0.000000 0.000000
# 4 0.000000 0.000000 0.000000 0.039620 0.000000 0.000000
# 5 0.000000 0.000000 0.000000 0.000000 0.038023 0.000000
# 6 0.000000 0.000000 0.000000 0.000000 0.000000 0.039050
#
#
# Mechanical properties :
#
#
# Convention : Reuss Voigt Hill
#
# Bulk Modulus (GPa) = 30.54867 33.31145 31.93006
# Shear Modulus (GPa) = 29.73487 31.76382 30.74934
#
# Velocity S-wave (km/s) = 3.61650 3.73785 3.67767
# Velocity P-wave (km/s) = 5.55660 5.76896 5.66377
#
# Compressibility (1/GPa) = 0.03273465
#
# Stress axis : x y z
#
# Youngs Moduli (GPa) = 77.75574 69.25457 107.04925
#
# Poissons Ratio (x) = -0.04833 0.25027
# Poissons Ratio (y) = -0.05426 0.03357
# Poissons Ratio (z) = 0.18178 0.02172
#
# Static dielectric constant tensor:
#      x y z
#    x 1.892640 0.000000 0.000000 
#    y 0.000000 1.869220 0.000000 
#    z 0.000000 0.000000 1.844550 
# 
# From -- ./inp_files/9887.got.cif
#   From: 2010.05.17/outbox.cif.g08.bks.cpg/sg52_5_cif.got.tgz:9887.got - 2010.06.03 12:15:38.
