data_PCOD9411720
_publ_section_title
;
Structure prediction by ZEFSAII (Michael W. Deem and Ramdas Pophale) SiO2 
 PCOD9411720
Probable space group: P N N A
;
_chemical_formula_sum "Si O2"
_cell_formula_units_Z 32
_cell_length_a 18.815687
_cell_length_b 7.299501
_cell_length_c 11.039176
_cell_angle_alpha 90.000000
_cell_angle_beta 90.000000
_cell_angle_gamma 90.000000
_cell_volume 1516.177019
_symmetry_space_group_name_H-M "P N N A"
_symmetry_group_IT_number 52
_symmetry_cell_setting 'orthorhombic'
loop_
_space_group_symop_operation_xyz
x,y,z
1/2-x,-y,z
x,1/2-y,1/2-z
1/2-x,1/2+y,1/2-z
-x,-y,-z
1/2+x,y,-z
-x,1/2+y,1/2+z
1/2+x,1/2-y,1/2+z
loop_
_atom_site_type_symbol
_atom_site_label
_atom_site_fract_x
_atom_site_fract_y
_atom_site_fract_z
Si Si1 0.667222 0.457678 0.475204
Si Si2 0.922548 0.323528 0.999391
Si Si3 0.073805 0.180456 0.385190
Si Si4 0.828176 0.040499 0.293978
O O1 0.750000 0.500000 0.494675
O O2 0.622031 0.638389 0.508712
O O3 0.638356 0.289242 0.552676
O O4 0.658720 0.428030 0.329610
O O5 0.889553 0.450321 0.107348
O O6 0.002941 0.279683 0.036462
O O7 0.917693 0.460735 0.886926
O O8 0.063085 0.250000 0.250000
O O9 0.823506 0.250000 0.250000
O O10 0.750000 0.000000 0.346114
#
# Coordination Sequence:
#
# PCOD9411720 Si02
#       4
#     8   8   8   8
#     4  10  22  40  62  92 123 162 209 262 312 370
#     4  10  23  40  65  91 124 163 205 266 314 362
#     4  11  24  42  61  91 128 169 211 249 309 384
#     4   9  19  34  60  93 118 147 201 264 316 360
#
# _framework density 21.105713000000002
#
# number of rings (size 3 to 8) (size 9 to 14) (size 15 to 20)
#    0.000    2.000    0.000    3.000   10.500    1.000 
#    4.500    5.000    0.000    0.000    0.000    0.000 
#    0.000    0.000    0.000    0.000    0.000    0.000 
#
# Total GULP energy -178786.654766 kJ/mol
# GULP energy per Si atom -5587.082961 kJ/mol
# Density = 2.105768 g / cm^3
# Si number density = 21.105713 Si / 1000 Ang^3
#
#
#
# Elastic Constant Matrix: (Units=GPa)
#
#
# Indices 1 2 3 4 5 6 
#
# 1 85.1250 17.8752 3.0177 0.0000 0.0000 0.0000
# 2 17.8752 68.8413 22.1495 0.0000 0.0000 0.0000
# 3 3.0177 22.1495 40.3491 0.0000 0.0000 0.0000
# 4 0.0000 0.0000 0.0000 31.5782 0.0000 0.0000
# 5 0.0000 0.0000 0.0000 0.0000 17.4242 0.0000
# 6 0.0000 0.0000 0.0000 0.0000 0.0000 35.6822
#
#
#
# Elastic Compliance Matrix: (Units=1/GPa)
#
#
# Indices 1 2 3 4 5 6 
#
# 1 0.012460 -0.003565 0.001025 0.000000 0.000000 0.000000
# 2 -0.003565 0.018662 -0.009978 0.000000 0.000000 0.000000
# 3 0.001025 -0.009978 0.030184 0.000000 0.000000 0.000000
# 4 0.000000 0.000000 0.000000 0.031667 0.000000 0.000000
# 5 0.000000 0.000000 0.000000 0.000000 0.057391 0.000000
# 6 0.000000 0.000000 0.000000 0.000000 0.000000 0.028025
#
#
# Mechanical properties :
#
#
# Convention : Reuss Voigt Hill
#
# Bulk Modulus (GPa) = 27.57054 31.15557 29.36305
# Shear Modulus (GPa) = 23.20010 27.02178 25.11094
#
# Velocity S-wave (km/s) = 3.31907 3.58202 3.45305
# Velocity P-wave (km/s) = 5.27064 5.64814 5.46266
#
# Compressibility (1/GPa) = 0.03627060
#
# Stress axis : x y z
#
# Youngs Moduli (GPa) = 80.25863 53.58403 33.12972
#
# Poissons Ratio (x) = 0.19103 -0.03396
# Poissons Ratio (y) = 0.28613 0.33057
# Poissons Ratio (z) = -0.08228 0.53466
#
# Static dielectric constant tensor:
#      x y z
#    x 1.739770 0.000000 0.000000 
#    y 0.000000 1.877050 0.000000 
#    z 0.000000 0.000000 1.796640 
# 
# From -- ./inp_files/20217.got.cif
#   From: 2010.05.17/outbox.cif.g08.bks.cpg/sg52_11_cif.got.tgz:20217.got - 2010.06.03 12:15:38.
