data_PCOD9411934
_publ_section_title
;
Structure prediction by ZEFSAII (Michael W. Deem and Ramdas Pophale) SiO2 
 PCOD9411934
Probable space group: P N N A
;
_chemical_formula_sum "Si O2"
_cell_formula_units_Z 56
_cell_length_a 11.981949
_cell_length_b 15.207967
_cell_length_c 14.748820
_cell_angle_alpha 90.000000
_cell_angle_beta 90.000000
_cell_angle_gamma 90.000000
_cell_volume 2687.545983
_symmetry_space_group_name_H-M "P N N A"
_symmetry_group_IT_number 52
_symmetry_cell_setting 'orthorhombic'
loop_
_space_group_symop_operation_xyz
x,y,z
1/2-x,-y,z
x,1/2-y,1/2-z
1/2-x,1/2+y,1/2-z
-x,-y,-z
1/2+x,y,-z
-x,1/2+y,1/2+z
1/2+x,1/2-y,1/2+z
loop_
_atom_site_type_symbol
_atom_site_label
_atom_site_fract_x
_atom_site_fract_y
_atom_site_fract_z
Si Si1 0.431310 0.250000 0.750000
Si Si2 0.940522 0.377583 0.821957
Si Si3 0.418148 0.939097 0.841007
Si Si4 0.898651 0.709348 0.893360
Si Si5 0.170491 0.876623 0.891551
Si Si6 0.721809 0.750000 0.750000
Si Si7 0.127817 0.482989 0.036549
Si Si8 0.957946 0.204567 0.954360
O O1 0.510455 0.308345 0.814318
O O2 0.357665 0.194017 0.815941
O O3 0.854554 0.335400 0.751576
O O4 0.877623 0.453466 0.876628
O O5 0.044534 0.417054 0.763776
O O6 0.957964 0.293574 0.891266
O O7 0.294973 0.906887 0.869153
O O8 0.499703 0.878982 0.899644
O O9 0.413223 0.041165 0.871210
O O10 0.795987 0.749319 0.839405
O O11 0.868171 0.618920 0.940103
O O12 0.954078 0.772624 0.966174
O O13 0.149595 0.828508 0.987964
O O14 0.250000 0.500000 0.989041
O O15 0.000000 0.500000 0.000000
#
# Coordination Sequence:
#
# PCOD9411934 Si02
#       8
#     4   8   8   8   8   4   8   8
#     4   9  20  41  66  88 132 175 226 279 350 421
#     4  12  24  42  69 101 139 182 239 294 358 426
#     4  11  24  42  66 100 137 177 232 294 359 422
#     4  10  22  42  65  96 132 180 231 286 348 423
#     4  10  24  43  65  96 135 181 230 286 358 431
#     4  11  22  41  68  96 130 181 232 287 346 427
#     4  12  25  45  68 105 144 185 235 297 359 425
#     4  11  23  42  68  96 135 180 232 287 352 428
#
# _framework density 20.836850999999999
#
# number of rings (size 3 to 8) (size 9 to 14) (size 15 to 20)
#    0.000    1.143    4.286    1.286    4.000    0.000 
#    5.143    0.000    3.143    0.000    0.000    0.000 
#    0.000    0.000    0.000    0.000    0.000    0.000 
#
# Total GULP energy -311944.502865 kJ/mol
# GULP energy per Si atom -5570.437551 kJ/mol
# Density = 2.078943 g / cm^3
# Si number density = 20.836851 Si / 1000 Ang^3
#
#
#
# Elastic Constant Matrix: (Units=GPa)
#
#
# Indices 1 2 3 4 5 6 
#
# 1 95.2469 18.5438 40.3391 0.0000 0.0000 0.0000
# 2 18.5438 74.1725 27.2517 0.0000 0.0000 0.0000
# 3 40.3391 27.2517 81.0501 0.0000 0.0000 0.0000
# 4 0.0000 0.0000 0.0000 36.1271 0.0000 0.0000
# 5 0.0000 0.0000 0.0000 0.0000 22.5878 0.0000
# 6 0.0000 0.0000 0.0000 0.0000 0.0000 24.7838
#
#
#
# Elastic Compliance Matrix: (Units=1/GPa)
#
#
# Indices 1 2 3 4 5 6 
#
# 1 0.013371 -0.001024 -0.006310 0.000000 0.000000 0.000000
# 2 -0.001024 0.015461 -0.004689 0.000000 0.000000 0.000000
# 3 -0.006310 -0.004689 0.017055 0.000000 0.000000 0.000000
# 4 0.000000 0.000000 0.000000 0.027680 0.000000 0.000000
# 5 0.000000 0.000000 0.000000 0.000000 0.044272 0.000000
# 6 0.000000 0.000000 0.000000 0.000000 0.000000 0.040349
#
#
# Mechanical properties :
#
#
# Convention : Reuss Voigt Hill
#
# Bulk Modulus (GPa) = 45.78687 46.97098 46.37892
# Shear Modulus (GPa) = 26.38317 27.65540 27.01929
#
# Velocity S-wave (km/s) = 3.56220 3.64708 3.60489
# Velocity P-wave (km/s) = 6.24025 6.35028 6.29551
#
# Compressibility (1/GPa) = 0.02184032
#
# Stress axis : x y z
#
# Youngs Moduli (GPa) = 74.78832 64.67961 58.63304
#
# Poissons Ratio (x) = 0.06626 0.37000
# Poissons Ratio (y) = 0.07661 0.27491
# Poissons Ratio (z) = 0.47195 0.30326
#
# Static dielectric constant tensor:
#      x y z
#    x 1.835350 0.000000 0.000000 
#    y 0.000000 1.820280 0.000000 
#    z 0.000000 0.000000 1.821690 
# 
# From -- ./inp_files/26183.got.cif
#   From: 2010.05.17/outbox.cif.g08.bks.cpg/sg52_14_cif.got.tgz:26183.got - 2010.06.03 12:15:38.
