data_PCOD9411177
_publ_section_title
;
Structure prediction by ZEFSAII (Michael W. Deem and Ramdas Pophale) SiO2 
 PCOD9411177
Probable space group: P N N A
;
_chemical_formula_sum "Si O2"
_cell_formula_units_Z 64
_cell_length_a 19.162020
_cell_length_b 8.900502
_cell_length_c 18.658916
_cell_angle_alpha 90.000000
_cell_angle_beta 90.000000
_cell_angle_gamma 90.000000
_cell_volume 3182.307928
_symmetry_space_group_name_H-M "P N N A"
_symmetry_group_IT_number 52
_symmetry_cell_setting 'orthorhombic'
loop_
_space_group_symop_operation_xyz
x,y,z
1/2-x,-y,z
x,1/2-y,1/2-z
1/2-x,1/2+y,1/2-z
-x,-y,-z
1/2+x,y,-z
-x,1/2+y,1/2+z
1/2+x,1/2-y,1/2+z
loop_
_atom_site_type_symbol
_atom_site_label
_atom_site_fract_x
_atom_site_fract_y
_atom_site_fract_z
Si Si1 0.378434 0.806111 0.910400
Si Si2 0.939269 0.877575 0.697042
Si Si3 0.390558 0.131457 0.081070
Si Si4 0.678030 0.578068 0.724931
Si Si5 0.997885 0.180532 0.672838
Si Si6 0.239616 0.681078 0.670647
Si Si7 0.889601 0.335069 0.423747
Si Si8 0.946767 0.799840 0.938526
O O1 0.427289 0.736674 0.850222
O O2 0.299453 0.772512 0.886945
O O3 0.390351 0.985566 0.910292
O O4 0.410115 0.753894 0.986991
O O5 0.967103 0.750000 0.750000
O O6 0.912752 0.791164 0.626929
O O7 0.881151 0.975424 0.738309
O O8 0.994970 0.002122 0.675572
O O9 0.334145 0.086424 0.139922
O O10 0.441356 0.254120 0.116851
O O11 0.434620 0.978781 0.068652
O O12 0.361381 0.183708 0.004974
O O13 0.750000 0.500000 0.742993
O O14 0.676687 0.750000 0.750000
O O15 0.980701 0.250000 0.750000
O O16 0.250000 0.500000 0.676762
O O17 0.247966 0.750000 0.750000
O O18 0.164375 0.722553 0.635861
O O19 0.969600 0.277875 0.429471
#
# Coordination Sequence:
#
# PCOD9411177 Si02
#       8
#     8   8   8   8   8   8   8   8
#     4  10  21  40  67  95 124 179 226 274 339 404
#     4  12  24  40  59  98 135 170 222 271 334 399
#     4  11  19  41  67  94 127 172 222 270 331 394
#     4  12  25  43  65  93 137 177 218 265 329 411
#     4  12  20  38  65  90 127 169 218 276 330 395
#     4  10  23  46  66  94 133 178 230 271 336 410
#     4  10  21  40  69  97 131 170 227 280 331 402
#     4  11  21  38  67  99 135 164 222 289 330 396
#
# _framework density 20.111191000000002
#
# number of rings (size 3 to 8) (size 9 to 14) (size 15 to 20)
#    0.000    1.000    6.250    1.500    0.000    3.500 
#    4.500    0.000    0.000    0.000    0.000    0.000 
#    0.000    0.000    0.000    0.000    0.000    0.000 
#
# Total GULP energy -357193.742557 kJ/mol
# GULP energy per Si atom -5581.152227 kJ/mol
# Density = 2.006542 g / cm^3
# Si number density = 20.111191 Si / 1000 Ang^3
#
#
#
# Elastic Constant Matrix: (Units=GPa)
#
#
# Indices 1 2 3 4 5 6 
#
# 1 66.0792 24.1284 39.3646 0.0000 0.0000 0.0000
# 2 24.1284 72.9795 42.0665 0.0000 0.0000 0.0000
# 3 39.3646 42.0665 127.1393 0.0000 0.0000 0.0000
# 4 0.0000 0.0000 0.0000 24.7264 0.0000 0.0000
# 5 0.0000 0.0000 0.0000 0.0000 30.3337 0.0000
# 6 0.0000 0.0000 0.0000 0.0000 0.0000 10.3051
#
#
#
# Elastic Compliance Matrix: (Units=1/GPa)
#
#
# Indices 1 2 3 4 5 6 
#
# 1 0.019304 -0.003629 -0.004776 0.000000 0.000000 0.000000
# 2 -0.003629 0.017614 -0.004704 0.000000 0.000000 0.000000
# 3 -0.004776 -0.004704 0.010901 0.000000 0.000000 0.000000
# 4 0.000000 0.000000 0.000000 0.040443 0.000000 0.000000
# 5 0.000000 0.000000 0.000000 0.000000 0.032967 0.000000
# 6 0.000000 0.000000 0.000000 0.000000 0.000000 0.097039
#
#
# Mechanical properties :
#
#
# Convention : Reuss Voigt Hill
#
# Bulk Modulus (GPa) = 46.29763 53.03523 49.66643
# Shear Modulus (GPa) = 19.86609 23.78229 21.82419
#
# Velocity S-wave (km/s) = 3.14636 3.44254 3.29778
# Velocity P-wave (km/s) = 6.02248 6.49844 6.26498
#
# Compressibility (1/GPa) = 0.02159938
#
# Stress axis : x y z
#
# Youngs Moduli (GPa) = 51.80368 56.77311 91.73804
#
# Poissons Ratio (x) = 0.20604 0.43814
# Poissons Ratio (y) = 0.18801 0.43156
# Poissons Ratio (z) = 0.24741 0.26708
#
# Static dielectric constant tensor:
#      x y z
#    x 1.745010 0.000000 0.000000 
#    y 0.000000 1.706570 0.000000 
#    z 0.000000 0.000000 1.740710 
# 
# From -- ./inp_files/34123.got.cif
#   From: 2010.05.17/outbox.cif.g08.bks.cpg/sg52_18_cif.got.tgz:34123.got - 2010.06.03 12:15:38.
