data_PCOD9411904
_publ_section_title
;
Structure prediction by ZEFSAII (Michael W. Deem and Ramdas Pophale) SiO2 
 PCOD9411904
Probable space group: P N N A
;
_chemical_formula_sum "Si O2"
_cell_formula_units_Z 24
_cell_length_a 10.026540
_cell_length_b 10.838231
_cell_length_c 8.949141
_cell_angle_alpha 90.000000
_cell_angle_beta 90.000000
_cell_angle_gamma 90.000000
_cell_volume 972.502765
_symmetry_space_group_name_H-M "P N N A"
_symmetry_group_IT_number 52
_symmetry_cell_setting 'orthorhombic'
loop_
_space_group_symop_operation_xyz
x,y,z
1/2-x,-y,z
x,1/2-y,1/2-z
1/2-x,1/2+y,1/2-z
-x,-y,-z
1/2+x,y,-z
-x,1/2+y,1/2+z
1/2+x,1/2-y,1/2+z
loop_
_atom_site_type_symbol
_atom_site_label
_atom_site_fract_x
_atom_site_fract_y
_atom_site_fract_z
Si Si1 0.482481 0.794104 0.442392
Si Si2 0.220125 0.868905 0.001305
Si Si3 0.607490 0.968073 0.683568
O O1 0.353406 0.709029 0.468619
O O2 0.614358 0.715174 0.420152
O O3 0.516988 0.875374 0.590280
O O4 0.457492 0.897102 0.316262
O O5 0.148252 0.908912 0.158379
O O6 0.250000 0.000000 0.925089
O O7 0.750000 0.000000 0.605510
#
# Coordination Sequence:
#
# PCOD9411904 Si02
#       3
#     8   8   8
#     4  11  22  42  73 104 146 189 251 302 356 444
#     4  11  24  42  73 104 147 196 242 300 371 432
#     4  10  22  41  75 101 141 203 236 296 372 421
#
# _framework density 24.678594
#
# number of rings (size 3 to 8) (size 9 to 14) (size 15 to 20)
#    0.000    1.333    3.333    2.000    4.667    0.000 
#    0.000    0.000   58.667    0.000    0.000    0.000 
#    0.000    0.000    0.000    0.000    0.000    0.000 
#
# Total GULP energy -134369.008182 kJ/mol
# GULP energy per Si atom -5598.708674 kJ/mol
# Density = 2.462242 g / cm^3
# Si number density = 24.678594 Si / 1000 Ang^3
#
#
#
# Elastic Constant Matrix: (Units=GPa)
#
#
# Indices 1 2 3 4 5 6 
#
# 1 155.4055 102.8878 54.6988 0.0000 0.0000 0.0000
# 2 102.8878 214.7567 32.9662 0.0000 0.0000 0.0000
# 3 54.6988 32.9662 55.2201 0.0000 0.0000 0.0000
# 4 0.0000 0.0000 0.0000 24.0053 0.0000 0.0000
# 5 0.0000 0.0000 0.0000 0.0000 36.3752 0.0000
# 6 0.0000 0.0000 0.0000 0.0000 0.0000 86.6077
#
#
#
# Elastic Compliance Matrix: (Units=1/GPa)
#
#
# Indices 1 2 3 4 5 6 
#
# 1 0.013169 -0.004741 -0.010214 0.000000 0.000000 0.000000
# 2 -0.004741 0.006833 0.000617 0.000000 0.000000 0.000000
# 3 -0.010214 0.000617 0.027859 0.000000 0.000000 0.000000
# 4 0.000000 0.000000 0.000000 0.041657 0.000000 0.000000
# 5 0.000000 0.000000 0.000000 0.000000 0.027491 0.000000
# 6 0.000000 0.000000 0.000000 0.000000 0.000000 0.011546
#
#
# Mechanical properties :
#
#
# Convention : Reuss Voigt Hill
#
# Bulk Modulus (GPa) = 52.12614 89.60976 70.86795
# Shear Modulus (GPa) = 30.55739 45.05293 37.80516
#
# Velocity S-wave (km/s) = 3.52264 4.27732 3.91820
# Velocity P-wave (km/s) = 6.14111 7.79638 7.01772
#
# Compressibility (1/GPa) = 0.01918423
#
# Stress axis : x y z
#
# Youngs Moduli (GPa) = 75.93728 146.34551 35.89555
#
# Poissons Ratio (x) = 0.69384 0.36664
# Poissons Ratio (y) = 0.36003 -0.02215
# Poissons Ratio (z) = 0.77562 -0.09030
#
# Static dielectric constant tensor:
#      x y z
#    x 1.961810 0.000000 0.000000 
#    y 0.000000 2.012260 0.000000 
#    z 0.000000 0.000000 1.994100 
# 
# From -- ./inp_files/16243.got.cif
#   From: 2010.05.17/outbox.cif.g08.bks.cpg/sg52_9_cif.got.tgz:16243.got - 2010.06.03 12:15:38.
