data_PCOD9411627
_publ_section_title
;
Structure prediction by ZEFSAII (Michael W. Deem and Ramdas Pophale) SiO2 
 PCOD9411627
Probable space group: P N N A
;
_chemical_formula_sum "Si O2"
_cell_formula_units_Z 40
_cell_length_a 8.578248
_cell_length_b 22.341851
_cell_length_c 9.151579
_cell_angle_alpha 90.000000
_cell_angle_beta 90.000000
_cell_angle_gamma 90.000000
_cell_volume 1753.936160
_symmetry_space_group_name_H-M "P N N A"
_symmetry_group_IT_number 52
_symmetry_cell_setting 'orthorhombic'
loop_
_space_group_symop_operation_xyz
x,y,z
1/2-x,-y,z
x,1/2-y,1/2-z
1/2-x,1/2+y,1/2-z
-x,-y,-z
1/2+x,y,-z
-x,1/2+y,1/2+z
1/2+x,1/2-y,1/2+z
loop_
_atom_site_type_symbol
_atom_site_label
_atom_site_fract_x
_atom_site_fract_y
_atom_site_fract_z
Si Si1 0.502314 0.036924 0.303636
Si Si2 0.455116 0.148018 0.138472
Si Si3 0.645351 0.573248 0.106018
Si Si4 0.364191 0.716309 0.392324
Si Si5 0.723931 0.196534 0.351500
O O1 0.456186 0.076418 0.164143
O O2 0.678459 0.055004 0.351471
O O3 0.392788 0.055968 0.438899
O O4 0.521260 0.965029 0.298822
O O5 0.286496 0.177089 0.150051
O O6 0.569643 0.171840 0.267473
O O7 0.524570 0.172853 0.986533
O O8 0.651131 0.644036 0.128407
O O9 0.419055 0.750000 0.250000
O O10 0.317471 0.770987 0.499109
O O11 0.776667 0.250000 0.250000
#
# Coordination Sequence:
#
# PCOD9411627 Si02
#       5
#     8   8   8   8   8
#     4   9  18  35  57  88 118 146 194 249 293 341
#     4  10  22  39  57  85 123 154 194 249 292 346
#     4   9  17  32  61  86 113 151 190 239 294 346
#     4  11  21  35  57  86 122 158 193 236 296 357
#     4   9  19  35  56  83 116 149 188 239 289 340
#
# _framework density 22.805847
#
# number of rings (size 3 to 8) (size 9 to 14) (size 15 to 20)
#    0.000    2.400    0.000    3.000    0.000    5.600 
#    0.000   10.000    0.000   30.000    0.000   42.000 
#    0.000    0.000    0.000    0.000    0.000    0.000 
#
# Total GULP energy -223376.921770 kJ/mol
# GULP energy per Si atom -5584.423044 kJ/mol
# Density = 2.275394 g / cm^3
# Si number density = 22.805847 Si / 1000 Ang^3
#
#
#
# Elastic Constant Matrix: (Units=GPa)
#
#
# Indices 1 2 3 4 5 6 
#
# 1 43.1369 -20.6813 -19.4954 0.0000 0.0000 0.0000
# 2 -20.6813 92.7918 25.4543 0.0000 0.0000 0.0000
# 3 -19.4954 25.4543 80.1898 0.0000 0.0000 0.0000
# 4 0.0000 0.0000 0.0000 27.3751 0.0000 0.0000
# 5 0.0000 0.0000 0.0000 0.0000 46.3228 0.0000
# 6 0.0000 0.0000 0.0000 0.0000 0.0000 18.3733
#
#
#
# Elastic Compliance Matrix: (Units=1/GPa)
#
#
# Indices 1 2 3 4 5 6 
#
# 1 0.027841 0.004763 0.005257 0.000000 0.000000 0.000000
# 2 0.004763 0.012620 -0.002848 0.000000 0.000000 0.000000
# 3 0.005257 -0.002848 0.014652 0.000000 0.000000 0.000000
# 4 0.000000 0.000000 0.000000 0.036530 0.000000 0.000000
# 5 0.000000 0.000000 0.000000 0.000000 0.021588 0.000000
# 6 0.000000 0.000000 0.000000 0.000000 0.000000 0.054427
#
#
# Mechanical properties :
#
#
# Convention : Reuss Voigt Hill
#
# Bulk Modulus (GPa) = 14.39724 20.74152 17.56938
# Shear Modulus (GPa) = 28.33413 33.80363 31.06888
#
# Velocity S-wave (km/s) = 3.52860 3.85416 3.69497
# Velocity P-wave (km/s) = 4.78832 5.37779 5.09159
#
# Compressibility (1/GPa) = 0.06945778
#
# Stress axis : x y z
#
# Youngs Moduli (GPa) = 35.91774 79.24160 68.24839
#
# Poissons Ratio (x) = -0.37745 -0.35876
# Poissons Ratio (y) = -0.17109 0.19436
# Poissons Ratio (z) = -0.18881 0.22566
#
# Static dielectric constant tensor:
#      x y z
#    x 1.842380 0.000000 0.000000 
#    y 0.000000 1.936960 0.000000 
#    z 0.000000 0.000000 1.477590 
# 
# From -- ./inp_files/7450.got.cif
#   From: 2010.05.17/outbox.cif.g08.bks.cpg/sg52_4_cif.got.tgz:7450.got - 2010.06.03 12:15:38.
