data_PCOD9411262
_publ_section_title
;
Structure prediction by ZEFSAII (Michael W. Deem and Ramdas Pophale) SiO2 
 PCOD9411262
Probable space group: P N N A
;
_chemical_formula_sum "Si O2"
_cell_formula_units_Z 60
_cell_length_a 10.429468
_cell_length_b 28.447535
_cell_length_c 8.756729
_cell_angle_alpha 90.000000
_cell_angle_beta 90.000000
_cell_angle_gamma 90.000000
_cell_volume 2598.057185
_symmetry_space_group_name_H-M "P N N A"
_symmetry_group_IT_number 52
_symmetry_cell_setting 'orthorhombic'
loop_
_space_group_symop_operation_xyz
x,y,z
1/2-x,-y,z
x,1/2-y,1/2-z
1/2-x,1/2+y,1/2-z
-x,-y,-z
1/2+x,y,-z
-x,1/2+y,1/2+z
1/2+x,1/2-y,1/2+z
loop_
_atom_site_type_symbol
_atom_site_label
_atom_site_fract_x
_atom_site_fract_y
_atom_site_fract_z
Si Si1 0.517418 0.844901 0.985466
Si Si2 0.811841 0.603033 0.284041
Si Si3 0.039582 0.737450 0.077057
Si Si4 0.781396 0.677703 0.023912
Si Si5 0.928105 0.548596 0.018737
Si Si6 0.075842 0.382865 0.219014
Si Si7 0.750000 0.500000 0.798757
Si Si8 0.206916 0.575271 0.416156
O O1 0.389861 0.861779 0.896608
O O2 0.529464 0.789398 0.989886
O O3 0.623852 0.877203 0.902348
O O4 0.516245 0.858018 0.163066
O O5 0.727329 0.571911 0.401405
O O6 0.762383 0.637687 0.151604
O O7 0.899014 0.567211 0.185712
O O8 0.075376 0.750000 0.250000
O O9 0.152337 0.706869 0.002630
O O10 0.903573 0.710278 0.069868
O O11 0.827912 0.652114 0.868257
O O12 0.993250 0.588721 0.915861
O O13 0.799616 0.538525 0.920973
O O14 0.000000 0.500000 0.000000
O O15 0.156320 0.415962 0.335015
O O16 0.839205 0.470421 0.679251
#
# Coordination Sequence:
#
# PCOD9411262 Si02
#       8
#     8   8   8   8   8   8   4   8
#     4  11  23  41  65  95 132 184 221 290 357 419
#     4  10  23  43  65  98 136 180 236 291 354 435
#     4  12  27  44  73 101 145 184 243 302 353 426
#     4  11  26  47  69 103 137 188 243 294 362 424
#     4  10  21  41  67  95 134 176 232 287 347 425
#     4   9  23  42  63  97 135 177 226 288 361 412
#     4  10  22  40  64 102 130 180 222 288 350 424
#     4  10  22  41  66  94 140 174 226 283 361 416
#
# _framework density 23.094179
#
# number of rings (size 3 to 8) (size 9 to 14) (size 15 to 20)
#    0.000    1.600    1.333    1.600    7.467    2.667 
#    4.800    4.000    0.000    0.000    0.000    0.000 
#    0.000    0.000    0.000    0.000    0.000    0.000 
#
# Total GULP energy -334563.320570 kJ/mol
# GULP energy per Si atom -5576.055343 kJ/mol
# Density = 2.304162 g / cm^3
# Si number density = 23.094179 Si / 1000 Ang^3
#
#
#
# Elastic Constant Matrix: (Units=GPa)
#
#
# Indices 1 2 3 4 5 6 
#
# 1 51.1726 13.5583 0.4112 0.0000 0.0000 0.0000
# 2 13.5583 91.7066 12.4610 0.0000 0.0000 0.0000
# 3 0.4112 12.4610 77.4619 0.0000 0.0000 0.0000
# 4 0.0000 0.0000 0.0000 12.3596 0.0000 0.0000
# 5 0.0000 0.0000 0.0000 0.0000 -299.6636 0.0000
# 6 0.0000 0.0000 0.0000 0.0000 0.0000 33.6181
#
#
#
# Elastic Compliance Matrix: (Units=1/GPa)
#
#
# Indices 1 2 3 4 5 6 
#
# 1 0.020350 -0.003061 0.000384 0.000000 0.000000 0.000000
# 2 -0.003061 0.011608 -0.001851 0.000000 0.000000 0.000000
# 3 0.000384 -0.001851 0.013205 0.000000 0.000000 0.000000
# 4 0.000000 0.000000 0.000000 0.080909 0.000000 0.000000
# 5 0.000000 0.000000 0.000000 0.000000 -0.003337 0.000000
# 6 0.000000 0.000000 0.000000 0.000000 0.000000 0.029746
#
#
# Mechanical properties :
#
#
# Convention : Reuss Voigt Hill
#
# Bulk Modulus (GPa) = 27.69461 30.35579 29.02520
# Shear Modulus (GPa) = 28.80645 -37.80980 -4.50167
#
# Velocity S-wave (km/s) = 3.53561 -4.05062 -1.39768
# Velocity P-wave (km/s) = 5.35588 2.95023 3.16082
#
# Compressibility (1/GPa) = 0.03610811
#
# Stress axis : x y z
#
# Youngs Moduli (GPa) = 49.14106 86.14460 75.72705
#
# Poissons Ratio (x) = 0.26367 -0.02911
# Poissons Ratio (y) = 0.15041 0.14018
# Poissons Ratio (z) = -0.01889 0.15947
#
# Static dielectric constant tensor:
#      x y z
#    x 2.032230 0.000000 0.000000 
#    y 0.000000 0.593020 0.000000 
#    z 0.000000 0.000000 1.783120 
# 
# From -- ./inp_files/9023.got.cif
#   From: 2010.05.17/outbox.cif.g08.bks.cpg/sg52_5_cif.got.tgz:9023.got - 2010.06.03 12:15:38.
