data_PCOD9411930
_publ_section_title
;
Structure prediction by ZEFSAII (Michael W. Deem and Ramdas Pophale) SiO2 
 PCOD9411930
Probable space group: P N N A
;
_chemical_formula_sum "Si O2"
_cell_formula_units_Z 64
_cell_length_a 13.633009
_cell_length_b 9.171498
_cell_length_c 23.882205
_cell_angle_alpha 90.000000
_cell_angle_beta 90.000000
_cell_angle_gamma 90.000000
_cell_volume 2986.114243
_symmetry_space_group_name_H-M "P N N A"
_symmetry_group_IT_number 52
_symmetry_cell_setting 'orthorhombic'
loop_
_space_group_symop_operation_xyz
x,y,z
1/2-x,-y,z
x,1/2-y,1/2-z
1/2-x,1/2+y,1/2-z
-x,-y,-z
1/2+x,y,-z
-x,1/2+y,1/2+z
1/2+x,1/2-y,1/2+z
loop_
_atom_site_type_symbol
_atom_site_label
_atom_site_fract_x
_atom_site_fract_y
_atom_site_fract_z
Si Si1 0.804856 0.743116 0.410011
Si Si2 0.763429 0.327153 0.978610
Si Si3 0.467672 0.506199 0.565083
Si Si4 0.783111 0.831492 0.807608
Si Si5 0.692285 0.852134 0.302670
Si Si6 0.076467 0.259021 0.093379
Si Si7 0.044926 0.477439 0.878522
Si Si8 0.099494 0.759173 0.119885
O O1 0.727377 0.761447 0.459689
O O2 0.869315 0.598109 0.421645
O O3 0.756136 0.763526 0.349209
O O4 0.875875 0.887153 0.414992
O O5 0.750000 0.500000 0.980188
O O6 0.665356 0.253189 0.951608
O O7 0.854734 0.295024 0.938705
O O8 0.500000 0.500000 0.500000
O O9 0.482058 0.341025 0.583313
O O10 0.549255 0.590747 0.602142
O O11 0.801705 0.750000 0.750000
O O12 0.872732 0.794389 0.849207
O O13 0.688745 0.764752 0.838141
O O14 0.750000 0.000000 0.800431
O O15 0.671482 0.750000 0.250000
O O16 0.750000 0.000000 0.285476
O O17 0.598856 0.918816 0.334650
O O18 0.034900 0.421830 0.091958
O O19 0.982308 0.344739 0.853700
#
# Coordination Sequence:
#
# PCOD9411930 Si02
#       8
#     8   8   8   8   8   8   8   8
#     4  10  23  42  65  94 131 171 220 268 335 393
#     4  11  20  36  65  95 129 170 211 260 326 404
#     4  11  22  41  63  97 134 170 213 271 330 393
#     4  11  25  43  67  94 135 176 219 271 331 401
#     4  10  23  46  68  91 127 173 224 278 330 387
#     4  11  23  40  63  98 133 168 218 266 330 390
#     4  10  22  42  65  94 129 165 219 270 316 392
#     4  10  23  42  64  93 134 174 210 266 334 391
#
# _framework density 21.432535000000001
#
# number of rings (size 3 to 8) (size 9 to 14) (size 15 to 20)
#    0.000    1.500    3.750    1.125    1.750    4.000 
#    0.000    8.125    0.000    0.000    0.000    0.000 
#    0.000    0.000    0.000    0.000    0.000    0.000 
#
# Total GULP energy -357209.032849 kJ/mol
# GULP energy per Si atom -5581.391138 kJ/mol
# Density = 2.138375 g / cm^3
# Si number density = 21.432535 Si / 1000 Ang^3
#
#
#
# Elastic Constant Matrix: (Units=GPa)
#
#
# Indices 1 2 3 4 5 6 
#
# 1 81.0942 28.2490 34.5816 0.0000 0.0000 0.0000
# 2 28.2490 86.7433 40.6557 0.0000 0.0000 0.0000
# 3 34.5816 40.6557 104.1302 0.0000 0.0000 0.0000
# 4 0.0000 0.0000 0.0000 24.0266 0.0000 0.0000
# 5 0.0000 0.0000 0.0000 0.0000 -17.7230 0.0000
# 6 0.0000 0.0000 0.0000 0.0000 0.0000 27.6369
#
#
#
# Elastic Compliance Matrix: (Units=1/GPa)
#
#
# Indices 1 2 3 4 5 6 
#
# 1 0.015028 -0.003127 -0.003770 0.000000 0.000000 0.000000
# 2 -0.003127 0.014761 -0.004725 0.000000 0.000000 0.000000
# 3 -0.003770 -0.004725 0.012700 0.000000 0.000000 0.000000
# 4 0.000000 0.000000 0.000000 0.041620 0.000000 0.000000
# 5 0.000000 0.000000 0.000000 0.000000 -0.056424 0.000000
# 6 0.000000 0.000000 0.000000 0.000000 0.000000 0.036183
#
#
# Mechanical properties :
#
#
# Convention : Reuss Voigt Hill
#
# Bulk Modulus (GPa) = 51.95934 53.21558 52.58746
# Shear Modulus (GPa) = 53.45976 18.02022 35.73999
#
# Velocity S-wave (km/s) = 4.99974 2.90278 4.08800
# Velocity P-wave (km/s) = 7.59116 6.00983 6.84631
#
# Compressibility (1/GPa) = 0.01924582
#
# Stress axis : x y z
#
# Youngs Moduli (GPa) = 66.54091 67.74577 78.74021
#
# Poissons Ratio (x) = 0.21186 0.29685
# Poissons Ratio (y) = 0.20809 0.37202
# Poissons Ratio (z) = 0.25085 0.32007
#
# Static dielectric constant tensor:
#      x y z
#    x 1.811130 0.000000 0.000000 
#    y 0.000000 2.009610 0.000000 
#    z 0.000000 0.000000 1.750850 
# 
# From -- ./inp_files/40674.got.cif
#   From: 2010.05.17/outbox.cif.g08.bks.cpg/sg52_21_cif.got.tgz:40674.got - 2010.06.03 12:15:38.
