data_PCOD9411054
_publ_section_title
;
Structure prediction by ZEFSAII (Michael W. Deem and Ramdas Pophale) SiO2 
 PCOD9411054
Probable space group: P N N A
;
_chemical_formula_sum "Si O2"
_cell_formula_units_Z 60
_cell_length_a 21.294472
_cell_length_b 9.683812
_cell_length_c 12.944445
_cell_angle_alpha 90.000000
_cell_angle_beta 90.000000
_cell_angle_gamma 90.000000
_cell_volume 2669.295536
_symmetry_space_group_name_H-M "P N N A"
_symmetry_group_IT_number 52
_symmetry_cell_setting 'orthorhombic'
loop_
_space_group_symop_operation_xyz
x,y,z
1/2-x,-y,z
x,1/2-y,1/2-z
1/2-x,1/2+y,1/2-z
-x,-y,-z
1/2+x,y,-z
-x,1/2+y,1/2+z
1/2+x,1/2-y,1/2+z
loop_
_atom_site_type_symbol
_atom_site_label
_atom_site_fract_x
_atom_site_fract_y
_atom_site_fract_z
Si Si1 0.907314 0.811537 0.037462
Si Si2 0.536023 0.786702 0.517742
Si Si3 0.625475 0.068254 0.311353
Si Si4 0.817706 0.027736 0.112897
Si Si5 0.332633 0.180225 0.545381
Si Si6 0.133115 0.143481 0.331685
Si Si7 0.250000 0.500000 0.078669
Si Si8 0.001790 0.461001 0.170776
O O1 0.885550 0.714334 0.133891
O O2 0.870835 0.954240 0.044823
O O3 0.982707 0.824928 0.040897
O O4 0.888126 0.722954 0.936249
O O5 0.610250 0.769204 0.528061
O O6 0.523258 0.834285 0.399340
O O7 0.517323 0.915158 0.591016
O O8 0.676729 0.046707 0.223645
O O9 0.643884 0.960100 0.400914
O O10 0.558149 0.014925 0.266184
O O11 0.750000 0.000000 0.065535
O O12 0.824594 0.191731 0.121738
O O13 0.268985 0.133894 0.489260
O O14 0.160084 0.250000 0.250000
O O15 0.186805 0.034789 0.359737
O O16 0.068709 0.080816 0.283639
#
# Coordination Sequence:
#
# PCOD9411054 Si02
#       8
#     8   8   8   8   8   8   4   8
#     4  10  21  43  65  91 131 167 203 265 329 377
#     4   8  15  34  65  89 116 157 209 260 315 370
#     4  10  21  39  68  92 126 168 213 251 306 391
#     4  12  27  38  56  99 139 171 204 256 322 397
#     4  11  22  39  66  91 125 170 218 263 311 390
#     4  11  22  39  67  89 115 163 216 269 320 382
#     4  12  22  42  66  90 122 180 220 268 336 390
#     4   8  15  34  61  94 113 147 214 266 299 365
#
# _framework density 22.47784
#
# number of rings (size 3 to 8) (size 9 to 14) (size 15 to 20)
#    0.000    1.867    2.667    3.200    0.933    4.800 
#    3.600    0.000    0.000    0.000    0.000    0.000 
#    0.000    0.000    0.000    0.000    0.000    0.000 
#
# Total GULP energy -334774.598265 kJ/mol
# GULP energy per Si atom -5579.576638 kJ/mol
# Density = 2.242668 g / cm^3
# Si number density = 22.477840 Si / 1000 Ang^3
#
#
#
# Elastic Constant Matrix: (Units=GPa)
#
#
# Indices 1 2 3 4 5 6 
#
# 1 105.8276 23.7656 -1.0477 0.0000 0.0000 0.0000
# 2 23.7656 83.7241 6.6889 0.0000 0.0000 0.0000
# 3 -1.0477 6.6889 24.3385 0.0000 0.0000 0.0000
# 4 0.0000 0.0000 0.0000 16.5012 0.0000 0.0000
# 5 0.0000 0.0000 0.0000 0.0000 4.4709 0.0000
# 6 0.0000 0.0000 0.0000 0.0000 0.0000 18.8160
#
#
#
# Elastic Compliance Matrix: (Units=1/GPa)
#
#
# Indices 1 2 3 4 5 6 
#
# 1 0.010130 -0.002976 0.001254 0.000000 0.000000 0.000000
# 2 -0.002976 0.013086 -0.003725 0.000000 0.000000 0.000000
# 3 0.001254 -0.003725 0.042165 0.000000 0.000000 0.000000
# 4 0.000000 0.000000 0.000000 0.060601 0.000000 0.000000
# 5 0.000000 0.000000 0.000000 0.000000 0.223669 0.000000
# 6 0.000000 0.000000 0.000000 0.000000 0.000000 0.053146
#
#
# Mechanical properties :
#
#
# Convention : Reuss Voigt Hill
#
# Bulk Modulus (GPa) = 18.35253 30.30040 24.32646
# Shear Modulus (GPa) = 11.57802 20.25654 15.91728
#
# Velocity S-wave (km/s) = 2.27201 3.00522 2.66396
# Velocity P-wave (km/s) = 3.88139 5.05482 4.50646
#
# Compressibility (1/GPa) = 0.05448840
#
# Stress axis : x y z
#
# Youngs Moduli (GPa) = 98.71696 76.41637 23.71645
#
# Poissons Ratio (x) = 0.22739 -0.02974
# Poissons Ratio (y) = 0.29374 0.08833
# Poissons Ratio (z) = -0.12378 0.28462
#
# Static dielectric constant tensor:
#      x y z
#    x 1.864110 0.000000 0.000000 
#    y 0.000000 1.838070 0.000000 
#    z 0.000000 0.000000 1.830360 
# 
# From -- ./inp_files/29211.got.cif
#   From: 2010.05.17/outbox.cif.g08.bks.cpg/sg52_15_cif.got.tgz:29211.got - 2010.06.03 12:15:38.
