data_PCOD9411545
_publ_section_title
;
Structure prediction by ZEFSAII (Michael W. Deem and Ramdas Pophale) SiO2 
 PCOD9411545
Probable space group: P N N A
;
_chemical_formula_sum "Si O2"
_cell_formula_units_Z 60
_cell_length_a 11.477862
_cell_length_b 15.199191
_cell_length_c 18.665339
_cell_angle_alpha 90.000000
_cell_angle_beta 90.000000
_cell_angle_gamma 90.000000
_cell_volume 3256.247097
_symmetry_space_group_name_H-M "P N N A"
_symmetry_group_IT_number 52
_symmetry_cell_setting 'orthorhombic'
loop_
_space_group_symop_operation_xyz
x,y,z
1/2-x,-y,z
x,1/2-y,1/2-z
1/2-x,1/2+y,1/2-z
-x,-y,-z
1/2+x,y,-z
-x,1/2+y,1/2+z
1/2+x,1/2-y,1/2+z
loop_
_atom_site_type_symbol
_atom_site_label
_atom_site_fract_x
_atom_site_fract_y
_atom_site_fract_z
Si Si1 0.082775 0.483381 0.434277
Si Si2 0.624940 0.954330 0.712354
Si Si3 0.849068 0.750000 0.750000
Si Si4 0.755826 0.103035 0.134402
Si Si5 0.770652 0.151205 0.975047
Si Si6 0.017894 0.181960 0.808384
Si Si7 0.329221 0.200405 0.376503
Si Si8 0.513375 0.910674 0.213078
O O1 0.153477 0.575713 0.433455
O O2 0.147563 0.393828 0.457906
O O3 0.000000 0.500000 0.500000
O O4 0.027367 0.463259 0.357933
O O5 0.576885 0.879652 0.767414
O O6 0.641604 0.902164 0.637377
O O7 0.750000 0.000000 0.731646
O O8 0.523867 0.027548 0.720146
O O9 0.765580 0.781048 0.685835
O O10 0.932180 0.826397 0.778598
O O11 0.627351 0.133040 0.157531
O O12 0.852527 0.112552 0.196931
O O13 0.750000 0.000000 0.116574
O O14 0.793725 0.147928 0.059945
O O15 0.781023 0.250040 0.946192
O O16 0.066996 0.250000 0.750000
O O17 0.945664 0.243325 0.861771
#
# Coordination Sequence:
#
# PCOD9411545 Si02
#       8
#     8   8   4   8   8   8   8   8
#     4  11  21  34  50  79 120 161 184 228 292 368
#     4  11  20  35  60  84 111 150 196 257 295 340
#     4  12  22  36  54  90 114 150 194 258 306 334
#     4  12  23  38  55  86 123 163 193 228 300 382
#     4  11  23  33  52  83 117 157 197 233 294 364
#     4  10  22  38  57  84 121 158 194 235 299 373
#     4  11  21  37  56  80 117 155 203 248 294 346
#     4  12  23  35  56  85 124 147 195 248 303 355
#
# _framework density 18.426120999999998
#
# number of rings (size 3 to 8) (size 9 to 14) (size 15 to 20)
#    0.000    0.800    8.667    0.800    4.667    0.000 
#    0.000    0.000    0.000    0.000    0.000    9.333 
#    0.000    0.000    0.000    0.000    0.000    0.133 
#
# Total GULP energy -334289.893971 kJ/mol
# GULP energy per Si atom -5571.498233 kJ/mol
# Density = 1.838418 g / cm^3
# Si number density = 18.426121 Si / 1000 Ang^3
#
#
#
# Elastic Constant Matrix: (Units=GPa)
#
#
# Indices 1 2 3 4 5 6 
#
# 1 98.4672 40.8726 29.9482 0.0000 0.0000 0.0000
# 2 40.8726 81.8635 44.3654 0.0000 0.0000 0.0000
# 3 29.9482 44.3654 61.3101 0.0000 0.0000 0.0000
# 4 0.0000 0.0000 0.0000 30.8801 0.0000 0.0000
# 5 0.0000 0.0000 0.0000 0.0000 14.9379 0.0000
# 6 0.0000 0.0000 0.0000 0.0000 0.0000 33.1508
#
#
#
# Elastic Compliance Matrix: (Units=1/GPa)
#
#
# Indices 1 2 3 4 5 6 
#
# 1 0.013084 -0.005049 -0.002738 0.000000 0.000000 0.000000
# 2 -0.005049 0.022045 -0.013486 0.000000 0.000000 0.000000
# 3 -0.002738 -0.013486 0.027407 0.000000 0.000000 0.000000
# 4 0.000000 0.000000 0.000000 0.032383 0.000000 0.000000
# 5 0.000000 0.000000 0.000000 0.000000 0.066944 0.000000
# 6 0.000000 0.000000 0.000000 0.000000 0.000000 0.030165
#
#
# Mechanical properties :
#
#
# Convention : Reuss Voigt Hill
#
# Bulk Modulus (GPa) = 50.02394 52.44592 51.23493
# Shear Modulus (GPa) = 20.72657 24.22407 22.47532
#
# Velocity S-wave (km/s) = 3.35751 3.62976 3.49629
# Velocity P-wave (km/s) = 6.49906 6.78907 6.64565
#
# Compressibility (1/GPa) = 0.01999043
#
# Stress axis : x y z
#
# Youngs Moduli (GPa) = 76.42886 45.36196 36.48762
#
# Poissons Ratio (x) = 0.22903 0.09989
# Poissons Ratio (y) = 0.38588 0.49207
# Poissons Ratio (z) = 0.20924 0.61175
#
# Static dielectric constant tensor:
#      x y z
#    x 1.679170 0.000000 0.000000 
#    y 0.000000 1.680940 0.000000 
#    z 0.000000 0.000000 1.652270 
# 
# From -- ./inp_files/32382.got.cif
#   From: 2010.05.17/outbox.cif.g08.bks.cpg/sg52_17_cif.got.tgz:32382.got - 2010.06.03 12:15:38.
