data_PCOD9411966
_publ_section_title
;
Structure prediction by ZEFSAII (Michael W. Deem and Ramdas Pophale) SiO2 
 PCOD9411966
Probable space group: P N N A
;
_chemical_formula_sum "Si O2"
_cell_formula_units_Z 32
_cell_length_a 15.573726
_cell_length_b 5.152939
_cell_length_c 16.159697
_cell_angle_alpha 90.000000
_cell_angle_beta 90.000000
_cell_angle_gamma 90.000000
_cell_volume 1296.823119
_symmetry_space_group_name_H-M "P N N A"
_symmetry_group_IT_number 52
_symmetry_cell_setting 'orthorhombic'
loop_
_space_group_symop_operation_xyz
x,y,z
1/2-x,-y,z
x,1/2-y,1/2-z
1/2-x,1/2+y,1/2-z
-x,-y,-z
1/2+x,y,-z
-x,1/2+y,1/2+z
1/2+x,1/2-y,1/2+z
loop_
_atom_site_type_symbol
_atom_site_label
_atom_site_fract_x
_atom_site_fract_y
_atom_site_fract_z
Si Si1 0.577885 0.187272 0.345945
Si Si2 0.250000 0.500000 0.807280
Si Si3 0.392661 0.497664 0.093257
Si Si4 0.102562 0.502096 0.509465
Si Si5 0.800605 0.750000 0.750000
O O1 0.557929 0.250000 0.250000
O O2 0.660127 0.003151 0.354211
O O3 0.493583 0.059615 0.387323
O O4 0.609789 0.447637 0.392969
O O5 0.253419 0.750000 0.750000
O O6 0.371477 0.735150 0.033767
O O7 0.353208 0.593493 0.180004
O O8 0.362277 0.240960 0.043969
O O9 0.000000 0.500000 0.500000
O O10 0.750000 0.500000 0.711779
#
# Coordination Sequence:
#
# PCOD9411966 Si02
#       5
#     8   4   8   8   4
#     4  10  23  42  75 106 146 191 244 291 370 442
#     4  10  24  40  62 106 148 178 242 304 346 442
#     4  11  25  44  75 101 145 192 236 305 378 433
#     4  10  22  42  68 108 142 182 243 295 355 455
#     4  12  28  48  76 110 144 188 264 320 366 454
#
# _framework density 24.675684
#
# number of rings (size 3 to 8) (size 9 to 14) (size 15 to 20)
#    0.000    1.500    0.000    4.500   10.500    8.000 
#    2.250    0.000   16.500    0.000    0.000    0.000 
#    0.000    0.000    0.000    0.000    0.000    0.000 
#
# Total GULP energy -178622.290799 kJ/mol
# GULP energy per Si atom -5581.946587 kJ/mol
# Density = 2.461952 g / cm^3
# Si number density = 24.675684 Si / 1000 Ang^3
#
#
#
# Elastic Constant Matrix: (Units=GPa)
#
#
# Indices 1 2 3 4 5 6 
#
# 1 80.4356 43.4849 18.5588 0.0000 0.0000 0.0000
# 2 43.4849 240.1406 82.9727 0.0000 0.0000 0.0000
# 3 18.5588 82.9727 164.8679 0.0000 0.0000 0.0000
# 4 0.0000 0.0000 0.0000 46.9398 0.0000 0.0000
# 5 0.0000 0.0000 0.0000 0.0000 -27.4341 0.0000
# 6 0.0000 0.0000 0.0000 0.0000 0.0000 25.4655
#
#
#
# Elastic Compliance Matrix: (Units=1/GPa)
#
#
# Indices 1 2 3 4 5 6 
#
# 1 0.013799 -0.002375 -0.000358 0.000000 0.000000 0.000000
# 2 -0.002375 0.005450 -0.002475 0.000000 0.000000 0.000000
# 3 -0.000358 -0.002475 0.007351 0.000000 0.000000 0.000000
# 4 0.000000 0.000000 0.000000 0.021304 0.000000 0.000000
# 5 0.000000 0.000000 0.000000 0.000000 -0.036451 0.000000
# 6 0.000000 0.000000 0.000000 0.000000 0.000000 0.039269
#
#
# Mechanical properties :
#
#
# Convention : Reuss Voigt Hill
#
# Bulk Modulus (GPa) = 61.79195 86.16408 73.97802
# Shear Modulus (GPa) = 75.15113 31.68942 53.42028
#
# Velocity S-wave (km/s) = 5.52464 3.58751 4.65789
# Velocity P-wave (km/s) = 8.11120 7.22182 7.67940
#
# Compressibility (1/GPa) = 0.01618334
#
# Stress axis : x y z
#
# Youngs Moduli (GPa) = 72.46962 183.50219 136.02728
#
# Poissons Ratio (x) = 0.43582 0.04870
# Poissons Ratio (y) = 0.17212 0.33670
# Poissons Ratio (z) = 0.02595 0.45421
#
# Static dielectric constant tensor:
#      x y z
#    x 2.015490 0.000000 0.000000 
#    y 0.000000 1.982050 0.000000 
#    z 0.000000 0.000000 2.071260 
# 
# From -- ./inp_files/27729.got.cif
#   From: 2010.05.17/outbox.cif.g08.bks.cpg/sg52_14_cif.got.tgz:27729.got - 2010.06.03 12:15:38.
