data_PCOD9411167
_publ_section_title
;
Structure prediction by ZEFSAII (Michael W. Deem and Ramdas Pophale) SiO2 
 PCOD9411167
Probable space group: P N N A
;
_chemical_formula_sum "Si O2"
_cell_formula_units_Z 48
_cell_length_a 13.587039
_cell_length_b 16.114827
_cell_length_c 10.493637
_cell_angle_alpha 90.000000
_cell_angle_beta 90.000000
_cell_angle_gamma 90.000000
_cell_volume 2297.611024
_symmetry_space_group_name_H-M "P N N A"
_symmetry_group_IT_number 52
_symmetry_cell_setting 'orthorhombic'
loop_
_space_group_symop_operation_xyz
x,y,z
1/2-x,-y,z
x,1/2-y,1/2-z
1/2-x,1/2+y,1/2-z
-x,-y,-z
1/2+x,y,-z
-x,1/2+y,1/2+z
1/2+x,1/2-y,1/2+z
loop_
_atom_site_type_symbol
_atom_site_label
_atom_site_fract_x
_atom_site_fract_y
_atom_site_fract_z
Si Si1 0.795446 0.198877 0.139878
Si Si2 0.810716 0.250000 0.750000
Si Si3 0.594170 0.876665 0.916750
Si Si4 0.108366 0.000498 0.556115
Si Si5 0.124579 0.424784 0.666526
Si Si6 0.750000 0.500000 0.560484
Si Si7 0.747603 0.144673 0.531376
O O1 0.848933 0.250000 0.250000
O O2 0.703069 0.148169 0.198478
O O3 0.750322 0.269674 0.048213
O O4 0.870659 0.139534 0.062689
O O5 0.882716 0.210050 0.852243
O O6 0.750484 0.179859 0.675154
O O7 0.485341 0.901960 0.877873
O O8 0.676510 0.940692 0.864552
O O9 0.118271 0.015217 0.709749
O O10 0.158741 0.082595 0.496581
O O11 0.162002 0.915782 0.510650
O O12 0.000000 0.000000 0.500000
O O13 0.175081 0.456028 0.536663
#
# Coordination Sequence:
#
# PCOD9411167 Si02
#       7
#     8   4   8   8   8   4   8
#     4  10  21  40  67  90 129 170 215 269 321 389
#     4  10  22  40  60  88 130 168 206 264 318 382
#     4  10  23  38  65  92 124 170 214 261 328 385
#     4  11  23  38  65  97 126 168 218 263 324 394
#     4  11  22  39  65  93 128 166 217 266 326 387
#     4  10  22  42  62  90 126 166 208 266 322 386
#     4  10  22  41  63  93 126 170 214 260 328 384
#
# _framework density 20.891262999999999
#
# number of rings (size 3 to 8) (size 9 to 14) (size 15 to 20)
#    0.000    1.667    1.667    2.500    3.500    5.333 
#    0.000    1.667   18.333    0.000    0.000    0.000 
#    0.000    0.000    0.000    0.000    0.000    0.000 
#
# Total GULP energy -267332.548727 kJ/mol
# GULP energy per Si atom -5569.428098 kJ/mol
# Density = 2.084371 g / cm^3
# Si number density = 20.891263 Si / 1000 Ang^3
#
#
#
# Elastic Constant Matrix: (Units=GPa)
#
#
# Indices 1 2 3 4 5 6 
#
# 1 122.0405 19.9088 22.6105 0.0000 0.0000 0.0000
# 2 19.9088 57.2428 8.3928 0.0000 0.0000 0.0000
# 3 22.6105 8.3928 68.2483 0.0000 0.0000 0.0000
# 4 0.0000 0.0000 0.0000 53.7929 0.0000 0.0000
# 5 0.0000 0.0000 0.0000 0.0000 18.9496 0.0000
# 6 0.0000 0.0000 0.0000 0.0000 0.0000 12.9757
#
#
#
# Elastic Compliance Matrix: (Units=1/GPa)
#
#
# Indices 1 2 3 4 5 6 
#
# 1 0.009147 -0.002787 -0.002688 0.000000 0.000000 0.000000
# 2 -0.002787 0.018639 -0.001369 0.000000 0.000000 0.000000
# 3 -0.002688 -0.001369 0.015711 0.000000 0.000000 0.000000
# 4 0.000000 0.000000 0.000000 0.018590 0.000000 0.000000
# 5 0.000000 0.000000 0.000000 0.000000 0.052772 0.000000
# 6 0.000000 0.000000 0.000000 0.000000 0.000000 0.077067
#
#
# Mechanical properties :
#
#
# Convention : Reuss Voigt Hill
#
# Bulk Modulus (GPa) = 33.54544 38.81729 36.18136
# Shear Modulus (GPa) = 23.19652 30.25159 26.72406
#
# Velocity S-wave (km/s) = 3.33580 3.80945 3.58047
# Velocity P-wave (km/s) = 5.56136 6.16200 5.86937
#
# Compressibility (1/GPa) = 0.02981031
#
# Stress axis : x y z
#
# Youngs Moduli (GPa) = 109.33042 53.64953 63.64938
#
# Poissons Ratio (x) = 0.14953 0.17106
# Poissons Ratio (y) = 0.30472 0.08712
# Poissons Ratio (z) = 0.29383 0.07344
#
# Static dielectric constant tensor:
#      x y z
#    x 1.315790 0.000000 0.000000 
#    y 0.000000 1.859180 0.000000 
#    z 0.000000 0.000000 1.863620 
# 
# From -- ./inp_files/18226.got.cif
#   From: 2010.05.17/outbox.cif.g08.bks.cpg/sg52_10_cif.got.tgz:18226.got - 2010.06.03 12:15:38.
