data_PCOD9411612
_publ_section_title
;
Structure prediction by ZEFSAII (Michael W. Deem and Ramdas Pophale) SiO2 
 PCOD9411612
Probable space group: P N N A
;
_chemical_formula_sum "Si O2"
_cell_formula_units_Z 32
_cell_length_a 12.353272
_cell_length_b 5.033132
_cell_length_c 22.956911
_cell_angle_alpha 90.000000
_cell_angle_beta 90.000000
_cell_angle_gamma 90.000000
_cell_volume 1427.360831
_symmetry_space_group_name_H-M "P N N A"
_symmetry_group_IT_number 52
_symmetry_cell_setting 'orthorhombic'
loop_
_space_group_symop_operation_xyz
x,y,z
1/2-x,-y,z
x,1/2-y,1/2-z
1/2-x,1/2+y,1/2-z
-x,-y,-z
1/2+x,y,-z
-x,1/2+y,1/2+z
1/2+x,1/2-y,1/2+z
loop_
_atom_site_type_symbol
_atom_site_label
_atom_site_fract_x
_atom_site_fract_y
_atom_site_fract_z
Si Si1 0.948012 0.849822 0.183920
Si Si2 0.750000 0.000000 0.115470
Si Si3 0.250000 0.000000 0.430883
Si Si4 0.586928 0.723527 0.480181
Si Si5 0.955120 0.630899 0.876591
O O1 0.942061 0.750000 0.250000
O O2 0.030672 0.648233 0.154287
O O3 0.827514 0.823785 0.156346
O O4 0.991004 0.142934 0.164609
O O5 0.833506 0.127318 0.070952
O O6 0.329637 0.173201 0.471563
O O7 0.169664 0.178909 0.392300
O O8 0.500000 0.500000 0.500000
O O9 0.514312 0.913728 0.439464
#
# Coordination Sequence:
#
# PCOD9411612 Si02
#       5
#     8   4   4   8   8
#     4  11  25  46  68  97 132 173 227 291 335 384
#     4  10  22  38  67 100 135 176 224 266 338 406
#     4  12  22  40  69  96 139 186 216 268 344 410
#     4  11  22  39  65 103 142 177 217 273 333 413
#     4  11  25  43  67 100 134 174 227 273 330 409
#
# _framework density 22.418997000000001
#
# number of rings (size 3 to 8) (size 9 to 14) (size 15 to 20)
#    0.000    1.000    0.000    7.500    0.000   10.000 
#    0.000    2.500    0.000    0.000    0.000    0.000 
#    0.000    0.000    0.000    0.000    0.000    0.000 
#
# Total GULP energy -178458.832921 kJ/mol
# GULP energy per Si atom -5576.838529 kJ/mol
# Density = 2.236797 g / cm^3
# Si number density = 22.418997 Si / 1000 Ang^3
#
#
#
# Elastic Constant Matrix: (Units=GPa)
#
#
# Indices 1 2 3 4 5 6 
#
# 1 165.1785 18.8809 59.7008 0.0000 0.0000 0.0000
# 2 18.8809 54.4921 8.6607 0.0000 0.0000 0.0000
# 3 59.7008 8.6607 120.1073 0.0000 0.0000 0.0000
# 4 0.0000 0.0000 0.0000 3.1640 0.0000 0.0000
# 5 0.0000 0.0000 0.0000 0.0000 34.3041 0.0000
# 6 0.0000 0.0000 0.0000 0.0000 0.0000 24.3919
#
#
#
# Elastic Compliance Matrix: (Units=1/GPa)
#
#
# Indices 1 2 3 4 5 6 
#
# 1 0.007601 -0.002057 -0.003630 0.000000 0.000000 0.000000
# 2 -0.002057 0.019121 -0.000356 0.000000 0.000000 0.000000
# 3 -0.003630 -0.000356 0.010156 0.000000 0.000000 0.000000
# 4 0.000000 0.000000 0.000000 0.316058 0.000000 0.000000
# 5 0.000000 0.000000 0.000000 0.000000 0.029151 0.000000
# 6 0.000000 0.000000 0.000000 0.000000 0.000000 0.040997
#
#
# Mechanical properties :
#
#
# Convention : Reuss Voigt Hill
#
# Bulk Modulus (GPa) = 40.33660 57.14032 48.73846
# Shear Modulus (GPa) = 11.27565 29.20771 20.24168
#
# Velocity S-wave (km/s) = 2.24509 3.61336 3.00806
# Velocity P-wave (km/s) = 4.97512 6.55372 5.81821
#
# Compressibility (1/GPa) = 0.02479138
#
# Stress axis : x y z
#
# Youngs Moduli (GPa) = 131.55937 52.29967 98.46504
#
# Poissons Ratio (x) = 0.10757 0.35742
# Poissons Ratio (y) = 0.27059 0.03509
# Poissons Ratio (z) = 0.47755 0.01864
#
# Static dielectric constant tensor:
#      x y z
#    x 1.718580 0.000000 0.000000 
#    y 0.000000 1.423170 0.000000 
#    z 0.000000 0.000000 2.038780 
# 
# From -- ./inp_files/36475.got.cif
#   From: 2010.05.17/outbox.cif.g08.bks.cpg/sg52_19_cif.got.tgz:36475.got - 2010.06.03 12:15:38.
