data_PCOD9411421
_publ_section_title
;
Structure prediction by ZEFSAII (Michael W. Deem and Ramdas Pophale) SiO2 
 PCOD9411421
Probable space group: P N N A
;
_chemical_formula_sum "Si O2"
_cell_formula_units_Z 32
_cell_length_a 10.238631
_cell_length_b 5.485212
_cell_length_c 27.626801
_cell_angle_alpha 90.000000
_cell_angle_beta 90.000000
_cell_angle_gamma 90.000000
_cell_volume 1551.550473
_symmetry_space_group_name_H-M "P N N A"
_symmetry_group_IT_number 52
_symmetry_cell_setting 'orthorhombic'
loop_
_space_group_symop_operation_xyz
x,y,z
1/2-x,-y,z
x,1/2-y,1/2-z
1/2-x,1/2+y,1/2-z
-x,-y,-z
1/2+x,y,-z
-x,1/2+y,1/2+z
1/2+x,1/2-y,1/2+z
loop_
_atom_site_type_symbol
_atom_site_label
_atom_site_fract_x
_atom_site_fract_y
_atom_site_fract_z
Si Si1 0.897458 0.609620 0.037499
Si Si2 0.750000 0.500000 0.421115
Si Si3 0.572303 0.871923 0.363782
Si Si4 0.668277 0.252321 0.694605
Si Si5 0.250000 0.500000 0.780327
O O1 0.750000 0.500000 0.029948
O O2 0.952010 0.542729 0.090587
O O3 0.862522 0.893607 0.043863
O O4 0.000000 0.500000 0.000000
O O5 0.682975 0.693494 0.385384
O O6 0.444879 0.738849 0.344943
O O7 0.627512 0.008685 0.316822
O O8 0.750000 0.500000 0.690418
O O9 0.616014 0.250000 0.750000
O O10 0.750000 0.000000 0.688442
O O11 0.243946 0.750000 0.750000
#
# Coordination Sequence:
#
# PCOD9411421 Si02
#       5
#     8   4   8   8   4
#     4  10  23  43  67  97 135 179 231 295 362 430
#     4  10  21  44  70  94 142 168 232 297 364 414
#     4  11  23  41  65  97 134 175 226 297 339 426
#     4  10  24  42  61  91 134 182 226 278 339 413
#     4  12  25  38  68 106 136 182 228 281 360 416
#
# _framework density 20.62453
#
# number of rings (size 3 to 8) (size 9 to 14) (size 15 to 20)
#    0.000    1.500    3.750    1.500    3.500    8.000 
#    2.250    0.000    0.000    0.000    0.000    0.000 
#    0.000    0.000    0.000    0.000    0.000    0.000 
#
# Total GULP energy -178410.645406 kJ/mol
# GULP energy per Si atom -5575.332669 kJ/mol
# Density = 2.057759 g / cm^3
# Si number density = 20.624530 Si / 1000 Ang^3
#
#
#
# Elastic Constant Matrix: (Units=GPa)
#
#
# Indices 1 2 3 4 5 6 
#
# 1 88.3822 26.6304 67.7342 0.0000 0.0000 0.0000
# 2 26.6304 100.7291 57.8652 0.0000 0.0000 0.0000
# 3 67.7342 57.8652 143.1287 0.0000 0.0000 0.0000
# 4 0.0000 0.0000 0.0000 18.0488 0.0000 0.0000
# 5 0.0000 0.0000 0.0000 0.0000 3.6213 0.0000
# 6 0.0000 0.0000 0.0000 0.0000 0.0000 18.6289
#
#
#
# Elastic Compliance Matrix: (Units=1/GPa)
#
#
# Indices 1 2 3 4 5 6 
#
# 1 0.017756 0.000173 -0.008473 0.000000 0.000000 0.000000
# 2 0.000173 0.012932 -0.005310 0.000000 0.000000 0.000000
# 3 -0.008473 -0.005310 0.013143 0.000000 0.000000 0.000000
# 4 0.000000 0.000000 0.000000 0.055405 0.000000 0.000000
# 5 0.000000 0.000000 0.000000 0.000000 0.276148 0.000000
# 6 0.000000 0.000000 0.000000 0.000000 0.000000 0.053680
#
#
# Mechanical properties :
#
#
# Convention : Reuss Voigt Hill
#
# Bulk Modulus (GPa) = 60.19943 70.74439 65.47191
# Shear Modulus (GPa) = 10.82670 20.06048 15.44359
#
# Velocity S-wave (km/s) = 2.29365 3.12212 2.73938
# Velocity P-wave (km/s) = 6.02213 6.88276 6.46678
#
# Compressibility (1/GPa) = 0.01661145
#
# Stress axis : x y z
#
# Youngs Moduli (GPa) = 56.32037 77.32481 76.08500
#
# Poissons Ratio (x) = -0.01338 0.64464
# Poissons Ratio (y) = -0.00975 0.40404
# Poissons Ratio (z) = 0.47718 0.41062
#
# Static dielectric constant tensor:
#      x y z
#    x 1.803350 0.000000 0.000000 
#    y 0.000000 1.903830 0.000000 
#    z 0.000000 0.000000 1.717190 
# 
# From -- ./inp_files/44073.got.cif
#   From: 2010.05.17/outbox.cif.g08.bks.cpg/sg52_23_cif.got.tgz:44073.got - 2010.06.03 12:15:38.
