data_PCOD9411100
_publ_section_title
;
Structure prediction by ZEFSAII (Michael W. Deem and Ramdas Pophale) SiO2 
 PCOD9411100
Probable space group: P N N A
;
_chemical_formula_sum "Si O2"
_cell_formula_units_Z 40
_cell_length_a 22.659283
_cell_length_b 6.528054
_cell_length_c 14.205632
_cell_angle_alpha 90.000000
_cell_angle_beta 90.000000
_cell_angle_gamma 90.000000
_cell_volume 2101.311618
_symmetry_space_group_name_H-M "P N N A"
_symmetry_group_IT_number 52
_symmetry_cell_setting 'orthorhombic'
loop_
_space_group_symop_operation_xyz
x,y,z
1/2-x,-y,z
x,1/2-y,1/2-z
1/2-x,1/2+y,1/2-z
-x,-y,-z
1/2+x,y,-z
-x,1/2+y,1/2+z
1/2+x,1/2-y,1/2+z
loop_
_atom_site_type_symbol
_atom_site_label
_atom_site_fract_x
_atom_site_fract_y
_atom_site_fract_z
Si Si1 0.865193 0.186655 0.854885
Si Si2 0.684661 0.047086 0.021051
Si Si3 0.887255 0.563407 0.991716
Si Si4 0.403320 0.270776 0.645462
Si Si5 0.472570 0.902911 0.093754
O O1 0.848565 0.250000 0.750000
O O2 0.871097 0.392016 0.915885
O O3 0.926880 0.059371 0.857915
O O4 0.821722 0.043222 0.915313
O O5 0.750000 0.000000 0.056031
O O6 0.636226 0.927278 0.083971
O O7 0.666069 0.283556 0.017088
O O8 0.936925 0.705465 0.943592
O O9 0.905816 0.439138 0.085155
O O10 0.378176 0.250000 0.750000
O O11 0.470160 0.351395 0.654107
O O12 0.500000 0.000000 0.000000
#
# Coordination Sequence:
#
# PCOD9411100 Si02
#       5
#     8   8   8   8   8
#     4  10  23  38  60  96 122 161 208 249 315 376
#     4  10  23  46  62  85 123 164 213 260 308 364
#     4  10  21  40  63  81 128 164 194 256 312 358
#     4  11  24  38  60  96 120 161 214 249 310 370
#     4  11  20  37  59  87 128 162 200 248 309 383
#
# _framework density 19.035727999999999
#
# number of rings (size 3 to 8) (size 9 to 14) (size 15 to 20)
#    0.000    1.600    6.000    0.600    2.800    6.400 
#    7.200    0.000    0.000    0.000    0.000    0.000 
#    0.000    0.000    0.000    0.000    0.000    0.000 
#
# Total GULP energy -223167.418914 kJ/mol
# GULP energy per Si atom -5579.185473 kJ/mol
# Density = 1.899240 g / cm^3
# Si number density = 19.035728 Si / 1000 Ang^3
#
#
#
# Elastic Constant Matrix: (Units=GPa)
#
#
# Indices 1 2 3 4 5 6 
#
# 1 97.0886 29.5828 -7.1551 0.0000 0.0000 0.0000
# 2 29.5828 108.3248 16.4294 0.0000 0.0000 0.0000
# 3 -7.1551 16.4294 102.0496 0.0000 0.0000 0.0000
# 4 0.0000 0.0000 0.0000 8.9604 0.0000 0.0000
# 5 0.0000 0.0000 0.0000 0.0000 9.2730 0.0000
# 6 0.0000 0.0000 0.0000 0.0000 0.0000 8.7994
#
#
#
# Elastic Compliance Matrix: (Units=1/GPa)
#
#
# Indices 1 2 3 4 5 6 
#
# 1 0.011409 -0.003318 0.001334 0.000000 0.000000 0.000000
# 2 -0.003318 0.010428 -0.001911 0.000000 0.000000 0.000000
# 3 0.001334 -0.001911 0.010200 0.000000 0.000000 0.000000
# 4 0.000000 0.000000 0.000000 0.111602 0.000000 0.000000
# 5 0.000000 0.000000 0.000000 0.000000 0.107839 0.000000
# 6 0.000000 0.000000 0.000000 0.000000 0.000000 0.113645
#
#
# Mechanical properties :
#
#
# Convention : Reuss Voigt Hill
#
# Bulk Modulus (GPa) = 41.24326 42.79748 42.02037
# Shear Modulus (GPa) = 13.12349 23.31362 18.21855
#
# Velocity S-wave (km/s) = 2.62852 3.50341 3.09701
# Velocity P-wave (km/s) = 5.56106 6.23672 5.90856
#
# Compressibility (1/GPa) = 0.02424639
#
# Stress axis : x y z
#
# Youngs Moduli (GPa) = 87.64834 95.89973 98.03511
#
# Poissons Ratio (x) = 0.31821 -0.13079
# Poissons Ratio (y) = 0.29083 0.18739
# Poissons Ratio (z) = -0.11694 0.18331
#
# Static dielectric constant tensor:
#      x y z
#    x 1.677550 0.000000 0.000000 
#    y 0.000000 1.705730 0.000000 
#    z 0.000000 0.000000 1.661880 
# 
# From -- ./inp_files/29011.got.cif
#   From: 2010.05.17/outbox.cif.g08.bks.cpg/sg52_15_cif.got.tgz:29011.got - 2010.06.03 12:15:38.
