data_PCOD9411832
_publ_section_title
;
Structure prediction by ZEFSAII (Michael W. Deem and Ramdas Pophale) SiO2 
 PCOD9411832
Probable space group: P N N A
;
_chemical_formula_sum "Si O2"
_cell_formula_units_Z 40
_cell_length_a 8.207640
_cell_length_b 19.125904
_cell_length_c 11.618784
_cell_angle_alpha 90.000000
_cell_angle_beta 90.000000
_cell_angle_gamma 90.000000
_cell_volume 1823.899687
_symmetry_space_group_name_H-M "P N N A"
_symmetry_group_IT_number 52
_symmetry_cell_setting 'orthorhombic'
loop_
_space_group_symop_operation_xyz
x,y,z
1/2-x,-y,z
x,1/2-y,1/2-z
1/2-x,1/2+y,1/2-z
-x,-y,-z
1/2+x,y,-z
-x,1/2+y,1/2+z
1/2+x,1/2-y,1/2+z
loop_
_atom_site_type_symbol
_atom_site_label
_atom_site_fract_x
_atom_site_fract_y
_atom_site_fract_z
Si Si1 0.487749 0.468510 0.847408
Si Si2 0.831239 0.092672 0.567352
Si Si3 0.061454 0.338695 0.559597
Si Si4 0.654526 0.932525 0.102490
Si Si5 0.235348 0.750931 0.122965
O O1 0.659627 0.432743 0.880446
O O2 0.525284 0.550647 0.866743
O O3 0.434726 0.454150 0.718779
O O4 0.360402 0.435068 0.937568
O O5 0.826161 0.175508 0.580528
O O6 0.209226 0.373722 0.627252
O O7 0.141791 0.284815 0.468752
O O8 0.969332 0.398896 0.487540
O O9 0.922710 0.300605 0.631552
O O10 0.750000 0.000000 0.055648
O O11 0.312233 0.750000 0.250000
#
# Coordination Sequence:
#
# PCOD9411832 Si02
#       5
#     8   8   8   8   8
#     4  10  23  39  69  96 132 169 213 263 327 374
#     4  10  22  41  64 101 134 165 215 266 316 388
#     4  10  25  44  63  99 123 172 221 261 322 389
#     4  11  24  44  68  91 129 169 216 273 321 377
#     4  11  23  41  68  90 135 169 213 263 323 384
#
# _framework density 21.931031999999998
#
# number of rings (size 3 to 8) (size 9 to 14) (size 15 to 20)
#    0.000    1.600    0.000    3.000    8.400    1.600 
#    7.200    4.000    0.000    0.000    0.000    0.000 
#    0.000    0.000    0.000    0.000    0.000    0.000 
#
# Total GULP energy -223720.335136 kJ/mol
# GULP energy per Si atom -5593.008378 kJ/mol
# Density = 2.188112 g / cm^3
# Si number density = 21.931032 Si / 1000 Ang^3
#
#
#
# Elastic Constant Matrix: (Units=GPa)
#
#
# Indices 1 2 3 4 5 6 
#
# 1 91.1696 28.3043 15.0297 0.0000 0.0000 0.0000
# 2 28.3043 133.1844 34.6310 0.0000 0.0000 0.0000
# 3 15.0297 34.6310 48.5551 0.0000 0.0000 0.0000
# 4 0.0000 0.0000 0.0000 22.2914 0.0000 0.0000
# 5 0.0000 0.0000 0.0000 0.0000 14.2967 0.0000
# 6 0.0000 0.0000 0.0000 0.0000 0.0000 31.2378
#
#
#
# Elastic Compliance Matrix: (Units=1/GPa)
#
#
# Indices 1 2 3 4 5 6 
#
# 1 0.011952 -0.001937 -0.002318 0.000000 0.000000 0.000000
# 2 -0.001937 0.009532 -0.006199 0.000000 0.000000 0.000000
# 3 -0.002318 -0.006199 0.025734 0.000000 0.000000 0.000000
# 4 0.000000 0.000000 0.000000 0.044860 0.000000 0.000000
# 5 0.000000 0.000000 0.000000 0.000000 0.069946 0.000000
# 6 0.000000 0.000000 0.000000 0.000000 0.000000 0.032012
#
#
# Mechanical properties :
#
#
# Convention : Reuss Voigt Hill
#
# Bulk Modulus (GPa) = 38.00860 47.64879 42.82870
# Shear Modulus (GPa) = 22.34990 26.56147 24.45568
#
# Velocity S-wave (km/s) = 3.19580 3.48391 3.34296
# Velocity P-wave (km/s) = 5.56651 6.16095 5.87126
#
# Compressibility (1/GPa) = 0.02630983
#
# Stress axis : x y z
#
# Youngs Moduli (GPa) = 83.66698 104.91054 38.85945
#
# Poissons Ratio (x) = 0.20325 0.09007
# Poissons Ratio (y) = 0.16209 0.24088
# Poissons Ratio (z) = 0.19393 0.65032
#
# Static dielectric constant tensor:
#      x y z
#    x 1.800670 0.000000 0.000000 
#    y 0.000000 1.826470 0.000000 
#    z 0.000000 0.000000 1.760500 
# 
# From -- ./inp_files/16634.got.cif
#   From: 2010.05.17/outbox.cif.g08.bks.cpg/sg52_9_cif.got.tgz:16634.got - 2010.06.03 12:15:38.
