data_PCOD9411664
_publ_section_title
;
Structure prediction by ZEFSAII (Michael W. Deem and Ramdas Pophale) SiO2 
 PCOD9411664
Probable space group: P N N A
;
_chemical_formula_sum "Si O2"
_cell_formula_units_Z 56
_cell_length_a 16.036570
_cell_length_b 13.242379
_cell_length_c 11.769378
_cell_angle_alpha 90.000000
_cell_angle_beta 90.000000
_cell_angle_gamma 90.000000
_cell_volume 2499.372627
_symmetry_space_group_name_H-M "P N N A"
_symmetry_group_IT_number 52
_symmetry_cell_setting 'orthorhombic'
loop_
_space_group_symop_operation_xyz
x,y,z
1/2-x,-y,z
x,1/2-y,1/2-z
1/2-x,1/2+y,1/2-z
-x,-y,-z
1/2+x,y,-z
-x,1/2+y,1/2+z
1/2+x,1/2-y,1/2+z
loop_
_atom_site_type_symbol
_atom_site_label
_atom_site_fract_x
_atom_site_fract_y
_atom_site_fract_z
Si Si1 0.094689 0.345133 0.119270
Si Si2 0.873254 0.543888 0.109615
Si Si3 0.672262 0.366359 0.627271
Si Si4 0.427354 0.262336 0.970638
Si Si5 0.867653 0.416406 0.588210
Si Si6 0.518980 0.854451 0.706134
Si Si7 0.782475 0.166454 0.346204
O O1 0.136361 0.370537 0.241626
O O2 0.141951 0.241762 0.082161
O O3 0.997125 0.307206 0.115607
O O4 0.108661 0.433321 0.024641
O O5 0.830302 0.441343 0.150599
O O6 0.812223 0.635321 0.142809
O O7 0.956328 0.556337 0.180815
O O8 0.771724 0.380782 0.610650
O O9 0.634187 0.464435 0.566399
O O10 0.330634 0.283492 0.949045
O O11 0.422933 0.143132 0.994811
O O12 0.446270 0.320719 0.085697
O O13 0.912586 0.389309 0.705938
O O14 0.478088 0.750000 0.750000
O O15 0.795580 0.250000 0.250000
#
# Coordination Sequence:
#
# PCOD9411664 Si02
#       7
#     8   8   8   8   8   8   8
#     4  10  23  39  65  95 130 168 215 275 323 402
#     4  10  23  42  63  88 123 174 213 266 329 384
#     4  10  23  38  64 101 136 164 217 276 342 384
#     4  10  23  39  61  94 126 173 215 266 333 393
#     4  10  22  39  64  97 131 172 213 272 338 397
#     4   9  20  37  64  90 124 164 213 260 321 397
#     4  11  25  40  63  89 126 164 222 269 316 386
#
# _framework density 22.405622000000001
#
# number of rings (size 3 to 8) (size 9 to 14) (size 15 to 20)
#    0.000    2.000    0.000    1.286   14.000    2.857 
#    0.000    8.571    0.000    0.000    0.000    0.000 
#    0.000    0.000    0.000    0.000    0.000    0.000 
#
# Total GULP energy -311951.483653 kJ/mol
# GULP energy per Si atom -5570.562208 kJ/mol
# Density = 2.235463 g / cm^3
# Si number density = 22.405622 Si / 1000 Ang^3
#
#
#
# Elastic Constant Matrix: (Units=GPa)
#
#
# Indices 1 2 3 4 5 6 
#
# 1 76.5095 24.1838 11.9060 0.0000 0.0000 0.0000
# 2 24.1838 111.2982 25.3964 0.0000 0.0000 0.0000
# 3 11.9060 25.3964 28.0217 0.0000 0.0000 0.0000
# 4 0.0000 0.0000 0.0000 18.9957 0.0000 0.0000
# 5 0.0000 0.0000 0.0000 0.0000 13.3921 0.0000
# 6 0.0000 0.0000 0.0000 0.0000 0.0000 37.1091
#
#
#
# Elastic Compliance Matrix: (Units=1/GPa)
#
#
# Indices 1 2 3 4 5 6 
#
# 1 0.014405 -0.002185 -0.004140 0.000000 0.000000 0.000000
# 2 -0.002185 0.011659 -0.009638 0.000000 0.000000 0.000000
# 3 -0.004140 -0.009638 0.046181 0.000000 0.000000 0.000000
# 4 0.000000 0.000000 0.000000 0.052643 0.000000 0.000000
# 5 0.000000 0.000000 0.000000 0.000000 0.074671 0.000000
# 6 0.000000 0.000000 0.000000 0.000000 0.000000 0.026948
#
#
# Mechanical properties :
#
#
# Convention : Reuss Voigt Hill
#
# Bulk Modulus (GPa) = 24.80274 37.64464 31.22369
# Shear Modulus (GPa) = 18.39093 24.18895 21.28994
#
# Velocity S-wave (km/s) = 2.86810 3.28928 3.08588
# Velocity P-wave (km/s) = 4.69701 5.59140 5.16360
#
# Compressibility (1/GPa) = 0.04031813
#
# Stress axis : x y z
#
# Youngs Moduli (GPa) = 69.41890 85.77069 21.65403
#
# Poissons Ratio (x) = 0.18745 0.08965
# Poissons Ratio (y) = 0.15171 0.20870
# Poissons Ratio (z) = 0.28739 0.82667
#
# Static dielectric constant tensor:
#      x y z
#    x 1.839160 0.000000 0.000000 
#    y 0.000000 1.902980 0.000000 
#    z 0.000000 0.000000 1.817770 
# 
# From -- ./inp_files/19633.got.cif
#   From: 2010.05.17/outbox.cif.g08.bks.cpg/sg52_10_cif.got.tgz:19633.got - 2010.06.03 12:15:38.
