data_PCOD9411658
_publ_section_title
;
Structure prediction by ZEFSAII (Michael W. Deem and Ramdas Pophale) SiO2 
 PCOD9411658
Probable space group: P N N A
;
_chemical_formula_sum "Si O2"
_cell_formula_units_Z 48
_cell_length_a 9.983019
_cell_length_b 8.520163
_cell_length_c 29.548524
_cell_angle_alpha 90.000000
_cell_angle_beta 90.000000
_cell_angle_gamma 90.000000
_cell_volume 2513.307302
_symmetry_space_group_name_H-M "P N N A"
_symmetry_group_IT_number 52
_symmetry_cell_setting 'orthorhombic'
loop_
_space_group_symop_operation_xyz
x,y,z
1/2-x,-y,z
x,1/2-y,1/2-z
1/2-x,1/2+y,1/2-z
-x,-y,-z
1/2+x,y,-z
-x,1/2+y,1/2+z
1/2+x,1/2-y,1/2+z
loop_
_atom_site_type_symbol
_atom_site_label
_atom_site_fract_x
_atom_site_fract_y
_atom_site_fract_z
Si Si1 0.945335 0.129965 0.129877
Si Si2 0.351727 0.769787 0.868898
Si Si3 0.814364 0.670907 0.029857
Si Si4 0.034947 0.836029 0.975251
Si Si5 0.642508 0.294784 0.802219
Si Si6 0.061515 0.840418 0.298302
O O1 0.807052 0.222369 0.139182
O O2 0.990815 0.159279 0.078434
O O3 0.051475 0.187199 0.166333
O O4 0.907696 0.947111 0.131552
O O5 0.365417 0.696953 0.918828
O O6 0.435176 0.685234 0.830304
O O7 0.750000 0.500000 0.025021
O O8 0.692058 0.792379 0.020475
O O9 0.938207 0.707167 0.997397
O O10 0.000000 0.000000 0.000000
O O11 0.640833 0.250000 0.750000
O O12 0.796946 0.276691 0.817651
O O13 0.590769 0.473736 0.799333
O O14 0.041603 0.750000 0.250000
#
# Coordination Sequence:
#
# PCOD9411658 Si02
#       6
#     8   8   8   8   8   8
#     4  10  22  40  62  91 122 165 210 254 309 379
#     4  10  22  39  63  89 124 162 206 252 313 371
#     4  11  24  41  64  92 126 166 208 267 318 374
#     4  11  22  43  64  90 127 168 216 259 316 380
#     4  10  22  41  64  91 127 162 206 259 309 375
#     4  10  22  40  63  93 125 162 206 256 316 372
#
# _framework density 19.098341000000001
#
# number of rings (size 3 to 8) (size 9 to 14) (size 15 to 20)
#    0.000    1.667    1.667    2.000    4.667    4.000 
#    6.000    0.000    0.000    0.000    0.000    0.000 
#    0.000    0.000    0.000    0.000    0.000    0.000 
#
# Total GULP energy -267911.882514 kJ/mol
# GULP energy per Si atom -5581.497552 kJ/mol
# Density = 1.905487 g / cm^3
# Si number density = 19.098341 Si / 1000 Ang^3
#
#
#
# Elastic Constant Matrix: (Units=GPa)
#
#
# Indices 1 2 3 4 5 6 
#
# 1 60.4940 22.8071 45.6961 0.0000 0.0000 0.0000
# 2 22.8071 53.3355 20.7152 0.0000 0.0000 0.0000
# 3 45.6961 20.7152 54.9919 0.0000 0.0000 0.0000
# 4 0.0000 0.0000 0.0000 31.8176 0.0000 0.0000
# 5 0.0000 0.0000 0.0000 0.0000 44.7445 0.0000
# 6 0.0000 0.0000 0.0000 0.0000 0.0000 32.3159
#
#
#
# Elastic Compliance Matrix: (Units=1/GPa)
#
#
# Indices 1 2 3 4 5 6 
#
# 1 0.045798 -0.005626 -0.035937 0.000000 0.000000 0.000000
# 2 -0.005626 0.022654 -0.003858 0.000000 0.000000 0.000000
# 3 -0.035937 -0.003858 0.049500 0.000000 0.000000 0.000000
# 4 0.000000 0.000000 0.000000 0.031429 0.000000 0.000000
# 5 0.000000 0.000000 0.000000 0.000000 0.022349 0.000000
# 6 0.000000 0.000000 0.000000 0.000000 0.000000 0.030945
#
#
# Mechanical properties :
#
#
# Convention : Reuss Voigt Hill
#
# Bulk Modulus (GPa) = 36.88856 38.58424 37.73640
# Shear Modulus (GPa) = 16.52606 27.08248 21.80427
#
# Velocity S-wave (km/s) = 2.94481 3.76979 3.38255
# Velocity P-wave (km/s) = 5.56054 6.26061 5.92093
#
# Compressibility (1/GPa) = 0.02710868
#
# Stress axis : x y z
#
# Youngs Moduli (GPa) = 21.83521 44.14301 20.20208
#
# Poissons Ratio (x) = 0.24835 0.72599
# Poissons Ratio (y) = 0.12285 0.07795
# Poissons Ratio (z) = 0.78468 0.17032
#
# Static dielectric constant tensor:
#      x y z
#    x 1.652350 0.000000 0.000000 
#    y 0.000000 1.685700 0.000000 
#    z 0.000000 0.000000 1.647600 
# 
# From -- ./inp_files/44383.got.cif
#   From: 2010.05.17/outbox.cif.g08.bks.cpg/sg52_23_cif.got.tgz:44383.got - 2010.06.03 12:15:38.
