data_PCOD9411883
_publ_section_title
;
Structure prediction by ZEFSAII (Michael W. Deem and Ramdas Pophale) SiO2 
 PCOD9411883
Probable space group: P N N A
;
_chemical_formula_sum "Si O2"
_cell_formula_units_Z 48
_cell_length_a 9.146063
_cell_length_b 10.070035
_cell_length_c 25.197007
_cell_angle_alpha 90.000000
_cell_angle_beta 90.000000
_cell_angle_gamma 90.000000
_cell_volume 2320.673939
_symmetry_space_group_name_H-M "P N N A"
_symmetry_group_IT_number 52
_symmetry_cell_setting 'orthorhombic'
loop_
_space_group_symop_operation_xyz
x,y,z
1/2-x,-y,z
x,1/2-y,1/2-z
1/2-x,1/2+y,1/2-z
-x,-y,-z
1/2+x,y,-z
-x,1/2+y,1/2+z
1/2+x,1/2-y,1/2+z
loop_
_atom_site_type_symbol
_atom_site_label
_atom_site_fract_x
_atom_site_fract_y
_atom_site_fract_z
Si Si1 0.911975 0.534648 0.881657
Si Si2 0.960050 0.754715 0.119804
Si Si3 0.626419 0.763674 0.085635
Si Si4 0.921969 0.479614 0.326228
Si Si5 0.119687 0.902571 0.024321
Si Si6 0.865441 0.890853 0.738383
O O1 0.750000 0.500000 0.904354
O O2 0.894277 0.600089 0.823909
O O3 0.982173 0.391719 0.870046
O O4 0.016666 0.637451 0.913152
O O5 0.786134 0.738830 0.110505
O O6 0.046311 0.812358 0.068903
O O7 0.982568 0.872749 0.162255
O O8 0.560453 0.884280 0.121806
O O9 0.661330 0.812471 0.026192
O O10 0.750000 0.500000 0.318297
O O11 0.994314 0.411872 0.275473
O O12 0.250000 0.000000 0.042910
O O13 0.000000 0.000000 0.000000
O O14 0.797997 0.750000 0.750000
O O15 0.750000 0.000000 0.753990
#
# Coordination Sequence:
#
# PCOD9411883 Si02
#       6
#     8   8   8   8   8   8
#     4  11  27  43  64  97 134 172 223 274 340 394
#     4  11  25  42  67 100 131 177 217 276 332 391
#     4  11  22  45  66  96 135 171 223 274 329 400
#     4  10  22  41  69  95 125 174 225 265 325 395
#     4  12  23  42  70 101 133 172 226 274 327 401
#     4  11  25  45  66  97 134 173 217 279 334 395
#
# _framework density 20.683644999999999
#
# number of rings (size 3 to 8) (size 9 to 14) (size 15 to 20)
#    0.000    1.000    5.000    1.000    7.000    2.667 
#    0.000    0.000    0.000    0.000    0.000    0.000 
#    0.000    0.000    0.000    0.000    0.000    0.000 
#
# Total GULP energy -268028.166942 kJ/mol
# GULP energy per Si atom -5583.920145 kJ/mol
# Density = 2.063657 g / cm^3
# Si number density = 20.683645 Si / 1000 Ang^3
#
#
#
# Elastic Constant Matrix: (Units=GPa)
#
#
# Indices 1 2 3 4 5 6 
#
# 1 72.2823 32.7201 -0.5684 0.0000 0.0000 0.0000
# 2 32.7201 139.8722 -2.8410 0.0000 0.0000 0.0000
# 3 -0.5684 -2.8410 26.3877 0.0000 0.0000 0.0000
# 4 0.0000 0.0000 0.0000 -38.5471 0.0000 0.0000
# 5 0.0000 0.0000 0.0000 0.0000 79.3948 0.0000
# 6 0.0000 0.0000 0.0000 0.0000 0.0000 35.7898
#
#
#
# Elastic Compliance Matrix: (Units=1/GPa)
#
#
# Indices 1 2 3 4 5 6 
#
# 1 0.015473 -0.003621 -0.000057 0.000000 0.000000 0.000000
# 2 -0.003621 0.008012 0.000785 0.000000 0.000000 0.000000
# 3 -0.000057 0.000785 0.037980 0.000000 0.000000 0.000000
# 4 0.000000 0.000000 0.000000 -0.025942 0.000000 0.000000
# 5 0.000000 0.000000 0.000000 0.000000 0.012595 0.000000
# 6 0.000000 0.000000 0.000000 0.000000 0.000000 0.027941
#
#
# Mechanical properties :
#
#
# Convention : Reuss Voigt Hill
#
# Bulk Modulus (GPa) = 17.95981 33.01818 25.48900
# Shear Modulus (GPa) = 49.79860 29.27626 39.53743
#
# Velocity S-wave (km/s) = 4.91209 3.76630 4.37685
# Velocity P-wave (km/s) = 6.39323 5.90859 6.15568
#
# Compressibility (1/GPa) = 0.05567987
#
# Stress axis : x y z
#
# Youngs Moduli (GPa) = 64.62776 124.80773 26.32989
#
# Poissons Ratio (x) = 0.45190 0.00149
# Poissons Ratio (y) = 0.23400 -0.02066
# Poissons Ratio (z) = 0.00365 -0.09793
#
# Static dielectric constant tensor:
#      x y z
#    x 1.537920 0.000000 0.000000 
#    y 0.000000 1.684640 0.000000 
#    z 0.000000 0.000000 1.706650 
# 
# From -- ./inp_files/44368.got.cif
#   From: 2010.05.17/outbox.cif.g08.bks.cpg/sg52_23_cif.got.tgz:44368.got - 2010.06.03 12:15:38.
