data_PCOD9411195
_publ_section_title
;
Structure prediction by ZEFSAII (Michael W. Deem and Ramdas Pophale) SiO2 
 PCOD9411195
Probable space group: P N N A
;
_chemical_formula_sum "Si O2"
_cell_formula_units_Z 48
_cell_length_a 14.677018
_cell_length_b 25.943930
_cell_length_c 6.337881
_cell_angle_alpha 90.000000
_cell_angle_beta 90.000000
_cell_angle_gamma 90.000000
_cell_volume 2413.335333
_symmetry_space_group_name_H-M "P N N A"
_symmetry_group_IT_number 52
_symmetry_cell_setting 'orthorhombic'
loop_
_space_group_symop_operation_xyz
x,y,z
1/2-x,-y,z
x,1/2-y,1/2-z
1/2-x,1/2+y,1/2-z
-x,-y,-z
1/2+x,y,-z
-x,1/2+y,1/2+z
1/2+x,1/2-y,1/2+z
loop_
_atom_site_type_symbol
_atom_site_label
_atom_site_fract_x
_atom_site_fract_y
_atom_site_fract_z
Si Si1 0.264357 0.199659 0.869522
Si Si2 0.639001 0.156073 0.508796
Si Si3 0.943386 0.493855 0.289039
Si Si4 0.793275 0.390494 0.683662
Si Si5 0.966989 0.414382 0.961859
Si Si6 0.349777 0.750000 0.250000
Si Si7 0.750000 0.500000 0.464877
O O1 0.309877 0.250000 0.750000
O O2 0.196378 0.175095 0.694463
O O3 0.309452 0.150567 0.991589
O O4 0.211473 0.226106 0.064293
O O5 0.708517 0.127990 0.670538
O O6 0.552821 0.122530 0.452813
O O7 0.598247 0.204592 0.636235
O O8 0.839175 0.509843 0.325010
O O9 0.000000 0.500000 0.500000
O O10 0.996544 0.534584 0.149237
O O11 0.944046 0.436122 0.194602
O O12 0.880438 0.393029 0.837027
O O13 0.771891 0.448168 0.598093
#
# Coordination Sequence:
#
# PCOD9411195 Si02
#       7
#     8   8   8   8   8   4   4
#     4   9  19  41  72  91 123 172 216 269 332 393
#     4  10  21  40  69  89 126 171 208 271 332 388
#     4  11  24  43  59  93 132 173 217 267 315 392
#     4  11  24  39  63 102 129 172 224 268 326 404
#     4  11  25  39  63  95 135 166 219 271 327 390
#     4   8  18  40  68  92 118 158 222 258 330 394
#     4  12  24  42  68  90 136 180 218 262 338 390
#
# _framework density 19.889485000000001
#
# number of rings (size 3 to 8) (size 9 to 14) (size 15 to 20)
#    0.000    1.667    1.667    2.000    7.000    1.333 
#    0.000    0.000   44.000    0.000    0.000    0.000 
#    0.000    0.000    0.000    0.000    0.000    0.000 
#
# Total GULP energy -267354.557706 kJ/mol
# GULP energy per Si atom -5569.886619 kJ/mol
# Density = 1.984422 g / cm^3
# Si number density = 19.889485 Si / 1000 Ang^3
#
#
#
# Elastic Constant Matrix: (Units=GPa)
#
#
# Indices 1 2 3 4 5 6 
#
# 1 66.4664 7.6368 5.6604 0.0000 0.0000 0.0000
# 2 7.6368 112.0577 41.2180 0.0000 0.0000 0.0000
# 3 5.6604 41.2180 86.9608 0.0000 0.0000 0.0000
# 4 0.0000 0.0000 0.0000 -73.6146 0.0000 0.0000
# 5 0.0000 0.0000 0.0000 0.0000 27.1109 0.0000
# 6 0.0000 0.0000 0.0000 0.0000 0.0000 6.0065
#
#
#
# Elastic Compliance Matrix: (Units=1/GPa)
#
#
# Indices 1 2 3 4 5 6 
#
# 1 0.015190 -0.000813 -0.000603 0.000000 0.000000 0.000000
# 2 -0.000813 0.010852 -0.005091 0.000000 0.000000 0.000000
# 3 -0.000603 -0.005091 0.013952 0.000000 0.000000 0.000000
# 4 0.000000 0.000000 0.000000 -0.013584 0.000000 0.000000
# 5 0.000000 0.000000 0.000000 0.000000 0.036885 0.000000
# 6 0.000000 0.000000 0.000000 0.000000 0.000000 0.166485
#
#
# Mechanical properties :
#
#
# Convention : Reuss Voigt Hill
#
# Bulk Modulus (GPa) = 37.06583 41.61281 39.33932
# Shear Modulus (GPa) = 19.85801 5.96523 12.91162
#
# Velocity S-wave (km/s) = 3.16320 1.73370 2.55064
# Velocity P-wave (km/s) = 5.65840 4.99750 5.33819
#
# Compressibility (1/GPa) = 0.02697903
#
# Stress axis : x y z
#
# Youngs Moduli (GPa) = 65.83270 92.14979 71.67640
#
# Poissons Ratio (x) = 0.07495 0.04324
# Poissons Ratio (y) = 0.05354 0.36488
# Poissons Ratio (z) = 0.03971 0.46910
#
# Static dielectric constant tensor:
#      x y z
#    x 1.638810 0.000000 0.000000 
#    y 0.000000 1.786860 0.000000 
#    z 0.000000 0.000000 1.832640 
# 
# From -- ./inp_files/2490.got.cif
#   From: 2010.05.17/outbox.cif.g08.bks.cpg/sg52_2_cif.got.tgz:2490.got - 2010.06.03 12:15:38.
