data_PCOD9411687
_publ_section_title
;
Structure prediction by ZEFSAII (Michael W. Deem and Ramdas Pophale) SiO2 
 PCOD9411687
Probable space group: P N N A
;
_chemical_formula_sum "Si O2"
_cell_formula_units_Z 60
_cell_length_a 9.459864
_cell_length_b 11.585967
_cell_length_c 24.576728
_cell_angle_alpha 90.000000
_cell_angle_beta 90.000000
_cell_angle_gamma 90.000000
_cell_volume 2693.650484
_symmetry_space_group_name_H-M "P N N A"
_symmetry_group_IT_number 52
_symmetry_cell_setting 'orthorhombic'
loop_
_space_group_symop_operation_xyz
x,y,z
1/2-x,-y,z
x,1/2-y,1/2-z
1/2-x,1/2+y,1/2-z
-x,-y,-z
1/2+x,y,-z
-x,1/2+y,1/2+z
1/2+x,1/2-y,1/2+z
loop_
_atom_site_type_symbol
_atom_site_label
_atom_site_fract_x
_atom_site_fract_y
_atom_site_fract_z
Si Si1 0.253768 0.744017 0.917502
Si Si2 0.750000 0.000000 0.470168
Si Si3 0.630638 0.912897 0.996198
Si Si4 0.434138 0.247754 0.398559
Si Si5 0.438536 0.903421 0.226016
Si Si6 0.010708 0.682668 0.840434
Si Si7 0.878021 0.346208 0.712275
Si Si8 0.083763 0.014274 0.429208
O O1 0.287205 0.639438 0.958919
O O2 0.402226 0.782699 0.892924
O O3 0.159732 0.690348 0.870122
O O4 0.175122 0.848465 0.948194
O O5 0.930475 0.032148 0.457914
O O6 0.612765 0.809849 0.953500
O O7 0.750000 0.000000 0.976654
O O8 0.500000 0.000000 0.000000
O O9 0.352495 0.294818 0.346863
O O10 0.423728 0.110197 0.401807
O O11 0.475236 0.811746 0.179390
O O12 0.514932 0.884717 0.283432
O O13 0.273451 0.877017 0.238445
O O14 0.457771 0.033634 0.207524
O O15 0.910460 0.616316 0.884361
O O16 0.948619 0.250000 0.750000
O O17 0.250000 0.000000 0.459345
#
# Coordination Sequence:
#
# PCOD9411687 Si02
#       8
#     8   4   8   8   8   8   8   8
#     4  12  27  45  70 102 149 194 239 297 365 449
#     4  10  24  42  64 110 136 182 240 284 358 432
#     4  12  27  47  73 104 150 195 249 302 368 442
#     4  12  26  45  70 108 143 191 242 300 366 435
#     4  10  24  43  71 104 132 180 236 301 365 433
#     4  11  23  42  71  98 140 183 231 290 371 426
#     4  11  23  43  71 104 137 172 245 303 357 424
#     4  10  22  39  72 102 143 180 232 298 355 420
#
# _framework density 22.274605999999999
#
# number of rings (size 3 to 8) (size 9 to 14) (size 15 to 20)
#    0.400    0.533    4.000    2.400    7.467    2.133 
#    2.400    0.000    0.000    0.000    0.000    0.000 
#    0.000    0.000    0.000    0.000    0.000    0.000 
#
# Total GULP energy -334264.097828 kJ/mol
# GULP energy per Si atom -5571.068297 kJ/mol
# Density = 2.222391 g / cm^3
# Si number density = 22.274606 Si / 1000 Ang^3
#
#
#
# Elastic Constant Matrix: (Units=GPa)
#
#
# Indices 1 2 3 4 5 6 
#
# 1 87.1682 18.4990 42.7407 0.0000 0.0000 0.0000
# 2 18.4990 115.3149 32.9565 0.0000 0.0000 0.0000
# 3 42.7407 32.9565 96.8724 0.0000 0.0000 0.0000
# 4 0.0000 0.0000 0.0000 27.9424 0.0000 0.0000
# 5 0.0000 0.0000 0.0000 0.0000 57.2255 0.0000
# 6 0.0000 0.0000 0.0000 0.0000 0.0000 27.5985
#
#
#
# Elastic Compliance Matrix: (Units=1/GPa)
#
#
# Indices 1 2 3 4 5 6 
#
# 1 0.014671 -0.000558 -0.006283 0.000000 0.000000 0.000000
# 2 -0.000558 0.009627 -0.003029 0.000000 0.000000 0.000000
# 3 -0.006283 -0.003029 0.014126 0.000000 0.000000 0.000000
# 4 0.000000 0.000000 0.000000 0.035788 0.000000 0.000000
# 5 0.000000 0.000000 0.000000 0.000000 0.017475 0.000000
# 6 0.000000 0.000000 0.000000 0.000000 0.000000 0.036234
#
#
# Mechanical properties :
#
#
# Convention : Reuss Voigt Hill
#
# Bulk Modulus (GPa) = 53.52293 54.19422 53.85857
# Shear Modulus (GPa) = 32.49101 36.23057 34.36079
#
# Velocity S-wave (km/s) = 3.82338 4.03742 3.93185
# Velocity P-wave (km/s) = 6.60090 6.79096 6.69660
#
# Compressibility (1/GPa) = 0.01868358
#
# Stress axis : x y z
#
# Youngs Moduli (GPa) = 68.16028 103.87356 70.79358
#
# Poissons Ratio (x) = 0.05795 0.44482
# Poissons Ratio (y) = 0.03802 0.21444
# Poissons Ratio (z) = 0.42827 0.31464
#
# Static dielectric constant tensor:
#      x y z
#    x 1.881700 0.000000 0.000000 
#    y 0.000000 1.811300 0.000000 
#    z 0.000000 0.000000 1.863530 
# 
# From -- ./inp_files/42348.got.cif
#   From: 2010.05.17/outbox.cif.g08.bks.cpg/sg52_22_cif.got.tgz:42348.got - 2010.06.03 12:15:38.
