data_PCOD9411179
_publ_section_title
;
Structure prediction by ZEFSAII (Michael W. Deem and Ramdas Pophale) SiO2 
 PCOD9411179
Probable space group: P N N A
;
_chemical_formula_sum "Si O2"
_cell_formula_units_Z 48
_cell_length_a 13.497212
_cell_length_b 17.801555
_cell_length_c 9.042485
_cell_angle_alpha 90.000000
_cell_angle_beta 90.000000
_cell_angle_gamma 90.000000
_cell_volume 2172.650185
_symmetry_space_group_name_H-M "P N N A"
_symmetry_group_IT_number 52
_symmetry_cell_setting 'orthorhombic'
loop_
_space_group_symop_operation_xyz
x,y,z
1/2-x,-y,z
x,1/2-y,1/2-z
1/2-x,1/2+y,1/2-z
-x,-y,-z
1/2+x,y,-z
-x,1/2+y,1/2+z
1/2+x,1/2-y,1/2+z
loop_
_atom_site_type_symbol
_atom_site_label
_atom_site_fract_x
_atom_site_fract_y
_atom_site_fract_z
Si Si1 0.442280 0.070107 0.929504
Si Si2 0.322739 0.292277 0.022399
Si Si3 0.006791 0.177420 0.330618
Si Si4 0.250000 0.000000 0.789291
Si Si5 0.849471 0.910857 0.470026
Si Si6 0.838391 0.147093 0.836936
Si Si7 0.750000 0.500000 0.792500
O O1 0.491552 0.112190 0.791251
O O2 0.329556 0.048041 0.882210
O O3 0.432420 0.128086 0.064234
O O4 0.500000 0.000000 0.000000
O O5 0.239800 0.351895 0.983892
O O6 0.282227 0.210589 0.068320
O O7 0.367292 0.321955 0.176993
O O8 0.403150 0.292029 0.894413
O O9 0.056443 0.250000 0.250000
O O10 0.059277 0.138449 0.471686
O O11 0.325193 0.951556 0.684444
O O12 0.836808 0.975752 0.594858
O O13 0.777189 0.072021 0.803061
#
# Coordination Sequence:
#
# PCOD9411179 Si02
#       7
#     8   8   8   4   8   8   4
#     4  12  26  44  69 106 146 179 241 310 359 429
#     4  10  22  44  71  95 141 188 231 294 357 438
#     4  12  25  44  72 106 143 186 242 299 354 431
#     4  11  25  48  72 102 142 192 236 294 376 428
#     4  10  23  42  71 102 133 189 238 284 362 436
#     4  10  21  40  67  97 140 181 225 294 363 410
#     4   9  19  38  64 102 132 178 232 280 350 434
#
# _framework density 22.092834
#
# number of rings (size 3 to 8) (size 9 to 14) (size 15 to 20)
#    0.000    1.333    3.333    1.500    7.000    2.000 
#    0.000    0.000    3.667    0.000    0.000    0.000 
#    0.000    0.000    0.000    0.000    0.000    0.000 
#
# Total GULP energy -267671.059628 kJ/mol
# GULP energy per Si atom -5576.480409 kJ/mol
# Density = 2.204255 g / cm^3
# Si number density = 22.092834 Si / 1000 Ang^3
#
#
#
# Elastic Constant Matrix: (Units=GPa)
#
#
# Indices 1 2 3 4 5 6 
#
# 1 40.4363 10.5391 18.6079 0.0000 0.0000 0.0000
# 2 10.5391 118.0881 34.7969 0.0000 0.0000 0.0000
# 3 18.6079 34.7969 86.5001 0.0000 0.0000 0.0000
# 4 0.0000 0.0000 0.0000 36.8680 0.0000 0.0000
# 5 0.0000 0.0000 0.0000 0.0000 11.7994 0.0000
# 6 0.0000 0.0000 0.0000 0.0000 0.0000 25.9811
#
#
#
# Elastic Compliance Matrix: (Units=1/GPa)
#
#
# Indices 1 2 3 4 5 6 
#
# 1 0.027515 -0.000807 -0.005594 0.000000 0.000000 0.000000
# 2 -0.000807 0.009631 -0.003701 0.000000 0.000000 0.000000
# 3 -0.005594 -0.003701 0.014253 0.000000 0.000000 0.000000
# 4 0.000000 0.000000 0.000000 0.027124 0.000000 0.000000
# 5 0.000000 0.000000 0.000000 0.000000 0.084750 0.000000
# 6 0.000000 0.000000 0.000000 0.000000 0.000000 0.038489
#
#
# Mechanical properties :
#
#
# Convention : Reuss Voigt Hill
#
# Bulk Modulus (GPa) = 32.05704 41.43470 36.74587
# Shear Modulus (GPa) = 21.51797 27.00176 24.25987
#
# Velocity S-wave (km/s) = 3.12425 3.49978 3.31734
# Velocity P-wave (km/s) = 5.24940 5.92679 5.59835
#
# Compressibility (1/GPa) = 0.03119440
#
# Stress axis : x y z
#
# Youngs Moduli (GPa) = 36.34378 103.83424 70.16172
#
# Poissons Ratio (x) = 0.08381 0.39251
# Poissons Ratio (y) = 0.02934 0.25964
# Poissons Ratio (z) = 0.20332 0.38425
#
# Static dielectric constant tensor:
#      x y z
#    x 1.817360 0.000000 0.000000 
#    y 0.000000 1.917460 0.000000 
#    z 0.000000 0.000000 1.833200 
# 
# From -- ./inp_files/10535.got.cif
#   From: 2010.05.17/outbox.cif.g08.bks.cpg/sg52_6_cif.got.tgz:10535.got - 2010.06.03 12:15:38.
