data_PCOD9411926
_publ_section_title
;
Structure prediction by ZEFSAII (Michael W. Deem and Ramdas Pophale) SiO2 
 PCOD9411926
Probable space group: P N N A
;
_chemical_formula_sum "Si O2"
_cell_formula_units_Z 60
_cell_length_a 12.175756
_cell_length_b 11.715447
_cell_length_c 20.355923
_cell_angle_alpha 90.000000
_cell_angle_beta 90.000000
_cell_angle_gamma 90.000000
_cell_volume 2903.658913
_symmetry_space_group_name_H-M "P N N A"
_symmetry_group_IT_number 52
_symmetry_cell_setting 'orthorhombic'
loop_
_space_group_symop_operation_xyz
x,y,z
1/2-x,-y,z
x,1/2-y,1/2-z
1/2-x,1/2+y,1/2-z
-x,-y,-z
1/2+x,y,-z
-x,1/2+y,1/2+z
1/2+x,1/2-y,1/2+z
loop_
_atom_site_type_symbol
_atom_site_label
_atom_site_fract_x
_atom_site_fract_y
_atom_site_fract_z
Si Si1 0.890940 0.099194 0.366756
Si Si2 0.351406 0.650779 0.502195
Si Si3 0.787426 0.370315 0.612901
Si Si4 0.750000 0.000000 0.108649
Si Si5 0.146603 0.343998 0.902012
Si Si6 0.906650 0.065697 0.213610
Si Si7 0.935980 0.793393 0.871335
Si Si8 0.994887 0.815869 0.187499
O O1 0.777715 0.148116 0.395023
O O2 0.875267 0.093837 0.287695
O O3 0.995313 0.178631 0.380531
O O4 0.900824 0.971142 0.394774
O O5 0.433331 0.634270 0.440400
O O6 0.337941 0.564088 0.562354
O O7 0.375954 0.774655 0.531489
O O8 0.266849 0.356192 0.465127
O O9 0.750000 0.500000 0.629685
O O10 0.694379 0.285186 0.641697
O O11 0.907912 0.344713 0.637041
O O12 0.687004 0.916150 0.158621
O O13 0.093097 0.267658 0.845216
O O14 0.008151 0.138981 0.187643
O O15 0.939081 0.933183 0.209691
O O16 0.043014 0.750000 0.250000
#
# Coordination Sequence:
#
# PCOD9411926 Si02
#       8
#     8   8   8   4   8   8   8   8
#     4  11  25  46  66  98 137 177 226 268 337 406
#     4  10  22  42  64  98 129 177 223 267 342 387
#     4  10  22  47  64  97 136 169 226 285 325 395
#     4  12  22  36  66 104 132 168 206 290 346 390
#     4  11  24  43  66  98 139 174 214 285 331 403
#     4  12  24  40  70 101 133 168 219 283 344 395
#     4  10  24  43  67  97 128 184 220 275 326 398
#     4  12  24  41  67 101 131 172 220 276 342 391
#
# _framework density 20.663582999999999
#
# number of rings (size 3 to 8) (size 9 to 14) (size 15 to 20)
#    0.800    0.267    4.667    2.000    0.000    4.267 
#    0.000    2.000    0.000    0.000    0.000    0.000 
#    0.000    0.000    0.000    0.000    0.000    0.000 
#
# Total GULP energy -334745.111398 kJ/mol
# GULP energy per Si atom -5579.085190 kJ/mol
# Density = 2.061655 g / cm^3
# Si number density = 20.663583 Si / 1000 Ang^3
#
#
#
# Elastic Constant Matrix: (Units=GPa)
#
#
# Indices 1 2 3 4 5 6 
#
# 1 50.1961 25.9492 -7.2904 0.0000 0.0000 0.0000
# 2 25.9492 91.0344 -1.2748 0.0000 0.0000 0.0000
# 3 -7.2904 -1.2748 60.9088 0.0000 0.0000 0.0000
# 4 0.0000 0.0000 0.0000 32.3665 0.0000 0.0000
# 5 0.0000 0.0000 0.0000 0.0000 29.5537 0.0000
# 6 0.0000 0.0000 0.0000 0.0000 0.0000 29.3085
#
#
#
# Elastic Compliance Matrix: (Units=1/GPa)
#
#
# Indices 1 2 3 4 5 6 
#
# 1 0.023803 -0.006747 0.002708 0.000000 0.000000 0.000000
# 2 -0.006747 0.012901 -0.000538 0.000000 0.000000 0.000000
# 3 0.002708 -0.000538 0.016731 0.000000 0.000000 0.000000
# 4 0.000000 0.000000 0.000000 0.030896 0.000000 0.000000
# 5 0.000000 0.000000 0.000000 0.000000 0.033837 0.000000
# 6 0.000000 0.000000 0.000000 0.000000 0.000000 0.034120
#
#
# Mechanical properties :
#
#
# Convention : Reuss Voigt Hill
#
# Bulk Modulus (GPa) = 22.58310 26.32303 24.45306
# Shear Modulus (GPa) = 28.37665 30.56277 29.46971
#
# Velocity S-wave (km/s) = 3.70978 3.85003 3.78056
# Velocity P-wave (km/s) = 5.41319 5.70352 5.56025
#
# Compressibility (1/GPa) = 0.04428091
#
# Stress axis : x y z
#
# Youngs Moduli (GPa) = 42.01125 77.51578 59.76980
#
# Poissons Ratio (x) = 0.52301 -0.16185
# Poissons Ratio (y) = 0.28346 0.03213
# Poissons Ratio (z) = -0.11376 0.04167
#
# Static dielectric constant tensor:
#      x y z
#    x 1.753660 0.000000 0.000000 
#    y 0.000000 1.767740 0.000000 
#    z 0.000000 0.000000 1.748850 
# 
# From -- ./inp_files/36871.got.cif
#   From: 2010.05.17/outbox.cif.g08.bks.cpg/sg52_19_cif.got.tgz:36871.got - 2010.06.03 12:15:38.
