data_PCOD9411718
_publ_section_title
;
Structure prediction by ZEFSAII (Michael W. Deem and Ramdas Pophale) SiO2 
 PCOD9411718
Probable space group: P N N A
;
_chemical_formula_sum "Si O2"
_cell_formula_units_Z 40
_cell_length_a 11.349488
_cell_length_b 27.614788
_cell_length_c 5.147768
_cell_angle_alpha 90.000000
_cell_angle_beta 90.000000
_cell_angle_gamma 90.000000
_cell_volume 1613.381042
_symmetry_space_group_name_H-M "P N N A"
_symmetry_group_IT_number 52
_symmetry_cell_setting 'orthorhombic'
loop_
_space_group_symop_operation_xyz
x,y,z
1/2-x,-y,z
x,1/2-y,1/2-z
1/2-x,1/2+y,1/2-z
-x,-y,-z
1/2+x,y,-z
-x,1/2+y,1/2+z
1/2+x,1/2-y,1/2+z
loop_
_atom_site_type_symbol
_atom_site_label
_atom_site_fract_x
_atom_site_fract_y
_atom_site_fract_z
Si Si1 0.020176 0.069128 0.537881
Si Si2 0.161440 0.455326 0.472639
Si Si3 0.626937 0.325332 0.098003
Si Si4 0.493638 0.796220 0.110940
Si Si5 0.835650 0.118003 0.224854
O O1 0.058300 0.043576 0.806228
O O2 0.056297 0.124343 0.585805
O O3 0.890671 0.076604 0.413580
O O4 0.101339 0.048466 0.307516
O O5 0.250000 0.500000 0.489852
O O6 0.245132 0.408721 0.531172
O O7 0.569393 0.295982 0.333364
O O8 0.759430 0.342306 0.126193
O O9 0.608581 0.301543 0.822852
O O10 0.560046 0.750000 0.250000
O O11 0.565656 0.847181 0.102641
#
# Coordination Sequence:
#
# PCOD9411718 Si02
#       5
#     8   8   8   8   8
#     4  10  22  40  62  91 123 162 213 256 304 379
#     4  11  24  40  62  95 131 168 214 266 318 377
#     4  10  22  41  62  87 122 158 200 256 312 373
#     4  11  24  40  61  91 120 154 206 258 314 389
#     4  10  22  41  65  87 123 168 207 257 323 376
#
# _framework density 24.792653000000001
#
# number of rings (size 3 to 8) (size 9 to 14) (size 15 to 20)
#    0.000    1.600    0.000    6.000    0.000   17.600 
#    0.000    0.000    0.000    0.000    0.000    0.000 
#    0.000    0.000    0.000    0.000    0.000    0.000 
#
# Total GULP energy -223363.624953 kJ/mol
# GULP energy per Si atom -5584.090624 kJ/mol
# Density = 2.473622 g / cm^3
# Si number density = 24.792653 Si / 1000 Ang^3
#
#
#
# Elastic Constant Matrix: (Units=GPa)
#
#
# Indices 1 2 3 4 5 6 
#
# 1 65.9896 8.8157 14.0941 0.0000 0.0000 0.0000
# 2 8.8157 116.0869 32.3691 0.0000 0.0000 0.0000
# 3 14.0941 32.3691 106.1240 0.0000 0.0000 0.0000
# 4 0.0000 0.0000 0.0000 30.6394 0.0000 0.0000
# 5 0.0000 0.0000 0.0000 0.0000 -13.7486 0.0000
# 6 0.0000 0.0000 0.0000 0.0000 0.0000 -60.7408
#
#
#
# Elastic Compliance Matrix: (Units=1/GPa)
#
#
# Indices 1 2 3 4 5 6 
#
# 1 0.015643 -0.000665 -0.001875 0.000000 0.000000 0.000000
# 2 -0.000665 0.009443 -0.002792 0.000000 0.000000 0.000000
# 3 -0.001875 -0.002792 0.010523 0.000000 0.000000 0.000000
# 4 0.000000 0.000000 0.000000 0.032638 0.000000 0.000000
# 5 0.000000 0.000000 0.000000 0.000000 -0.072735 0.000000
# 6 0.000000 0.000000 0.000000 0.000000 0.000000 -0.016463
#
#
# Mechanical properties :
#
#
# Convention : Reuss Voigt Hill
#
# Bulk Modulus (GPa) = 40.08619 44.30647 42.19633
# Shear Modulus (GPa) = -2536.44344 6.75810 -1264.84267
#
# Velocity S-wave (km/s) = -32.02005 1.65281 -22.61141
# Velocity P-wave (km/s) = 36.75379 4.64241 25.78070
#
# Compressibility (1/GPa) = 0.02494625
#
# Stress axis : x y z
#
# Youngs Moduli (GPa) = 63.92571 105.89576 95.02554
#
# Poissons Ratio (x) = 0.07045 0.17814
# Poissons Ratio (y) = 0.04253 0.26531
# Poissons Ratio (z) = 0.11984 0.29566
#
# Static dielectric constant tensor:
#      x y z
#    x 2.079330 0.000000 0.000000 
#    y 0.000000 2.042000 0.000000 
#    z 0.000000 0.000000 1.981150 
# 
# From -- ./inp_files/1500.got.cif
#   From: 2010.05.17/outbox.cif.g08.bks.cpg/sg52_1_cif.got.tgz:1500.got - 2010.06.03 12:15:38.
