data_PCOD9411824
_publ_section_title
;
Structure prediction by ZEFSAII (Michael W. Deem and Ramdas Pophale) SiO2 
 PCOD9411824
Probable space group: P N N A
;
_chemical_formula_sum "Si O2"
_cell_formula_units_Z 40
_cell_length_a 7.643116
_cell_length_b 7.985010
_cell_length_c 29.815232
_cell_angle_alpha 90.000000
_cell_angle_beta 90.000000
_cell_angle_gamma 90.000000
_cell_volume 1819.634274
_symmetry_space_group_name_H-M "P N N A"
_symmetry_group_IT_number 52
_symmetry_cell_setting 'orthorhombic'
loop_
_space_group_symop_operation_xyz
x,y,z
1/2-x,-y,z
x,1/2-y,1/2-z
1/2-x,1/2+y,1/2-z
-x,-y,-z
1/2+x,y,-z
-x,1/2+y,1/2+z
1/2+x,1/2-y,1/2+z
loop_
_atom_site_type_symbol
_atom_site_label
_atom_site_fract_x
_atom_site_fract_y
_atom_site_fract_z
Si Si1 0.923962 0.222788 0.860513
Si Si2 0.021358 0.177477 0.128460
Si Si3 0.621034 0.656752 0.951956
Si Si4 0.542921 0.166256 0.971545
Si Si5 0.736171 0.201216 0.199052
O O1 0.714197 0.251082 0.859921
O O2 0.981649 0.317928 0.905769
O O3 0.047249 0.264948 0.818572
O O4 0.954731 0.023439 0.866405
O O5 0.954375 0.191446 0.076953
O O6 0.882837 0.253092 0.163018
O O7 0.750000 0.500000 0.949009
O O8 0.756093 0.812701 0.957320
O O9 0.501438 0.682164 0.994965
O O10 0.500000 0.000000 0.000000
O O11 0.769974 0.250000 0.250000
O O12 0.750000 0.000000 0.197730
#
# Coordination Sequence:
#
# PCOD9411824 Si02
#       5
#     8   8   8   8   8
#     4   9  19  38  61  83 121 160 203 253 311 374
#     4   9  19  37  62  91 116 161 214 258 296 379
#     4  11  23  37  54  90 130 162 205 260 322 371
#     4  11  21  36  62  88 119 168 219 251 304 386
#     4  10  22  41  63  88 119 155 209 264 318 373
#
# _framework density 21.982438999999999
#
# number of rings (size 3 to 8) (size 9 to 14) (size 15 to 20)
#    0.000    2.000    2.000    1.200    2.800    2.400 
#    7.200    0.000    0.000    0.000    0.000    0.000 
#    0.000    0.000    0.000    0.000    0.000    0.000 
#
# Total GULP energy -223008.248314 kJ/mol
# GULP energy per Si atom -5575.206208 kJ/mol
# Density = 2.193241 g / cm^3
# Si number density = 21.982439 Si / 1000 Ang^3
#
#
#
# Elastic Constant Matrix: (Units=GPa)
#
#
# Indices 1 2 3 4 5 6 
#
# 1 62.8119 16.0466 65.2875 0.0000 0.0000 0.0000
# 2 16.0466 49.7404 17.0235 0.0000 0.0000 0.0000
# 3 65.2875 17.0235 193.0629 0.0000 0.0000 0.0000
# 4 0.0000 0.0000 0.0000 18.3700 0.0000 0.0000
# 5 0.0000 0.0000 0.0000 0.0000 -46.6574 0.0000
# 6 0.0000 0.0000 0.0000 0.0000 0.0000 17.7580
#
#
#
# Elastic Compliance Matrix: (Units=1/GPa)
#
#
# Indices 1 2 3 4 5 6 
#
# 1 0.025948 -0.005535 -0.008287 0.000000 0.000000 0.000000
# 2 -0.005535 0.021911 -0.000060 0.000000 0.000000 0.000000
# 3 -0.008287 -0.000060 0.007987 0.000000 0.000000 0.000000
# 4 0.000000 0.000000 0.000000 0.054437 0.000000 0.000000
# 5 0.000000 0.000000 0.000000 0.000000 -0.021433 0.000000
# 6 0.000000 0.000000 0.000000 0.000000 0.000000 0.056313
#
#
# Mechanical properties :
#
#
# Convention : Reuss Voigt Hill
#
# Bulk Modulus (GPa) = 35.60989 55.81447 45.71218
# Shear Modulus (GPa) = 27.42939 11.71130 19.57034
#
# Velocity S-wave (km/s) = 3.53623 2.31066 2.98698
# Velocity P-wave (km/s) = 5.73652 5.70653 5.72154
#
# Compressibility (1/GPa) = 0.02808208
#
# Stress axis : x y z
#
# Youngs Moduli (GPa) = 38.53890 45.64001 125.19953
#
# Poissons Ratio (x) = 0.25261 1.03749
# Poissons Ratio (y) = 0.21331 0.00755
# Poissons Ratio (z) = 0.31936 0.00275
#
# Static dielectric constant tensor:
#      x y z
#    x 1.869960 0.000000 0.000000 
#    y 0.000000 1.891780 0.000000 
#    z 0.000000 0.000000 1.884680 
# 
# From -- ./inp_files/39199.got.cif
#   From: 2010.05.17/outbox.cif.g08.bks.cpg/sg52_20_cif.got.tgz:39199.got - 2010.06.03 12:15:38.
