data_PCOD9411193
_publ_section_title
;
Structure prediction by ZEFSAII (Michael W. Deem and Ramdas Pophale) SiO2 
 PCOD9411193
Probable space group: P N N A
;
_chemical_formula_sum "Si O2"
_cell_formula_units_Z 48
_cell_length_a 12.652672
_cell_length_b 21.015618
_cell_length_c 7.448220
_cell_angle_alpha 90.000000
_cell_angle_beta 90.000000
_cell_angle_gamma 90.000000
_cell_volume 1980.509416
_symmetry_space_group_name_H-M "P N N A"
_symmetry_group_IT_number 52
_symmetry_cell_setting 'orthorhombic'
loop_
_space_group_symop_operation_xyz
x,y,z
1/2-x,-y,z
x,1/2-y,1/2-z
1/2-x,1/2+y,1/2-z
-x,-y,-z
1/2+x,y,-z
-x,1/2+y,1/2+z
1/2+x,1/2-y,1/2+z
loop_
_atom_site_type_symbol
_atom_site_label
_atom_site_fract_x
_atom_site_fract_y
_atom_site_fract_z
Si Si1 0.978320 0.112918 0.805337
Si Si2 0.265380 0.340219 0.375514
Si Si3 0.235098 0.711362 0.971429
Si Si4 0.930588 0.750000 0.250000
Si Si5 0.250000 0.500000 0.113349
Si Si6 0.903321 0.096287 0.416568
Si Si7 0.079603 0.431303 0.369532
O O1 0.004179 0.189202 0.823310
O O2 0.857712 0.108284 0.875046
O O3 0.977881 0.099256 0.593727
O O4 0.043207 0.061963 0.922531
O O5 0.263521 0.313185 0.174549
O O6 0.292896 0.285263 0.514785
O O7 0.149783 0.367682 0.400795
O O8 0.151054 0.664603 0.883033
O O9 0.351245 0.714519 0.887627
O O10 0.191717 0.550247 0.981667
O O11 0.159640 0.471738 0.245510
O O12 0.975436 0.077779 0.250076
#
# Coordination Sequence:
#
# PCOD9411193 Si02
#       7
#     8   8   8   4   4   8   8
#     4  11  24  43  71 107 142 188 236 292 369 447
#     4  10  21  45  63 102 149 177 231 302 358 446
#     4  10  21  40  69 102 146 183 229 297 363 449
#     4  12  22  38  72 112 148 190 234 290 376 462
#     4  12  26  54  74 104 146 190 268 324 352 426
#     4  11  26  49  73 104 147 195 248 308 371 431
#     4  12  25  48  77 101 145 199 242 307 373 425
#
# _framework density 24.236189
#
# number of rings (size 3 to 8) (size 9 to 14) (size 15 to 20)
#    0.000    1.000    5.000    3.500    2.333    0.667 
#    0.000    1.667    0.000    0.000    0.000    0.000 
#    0.000    0.000    0.000    0.000    0.000    0.000 
#
# Total GULP energy -267967.513395 kJ/mol
# GULP energy per Si atom -5582.656529 kJ/mol
# Density = 2.418103 g / cm^3
# Si number density = 24.236189 Si / 1000 Ang^3
#
#
#
# Elastic Constant Matrix: (Units=GPa)
#
#
# Indices 1 2 3 4 5 6 
#
# 1 95.4930 40.3003 54.8274 0.0000 0.0000 0.0000
# 2 40.3003 101.9795 38.5468 0.0000 0.0000 0.0000
# 3 54.8274 38.5468 104.7585 0.0000 0.0000 0.0000
# 4 0.0000 0.0000 0.0000 11.8548 0.0000 0.0000
# 5 0.0000 0.0000 0.0000 0.0000 36.4702 0.0000
# 6 0.0000 0.0000 0.0000 0.0000 0.0000 26.6970
#
#
#
# Elastic Compliance Matrix: (Units=1/GPa)
#
#
# Indices 1 2 3 4 5 6 
#
# 1 0.016081 -0.003686 -0.007060 0.000000 0.000000 0.000000
# 2 -0.003686 0.012235 -0.002573 0.000000 0.000000 0.000000
# 3 -0.007060 -0.002573 0.014187 0.000000 0.000000 0.000000
# 4 0.000000 0.000000 0.000000 0.084354 0.000000 0.000000
# 5 0.000000 0.000000 0.000000 0.000000 0.027420 0.000000
# 6 0.000000 0.000000 0.000000 0.000000 0.000000 0.037457
#
#
# Mechanical properties :
#
#
# Convention : Reuss Voigt Hill
#
# Bulk Modulus (GPa) = 63.02938 63.28667 63.15802
# Shear Modulus (GPa) = 22.35518 26.24148 24.29833
#
# Velocity S-wave (km/s) = 3.04038 3.29407 3.16976
# Velocity P-wave (km/s) = 6.19580 6.37472 6.28590
#
# Compressibility (1/GPa) = 0.01586562
#
# Stress axis : x y z
#
# Youngs Moduli (GPa) = 62.18437 81.73196 70.48521
#
# Poissons Ratio (x) = 0.30130 0.49762
# Poissons Ratio (y) = 0.22924 0.18133
# Poissons Ratio (z) = 0.43902 0.21027
#
# Static dielectric constant tensor:
#      x y z
#    x 1.974270 0.000000 0.000000 
#    y 0.000000 2.038010 0.000000 
#    z 0.000000 0.000000 1.916790 
# 
# From -- ./inp_files/8889.got.cif
#   From: 2010.05.17/outbox.cif.g08.bks.cpg/sg52_5_cif.got.tgz:8889.got - 2010.06.03 12:15:38.
