data_PCOD9411007
_publ_section_title
;
Structure prediction by ZEFSAII (Michael W. Deem and Ramdas Pophale) SiO2 
 PCOD9411007
Probable space group: P N N A
;
_chemical_formula_sum "Si O2"
_cell_formula_units_Z 36
_cell_length_a 14.252978
_cell_length_b 14.678518
_cell_length_c 8.796070
_cell_angle_alpha 90.000000
_cell_angle_beta 90.000000
_cell_angle_gamma 90.000000
_cell_volume 1840.248623
_symmetry_space_group_name_H-M "P N N A"
_symmetry_group_IT_number 52
_symmetry_cell_setting 'orthorhombic'
loop_
_space_group_symop_operation_xyz
x,y,z
1/2-x,-y,z
x,1/2-y,1/2-z
1/2-x,1/2+y,1/2-z
-x,-y,-z
1/2+x,y,-z
-x,1/2+y,1/2+z
1/2+x,1/2-y,1/2+z
loop_
_atom_site_type_symbol
_atom_site_label
_atom_site_fract_x
_atom_site_fract_y
_atom_site_fract_z
Si Si1 0.693923 0.750000 0.750000
Si Si2 0.488664 0.335546 0.150786
Si Si3 0.809503 0.911656 0.879842
Si Si4 0.502685 0.354073 0.796275
Si Si5 0.927456 0.986851 0.137786
O O1 0.622662 0.685089 0.842863
O O2 0.751920 0.818011 0.857571
O O3 0.528055 0.250000 0.250000
O O4 0.522305 0.421777 0.243164
O O5 0.514314 0.350422 0.976953
O O6 0.902044 0.893314 0.778877
O O7 0.750000 0.000000 0.827055
O O8 0.841477 0.937988 0.051500
O O9 0.488964 0.250000 0.750000
O O10 0.420032 0.417003 0.725366
O O11 0.000000 0.000000 0.000000
#
# Coordination Sequence:
#
# PCOD9411007 Si02
#       5
#     4   8   8   8   8
#     4  10  22  36  66  94 132 170 216 282 330 382
#     4  10  22  39  66  94 126 171 227 264 318 401
#     4  11  23  40  65  95 134 174 212 274 346 378
#     4  11  22  40  69  94 127 175 223 262 321 400
#     4  10  21  39  65  90 126 173 216 262 317 408
#
# _framework density 19.562571999999999
#
# number of rings (size 3 to 8) (size 9 to 14) (size 15 to 20)
#    0.667    0.889    1.111    6.000    3.111    0.000 
#    0.000    3.333    4.889    0.000    0.000    0.000 
#    0.000    0.000    0.000    0.000    0.000    0.000 
#
# Total GULP energy -200432.640144 kJ/mol
# GULP energy per Si atom -5567.573337 kJ/mol
# Density = 1.951805 g / cm^3
# Si number density = 19.562572 Si / 1000 Ang^3
#
#
#
# Elastic Constant Matrix: (Units=GPa)
#
#
# Indices 1 2 3 4 5 6 
#
# 1 68.3817 52.4494 33.1449 0.0000 0.0000 0.0000
# 2 52.4494 173.3192 85.4740 0.0000 0.0000 0.0000
# 3 33.1449 85.4740 170.7454 0.0000 0.0000 0.0000
# 4 0.0000 0.0000 0.0000 234.2397 0.0000 0.0000
# 5 0.0000 0.0000 0.0000 0.0000 15.8975 0.0000
# 6 0.0000 0.0000 0.0000 0.0000 0.0000 -14.9521
#
#
#
# Elastic Compliance Matrix: (Units=1/GPa)
#
#
# Indices 1 2 3 4 5 6 
#
# 1 0.019195 -0.005273 -0.001087 0.000000 0.000000 0.000000
# 2 -0.005273 0.009109 -0.003537 0.000000 0.000000 0.000000
# 3 -0.001087 -0.003537 0.007838 0.000000 0.000000 0.000000
# 4 0.000000 0.000000 0.000000 0.004269 0.000000 0.000000
# 5 0.000000 0.000000 0.000000 0.000000 0.062903 0.000000
# 6 0.000000 0.000000 0.000000 0.000000 0.000000 -0.066880
#
#
# Mechanical properties :
#
#
# Convention : Reuss Voigt Hill
#
# Bulk Modulus (GPa) = 61.16087 83.84255 72.50171
# Shear Modulus (GPa) = 81.06897 63.12890 72.09893
#
# Velocity S-wave (km/s) = 6.44444 5.68685 6.07746
# Velocity P-wave (km/s) = 9.31163 9.27750 9.29458
#
# Compressibility (1/GPa) = 0.01635032
#
# Stress axis : x y z
#
# Youngs Moduli (GPa) = 52.09757 109.77612 127.58399
#
# Poissons Ratio (x) = 0.57883 0.13862
# Poissons Ratio (y) = 0.27470 0.45121
# Poissons Ratio (z) = 0.05660 0.38823
#
# Static dielectric constant tensor:
#      x y z
#    x 1.752560 0.000000 0.000000 
#    y 0.000000 1.809390 0.000000 
#    z 0.000000 0.000000 1.641480 
# 
# From -- ./inp_files/9904.got.cif
#   From: 2010.05.17/outbox.cif.g08.bks.cpg/sg52_5_cif.got.tgz:9904.got - 2010.06.03 12:15:38.
