data_PCOD9411420
_publ_section_title
;
Structure prediction by ZEFSAII (Michael W. Deem and Ramdas Pophale) SiO2 
 PCOD9411420
Probable space group: P N N A
;
_chemical_formula_sum "Si O2"
_cell_formula_units_Z 48
_cell_length_a 26.667717
_cell_length_b 16.707745
_cell_length_c 5.132912
_cell_angle_alpha 90.000000
_cell_angle_beta 90.000000
_cell_angle_gamma 90.000000
_cell_volume 2287.007004
_symmetry_space_group_name_H-M "P N N A"
_symmetry_group_IT_number 52
_symmetry_cell_setting 'orthorhombic'
loop_
_space_group_symop_operation_xyz
x,y,z
1/2-x,-y,z
x,1/2-y,1/2-z
1/2-x,1/2+y,1/2-z
-x,-y,-z
1/2+x,y,-z
-x,1/2+y,1/2+z
1/2+x,1/2-y,1/2+z
loop_
_atom_site_type_symbol
_atom_site_label
_atom_site_fract_x
_atom_site_fract_y
_atom_site_fract_z
Si Si1 0.930521 0.039535 0.537545
Si Si2 0.525799 0.841098 0.171596
Si Si3 0.731553 0.693111 0.497386
Si Si4 0.872253 0.157730 0.843419
Si Si5 0.433606 0.928969 0.963250
Si Si6 0.156619 0.307258 0.500896
O O1 0.971113 0.102262 0.425659
O O2 0.883507 0.096245 0.610332
O O3 0.941285 0.992860 0.804191
O O4 0.925482 0.975642 0.306168
O O5 0.516588 0.750000 0.250000
O O6 0.580341 0.847282 0.036711
O O7 0.482253 0.872634 0.983718
O O8 0.734109 0.750000 0.750000
O O9 0.681778 0.640538 0.530943
O O10 0.787082 0.656589 0.475948
O O11 0.723722 0.750000 0.250000
O O12 0.871951 0.250000 0.750000
O O13 0.385125 0.874973 0.015753
O O14 0.153846 0.250000 0.250000
O O15 0.148497 0.250000 0.750000
#
# Coordination Sequence:
#
# PCOD9411420 Si02
#       6
#     8   8   8   8   8   8
#     4  12  26  44  63  95 133 178 205 272 335 398
#     4  12  25  42  68  97 128 172 225 273 319 394
#     4   9  20  37  67  96 126 165 217 279 321 370
#     4  11  23  40  69  95 130 166 227 266 325 383
#     4  12  27  42  67  95 137 172 214 265 341 397
#     4  10  21  44  69  96 128 174 227 272 323 392
#
# _framework density 20.988129000000001
#
# number of rings (size 3 to 8) (size 9 to 14) (size 15 to 20)
#    0.000    1.000    3.333    3.000    4.667    0.667 
#    0.000    0.833    3.667    0.000    0.000    0.000 
#    0.000    0.000    0.000    0.000    0.000    0.000 
#
# Total GULP energy -268281.544177 kJ/mol
# GULP energy per Si atom -5589.198837 kJ/mol
# Density = 2.094036 g / cm^3
# Si number density = 20.988129 Si / 1000 Ang^3
#
#
#
# Elastic Constant Matrix: (Units=GPa)
#
#
# Indices 1 2 3 4 5 6 
#
# 1 169.4765 63.9222 35.1529 0.0000 0.0000 0.0000
# 2 63.9222 105.1085 37.6061 0.0000 0.0000 0.0000
# 3 35.1529 37.6061 132.3653 0.0000 0.0000 0.0000
# 4 0.0000 0.0000 0.0000 35.1585 0.0000 0.0000
# 5 0.0000 0.0000 0.0000 0.0000 79.5819 0.0000
# 6 0.0000 0.0000 0.0000 0.0000 0.0000 16.1569
#
#
#
# Elastic Compliance Matrix: (Units=1/GPa)
#
#
# Indices 1 2 3 4 5 6 
#
# 1 0.007732 -0.004416 -0.000799 0.000000 0.000000 0.000000
# 2 -0.004416 0.013113 -0.002553 0.000000 0.000000 0.000000
# 3 -0.000799 -0.002553 0.008492 0.000000 0.000000 0.000000
# 4 0.000000 0.000000 0.000000 0.028443 0.000000 0.000000
# 5 0.000000 0.000000 0.000000 0.000000 0.012566 0.000000
# 6 0.000000 0.000000 0.000000 0.000000 0.000000 0.061893
#
#
# Mechanical properties :
#
#
# Convention : Reuss Voigt Hill
#
# Bulk Modulus (GPa) = 72.45465 75.59029 74.02247
# Shear Modulus (GPa) = 32.81378 44.19739 38.50559
#
# Velocity S-wave (km/s) = 3.95833 4.59391 4.28791
# Velocity P-wave (km/s) = 7.44902 8.01452 7.73694
#
# Compressibility (1/GPa) = 0.01380174
#
# Stress axis : x y z
#
# Youngs Moduli (GPa) = 129.33329 76.25921 117.75534
#
# Poissons Ratio (x) = 0.33680 0.09405
# Poissons Ratio (y) = 0.57120 0.30059
# Poissons Ratio (z) = 0.10329 0.19466
#
# Static dielectric constant tensor:
#      x y z
#    x 1.795790 0.000000 0.000000 
#    y 0.000000 1.728130 0.000000 
#    z 0.000000 0.000000 1.683590 
# 
# From -- ./inp_files/5126.got.cif
#   From: 2010.05.17/outbox.cif.g08.bks.cpg/sg52_3_cif.got.tgz:5126.got - 2010.06.03 12:15:38.
