data_PCOD9411546
_publ_section_title
;
Structure prediction by ZEFSAII (Michael W. Deem and Ramdas Pophale) SiO2 
 PCOD9411546
Probable space group: P N N A
;
_chemical_formula_sum "Si O2"
_cell_formula_units_Z 36
_cell_length_a 5.314961
_cell_length_b 22.765201
_cell_length_c 14.093586
_cell_angle_alpha 90.000000
_cell_angle_beta 90.000000
_cell_angle_gamma 90.000000
_cell_volume 1705.269723
_symmetry_space_group_name_H-M "P N N A"
_symmetry_group_IT_number 52
_symmetry_cell_setting 'orthorhombic'
loop_
_space_group_symop_operation_xyz
x,y,z
1/2-x,-y,z
x,1/2-y,1/2-z
1/2-x,1/2+y,1/2-z
-x,-y,-z
1/2+x,y,-z
-x,1/2+y,1/2+z
1/2+x,1/2-y,1/2+z
loop_
_atom_site_type_symbol
_atom_site_label
_atom_site_fract_x
_atom_site_fract_y
_atom_site_fract_z
Si Si1 0.300930 0.247636 0.454441
Si Si2 0.727981 0.875107 0.912924
Si Si3 0.250000 0.500000 0.722752
Si Si4 0.946784 0.750000 0.250000
Si Si5 0.750000 0.500000 0.593096
Si Si6 0.227246 0.627633 0.714263
O O1 0.531233 0.222439 0.516153
O O2 0.274197 0.317372 0.476417
O O3 0.380775 0.247432 0.344394
O O4 0.469839 0.876002 0.854387
O O5 0.962852 0.870388 0.840887
O O6 0.751181 0.938605 0.961942
O O7 0.502474 0.499749 0.658969
O O8 0.239404 0.565077 0.770761
O O9 0.774916 0.691732 0.241496
#
# Coordination Sequence:
#
# PCOD9411546 Si02
#       6
#     8   8   4   4   4   8
#     4  11  23  37  54  78 109 142 179 224 271 318
#     4   9  17  31  48  72 104 140 176 214 254 309
#     4   8  14  26  44  73 100 131 174 216 256 311
#     4  10  22  38  58  82 108 144 182 224 270 322
#     4   8  14  26  46  67  98 139 176 206 244 301
#     4   9  17  29  51  75 103 137 177 218 264 313
#
# _framework density 21.111028999999998
#
# number of rings (size 3 to 8) (size 9 to 14) (size 15 to 20)
#    0.000    2.667    0.000    2.667    0.000    8.000 
#    0.000    1.111    0.000    1.333    0.000    1.556 
#    0.000    0.000    0.000    0.667    0.000    0.111 
#
# Total GULP energy -200600.537565 kJ/mol
# GULP energy per Si atom -5572.237155 kJ/mol
# Density = 2.106298 g / cm^3
# Si number density = 21.111029 Si / 1000 Ang^3
#
#
#
# Elastic Constant Matrix: (Units=GPa)
#
#
# Indices 1 2 3 4 5 6 
#
# 1 149.8621 13.9448 30.9734 0.0000 0.0000 0.0000
# 2 13.9448 133.4765 13.3224 0.0000 0.0000 0.0000
# 3 30.9734 13.3224 58.6422 0.0000 0.0000 0.0000
# 4 0.0000 0.0000 0.0000 17.5496 0.0000 0.0000
# 5 0.0000 0.0000 0.0000 0.0000 55.1316 0.0000
# 6 0.0000 0.0000 0.0000 0.0000 0.0000 20.5946
#
#
#
# Elastic Compliance Matrix: (Units=1/GPa)
#
#
# Indices 1 2 3 4 5 6 
#
# 1 0.007511 -0.000398 -0.003877 0.000000 0.000000 0.000000
# 2 -0.000398 0.007687 -0.001536 0.000000 0.000000 0.000000
# 3 -0.003877 -0.001536 0.019449 0.000000 0.000000 0.000000
# 4 0.000000 0.000000 0.000000 0.056981 0.000000 0.000000
# 5 0.000000 0.000000 0.000000 0.000000 0.018138 0.000000
# 6 0.000000 0.000000 0.000000 0.000000 0.000000 0.048556
#
#
# Mechanical properties :
#
#
# Convention : Reuss Voigt Hill
#
# Bulk Modulus (GPa) = 43.43002 50.94022 47.18512
# Shear Modulus (GPa) = 28.14996 37.57116 32.86056
#
# Velocity S-wave (km/s) = 3.65557 4.22322 3.94961
# Velocity P-wave (km/s) = 6.19955 6.92552 6.57257
#
# Compressibility (1/GPa) = 0.02302555
#
# Stress axis : x y z
#
# Youngs Moduli (GPa) = 133.13683 130.09242 51.41597
#
# Poissons Ratio (x) = 0.05175 0.19933
# Poissons Ratio (y) = 0.05296 0.07899
# Poissons Ratio (z) = 0.51615 0.19985
#
# Static dielectric constant tensor:
#      x y z
#    x 1.818900 0.000000 0.000000 
#    y 0.000000 1.887960 0.000000 
#    z 0.000000 0.000000 1.731510 
# 
# From -- ./inp_files/16015.got.cif
#   From: 2010.05.17/outbox.cif.g08.bks.cpg/sg52_9_cif.got.tgz:16015.got - 2010.06.03 12:15:38.
