data_PCOD9411894
_publ_section_title
;
Structure prediction by ZEFSAII (Michael W. Deem and Ramdas Pophale) SiO2 
 PCOD9411894
Probable space group: P N N A
;
_chemical_formula_sum "Si O2"
_cell_formula_units_Z 40
_cell_length_a 9.122535
_cell_length_b 11.657175
_cell_length_c 15.012758
_cell_angle_alpha 90.000000
_cell_angle_beta 90.000000
_cell_angle_gamma 90.000000
_cell_volume 1596.501528
_symmetry_space_group_name_H-M "P N N A"
_symmetry_group_IT_number 52
_symmetry_cell_setting 'orthorhombic'
loop_
_space_group_symop_operation_xyz
x,y,z
1/2-x,-y,z
x,1/2-y,1/2-z
1/2-x,1/2+y,1/2-z
-x,-y,-z
1/2+x,y,-z
-x,1/2+y,1/2+z
1/2+x,1/2-y,1/2+z
loop_
_atom_site_type_symbol
_atom_site_label
_atom_site_fract_x
_atom_site_fract_y
_atom_site_fract_z
Si Si1 0.337158 0.847327 0.474976
Si Si2 0.016409 0.091919 0.802521
Si Si3 0.470011 0.363361 0.497146
Si Si4 0.548801 0.569664 0.890603
Si Si5 0.645171 0.654152 0.318877
O O1 0.397426 0.719046 0.471735
O O2 0.390463 0.896802 0.570442
O O3 0.145243 0.669257 0.574073
O O4 0.419957 0.934685 0.406095
O O5 0.038978 0.954978 0.808948
O O6 0.947252 0.147761 0.890645
O O7 0.935183 0.110291 0.709952
O O8 0.185345 0.131414 0.795683
O O9 0.500000 0.500000 0.500000
O O10 0.331314 0.131322 0.453086
O O11 0.594094 0.750000 0.250000
#
# Coordination Sequence:
#
# PCOD9411894 Si02
#       5
#     8   8   8   8   8
#     4  10  23  43  73 105 144 182 246 307 374 445
#     4  10  23  42  69 102 139 189 249 300 377 449
#     4  10  23  43  67 103 145 195 237 305 373 453
#     4  10  23  43  72 110 139 191 243 315 375 439
#     4  10  22  41  70  99 140 192 247 296 370 458
#
# _framework density 25.054784000000001
#
# number of rings (size 3 to 8) (size 9 to 14) (size 15 to 20)
#    0.000    2.000    0.000    1.200    5.600    6.400 
#    0.000   14.000   26.400    0.000    0.000    0.000 
#    0.000    0.000    0.000    0.000    0.000    0.000 
#
# Total GULP energy -223530.581881 kJ/mol
# GULP energy per Si atom -5588.264547 kJ/mol
# Density = 2.499776 g / cm^3
# Si number density = 25.054784 Si / 1000 Ang^3
#
#
#
# Elastic Constant Matrix: (Units=GPa)
#
#
# Indices 1 2 3 4 5 6 
#
# 1 62.7175 40.6112 38.9320 0.0000 0.0000 0.0000
# 2 40.6112 171.9256 71.0426 0.0000 0.0000 0.0000
# 3 38.9320 71.0426 197.5526 0.0000 0.0000 0.0000
# 4 0.0000 0.0000 0.0000 41.7320 0.0000 0.0000
# 5 0.0000 0.0000 0.0000 0.0000 35.4803 0.0000
# 6 0.0000 0.0000 0.0000 0.0000 0.0000 22.2392
#
#
#
# Elastic Compliance Matrix: (Units=1/GPa)
#
#
# Indices 1 2 3 4 5 6 
#
# 1 0.019917 -0.003621 -0.002623 0.000000 0.000000 0.000000
# 2 -0.003621 0.007490 -0.001980 0.000000 0.000000 0.000000
# 3 -0.002623 -0.001980 0.006291 0.000000 0.000000 0.000000
# 4 0.000000 0.000000 0.000000 0.023962 0.000000 0.000000
# 5 0.000000 0.000000 0.000000 0.000000 0.028185 0.000000
# 6 0.000000 0.000000 0.000000 0.000000 0.000000 0.044966
#
#
# Mechanical properties :
#
#
# Convention : Reuss Voigt Hill
#
# Bulk Modulus (GPa) = 57.96925 81.48524 69.72725
# Shear Modulus (GPa) = 32.67789 38.66429 35.67109
#
# Velocity S-wave (km/s) = 3.61537 3.93261 3.77732
# Velocity P-wave (km/s) = 6.37300 7.29479 6.84942
#
# Compressibility (1/GPa) = 0.01725053
#
# Stress axis : x y z
#
# Youngs Moduli (GPa) = 50.20744 133.51322 158.96062
#
# Poissons Ratio (x) = 0.48343 0.41696
# Poissons Ratio (y) = 0.18179 0.31473
# Poissons Ratio (z) = 0.13170 0.26434
#
# Static dielectric constant tensor:
#      x y z
#    x 1.968990 0.000000 0.000000 
#    y 0.000000 2.114400 0.000000 
#    z 0.000000 0.000000 2.018300 
# 
# From -- ./inp_files/28562.got.cif
#   From: 2010.05.17/outbox.cif.g08.bks.cpg/sg52_15_cif.got.tgz:28562.got - 2010.06.03 12:15:38.
