data_PCOD9411628
_publ_section_title
;
Structure prediction by ZEFSAII (Michael W. Deem and Ramdas Pophale) SiO2 
 PCOD9411628
Probable space group: P N N A
;
_chemical_formula_sum "Si O2"
_cell_formula_units_Z 48
_cell_length_a 23.301166
_cell_length_b 6.379963
_cell_length_c 15.763540
_cell_angle_alpha 90.000000
_cell_angle_beta 90.000000
_cell_angle_gamma 90.000000
_cell_volume 2343.416951
_symmetry_space_group_name_H-M "P N N A"
_symmetry_group_IT_number 52
_symmetry_cell_setting 'orthorhombic'
loop_
_space_group_symop_operation_xyz
x,y,z
1/2-x,-y,z
x,1/2-y,1/2-z
1/2-x,1/2+y,1/2-z
-x,-y,-z
1/2+x,y,-z
-x,1/2+y,1/2+z
1/2+x,1/2-y,1/2+z
loop_
_atom_site_type_symbol
_atom_site_label
_atom_site_fract_x
_atom_site_fract_y
_atom_site_fract_z
Si Si1 0.686351 0.406521 0.171894
Si Si2 0.314394 0.927438 0.980443
Si Si3 0.108894 0.792560 0.866983
Si Si4 0.500713 0.099409 0.666537
Si Si5 0.525443 0.356420 0.375014
Si Si6 0.574914 0.341266 0.564962
O O1 0.750000 0.500000 0.178965
O O2 0.678168 0.250000 0.250000
O O3 0.683877 0.270528 0.084952
O O4 0.642363 0.602090 0.177947
O O5 0.250000 0.000000 0.999673
O O6 0.345107 0.120074 0.931971
O O7 0.357839 0.883441 0.057252
O O8 0.050079 0.680866 0.896435
O O9 0.076722 0.004059 0.833349
O O10 0.498927 0.250000 0.750000
O O11 0.560245 0.138215 0.619833
O O12 0.487970 0.856691 0.673101
O O13 0.551498 0.316031 0.469015
O O14 0.465679 0.481000 0.391743
#
# Coordination Sequence:
#
# PCOD9411628 Si02
#       6
#     8   8   8   8   8   8
#     4  12  26  40  56  84 126 174 217 266 313 371
#     4  11  22  41  61  85 122 167 224 262 306 376
#     4  10  22  39  57  86 119 167 208 254 310 373
#     4  11  23  38  63  96 127 166 207 266 335 384
#     4   9  19  40  62  86 126 161 211 260 320 383
#     4   9  20  37  62  91 121 166 210 262 317 375
#
# _framework density 20.482911000000001
#
# number of rings (size 3 to 8) (size 9 to 14) (size 15 to 20)
#    0.000    1.667    1.667    4.000    2.333    6.667 
#    0.000    0.000    0.000    0.000    4.333    0.000 
#    0.000    0.000    0.000    0.000    0.000    0.000 
#
# Total GULP energy -267402.784604 kJ/mol
# GULP energy per Si atom -5570.891346 kJ/mol
# Density = 2.043629 g / cm^3
# Si number density = 20.482911 Si / 1000 Ang^3
#
#
#
# Elastic Constant Matrix: (Units=GPa)
#
#
# Indices 1 2 3 4 5 6 
#
# 1 192.3301 70.1805 48.5434 0.0000 0.0000 0.0000
# 2 70.1805 136.3294 39.6528 0.0000 0.0000 0.0000
# 3 48.5434 39.6528 46.8491 0.0000 0.0000 0.0000
# 4 0.0000 0.0000 0.0000 25.7114 0.0000 0.0000
# 5 0.0000 0.0000 0.0000 0.0000 26.9659 0.0000
# 6 0.0000 0.0000 0.0000 0.0000 0.0000 38.4489
#
#
#
# Elastic Compliance Matrix: (Units=1/GPa)
#
#
# Indices 1 2 3 4 5 6 
#
# 1 0.007474 -0.002116 -0.005954 0.000000 0.000000 0.000000
# 2 -0.002116 0.010330 -0.006551 0.000000 0.000000 0.000000
# 3 -0.005954 -0.006551 0.033058 0.000000 0.000000 0.000000
# 4 0.000000 0.000000 0.000000 0.038893 0.000000 0.000000
# 5 0.000000 0.000000 0.000000 0.000000 0.037084 0.000000
# 6 0.000000 0.000000 0.000000 0.000000 0.000000 0.026009
#
#
# Mechanical properties :
#
#
# Convention : Reuss Voigt Hill
#
# Bulk Modulus (GPa) = 46.24889 76.91801 61.58345
# Shear Modulus (GPa) = 26.41375 32.70069 29.55722
#
# Velocity S-wave (km/s) = 3.59493 3.99994 3.80283
# Velocity P-wave (km/s) = 6.31345 7.67896 7.02944
#
# Compressibility (1/GPa) = 0.02162214
#
# Stress axis : x y z
#
# Youngs Moduli (GPa) = 133.79472 96.80788 30.24957
#
# Poissons Ratio (x) = 0.20484 0.18009
# Poissons Ratio (y) = 0.28310 0.19815
# Poissons Ratio (z) = 0.79655 0.63415
#
# Static dielectric constant tensor:
#      x y z
#    x 1.728870 0.000000 0.000000 
#    y 0.000000 1.868480 0.000000 
#    z 0.000000 0.000000 1.813240 
# 
# From -- ./inp_files/37839.got.cif
#   From: 2010.05.17/outbox.cif.g08.bks.cpg/sg52_19_cif.got.tgz:37839.got - 2010.06.03 12:15:38.
