data_PCOD9411623
_publ_section_title
;
Structure prediction by ZEFSAII (Michael W. Deem and Ramdas Pophale) SiO2 
 PCOD9411623
Probable space group: P N N A
;
_chemical_formula_sum "Si O2"
_cell_formula_units_Z 64
_cell_length_a 14.072178
_cell_length_b 9.340294
_cell_length_c 27.112560
_cell_angle_alpha 90.000000
_cell_angle_beta 90.000000
_cell_angle_gamma 90.000000
_cell_volume 3563.628246
_symmetry_space_group_name_H-M "P N N A"
_symmetry_group_IT_number 52
_symmetry_cell_setting 'orthorhombic'
loop_
_space_group_symop_operation_xyz
x,y,z
1/2-x,-y,z
x,1/2-y,1/2-z
1/2-x,1/2+y,1/2-z
-x,-y,-z
1/2+x,y,-z
-x,1/2+y,1/2+z
1/2+x,1/2-y,1/2+z
loop_
_atom_site_type_symbol
_atom_site_label
_atom_site_fract_x
_atom_site_fract_y
_atom_site_fract_z
Si Si1 0.885180 0.729955 0.580597
Si Si2 0.165852 0.405146 0.920097
Si Si3 0.647611 0.922989 0.761429
Si Si4 0.642098 0.446279 0.838072
Si Si5 0.745803 0.671396 0.491611
Si Si6 0.137291 0.951134 0.126426
Si Si7 0.035556 0.663681 0.093978
Si Si8 0.436086 0.343256 0.979606
O O1 0.859539 0.793206 0.634975
O O2 0.796440 0.725947 0.542421
O O3 0.913481 0.568539 0.592899
O O4 0.973556 0.806082 0.553956
O O5 0.250000 0.500000 0.894730
O O6 0.203086 0.266073 0.949393
O O7 0.125840 0.526127 0.957982
O O8 0.075067 0.346081 0.890117
O O9 0.653825 0.750000 0.750000
O O10 0.607529 0.945189 0.816096
O O11 0.750000 0.000000 0.765065
O O12 0.601844 0.011840 0.715897
O O13 0.750000 0.500000 0.836564
O O14 0.587315 0.539506 0.877310
O O15 0.750000 0.500000 0.489323
O O16 0.636373 0.711716 0.484678
O O17 0.100226 0.801208 0.105321
O O18 0.250000 0.000000 0.123682
O O19 0.034969 0.633266 0.035867
#
# Coordination Sequence:
#
# PCOD9411623 Si02
#       8
#     8   8   8   8   8   8   8   8
#     4  12  23  37  53  87 117 156 197 239 291 354
#     4  10  22  39  55  78 114 154 203 246 288 341
#     4  10  22  39  56  82 116 156 196 245 290 351
#     4  11  22  35  60  83 114 156 198 232 297 354
#     4  11  23  37  54  77 116 160 198 241 293 339
#     4  11  24  37  57  84 124 154 200 243 297 359
#     4  12  20  37  58  81 114 158 197 240 289 349
#     4  11  22  36  55  81 117 152 199 244 285 350
#
# _framework density 17.959226000000001
#
# number of rings (size 3 to 8) (size 9 to 14) (size 15 to 20)
#    0.000    1.000    3.750    4.500    7.000    2.000 
#    0.000    0.000    0.000    0.000    0.000    0.000 
#   15.000    0.000    0.000    0.000    0.000    0.000 
#
# Total GULP energy -356277.462703 kJ/mol
# GULP energy per Si atom -5566.835355 kJ/mol
# Density = 1.791835 g / cm^3
# Si number density = 17.959226 Si / 1000 Ang^3
#
#
#
# Elastic Constant Matrix: (Units=GPa)
#
#
# Indices 1 2 3 4 5 6 
#
# 1 79.6512 23.4824 17.2685 0.0000 0.0000 0.0000
# 2 23.4824 82.1580 6.0420 0.0000 0.0000 0.0000
# 3 17.2685 6.0420 67.8970 0.0000 0.0000 0.0000
# 4 0.0000 0.0000 0.0000 13.5088 0.0000 0.0000
# 5 0.0000 0.0000 0.0000 0.0000 385.2026 0.0000
# 6 0.0000 0.0000 0.0000 0.0000 0.0000 28.5593
#
#
#
# Elastic Compliance Matrix: (Units=1/GPa)
#
#
# Indices 1 2 3 4 5 6 
#
# 1 0.014418 -0.003877 -0.003322 0.000000 0.000000 0.000000
# 2 -0.003877 0.013294 -0.000197 0.000000 0.000000 0.000000
# 3 -0.003322 -0.000197 0.015591 0.000000 0.000000 0.000000
# 4 0.000000 0.000000 0.000000 0.074026 0.000000 0.000000
# 5 0.000000 0.000000 0.000000 0.000000 0.002596 0.000000
# 6 0.000000 0.000000 0.000000 0.000000 0.000000 0.035015
#
#
# Mechanical properties :
#
#
# Convention : Reuss Voigt Hill
#
# Bulk Modulus (GPa) = 35.07376 35.92133 35.49755
# Shear Modulus (GPa) = 27.89643 97.64838 62.77240
#
# Velocity S-wave (km/s) = 3.94549 7.38175 5.91850
# Velocity P-wave (km/s) = 6.35043 9.62802 8.15557
#
# Compressibility (1/GPa) = 0.02851134
#
# Stress axis : x y z
#
# Youngs Moduli (GPa) = 69.35857 75.22092 64.14118
#
# Poissons Ratio (x) = 0.29160 0.21308
# Poissons Ratio (y) = 0.26888 0.01264
# Poissons Ratio (z) = 0.23041 0.01482
#
# Static dielectric constant tensor:
#      x y z
#    x 1.535220 0.000000 0.000000 
#    y 0.000000 1.641750 0.000000 
#    z 0.000000 0.000000 1.651080 
# 
# From -- ./inp_files/40672.got.cif
#   From: 2010.05.17/outbox.cif.g08.bks.cpg/sg52_21_cif.got.tgz:40672.got - 2010.06.03 12:15:38.
