data_PCOD9411698
_publ_section_title
;
Structure prediction by ZEFSAII (Michael W. Deem and Ramdas Pophale) SiO2 
 PCOD9411698
Probable space group: P N N A
;
_chemical_formula_sum "Si O2"
_cell_formula_units_Z 52
_cell_length_a 6.980062
_cell_length_b 23.559609
_cell_length_c 14.800952
_cell_angle_alpha 90.000000
_cell_angle_beta 90.000000
_cell_angle_gamma 90.000000
_cell_volume 2433.980020
_symmetry_space_group_name_H-M "P N N A"
_symmetry_group_IT_number 52
_symmetry_cell_setting 'orthorhombic'
loop_
_space_group_symop_operation_xyz
x,y,z
1/2-x,-y,z
x,1/2-y,1/2-z
1/2-x,1/2+y,1/2-z
-x,-y,-z
1/2+x,y,-z
-x,1/2+y,1/2+z
1/2+x,1/2-y,1/2+z
loop_
_atom_site_type_symbol
_atom_site_label
_atom_site_fract_x
_atom_site_fract_y
_atom_site_fract_z
Si Si1 0.594935 0.930346 0.406108
Si Si2 0.250000 0.500000 0.072797
Si Si3 0.577558 0.119354 0.309105
Si Si4 0.709262 0.731582 0.506727
Si Si5 0.462465 0.819463 0.499807
Si Si6 0.335126 0.194025 0.806317
Si Si7 0.784599 0.311499 0.705890
O O1 0.654638 0.953648 0.505715
O O2 0.792329 0.931825 0.349708
O O3 0.504045 0.867799 0.424330
O O4 0.419028 0.969262 0.373904
O O5 0.564612 0.156908 0.399379
O O6 0.722819 0.142944 0.235762
O O7 0.380199 0.134915 0.256968
O O8 0.460771 0.748414 0.486663
O O9 0.712939 0.803921 0.515240
O O10 0.721436 0.701874 0.409518
O O11 0.680231 0.696297 0.598756
O O12 0.279336 0.250000 0.750000
O O13 0.557320 0.185280 0.787725
O O14 0.842009 0.250000 0.750000
#
# Coordination Sequence:
#
# PCOD9411698 Si02
#       7
#     8   4   8   8   8   8   8
#     4  11  22  38  60  86 118 156 194 251 309 387
#     4  10  22  40  60  90 116 148 194 254 330 382
#     4  12  23  37  55  82 115 158 206 247 293 360
#     4  12  21  35  53  77 118 168 208 242 281 328
#     4  12  20  34  56  79 112 162 208 234 289 354
#     4  11  22  36  51  79 116 159 211 256 281 333
#     4  11  24  34  51  81 116 163 212 251 279 341
#
# _framework density 21.364184000000002
#
# number of rings (size 3 to 8) (size 9 to 14) (size 15 to 20)
#    0.000    0.615    7.692    1.385    2.154    1.231 
#    0.000    0.000    0.000    0.000    0.000    0.000 
#    0.000    3.692    0.000    0.000    0.000    0.000 
#
# Total GULP energy -289754.872980 kJ/mol
# GULP energy per Si atom -5572.209096 kJ/mol
# Density = 2.131556 g / cm^3
# Si number density = 21.364184 Si / 1000 Ang^3
#
#
#
# Elastic Constant Matrix: (Units=GPa)
#
#
# Indices 1 2 3 4 5 6 
#
# 1 163.5733 29.5895 20.5776 0.0000 0.0000 0.0000
# 2 29.5895 40.3884 20.2717 0.0000 0.0000 0.0000
# 3 20.5776 20.2717 118.6760 0.0000 0.0000 0.0000
# 4 0.0000 0.0000 0.0000 13.0610 0.0000 0.0000
# 5 0.0000 0.0000 0.0000 0.0000 39.0007 0.0000
# 6 0.0000 0.0000 0.0000 0.0000 0.0000 48.6850
#
#
#
# Elastic Compliance Matrix: (Units=1/GPa)
#
#
# Indices 1 2 3 4 5 6 
#
# 1 0.007062 -0.004987 -0.000373 0.000000 0.000000 0.000000
# 2 -0.004987 0.030603 -0.004363 0.000000 0.000000 0.000000
# 3 -0.000373 -0.004363 0.009236 0.000000 0.000000 0.000000
# 4 0.000000 0.000000 0.000000 0.076564 0.000000 0.000000
# 5 0.000000 0.000000 0.000000 0.000000 0.025641 0.000000
# 6 0.000000 0.000000 0.000000 0.000000 0.000000 0.020540
#
#
# Mechanical properties :
#
#
# Convention : Reuss Voigt Hill
#
# Bulk Modulus (GPa) = 36.42116 51.50168 43.96142
# Shear Modulus (GPa) = 25.22149 36.96259 31.09204
#
# Velocity S-wave (km/s) = 3.43964 4.16398 3.81902
# Velocity P-wave (km/s) = 5.73233 6.87584 6.32996
#
# Compressibility (1/GPa) = 0.02745657
#
# Stress axis : x y z
#
# Youngs Moduli (GPa) = 141.59316 32.67659 108.27022
#
# Poissons Ratio (x) = 0.16296 0.04035
# Poissons Ratio (y) = 0.70613 0.47235
# Poissons Ratio (z) = 0.05277 0.14256
#
# Static dielectric constant tensor:
#      x y z
#    x 2.236860 0.000000 0.000000 
#    y 0.000000 1.830710 0.000000 
#    z 0.000000 0.000000 1.690140 
# 
# From -- ./inp_files/25053.got.cif
#   From: 2010.05.17/outbox.cif.g08.bks.cpg/sg52_13_cif.got.tgz:25053.got - 2010.06.03 12:15:38.
