data_PCOD9411782
_publ_section_title
;
Structure prediction by ZEFSAII (Michael W. Deem and Ramdas Pophale) SiO2 
 PCOD9411782
Probable space group: P N N A
;
_chemical_formula_sum "Si O2"
_cell_formula_units_Z 40
_cell_length_a 17.383734
_cell_length_b 19.401986
_cell_length_c 6.431256
_cell_angle_alpha 90.000000
_cell_angle_beta 90.000000
_cell_angle_gamma 90.000000
_cell_volume 2169.127359
_symmetry_space_group_name_H-M "P N N A"
_symmetry_group_IT_number 52
_symmetry_cell_setting 'orthorhombic'
loop_
_space_group_symop_operation_xyz
x,y,z
1/2-x,-y,z
x,1/2-y,1/2-z
1/2-x,1/2+y,1/2-z
-x,-y,-z
1/2+x,y,-z
-x,1/2+y,1/2+z
1/2+x,1/2-y,1/2+z
loop_
_atom_site_type_symbol
_atom_site_label
_atom_site_fract_x
_atom_site_fract_y
_atom_site_fract_z
Si Si1 0.890665 0.442152 0.481409
Si Si2 0.787387 0.750000 0.250000
Si Si3 0.702829 0.817491 0.867813
Si Si4 0.173974 0.372319 0.038342
Si Si5 0.468523 0.954758 0.308340
Si Si6 0.250000 0.500000 0.791298
O O1 0.860566 0.375100 0.598683
O O2 0.921859 0.496515 0.649008
O O3 0.819339 0.473425 0.352998
O O4 0.958974 0.426504 0.320043
O O5 0.735584 0.707522 0.411949
O O6 0.832216 0.807544 0.382147
O O7 0.673057 0.750000 0.750000
O O8 0.772877 0.847837 0.730138
O O9 0.091016 0.398178 0.110646
O O10 0.217269 0.436820 0.928625
O O11 0.500000 0.000000 0.500000
#
# Coordination Sequence:
#
# PCOD9411782 Si02
#       6
#     8   4   8   8   8   4
#     4  11  23  39  64  96 128 165 213 271 321 378
#     4  10  22  40  68  90 130 164 216 264 314 378
#     4  10  22  40  68  91 124 168 220 263 312 382
#     4  11  22  39  66  96 128 169 212 265 321 384
#     4  11  24  40  64  93 135 163 205 268 331 381
#     4  12  20  38  72  96 120 162 228 268 314 378
#
# _framework density 18.440594999999998
#
# number of rings (size 3 to 8) (size 9 to 14) (size 15 to 20)
#    0.000    1.200    4.000    2.400    0.000    0.000 
#    0.000    0.000   28.600    0.000    0.000    0.000 
#    0.000    0.000    0.000    0.000    0.000    0.000 
#
# Total GULP energy -223549.845290 kJ/mol
# GULP energy per Si atom -5588.746132 kJ/mol
# Density = 1.839862 g / cm^3
# Si number density = 18.440595 Si / 1000 Ang^3
#
#
#
# Elastic Constant Matrix: (Units=GPa)
#
#
# Indices 1 2 3 4 5 6 
#
# 1 129.8077 65.3081 55.8952 0.0000 0.0000 0.0000
# 2 65.3081 100.3008 36.2204 0.0000 0.0000 0.0000
# 3 55.8952 36.2204 96.1711 0.0000 0.0000 0.0000
# 4 0.0000 0.0000 0.0000 33.4057 0.0000 0.0000
# 5 0.0000 0.0000 0.0000 0.0000 26.8493 0.0000
# 6 0.0000 0.0000 0.0000 0.0000 0.0000 23.3733
#
#
#
# Elastic Compliance Matrix: (Units=1/GPa)
#
#
# Indices 1 2 3 4 5 6 
#
# 1 0.013383 -0.006835 -0.005204 0.000000 0.000000 0.000000
# 2 -0.006835 0.015030 -0.001688 0.000000 0.000000 0.000000
# 3 -0.005204 -0.001688 0.014059 0.000000 0.000000 0.000000
# 4 0.000000 0.000000 0.000000 0.029935 0.000000 0.000000
# 5 0.000000 0.000000 0.000000 0.000000 0.037245 0.000000
# 6 0.000000 0.000000 0.000000 0.000000 0.000000 0.042784
#
#
# Mechanical properties :
#
#
# Convention : Reuss Voigt Hill
#
# Bulk Modulus (GPa) = 66.58968 71.23632 68.91300
# Shear Modulus (GPa) = 27.04215 27.98271 27.51243
#
# Velocity S-wave (km/s) = 3.83358 3.89967 3.86677
# Velocity P-wave (km/s) = 7.46886 7.68054 7.57544
#
# Compressibility (1/GPa) = 0.01501734
#
# Stress axis : x y z
#
# Youngs Moduli (GPa) = 74.71942 66.53374 71.13009
#
# Poissons Ratio (x) = 0.45475 0.37019
# Poissons Ratio (y) = 0.51070 0.12008
# Poissons Ratio (z) = 0.38887 0.11232
#
# Static dielectric constant tensor:
#      x y z
#    x 1.598410 0.000000 0.000000 
#    y 0.000000 1.627940 0.000000 
#    z 0.000000 0.000000 1.643110 
# 
# From -- ./inp_files/3228.got.cif
#   From: 2010.05.17/outbox.cif.g08.bks.cpg/sg52_2_cif.got.tgz:3228.got - 2010.06.03 12:15:38.
