data_PCOD9411527
_publ_section_title
;
Structure prediction by ZEFSAII (Michael W. Deem and Ramdas Pophale) SiO2 
 PCOD9411527
Probable space group: P N N A
;
_chemical_formula_sum "Si O2"
_cell_formula_units_Z 60
_cell_length_a 8.579700
_cell_length_b 10.735601
_cell_length_c 27.452661
_cell_angle_alpha 90.000000
_cell_angle_beta 90.000000
_cell_angle_gamma 90.000000
_cell_volume 2528.616175
_symmetry_space_group_name_H-M "P N N A"
_symmetry_group_IT_number 52
_symmetry_cell_setting 'orthorhombic'
loop_
_space_group_symop_operation_xyz
x,y,z
1/2-x,-y,z
x,1/2-y,1/2-z
1/2-x,1/2+y,1/2-z
-x,-y,-z
1/2+x,y,-z
-x,1/2+y,1/2+z
1/2+x,1/2-y,1/2+z
loop_
_atom_site_type_symbol
_atom_site_label
_atom_site_fract_x
_atom_site_fract_y
_atom_site_fract_z
Si Si1 0.992837 0.163113 0.543492
Si Si2 0.071830 0.997198 0.201735
Si Si3 0.413364 0.075591 0.094950
Si Si4 0.165854 0.773464 0.551742
Si Si5 0.662858 0.882295 0.631668
Si Si6 0.026356 0.239934 0.348466
Si Si7 0.250000 0.500000 0.555471
Si Si8 0.929436 0.516007 0.198328
O O1 0.933271 0.294128 0.567236
O O2 0.950164 0.167167 0.487330
O O3 0.896882 0.073803 0.578676
O O4 0.174816 0.149788 0.552780
O O5 0.021419 0.132677 0.181607
O O6 0.963516 0.955235 0.245474
O O7 0.250000 0.000000 0.220349
O O8 0.075825 0.914402 0.153197
O O9 0.579964 0.011510 0.081169
O O10 0.250000 0.000000 0.083849
O O11 0.223700 0.636439 0.531937
O O12 0.087411 0.761680 0.604627
O O13 0.796780 0.778714 0.632061
O O14 0.750000 0.000000 0.654300
O O15 0.509784 0.877718 0.665122
O O16 0.991480 0.122743 0.314259
O O17 0.750000 0.500000 0.187438
#
# Coordination Sequence:
#
# PCOD9411527 Si02
#       8
#     8   8   8   8   8   8   4   8
#     4  11  24  39  62  93 127 170 216 262 323 390
#     4  11  22  40  65  96 126 169 213 265 330 399
#     4  10  22  37  61  90 134 167 213 262 321 395
#     4  11  24  39  64  93 133 170 215 260 328 395
#     4  10  22  44  67  90 123 166 218 273 321 382
#     4  11  22  44  67  92 130 169 215 271 327 387
#     4  10  22  38  58  96 132 174 212 264 320 396
#     4  11  25  42  67  93 128 167 220 271 327 384
#
# _framework density 23.728391999999999
#
# number of rings (size 3 to 8) (size 9 to 14) (size 15 to 20)
#    0.000    1.333    1.333    4.800    3.733    1.067 
#    0.000   12.667    0.000    0.000    0.000    0.000 
#    0.000    0.000    0.000    0.000    0.000    0.000 
#
# Total GULP energy -334871.417286 kJ/mol
# GULP energy per Si atom -5581.190288 kJ/mol
# Density = 2.367439 g / cm^3
# Si number density = 23.728392 Si / 1000 Ang^3
#
#
#
# Elastic Constant Matrix: (Units=GPa)
#
#
# Indices 1 2 3 4 5 6 
#
# 1 152.9045 20.9753 21.0454 0.0000 0.0000 0.0000
# 2 20.9753 39.1541 9.9339 0.0000 0.0000 0.0000
# 3 21.0454 9.9339 74.1040 0.0000 0.0000 0.0000
# 4 0.0000 0.0000 0.0000 -43.4154 0.0000 0.0000
# 5 0.0000 0.0000 0.0000 0.0000 203.3956 0.0000
# 6 0.0000 0.0000 0.0000 0.0000 0.0000 32.2358
#
#
#
# Elastic Compliance Matrix: (Units=1/GPa)
#
#
# Indices 1 2 3 4 5 6 
#
# 1 0.007235 -0.003473 -0.001589 0.000000 0.000000 0.000000
# 2 -0.003473 0.028106 -0.002781 0.000000 0.000000 0.000000
# 3 -0.001589 -0.002781 0.014319 0.000000 0.000000 0.000000
# 4 0.000000 0.000000 0.000000 -0.023033 0.000000 0.000000
# 5 0.000000 0.000000 0.000000 0.000000 0.004917 0.000000
# 6 0.000000 0.000000 0.000000 0.000000 0.000000 0.031021
#
#
# Mechanical properties :
#
#
# Convention : Reuss Voigt Hill
#
# Bulk Modulus (GPa) = 29.43499 41.11908 35.27703
# Shear Modulus (GPa) = 55.81852 52.72374 54.27113
#
# Velocity S-wave (km/s) = 4.85541 4.71889 4.78764
# Velocity P-wave (km/s) = 6.62308 6.85983 6.74250
#
# Compressibility (1/GPa) = 0.03397318
#
# Stress axis : x y z
#
# Youngs Moduli (GPa) = 138.21406 35.57939 69.83845
#
# Poissons Ratio (x) = 0.12356 0.11099
# Poissons Ratio (y) = 0.47998 0.19425
# Poissons Ratio (z) = 0.21965 0.09896
#
# Static dielectric constant tensor:
#      x y z
#    x 2.295000 0.000000 0.000000 
#    y 0.000000 2.083440 0.000000 
#    z 0.000000 0.000000 1.893230 
# 
# From -- ./inp_files/42349.got.cif
#   From: 2010.05.17/outbox.cif.g08.bks.cpg/sg52_22_cif.got.tgz:42349.got - 2010.06.03 12:15:38.
