data_PCOD9411486
_publ_section_title
;
Structure prediction by ZEFSAII (Michael W. Deem and Ramdas Pophale) SiO2 
 PCOD9411486
Probable space group: P N N A
;
_chemical_formula_sum "Si O2"
_cell_formula_units_Z 60
_cell_length_a 24.699382
_cell_length_b 15.615917
_cell_length_c 7.591203
_cell_angle_alpha 90.000000
_cell_angle_beta 90.000000
_cell_angle_gamma 90.000000
_cell_volume 2927.953561
_symmetry_space_group_name_H-M "P N N A"
_symmetry_group_IT_number 52
_symmetry_cell_setting 'orthorhombic'
loop_
_space_group_symop_operation_xyz
x,y,z
1/2-x,-y,z
x,1/2-y,1/2-z
1/2-x,1/2+y,1/2-z
-x,-y,-z
1/2+x,y,-z
-x,1/2+y,1/2+z
1/2+x,1/2-y,1/2+z
loop_
_atom_site_type_symbol
_atom_site_label
_atom_site_fract_x
_atom_site_fract_y
_atom_site_fract_z
Si Si1 0.354957 0.233700 0.040388
Si Si2 0.917439 0.490754 0.905066
Si Si3 0.197241 0.445035 0.957998
Si Si4 0.700163 0.439880 0.455952
Si Si5 0.732121 0.254256 0.960701
Si Si6 0.936702 0.250000 0.250000
Si Si7 0.978984 0.070368 0.245280
Si Si8 0.104184 0.549990 0.451915
O O1 0.360258 0.250000 0.250000
O O2 0.295069 0.262123 0.987803
O O3 0.362566 0.133629 0.987286
O O4 0.399343 0.276579 0.915266
O O5 0.912060 0.423602 0.745985
O O6 0.959680 0.553196 0.804328
O O7 0.858158 0.525100 0.951598
O O8 0.945022 0.459226 0.083453
O O9 0.250000 0.500000 0.020238
O O10 0.192427 0.461074 0.749629
O O11 0.204650 0.343003 0.982736
O O12 0.750000 0.500000 0.520278
O O13 0.711191 0.338515 0.474608
O O14 0.645550 0.471087 0.550159
O O15 0.729424 0.250000 0.750000
O O16 0.972764 0.169746 0.203328
O O17 0.946523 0.030278 0.078660
#
# Coordination Sequence:
#
# PCOD9411486 Si02
#       8
#     8   8   8   8   8   4   8   8
#     4  10  22  35  61  97 128 160 215 263 315 370
#     4  11  23  42  68  89 129 164 218 265 321 392
#     4  11  26  40  67  96 128 174 217 261 335 393
#     4  11  22  41  62  94 134 171 215 266 324 391
#     4  11  24  38  58  93 133 172 210 260 321 387
#     4  10  22  38  64  88 126 164 208 266 320 364
#     4  10  23  43  63  94 122 168 216 268 327 378
#     4  11  21  39  67  93 125 171 214 266 327 382
#
# _framework density 20.492128000000001
#
# number of rings (size 3 to 8) (size 9 to 14) (size 15 to 20)
#    0.000    1.333    2.667    2.400    7.467    1.067 
#    3.600    0.000    0.000    0.000    0.000    0.000 
#    0.000    0.000    0.000    0.000    0.000    0.000 
#
# Total GULP energy -334621.675391 kJ/mol
# GULP energy per Si atom -5577.027923 kJ/mol
# Density = 2.044549 g / cm^3
# Si number density = 20.492128 Si / 1000 Ang^3
#
#
#
# Elastic Constant Matrix: (Units=GPa)
#
#
# Indices 1 2 3 4 5 6 
#
# 1 131.6745 36.3837 32.0690 0.0000 0.0000 0.0000
# 2 36.3837 68.3154 -0.0690 0.0000 0.0000 0.0000
# 3 32.0690 -0.0690 100.0533 0.0000 0.0000 0.0000
# 4 0.0000 0.0000 0.0000 21.4432 0.0000 0.0000
# 5 0.0000 0.0000 0.0000 0.0000 26.8830 0.0000
# 6 0.0000 0.0000 0.0000 0.0000 0.0000 -3.6951
#
#
#
# Elastic Compliance Matrix: (Units=1/GPa)
#
#
# Indices 1 2 3 4 5 6 
#
# 1 0.009804 -0.005225 -0.003146 0.000000 0.000000 0.000000
# 2 -0.005225 0.017422 0.001687 0.000000 0.000000 0.000000
# 3 -0.003146 0.001687 0.011004 0.000000 0.000000 0.000000
# 4 0.000000 0.000000 0.000000 0.046635 0.000000 0.000000
# 5 0.000000 0.000000 0.000000 0.000000 0.037198 0.000000
# 6 0.000000 0.000000 0.000000 0.000000 0.000000 -0.270628
#
#
# Mechanical properties :
#
#
# Convention : Reuss Voigt Hill
#
# Bulk Modulus (GPa) = 40.22129 48.53450 44.37790
# Shear Modulus (GPa) = -39.39860 24.37019 -7.51421
#
# Velocity S-wave (km/s) = -4.38953 3.45229 -1.91699
# Velocity P-wave (km/s) = 2.45363 6.29499 4.09918
#
# Compressibility (1/GPa) = 0.02486245
#
# Stress axis : x y z
#
# Youngs Moduli (GPa) = 101.99477 57.39746 90.87421
#
# Poissons Ratio (x) = 0.29989 0.28590
# Poissons Ratio (y) = 0.53291 -0.15328
# Poissons Ratio (z) = 0.32089 -0.09681
#
# Static dielectric constant tensor:
#      x y z
#    x 1.747160 0.000000 0.000000 
#    y 0.000000 1.747500 0.000000 
#    z 0.000000 0.000000 1.772380 
# 
# From -- ./inp_files/14445.got.cif
#   From: 2010.05.17/outbox.cif.g08.bks.cpg/sg52_8_cif.got.tgz:14445.got - 2010.06.03 12:15:38.
