data_PCOD9411963
_publ_section_title
;
Structure prediction by ZEFSAII (Michael W. Deem and Ramdas Pophale) SiO2 
 PCOD9411963
Probable space group: P N N A
;
_chemical_formula_sum "Si O2"
_cell_formula_units_Z 40
_cell_length_a 19.441638
_cell_length_b 9.984170
_cell_length_c 9.126539
_cell_angle_alpha 90.000000
_cell_angle_beta 90.000000
_cell_angle_gamma 90.000000
_cell_volume 1771.539880
_symmetry_space_group_name_H-M "P N N A"
_symmetry_group_IT_number 52
_symmetry_cell_setting 'orthorhombic'
loop_
_space_group_symop_operation_xyz
x,y,z
1/2-x,-y,z
x,1/2-y,1/2-z
1/2-x,1/2+y,1/2-z
-x,-y,-z
1/2+x,y,-z
-x,1/2+y,1/2+z
1/2+x,1/2-y,1/2+z
loop_
_atom_site_type_symbol
_atom_site_label
_atom_site_fract_x
_atom_site_fract_y
_atom_site_fract_z
Si Si1 0.627570 0.321844 0.538186
Si Si2 0.234730 0.842534 0.891975
Si Si3 0.379918 0.231520 0.411045
Si Si4 0.487282 0.592382 0.639066
Si Si5 0.582790 0.047638 0.666551
O O1 0.706707 0.297363 0.506786
O O2 0.590706 0.364495 0.386525
O O3 0.587515 0.188566 0.587879
O O4 0.619418 0.425288 0.674503
O O5 0.240325 0.750000 0.750000
O O6 0.250000 0.000000 0.864740
O O7 0.161467 0.811463 0.966950
O O8 0.346710 0.250000 0.250000
O O9 0.456692 0.291252 0.390394
O O10 0.383945 0.071439 0.427424
O O11 0.500000 0.500000 0.500000
O O12 0.508563 0.509123 0.782378
#
# Coordination Sequence:
#
# PCOD9411963 Si02
#       5
#     8   8   8   8   8
#     4  10  22  42  68 100 137 174 230 290 339 409
#     4  12  28  46  64 100 142 183 223 284 357 414
#     4  10  22  42  70  94 132 177 233 282 337 406
#     4   9  18  39  62  97 133 164 219 283 338 391
#     4   9  20  39  69 103 122 177 235 275 343 399
#
# _framework density 22.579225999999998
#
# number of rings (size 3 to 8) (size 9 to 14) (size 15 to 20)
#    0.000    2.000    0.000    3.600    5.600    3.200 
#   14.400    0.000    0.000    0.000    0.000    0.000 
#    0.000    0.000    0.000    0.000    0.000    0.000 
#
# Total GULP energy -223131.452397 kJ/mol
# GULP energy per Si atom -5578.286310 kJ/mol
# Density = 2.252783 g / cm^3
# Si number density = 22.579226 Si / 1000 Ang^3
#
#
#
# Elastic Constant Matrix: (Units=GPa)
#
#
# Indices 1 2 3 4 5 6 
#
# 1 69.9662 5.7915 10.6416 0.0000 0.0000 0.0000
# 2 5.7915 144.8425 32.3629 0.0000 0.0000 0.0000
# 3 10.6416 32.3629 54.6841 0.0000 0.0000 0.0000
# 4 0.0000 0.0000 0.0000 41.9149 0.0000 0.0000
# 5 0.0000 0.0000 0.0000 0.0000 30.0782 0.0000
# 6 0.0000 0.0000 0.0000 0.0000 0.0000 15.2386
#
#
#
# Elastic Compliance Matrix: (Units=1/GPa)
#
#
# Indices 1 2 3 4 5 6 
#
# 1 0.014729 0.000059 -0.002901 0.000000 0.000000 0.000000
# 2 0.000059 0.007956 -0.004720 0.000000 0.000000 0.000000
# 3 -0.002901 -0.004720 0.021645 0.000000 0.000000 0.000000
# 4 0.000000 0.000000 0.000000 0.023858 0.000000 0.000000
# 5 0.000000 0.000000 0.000000 0.000000 0.033247 0.000000
# 6 0.000000 0.000000 0.000000 0.000000 0.000000 0.065623
#
#
# Mechanical properties :
#
#
# Convention : Reuss Voigt Hill
#
# Bulk Modulus (GPa) = 34.23985 40.78718 37.51351
# Shear Modulus (GPa) = 26.05285 32.15945 29.10615
#
# Velocity S-wave (km/s) = 3.40051 3.77808 3.59425
# Velocity P-wave (km/s) = 5.53310 6.09385 5.82023
#
# Compressibility (1/GPa) = 0.02920573
#
# Stress axis : x y z
#
# Youngs Moduli (GPa) = 67.89330 125.68587 46.20015
#
# Poissons Ratio (x) = -0.00746 0.13404
# Poissons Ratio (y) = -0.00403 0.21808
# Poissons Ratio (z) = 0.19698 0.59327
#
# Static dielectric constant tensor:
#      x y z
#    x 1.824980 0.000000 0.000000 
#    y 0.000000 1.910670 0.000000 
#    z 0.000000 0.000000 1.874100 
# 
# From -- ./inp_files/11600.got.cif
#   From: 2010.05.17/outbox.cif.g08.bks.cpg/sg52_6_cif.got.tgz:11600.got - 2010.06.03 12:15:38.
