data_PCOD9411813
_publ_section_title
;
Structure prediction by ZEFSAII (Michael W. Deem and Ramdas Pophale) SiO2 
 PCOD9411813
Probable space group: P N N A
;
_chemical_formula_sum "Si O2"
_cell_formula_units_Z 56
_cell_length_a 14.487244
_cell_length_b 14.420067
_cell_length_c 12.204519
_cell_angle_alpha 90.000000
_cell_angle_beta 90.000000
_cell_angle_gamma 90.000000
_cell_volume 2549.609806
_symmetry_space_group_name_H-M "P N N A"
_symmetry_group_IT_number 52
_symmetry_cell_setting 'orthorhombic'
loop_
_space_group_symop_operation_xyz
x,y,z
1/2-x,-y,z
x,1/2-y,1/2-z
1/2-x,1/2+y,1/2-z
-x,-y,-z
1/2+x,y,-z
-x,1/2+y,1/2+z
1/2+x,1/2-y,1/2+z
loop_
_atom_site_type_symbol
_atom_site_label
_atom_site_fract_x
_atom_site_fract_y
_atom_site_fract_z
Si Si1 0.527929 0.389339 0.186321
Si Si2 0.595784 0.306284 0.404075
Si Si3 0.511854 0.589932 0.422920
Si Si4 0.637956 0.569818 0.119067
Si Si5 0.845956 0.014580 0.620498
Si Si6 0.541938 0.350182 0.806208
Si Si7 0.298764 0.341436 0.677010
O O1 0.550662 0.373081 0.312872
O O2 0.564550 0.296430 0.128440
O O3 0.584882 0.474126 0.138018
O O4 0.421460 0.415046 0.168696
O O5 0.551030 0.332863 0.518436
O O6 0.705115 0.323466 0.389874
O O7 0.500000 0.500000 0.500000
O O8 0.472992 0.582905 0.299973
O O9 0.617177 0.624145 0.400057
O O10 0.555697 0.646290 0.129804
O O11 0.706100 0.587821 0.220217
O O12 0.676099 0.561522 0.997437
O O13 0.750000 0.000000 0.682599
O O14 0.888868 0.910144 0.619022
O O15 0.561545 0.250000 0.750000
O O16 0.316037 0.250000 0.750000
#
# Coordination Sequence:
#
# PCOD9411813 Si02
#       7
#     8   8   8   8   8   8   8
#     4  10  22  43  64  97 147 175 234 302 367 421
#     4  11  24  44  69 103 142 190 240 308 368 431
#     4  11  24  42  70 100 141 189 235 296 380 441
#     4  10  22  40  73  95 133 175 236 305 353 425
#     4  11  25  42  68 103 140 188 240 290 372 434
#     4  10  22  45  69  94 138 181 234 296 362 427
#     4  11  24  46  71 109 138 188 253 308 361 446
#
# _framework density 21.964144999999998
#
# number of rings (size 3 to 8) (size 9 to 14) (size 15 to 20)
#    0.000    1.429    1.429    6.000    8.000    1.714 
#    7.714    0.000    0.000    0.000    0.000    0.000 
#    0.000    0.000    0.000    0.000    0.000    0.000 
#
# Total GULP energy -312362.587001 kJ/mol
# GULP energy per Si atom -5577.903339 kJ/mol
# Density = 2.191415 g / cm^3
# Si number density = 21.964145 Si / 1000 Ang^3
#
#
#
# Elastic Constant Matrix: (Units=GPa)
#
#
# Indices 1 2 3 4 5 6 
#
# 1 152.6731 47.4081 41.7116 0.0000 0.0000 0.0000
# 2 47.4081 96.8346 19.5464 0.0000 0.0000 0.0000
# 3 41.7116 19.5464 88.0325 0.0000 0.0000 0.0000
# 4 0.0000 0.0000 0.0000 340.8297 0.0000 0.0000
# 5 0.0000 0.0000 0.0000 0.0000 65.7753 0.0000
# 6 0.0000 0.0000 0.0000 0.0000 0.0000 33.0870
#
#
#
# Elastic Compliance Matrix: (Units=1/GPa)
#
#
# Indices 1 2 3 4 5 6 
#
# 1 0.008534 -0.003520 -0.003262 0.000000 0.000000 0.000000
# 2 -0.003520 0.012263 -0.001055 0.000000 0.000000 0.000000
# 3 -0.003262 -0.001055 0.013139 0.000000 0.000000 0.000000
# 4 0.000000 0.000000 0.000000 0.002934 0.000000 0.000000
# 5 0.000000 0.000000 0.000000 0.000000 0.015203 0.000000
# 6 0.000000 0.000000 0.000000 0.000000 0.000000 0.030223
#
#
# Mechanical properties :
#
#
# Convention : Reuss Voigt Hill
#
# Bulk Modulus (GPa) = 54.75661 61.65249 58.20455
# Shear Modulus (GPa) = 48.04989 103.19670 75.62329
#
# Velocity S-wave (km/s) = 4.68231 6.86194 5.87410
# Velocity P-wave (km/s) = 7.36316 9.53478 8.51846
#
# Compressibility (1/GPa) = 0.01826263
#
# Stress axis : x y z
#
# Youngs Moduli (GPa) = 117.17685 81.54607 76.10702
#
# Poissons Ratio (x) = 0.28701 0.24827
# Poissons Ratio (y) = 0.41242 0.08030
# Poissons Ratio (z) = 0.38225 0.08604
#
# Static dielectric constant tensor:
#      x y z
#    x 1.839420 0.000000 0.000000 
#    y 0.000000 2.074890 0.000000 
#    z 0.000000 0.000000 1.881430 
# 
# From -- ./inp_files/19663.got.cif
#   From: 2010.05.17/outbox.cif.g08.bks.cpg/sg52_10_cif.got.tgz:19663.got - 2010.06.03 12:15:38.
