data_PCOD9411434
_publ_section_title
;
Structure prediction by ZEFSAII (Michael W. Deem and Ramdas Pophale) SiO2 
 PCOD9411434
Probable space group: P N N A
;
_chemical_formula_sum "Si O2"
_cell_formula_units_Z 32
_cell_length_a 5.341319
_cell_length_b 7.709213
_cell_length_c 33.193652
_cell_angle_alpha 90.000000
_cell_angle_beta 90.000000
_cell_angle_gamma 90.000000
_cell_volume 1366.827153
_symmetry_space_group_name_H-M "P N N A"
_symmetry_group_IT_number 52
_symmetry_cell_setting 'orthorhombic'
loop_
_space_group_symop_operation_xyz
x,y,z
1/2-x,-y,z
x,1/2-y,1/2-z
1/2-x,1/2+y,1/2-z
-x,-y,-z
1/2+x,y,-z
-x,1/2+y,1/2+z
1/2+x,1/2-y,1/2+z
loop_
_atom_site_type_symbol
_atom_site_label
_atom_site_fract_x
_atom_site_fract_y
_atom_site_fract_z
Si Si1 0.416060 0.278002 0.331813
Si Si2 0.852793 0.698533 0.588731
Si Si3 0.750000 0.500000 0.207143
Si Si4 0.750000 0.500000 0.739491
Si Si5 0.250000 0.500000 0.618203
Si Si6 0.250000 0.500000 0.026648
O O1 0.237910 0.220501 0.368288
O O2 0.646475 0.153465 0.320975
O O3 0.291124 0.336824 0.290444
O O4 0.532698 0.448791 0.351580
O O5 0.750000 0.500000 0.581149
O O6 0.768605 0.829683 0.554738
O O7 0.150265 0.660534 0.592321
O O8 0.504861 0.527946 0.235120
O O9 0.500000 0.500000 0.000000
#
# Coordination Sequence:
#
# PCOD9411434 Si02
#       6
#     8   8   4   4   4   4
#     4  11  25  45  71 103 144 205 265 311 376 467
#     4  10  25  49  81 109 153 208 256 311 379 467
#     4  12  31  41  72 106 154 198 258 334 400 431
#     4  12  26  47  64 107 154 202 254 332 397 447
#     4  10  21  44  78 105 143 198 270 307 367 454
#     4  12  32  52  80 126 163 190 246 317 396 482
#
# _framework density 23.411885000000002
#
# number of rings (size 3 to 8) (size 9 to 14) (size 15 to 20)
#    0.000    1.000    3.750    1.500   14.000    5.000 
#    0.000    0.000    0.000    0.000    0.000    0.000 
#    0.000    0.000    0.000    0.000    0.000    0.000 
#
# Total GULP energy -178702.400716 kJ/mol
# GULP energy per Si atom -5584.450022 kJ/mol
# Density = 2.335860 g / cm^3
# Si number density = 23.411885 Si / 1000 Ang^3
#
#
#
# Elastic Constant Matrix: (Units=GPa)
#
#
# Indices 1 2 3 4 5 6 
#
# 1 166.6758 55.8175 85.6863 0.0000 0.0000 0.0000
# 2 55.8175 128.8574 80.3239 0.0000 0.0000 0.0000
# 3 85.6863 80.3239 154.0550 0.0000 0.0000 0.0000
# 4 0.0000 0.0000 0.0000 42.9213 0.0000 0.0000
# 5 0.0000 0.0000 0.0000 0.0000 31.3567 0.0000
# 6 0.0000 0.0000 0.0000 0.0000 0.0000 43.3514
#
#
#
# Elastic Compliance Matrix: (Units=1/GPa)
#
#
# Indices 1 2 3 4 5 6 
#
# 1 0.008504 -0.001089 -0.004162 0.000000 0.000000 0.000000
# 2 -0.001089 0.011637 -0.005462 0.000000 0.000000 0.000000
# 3 -0.004162 -0.005462 0.011654 0.000000 0.000000 0.000000
# 4 0.000000 0.000000 0.000000 0.023298 0.000000 0.000000
# 5 0.000000 0.000000 0.000000 0.000000 0.031891 0.000000
# 6 0.000000 0.000000 0.000000 0.000000 0.000000 0.023067
#
#
# Mechanical properties :
#
#
# Convention : Reuss Voigt Hill
#
# Bulk Modulus (GPa) = 96.44210 99.24929 97.84569
# Shear Modulus (GPa) = 37.05518 38.70992 37.88255
#
# Velocity S-wave (km/s) = 3.98270 4.07065 4.02691
# Velocity P-wave (km/s) = 7.90141 8.03606 7.96902
#
# Compressibility (1/GPa) = 0.01036892
#
# Stress axis : x y z
#
# Youngs Moduli (GPa) = 117.58955 85.93382 85.80881
#
# Poissons Ratio (x) = 0.09361 0.35715
# Poissons Ratio (y) = 0.12809 0.46865
# Poissons Ratio (z) = 0.48942 0.46933
#
# Static dielectric constant tensor:
#      x y z
#    x 2.114380 0.000000 0.000000 
#    y 0.000000 1.991830 0.000000 
#    z 0.000000 0.000000 1.867390 
# 
# From -- ./inp_files/43519.got.cif
#   From: 2010.05.17/outbox.cif.g08.bks.cpg/sg52_22_cif.got.tgz:43519.got - 2010.06.03 12:15:38.
