data_PCOD9411255
_publ_section_title
;
Structure prediction by ZEFSAII (Michael W. Deem and Ramdas Pophale) SiO2 
 PCOD9411255
Probable space group: P N N A
;
_chemical_formula_sum "Si O2"
_cell_formula_units_Z 48
_cell_length_a 14.232415
_cell_length_b 14.495464
_cell_length_c 10.789759
_cell_angle_alpha 90.000000
_cell_angle_beta 90.000000
_cell_angle_gamma 90.000000
_cell_volume 2225.986186
_symmetry_space_group_name_H-M "P N N A"
_symmetry_group_IT_number 52
_symmetry_cell_setting 'orthorhombic'
loop_
_space_group_symop_operation_xyz
x,y,z
1/2-x,-y,z
x,1/2-y,1/2-z
1/2-x,1/2+y,1/2-z
-x,-y,-z
1/2+x,y,-z
-x,1/2+y,1/2+z
1/2+x,1/2-y,1/2+z
loop_
_atom_site_type_symbol
_atom_site_label
_atom_site_fract_x
_atom_site_fract_y
_atom_site_fract_z
Si Si1 0.075494 0.250000 0.750000
Si Si2 0.769716 0.678233 0.639211
Si Si3 0.542997 0.237259 0.536210
Si Si4 0.903210 0.379546 0.474825
Si Si5 0.067702 0.054424 0.837593
Si Si6 0.445212 0.530676 0.119475
Si Si7 0.250000 0.000000 0.296108
O O1 0.028500 0.225808 0.614342
O O2 0.116951 0.147819 0.785105
O O3 0.750293 0.750000 0.750000
O O4 0.861049 0.707329 0.562815
O O5 0.682011 0.663727 0.549807
O O6 0.783164 0.581751 0.707907
O O7 0.456830 0.295575 0.592692
O O8 0.559796 0.140745 0.604712
O O9 0.874359 0.471748 0.401025
O O10 0.986999 0.412075 0.566948
O O11 0.006893 0.003494 0.733290
O O12 0.342947 0.482650 0.124609
O O13 0.500000 0.500000 0.000000
#
# Coordination Sequence:
#
# PCOD9411255 Si02
#       7
#     4   8   8   8   8   8   4
#     4  10  22  42  66  90 138 184 224 274 356 420
#     4  12  26  44  72 105 136 181 239 296 348 422
#     4  11  25  43  69 101 140 182 232 286 354 422
#     4  10  24  41  69  99 138 180 231 288 353 414
#     4  10  21  41  67 100 132 182 230 280 350 419
#     4  12  24  43  70 103 141 184 225 296 353 416
#     4  12  26  42  70 106 138 174 240 292 340 418
#
# _framework density 21.563475
#
# number of rings (size 3 to 8) (size 9 to 14) (size 15 to 20)
#    0.000    1.000    5.000    1.000   11.667    0.000 
#    0.000    3.333    0.000    0.000    0.000    0.000 
#    0.000    0.000    0.000    0.000    0.000    0.000 
#
# Total GULP energy -267627.106354 kJ/mol
# GULP energy per Si atom -5575.564716 kJ/mol
# Density = 2.151440 g / cm^3
# Si number density = 21.563475 Si / 1000 Ang^3
#
#
#
# Elastic Constant Matrix: (Units=GPa)
#
#
# Indices 1 2 3 4 5 6 
#
# 1 98.1427 19.3454 28.0158 0.0000 0.0000 0.0000
# 2 19.3454 122.7076 40.6153 0.0000 0.0000 0.0000
# 3 28.0158 40.6153 66.5417 0.0000 0.0000 0.0000
# 4 0.0000 0.0000 0.0000 43.4693 0.0000 0.0000
# 5 0.0000 0.0000 0.0000 0.0000 -366.6023 0.0000
# 6 0.0000 0.0000 0.0000 0.0000 0.0000 26.0207
#
#
#
# Elastic Compliance Matrix: (Units=1/GPa)
#
#
# Indices 1 2 3 4 5 6 
#
# 1 0.011588 -0.000266 -0.004717 0.000000 0.000000 0.000000
# 2 -0.000266 0.010219 -0.006125 0.000000 0.000000 0.000000
# 3 -0.004717 -0.006125 0.020753 0.000000 0.000000 0.000000
# 4 0.000000 0.000000 0.000000 0.023005 0.000000 0.000000
# 5 0.000000 0.000000 0.000000 0.000000 -0.002728 0.000000
# 6 0.000000 0.000000 0.000000 0.000000 0.000000 0.038431
#
#
# Mechanical properties :
#
#
# Convention : Reuss Voigt Hill
#
# Bulk Modulus (GPa) = 49.15445 51.48275 50.31860
# Shear Modulus (GPa) = 38.38343 -46.12810 -3.87233
#
# Velocity S-wave (km/s) = 4.22361 -4.63014 -1.34152
# Velocity P-wave (km/s) = 6.82861 2.15812 4.58107
#
# Compressibility (1/GPa) = 0.02034404
#
# Stress axis : x y z
#
# Youngs Moduli (GPa) = 86.29583 97.85873 48.18625
#
# Poissons Ratio (x) = 0.02600 0.22728
# Poissons Ratio (y) = 0.02293 0.29516
# Poissons Ratio (z) = 0.40703 0.59943
#
# Static dielectric constant tensor:
#      x y z
#    x 1.555110 0.000000 0.000000 
#    y 0.000000 1.859310 0.000000 
#    z 0.000000 0.000000 1.830860 
# 
# From -- ./inp_files/19587.got.cif
#   From: 2010.05.17/outbox.cif.g08.bks.cpg/sg52_10_cif.got.tgz:19587.got - 2010.06.03 12:15:38.
