data_PCOD9411989
_publ_section_title
;
Structure prediction by ZEFSAII (Michael W. Deem and Ramdas Pophale) SiO2 
 PCOD9411989
Probable space group: P N N A
;
_chemical_formula_sum "Si O2"
_cell_formula_units_Z 40
_cell_length_a 16.617260
_cell_length_b 12.947648
_cell_length_c 9.262894
_cell_angle_alpha 90.000000
_cell_angle_beta 90.000000
_cell_angle_gamma 90.000000
_cell_volume 1992.952708
_symmetry_space_group_name_H-M "P N N A"
_symmetry_group_IT_number 52
_symmetry_cell_setting 'orthorhombic'
loop_
_space_group_symop_operation_xyz
x,y,z
1/2-x,-y,z
x,1/2-y,1/2-z
1/2-x,1/2+y,1/2-z
-x,-y,-z
1/2+x,y,-z
-x,1/2+y,1/2+z
1/2+x,1/2-y,1/2+z
loop_
_atom_site_type_symbol
_atom_site_label
_atom_site_fract_x
_atom_site_fract_y
_atom_site_fract_z
Si Si1 0.450620 0.250000 0.250000
Si Si2 0.316683 0.077375 0.761224
Si Si3 0.708190 0.158393 0.971489
Si Si4 0.250000 0.500000 0.222403
Si Si5 0.552045 0.429913 0.390290
Si Si6 0.677785 0.665403 0.962931
O O1 0.501399 0.351708 0.291012
O O2 0.392205 0.271503 0.114960
O O3 0.336215 0.154593 0.632746
O O4 0.250000 0.000000 0.696080
O O5 0.394182 0.011798 0.802957
O O6 0.271521 0.120193 0.904001
O O7 0.738109 0.273649 0.941987
O O8 0.717658 0.086893 0.831872
O O9 0.618590 0.141459 0.029275
O O10 0.314334 0.443039 0.120728
O O11 0.500000 0.500000 0.500000
#
# Coordination Sequence:
#
# PCOD9411989 Si02
#       6
#     4   8   8   4   8   8
#     4  12  26  40  66 100 144 168 216 290 350 392
#     4  10  22  42  70  92 127 174 230 271 323 404
#     4  11  22  43  70  95 126 184 230 268 326 410
#     4  12  20  40  68  94 132 168 230 276 322 380
#     4  11  24  43  66  95 141 177 213 282 353 392
#     4  12  24  41  67 102 128 176 228 277 322 409
#
# _framework density 20.070720999999999
#
# number of rings (size 3 to 8) (size 9 to 14) (size 15 to 20)
#    0.000    0.800    6.000    3.000    5.600    0.800 
#    0.000    4.000    0.000    0.000    0.000    0.000 
#    0.000    0.000    0.000    0.000    0.000    0.000 
#
# Total GULP energy -223327.751465 kJ/mol
# GULP energy per Si atom -5583.193787 kJ/mol
# Density = 2.002504 g / cm^3
# Si number density = 20.070721 Si / 1000 Ang^3
#
#
#
# Elastic Constant Matrix: (Units=GPa)
#
#
# Indices 1 2 3 4 5 6 
#
# 1 110.5937 44.1599 43.8251 0.0000 0.0000 0.0000
# 2 44.1599 72.3622 43.8479 0.0000 0.0000 0.0000
# 3 43.8251 43.8479 113.1063 0.0000 0.0000 0.0000
# 4 0.0000 0.0000 0.0000 43.1939 0.0000 0.0000
# 5 0.0000 0.0000 0.0000 0.0000 4.5252 0.0000
# 6 0.0000 0.0000 0.0000 0.0000 0.0000 33.9191
#
#
#
# Elastic Compliance Matrix: (Units=1/GPa)
#
#
# Indices 1 2 3 4 5 6 
#
# 1 0.012457 -0.006113 -0.002457 0.000000 0.000000 0.000000
# 2 -0.006113 0.021062 -0.005797 0.000000 0.000000 0.000000
# 3 -0.002457 -0.005797 0.012040 0.000000 0.000000 0.000000
# 4 0.000000 0.000000 0.000000 0.023151 0.000000 0.000000
# 5 0.000000 0.000000 0.000000 0.000000 0.220985 0.000000
# 6 0.000000 0.000000 0.000000 0.000000 0.000000 0.029482
#
#
# Mechanical properties :
#
#
# Convention : Reuss Voigt Hill
#
# Bulk Modulus (GPa) = 59.43019 62.19202 60.81110
# Shear Modulus (GPa) = 14.14350 27.27626 20.70988
#
# Velocity S-wave (km/s) = 2.65747 3.69047 3.21572
# Velocity P-wave (km/s) = 6.25227 7.01521 6.64470
#
# Compressibility (1/GPa) = 0.01682646
#
# Stress axis : x y z
#
# Youngs Moduli (GPa) = 80.27882 47.47777 83.05451
#
# Poissons Ratio (x) = 0.29024 0.20403
# Poissons Ratio (y) = 0.49076 0.48144
# Poissons Ratio (z) = 0.19722 0.27521
#
# Static dielectric constant tensor:
#      x y z
#    x 1.694450 0.000000 0.000000 
#    y 0.000000 0.388810 0.000000 
#    z 0.000000 0.000000 1.726610 
# 
# From -- ./inp_files/11653.got.cif
#   From: 2010.05.17/outbox.cif.g08.bks.cpg/sg52_6_cif.got.tgz:11653.got - 2010.06.03 12:15:38.
