data_PCOD9411548
_publ_section_title
;
Structure prediction by ZEFSAII (Michael W. Deem and Ramdas Pophale) SiO2 
 PCOD9411548
Probable space group: P N N A
;
_chemical_formula_sum "Si O2"
_cell_formula_units_Z 40
_cell_length_a 5.041315
_cell_length_b 18.367344
_cell_length_c 18.951444
_cell_angle_alpha 90.000000
_cell_angle_beta 90.000000
_cell_angle_gamma 90.000000
_cell_volume 1754.819699
_symmetry_space_group_name_H-M "P N N A"
_symmetry_group_IT_number 52
_symmetry_cell_setting 'orthorhombic'
loop_
_space_group_symop_operation_xyz
x,y,z
1/2-x,-y,z
x,1/2-y,1/2-z
1/2-x,1/2+y,1/2-z
-x,-y,-z
1/2+x,y,-z
-x,1/2+y,1/2+z
1/2+x,1/2-y,1/2+z
loop_
_atom_site_type_symbol
_atom_site_label
_atom_site_fract_x
_atom_site_fract_y
_atom_site_fract_z
Si Si1 0.701246 0.917561 0.869631
Si Si2 0.649476 0.298043 0.150121
Si Si3 0.267336 0.270647 0.450665
Si Si4 0.198646 0.856137 0.802583
Si Si5 0.668246 0.577363 0.047253
O O1 0.733153 0.855673 0.929090
O O2 0.406825 0.908806 0.839931
O O3 0.911775 0.892637 0.809037
O O4 0.750000 0.000000 0.892246
O O5 0.361219 0.274895 0.118746
O O6 0.799725 0.220467 0.154881
O O7 0.681681 0.333359 0.227182
O O8 0.768441 0.357516 0.098559
O O9 0.502559 0.255173 0.506404
O O10 0.750000 0.500000 0.081228
O O11 0.368214 0.580224 0.019775
#
# Coordination Sequence:
#
# PCOD9411548 Si02
#       5
#     8   8   8   8   8
#     4  11  24  43  63  92 131 165 211 267 316 380
#     4  10  22  41  64  90 126 160 209 264 308 375
#     4  11  23  39  64  95 124 167 214 256 319 378
#     4  10  24  40  64  93 120 167 213 256 322 377
#     4  10  22  38  58  87 121 158 199 249 310 369
#
# _framework density 22.794364000000002
#
# number of rings (size 3 to 8) (size 9 to 14) (size 15 to 20)
#    0.000    1.600    0.000    4.200    0.000   15.200 
#    0.000    2.000    0.000    0.000    0.000    0.000 
#    0.000    0.000    0.000    0.000    0.000    0.000 
#
# Total GULP energy -223700.605591 kJ/mol
# GULP energy per Si atom -5592.515140 kJ/mol
# Density = 2.274248 g / cm^3
# Si number density = 22.794364 Si / 1000 Ang^3
#
#
#
# Elastic Constant Matrix: (Units=GPa)
#
#
# Indices 1 2 3 4 5 6 
#
# 1 98.2597 18.2516 21.5775 0.0000 0.0000 0.0000
# 2 18.2516 145.0403 36.8077 0.0000 0.0000 0.0000
# 3 21.5775 36.8077 78.1254 0.0000 0.0000 0.0000
# 4 0.0000 0.0000 0.0000 26.5897 0.0000 0.0000
# 5 0.0000 0.0000 0.0000 0.0000 22.4427 0.0000
# 6 0.0000 0.0000 0.0000 0.0000 0.0000 32.1641
#
#
#
# Elastic Compliance Matrix: (Units=1/GPa)
#
#
# Indices 1 2 3 4 5 6 
#
# 1 0.010895 -0.000690 -0.002684 0.000000 0.000000 0.000000
# 2 -0.000690 0.007875 -0.003519 0.000000 0.000000 0.000000
# 3 -0.002684 -0.003519 0.015199 0.000000 0.000000 0.000000
# 4 0.000000 0.000000 0.000000 0.037608 0.000000 0.000000
# 5 0.000000 0.000000 0.000000 0.000000 0.044558 0.000000
# 6 0.000000 0.000000 0.000000 0.000000 0.000000 0.031091
#
#
# Mechanical properties :
#
#
# Convention : Reuss Voigt Hill
#
# Bulk Modulus (GPa) = 49.54909 52.74435 51.14672
# Shear Modulus (GPa) = 29.80814 32.55857 31.18335
#
# Velocity S-wave (km/s) = 3.62013 3.78347 3.70270
# Velocity P-wave (km/s) = 6.26566 6.50197 6.38491
#
# Compressibility (1/GPa) = 0.02018200
#
# Stress axis : x y z
#
# Youngs Moduli (GPa) = 91.78827 126.99052 65.79216
#
# Poissons Ratio (x) = 0.08760 0.17659
# Poissons Ratio (y) = 0.06332 0.23155
# Poissons Ratio (z) = 0.24636 0.44694
#
# Static dielectric constant tensor:
#      x y z
#    x 1.863810 0.000000 0.000000 
#    y 0.000000 1.849210 0.000000 
#    z 0.000000 0.000000 1.870690 
# 
# From -- ./inp_files/30135.got.cif
#   From: 2010.05.17/outbox.cif.g08.bks.cpg/sg52_16_cif.got.tgz:30135.got - 2010.06.03 12:15:38.
