data_PCOD9411811
_publ_section_title
;
Structure prediction by ZEFSAII (Michael W. Deem and Ramdas Pophale) SiO2 
 PCOD9411811
Probable space group: P N N A
;
_chemical_formula_sum "Si O2"
_cell_formula_units_Z 36
_cell_length_a 8.668026
_cell_length_b 7.937450
_cell_length_c 22.732153
_cell_angle_alpha 90.000000
_cell_angle_beta 90.000000
_cell_angle_gamma 90.000000
_cell_volume 1564.018113
_symmetry_space_group_name_H-M "P N N A"
_symmetry_group_IT_number 52
_symmetry_cell_setting 'orthorhombic'
loop_
_space_group_symop_operation_xyz
x,y,z
1/2-x,-y,z
x,1/2-y,1/2-z
1/2-x,1/2+y,1/2-z
-x,-y,-z
1/2+x,y,-z
-x,1/2+y,1/2+z
1/2+x,1/2-y,1/2+z
loop_
_atom_site_type_symbol
_atom_site_label
_atom_site_fract_x
_atom_site_fract_y
_atom_site_fract_z
Si Si1 0.777736 0.302704 0.817036
Si Si2 0.656225 0.325293 0.568005
Si Si3 0.795005 0.301249 0.451405
Si Si4 0.872672 0.704578 0.163712
Si Si5 0.750000 0.500000 0.257126
O O1 0.750000 0.500000 0.820867
O O2 0.756345 0.250000 0.750000
O O3 0.663254 0.227455 0.864564
O O4 0.948571 0.245081 0.838691
O O5 0.750000 0.500000 0.566512
O O6 0.743237 0.230191 0.514803
O O7 0.478266 0.312597 0.551491
O O8 0.750000 0.500000 0.444388
O O9 0.707788 0.199741 0.399502
O O10 0.879880 0.541426 0.207501
O O11 0.770128 0.842542 0.199278
#
# Coordination Sequence:
#
# PCOD9411811 Si02
#       5
#     8   8   8   8   4
#     4  12  27  47  68 100 144 179 229 286 345 412
#     4  11  24  43  70 101 135 183 230 284 342 408
#     4  11  22  42  72  98 137 179 232 282 339 417
#     4  11  23  43  69 103 136 183 230 284 343 413
#     4  10  22  40  72  96 144 174 228 282 346 402
#
# _framework density 23.017634000000001
#
# number of rings (size 3 to 8) (size 9 to 14) (size 15 to 20)
#    0.000    0.889    3.333    6.000    3.111    1.778 
#    2.000    2.222    0.000    0.000    0.000    0.000 
#    0.000    0.000    0.000    0.000    0.000    0.000 
#
# Total GULP energy -200634.167630 kJ/mol
# GULP energy per Si atom -5573.171323 kJ/mol
# Density = 2.296525 g / cm^3
# Si number density = 23.017634 Si / 1000 Ang^3
#
#
#
# Elastic Constant Matrix: (Units=GPa)
#
#
# Indices 1 2 3 4 5 6 
#
# 1 147.7544 12.7318 58.2092 0.0000 0.0000 0.0000
# 2 12.7318 47.6117 19.5480 0.0000 0.0000 0.0000
# 3 58.2092 19.5480 150.8473 0.0000 0.0000 0.0000
# 4 0.0000 0.0000 0.0000 21.3611 0.0000 0.0000
# 5 0.0000 0.0000 0.0000 0.0000 -195.6288 0.0000
# 6 0.0000 0.0000 0.0000 0.0000 0.0000 25.0326
#
#
#
# Elastic Compliance Matrix: (Units=1/GPa)
#
#
# Indices 1 2 3 4 5 6 
#
# 1 0.008020 -0.000923 -0.002975 0.000000 0.000000 0.000000
# 2 -0.000923 0.022290 -0.002532 0.000000 0.000000 0.000000
# 3 -0.002975 -0.002532 0.008105 0.000000 0.000000 0.000000
# 4 0.000000 0.000000 0.000000 0.046814 0.000000 0.000000
# 5 0.000000 0.000000 0.000000 0.000000 -0.005112 0.000000
# 6 0.000000 0.000000 0.000000 0.000000 0.000000 0.039948
#
#
# Mechanical properties :
#
#
# Convention : Reuss Voigt Hill
#
# Bulk Modulus (GPa) = 39.13279 58.57682 48.85481
# Shear Modulus (GPa) = 35.34977 -12.79873 11.27552
#
# Velocity S-wave (km/s) = 3.92314 -2.36061 2.21569
# Velocity P-wave (km/s) = 6.12858 4.25135 5.27416
#
# Compressibility (1/GPa) = 0.02555402
#
# Stress axis : x y z
#
# Youngs Moduli (GPa) = 124.69532 44.86360 123.37505
#
# Poissons Ratio (x) = 0.04141 0.36704
# Poissons Ratio (y) = 0.11510 0.31242
# Poissons Ratio (z) = 0.37097 0.11361
#
# Static dielectric constant tensor:
#      x y z
#    x 1.895120 0.000000 0.000000 
#    y 0.000000 2.069160 0.000000 
#    z 0.000000 0.000000 1.418410 
# 
# From -- ./inp_files/35582.got.cif
#   From: 2010.05.17/outbox.cif.g08.bks.cpg/sg52_18_cif.got.tgz:35582.got - 2010.06.03 12:15:38.
