data_PCOD9411773
_publ_section_title
;
Structure prediction by ZEFSAII (Michael W. Deem and Ramdas Pophale) SiO2 
 PCOD9411773
Probable space group: P N N A
;
_chemical_formula_sum "Si O2"
_cell_formula_units_Z 36
_cell_length_a 8.751830
_cell_length_b 9.671988
_cell_length_c 20.236222
_cell_angle_alpha 90.000000
_cell_angle_beta 90.000000
_cell_angle_gamma 90.000000
_cell_volume 1712.947519
_symmetry_space_group_name_H-M "P N N A"
_symmetry_group_IT_number 52
_symmetry_cell_setting 'orthorhombic'
loop_
_space_group_symop_operation_xyz
x,y,z
1/2-x,-y,z
x,1/2-y,1/2-z
1/2-x,1/2+y,1/2-z
-x,-y,-z
1/2+x,y,-z
-x,1/2+y,1/2+z
1/2+x,1/2-y,1/2+z
loop_
_atom_site_type_symbol
_atom_site_label
_atom_site_fract_x
_atom_site_fract_y
_atom_site_fract_z
Si Si1 0.651250 0.784548 0.125138
Si Si2 0.553057 0.250000 0.750000
Si Si3 0.250000 0.000000 0.469081
Si Si4 0.022960 0.809070 0.487356
Si Si5 0.531665 0.096339 0.113472
Si Si6 0.750000 0.000000 0.802183
O O1 0.556391 0.728955 0.186913
O O2 0.832307 0.801995 0.139118
O O3 0.594729 0.941421 0.113326
O O4 0.601368 0.703238 0.059152
O O5 0.655997 0.114553 0.761764
O O6 0.373772 0.903681 0.506322
O O7 0.139536 0.886529 0.437249
O O8 0.993875 0.658452 0.459094
O O9 0.373967 0.083486 0.153452
#
# Coordination Sequence:
#
# PCOD9411773 Si02
#       6
#     8   4   4   8   8   4
#     4  10  22  41  65  90 125 167 206 265 318 382
#     4  10  24  44  64  94 128 166 220 260 316 390
#     4  10  24  35  58  92 137 160 204 248 328 392
#     4  11  21  41  59  96 128 166 207 260 324 387
#     4  10  22  40  67  92 122 158 216 269 316 376
#     4  10  24  45  66  98 123 168 224 266 320 378
#
# _framework density 21.016406
#
# number of rings (size 3 to 8) (size 9 to 14) (size 15 to 20)
#    0.000    1.778    2.222    0.667    6.222    3.556 
#    4.000    4.444    0.000    0.000    0.000    0.000 
#    0.000    0.000    0.000    0.000    0.000    0.000 
#
# Total GULP energy -200474.931159 kJ/mol
# GULP energy per Si atom -5568.748088 kJ/mol
# Density = 2.096857 g / cm^3
# Si number density = 21.016406 Si / 1000 Ang^3
#
#
#
# Elastic Constant Matrix: (Units=GPa)
#
#
# Indices 1 2 3 4 5 6 
#
# 1 172.2103 47.4847 60.9479 0.0000 0.0000 0.0000
# 2 47.4847 67.0813 38.0608 0.0000 0.0000 0.0000
# 3 60.9479 38.0608 90.3769 0.0000 0.0000 0.0000
# 4 0.0000 0.0000 0.0000 31.0055 0.0000 0.0000
# 5 0.0000 0.0000 0.0000 0.0000 14.1748 0.0000
# 6 0.0000 0.0000 0.0000 0.0000 0.0000 12.1314
#
#
#
# Elastic Compliance Matrix: (Units=1/GPa)
#
#
# Indices 1 2 3 4 5 6 
#
# 1 0.008211 -0.003509 -0.004060 0.000000 0.000000 0.000000
# 2 -0.003509 0.021087 -0.006514 0.000000 0.000000 0.000000
# 3 -0.004060 -0.006514 0.016546 0.000000 0.000000 0.000000
# 4 0.000000 0.000000 0.000000 0.032252 0.000000 0.000000
# 5 0.000000 0.000000 0.000000 0.000000 0.070548 0.000000
# 6 0.000000 0.000000 0.000000 0.000000 0.000000 0.082431
#
#
# Mechanical properties :
#
#
# Convention : Reuss Voigt Hill
#
# Bulk Modulus (GPa) = 56.56564 69.18392 62.87478
# Shear Modulus (GPa) = 18.85841 23.67401 21.26621
#
# Velocity S-wave (km/s) = 2.99878 3.35991 3.18447
# Velocity P-wave (km/s) = 6.24209 6.93127 6.59568
#
# Compressibility (1/GPa) = 0.01767858
#
# Stress axis : x y z
#
# Youngs Moduli (GPa) = 121.78481 47.42200 60.43820
#
# Poissons Ratio (x) = 0.16641 0.24536
# Poissons Ratio (y) = 0.42735 0.39370
# Poissons Ratio (z) = 0.49440 0.30891
#
# Static dielectric constant tensor:
#      x y z
#    x 1.825940 0.000000 0.000000 
#    y 0.000000 1.791300 0.000000 
#    z 0.000000 0.000000 1.750970 
# 
# From -- ./inp_files/35613.got.cif
#   From: 2010.05.17/outbox.cif.g08.bks.cpg/sg52_18_cif.got.tgz:35613.got - 2010.06.03 12:15:38.
