data_PCOD9411250
_publ_section_title
;
Structure prediction by ZEFSAII (Michael W. Deem and Ramdas Pophale) SiO2 
 PCOD9411250
Probable space group: P N N A
;
_chemical_formula_sum "Si O2"
_cell_formula_units_Z 44
_cell_length_a 13.365934
_cell_length_b 10.177835
_cell_length_c 15.197203
_cell_angle_alpha 90.000000
_cell_angle_beta 90.000000
_cell_angle_gamma 90.000000
_cell_volume 2067.370824
_symmetry_space_group_name_H-M "P N N A"
_symmetry_group_IT_number 52
_symmetry_cell_setting 'orthorhombic'
loop_
_space_group_symop_operation_xyz
x,y,z
1/2-x,-y,z
x,1/2-y,1/2-z
1/2-x,1/2+y,1/2-z
-x,-y,-z
1/2+x,y,-z
-x,1/2+y,1/2+z
1/2+x,1/2-y,1/2+z
loop_
_atom_site_type_symbol
_atom_site_label
_atom_site_fract_x
_atom_site_fract_y
_atom_site_fract_z
Si Si1 0.213162 0.750000 0.750000
Si Si2 0.556131 0.228697 0.922888
Si Si3 0.308225 0.750000 0.250000
Si Si4 0.750000 0.500000 0.837350
Si Si5 0.529550 0.000104 0.632292
Si Si6 0.882931 0.747001 0.114587
Si Si7 0.557525 0.967034 0.182483
O O1 0.283282 0.708873 0.832317
O O2 0.145949 0.873211 0.780988
O O3 0.626596 0.230789 0.837416
O O4 0.494982 0.366882 0.917262
O O5 0.484755 0.105879 0.903760
O O6 0.620629 0.223032 0.010938
O O7 0.244223 0.624537 0.226134
O O8 0.647008 0.507576 0.891511
O O9 0.520712 0.029434 0.736682
O O10 0.463879 0.870524 0.620339
O O11 0.914667 0.883843 0.160624
#
# Coordination Sequence:
#
# PCOD9411250 Si02
#       7
#     4   8   4   4   8   8   8
#     4  12  25  47  72 102 154 194 243 295 378 428
#     4  11  22  47  69 100 142 185 232 300 366 424
#     4  10  21  41  66  90 138 176 223 279 362 416
#     4  10  22  38  70  92 124 188 222 280 358 428
#     4  11  22  46  69  96 142 186 234 292 375 430
#     4  12  27  41  73 111 135 183 254 298 348 447
#     4  12  22  47  73  98 144 194 232 301 365 432
#
# _framework density 21.283071
#
# number of rings (size 3 to 8) (size 9 to 14) (size 15 to 20)
#    0.000    0.727    7.273    1.636    2.545    0.000 
#    9.818    3.636    0.000    0.000    0.000    0.000 
#    0.000    0.000    0.000    0.000    0.000    0.000 
#
# Total GULP energy -245518.202327 kJ/mol
# GULP energy per Si atom -5579.959144 kJ/mol
# Density = 2.123463 g / cm^3
# Si number density = 21.283071 Si / 1000 Ang^3
#
#
#
# Elastic Constant Matrix: (Units=GPa)
#
#
# Indices 1 2 3 4 5 6 
#
# 1 56.6746 -14.6788 6.7885 0.0000 0.0000 0.0000
# 2 -14.6788 75.4147 -21.9787 0.0000 0.0000 0.0000
# 3 6.7885 -21.9787 118.3374 0.0000 0.0000 0.0000
# 4 0.0000 0.0000 0.0000 21.6539 0.0000 0.0000
# 5 0.0000 0.0000 0.0000 0.0000 13.6265 0.0000
# 6 0.0000 0.0000 0.0000 0.0000 0.0000 26.7342
#
#
#
# Elastic Compliance Matrix: (Units=1/GPa)
#
#
# Indices 1 2 3 4 5 6 
#
# 1 0.018601 0.003499 -0.000417 0.000000 0.000000 0.000000
# 2 0.003499 0.014677 0.002525 0.000000 0.000000 0.000000
# 3 -0.000417 0.002525 0.008943 0.000000 0.000000 0.000000
# 4 0.000000 0.000000 0.000000 0.046181 0.000000 0.000000
# 5 0.000000 0.000000 0.000000 0.000000 0.073386 0.000000
# 6 0.000000 0.000000 0.000000 0.000000 0.000000 0.037405
#
#
# Mechanical properties :
#
#
# Convention : Reuss Voigt Hill
#
# Bulk Modulus (GPa) = 18.71436 21.18765 19.95100
# Shear Modulus (GPa) = 24.29642 31.08930 27.69286
#
# Velocity S-wave (km/s) = 3.38240 3.82613 3.61108
# Velocity P-wave (km/s) = 4.90574 5.43100 5.17504
#
# Compressibility (1/GPa) = 0.05343492
#
# Stress axis : x y z
#
# Youngs Moduli (GPa) = 53.76121 68.13388 111.81489
#
# Poissons Ratio (x) = -0.23839 0.04665
# Poissons Ratio (y) = -0.18810 -0.28236
# Poissons Ratio (z) = 0.02243 -0.17205
#
# Static dielectric constant tensor:
#      x y z
#    x 1.799740 0.000000 0.000000 
#    y 0.000000 1.840780 0.000000 
#    z 0.000000 0.000000 1.776470 
# 
# From -- ./inp_files/27131.got.cif
#   From: 2010.05.17/outbox.cif.g08.bks.cpg/sg52_14_cif.got.tgz:27131.got - 2010.06.03 12:15:38.
