data_PCOD9411064
_publ_section_title
;
Structure prediction by ZEFSAII (Michael W. Deem and Ramdas Pophale) SiO2 
 PCOD9411064
Probable space group: P N N A
;
_chemical_formula_sum "Si O2"
_cell_formula_units_Z 40
_cell_length_a 6.884369
_cell_length_b 7.414391
_cell_length_c 28.569977
_cell_angle_alpha 90.000000
_cell_angle_beta 90.000000
_cell_angle_gamma 90.000000
_cell_volume 1458.308866
_symmetry_space_group_name_H-M "P N N A"
_symmetry_group_IT_number 52
_symmetry_cell_setting 'orthorhombic'
loop_
_space_group_symop_operation_xyz
x,y,z
1/2-x,-y,z
x,1/2-y,1/2-z
1/2-x,1/2+y,1/2-z
-x,-y,-z
1/2+x,y,-z
-x,1/2+y,1/2+z
1/2+x,1/2-y,1/2+z
loop_
_atom_site_type_symbol
_atom_site_label
_atom_site_fract_x
_atom_site_fract_y
_atom_site_fract_z
Si Si1 0.250000 0.500000 0.190991
Si Si2 0.879150 0.363169 0.638385
Si Si3 0.474958 0.250000 0.750000
Si Si4 0.132233 0.861773 0.848366
Si Si5 0.606755 0.723324 0.957546
Si Si6 0.445290 0.147136 0.559082
O O1 0.142208 0.655207 0.159714
O O2 0.395196 0.593686 0.227515
O O3 0.119566 0.409541 0.648925
O O4 0.630928 0.403190 0.649650
O O5 0.918398 0.371536 0.581687
O O6 0.355991 0.196103 0.794765
O O7 0.124445 0.721188 0.891472
O O8 0.614981 0.758760 0.012735
O O9 0.439321 0.569885 0.949808
O O10 0.822012 0.665119 0.943003
#
# Coordination Sequence:
#
# PCOD9411064 Si02
#       6
#     4   8   4   8   8   8
#     4  12  24  46  80 108 134 176 246 302 352 432
#     4  12  23  45  73 107 137 186 236 295 350 428
#     4  12  24  46  74  98 136 186 230 300 360 414
#     4  12  28  45  67 104 147 185 239 291 359 426
#     4  10  21  39  71 100 146 187 236 290 356 427
#     4  10  22  43  66 105 144 191 236 292 355 425
#
# _framework density 27.429031999999999
#
# number of rings (size 3 to 8) (size 9 to 14) (size 15 to 20)
#    0.000    0.800    4.000    3.600    2.800    3.200 
#    0.000    2.000    0.000    0.000    0.000    0.000 
#    0.000    0.000    0.000    0.000    0.000    0.000 
#
# Total GULP energy -223133.119654 kJ/mol
# GULP energy per Si atom -5578.327991 kJ/mol
# Density = 2.736660 g / cm^3
# Si number density = 27.429032 Si / 1000 Ang^3
#
#
#
# Elastic Constant Matrix: (Units=GPa)
#
#
# Indices 1 2 3 4 5 6 
#
# 1 151.1858 70.8270 69.5255 0.0000 0.0000 0.0000
# 2 70.8270 127.5782 88.8203 0.0000 0.0000 0.0000
# 3 69.5255 88.8203 282.3083 0.0000 0.0000 0.0000
# 4 0.0000 0.0000 0.0000 33.2726 0.0000 0.0000
# 5 0.0000 0.0000 0.0000 0.0000 107.1157 0.0000
# 6 0.0000 0.0000 0.0000 0.0000 0.0000 69.5545
#
#
#
# Elastic Compliance Matrix: (Units=1/GPa)
#
#
# Indices 1 2 3 4 5 6 
#
# 1 0.009090 -0.004466 -0.000833 0.000000 0.000000 0.000000
# 2 -0.004466 0.012231 -0.002748 0.000000 0.000000 0.000000
# 3 -0.000833 -0.002748 0.004612 0.000000 0.000000 0.000000
# 4 0.000000 0.000000 0.000000 0.030055 0.000000 0.000000
# 5 0.000000 0.000000 0.000000 0.000000 0.009336 0.000000
# 6 0.000000 0.000000 0.000000 0.000000 0.000000 0.014377
#
#
# Mechanical properties :
#
#
# Convention : Reuss Voigt Hill
#
# Bulk Modulus (GPa) = 101.65261 113.26867 107.46064
# Shear Modulus (GPa) = 50.46635 64.11519 57.29077
#
# Velocity S-wave (km/s) = 4.29405 4.84001 4.57518
# Velocity P-wave (km/s) = 7.85658 8.52168 8.19588
#
# Compressibility (1/GPa) = 0.00983743
#
# Stress axis : x y z
#
# Youngs Moduli (GPa) = 110.01142 81.75846 216.81810
#
# Poissons Ratio (x) = 0.36515 0.18071
# Poissons Ratio (y) = 0.49133 0.59588
# Poissons Ratio (z) = 0.09169 0.22470
#
# Static dielectric constant tensor:
#      x y z
#    x 2.747590 0.000000 0.000000 
#    y 0.000000 2.688770 0.000000 
#    z 0.000000 0.000000 1.958030 
# 
# From -- ./inp_files/36672.got.cif
#   From: 2010.05.17/outbox.cif.g08.bks.cpg/sg52_19_cif.got.tgz:36672.got - 2010.06.03 12:15:38.
