data_PCOD9411427
_publ_section_title
;
Structure prediction by ZEFSAII (Michael W. Deem and Ramdas Pophale) SiO2 
 PCOD9411427
Probable space group: P N N A
;
_chemical_formula_sum "Si O2"
_cell_formula_units_Z 32
_cell_length_a 5.845134
_cell_length_b 10.602086
_cell_length_c 25.688836
_cell_angle_alpha 90.000000
_cell_angle_beta 90.000000
_cell_angle_gamma 90.000000
_cell_volume 1591.952923
_symmetry_space_group_name_H-M "P N N A"
_symmetry_group_IT_number 52
_symmetry_cell_setting 'orthorhombic'
loop_
_space_group_symop_operation_xyz
x,y,z
1/2-x,-y,z
x,1/2-y,1/2-z
1/2-x,1/2+y,1/2-z
-x,-y,-z
1/2+x,y,-z
-x,1/2+y,1/2+z
1/2+x,1/2-y,1/2+z
loop_
_atom_site_type_symbol
_atom_site_label
_atom_site_fract_x
_atom_site_fract_y
_atom_site_fract_z
Si Si1 0.640207 0.639175 0.207581
Si Si2 0.250000 0.500000 0.973459
Si Si3 0.750000 0.500000 0.848980
Si Si4 0.998488 0.455897 0.560778
Si Si5 0.400663 0.687733 0.897181
O O1 0.750000 0.500000 0.221874
O O2 0.633438 0.750000 0.250000
O O3 0.393521 0.595805 0.186744
O O4 0.776424 0.698588 0.158444
O O5 0.231470 0.623444 0.937521
O O6 0.500000 0.500000 0.000000
O O7 0.591588 0.584310 0.885017
O O8 0.750000 0.500000 0.581927
O O9 0.250000 0.500000 0.581642
O O10 0.000000 0.500000 0.500000
O O11 0.001629 0.309105 0.574600
#
# Coordination Sequence:
#
# PCOD9411427 Si02
#       5
#     8   4   4   8   8
#     4  10  23  45  73 102 142 184 242 304 376 442
#     4  12  27  38  74 106 136 192 240 299 354 418
#     4  10  21  44  72 104 136 186 236 311 362 430
#     4  10  25  43  65  95 142 192 230 286 348 423
#     4  11  24  45  70 100 147 178 248 299 359 432
#
# _framework density 20.101095999999998
#
# number of rings (size 3 to 8) (size 9 to 14) (size 15 to 20)
#    0.000    1.500    3.750    0.750   10.500    5.000 
#    0.000    0.000    0.000    0.000    0.000    0.000 
#    0.000    0.000    0.000    0.000    0.000    0.000 
#
# Total GULP energy -178140.008907 kJ/mol
# GULP energy per Si atom -5566.875278 kJ/mol
# Density = 2.005535 g / cm^3
# Si number density = 20.101096 Si / 1000 Ang^3
#
#
#
# Elastic Constant Matrix: (Units=GPa)
#
#
# Indices 1 2 3 4 5 6 
#
# 1 140.2611 46.7930 52.7684 0.0000 0.0000 0.0000
# 2 46.7930 138.9496 90.8503 0.0000 0.0000 0.0000
# 3 52.7684 90.8503 109.8134 0.0000 0.0000 0.0000
# 4 0.0000 0.0000 0.0000 57.8215 0.0000 0.0000
# 5 0.0000 0.0000 0.0000 0.0000 14.3286 0.0000
# 6 0.0000 0.0000 0.0000 0.0000 0.0000 26.1590
#
#
#
# Elastic Compliance Matrix: (Units=1/GPa)
#
#
# Indices 1 2 3 4 5 6 
#
# 1 0.008715 -0.000429 -0.003833 0.000000 0.000000 0.000000
# 2 -0.000429 0.015698 -0.012781 0.000000 0.000000 0.000000
# 3 -0.003833 -0.012781 0.021522 0.000000 0.000000 0.000000
# 4 0.000000 0.000000 0.000000 0.017295 0.000000 0.000000
# 5 0.000000 0.000000 0.000000 0.000000 0.069790 0.000000
# 6 0.000000 0.000000 0.000000 0.000000 0.000000 0.038228
#
#
# Mechanical properties :
#
#
# Convention : Reuss Voigt Hill
#
# Bulk Modulus (GPa) = 84.39367 85.53860 84.96613
# Shear Modulus (GPa) = 23.89108 32.90267 28.39687
#
# Velocity S-wave (km/s) = 3.45127 4.05020 3.76267
# Velocity P-wave (km/s) = 7.61298 8.03236 7.82548
#
# Compressibility (1/GPa) = 0.01184923
#
# Stress axis : x y z
#
# Youngs Moduli (GPa) = 114.75015 63.70217 46.46324
#
# Poissons Ratio (x) = 0.02730 0.17810
# Poissons Ratio (y) = 0.04918 0.59386
# Poissons Ratio (z) = 0.43984 0.81420
#
# Static dielectric constant tensor:
#      x y z
#    x 1.828340 0.000000 0.000000 
#    y 0.000000 1.197880 0.000000 
#    z 0.000000 0.000000 1.723710 
# 
# From -- ./inp_files/34846.got.cif
#   From: 2010.05.17/outbox.cif.g08.bks.cpg/sg52_18_cif.got.tgz:34846.got - 2010.06.03 12:15:38.
