data_PCOD9411165
_publ_section_title
;
Structure prediction by ZEFSAII (Michael W. Deem and Ramdas Pophale) SiO2 
 PCOD9411165
Probable space group: P N N A
;
_chemical_formula_sum "Si O2"
_cell_formula_units_Z 52
_cell_length_a 9.545818
_cell_length_b 22.041327
_cell_length_c 10.984067
_cell_angle_alpha 90.000000
_cell_angle_beta 90.000000
_cell_angle_gamma 90.000000
_cell_volume 2311.075113
_symmetry_space_group_name_H-M "P N N A"
_symmetry_group_IT_number 52
_symmetry_cell_setting 'orthorhombic'
loop_
_space_group_symop_operation_xyz
x,y,z
1/2-x,-y,z
x,1/2-y,1/2-z
1/2-x,1/2+y,1/2-z
-x,-y,-z
1/2+x,y,-z
-x,1/2+y,1/2+z
1/2+x,1/2-y,1/2+z
loop_
_atom_site_type_symbol
_atom_site_label
_atom_site_fract_x
_atom_site_fract_y
_atom_site_fract_z
Si Si1 0.891216 0.555407 0.607739
Si Si2 0.194529 0.383722 0.752926
Si Si3 0.551291 0.202319 0.589378
Si Si4 0.750000 0.500000 0.384741
Si Si5 0.561175 0.827187 0.142017
Si Si6 0.885937 0.432700 0.742842
Si Si7 0.809732 0.365803 0.976211
O O1 0.918971 0.503307 0.709952
O O2 0.739293 0.582658 0.648561
O O3 0.133065 0.477868 0.520314
O O4 0.997637 0.610290 0.593125
O O5 0.269790 0.443710 0.702214
O O6 0.273023 0.331858 0.673028
O O7 0.239826 0.380007 0.893502
O O8 0.028998 0.393947 0.734396
O O9 0.508256 0.183098 0.725435
O O10 0.492519 0.269570 0.567419
O O11 0.714295 0.188864 0.575344
O O12 0.464704 0.157694 0.503021
O O13 0.821900 0.418921 0.876454
#
# Coordination Sequence:
#
# PCOD9411165 Si02
#       7
#     8   8   8   4   8   8   8
#     4  10  23  42  68  94 136 184 224 274 347 417
#     4  11  23  39  65  98 136 171 220 284 336 403
#     4  10  22  41  67  93 132 171 226 275 338 406
#     4  10  24  42  62  98 138 172 222 272 338 402
#     4  10  22  42  65  92 131 181 218 273 339 404
#     4  10  21  40  67 100 132 170 226 281 335 409
#     4  11  21  42  67  99 130 172 225 284 341 400
#
# _framework density 22.500350999999998
#
# number of rings (size 3 to 8) (size 9 to 14) (size 15 to 20)
#    0.000    1.846    3.077    0.923    0.000    8.000 
#    0.000    6.923    3.385    0.000    0.000    0.000 
#    0.000    0.000    0.000    0.000    0.000    0.000 
#
# Total GULP energy -290119.293357 kJ/mol
# GULP energy per Si atom -5579.217180 kJ/mol
# Density = 2.244914 g / cm^3
# Si number density = 22.500351 Si / 1000 Ang^3
#
#
#
# Elastic Constant Matrix: (Units=GPa)
#
#
# Indices 1 2 3 4 5 6 
#
# 1 115.1509 10.8233 25.3804 0.0000 0.0000 0.0000
# 2 10.8233 73.8078 32.3787 0.0000 0.0000 0.0000
# 3 25.3804 32.3787 69.1277 0.0000 0.0000 0.0000
# 4 0.0000 0.0000 0.0000 27.5735 0.0000 0.0000
# 5 0.0000 0.0000 0.0000 0.0000 10.3274 0.0000
# 6 0.0000 0.0000 0.0000 0.0000 0.0000 24.2658
#
#
#
# Elastic Compliance Matrix: (Units=1/GPa)
#
#
# Indices 1 2 3 4 5 6 
#
# 1 0.009451 0.000172 -0.003550 0.000000 0.000000 0.000000
# 2 0.000172 0.017056 -0.008052 0.000000 0.000000 0.000000
# 3 -0.003550 -0.008052 0.019541 0.000000 0.000000 0.000000
# 4 0.000000 0.000000 0.000000 0.036267 0.000000 0.000000
# 5 0.000000 0.000000 0.000000 0.000000 0.096830 0.000000
# 6 0.000000 0.000000 0.000000 0.000000 0.000000 0.041210
#
#
# Mechanical properties :
#
#
# Convention : Reuss Voigt Hill
#
# Bulk Modulus (GPa) = 43.12856 43.91678 43.52267
# Shear Modulus (GPa) = 19.92478 25.06692 22.49585
#
# Velocity S-wave (km/s) = 2.97902 3.34139 3.16539
# Velocity P-wave (km/s) = 5.57156 5.86917 5.72230
#
# Compressibility (1/GPa) = 0.02318649
#
# Stress axis : x y z
#
# Youngs Moduli (GPa) = 105.81308 58.63118 51.17500
#
# Poissons Ratio (x) = -0.01006 0.18168
# Poissons Ratio (y) = -0.01815 0.41205
# Poissons Ratio (z) = 0.37566 0.47208
#
# Static dielectric constant tensor:
#      x y z
#    x 1.933460 0.000000 0.000000 
#    y 0.000000 1.852170 0.000000 
#    z 0.000000 0.000000 1.817990 
# 
# From -- ./inp_files/25062.got.cif
#   From: 2010.05.17/outbox.cif.g08.bks.cpg/sg52_13_cif.got.tgz:25062.got - 2010.06.03 12:15:38.
