data_PCOD9411192
_publ_section_title
;
Structure prediction by ZEFSAII (Michael W. Deem and Ramdas Pophale) SiO2 
 PCOD9411192
Probable space group: P N N A
;
_chemical_formula_sum "Si O2"
_cell_formula_units_Z 60
_cell_length_a 18.091475
_cell_length_b 4.989917
_cell_length_c 30.714175
_cell_angle_alpha 90.000000
_cell_angle_beta 90.000000
_cell_angle_gamma 90.000000
_cell_volume 2772.720878
_symmetry_space_group_name_H-M "P N N A"
_symmetry_group_IT_number 52
_symmetry_cell_setting 'orthorhombic'
loop_
_space_group_symop_operation_xyz
x,y,z
1/2-x,-y,z
x,1/2-y,1/2-z
1/2-x,1/2+y,1/2-z
-x,-y,-z
1/2+x,y,-z
-x,1/2+y,1/2+z
1/2+x,1/2-y,1/2+z
loop_
_atom_site_type_symbol
_atom_site_label
_atom_site_fract_x
_atom_site_fract_y
_atom_site_fract_z
Si Si1 0.136385 0.636377 0.854114
Si Si2 0.608400 0.584670 0.616920
Si Si3 0.750000 0.500000 0.219930
Si Si4 0.199047 0.760872 0.033760
Si Si5 0.012497 0.426030 0.106608
Si Si6 0.434819 0.138646 0.973228
Si Si7 0.828282 0.867996 0.091497
Si Si8 0.195250 0.748569 0.299075
O O1 0.181255 0.572386 0.811062
O O2 0.168809 0.435142 0.891477
O O3 0.048934 0.589969 0.855678
O O4 0.148542 0.943047 0.867914
O O5 0.670584 0.640857 0.580883
O O6 0.579846 0.279615 0.615844
O O7 0.636478 0.694157 0.663168
O O8 0.540544 0.773292 0.603107
O O9 0.768570 0.750000 0.250000
O O10 0.250000 0.500000 0.036307
O O11 0.250000 0.000000 0.016241
O O12 0.125782 0.721381 0.004431
O O13 0.972789 0.329594 0.062416
O O14 0.386839 0.922580 0.946246
O O15 0.500000 0.000000 0.000000
O O16 0.750000 0.000000 0.079365
O O17 0.250000 0.500000 0.300409
O O18 0.163076 0.750000 0.250000
O O19 0.250000 0.000000 0.306349
#
# Coordination Sequence:
#
# PCOD9411192 Si02
#       8
#     8   8   4   8   8   8   8   8
#     4  11  23  43  65  98 129 169 229 265 336 409
#     4  12  23  44  67  96 134 177 213 264 350 391
#     4  12  24  42  72 102 134 172 218 290 346 396
#     4  12  27  44  65  96 137 175 227 286 335 395
#     4  11  25  42  68  92 131 182 215 272 326 413
#     4  11  25  44  65  96 134 180 233 281 331 398
#     4  11  21  41  67  92 129 175 227 280 320 390
#     4  10  21  40  69 101 129 165 217 265 315 394
#
# _framework density 21.639393999999999
#
# number of rings (size 3 to 8) (size 9 to 14) (size 15 to 20)
#    0.000    0.800    2.667    5.200    0.000    5.867 
#    0.000    2.000    0.000    0.000    0.000    0.000 
#    0.000    0.000    0.000    0.000    0.000    0.000 
#
# Total GULP energy -335786.960159 kJ/mol
# GULP energy per Si atom -5596.449336 kJ/mol
# Density = 2.159014 g / cm^3
# Si number density = 21.639394 Si / 1000 Ang^3
#
#
#
# Elastic Constant Matrix: (Units=GPa)
#
#
# Indices 1 2 3 4 5 6 
#
# 1 98.3641 3.5574 39.1154 0.0000 0.0000 0.0000
# 2 3.5574 72.7025 -0.5092 0.0000 0.0000 0.0000
# 3 39.1154 -0.5092 107.6992 0.0000 0.0000 0.0000
# 4 0.0000 0.0000 0.0000 -158.0694 0.0000 0.0000
# 5 0.0000 0.0000 0.0000 0.0000 64.0625 0.0000
# 6 0.0000 0.0000 0.0000 0.0000 0.0000 40.6399
#
#
#
# Elastic Compliance Matrix: (Units=1/GPa)
#
#
# Indices 1 2 3 4 5 6 
#
# 1 0.011910 -0.000613 -0.004328 0.000000 0.000000 0.000000
# 2 -0.000613 0.013787 0.000288 0.000000 0.000000 0.000000
# 3 -0.004328 0.000288 0.010859 0.000000 0.000000 0.000000
# 4 0.000000 0.000000 0.000000 -0.006326 0.000000 0.000000
# 5 0.000000 0.000000 0.000000 0.000000 0.015610 0.000000
# 6 0.000000 0.000000 0.000000 0.000000 0.000000 0.024606
#
#
# Mechanical properties :
#
#
# Convention : Reuss Voigt Hill
#
# Bulk Modulus (GPa) = 36.70039 40.34367 38.52203
# Shear Modulus (GPa) = 56.28441 5.10007 30.69224
#
# Velocity S-wave (km/s) = 5.10555 1.53687 3.77018
# Velocity P-wave (km/s) = 7.19391 4.67262 6.06571
#
# Compressibility (1/GPa) = 0.02724767
#
# Stress axis : x y z
#
# Youngs Moduli (GPa) = 83.96508 72.53371 92.09356
#
# Poissons Ratio (x) = 0.04447 0.39862
# Poissons Ratio (y) = 0.05148 -0.02651
# Poissons Ratio (z) = 0.36343 -0.02088
#
# Static dielectric constant tensor:
#      x y z
#    x 1.851800 0.000000 0.000000 
#    y 0.000000 1.758120 0.000000 
#    z 0.000000 0.000000 1.835500 
# 
# From -- ./inp_files/43221.got.cif
#   From: 2010.05.17/outbox.cif.g08.bks.cpg/sg52_22_cif.got.tgz:43221.got - 2010.06.03 12:15:38.
