data_PCOD9411981
_publ_section_title
;
Structure prediction by ZEFSAII (Michael W. Deem and Ramdas Pophale) SiO2 
 PCOD9411981
Probable space group: P N N A
;
_chemical_formula_sum "Si O2"
_cell_formula_units_Z 40
_cell_length_a 11.423413
_cell_length_b 10.358633
_cell_length_c 15.053523
_cell_angle_alpha 90.000000
_cell_angle_beta 90.000000
_cell_angle_gamma 90.000000
_cell_volume 1781.297570
_symmetry_space_group_name_H-M "P N N A"
_symmetry_group_IT_number 52
_symmetry_cell_setting 'orthorhombic'
loop_
_space_group_symop_operation_xyz
x,y,z
1/2-x,-y,z
x,1/2-y,1/2-z
1/2-x,1/2+y,1/2-z
-x,-y,-z
1/2+x,y,-z
-x,1/2+y,1/2+z
1/2+x,1/2-y,1/2+z
loop_
_atom_site_type_symbol
_atom_site_label
_atom_site_fract_x
_atom_site_fract_y
_atom_site_fract_z
Si Si1 0.874793 0.519652 0.453172
Si Si2 0.582505 0.752518 0.100904
Si Si3 0.826654 0.715561 0.148853
Si Si4 0.614182 0.250000 0.750000
Si Si5 0.750000 0.000000 0.693952
Si Si6 0.956000 0.104948 0.569821
O O1 0.750000 0.500000 0.504724
O O2 0.878593 0.400911 0.383808
O O3 0.861405 0.658333 0.408764
O O4 0.000000 0.500000 0.500000
O O5 0.697541 0.669137 0.122256
O O6 0.470102 0.733898 0.163340
O O7 0.565291 0.725832 0.996175
O O8 0.819019 0.750000 0.250000
O O9 0.934839 0.622747 0.134183
O O10 0.691768 0.381556 0.750488
O O11 0.654239 0.935915 0.628181
O O12 0.000000 0.000000 0.500000
#
# Coordination Sequence:
#
# PCOD9411981 Si02
#       6
#     8   8   8   4   4   8
#     4  10  22  42  69 105 139 188 243 301 378 446
#     4  11  24  48  72 104 145 191 243 312 372 445
#     4  11  25  44  74 107 141 188 250 308 371 445
#     4  12  28  50  72 112 156 194 250 316 390 446
#     4  12  30  50  76 114 156 208 246 320 390 462
#     4  12  25  47  74 105 143 196 253 298 372 455
#
# _framework density 22.455541
#
# number of rings (size 3 to 8) (size 9 to 14) (size 15 to 20)
#    0.000    0.800    5.000    1.200    4.200    0.000 
#    5.400    0.000    0.000    0.000    0.000    0.000 
#    0.000    0.000    0.000    0.000    0.000    0.000 
#
# Total GULP energy -223116.765004 kJ/mol
# GULP energy per Si atom -5577.919125 kJ/mol
# Density = 2.240443 g / cm^3
# Si number density = 22.455541 Si / 1000 Ang^3
#
#
#
# Elastic Constant Matrix: (Units=GPa)
#
#
# Indices 1 2 3 4 5 6 
#
# 1 201.6932 45.4367 55.3845 0.0000 0.0000 0.0000
# 2 45.4367 76.8480 -2.5671 0.0000 0.0000 0.0000
# 3 55.3845 -2.5671 62.1372 0.0000 0.0000 0.0000
# 4 0.0000 0.0000 0.0000 18.0961 0.0000 0.0000
# 5 0.0000 0.0000 0.0000 0.0000 41.1949 0.0000
# 6 0.0000 0.0000 0.0000 0.0000 0.0000 34.0942
#
#
#
# Elastic Compliance Matrix: (Units=1/GPa)
#
#
# Indices 1 2 3 4 5 6 
#
# 1 0.008153 -0.005070 -0.007477 0.000000 0.000000 0.000000
# 2 -0.005070 0.016184 0.005188 0.000000 0.000000 0.000000
# 3 -0.007477 0.005188 0.022972 0.000000 0.000000 0.000000
# 4 0.000000 0.000000 0.000000 0.055261 0.000000 0.000000
# 5 0.000000 0.000000 0.000000 0.000000 0.024275 0.000000
# 6 0.000000 0.000000 0.000000 0.000000 0.000000 0.029331
#
#
# Mechanical properties :
#
#
# Convention : Reuss Voigt Hill
#
# Bulk Modulus (GPa) = 30.68343 59.68742 45.18542
# Shear Modulus (GPa) = 27.50918 34.83865 31.17391
#
# Velocity S-wave (km/s) = 3.50387 3.94312 3.72997
# Velocity P-wave (km/s) = 5.48299 6.88250 6.22222
#
# Compressibility (1/GPa) = 0.03259089
#
# Stress axis : x y z
#
# Youngs Moduli (GPa) = 122.64814 61.78960 43.53123
#
# Poissons Ratio (x) = 0.31330 0.32547
# Poissons Ratio (y) = 0.62189 -0.22584
# Poissons Ratio (z) = 0.91702 -0.32057
#
# Static dielectric constant tensor:
#      x y z
#    x 1.868210 0.000000 0.000000 
#    y 0.000000 2.056410 0.000000 
#    z 0.000000 0.000000 1.629930 
# 
# From -- ./inp_files/25868.got.cif
#   From: 2010.05.17/outbox.cif.g08.bks.cpg/sg52_13_cif.got.tgz:25868.got - 2010.06.03 12:15:38.
