data_PCOD9411252
_publ_section_title
;
Structure prediction by ZEFSAII (Michael W. Deem and Ramdas Pophale) SiO2 
 PCOD9411252
Probable space group: P N N A
;
_chemical_formula_sum "Si O2"
_cell_formula_units_Z 32
_cell_length_a 12.728146
_cell_length_b 19.785281
_cell_length_c 6.155271
_cell_angle_alpha 90.000000
_cell_angle_beta 90.000000
_cell_angle_gamma 90.000000
_cell_volume 1550.081559
_symmetry_space_group_name_H-M "P N N A"
_symmetry_group_IT_number 52
_symmetry_cell_setting 'orthorhombic'
loop_
_space_group_symop_operation_xyz
x,y,z
1/2-x,-y,z
x,1/2-y,1/2-z
1/2-x,1/2+y,1/2-z
-x,-y,-z
1/2+x,y,-z
-x,1/2+y,1/2+z
1/2+x,1/2-y,1/2+z
loop_
_atom_site_type_symbol
_atom_site_label
_atom_site_fract_x
_atom_site_fract_y
_atom_site_fract_z
Si Si1 0.623570 0.250000 0.250000
Si Si2 0.988109 0.315271 0.357698
Si Si3 0.750000 0.000000 0.630153
Si Si4 0.056064 0.562446 0.378611
Si Si5 0.116155 0.119762 0.540689
O O1 0.553886 0.281292 0.445676
O O2 0.675322 0.183694 0.351640
O O3 0.933719 0.250000 0.250000
O O4 0.921242 0.375563 0.459007
O O5 0.064543 0.352061 0.182680
O O6 0.838801 0.034959 0.773927
O O7 0.693357 0.058029 0.494819
O O8 0.000000 0.500000 0.500000
O O9 0.977795 0.592364 0.194407
#
# Coordination Sequence:
#
# PCOD9411252 Si02
#       5
#     4   8   4   8   8
#     4   8  18  38  70  86 124 178 212 268 336 388
#     4   9  18  39  69  86 128 177 214 271 337 384
#     4  12  24  38  68  98 132 170 222 274 344 396
#     4  11  23  41  64  96 131 171 222 276 333 399
#     4  10  21  41  66  93 130 172 216 277 329 397
#
# _framework density 20.644075999999998
#
# number of rings (size 3 to 8) (size 9 to 14) (size 15 to 20)
#    0.000    2.000    2.500    0.750    0.000    1.000 
#    0.000    0.000   66.000    0.000    0.000    0.000 
#    0.000    0.000    0.000    0.000    0.000    0.000 
#
# Total GULP energy -178509.376344 kJ/mol
# GULP energy per Si atom -5578.418011 kJ/mol
# Density = 2.059709 g / cm^3
# Si number density = 20.644076 Si / 1000 Ang^3
#
#
#
# Elastic Constant Matrix: (Units=GPa)
#
#
# Indices 1 2 3 4 5 6 
#
# 1 77.1087 64.9999 31.4950 0.0000 0.0000 0.0000
# 2 64.9999 222.1499 70.3308 0.0000 0.0000 0.0000
# 3 31.4950 70.3308 100.9109 0.0000 0.0000 0.0000
# 4 0.0000 0.0000 0.0000 72.4732 0.0000 0.0000
# 5 0.0000 0.0000 0.0000 0.0000 547.1411 0.0000
# 6 0.0000 0.0000 0.0000 0.0000 0.0000 19.6939
#
#
#
# Elastic Compliance Matrix: (Units=1/GPa)
#
#
# Indices 1 2 3 4 5 6 
#
# 1 0.017676 -0.004395 -0.002454 0.000000 0.000000 0.000000
# 2 -0.004395 0.006869 -0.003416 0.000000 0.000000 0.000000
# 3 -0.002454 -0.003416 0.013056 0.000000 0.000000 0.000000
# 4 0.000000 0.000000 0.000000 0.013798 0.000000 0.000000
# 5 0.000000 0.000000 0.000000 0.000000 0.001828 0.000000
# 6 0.000000 0.000000 0.000000 0.000000 0.000000 0.050777
#
#
# Mechanical properties :
#
#
# Convention : Reuss Voigt Hill
#
# Bulk Modulus (GPa) = 58.57465 81.53566 70.05516
# Shear Modulus (GPa) = 38.39581 143.41787 90.90684
#
# Velocity S-wave (km/s) = 4.31733 8.34401 6.64311
# Velocity P-wave (km/s) = 7.29984 11.50703 9.63585
#
# Compressibility (1/GPa) = 0.01707223
#
# Stress axis : x y z
#
# Youngs Moduli (GPa) = 56.57479 145.58660 76.59326
#
# Poissons Ratio (x) = 0.63986 0.18792
# Poissons Ratio (y) = 0.24865 0.26161
# Poissons Ratio (z) = 0.13881 0.49725
#
# Static dielectric constant tensor:
#      x y z
#    x 1.729180 0.000000 0.000000 
#    y 0.000000 1.738340 0.000000 
#    z 0.000000 0.000000 1.781430 
# 
# From -- ./inp_files/1070.got.cif
#   From: 2010.05.17/outbox.cif.g08.bks.cpg/sg52_1_cif.got.tgz:1070.got - 2010.06.03 12:15:38.
