data_PCOD9411133
_publ_section_title
;
Structure prediction by ZEFSAII (Michael W. Deem and Ramdas Pophale) SiO2 
 PCOD9411133
Probable space group: P N N A
;
_chemical_formula_sum "Si O2"
_cell_formula_units_Z 32
_cell_length_a 9.670995
_cell_length_b 18.072734
_cell_length_c 8.934069
_cell_angle_alpha 90.000000
_cell_angle_beta 90.000000
_cell_angle_gamma 90.000000
_cell_volume 1561.508374
_symmetry_space_group_name_H-M "P N N A"
_symmetry_group_IT_number 52
_symmetry_cell_setting 'orthorhombic'
loop_
_space_group_symop_operation_xyz
x,y,z
1/2-x,-y,z
x,1/2-y,1/2-z
1/2-x,1/2+y,1/2-z
-x,-y,-z
1/2+x,y,-z
-x,1/2+y,1/2+z
1/2+x,1/2-y,1/2+z
loop_
_atom_site_type_symbol
_atom_site_label
_atom_site_fract_x
_atom_site_fract_y
_atom_site_fract_z
Si Si1 0.012977 0.167389 0.309393
Si Si2 0.744382 0.663502 0.615658
Si Si3 0.878419 0.044488 0.089315
Si Si4 0.961478 0.749117 0.086765
O O1 0.967698 0.250000 0.250000
O O2 0.938611 0.103366 0.211941
O O3 0.176016 0.158477 0.271621
O O4 0.005494 0.175712 0.489300
O O5 0.700885 0.587343 0.542834
O O6 0.859388 0.701937 0.512647
O O7 0.605869 0.710108 0.612056
O O8 0.750000 0.000000 0.162549
O O9 0.000000 0.000000 0.000000
O O10 0.894470 0.750000 0.250000
#
# Coordination Sequence:
#
# PCOD9411133 Si02
#       4
#     8   8   8   8
#     4  10  21  40  64  99 135 170 244 285 330 425
#     4  11  21  40  62  99 134 176 231 286 345 417
#     4  12  22  39  67 100 140 189 229 276 361 424
#     4  11  23  37  66 101 137 173 229 303 351 392
#
# _framework density 20.493005
#
# number of rings (size 3 to 8) (size 9 to 14) (size 15 to 20)
#    0.000    1.000    7.500    2.250    3.500    0.000 
#    0.000    0.000    0.000    7.500    0.000    0.000 
#    0.000    0.000    0.000    0.000    0.000    0.000 
#
# Total GULP energy -178202.625492 kJ/mol
# GULP energy per Si atom -5568.832047 kJ/mol
# Density = 2.044636 g / cm^3
# Si number density = 20.493005 Si / 1000 Ang^3
#
#
#
# Elastic Constant Matrix: (Units=GPa)
#
#
# Indices 1 2 3 4 5 6 
#
# 1 69.5743 28.7080 -25.7392 0.0000 0.0000 0.0000
# 2 28.7080 89.9668 24.6709 0.0000 0.0000 0.0000
# 3 -25.7392 24.6709 77.2035 0.0000 0.0000 0.0000
# 4 0.0000 0.0000 0.0000 29.1123 0.0000 0.0000
# 5 0.0000 0.0000 0.0000 0.0000 20.8692 0.0000
# 6 0.0000 0.0000 0.0000 0.0000 0.0000 44.5264
#
#
#
# Elastic Compliance Matrix: (Units=1/GPa)
#
#
# Indices 1 2 3 4 5 6 
#
# 1 0.022535 -0.010140 0.010753 0.000000 0.000000 0.000000
# 2 -0.010140 0.016745 -0.008732 0.000000 0.000000 0.000000
# 3 0.010753 -0.008732 0.019328 0.000000 0.000000 0.000000
# 4 0.000000 0.000000 0.000000 0.034350 0.000000 0.000000
# 5 0.000000 0.000000 0.000000 0.000000 0.047918 0.000000
# 6 0.000000 0.000000 0.000000 0.000000 0.000000 0.022459
#
#
# Mechanical properties :
#
#
# Convention : Reuss Voigt Hill
#
# Bulk Modulus (GPa) = 23.60015 32.44712 28.02364
# Shear Modulus (GPa) = 25.81387 32.84189 29.32788
#
# Velocity S-wave (km/s) = 3.55300 4.00758 3.78711
# Velocity P-wave (km/s) = 5.32662 6.10589 5.72952
#
# Compressibility (1/GPa) = 0.04237261
#
# Stress axis : x y z
#
# Youngs Moduli (GPa) = 44.37505 59.71893 51.73816
#
# Poissons Ratio (x) = 0.60553 -0.55636
# Poissons Ratio (y) = 0.44995 0.45175
# Poissons Ratio (z) = -0.47718 0.52144
#
# Static dielectric constant tensor:
#      x y z
#    x 1.755180 0.000000 0.000000 
#    y 0.000000 1.808490 0.000000 
#    z 0.000000 0.000000 1.954610 
# 
# From -- ./inp_files/7216.got.cif
#   From: 2010.05.17/outbox.cif.g08.bks.cpg/sg52_4_cif.got.tgz:7216.got - 2010.06.03 12:15:38.
