data_PCOD9411742
_publ_section_title
;
Structure prediction by ZEFSAII (Michael W. Deem and Ramdas Pophale) SiO2 
 PCOD9411742
Probable space group: P N N A
;
_chemical_formula_sum "Si O2"
_cell_formula_units_Z 40
_cell_length_a 11.832433
_cell_length_b 16.216685
_cell_length_c 8.737134
_cell_angle_alpha 90.000000
_cell_angle_beta 90.000000
_cell_angle_gamma 90.000000
_cell_volume 1676.506074
_symmetry_space_group_name_H-M "P N N A"
_symmetry_group_IT_number 52
_symmetry_cell_setting 'orthorhombic'
loop_
_space_group_symop_operation_xyz
x,y,z
1/2-x,-y,z
x,1/2-y,1/2-z
1/2-x,1/2+y,1/2-z
-x,-y,-z
1/2+x,y,-z
-x,1/2+y,1/2+z
1/2+x,1/2-y,1/2+z
loop_
_atom_site_type_symbol
_atom_site_label
_atom_site_fract_x
_atom_site_fract_y
_atom_site_fract_z
Si Si1 0.123571 0.960854 0.792268
Si Si2 0.416899 0.725496 0.601342
Si Si3 0.574456 0.918493 0.849943
Si Si4 0.910309 0.198620 0.403980
Si Si5 0.252799 0.811265 0.121815
O O1 0.122010 0.890534 0.661779
O O2 0.250000 0.000000 0.791182
O O3 0.098386 0.931173 0.967946
O O4 0.012307 0.019043 0.773365
O O5 0.345808 0.750000 0.750000
O O6 0.515151 0.669972 0.671090
O O7 0.473622 0.797085 0.502145
O O8 0.352569 0.663202 0.490232
O O9 0.699505 0.891975 0.798898
O O10 0.929983 0.250000 0.250000
O O11 0.821012 0.250092 0.508999
O O12 0.294557 0.750000 0.250000
#
# Coordination Sequence:
#
# PCOD9411742 Si02
#       5
#     8   8   8   8   8
#     4  11  23  40  68 102 141 187 226 284 357 424
#     4  11  23  41  74  97 135 187 238 295 345 422
#     4  10  22  40  65 100 139 176 230 281 345 428
#     4  11  21  42  67 100 132 179 238 283 341 425
#     4  11  23  40  67 101 135 180 237 284 348 417
#
# _framework density 23.859143
#
# number of rings (size 3 to 8) (size 9 to 14) (size 15 to 20)
#    0.000    1.200    4.000    4.800    2.800    0.000 
#    0.000    4.000    0.000    0.000    0.000    0.000 
#    0.000    0.000    0.000    0.000    0.000    0.000 
#
# Total GULP energy -222705.018056 kJ/mol
# GULP energy per Si atom -5567.625451 kJ/mol
# Density = 2.380484 g / cm^3
# Si number density = 23.859143 Si / 1000 Ang^3
#
#
#
# Elastic Constant Matrix: (Units=GPa)
#
#
# Indices 1 2 3 4 5 6 
#
# 1 85.9344 28.9636 38.7800 0.0000 0.0000 0.0000
# 2 28.9636 95.8114 25.4740 0.0000 0.0000 0.0000
# 3 38.7800 25.4740 84.6051 0.0000 0.0000 0.0000
# 4 0.0000 0.0000 0.0000 31.7182 0.0000 0.0000
# 5 0.0000 0.0000 0.0000 0.0000 31.2388 0.0000
# 6 0.0000 0.0000 0.0000 0.0000 0.0000 17.8446
#
#
#
# Elastic Compliance Matrix: (Units=1/GPa)
#
#
# Indices 1 2 3 4 5 6 
#
# 1 0.015440 -0.003028 -0.006165 0.000000 0.000000 0.000000
# 2 -0.003028 0.011939 -0.002207 0.000000 0.000000 0.000000
# 3 -0.006165 -0.002207 0.015310 0.000000 0.000000 0.000000
# 4 0.000000 0.000000 0.000000 0.031528 0.000000 0.000000
# 5 0.000000 0.000000 0.000000 0.000000 0.032011 0.000000
# 6 0.000000 0.000000 0.000000 0.000000 0.000000 0.056039
#
#
# Mechanical properties :
#
#
# Convention : Reuss Voigt Hill
#
# Bulk Modulus (GPa) = 50.28035 50.30957 50.29496
# Shear Modulus (GPa) = 26.08280 27.70256 26.89268
#
# Velocity S-wave (km/s) = 3.30994 3.41117 3.36094
# Velocity P-wave (km/s) = 5.97722 6.05365 6.01556
#
# Compressibility (1/GPa) = 0.01988848
#
# Stress axis : x y z
#
# Youngs Moduli (GPa) = 64.76852 83.75682 65.31686
#
# Poissons Ratio (x) = 0.25363 0.40269
# Poissons Ratio (y) = 0.19613 0.14414
# Poissons Ratio (z) = 0.39931 0.18484
#
# Static dielectric constant tensor:
#      x y z
#    x 2.117800 0.000000 0.000000 
#    y 0.000000 2.000070 0.000000 
#    z 0.000000 0.000000 2.005160 
# 
# From -- ./inp_files/8537.got.cif
#   From: 2010.05.17/outbox.cif.g08.bks.cpg/sg52_5_cif.got.tgz:8537.got - 2010.06.03 12:15:38.
