data_PCOD9411876
_publ_section_title
;
Structure prediction by ZEFSAII (Michael W. Deem and Ramdas Pophale) SiO2 
 PCOD9411876
Probable space group: P N N A
;
_chemical_formula_sum "Si O2"
_cell_formula_units_Z 48
_cell_length_a 14.876029
_cell_length_b 11.714799
_cell_length_c 13.940095
_cell_angle_alpha 90.000000
_cell_angle_beta 90.000000
_cell_angle_gamma 90.000000
_cell_volume 2429.336029
_symmetry_space_group_name_H-M "P N N A"
_symmetry_group_IT_number 52
_symmetry_cell_setting 'orthorhombic'
loop_
_space_group_symop_operation_xyz
x,y,z
1/2-x,-y,z
x,1/2-y,1/2-z
1/2-x,1/2+y,1/2-z
-x,-y,-z
1/2+x,y,-z
-x,1/2+y,1/2+z
1/2+x,1/2-y,1/2+z
loop_
_atom_site_type_symbol
_atom_site_label
_atom_site_fract_x
_atom_site_fract_y
_atom_site_fract_z
Si Si1 0.750000 0.500000 0.868383
Si Si2 0.407402 0.121516 0.710713
Si Si3 0.072544 0.550810 0.229625
Si Si4 0.809054 0.323529 0.028117
Si Si5 0.555240 0.721597 0.599764
Si Si6 0.645001 0.214882 0.136342
Si Si7 0.250000 0.500000 0.676582
O O1 0.837257 0.513848 0.801980
O O2 0.770466 0.396264 0.940344
O O3 0.425701 0.250000 0.750000
O O4 0.380201 0.116312 0.598777
O O5 0.317840 0.078195 0.763257
O O6 0.488915 0.034994 0.728093
O O7 0.076482 0.616406 0.330354
O O8 0.062714 0.656749 0.155384
O O9 0.723453 0.291487 0.092142
O O10 0.870822 0.223515 0.983665
O O11 0.448827 0.719021 0.579932
O O12 0.630368 0.250000 0.250000
O O13 0.684407 0.411832 0.374404
#
# Coordination Sequence:
#
# PCOD9411876 Si02
#       7
#     4   8   8   8   8   8   4
#     4  10  25  40  67  94 124 170 220 277 328 381
#     4  12  23  39  63  98 131 167 218 270 323 389
#     4  10  22  44  63  91 123 176 214 257 336 400
#     4  11  24  38  61 104 130 154 224 281 316 380
#     4  10  22  41  68  89 128 170 215 267 330 397
#     4  12  21  39  65  93 127 176 210 262 338 388
#     4  12  19  38  63  90 124 174 216 251 318 399
#
# _framework density 19.758486000000001
#
# number of rings (size 3 to 8) (size 9 to 14) (size 15 to 20)
#    0.000    1.000    6.667    0.500    4.667    1.333 
#    6.000    4.167    0.000    0.000    0.000    0.000 
#    0.000    0.000    0.000    0.000    0.000    0.000 
#
# Total GULP energy -267660.541233 kJ/mol
# GULP energy per Si atom -5576.261276 kJ/mol
# Density = 1.971351 g / cm^3
# Si number density = 19.758486 Si / 1000 Ang^3
#
#
#
# Elastic Constant Matrix: (Units=GPa)
#
#
# Indices 1 2 3 4 5 6 
#
# 1 144.7658 36.4859 52.4648 0.0000 0.0000 0.0000
# 2 36.4859 72.6852 11.9920 0.0000 0.0000 0.0000
# 3 52.4648 11.9920 32.2414 0.0000 0.0000 0.0000
# 4 0.0000 0.0000 0.0000 12.7746 0.0000 0.0000
# 5 0.0000 0.0000 0.0000 0.0000 12.4926 0.0000
# 6 0.0000 0.0000 0.0000 0.0000 0.0000 -93.5658
#
#
#
# Elastic Compliance Matrix: (Units=1/GPa)
#
#
# Indices 1 2 3 4 5 6 
#
# 1 0.018126 -0.004509 -0.027818 0.000000 0.000000 0.000000
# 2 -0.004509 0.015779 0.001468 0.000000 0.000000 0.000000
# 3 -0.027818 0.001468 0.075737 0.000000 0.000000 0.000000
# 4 0.000000 0.000000 0.000000 0.078281 0.000000 0.000000
# 5 0.000000 0.000000 0.000000 0.000000 0.080047 0.000000
# 6 0.000000 0.000000 0.000000 0.000000 0.000000 -0.010688
#
#
# Mechanical properties :
#
#
# Convention : Reuss Voigt Hill
#
# Bulk Modulus (GPa) = 20.86623 50.17529 35.52076
# Shear Modulus (GPa) = 14.92656 -3.74308 5.59174
#
# Velocity S-wave (km/s) = 2.75153 -1.37787 1.68410
# Velocity P-wave (km/s) = 4.54732 4.78728 4.66884
#
# Compressibility (1/GPa) = 0.04792432
#
# Stress axis : x y z
#
# Youngs Moduli (GPa) = 55.17035 63.37494 13.20365
#
# Poissons Ratio (x) = 0.28576 0.36730
# Poissons Ratio (y) = 0.24877 -0.01939
# Poissons Ratio (z) = 1.53472 -0.09306
#
# Static dielectric constant tensor:
#      x y z
#    x 1.691380 0.000000 0.000000 
#    y 0.000000 1.744660 0.000000 
#    z 0.000000 0.000000 1.744470 
# 
# From -- ./inp_files/27217.got.cif
#   From: 2010.05.17/outbox.cif.g08.bks.cpg/sg52_14_cif.got.tgz:27217.got - 2010.06.03 12:15:38.
