data_PCOD9411585
_publ_section_title
;
Structure prediction by ZEFSAII (Michael W. Deem and Ramdas Pophale) SiO2 
 PCOD9411585
Probable space group: P N N A
;
_chemical_formula_sum "Si O2"
_cell_formula_units_Z 48
_cell_length_a 16.074671
_cell_length_b 27.694894
_cell_length_c 5.090999
_cell_angle_alpha 90.000000
_cell_angle_beta 90.000000
_cell_angle_gamma 90.000000
_cell_volume 2266.443056
_symmetry_space_group_name_H-M "P N N A"
_symmetry_group_IT_number 52
_symmetry_cell_setting 'orthorhombic'
loop_
_space_group_symop_operation_xyz
x,y,z
1/2-x,-y,z
x,1/2-y,1/2-z
1/2-x,1/2+y,1/2-z
-x,-y,-z
1/2+x,y,-z
-x,1/2+y,1/2+z
1/2+x,1/2-y,1/2+z
loop_
_atom_site_type_symbol
_atom_site_label
_atom_site_fract_x
_atom_site_fract_y
_atom_site_fract_z
Si Si1 0.011288 0.106186 0.888824
Si Si2 0.187775 0.362915 0.727380
Si Si3 0.784018 0.447187 0.002087
Si Si4 0.030369 0.549223 0.870639
Si Si5 0.838485 0.139595 0.840638
Si Si6 0.764938 0.283347 0.998902
O O1 0.995288 0.089150 0.588995
O O2 0.930089 0.137592 0.960013
O O3 0.099573 0.131603 0.906847
O O4 0.010369 0.061933 0.093199
O O5 0.214840 0.414100 0.855722
O O6 0.264409 0.349201 0.539411
O O7 0.188652 0.319060 0.932813
O O8 0.750000 0.500000 0.935549
O O9 0.869770 0.452405 0.164112
O O10 0.814278 0.413871 0.761846
O O11 0.000000 0.500000 0.000000
O O12 0.833777 0.177938 0.602652
O O13 0.785701 0.250000 0.250000
O O14 0.747356 0.250000 0.750000
#
# Coordination Sequence:
#
# PCOD9411585 Si02
#       6
#     8   8   8   8   8   8
#     4  11  25  41  64  94 134 173 224 275 324 392
#     4  11  23  42  69  94 134 179 218 273 339 389
#     4  10  22  38  62  96 134 181 225 268 323 391
#     4  11  23  40  59  93 134 177 230 277 317 377
#     4  10  23  44  65  97 133 174 221 271 337 390
#     4  11  23  43  74  97 127 171 215 276 343 405
#
# _framework density 21.178560000000001
#
# number of rings (size 3 to 8) (size 9 to 14) (size 15 to 20)
#    0.000    1.333    3.333    1.500    7.000    0.667 
#    0.000    1.667    0.000    0.000    0.000    0.000 
#    0.000    0.000    0.000    0.000    0.000    0.000 
#
# Total GULP energy -267952.377153 kJ/mol
# GULP energy per Si atom -5582.341191 kJ/mol
# Density = 2.113036 g / cm^3
# Si number density = 21.178560 Si / 1000 Ang^3
#
#
#
# Elastic Constant Matrix: (Units=GPa)
#
#
# Indices 1 2 3 4 5 6 
#
# 1 142.4804 37.7228 34.7543 0.0000 0.0000 0.0000
# 2 37.7228 131.1720 46.1654 0.0000 0.0000 0.0000
# 3 34.7543 46.1654 88.5566 0.0000 0.0000 0.0000
# 4 0.0000 0.0000 0.0000 35.0599 0.0000 0.0000
# 5 0.0000 0.0000 0.0000 0.0000 23.0988 0.0000
# 6 0.0000 0.0000 0.0000 0.0000 0.0000 -2.6767
#
#
#
# Elastic Compliance Matrix: (Units=1/GPa)
#
#
# Indices 1 2 3 4 5 6 
#
# 1 0.007984 -0.001461 -0.002371 0.000000 0.000000 0.000000
# 2 -0.001461 0.009604 -0.004433 0.000000 0.000000 0.000000
# 3 -0.002371 -0.004433 0.014534 0.000000 0.000000 0.000000
# 4 0.000000 0.000000 0.000000 0.028523 0.000000 0.000000
# 5 0.000000 0.000000 0.000000 0.000000 0.043292 0.000000
# 6 0.000000 0.000000 0.000000 0.000000 0.000000 -0.373601
#
#
# Mechanical properties :
#
#
# Convention : Reuss Voigt Hill
#
# Bulk Modulus (GPa) = 64.14425 66.61045 65.37735
# Shear Modulus (GPa) = -20.16650 27.33420 3.58385
#
# Velocity S-wave (km/s) = -3.08914 3.59646 1.30226
# Velocity P-wave (km/s) = 4.19873 6.98328 5.76175
#
# Compressibility (1/GPa) = 0.01558986
#
# Stress axis : x y z
#
# Youngs Moduli (GPa) = 125.25243 104.12230 68.80443
#
# Poissons Ratio (x) = 0.15216 0.16317
# Poissons Ratio (y) = 0.18304 0.30502
# Poissons Ratio (z) = 0.29703 0.46159
#
# Static dielectric constant tensor:
#      x y z
#    x 1.765800 0.000000 0.000000 
#    y 0.000000 1.786840 0.000000 
#    z 0.000000 0.000000 1.858510 
# 
# From -- ./inp_files/2468.got.cif
#   From: 2010.05.17/outbox.cif.g08.bks.cpg/sg52_2_cif.got.tgz:2468.got - 2010.06.03 12:15:38.
