data_PCOD9411534
_publ_section_title
;
Structure prediction by ZEFSAII (Michael W. Deem and Ramdas Pophale) SiO2 
 PCOD9411534
Probable space group: P N N A
;
_chemical_formula_sum "Si O2"
_cell_formula_units_Z 60
_cell_length_a 11.145444
_cell_length_b 8.839077
_cell_length_c 28.029737
_cell_angle_alpha 90.000000
_cell_angle_beta 90.000000
_cell_angle_gamma 90.000000
_cell_volume 2761.361810
_symmetry_space_group_name_H-M "P N N A"
_symmetry_group_IT_number 52
_symmetry_cell_setting 'orthorhombic'
loop_
_space_group_symop_operation_xyz
x,y,z
1/2-x,-y,z
x,1/2-y,1/2-z
1/2-x,1/2+y,1/2-z
-x,-y,-z
1/2+x,y,-z
-x,1/2+y,1/2+z
1/2+x,1/2-y,1/2+z
loop_
_atom_site_type_symbol
_atom_site_label
_atom_site_fract_x
_atom_site_fract_y
_atom_site_fract_z
Si Si1 0.322764 0.848695 0.526644
Si Si2 0.069268 0.211031 0.358837
Si Si3 0.442629 0.385671 0.088575
Si Si4 0.912766 0.715346 0.172242
Si Si5 0.800636 0.175245 0.112763
Si Si6 0.609422 0.020972 0.244041
Si Si7 0.444527 0.750000 0.250000
Si Si8 0.775337 0.825559 0.938307
O O1 0.444019 0.898336 0.553407
O O2 0.239477 0.747610 0.562149
O O3 0.353503 0.748820 0.480575
O O4 0.250000 0.000000 0.514573
O O5 0.107526 0.200636 0.302305
O O6 0.161007 0.317464 0.387272
O O7 0.937058 0.282970 0.372026
O O8 0.082113 0.047712 0.386192
O O9 0.490974 0.280707 0.131307
O O10 0.337064 0.290058 0.064665
O O11 0.781941 0.736960 0.150611
O O12 0.931720 0.845697 0.210104
O O13 0.914535 0.560187 0.201052
O O14 0.750000 0.000000 0.114156
O O15 0.750000 0.000000 0.237285
O O16 0.532117 0.879542 0.231958
O O17 0.750000 0.000000 0.950035
#
# Coordination Sequence:
#
# PCOD9411534 Si02
#       8
#     8   8   8   8   8   8   4   8
#     4  11  24  46  79 112 142 184 227 291 371 448
#     4  12  25  47  71 103 146 192 247 300 359 436
#     4  11  25  48  74 104 146 186 241 293 361 443
#     4  10  22  37  63 100 144 184 226 288 361 422
#     4  11  23  39  69 109 149 183 231 294 365 431
#     4  11  20  35  59  99 142 184 229 290 356 429
#     4  12  24  38  68 102 138 190 252 290 360 418
#     4  12  31  49  73 103 143 191 243 306 363 432
#
# _framework density 21.728408999999999
#
# number of rings (size 3 to 8) (size 9 to 14) (size 15 to 20)
#    0.000    0.800    2.667    5.200    7.467    1.600 
#    0.000    2.667    0.000    0.000    0.000    0.000 
#    0.000    0.000    0.000    0.000    0.000    0.000 
#
# Total GULP energy -334838.788050 kJ/mol
# GULP energy per Si atom -5580.646468 kJ/mol
# Density = 2.167895 g / cm^3
# Si number density = 21.728409 Si / 1000 Ang^3
#
#
#
# Elastic Constant Matrix: (Units=GPa)
#
#
# Indices 1 2 3 4 5 6 
#
# 1 31.7774 11.6988 5.5186 0.0000 0.0000 0.0000
# 2 11.6988 94.1516 27.6241 0.0000 0.0000 0.0000
# 3 5.5186 27.6241 113.3167 0.0000 0.0000 0.0000
# 4 0.0000 0.0000 0.0000 40.7393 0.0000 0.0000
# 5 0.0000 0.0000 0.0000 0.0000 34.7964 0.0000
# 6 0.0000 0.0000 0.0000 0.0000 0.0000 23.1240
#
#
#
# Elastic Compliance Matrix: (Units=1/GPa)
#
#
# Indices 1 2 3 4 5 6 
#
# 1 0.033022 -0.003911 -0.000655 0.000000 0.000000 0.000000
# 2 -0.003911 0.011903 -0.002711 0.000000 0.000000 0.000000
# 3 -0.000655 -0.002711 0.009518 0.000000 0.000000 0.000000
# 4 0.000000 0.000000 0.000000 0.024546 0.000000 0.000000
# 5 0.000000 0.000000 0.000000 0.000000 0.028739 0.000000
# 6 0.000000 0.000000 0.000000 0.000000 0.000000 0.043245
#
#
# Mechanical properties :
#
#
# Convention : Reuss Voigt Hill
#
# Bulk Modulus (GPa) = 25.06976 36.54763 30.80869
# Shear Modulus (GPa) = 27.96062 32.69222 30.32642
#
# Velocity S-wave (km/s) = 3.59112 3.88311 3.73996
# Velocity P-wave (km/s) = 5.36262 6.07959 5.73233
#
# Compressibility (1/GPa) = 0.03988869
#
# Stress axis : x y z
#
# Youngs Moduli (GPa) = 30.28244 84.01543 105.06825
#
# Poissons Ratio (x) = 0.32859 0.06880
# Poissons Ratio (y) = 0.11844 0.28485
# Poissons Ratio (z) = 0.01983 0.22778
#
# Static dielectric constant tensor:
#      x y z
#    x 1.736370 0.000000 0.000000 
#    y 0.000000 1.780750 0.000000 
#    z 0.000000 0.000000 1.812080 
# 
# From -- ./inp_files/42796.got.cif
#   From: 2010.05.17/outbox.cif.g08.bks.cpg/sg52_22_cif.got.tgz:42796.got - 2010.06.03 12:15:38.
