data_PCOD9411768
_publ_section_title
;
Structure prediction by ZEFSAII (Michael W. Deem and Ramdas Pophale) SiO2 
 PCOD9411768
Probable space group: P N N A
;
_chemical_formula_sum "Si O2"
_cell_formula_units_Z 56
_cell_length_a 28.760359
_cell_length_b 15.304888
_cell_length_c 5.280448
_cell_angle_alpha 90.000000
_cell_angle_beta 90.000000
_cell_angle_gamma 90.000000
_cell_volume 2324.316305
_symmetry_space_group_name_H-M "P N N A"
_symmetry_group_IT_number 52
_symmetry_cell_setting 'orthorhombic'
loop_
_space_group_symop_operation_xyz
x,y,z
1/2-x,-y,z
x,1/2-y,1/2-z
1/2-x,1/2+y,1/2-z
-x,-y,-z
1/2+x,y,-z
-x,1/2+y,1/2+z
1/2+x,1/2-y,1/2+z
loop_
_atom_site_type_symbol
_atom_site_label
_atom_site_fract_x
_atom_site_fract_y
_atom_site_fract_z
Si Si1 0.069460 0.493605 0.512716
Si Si2 0.632285 0.590788 0.835225
Si Si3 0.457002 0.848939 0.341916
Si Si4 0.443380 0.343387 0.888879
Si Si5 0.134485 0.082065 0.628782
Si Si6 0.728101 0.907780 0.899154
Si Si7 0.233046 0.161317 0.605653
O O1 0.084565 0.556824 0.289215
O O2 0.037463 0.417775 0.394200
O O3 0.059682 0.563573 0.734736
O O4 0.116229 0.440987 0.592596
O O5 0.673139 0.606369 0.639292
O O6 0.608504 0.667118 0.993250
O O7 0.649233 0.509728 0.004163
O O8 0.449267 0.750000 0.250000
O O9 0.504417 0.852139 0.506895
O O10 0.411489 0.880384 0.492327
O O11 0.449443 0.250000 0.750000
O O12 0.178068 0.144412 0.615620
O O13 0.750194 0.845722 0.682076
O O14 0.750000 0.000000 0.815883
O O15 0.741752 0.901704 0.192913
O O16 0.243728 0.250000 0.750000
#
# Coordination Sequence:
#
# PCOD9411768 Si02
#       7
#     8   8   8   8   8   8   8
#     4  10  22  40  66  97 130 182 228 287 346 421
#     4  10  23  43  69  95 133 183 235 286 353 419
#     4  10  23  40  66 100 137 181 228 284 357 427
#     4  10  23  43  65  98 137 180 234 289 348 424
#     4  10  23  42  66  99 135 180 225 289 353 427
#     4  12  25  47  74 101 140 191 238 294 359 439
#     4  12  28  45  71 108 143 179 238 304 362 429
#
# _framework density 24.093105000000001
#
# number of rings (size 3 to 8) (size 9 to 14) (size 15 to 20)
#    0.000    1.429    1.429    2.143    8.000    7.429 
#    2.571    2.857    0.000    0.000    0.000    0.000 
#    0.000    0.000    0.000    0.000    0.000    0.000 
#
# Total GULP energy -312030.784153 kJ/mol
# GULP energy per Si atom -5571.978288 kJ/mol
# Density = 2.403827 g / cm^3
# Si number density = 24.093105 Si / 1000 Ang^3
#
#
#
# Elastic Constant Matrix: (Units=GPa)
#
#
# Indices 1 2 3 4 5 6 
#
# 1 121.5153 28.5645 9.5880 0.0000 0.0000 0.0000
# 2 28.5645 81.0510 0.3695 0.0000 0.0000 0.0000
# 3 9.5880 0.3695 39.9681 0.0000 0.0000 0.0000
# 4 0.0000 0.0000 0.0000 21.5806 0.0000 0.0000
# 5 0.0000 0.0000 0.0000 0.0000 27.8348 0.0000
# 6 0.0000 0.0000 0.0000 0.0000 0.0000 17.0948
#
#
#
# Elastic Compliance Matrix: (Units=1/GPa)
#
#
# Indices 1 2 3 4 5 6 
#
# 1 0.009157 -0.003217 -0.002167 0.000000 0.000000 0.000000
# 2 -0.003217 0.013469 0.000647 0.000000 0.000000 0.000000
# 3 -0.002167 0.000647 0.025534 0.000000 0.000000 0.000000
# 4 0.000000 0.000000 0.000000 0.046338 0.000000 0.000000
# 5 0.000000 0.000000 0.000000 0.000000 0.035926 0.000000
# 6 0.000000 0.000000 0.000000 0.000000 0.000000 0.058497
#
#
# Mechanical properties :
#
#
# Convention : Reuss Voigt Hill
#
# Bulk Modulus (GPa) = 25.84938 35.50871 30.67904
# Shear Modulus (GPa) = 23.66423 26.90288 25.28356
#
# Velocity S-wave (km/s) = 3.13741 3.34521 3.24297
# Velocity P-wave (km/s) = 4.88638 5.44892 5.17530
#
# Compressibility (1/GPa) = 0.03868565
#
# Stress axis : x y z
#
# Youngs Moduli (GPa) = 109.21027 74.24586 39.16384
#
# Poissons Ratio (x) = 0.23886 0.08486
# Poissons Ratio (y) = 0.35135 -0.02535
# Poissons Ratio (z) = 0.23664 -0.04806
#
# Static dielectric constant tensor:
#      x y z
#    x 1.976980 0.000000 0.000000 
#    y 0.000000 1.980310 0.000000 
#    z 0.000000 0.000000 2.102800 
# 
# From -- ./inp_files/6413.got.cif
#   From: 2010.05.17/outbox.cif.g08.bks.cpg/sg52_4_cif.got.tgz:6413.got - 2010.06.03 12:15:38.
