data_PCOD9411143
_publ_section_title
;
Structure prediction by ZEFSAII (Michael W. Deem and Ramdas Pophale) SiO2 
 PCOD9411143
Probable space group: P N N A
;
_chemical_formula_sum "Si O2"
_cell_formula_units_Z 36
_cell_length_a 19.886516
_cell_length_b 5.736619
_cell_length_c 13.018600
_cell_angle_alpha 90.000000
_cell_angle_beta 90.000000
_cell_angle_gamma 90.000000
_cell_volume 1485.179665
_symmetry_space_group_name_H-M "P N N A"
_symmetry_group_IT_number 52
_symmetry_cell_setting 'orthorhombic'
loop_
_space_group_symop_operation_xyz
x,y,z
1/2-x,-y,z
x,1/2-y,1/2-z
1/2-x,1/2+y,1/2-z
-x,-y,-z
1/2+x,y,-z
-x,1/2+y,1/2+z
1/2+x,1/2-y,1/2+z
loop_
_atom_site_type_symbol
_atom_site_label
_atom_site_fract_x
_atom_site_fract_y
_atom_site_fract_z
Si Si1 0.988519 0.718495 0.361073
Si Si2 0.815820 0.337521 0.473870
Si Si3 0.638495 0.578739 0.842518
Si Si4 0.575567 0.321030 0.563976
Si Si5 0.289368 0.250000 0.750000
O O1 0.954035 0.750000 0.250000
O O2 0.059531 0.851264 0.353245
O O3 0.013017 0.451461 0.381817
O O4 0.949982 0.810052 0.461398
O O5 0.750000 0.500000 0.476807
O O6 0.815831 0.139405 0.559730
O O7 0.878916 0.485351 0.510209
O O8 0.826778 0.250881 0.358548
O O9 0.662122 0.750000 0.750000
O O10 0.625383 0.303452 0.856043
O O11 0.250000 0.500000 0.750773
#
# Coordination Sequence:
#
# PCOD9411143 Si02
#       5
#     8   8   8   8   4
#     4   9  20  38  62  97 125 169 214 276 338 405
#     4  10  24  42  62  98 129 174 224 278 340 411
#     4  10  22  40  64  96 129 175 220 279 340 400
#     4  10  21  40  65  91 134 170 221 276 337 411
#     4  10  24  44  70  96 136 182 224 290 350 406
#
# _framework density 24.239493
#
# number of rings (size 3 to 8) (size 9 to 14) (size 15 to 20)
#    0.000    2.222    0.000    0.667    6.222    9.778 
#    6.000    4.444    0.000    0.000    0.000    0.000 
#    0.000    0.000    0.000    0.000    0.000    0.000 
#
# Total GULP energy -200523.007584 kJ/mol
# GULP energy per Si atom -5570.083544 kJ/mol
# Density = 2.418432 g / cm^3
# Si number density = 24.239493 Si / 1000 Ang^3
#
#
#
# Elastic Constant Matrix: (Units=GPa)
#
#
# Indices 1 2 3 4 5 6 
#
# 1 37.0595 6.2139 23.3205 0.0000 0.0000 0.0000
# 2 6.2139 73.3888 59.4521 0.0000 0.0000 0.0000
# 3 23.3205 59.4521 250.6350 0.0000 0.0000 0.0000
# 4 0.0000 0.0000 0.0000 27.2481 0.0000 0.0000
# 5 0.0000 0.0000 0.0000 0.0000 31.9077 0.0000
# 6 0.0000 0.0000 0.0000 0.0000 0.0000 28.2482
#
#
#
# Elastic Compliance Matrix: (Units=1/GPa)
#
#
# Indices 1 2 3 4 5 6 
#
# 1 0.028668 -0.000330 -0.002589 0.000000 0.000000 0.000000
# 2 -0.000330 0.016871 -0.003971 0.000000 0.000000 0.000000
# 3 -0.002589 -0.003971 0.005173 0.000000 0.000000 0.000000
# 4 0.000000 0.000000 0.000000 0.036700 0.000000 0.000000
# 5 0.000000 0.000000 0.000000 0.000000 0.031340 0.000000
# 6 0.000000 0.000000 0.000000 0.000000 0.000000 0.035400
#
#
# Mechanical properties :
#
#
# Convention : Reuss Voigt Hill
#
# Bulk Modulus (GPa) = 27.07713 59.89516 43.48614
# Shear Modulus (GPa) = 27.74019 35.62059 31.68039
#
# Velocity S-wave (km/s) = 3.38660 3.83760 3.61913
# Velocity P-wave (km/s) = 5.14655 6.66330 5.95343
#
# Compressibility (1/GPa) = 0.03693154
#
# Stress axis : x y z
#
# Youngs Moduli (GPa) = 34.88174 59.27306 193.31965
#
# Poissons Ratio (x) = 0.01955 0.50055
# Poissons Ratio (y) = 0.01151 0.76772
# Poissons Ratio (z) = 0.09032 0.23539
#
# Static dielectric constant tensor:
#      x y z
#    x 1.911420 0.000000 0.000000 
#    y 0.000000 2.165240 0.000000 
#    z 0.000000 0.000000 2.034600 
# 
# From -- ./inp_files/22071.got.cif
#   From: 2010.05.17/outbox.cif.g08.bks.cpg/sg52_12_cif.got.tgz:22071.got - 2010.06.03 12:15:38.
