data_PCOD9411419
_publ_section_title
;
Structure prediction by ZEFSAII (Michael W. Deem and Ramdas Pophale) SiO2 
 PCOD9411419
Probable space group: P N N A
;
_chemical_formula_sum "Si O2"
_cell_formula_units_Z 60
_cell_length_a 11.349792
_cell_length_b 16.931881
_cell_length_c 12.055090
_cell_angle_alpha 90.000000
_cell_angle_beta 90.000000
_cell_angle_gamma 90.000000
_cell_volume 2316.666759
_symmetry_space_group_name_H-M "P N N A"
_symmetry_group_IT_number 52
_symmetry_cell_setting 'orthorhombic'
loop_
_space_group_symop_operation_xyz
x,y,z
1/2-x,-y,z
x,1/2-y,1/2-z
1/2-x,1/2+y,1/2-z
-x,-y,-z
1/2+x,y,-z
-x,1/2+y,1/2+z
1/2+x,1/2-y,1/2+z
loop_
_atom_site_type_symbol
_atom_site_label
_atom_site_fract_x
_atom_site_fract_y
_atom_site_fract_z
Si Si1 0.250000 0.500000 0.565414
Si Si2 0.369003 0.909202 0.116758
Si Si3 0.098007 0.570494 0.724826
Si Si4 0.261490 0.252321 0.067736
Si Si5 0.461311 0.735258 0.924281
Si Si6 0.625866 0.541221 0.034622
Si Si7 0.968855 0.885203 0.218122
Si Si8 0.212923 0.897532 0.297085
O O1 0.352157 0.527861 0.481033
O O2 0.212321 0.571548 0.646511
O O3 0.501009 0.887903 0.148498
O O4 0.287167 0.835509 0.086370
O O5 0.323651 0.937232 0.238512
O O6 0.100714 0.593435 0.854237
O O7 0.075339 0.474888 0.728048
O O8 0.401303 0.258858 0.033375
O O9 0.256182 0.308020 0.174407
O O10 0.153451 0.287209 0.994940
O O11 0.435627 0.823053 0.876697
O O12 0.457857 0.668167 0.828874
O O13 0.750000 0.500000 0.072326
O O14 0.500000 0.500000 0.000000
O O15 0.668672 0.573366 0.916126
O O16 0.107879 0.898097 0.210357
#
# Coordination Sequence:
#
# PCOD9411419 Si02
#       8
#     4   8   8   8   8   8   8   8
#     4  12  28  44  70 106 150 200 244 318 380 458
#     4  12  26  44  73 104 147 202 254 305 384 463
#     4  12  26  46  71 110 151 196 257 319 386 462
#     4  11  25  43  75 104 144 191 251 310 370 462
#     4  10  23  43  71 102 142 194 250 307 376 454
#     4  12  26  45  77 112 153 195 250 324 388 456
#     4  10  21  44  69  95 144 198 244 298 377 459
#     4  11  24  45  75 108 141 196 256 303 380 456
#
# _framework density 25.899281999999999
#
# number of rings (size 3 to 8) (size 9 to 14) (size 15 to 20)
#    0.000    0.800    3.333    3.200    4.667    2.133 
#    0.000    0.000    2.933    0.000    0.000    0.000 
#    0.000    0.000    0.000    0.000    0.000    0.000 
#
# Total GULP energy -334566.086164 kJ/mol
# GULP energy per Si atom -5576.101436 kJ/mol
# Density = 2.584033 g / cm^3
# Si number density = 25.899282 Si / 1000 Ang^3
#
#
#
# Elastic Constant Matrix: (Units=GPa)
#
#
# Indices 1 2 3 4 5 6 
#
# 1 154.2938 8.3740 48.1177 0.0000 0.0000 0.0000
# 2 8.3740 81.7565 5.1983 0.0000 0.0000 0.0000
# 3 48.1177 5.1983 131.8327 0.0000 0.0000 0.0000
# 4 0.0000 0.0000 0.0000 32.2883 0.0000 0.0000
# 5 0.0000 0.0000 0.0000 0.0000 34.2313 0.0000
# 6 0.0000 0.0000 0.0000 0.0000 0.0000 33.0672
#
#
#
# Elastic Compliance Matrix: (Units=1/GPa)
#
#
# Indices 1 2 3 4 5 6 
#
# 1 0.007341 -0.000583 -0.002656 0.000000 0.000000 0.000000
# 2 -0.000583 0.012308 -0.000273 0.000000 0.000000 0.000000
# 3 -0.002656 -0.000273 0.008566 0.000000 0.000000 0.000000
# 4 0.000000 0.000000 0.000000 0.030971 0.000000 0.000000
# 5 0.000000 0.000000 0.000000 0.000000 0.029213 0.000000
# 6 0.000000 0.000000 0.000000 0.000000 0.000000 0.030241
#
#
# Mechanical properties :
#
#
# Convention : Reuss Voigt Hill
#
# Bulk Modulus (GPa) = 47.18911 54.58476 50.88694
# Shear Modulus (GPa) = 37.67082 40.33023 39.00052
#
# Velocity S-wave (km/s) = 3.81794 3.95041 3.88474
# Velocity P-wave (km/s) = 6.13966 6.47528 6.30970
#
# Compressibility (1/GPa) = 0.02119133
#
# Stress axis : x y z
#
# Youngs Moduli (GPa) = 136.21687 81.24475 116.74447
#
# Poissons Ratio (x) = 0.04737 0.31013
# Poissons Ratio (y) = 0.07942 0.03182
# Poissons Ratio (z) = 0.36186 0.02214
#
# Static dielectric constant tensor:
#      x y z
#    x 2.108630 0.000000 0.000000 
#    y 0.000000 2.145530 0.000000 
#    z 0.000000 0.000000 2.114920 
# 
# From -- ./inp_files/18399.got.cif
#   From: 2010.05.17/outbox.cif.g08.bks.cpg/sg52_10_cif.got.tgz:18399.got - 2010.06.03 12:15:38.
