data_PCOD9411106
_publ_section_title
;
Structure prediction by ZEFSAII (Michael W. Deem and Ramdas Pophale) SiO2 
 PCOD9411106
Probable space group: P N N A
;
_chemical_formula_sum "Si O2"
_cell_formula_units_Z 48
_cell_length_a 11.849083
_cell_length_b 9.173054
_cell_length_c 22.931798
_cell_angle_alpha 90.000000
_cell_angle_beta 90.000000
_cell_angle_gamma 90.000000
_cell_volume 2492.509368
_symmetry_space_group_name_H-M "P N N A"
_symmetry_group_IT_number 52
_symmetry_cell_setting 'orthorhombic'
loop_
_space_group_symop_operation_xyz
x,y,z
1/2-x,-y,z
x,1/2-y,1/2-z
1/2-x,1/2+y,1/2-z
-x,-y,-z
1/2+x,y,-z
-x,1/2+y,1/2+z
1/2+x,1/2-y,1/2+z
loop_
_atom_site_type_symbol
_atom_site_label
_atom_site_fract_x
_atom_site_fract_y
_atom_site_fract_z
Si Si1 0.049332 0.658669 0.515041
Si Si2 0.267165 0.331706 0.612139
Si Si3 0.381129 0.325891 0.098284
Si Si4 0.121269 0.330036 0.099220
Si Si5 0.943908 0.337126 0.190961
Si Si6 0.573574 0.180574 0.314461
O O1 0.172156 0.661939 0.548102
O O2 0.061811 0.742104 0.454597
O O3 0.000000 0.500000 0.500000
O O4 0.957000 0.738819 0.555599
O O5 0.250000 0.500000 0.629017
O O6 0.361020 0.246964 0.648199
O O7 0.155158 0.247290 0.634911
O O8 0.250385 0.282758 0.100406
O O9 0.385807 0.498406 0.084078
O O10 0.448776 0.298706 0.158199
O O11 0.067309 0.322513 0.163239
O O12 0.936842 0.250000 0.250000
O O13 0.910013 0.506743 0.192971
O O14 0.589610 0.250000 0.250000
#
# Coordination Sequence:
#
# PCOD9411106 Si02
#       6
#     8   8   8   8   8   8
#     4  11  24  39  62  90 126 163 206 263 316 370
#     4  11  23  39  60  91 125 164 204 257 315 374
#     4  10  22  41  64  86 124 163 212 252 311 377
#     4   9  22  42  60  89 118 165 212 253 304 381
#     4  10  21  40  63  88 124 164 207 258 311 371
#     4  11  23  40  64  94 126 163 210 259 317 377
#
# _framework density 19.2577
#
# number of rings (size 3 to 8) (size 9 to 14) (size 15 to 20)
#    0.000    1.667    0.000    3.500    4.667    2.000 
#    6.000    0.000    0.000    0.000    0.000    0.000 
#    0.000    0.000    0.000    0.000    0.000    0.000 
#
# Total GULP energy -267599.460794 kJ/mol
# GULP energy per Si atom -5574.988767 kJ/mol
# Density = 1.921387 g / cm^3
# Si number density = 19.257700 Si / 1000 Ang^3
#
#
#
# Elastic Constant Matrix: (Units=GPa)
#
#
# Indices 1 2 3 4 5 6 
#
# 1 100.9579 25.5925 29.0800 0.0000 0.0000 0.0000
# 2 25.5925 78.7255 42.1812 0.0000 0.0000 0.0000
# 3 29.0800 42.1812 84.8247 0.0000 0.0000 0.0000
# 4 0.0000 0.0000 0.0000 -37.8922 0.0000 0.0000
# 5 0.0000 0.0000 0.0000 0.0000 23.1594 0.0000
# 6 0.0000 0.0000 0.0000 0.0000 0.0000 8.5094
#
#
#
# Elastic Compliance Matrix: (Units=1/GPa)
#
#
# Indices 1 2 3 4 5 6 
#
# 1 0.011256 -0.002170 -0.002780 0.000000 0.000000 0.000000
# 2 -0.002170 0.017734 -0.008075 0.000000 0.000000 0.000000
# 3 -0.002780 -0.008075 0.016758 0.000000 0.000000 0.000000
# 4 0.000000 0.000000 0.000000 -0.026391 0.000000 0.000000
# 5 0.000000 0.000000 0.000000 0.000000 0.043179 0.000000
# 6 0.000000 0.000000 0.000000 0.000000 0.000000 0.117517
#
#
# Mechanical properties :
#
#
# Convention : Reuss Voigt Hill
#
# Bulk Modulus (GPa) = 50.76502 50.91282 50.83892
# Shear Modulus (GPa) = 23.51084 9.93228 16.72156
#
# Velocity S-wave (km/s) = 3.49786 2.27349 2.94990
# Velocity P-wave (km/s) = 6.53693 5.77812 6.16921
#
# Compressibility (1/GPa) = 0.01969860
#
# Stress axis : x y z
#
# Youngs Moduli (GPa) = 88.84287 56.38795 59.67472
#
# Poissons Ratio (x) = 0.12234 0.16589
# Poissons Ratio (y) = 0.19276 0.48187
# Poissons Ratio (z) = 0.24697 0.45533
#
# Static dielectric constant tensor:
#      x y z
#    x 1.709520 0.000000 0.000000 
#    y 0.000000 1.648350 0.000000 
#    z 0.000000 0.000000 1.683580 
# 
# From -- ./inp_files/40145.got.cif
#   From: 2010.05.17/outbox.cif.g08.bks.cpg/sg52_21_cif.got.tgz:40145.got - 2010.06.03 12:15:38.
