data_PCOD9411397
_publ_section_title
;
Structure prediction by ZEFSAII (Michael W. Deem and Ramdas Pophale) SiO2 
 PCOD9411397
Probable space group: P N N A
;
_chemical_formula_sum "Si O2"
_cell_formula_units_Z 40
_cell_length_a 8.862526
_cell_length_b 9.930405
_cell_length_c 20.949733
_cell_angle_alpha 90.000000
_cell_angle_beta 90.000000
_cell_angle_gamma 90.000000
_cell_volume 1843.754001
_symmetry_space_group_name_H-M "P N N A"
_symmetry_group_IT_number 52
_symmetry_cell_setting 'orthorhombic'
loop_
_space_group_symop_operation_xyz
x,y,z
1/2-x,-y,z
x,1/2-y,1/2-z
1/2-x,1/2+y,1/2-z
-x,-y,-z
1/2+x,y,-z
-x,1/2+y,1/2+z
1/2+x,1/2-y,1/2+z
loop_
_atom_site_type_symbol
_atom_site_label
_atom_site_fract_x
_atom_site_fract_y
_atom_site_fract_z
Si Si1 0.889797 0.221777 0.395830
Si Si2 0.428216 0.009370 0.710375
Si Si3 0.882246 0.398416 0.969046
Si Si4 0.077001 0.453908 0.336184
Si Si5 0.450164 0.746658 0.644334
O O1 0.939559 0.087864 0.357064
O O2 0.846977 0.194193 0.469304
O O3 0.729777 0.254273 0.364027
O O4 0.014454 0.336776 0.382603
O O5 0.525916 0.082907 0.764119
O O6 0.250000 0.000000 0.727635
O O7 0.483404 0.857247 0.698850
O O8 0.750000 0.500000 0.946947
O O9 0.957851 0.306920 0.915568
O O10 0.000000 0.500000 0.000000
O O11 0.250000 0.500000 0.341574
O O12 0.991290 0.593214 0.347275
#
# Coordination Sequence:
#
# PCOD9411397 Si02
#       5
#     8   8   8   8   8
#     4  11  23  44  68  95 130 174 217 263 328 397
#     4  10  21  43  70  93 125 173 221 262 319 401
#     4  12  23  43  71 103 128 166 220 272 323 390
#     4  12  28  41  60  98 135 171 216 273 333 377
#     4  11  24  43  69  95 130 175 216 265 324 396
#
# _framework density 21.694870000000002
#
# number of rings (size 3 to 8) (size 9 to 14) (size 15 to 20)
#    0.000    0.800    4.000    3.600    2.800    8.000 
#    0.000    0.000    0.000    0.000    0.000    0.000 
#    0.000    0.000    0.000    0.000    0.000    0.000 
#
# Total GULP energy -223385.766863 kJ/mol
# GULP energy per Si atom -5584.644172 kJ/mol
# Density = 2.164549 g / cm^3
# Si number density = 21.694870 Si / 1000 Ang^3
#
#
#
# Elastic Constant Matrix: (Units=GPa)
#
#
# Indices 1 2 3 4 5 6 
#
# 1 81.3292 17.9389 1.4169 0.0000 0.0000 0.0000
# 2 17.9389 107.9456 18.1957 0.0000 0.0000 0.0000
# 3 1.4169 18.1957 61.4655 0.0000 0.0000 0.0000
# 4 0.0000 0.0000 0.0000 13.0747 0.0000 0.0000
# 5 0.0000 0.0000 0.0000 0.0000 25.5165 0.0000
# 6 0.0000 0.0000 0.0000 0.0000 0.0000 37.8419
#
#
#
# Elastic Compliance Matrix: (Units=1/GPa)
#
#
# Indices 1 2 3 4 5 6 
#
# 1 0.012771 -0.002182 0.000351 0.000000 0.000000 0.000000
# 2 -0.002182 0.010123 -0.002946 0.000000 0.000000 0.000000
# 3 0.000351 -0.002946 0.017133 0.000000 0.000000 0.000000
# 4 0.000000 0.000000 0.000000 0.076483 0.000000 0.000000
# 5 0.000000 0.000000 0.000000 0.000000 0.039190 0.000000
# 6 0.000000 0.000000 0.000000 0.000000 0.000000 0.026426
#
#
# Mechanical properties :
#
#
# Convention : Reuss Voigt Hill
#
# Bulk Modulus (GPa) = 32.81472 36.20481 34.50977
# Shear Modulus (GPa) = 24.77234 29.49922 27.13578
#
# Velocity S-wave (km/s) = 3.38280 3.69146 3.54049
# Velocity P-wave (km/s) = 5.51508 5.90708 5.71444
#
# Compressibility (1/GPa) = 0.03047413
#
# Stress axis : x y z
#
# Youngs Moduli (GPa) = 78.30384 98.78365 58.36540
#
# Poissons Ratio (x) = 0.21550 -0.02051
# Poissons Ratio (y) = 0.17082 0.17197
# Poissons Ratio (z) = -0.02752 0.29106
#
# Static dielectric constant tensor:
#      x y z
#    x 1.703130 0.000000 0.000000 
#    y 0.000000 1.846970 0.000000 
#    z 0.000000 0.000000 1.931140 
# 
# From -- ./inp_files/39204.got.cif
#   From: 2010.05.17/outbox.cif.g08.bks.cpg/sg52_20_cif.got.tgz:39204.got - 2010.06.03 12:15:38.
