data_PCOD9411943
_publ_section_title
;
Structure prediction by ZEFSAII (Michael W. Deem and Ramdas Pophale) SiO2 
 PCOD9411943
Probable space group: P N N A
;
_chemical_formula_sum "Si O2"
_cell_formula_units_Z 32
_cell_length_a 14.801990
_cell_length_b 16.941795
_cell_length_c 5.267489
_cell_angle_alpha 90.000000
_cell_angle_beta 90.000000
_cell_angle_gamma 90.000000
_cell_volume 1320.940227
_symmetry_space_group_name_H-M "P N N A"
_symmetry_group_IT_number 52
_symmetry_cell_setting 'orthorhombic'
loop_
_space_group_symop_operation_xyz
x,y,z
1/2-x,-y,z
x,1/2-y,1/2-z
1/2-x,1/2+y,1/2-z
-x,-y,-z
1/2+x,y,-z
-x,1/2+y,1/2+z
1/2+x,1/2-y,1/2+z
loop_
_atom_site_type_symbol
_atom_site_label
_atom_site_fract_x
_atom_site_fract_y
_atom_site_fract_z
Si Si1 0.399402 0.466997 0.482316
Si Si2 0.031007 0.664745 0.170412
Si Si3 0.859308 0.557617 0.025116
Si Si4 0.279510 0.300396 0.992961
O O1 0.500000 0.500000 0.500000
O O2 0.416719 0.376347 0.408367
O O3 0.353131 0.497977 0.736817
O O4 0.359222 0.508692 0.233873
O O5 0.992824 0.750000 0.250000
O O6 0.114161 0.679137 0.981927
O O7 0.953826 0.606751 0.063568
O O8 0.781440 0.622077 0.009194
O O9 0.264455 0.250000 0.250000
O O10 0.253101 0.250000 0.750000
#
# Coordination Sequence:
#
# PCOD9411943 Si02
#       4
#     8   8   8   8
#     4  10  22  42  66  95 125 166 218 262 315 390
#     4  10  23  42  66  94 127 166 209 265 319 371
#     4  11  23  44  68  91 130 171 211 264 322 380
#     4  11  25  42  64  99 131 167 222 266 317 394
#
# _framework density 24.225169999999999
#
# number of rings (size 3 to 8) (size 9 to 14) (size 15 to 20)
#    0.000    1.500    0.000    5.250    0.000   16.000 
#    0.000    5.000    0.000    0.000    0.000    0.000 
#    0.000    0.000    0.000    0.000    0.000    0.000 
#
# Total GULP energy -179253.735906 kJ/mol
# GULP energy per Si atom -5601.679247 kJ/mol
# Density = 2.417003 g / cm^3
# Si number density = 24.225170 Si / 1000 Ang^3
#
#
#
# Elastic Constant Matrix: (Units=GPa)
#
#
# Indices 1 2 3 4 5 6 
#
# 1 110.2980 32.1530 32.1370 0.0000 0.0000 0.0000
# 2 32.1530 144.5880 71.9677 0.0000 0.0000 0.0000
# 3 32.1370 71.9677 194.4416 0.0000 0.0000 0.0000
# 4 0.0000 0.0000 0.0000 36.3519 0.0000 0.0000
# 5 0.0000 0.0000 0.0000 0.0000 -10.6631 0.0000
# 6 0.0000 0.0000 0.0000 0.0000 0.0000 56.9460
#
#
#
# Elastic Compliance Matrix: (Units=1/GPa)
#
#
# Indices 1 2 3 4 5 6 
#
# 1 0.009852 -0.001692 -0.001002 0.000000 0.000000 0.000000
# 2 -0.001692 0.008769 -0.002966 0.000000 0.000000 0.000000
# 3 -0.001002 -0.002966 0.006406 0.000000 0.000000 0.000000
# 4 0.000000 0.000000 0.000000 0.027509 0.000000 0.000000
# 5 0.000000 0.000000 0.000000 0.000000 -0.093781 0.000000
# 6 0.000000 0.000000 0.000000 0.000000 0.000000 0.017560
#
#
# Mechanical properties :
#
#
# Convention : Reuss Voigt Hill
#
# Bulk Modulus (GPa) = 72.95661 80.20478 76.58070
# Shear Modulus (GPa) = -641.31135 37.39829 -301.95653
#
# Velocity S-wave (km/s) = -16.28816 3.93336 -11.17660
# Velocity P-wave (km/s) = 17.98770 7.33541 11.61355
#
# Compressibility (1/GPa) = 0.01370678
#
# Stress axis : x y z
#
# Youngs Moduli (GPa) = 101.50710 114.04191 156.09688
#
# Poissons Ratio (x) = 0.19296 0.15641
# Poissons Ratio (y) = 0.17175 0.46296
# Poissons Ratio (z) = 0.10171 0.33823
#
# Static dielectric constant tensor:
#      x y z
#    x 1.917170 0.000000 0.000000 
#    y 0.000000 2.001880 0.000000 
#    z 0.000000 0.000000 1.587800 
# 
# From -- ./inp_files/1934.got.cif
#   From: 2010.05.17/outbox.cif.g08.bks.cpg/sg52_1_cif.got.tgz:1934.got - 2010.06.03 12:15:38.
