data_PCOD9411663
_publ_section_title
;
Structure prediction by ZEFSAII (Michael W. Deem and Ramdas Pophale) SiO2 
 PCOD9411663
Probable space group: P N N A
;
_chemical_formula_sum "Si O2"
_cell_formula_units_Z 36
_cell_length_a 25.676567
_cell_length_b 7.428323
_cell_length_c 6.903024
_cell_angle_alpha 90.000000
_cell_angle_beta 90.000000
_cell_angle_gamma 90.000000
_cell_volume 1316.640228
_symmetry_space_group_name_H-M "P N N A"
_symmetry_group_IT_number 52
_symmetry_cell_setting 'orthorhombic'
loop_
_space_group_symop_operation_xyz
x,y,z
1/2-x,-y,z
x,1/2-y,1/2-z
1/2-x,1/2+y,1/2-z
-x,-y,-z
1/2+x,y,-z
-x,1/2+y,1/2+z
1/2+x,1/2-y,1/2+z
loop_
_atom_site_type_symbol
_atom_site_label
_atom_site_fract_x
_atom_site_fract_y
_atom_site_fract_z
Si Si1 0.303394 0.452763 0.180537
Si Si2 0.578853 0.410752 0.462398
Si Si3 0.807682 0.919454 0.108107
Si Si4 0.915806 0.496372 0.911697
Si Si5 0.990667 0.250000 0.750000
O O1 0.250000 0.500000 0.074901
O O2 0.297749 0.250000 0.250000
O O3 0.307940 0.582160 0.369884
O O4 0.355549 0.449309 0.058555
O O5 0.632079 0.487941 0.368703
O O6 0.577824 0.486813 0.677972
O O7 0.527894 0.412114 0.329712
O O8 0.580644 0.194036 0.499677
O O9 0.808249 0.750000 0.250000
O O10 0.750000 0.000000 0.141588
O O11 0.957486 0.335539 0.931107
#
# Coordination Sequence:
#
# PCOD9411663 Si02
#       5
#     8   8   8   8   4
#     4  10  22  40  66  98 125 168 224 276 329 394
#     4  10  22  40  63  90 128 170 212 271 332 385
#     4  10  22  44  64  95 131 177 211 269 338 401
#     4  10  22  39  63  93 126 164 218 276 323 383
#     4  12  20  40  62  90 124 170 218 262 326 398
#
# _framework density 27.342320999999998
#
# number of rings (size 3 to 8) (size 9 to 14) (size 15 to 20)
#    0.000    1.778    2.222    1.333    9.333    0.000 
#    8.000    0.000    4.889    0.000    0.000    0.000 
#    0.000    0.000    0.000    0.000    0.000    0.000 
#
# Total GULP energy -200752.147181 kJ/mol
# GULP energy per Si atom -5576.448533 kJ/mol
# Density = 2.728009 g / cm^3
# Si number density = 27.342321 Si / 1000 Ang^3
#
#
#
# Elastic Constant Matrix: (Units=GPa)
#
#
# Indices 1 2 3 4 5 6 
#
# 1 227.3530 2.3434 11.3059 0.0000 0.0000 0.0000
# 2 2.3434 59.9000 11.8533 0.0000 0.0000 0.0000
# 3 11.3059 11.8533 105.0681 0.0000 0.0000 0.0000
# 4 0.0000 0.0000 0.0000 33.7002 0.0000 0.0000
# 5 0.0000 0.0000 0.0000 0.0000 40.0467 0.0000
# 6 0.0000 0.0000 0.0000 0.0000 0.0000 35.9602
#
#
#
# Elastic Compliance Matrix: (Units=1/GPa)
#
#
# Indices 1 2 3 4 5 6 
#
# 1 0.004422 -0.000081 -0.000467 0.000000 0.000000 0.000000
# 2 -0.000081 0.017077 -0.001918 0.000000 0.000000 0.000000
# 3 -0.000467 -0.001918 0.009784 0.000000 0.000000 0.000000
# 4 0.000000 0.000000 0.000000 0.029673 0.000000 0.000000
# 5 0.000000 0.000000 0.000000 0.000000 0.024971 0.000000
# 6 0.000000 0.000000 0.000000 0.000000 0.000000 0.027809
#
#
# Mechanical properties :
#
#
# Convention : Reuss Voigt Hill
#
# Bulk Modulus (GPa) = 37.94599 49.25848 43.60223
# Shear Modulus (GPa) = 39.23054 46.39599 42.81326
#
# Velocity S-wave (km/s) = 3.79197 4.12376 3.96134
# Velocity P-wave (km/s) = 5.75155 6.38188 6.07490
#
# Compressibility (1/GPa) = 0.02635325
#
# Stress axis : x y z
#
# Youngs Moduli (GPa) = 226.11699 58.55776 102.20526
#
# Poissons Ratio (x) = 0.00472 0.04771
# Poissons Ratio (y) = 0.01824 0.19602
# Poissons Ratio (z) = 0.10555 0.11231
#
# Static dielectric constant tensor:
#      x y z
#    x 2.310940 0.000000 0.000000 
#    y 0.000000 2.170800 0.000000 
#    z 0.000000 0.000000 2.285350 
# 
# From -- ./inp_files/14756.got.cif
#   From: 2010.05.17/outbox.cif.g08.bks.cpg/sg52_8_cif.got.tgz:14756.got - 2010.06.03 12:15:38.
