data_PCOD9411526
_publ_section_title
;
Structure prediction by ZEFSAII (Michael W. Deem and Ramdas Pophale) SiO2 
 PCOD9411526
Probable space group: P N N A
;
_chemical_formula_sum "Si O2"
_cell_formula_units_Z 32
_cell_length_a 7.566017
_cell_length_b 28.113304
_cell_length_c 5.394928
_cell_angle_alpha 90.000000
_cell_angle_beta 90.000000
_cell_angle_gamma 90.000000
_cell_volume 1147.532131
_symmetry_space_group_name_H-M "P N N A"
_symmetry_group_IT_number 52
_symmetry_cell_setting 'orthorhombic'
loop_
_space_group_symop_operation_xyz
x,y,z
1/2-x,-y,z
x,1/2-y,1/2-z
1/2-x,1/2+y,1/2-z
-x,-y,-z
1/2+x,y,-z
-x,1/2+y,1/2+z
1/2+x,1/2-y,1/2+z
loop_
_atom_site_type_symbol
_atom_site_label
_atom_site_fract_x
_atom_site_fract_y
_atom_site_fract_z
Si Si1 0.542982 0.066807 0.177890
Si Si2 0.351559 0.130348 0.794133
Si Si3 0.356073 0.689876 0.046224
Si Si4 0.419149 0.250000 0.250000
Si Si5 0.750000 0.000000 0.790278
O O1 0.429418 0.109112 0.048664
O O2 0.632184 0.035398 0.959698
O O3 0.717983 0.088993 0.299218
O O4 0.403821 0.033642 0.323050
O O5 0.525120 0.147353 0.647522
O O6 0.228049 0.175219 0.719011
O O7 0.462240 0.738023 0.985060
O O8 0.203547 0.703518 0.239206
#
# Coordination Sequence:
#
# PCOD9411526 Si02
#       5
#     8   8   8   4   4
#     4   9  18  35  62  87 112 150 196 235 274 335
#     4  10  22  37  60  87 116 150 192 238 284 336
#     4  10  24  41  58  84 118 152 190 236 290 341
#     4  10  24  42  60  82 116 152 192 238 288 344
#     4   8  16  32  60  88 112 146 196 232 272 338
#
# _framework density 27.885928
#
# number of rings (size 3 to 8) (size 9 to 14) (size 15 to 20)
#    0.000    2.500    0.000    0.000    0.000   18.000 
#    0.000    0.000    0.000   75.000    0.000    0.000 
#    0.000    0.000    0.000    0.000    0.000    0.000 
#
# Total GULP energy -178242.506411 kJ/mol
# GULP energy per Si atom -5570.078325 kJ/mol
# Density = 2.782246 g / cm^3
# Si number density = 27.885928 Si / 1000 Ang^3
#
#
#
# Elastic Constant Matrix: (Units=GPa)
#
#
# Indices 1 2 3 4 5 6 
#
# 1 130.2570 79.9092 43.6891 0.0000 0.0000 0.0000
# 2 79.9092 132.9943 69.1171 0.0000 0.0000 0.0000
# 3 43.6891 69.1171 83.3785 0.0000 0.0000 0.0000
# 4 0.0000 0.0000 0.0000 41.8470 0.0000 0.0000
# 5 0.0000 0.0000 0.0000 0.0000 -351.5467 0.0000
# 6 0.0000 0.0000 0.0000 0.0000 0.0000 48.3384
#
#
#
# Elastic Compliance Matrix: (Units=1/GPa)
#
#
# Indices 1 2 3 4 5 6 
#
# 1 0.012174 -0.007026 -0.000554 0.000000 0.000000 0.000000
# 2 -0.007026 0.017266 -0.010631 0.000000 0.000000 0.000000
# 3 -0.000554 -0.010631 0.021096 0.000000 0.000000 0.000000
# 4 0.000000 0.000000 0.000000 0.023897 0.000000 0.000000
# 5 0.000000 0.000000 0.000000 0.000000 -0.002845 0.000000
# 6 0.000000 0.000000 0.000000 0.000000 0.000000 0.020687
#
#
# Mechanical properties :
#
#
# Convention : Reuss Voigt Hill
#
# Bulk Modulus (GPa) = 70.85740 81.34006 76.09873
# Shear Modulus (GPa) = 37.48066 -42.01130 -2.26532
#
# Velocity S-wave (km/s) = 3.67013 -3.88563 -0.90228
# Velocity P-wave (km/s) = 6.58975 3.01685 5.12475
#
# Compressibility (1/GPa) = 0.01411285
#
# Stress axis : x y z
#
# Youngs Moduli (GPa) = 82.14548 57.91811 47.40163
#
# Poissons Ratio (x) = 0.40696 0.02627
# Poissons Ratio (y) = 0.57719 0.50392
# Poissons Ratio (z) = 0.04552 0.61572
#
# Static dielectric constant tensor:
#      x y z
#    x 2.218530 0.000000 0.000000 
#    y 0.000000 2.170580 0.000000 
#    z 0.000000 0.000000 2.141040 
# 
# From -- ./inp_files/422.got.cif
#   From: 2010.05.17/outbox.cif.g08.bks.cpg/sg52_1_cif.got.tgz:422.got - 2010.06.03 12:15:38.
