data_PCOD9411724
_publ_section_title
;
Structure prediction by ZEFSAII (Michael W. Deem and Ramdas Pophale) SiO2 
 PCOD9411724
Probable space group: P N N A
;
_chemical_formula_sum "Si O2"
_cell_formula_units_Z 40
_cell_length_a 11.985707
_cell_length_b 5.941729
_cell_length_c 25.769015
_cell_angle_alpha 90.000000
_cell_angle_beta 90.000000
_cell_angle_gamma 90.000000
_cell_volume 1835.161608
_symmetry_space_group_name_H-M "P N N A"
_symmetry_group_IT_number 52
_symmetry_cell_setting 'orthorhombic'
loop_
_space_group_symop_operation_xyz
x,y,z
1/2-x,-y,z
x,1/2-y,1/2-z
1/2-x,1/2+y,1/2-z
-x,-y,-z
1/2+x,y,-z
-x,1/2+y,1/2+z
1/2+x,1/2-y,1/2+z
loop_
_atom_site_type_symbol
_atom_site_label
_atom_site_fract_x
_atom_site_fract_y
_atom_site_fract_z
Si Si1 0.357381 0.619576 0.123537
Si Si2 0.129892 0.383458 0.600555
Si Si3 0.437807 0.292889 0.689275
Si Si4 0.052698 0.701032 0.034752
Si Si5 0.250000 0.000000 0.050566
Si Si6 0.750000 0.000000 0.356010
O O1 0.250000 0.500000 0.149021
O O2 0.454128 0.688088 0.162141
O O3 0.405272 0.432069 0.085186
O O4 0.319393 0.831736 0.088169
O O5 0.250000 0.500000 0.591042
O O6 0.080685 0.478125 0.655238
O O7 0.161412 0.124816 0.608503
O O8 0.039437 0.380263 0.554873
O O9 0.455070 0.250000 0.750000
O O10 0.320758 0.169666 0.677924
O O11 0.164319 0.839759 0.018933
O O12 0.000000 0.500000 0.000000
#
# Coordination Sequence:
#
# PCOD9411724 Si02
#       6
#     8   8   8   8   4   4
#     4  10  22  45  65  95 134 174 229 286 337 405
#     4  10  22  43  66  97 139 178 221 287 344 408
#     4  11  23  40  67  98 136 185 225 277 343 411
#     4  11  23  45  71  98 130 178 231 283 353 414
#     4  10  22  46  70  91 136 177 224 292 346 398
#     4  10  22  40  62  97 140 171 228 280 336 416
#
# _framework density 21.796447000000001
#
# number of rings (size 3 to 8) (size 9 to 14) (size 15 to 20)
#    0.000    1.600    4.000    0.000    4.200    0.800 
#    9.000    0.000    0.000    0.000    0.000    0.000 
#    0.000    0.000    0.000    0.000    0.000    0.000 
#
# Total GULP energy -223047.823614 kJ/mol
# GULP energy per Si atom -5576.195590 kJ/mol
# Density = 2.174684 g / cm^3
# Si number density = 21.796447 Si / 1000 Ang^3
#
#
#
# Elastic Constant Matrix: (Units=GPa)
#
#
# Indices 1 2 3 4 5 6 
#
# 1 139.7303 38.6805 48.9710 0.0000 0.0000 0.0000
# 2 38.6805 65.7614 19.6384 0.0000 0.0000 0.0000
# 3 48.9710 19.6384 85.0630 0.0000 0.0000 0.0000
# 4 0.0000 0.0000 0.0000 12.6582 0.0000 0.0000
# 5 0.0000 0.0000 0.0000 0.0000 25.7376 0.0000
# 6 0.0000 0.0000 0.0000 0.0000 0.0000 60.8040
#
#
#
# Elastic Compliance Matrix: (Units=1/GPa)
#
#
# Indices 1 2 3 4 5 6 
#
# 1 0.010071 -0.004503 -0.004758 0.000000 0.000000 0.000000
# 2 -0.004503 0.018346 -0.001643 0.000000 0.000000 0.000000
# 3 -0.004758 -0.001643 0.014875 0.000000 0.000000 0.000000
# 4 0.000000 0.000000 0.000000 0.079000 0.000000 0.000000
# 5 0.000000 0.000000 0.000000 0.000000 0.038854 0.000000
# 6 0.000000 0.000000 0.000000 0.000000 0.000000 0.016446
#
#
# Mechanical properties :
#
#
# Convention : Reuss Voigt Hill
#
# Bulk Modulus (GPa) = 46.54878 56.12606 51.33742
# Shear Modulus (GPa) = 24.20599 32.05759 28.13179
#
# Velocity S-wave (km/s) = 3.33610 3.83922 3.59647
# Velocity P-wave (km/s) = 6.02013 6.74232 6.39143
#
# Compressibility (1/GPa) = 0.02148284
#
# Stress axis : x y z
#
# Youngs Moduli (GPa) = 99.29845 54.50900 67.22832
#
# Poissons Ratio (x) = 0.24543 0.31989
# Poissons Ratio (y) = 0.44710 0.11048
# Poissons Ratio (z) = 0.47248 0.08957
#
# Static dielectric constant tensor:
#      x y z
#    x 1.846640 0.000000 0.000000 
#    y 0.000000 1.922400 0.000000 
#    z 0.000000 0.000000 1.838360 
# 
# From -- ./inp_files/44738.got.cif
#   From: 2010.05.17/outbox.cif.g08.bks.cpg/sg52_23_cif.got.tgz:44738.got - 2010.06.03 12:15:38.
