data_PCOD9411654
_publ_section_title
;
Structure prediction by ZEFSAII (Michael W. Deem and Ramdas Pophale) SiO2 
 PCOD9411654
Probable space group: P N N A
;
_chemical_formula_sum "Si O2"
_cell_formula_units_Z 40
_cell_length_a 28.282098
_cell_length_b 6.436497
_cell_length_c 11.762100
_cell_angle_alpha 90.000000
_cell_angle_beta 90.000000
_cell_angle_gamma 90.000000
_cell_volume 2141.144913
_symmetry_space_group_name_H-M "P N N A"
_symmetry_group_IT_number 52
_symmetry_cell_setting 'orthorhombic'
loop_
_space_group_symop_operation_xyz
x,y,z
1/2-x,-y,z
x,1/2-y,1/2-z
1/2-x,1/2+y,1/2-z
-x,-y,-z
1/2+x,y,-z
-x,1/2+y,1/2+z
1/2+x,1/2-y,1/2+z
loop_
_atom_site_type_symbol
_atom_site_label
_atom_site_fract_x
_atom_site_fract_y
_atom_site_fract_z
Si Si1 0.879267 0.364370 0.368521
Si Si2 0.629367 0.137938 0.632408
Si Si3 0.447426 0.485021 0.953422
Si Si4 0.420906 0.750000 0.750000
Si Si5 0.698119 0.005365 0.959201
Si Si6 0.323437 0.250000 0.250000
O O1 0.866713 0.250000 0.250000
O O2 0.923159 0.238238 0.424856
O O3 0.891397 0.597191 0.330244
O O4 0.837601 0.381620 0.459108
O O5 0.613725 0.250000 0.750000
O O6 0.671307 0.279222 0.576041
O O7 0.588149 0.099571 0.541162
O O8 0.646870 0.915021 0.676871
O O9 0.449260 0.602289 0.833226
O O10 0.500000 0.500000 0.000000
O O11 0.750000 0.000000 0.013868
O O12 0.704820 0.880931 0.841746
#
# Coordination Sequence:
#
# PCOD9411654 Si02
#       6
#     8   8   8   4   8   4
#     4  10  22  44  64  90 127 165 211 261 308 366
#     4  10  22  40  61  91 127 163 206 261 307 373
#     4  11  23  41  66  92 122 165 208 256 316 372
#     4  10  22  43  64  86 130 164 206 261 310 372
#     4  11  23  40  65  91 125 170 209 259 317 373
#     4  10  22  39  62  92 130 160 210 261 310 378
#
# _framework density 18.681594
#
# number of rings (size 3 to 8) (size 9 to 14) (size 15 to 20)
#    0.000    1.600    4.000    0.000    4.200    4.000 
#    1.800    0.000    0.000    0.000    0.000    0.000 
#    0.000    0.000    0.000    0.000    0.000    0.000 
#
# Total GULP energy -222856.626089 kJ/mol
# GULP energy per Si atom -5571.415652 kJ/mol
# Density = 1.863907 g / cm^3
# Si number density = 18.681594 Si / 1000 Ang^3
#
#
#
# Elastic Constant Matrix: (Units=GPa)
#
#
# Indices 1 2 3 4 5 6 
#
# 1 122.5140 53.1894 49.3025 0.0000 0.0000 0.0000
# 2 53.1894 97.7209 29.8485 0.0000 0.0000 0.0000
# 3 49.3025 29.8485 88.0149 0.0000 0.0000 0.0000
# 4 0.0000 0.0000 0.0000 38.4420 0.0000 0.0000
# 5 0.0000 0.0000 0.0000 0.0000 10.9060 0.0000
# 6 0.0000 0.0000 0.0000 0.0000 0.0000 10.6698
#
#
#
# Elastic Compliance Matrix: (Units=1/GPa)
#
#
# Indices 1 2 3 4 5 6 
#
# 1 0.012545 -0.005223 -0.005256 0.000000 0.000000 0.000000
# 2 -0.005223 0.013590 -0.001683 0.000000 0.000000 0.000000
# 3 -0.005256 -0.001683 0.014877 0.000000 0.000000 0.000000
# 4 0.000000 0.000000 0.000000 0.026013 0.000000 0.000000
# 5 0.000000 0.000000 0.000000 0.000000 0.091693 0.000000
# 6 0.000000 0.000000 0.000000 0.000000 0.000000 0.093722
#
#
# Mechanical properties :
#
#
# Convention : Reuss Voigt Hill
#
# Bulk Modulus (GPa) = 59.92392 63.65896 61.79144
# Shear Modulus (GPa) = 17.70999 23.73086 20.72042
#
# Velocity S-wave (km/s) = 3.08229 3.56797 3.33398
# Velocity P-wave (km/s) = 6.69428 7.15008 6.92593
#
# Compressibility (1/GPa) = 0.01668783
#
# Stress axis : x y z
#
# Youngs Moduli (GPa) = 79.71357 73.58293 67.21907
#
# Poissons Ratio (x) = 0.38431 0.35330
# Poissons Ratio (y) = 0.41633 0.11314
# Poissons Ratio (z) = 0.41897 0.12386
#
# Static dielectric constant tensor:
#      x y z
#    x 1.690780 0.000000 0.000000 
#    y 0.000000 1.698880 0.000000 
#    z 0.000000 0.000000 1.682390 
# 
# From -- ./inp_files/22657.got.cif
#   From: 2010.05.17/outbox.cif.g08.bks.cpg/sg52_12_cif.got.tgz:22657.got - 2010.06.03 12:15:38.
