data_PCOD9411371
_publ_section_title
;
Structure prediction by ZEFSAII (Michael W. Deem and Ramdas Pophale) SiO2 
 PCOD9411371
Probable space group: P N N A
;
_chemical_formula_sum "Si O2"
_cell_formula_units_Z 32
_cell_length_a 8.534443
_cell_length_b 12.070561
_cell_length_c 12.149090
_cell_angle_alpha 90.000000
_cell_angle_beta 90.000000
_cell_angle_gamma 90.000000
_cell_volume 1251.544761
_symmetry_space_group_name_H-M "P N N A"
_symmetry_group_IT_number 52
_symmetry_cell_setting 'orthorhombic'
loop_
_space_group_symop_operation_xyz
x,y,z
1/2-x,-y,z
x,1/2-y,1/2-z
1/2-x,1/2+y,1/2-z
-x,-y,-z
1/2+x,y,-z
-x,1/2+y,1/2+z
1/2+x,1/2-y,1/2+z
loop_
_atom_site_type_symbol
_atom_site_label
_atom_site_fract_x
_atom_site_fract_y
_atom_site_fract_z
Si Si1 0.100219 0.077999 0.752730
Si Si2 0.883610 0.079575 0.566684
Si Si3 0.929824 0.578793 0.594131
Si Si4 0.220041 0.706546 0.553432
O O1 0.170616 0.158548 0.847772
O O2 0.250000 0.000000 0.719655
O O3 0.999794 0.134279 0.656360
O O4 0.971440 0.991824 0.800061
O O5 0.793417 0.169993 0.492318
O O6 0.750000 0.000000 0.613697
O O7 0.000000 0.000000 0.500000
O O8 0.767541 0.628386 0.551187
O O9 0.000000 0.500000 0.500000
O O10 0.045468 0.683300 0.595428
#
# Coordination Sequence:
#
# PCOD9411371 Si02
#       4
#     8   8   8   8
#     4   9  21  44  72 100 139 192 248 306 373 443
#     4  12  26  46  68 104 153 194 242 310 378 448
#     4   9  18  38  67  99 131 172 236 304 355 425
#     4  10  21  42  70  99 137 188 239 296 366 444
#
# _framework density 25.568401999999999
#
# number of rings (size 3 to 8) (size 9 to 14) (size 15 to 20)
#    0.000    2.000    0.000    4.500    0.000    4.000 
#    0.000   45.000    0.000    0.000    0.000    0.000 
#    0.000    0.000    0.000    0.000    0.000    0.000 
#
# Total GULP energy -178585.596669 kJ/mol
# GULP energy per Si atom -5580.799896 kJ/mol
# Density = 2.551021 g / cm^3
# Si number density = 25.568402 Si / 1000 Ang^3
#
#
#
# Elastic Constant Matrix: (Units=GPa)
#
#
# Indices 1 2 3 4 5 6 
#
# 1 164.1045 56.6713 66.0730 0.0000 0.0000 0.0000
# 2 56.6713 124.1477 32.6814 0.0000 0.0000 0.0000
# 3 66.0730 32.6814 72.1420 0.0000 0.0000 0.0000
# 4 0.0000 0.0000 0.0000 24.5880 0.0000 0.0000
# 5 0.0000 0.0000 0.0000 0.0000 55.8746 0.0000
# 6 0.0000 0.0000 0.0000 0.0000 0.0000 48.8627
#
#
#
# Elastic Compliance Matrix: (Units=1/GPa)
#
#
# Indices 1 2 3 4 5 6 
#
# 1 0.010304 -0.002520 -0.008296 0.000000 0.000000 0.000000
# 2 -0.002520 0.009762 -0.002114 0.000000 0.000000 0.000000
# 3 -0.008296 -0.002114 0.022417 0.000000 0.000000 0.000000
# 4 0.000000 0.000000 0.000000 0.040670 0.000000 0.000000
# 5 0.000000 0.000000 0.000000 0.000000 0.017897 0.000000
# 6 0.000000 0.000000 0.000000 0.000000 0.000000 0.020466
#
#
# Mechanical properties :
#
#
# Convention : Reuss Voigt Hill
#
# Bulk Modulus (GPa) = 60.15680 74.58284 67.36982
# Shear Modulus (GPa) = 32.69762 39.52962 36.11362
#
# Velocity S-wave (km/s) = 3.57995 3.93623 3.76231
# Velocity P-wave (km/s) = 6.37706 7.06341 6.72899
#
# Compressibility (1/GPa) = 0.01662322
#
# Stress axis : x y z
#
# Youngs Moduli (GPa) = 97.05107 102.44047 44.60880
#
# Poissons Ratio (x) = 0.25813 0.37005
# Poissons Ratio (y) = 0.24455 0.09432
# Poissons Ratio (z) = 0.80509 0.21661
#
# Static dielectric constant tensor:
#      x y z
#    x 2.044290 0.000000 0.000000 
#    y 0.000000 2.032610 0.000000 
#    z 0.000000 0.000000 1.566950 
# 
# From -- ./inp_files/24093.got.cif
#   From: 2010.05.17/outbox.cif.g08.bks.cpg/sg52_13_cif.got.tgz:24093.got - 2010.06.03 12:15:38.
