data_PCOD9411895
_publ_section_title
;
Structure prediction by ZEFSAII (Michael W. Deem and Ramdas Pophale) SiO2 
 PCOD9411895
Probable space group: P N N A
;
_chemical_formula_sum "Si O2"
_cell_formula_units_Z 40
_cell_length_a 9.489091
_cell_length_b 25.970686
_cell_length_c 6.631348
_cell_angle_alpha 90.000000
_cell_angle_beta 90.000000
_cell_angle_gamma 90.000000
_cell_volume 1634.217483
_symmetry_space_group_name_H-M "P N N A"
_symmetry_group_IT_number 52
_symmetry_cell_setting 'orthorhombic'
loop_
_space_group_symop_operation_xyz
x,y,z
1/2-x,-y,z
x,1/2-y,1/2-z
1/2-x,1/2+y,1/2-z
-x,-y,-z
1/2+x,y,-z
-x,1/2+y,1/2+z
1/2+x,1/2-y,1/2+z
loop_
_atom_site_type_symbol
_atom_site_label
_atom_site_fract_x
_atom_site_fract_y
_atom_site_fract_z
Si Si1 0.894971 0.442754 0.064395
Si Si2 0.467895 0.844622 0.512215
Si Si3 0.235165 0.689852 0.248466
Si Si4 0.492009 0.536929 0.687451
Si Si5 0.707210 0.371978 0.356155
O O1 0.907809 0.499404 0.157672
O O2 0.809275 0.408162 0.222952
O O3 0.034185 0.405803 0.038957
O O4 0.869387 0.449736 0.822214
O O5 0.396355 0.816518 0.326651
O O6 0.624660 0.833029 0.586747
O O7 0.368491 0.832787 0.703053
O O8 0.202109 0.750000 0.250000
O O9 0.226519 0.658159 0.457274
O O10 0.500000 0.500000 0.500000
O O11 0.418750 0.587804 0.599553
#
# Coordination Sequence:
#
# PCOD9411895 Si02
#       5
#     8   8   8   8   8
#     4  10  22  43  69 109 149 196 246 316 380 479
#     4  11  26  50  73 109 150 193 256 325 390 474
#     4  12  30  48  80 108 151 205 262 334 404 475
#     4  10  22  41  71 106 154 203 251 307 392 475
#     4  11  25  45  73 108 152 199 259 317 396 462
#
# _framework density 24.476545999999999
#
# number of rings (size 3 to 8) (size 9 to 14) (size 15 to 20)
#    0.000    1.200    2.000    1.800   11.200    0.000 
#    3.600    0.000    0.000    0.000    0.000    0.000 
#    0.000    0.000    0.000    0.000    0.000    0.000 
#
# Total GULP energy -222926.787420 kJ/mol
# GULP energy per Si atom -5573.169686 kJ/mol
# Density = 2.442084 g / cm^3
# Si number density = 24.476546 Si / 1000 Ang^3
#
#
#
# Elastic Constant Matrix: (Units=GPa)
#
#
# Indices 1 2 3 4 5 6 
#
# 1 63.2492 21.0065 46.3363 0.0000 0.0000 0.0000
# 2 21.0065 148.6112 57.1795 0.0000 0.0000 0.0000
# 3 46.3363 57.1795 126.4147 0.0000 0.0000 0.0000
# 4 0.0000 0.0000 0.0000 25.8121 0.0000 0.0000
# 5 0.0000 0.0000 0.0000 0.0000 44.8830 0.0000
# 6 0.0000 0.0000 0.0000 0.0000 0.0000 27.2704
#
#
#
# Elastic Compliance Matrix: (Units=1/GPa)
#
#
# Indices 1 2 3 4 5 6 
#
# 1 0.021615 -0.000008 -0.007919 0.000000 0.000000 0.000000
# 2 -0.000008 0.008147 -0.003682 0.000000 0.000000 0.000000
# 3 -0.007919 -0.003682 0.012478 0.000000 0.000000 0.000000
# 4 0.000000 0.000000 0.000000 0.038742 0.000000 0.000000
# 5 0.000000 0.000000 0.000000 0.000000 0.022280 0.000000
# 6 0.000000 0.000000 0.000000 0.000000 0.000000 0.036670
#
#
# Mechanical properties :
#
#
# Convention : Reuss Voigt Hill
#
# Bulk Modulus (GPa) = 52.57184 65.25774 58.91479
# Shear Modulus (GPa) = 29.50026 33.84329 31.67177
#
# Velocity S-wave (km/s) = 3.47543 3.72248 3.60107
# Velocity P-wave (km/s) = 6.13432 6.72272 6.43525
#
# Compressibility (1/GPa) = 0.01902159
#
# Stress axis : x y z
#
# Youngs Moduli (GPa) = 46.26499 122.74795 80.13839
#
# Poissons Ratio (x) = 0.00103 0.63460
# Poissons Ratio (y) = 0.00039 0.29506
# Poissons Ratio (z) = 0.36637 0.45194
#
# Static dielectric constant tensor:
#      x y z
#    x 2.076680 0.000000 0.000000 
#    y 0.000000 1.964790 0.000000 
#    z 0.000000 0.000000 2.067300 
# 
# From -- ./inp_files/1340.got.cif
#   From: 2010.05.17/outbox.cif.g08.bks.cpg/sg52_1_cif.got.tgz:1340.got - 2010.06.03 12:15:38.
