data_PCOD9411462
_publ_section_title
;
Structure prediction by ZEFSAII (Michael W. Deem and Ramdas Pophale) SiO2 
 PCOD9411462
Probable space group: P N N A
;
_chemical_formula_sum "Si O2"
_cell_formula_units_Z 20
_cell_length_a 14.204821
_cell_length_b 5.230074
_cell_length_c 11.695043
_cell_angle_alpha 90.000000
_cell_angle_beta 90.000000
_cell_angle_gamma 90.000000
_cell_volume 868.851234
_symmetry_space_group_name_H-M "P N N A"
_symmetry_group_IT_number 52
_symmetry_cell_setting 'orthorhombic'
loop_
_space_group_symop_operation_xyz
x,y,z
1/2-x,-y,z
x,1/2-y,1/2-z
1/2-x,1/2+y,1/2-z
-x,-y,-z
1/2+x,y,-z
-x,1/2+y,1/2+z
1/2+x,1/2-y,1/2+z
loop_
_atom_site_type_symbol
_atom_site_label
_atom_site_fract_x
_atom_site_fract_y
_atom_site_fract_z
Si Si1 0.131451 0.250000 0.750000
Si Si2 0.250000 0.000000 0.560274
Si Si3 0.005196 0.750000 0.750000
Si Si4 0.854838 0.439851 0.846621
O O1 0.196267 0.195400 0.640775
O O2 0.070991 0.506290 0.729955
O O3 0.326426 0.132976 0.475461
O O4 0.930282 0.668786 0.848826
O O5 0.750000 0.500000 0.800285
O O6 0.892905 0.250000 0.750000
#
# Coordination Sequence:
#
# PCOD9411462 Si02
#       4
#     4   4   4   8
#     4  12  27  51  70 118 150 208 238 317 381 458
#     4  10  26  52  76 104 162 206 246 306 394 462
#     4  12  25  47  78 114 154 180 278 305 371 440
#     4  10  21  48  76 110 143 204 248 314 370 442
#
# _framework density 23.018899000000001
#
# number of rings (size 3 to 8) (size 9 to 14) (size 15 to 20)
#    1.200    0.000    4.000    1.200    0.000    3.200 
#   32.400    0.000    0.000    0.000    0.000    0.000 
#    0.000    0.000    0.000    0.000    0.000    0.000 
#
# Total GULP energy -111360.013637 kJ/mol
# GULP energy per Si atom -5568.000682 kJ/mol
# Density = 2.296651 g / cm^3
# Si number density = 23.018899 Si / 1000 Ang^3
#
#
#
# Elastic Constant Matrix: (Units=GPa)
#
#
# Indices 1 2 3 4 5 6 
#
# 1 149.9710 92.6797 69.8791 0.0000 0.0000 0.0000
# 2 92.6797 146.5081 64.1287 0.0000 0.0000 0.0000
# 3 69.8791 64.1287 156.1692 0.0000 0.0000 0.0000
# 4 0.0000 0.0000 0.0000 28.7533 0.0000 0.0000
# 5 0.0000 0.0000 0.0000 0.0000 -24.3665 0.0000
# 6 0.0000 0.0000 0.0000 0.0000 0.0000 28.7062
#
#
#
# Elastic Compliance Matrix: (Units=1/GPa)
#
#
# Indices 1 2 3 4 5 6 
#
# 1 0.011815 -0.006291 -0.002704 0.000000 0.000000 0.000000
# 2 -0.006291 0.011671 -0.001978 0.000000 0.000000 0.000000
# 3 -0.002704 -0.001978 0.008425 0.000000 0.000000 0.000000
# 4 0.000000 0.000000 0.000000 0.034779 0.000000 0.000000
# 5 0.000000 0.000000 0.000000 0.000000 -0.041040 0.000000
# 6 0.000000 0.000000 0.000000 0.000000 0.000000 0.034836
#
#
# Mechanical properties :
#
#
# Convention : Reuss Voigt Hill
#
# Bulk Modulus (GPa) = 100.32949 100.66928 100.49938
# Shear Modulus (GPa) = 58.30758 21.68262 39.99510
#
# Velocity S-wave (km/s) = 5.03838 3.07245 4.17284
# Velocity P-wave (km/s) = 8.80496 7.51098 8.18359
#
# Compressibility (1/GPa) = 0.00996716
#
# Stress axis : x y z
#
# Youngs Moduli (GPa) = 84.63545 85.68466 118.69290
#
# Poissons Ratio (x) = 0.53903 0.32090
# Poissons Ratio (y) = 0.53243 0.23472
# Poissons Ratio (z) = 0.22882 0.16944
#
# Static dielectric constant tensor:
#      x y z
#    x 1.859350 0.000000 0.000000 
#    y 0.000000 1.976380 0.000000 
#    z 0.000000 0.000000 1.871960 
# 
# From -- ./inp_files/18649.got.cif
#   From: 2010.05.17/outbox.cif.g08.bks.cpg/sg52_10_cif.got.tgz:18649.got - 2010.06.03 12:15:38.
