data_PCOD9411386
_publ_section_title
;
Structure prediction by ZEFSAII (Michael W. Deem and Ramdas Pophale) SiO2 
 PCOD9411386
Probable space group: P N N A
;
_chemical_formula_sum "Si O2"
_cell_formula_units_Z 40
_cell_length_a 25.257105
_cell_length_b 12.461807
_cell_length_c 5.836003
_cell_angle_alpha 90.000000
_cell_angle_beta 90.000000
_cell_angle_gamma 90.000000
_cell_volume 1836.877088
_symmetry_space_group_name_H-M "P N N A"
_symmetry_group_IT_number 52
_symmetry_cell_setting 'orthorhombic'
loop_
_space_group_symop_operation_xyz
x,y,z
1/2-x,-y,z
x,1/2-y,1/2-z
1/2-x,1/2+y,1/2-z
-x,-y,-z
1/2+x,y,-z
-x,1/2+y,1/2+z
1/2+x,1/2-y,1/2+z
loop_
_atom_site_type_symbol
_atom_site_label
_atom_site_fract_x
_atom_site_fract_y
_atom_site_fract_z
Si Si1 0.919204 0.643953 0.608201
Si Si2 0.001660 0.250000 0.750000
Si Si3 0.654271 0.010278 0.218472
Si Si4 0.250000 0.000000 0.499469
Si Si5 0.677993 0.634283 0.662457
Si Si6 0.073309 0.563121 0.108448
O O1 0.903069 0.750000 0.750000
O O2 0.870507 0.590632 0.468369
O O3 0.942392 0.549577 0.771664
O O4 0.962446 0.683749 0.426905
O O5 0.969349 0.341356 0.892505
O O6 0.704475 0.059359 0.352062
O O7 0.605821 0.970055 0.379679
O O8 0.680449 0.905818 0.096981
O O9 0.286410 0.064328 0.326647
O O10 0.691617 0.750000 0.750000
O O11 0.617124 0.613606 0.724270
#
# Coordination Sequence:
#
# PCOD9411386 Si02
#       6
#     8   4   8   4   8   8
#     4  11  25  43  66  98 146 184 231 280 344 409
#     4  12  24  44  70 104 138 186 226 292 340 406
#     4  10  23  46  68  96 140 178 226 293 340 419
#     4  10  22  42  70 100 132 174 228 284 348 414
#     4  10  21  43  67  98 131 173 226 285 342 411
#     4  10  23  43  68 101 133 179 233 277 345 408
#
# _framework density 21.776088999999999
#
# number of rings (size 3 to 8) (size 9 to 14) (size 15 to 20)
#    0.000    1.600    1.000    2.400    0.000    9.600 
#    0.000   32.000    0.000    0.000    0.000    0.000 
#    0.000    0.000    0.000    0.000    0.000    0.000 
#
# Total GULP energy -223026.568611 kJ/mol
# GULP energy per Si atom -5575.664215 kJ/mol
# Density = 2.172653 g / cm^3
# Si number density = 21.776089 Si / 1000 Ang^3
#
#
#
# Elastic Constant Matrix: (Units=GPa)
#
#
# Indices 1 2 3 4 5 6 
#
# 1 98.9419 35.7652 34.2909 0.0000 0.0000 0.0000
# 2 35.7652 66.9424 26.5843 0.0000 0.0000 0.0000
# 3 34.2909 26.5843 86.2840 0.0000 0.0000 0.0000
# 4 0.0000 0.0000 0.0000 11.0682 0.0000 0.0000
# 5 0.0000 0.0000 0.0000 0.0000 12.1377 0.0000
# 6 0.0000 0.0000 0.0000 0.0000 0.0000 787.7112
#
#
#
# Elastic Compliance Matrix: (Units=1/GPa)
#
#
# Indices 1 2 3 4 5 6 
#
# 1 0.013422 -0.005757 -0.003560 0.000000 0.000000 0.000000
# 2 -0.005757 0.019490 -0.003717 0.000000 0.000000 0.000000
# 3 -0.003560 -0.003717 0.014150 0.000000 0.000000 0.000000
# 4 0.000000 0.000000 0.000000 0.090349 0.000000 0.000000
# 5 0.000000 0.000000 0.000000 0.000000 0.082388 0.000000
# 6 0.000000 0.000000 0.000000 0.000000 0.000000 0.001270
#
#
# Mechanical properties :
#
#
# Convention : Reuss Voigt Hill
#
# Bulk Modulus (GPa) = 47.63476 49.49432 48.56454
# Shear Modulus (GPa) = 19.67461 172.55195 96.11328
#
# Velocity S-wave (km/s) = 3.00908 8.91130 6.65078
# Velocity P-wave (km/s) = 5.83053 11.34283 9.01817
#
# Compressibility (1/GPa) = 0.02099307
#
# Stress axis : x y z
#
# Youngs Moduli (GPa) = 74.50515 51.30813 70.67235
#
# Poissons Ratio (x) = 0.29538 0.25162
# Poissons Ratio (y) = 0.42892 0.26269
# Poissons Ratio (z) = 0.26527 0.19071
#
# Static dielectric constant tensor:
#      x y z
#    x 2.040400 0.000000 0.000000 
#    y 0.000000 1.789940 0.000000 
#    z 0.000000 0.000000 1.806520 
# 
# From -- ./inp_files/5631.got.cif
#   From: 2010.05.17/outbox.cif.g08.bks.cpg/sg52_3_cif.got.tgz:5631.got - 2010.06.03 12:15:38.
