data_PCOD9411533
_publ_section_title
;
Structure prediction by ZEFSAII (Michael W. Deem and Ramdas Pophale) SiO2 
 PCOD9411533
Probable space group: P N N A
;
_chemical_formula_sum "Si O2"
_cell_formula_units_Z 40
_cell_length_a 12.174682
_cell_length_b 7.254036
_cell_length_c 17.643029
_cell_angle_alpha 90.000000
_cell_angle_beta 90.000000
_cell_angle_gamma 90.000000
_cell_volume 1558.154366
_symmetry_space_group_name_H-M "P N N A"
_symmetry_group_IT_number 52
_symmetry_cell_setting 'orthorhombic'
loop_
_space_group_symop_operation_xyz
x,y,z
1/2-x,-y,z
x,1/2-y,1/2-z
1/2-x,1/2+y,1/2-z
-x,-y,-z
1/2+x,y,-z
-x,1/2+y,1/2+z
1/2+x,1/2-y,1/2+z
loop_
_atom_site_type_symbol
_atom_site_label
_atom_site_fract_x
_atom_site_fract_y
_atom_site_fract_z
Si Si1 0.250000 0.000000 0.841471
Si Si2 0.464043 0.125046 0.112373
Si Si3 0.133988 0.663734 0.538262
Si Si4 0.418150 0.250000 0.750000
Si Si5 0.250000 0.000000 0.371244
Si Si6 0.512996 0.449088 0.896133
Si Si7 0.136939 0.750000 0.250000
O O1 0.259726 0.161238 0.907810
O O2 0.339463 0.087133 0.783945
O O3 0.508492 0.334644 0.114196
O O4 0.429589 0.100569 0.199683
O O5 0.553136 0.985924 0.078705
O O6 0.365121 0.118519 0.050577
O O7 0.068230 0.853642 0.545375
O O8 0.487109 0.338199 0.818576
O O9 0.142560 0.071642 0.413949
O O10 0.293015 0.155037 0.314399
#
# Coordination Sequence:
#
# PCOD9411533 Si02
#       7
#     4   8   8   4   4   8   4
#     4  10  24  39  66 101 136 180 230 278 346 411
#     4  10  23  41  66  92 128 178 216 280 335 403
#     4  10  23  44  64  94 135 176 222 277 340 410
#     4  10  23  39  70 100 140 180 233 299 338 412
#     4  10  22  37  62  99 122 170 214 274 342 399
#     4  10  22  42  65  94 134 171 223 279 338 403
#     4  10  23  35  64  92 126 162 219 275 328 406
#
# _framework density 25.671396000000001
#
# number of rings (size 3 to 8) (size 9 to 14) (size 15 to 20)
#    0.000    2.000    0.000    1.200   16.800    0.800 
#   10.800    0.000    0.000    0.000    0.000    0.000 
#    0.000    0.000    0.000    0.000    0.000    0.000 
#
# Total GULP energy -223006.971085 kJ/mol
# GULP energy per Si atom -5575.174277 kJ/mol
# Density = 2.561297 g / cm^3
# Si number density = 25.671396 Si / 1000 Ang^3
#
#
#
# Elastic Constant Matrix: (Units=GPa)
#
#
# Indices 1 2 3 4 5 6 
#
# 1 118.9778 34.4182 44.4612 0.0000 0.0000 0.0000
# 2 34.4182 101.5514 10.8543 0.0000 0.0000 0.0000
# 3 44.4612 10.8543 174.3037 0.0000 0.0000 0.0000
# 4 0.0000 0.0000 0.0000 34.1480 0.0000 0.0000
# 5 0.0000 0.0000 0.0000 0.0000 10.8799 0.0000
# 6 0.0000 0.0000 0.0000 0.0000 0.0000 39.6203
#
#
#
# Elastic Compliance Matrix: (Units=1/GPa)
#
#
# Indices 1 2 3 4 5 6 
#
# 1 0.010235 -0.003211 -0.002411 0.000000 0.000000 0.000000
# 2 -0.003211 0.010921 0.000139 0.000000 0.000000 0.000000
# 3 -0.002411 0.000139 0.006343 0.000000 0.000000 0.000000
# 4 0.000000 0.000000 0.000000 0.029284 0.000000 0.000000
# 5 0.000000 0.000000 0.000000 0.000000 0.091912 0.000000
# 6 0.000000 0.000000 0.000000 0.000000 0.000000 0.025240
#
#
# Mechanical properties :
#
#
# Convention : Reuss Voigt Hill
#
# Bulk Modulus (GPa) = 60.48434 63.81115 62.14774
# Shear Modulus (GPa) = 26.25890 37.26958 31.76424
#
# Velocity S-wave (km/s) = 3.20173 3.81438 3.52140
# Velocity P-wave (km/s) = 6.10575 6.65659 6.38711
#
# Compressibility (1/GPa) = 0.01653321
#
# Stress axis : x y z
#
# Youngs Moduli (GPa) = 97.70667 91.56931 157.64478
#
# Poissons Ratio (x) = 0.29404 0.38003
# Poissons Ratio (y) = 0.31375 -0.02192
# Poissons Ratio (z) = 0.23554 -0.01273
#
# Static dielectric constant tensor:
#      x y z
#    x 2.217960 0.000000 0.000000 
#    y 0.000000 2.098520 0.000000 
#    z 0.000000 0.000000 2.104220 
# 
# From -- ./inp_files/36694.got.cif
#   From: 2010.05.17/outbox.cif.g08.bks.cpg/sg52_19_cif.got.tgz:36694.got - 2010.06.03 12:15:38.
