data_PCOD9411328
_publ_section_title
;
Structure prediction by ZEFSAII (Michael W. Deem and Ramdas Pophale) SiO2 
 PCOD9411328
Probable space group: P N N A
;
_chemical_formula_sum "Si O2"
_cell_formula_units_Z 60
_cell_length_a 19.337394
_cell_length_b 9.686592
_cell_length_c 17.204860
_cell_angle_alpha 90.000000
_cell_angle_beta 90.000000
_cell_angle_gamma 90.000000
_cell_volume 3222.701615
_symmetry_space_group_name_H-M "P N N A"
_symmetry_group_IT_number 52
_symmetry_cell_setting 'orthorhombic'
loop_
_space_group_symop_operation_xyz
x,y,z
1/2-x,-y,z
x,1/2-y,1/2-z
1/2-x,1/2+y,1/2-z
-x,-y,-z
1/2+x,y,-z
-x,1/2+y,1/2+z
1/2+x,1/2-y,1/2+z
loop_
_atom_site_type_symbol
_atom_site_label
_atom_site_fract_x
_atom_site_fract_y
_atom_site_fract_z
Si Si1 0.102729 0.260764 0.628913
Si Si2 0.261983 0.335054 0.607521
Si Si3 0.068671 0.369100 0.191566
Si Si4 0.861125 0.250000 0.250000
Si Si5 0.933744 0.912414 0.519793
Si Si6 0.801002 0.114990 0.517665
Si Si7 0.765803 0.855409 0.687410
Si Si8 0.551506 0.469340 0.249027
O O1 0.184933 0.281313 0.626170
O O2 0.081416 0.205515 0.543724
O O3 0.066746 0.397341 0.667156
O O4 0.082373 0.137533 0.686964
O O5 0.250000 0.500000 0.596138
O O6 0.311952 0.294734 0.678644
O O7 0.294838 0.252004 0.534310
O O8 0.047990 0.250000 0.250000
O O9 0.047872 0.347977 0.102965
O O10 0.151414 0.357951 0.183288
O O11 0.028824 0.502299 0.226323
O O12 0.908277 0.385962 0.237312
O O13 0.871805 0.027064 0.525090
O O14 0.000000 0.000000 0.500000
O O15 0.770132 0.150042 0.603196
O O16 0.750000 0.000000 0.481105
O O17 0.739310 0.750000 0.750000
O O18 0.750000 0.000000 0.724681
#
# Coordination Sequence:
#
# PCOD9411328 Si02
#       8
#     8   8   8   4   8   8   8   8
#     4  11  23  41  64  95 130 171 221 276 317 393
#     4  12  25  39  64  96 136 172 217 272 329 385
#     4  11  22  40  68  94 129 173 213 273 332 392
#     4  12  24  38  62  92 132 178 220 252 332 408
#     4  12  23  43  71  97 127 179 227 271 339 404
#     4  11  22  42  69  92 125 170 223 271 323 400
#     4  10  21  42  66  94 124 163 216 268 326 390
#     4  11  23  40  63  92 135 170 219 268 327 391
#
# _framework density 18.617919000000001
#
# number of rings (size 3 to 8) (size 9 to 14) (size 15 to 20)
#    0.000    0.800    7.333    1.600    0.000    0.533 
#    4.800    0.667    0.000    0.000    0.000    0.000 
#    0.000    0.000    0.000    0.000    0.000    0.000 
#
# Total GULP energy -334142.076218 kJ/mol
# GULP energy per Si atom -5569.034604 kJ/mol
# Density = 1.857554 g / cm^3
# Si number density = 18.617919 Si / 1000 Ang^3
#
#
#
# Elastic Constant Matrix: (Units=GPa)
#
#
# Indices 1 2 3 4 5 6 
#
# 1 80.2178 15.9584 39.9445 0.0000 0.0000 0.0000
# 2 15.9584 127.4446 69.6522 0.0000 0.0000 0.0000
# 3 39.9445 69.6522 128.9467 0.0000 0.0000 0.0000
# 4 0.0000 0.0000 0.0000 41.3133 0.0000 0.0000
# 5 0.0000 0.0000 0.0000 0.0000 30.2461 0.0000
# 6 0.0000 0.0000 0.0000 0.0000 0.0000 7.2902
#
#
#
# Elastic Compliance Matrix: (Units=1/GPa)
#
#
# Indices 1 2 3 4 5 6 
#
# 1 0.014816 0.000927 -0.005090 0.000000 0.000000 0.000000
# 2 0.000927 0.011191 -0.006332 0.000000 0.000000 0.000000
# 3 -0.005090 -0.006332 0.012752 0.000000 0.000000 0.000000
# 4 0.000000 0.000000 0.000000 0.024205 0.000000 0.000000
# 5 0.000000 0.000000 0.000000 0.000000 0.033062 0.000000
# 6 0.000000 0.000000 0.000000 0.000000 0.000000 0.137171
#
#
# Mechanical properties :
#
#
# Convention : Reuss Voigt Hill
#
# Bulk Modulus (GPa) = 56.27937 65.30216 60.79076
# Shear Modulus (GPa) = 19.22246 29.84018 24.53132
#
# Velocity S-wave (km/s) = 3.21669 4.00780 3.63384
# Velocity P-wave (km/s) = 6.64006 7.52115 7.09430
#
# Compressibility (1/GPa) = 0.01776850
#
# Stress axis : x y z
#
# Youngs Moduli (GPa) = 67.49259 89.35588 78.41658
#
# Poissons Ratio (x) = -0.08281 0.39917
# Poissons Ratio (y) = -0.06255 0.49655
# Poissons Ratio (z) = 0.34356 0.56581
#
# Static dielectric constant tensor:
#      x y z
#    x 1.643950 0.000000 0.000000 
#    y 0.000000 1.660090 0.000000 
#    z 0.000000 0.000000 1.516230 
# 
# From -- ./inp_files/33777.got.cif
#   From: 2010.05.17/outbox.cif.g08.bks.cpg/sg52_17_cif.got.tgz:33777.got - 2010.06.03 12:15:38.
