data_PCOD9411571
_publ_section_title
;
Structure prediction by ZEFSAII (Michael W. Deem and Ramdas Pophale) SiO2 
 PCOD9411571
Probable space group: P N N A
;
_chemical_formula_sum "Si O2"
_cell_formula_units_Z 24
_cell_length_a 14.903788
_cell_length_b 5.182847
_cell_length_c 13.017921
_cell_angle_alpha 90.000000
_cell_angle_beta 90.000000
_cell_angle_gamma 90.000000
_cell_volume 1005.556979
_symmetry_space_group_name_H-M "P N N A"
_symmetry_group_IT_number 52
_symmetry_cell_setting 'orthorhombic'
loop_
_space_group_symop_operation_xyz
x,y,z
1/2-x,-y,z
x,1/2-y,1/2-z
1/2-x,1/2+y,1/2-z
-x,-y,-z
1/2+x,y,-z
-x,1/2+y,1/2+z
1/2+x,1/2-y,1/2+z
loop_
_atom_site_type_symbol
_atom_site_label
_atom_site_fract_x
_atom_site_fract_y
_atom_site_fract_z
Si Si1 0.750000 0.500000 0.937809
Si Si2 0.697618 0.750000 0.750000
Si Si3 0.526141 0.728856 0.134349
Si Si4 0.390274 0.708042 0.549941
O O1 0.672673 0.617941 0.860225
O O2 0.706446 0.289608 0.010255
O O3 0.750000 0.500000 0.707825
O O4 0.491725 0.750000 0.250000
O O5 0.565595 0.447363 0.111658
O O6 0.600883 0.947585 0.113832
O O7 0.449247 0.805558 0.054159
#
# Coordination Sequence:
#
# PCOD9411571 Si02
#       4
#     4   4   8   8
#     4  10  22  38  60  94 126 156 216 268 322 380
#     4   8  20  32  52  88 120 160 186 262 336 364
#     4  10  22  42  61  89 126 170 210 254 318 392
#     4  10  23  38  65  91 122 165 210 268 315 376
#
# _framework density 23.867370000000001
#
# number of rings (size 3 to 8) (size 9 to 14) (size 15 to 20)
#    1.000    1.333    0.000    1.000    7.000    0.000 
#   12.000    3.333    0.000    0.000    0.000    0.000 
#    0.000    0.000    0.000    0.000    0.000    0.000 
#
# Total GULP energy -133684.119099 kJ/mol
# GULP energy per Si atom -5570.171629 kJ/mol
# Density = 2.381305 g / cm^3
# Si number density = 23.867370 Si / 1000 Ang^3
#
#
#
# Elastic Constant Matrix: (Units=GPa)
#
#
# Indices 1 2 3 4 5 6 
#
# 1 32.8716 12.1006 -1.7549 0.0000 0.0000 0.0000
# 2 12.1006 106.5319 32.5929 0.0000 0.0000 0.0000
# 3 -1.7549 32.5929 98.3100 0.0000 0.0000 0.0000
# 4 0.0000 0.0000 0.0000 20.6037 0.0000 0.0000
# 5 0.0000 0.0000 0.0000 0.0000 5.6576 0.0000
# 6 0.0000 0.0000 0.0000 0.0000 0.0000 23.0335
#
#
#
# Elastic Compliance Matrix: (Units=1/GPa)
#
#
# Indices 1 2 3 4 5 6 
#
# 1 0.032092 -0.004252 0.001982 0.000000 0.000000 0.000000
# 2 -0.004252 0.011010 -0.003726 0.000000 0.000000 0.000000
# 3 0.001982 -0.003726 0.011443 0.000000 0.000000 0.000000
# 4 0.000000 0.000000 0.000000 0.048535 0.000000 0.000000
# 5 0.000000 0.000000 0.000000 0.000000 0.176752 0.000000
# 6 0.000000 0.000000 0.000000 0.000000 0.000000 0.043415
#
#
# Mechanical properties :
#
#
# Convention : Reuss Voigt Hill
#
# Bulk Modulus (GPa) = 23.49949 35.95453 29.72701
# Shear Modulus (GPa) = 14.30935 22.84396 18.57665
#
# Velocity S-wave (km/s) = 2.45120 3.09709 2.79288
# Velocity P-wave (km/s) = 4.22829 5.28075 4.78355
#
# Compressibility (1/GPa) = 0.04255411
#
# Stress axis : x y z
#
# Youngs Moduli (GPa) = 31.16002 90.82850 87.39287
#
# Poissons Ratio (x) = 0.38619 -0.17325
# Poissons Ratio (y) = 0.13249 0.32562
# Poissons Ratio (z) = -0.06177 0.33843
#
# Static dielectric constant tensor:
#      x y z
#    x 2.019710 0.000000 0.000000 
#    y 0.000000 1.846910 0.000000 
#    z 0.000000 0.000000 1.905990 
# 
# From -- ./inp_files/26561.got.cif
#   From: 2010.05.17/outbox.cif.g08.bks.cpg/sg52_14_cif.got.tgz:26561.got - 2010.06.03 12:15:38.
