data_PCOD9411561
_publ_section_title
;
Structure prediction by ZEFSAII (Michael W. Deem and Ramdas Pophale) SiO2 
 PCOD9411561
Probable space group: P N N A
;
_chemical_formula_sum "Si O2"
_cell_formula_units_Z 48
_cell_length_a 19.494453
_cell_length_b 6.027399
_cell_length_c 19.248823
_cell_angle_alpha 90.000000
_cell_angle_beta 90.000000
_cell_angle_gamma 90.000000
_cell_volume 2261.752997
_symmetry_space_group_name_H-M "P N N A"
_symmetry_group_IT_number 52
_symmetry_cell_setting 'orthorhombic'
loop_
_space_group_symop_operation_xyz
x,y,z
1/2-x,-y,z
x,1/2-y,1/2-z
1/2-x,1/2+y,1/2-z
-x,-y,-z
1/2+x,y,-z
-x,1/2+y,1/2+z
1/2+x,1/2-y,1/2+z
loop_
_atom_site_type_symbol
_atom_site_label
_atom_site_fract_x
_atom_site_fract_y
_atom_site_fract_z
Si Si1 0.134175 0.824321 0.069331
Si Si2 0.457688 0.804064 0.035845
Si Si3 0.108031 0.495636 0.783878
Si Si4 0.052395 0.909932 0.312286
Si Si5 0.092271 0.922765 0.565134
Si Si6 0.250000 0.000000 0.152282
Si Si7 0.146179 0.250000 0.250000
O O1 0.076686 0.698004 0.115494
O O2 0.208487 0.824784 0.104609
O O3 0.107285 0.076698 0.068887
O O4 0.131722 0.727609 0.991438
O O5 0.517950 0.692280 0.081077
O O6 0.429889 0.639143 0.977554
O O7 0.500000 0.000000 0.000000
O O8 0.131478 0.250000 0.750000
O O9 0.131776 0.523676 0.864087
O O10 0.026626 0.453989 0.794286
O O11 0.117997 0.750000 0.750000
O O12 0.076859 0.750000 0.250000
O O13 0.096583 0.126401 0.302598
O O14 0.305699 0.900745 0.203679
#
# Coordination Sequence:
#
# PCOD9411561 Si02
#       7
#     8   8   8   8   8   4   4
#     4  11  24  39  59  85 121 169 223 268 318 373
#     4   9  19  36  61  81 118 155 206 256 319 377
#     4  11  25  38  64  98 132 165 213 264 339 410
#     4  11  22  38  58  85 121 177 217 260 312 375
#     4  10  22  38  59  88 120 166 204 267 332 395
#     4  12  26  40  60  84 118 178 224 274 312 370
#     4  12  24  44  54  78 134 166 224 268 298 366
#
# _framework density 21.222477999999999
#
# number of rings (size 3 to 8) (size 9 to 14) (size 15 to 20)
#    0.000    1.333    2.500    4.000   14.000    0.000 
#    0.000    0.000    0.000    0.000    0.000    0.000 
#    5.000    0.000    0.000    0.000    0.000    0.000 
#
# Total GULP energy -267424.267257 kJ/mol
# GULP energy per Si atom -5571.338901 kJ/mol
# Density = 2.117417 g / cm^3
# Si number density = 21.222478 Si / 1000 Ang^3
#
#
#
# Elastic Constant Matrix: (Units=GPa)
#
#
# Indices 1 2 3 4 5 6 
#
# 1 18.2632 -7.9182 -3.6505 0.0000 0.0000 0.0000
# 2 -7.9182 92.0175 40.7591 0.0000 0.0000 0.0000
# 3 -3.6505 40.7591 129.0688 0.0000 0.0000 0.0000
# 4 0.0000 0.0000 0.0000 37.5981 0.0000 0.0000
# 5 0.0000 0.0000 0.0000 0.0000 116.9218 0.0000
# 6 0.0000 0.0000 0.0000 0.0000 0.0000 -3.1669
#
#
#
# Elastic Compliance Matrix: (Units=1/GPa)
#
#
# Indices 1 2 3 4 5 6 
#
# 1 0.056878 0.004862 0.000073 0.000000 0.000000 0.000000
# 2 0.004862 0.013050 -0.003984 0.000000 0.000000 0.000000
# 3 0.000073 -0.003984 0.009008 0.000000 0.000000 0.000000
# 4 0.000000 0.000000 0.000000 0.026597 0.000000 0.000000
# 5 0.000000 0.000000 0.000000 0.000000 0.008553 0.000000
# 6 0.000000 0.000000 0.000000 0.000000 0.000000 -0.315771
#
#
# Mechanical properties :
#
#
# Convention : Reuss Voigt Hill
#
# Bulk Modulus (GPa) = 12.37027 33.08113 22.72570
# Shear Modulus (GPa) = -28.30587 44.28121 7.98767
#
# Velocity S-wave (km/s) = -3.65604 4.57280 1.94215
# Velocity P-wave (km/s) = 3.46131 6.59563 3.96999
#
# Compressibility (1/GPa) = 0.08083897
#
# Stress axis : x y z
#
# Youngs Moduli (GPa) = 17.58163 76.62561 111.01342
#
# Poissons Ratio (x) = -0.37255 -0.00814
# Poissons Ratio (y) = -0.08548 0.44225
# Poissons Ratio (z) = -0.00129 0.30526
#
# Static dielectric constant tensor:
#      x y z
#    x 1.751350 0.000000 0.000000 
#    y 0.000000 1.846530 0.000000 
#    z 0.000000 0.000000 3.267250 
# 
# From -- ./inp_files/34296.got.cif
#   From: 2010.05.17/outbox.cif.g08.bks.cpg/sg52_18_cif.got.tgz:34296.got - 2010.06.03 12:15:38.
