data_PCOD9411624
_publ_section_title
;
Structure prediction by ZEFSAII (Michael W. Deem and Ramdas Pophale) SiO2 
 PCOD9411624
Probable space group: P N N A
;
_chemical_formula_sum "Si O2"
_cell_formula_units_Z 60
_cell_length_a 26.236479
_cell_length_b 8.298460
_cell_length_c 15.146203
_cell_angle_alpha 90.000000
_cell_angle_beta 90.000000
_cell_angle_gamma 90.000000
_cell_volume 3297.667237
_symmetry_space_group_name_H-M "P N N A"
_symmetry_group_IT_number 52
_symmetry_cell_setting 'orthorhombic'
loop_
_space_group_symop_operation_xyz
x,y,z
1/2-x,-y,z
x,1/2-y,1/2-z
1/2-x,1/2+y,1/2-z
-x,-y,-z
1/2+x,y,-z
-x,1/2+y,1/2+z
1/2+x,1/2-y,1/2+z
loop_
_atom_site_type_symbol
_atom_site_label
_atom_site_fract_x
_atom_site_fract_y
_atom_site_fract_z
Si Si1 0.626465 0.087874 0.572109
Si Si2 0.223093 0.164141 0.332744
Si Si3 0.472796 0.439911 0.743915
Si Si4 0.865677 0.540548 0.572700
Si Si5 0.047883 0.951907 0.560644
Si Si6 0.451624 0.431122 0.553851
Si Si7 0.750000 0.000000 0.906044
Si Si8 0.584677 0.562067 0.748731
O O1 0.687159 0.100346 0.588537
O O2 0.613457 0.276661 0.575731
O O3 0.599481 0.010627 0.487444
O O4 0.606372 0.993426 0.657595
O O5 0.193424 0.250000 0.250000
O O6 0.256212 0.319566 0.361705
O O7 0.250000 0.000000 0.301685
O O8 0.460868 0.250000 0.750000
O O9 0.457398 0.513530 0.838595
O O10 0.449271 0.503948 0.652568
O O11 0.533262 0.462983 0.732383
O O12 0.900631 0.456815 0.501088
O O13 0.805732 0.527554 0.551123
O O14 0.876076 0.467621 0.669340
O O15 0.043305 0.759840 0.563348
O O16 0.000000 0.000000 0.500000
O O17 0.500000 0.500000 0.500000
O O18 0.571534 0.750000 0.750000
#
# Coordination Sequence:
#
# PCOD9411624 Si02
#       8
#     8   8   8   8   8   8   4   8
#     4  11  23  38  54  83 118 162 195 243 297 350
#     4  11  23  38  60  85 122 162 207 250 303 358
#     4  10  22  39  56  82 120 158 196 242 301 354
#     4  11  23  40  58  82 122 158 202 248 301 359
#     4  11  22  37  58  85 120 156 197 242 295 364
#     4  11  22  37  60  88 116 156 199 250 303 361
#     4  10  24  40  56  86 118 164 204 252 298 364
#     4  12  23  32  55  85 119 157 198 240 291 360
#
# _framework density 18.194679000000001
#
# number of rings (size 3 to 8) (size 9 to 14) (size 15 to 20)
#    0.000    1.067    3.333    4.400    3.733    1.067 
#    0.000    0.000    0.000    0.000    1.733    0.000 
#    0.000    0.000    0.000    0.000    0.000    0.000 
#
# Total GULP energy -334293.518988 kJ/mol
# GULP energy per Si atom -5571.558650 kJ/mol
# Density = 1.815327 g / cm^3
# Si number density = 18.194679 Si / 1000 Ang^3
#
#
#
# Elastic Constant Matrix: (Units=GPa)
#
#
# Indices 1 2 3 4 5 6 
#
# 1 81.5452 11.8295 50.2055 0.0000 0.0000 0.0000
# 2 11.8295 61.1571 26.6157 0.0000 0.0000 0.0000
# 3 50.2055 26.6157 127.6368 0.0000 0.0000 0.0000
# 4 0.0000 0.0000 0.0000 23.9126 0.0000 0.0000
# 5 0.0000 0.0000 0.0000 0.0000 20.2089 0.0000
# 6 0.0000 0.0000 0.0000 0.0000 0.0000 28.9351
#
#
#
# Elastic Compliance Matrix: (Units=1/GPa)
#
#
# Indices 1 2 3 4 5 6 
#
# 1 0.016191 -0.000396 -0.006286 0.000000 0.000000 0.000000
# 2 -0.000396 0.017993 -0.003596 0.000000 0.000000 0.000000
# 3 -0.006286 -0.003596 0.011057 0.000000 0.000000 0.000000
# 4 0.000000 0.000000 0.000000 0.041819 0.000000 0.000000
# 5 0.000000 0.000000 0.000000 0.000000 0.049483 0.000000
# 6 0.000000 0.000000 0.000000 0.000000 0.000000 0.034560
#
#
# Mechanical properties :
#
#
# Convention : Reuss Voigt Hill
#
# Bulk Modulus (GPa) = 40.51140 49.73783 45.12462
# Shear Modulus (GPa) = 25.01402 26.72388 25.86895
#
# Velocity S-wave (km/s) = 3.71185 3.83662 3.77475
# Velocity P-wave (km/s) = 6.37842 6.85726 6.62217
#
# Compressibility (1/GPa) = 0.02468441
#
# Stress axis : x y z
#
# Youngs Moduli (GPa) = 61.76373 55.57705 90.43871
#
# Poissons Ratio (x) = 0.02201 0.56850
# Poissons Ratio (y) = 0.02446 0.32524
# Poissons Ratio (z) = 0.38825 0.19987
#
# Static dielectric constant tensor:
#      x y z
#    x 1.641420 0.000000 0.000000 
#    y 0.000000 1.231610 0.000000 
#    z 0.000000 0.000000 1.661310 
# 
# From -- ./inp_files/29197.got.cif
#   From: 2010.05.17/outbox.cif.g08.bks.cpg/sg52_15_cif.got.tgz:29197.got - 2010.06.03 12:15:38.
