data_PCOD9411014
_publ_section_title
;
Structure prediction by ZEFSAII (Michael W. Deem and Ramdas Pophale) SiO2 
 PCOD9411014
Probable space group: P N N A
;
_chemical_formula_sum "Si O2"
_cell_formula_units_Z 28
_cell_length_a 7.376527
_cell_length_b 7.653110
_cell_length_c 23.022776
_cell_angle_alpha 90.000000
_cell_angle_beta 90.000000
_cell_angle_gamma 90.000000
_cell_volume 1299.713351
_symmetry_space_group_name_H-M "P N N A"
_symmetry_group_IT_number 52
_symmetry_cell_setting 'orthorhombic'
loop_
_space_group_symop_operation_xyz
x,y,z
1/2-x,-y,z
x,1/2-y,1/2-z
1/2-x,1/2+y,1/2-z
-x,-y,-z
1/2+x,y,-z
-x,1/2+y,1/2+z
1/2+x,1/2-y,1/2+z
loop_
_atom_site_type_symbol
_atom_site_label
_atom_site_fract_x
_atom_site_fract_y
_atom_site_fract_z
Si Si1 0.688134 0.807838 0.043787
Si Si2 0.400372 0.637836 0.195747
Si Si3 0.750000 0.500000 0.123424
Si Si4 0.215008 0.292020 0.078518
O O1 0.799411 0.659576 0.079375
O O2 0.487210 0.761064 0.062089
O O3 0.750000 0.000000 0.060844
O O4 0.678929 0.795963 0.973870
O O5 0.250000 0.500000 0.216580
O O6 0.464158 0.750000 0.250000
O O7 0.575672 0.552509 0.162989
O O8 0.284962 0.745627 0.146949
O O9 0.250000 0.500000 0.073585
#
# Coordination Sequence:
#
# PCOD9411014 Si02
#       4
#     8   8   4   8
#     4  11  22  38  66 106 129 174 220 271 350 406
#     4  10  24  45  66  96 129 183 225 274 336 396
#     4  10  24  46  70  96 144 174 222 284 346 394
#     4  10  21  39  65  92 140 170 213 280 343 402
#
# _framework density 21.543213000000002
#
# number of rings (size 3 to 8) (size 9 to 14) (size 15 to 20)
#    0.000    1.714    1.429    1.714    8.000    2.286 
#   20.571    0.000    0.000    0.000    0.000    0.000 
#    0.000    0.000    0.000    0.000    0.000    0.000 
#
# Total GULP energy -156020.581254 kJ/mol
# GULP energy per Si atom -5572.163616 kJ/mol
# Density = 2.149418 g / cm^3
# Si number density = 21.543213 Si / 1000 Ang^3
#
#
#
# Elastic Constant Matrix: (Units=GPa)
#
#
# Indices 1 2 3 4 5 6 
#
# 1 69.6396 43.6576 17.6024 0.0000 0.0000 0.0000
# 2 43.6576 129.6102 68.6786 0.0000 0.0000 0.0000
# 3 17.6024 68.6786 113.1852 0.0000 0.0000 0.0000
# 4 0.0000 0.0000 0.0000 28.6586 0.0000 0.0000
# 5 0.0000 0.0000 0.0000 0.0000 36.8887 0.0000
# 6 0.0000 0.0000 0.0000 0.0000 0.0000 26.5286
#
#
#
# Elastic Compliance Matrix: (Units=1/GPa)
#
#
# Indices 1 2 3 4 5 6 
#
# 1 0.018337 -0.006876 0.001321 0.000000 0.000000 0.000000
# 2 -0.006876 0.013950 -0.007395 0.000000 0.000000 0.000000
# 3 0.001321 -0.007395 0.013117 0.000000 0.000000 0.000000
# 4 0.000000 0.000000 0.000000 0.034893 0.000000 0.000000
# 5 0.000000 0.000000 0.000000 0.000000 0.027109 0.000000
# 6 0.000000 0.000000 0.000000 0.000000 0.000000 0.037695
#
#
# Mechanical properties :
#
#
# Convention : Reuss Voigt Hill
#
# Bulk Modulus (GPa) = 51.27662 63.59027 57.43344
# Shear Modulus (GPa) = 28.16839 30.58162 29.37500
#
# Velocity S-wave (km/s) = 3.61990 3.77178 3.69662
# Velocity P-wave (km/s) = 6.42845 6.96778 6.70354
#
# Compressibility (1/GPa) = 0.01950207
#
# Stress axis : x y z
#
# Youngs Moduli (GPa) = 54.53565 71.68271 76.23644
#
# Poissons Ratio (x) = 0.49291 -0.10069
# Poissons Ratio (y) = 0.37500 0.56380
# Poissons Ratio (z) = -0.07203 0.53012
#
# Static dielectric constant tensor:
#      x y z
#    x 1.815730 0.000000 0.000000 
#    y 0.000000 1.827190 0.000000 
#    z 0.000000 0.000000 1.868790 
# 
# From -- ./inp_files/35389.got.cif
#   From: 2010.05.17/outbox.cif.g08.bks.cpg/sg52_18_cif.got.tgz:35389.got - 2010.06.03 12:15:38.
