data_PCOD9411138
_publ_section_title
;
Structure prediction by ZEFSAII (Michael W. Deem and Ramdas Pophale) SiO2 
 PCOD9411138
Probable space group: P N N A
;
_chemical_formula_sum "Si O2"
_cell_formula_units_Z 40
_cell_length_a 15.427339
_cell_length_b 9.853836
_cell_length_c 14.168573
_cell_angle_alpha 90.000000
_cell_angle_beta 90.000000
_cell_angle_gamma 90.000000
_cell_volume 2153.884767
_symmetry_space_group_name_H-M "P N N A"
_symmetry_group_IT_number 52
_symmetry_cell_setting 'orthorhombic'
loop_
_space_group_symop_operation_xyz
x,y,z
1/2-x,-y,z
x,1/2-y,1/2-z
1/2-x,1/2+y,1/2-z
-x,-y,-z
1/2+x,y,-z
-x,1/2+y,1/2+z
1/2+x,1/2-y,1/2+z
loop_
_atom_site_type_symbol
_atom_site_label
_atom_site_fract_x
_atom_site_fract_y
_atom_site_fract_z
Si Si1 0.564692 0.482669 0.279846
Si Si2 0.250000 0.500000 0.445133
Si Si3 0.096302 0.838679 0.152655
Si Si4 0.325302 0.250000 0.750000
Si Si5 0.315886 0.786800 0.901639
Si Si6 0.976331 0.617287 0.071141
O O1 0.475437 0.457737 0.335141
O O2 0.613944 0.624429 0.278149
O O3 0.630263 0.373058 0.324054
O O4 0.538521 0.444728 0.174343
O O5 0.181839 0.586106 0.383084
O O6 0.289720 0.609783 0.516907
O O7 0.107348 0.750000 0.250000
O O8 0.051194 0.731792 0.080521
O O9 0.263651 0.275703 0.841513
O O10 0.383066 0.683431 0.948444
O O11 0.000000 0.500000 0.000000
#
# Coordination Sequence:
#
# PCOD9411138 Si02
#       6
#     8   4   8   4   8   8
#     4  10  21  40  65  87 133 171 205 263 331 377
#     4  12  24  42  68  94 126 166 224 266 316 396
#     4   9  23  48  61  83 128 173 209 266 322 381
#     4  12  20  36  66 100 130 162 206 264 338 376
#     4  11  22  38  63 100 128 165 209 271 320 377
#     4  10  22  40  63  92 131 169 210 262 317 387
#
# _framework density 18.571095
#
# number of rings (size 3 to 8) (size 9 to 14) (size 15 to 20)
#    0.000    1.600    4.000    1.200    2.800    4.800 
#    9.000    0.000    0.000    0.000    0.000    0.000 
#    0.000    0.000    0.000    0.000    0.000    0.000 
#
# Total GULP energy -223030.385706 kJ/mol
# GULP energy per Si atom -5575.759643 kJ/mol
# Density = 1.852883 g / cm^3
# Si number density = 18.571095 Si / 1000 Ang^3
#
#
#
# Elastic Constant Matrix: (Units=GPa)
#
#
# Indices 1 2 3 4 5 6 
#
# 1 131.1667 89.5217 64.9944 0.0000 0.0000 0.0000
# 2 89.5217 117.5197 50.9841 0.0000 0.0000 0.0000
# 3 64.9944 50.9841 73.0318 0.0000 0.0000 0.0000
# 4 0.0000 0.0000 0.0000 16.1381 0.0000 0.0000
# 5 0.0000 0.0000 0.0000 0.0000 -1.5031 0.0000
# 6 0.0000 0.0000 0.0000 0.0000 0.0000 10.9007
#
#
#
# Elastic Compliance Matrix: (Units=1/GPa)
#
#
# Indices 1 2 3 4 5 6 
#
# 1 0.020188 -0.010879 -0.010372 0.000000 0.000000 0.000000
# 2 -0.010879 0.018068 -0.002932 0.000000 0.000000 0.000000
# 3 -0.010372 -0.002932 0.024970 0.000000 0.000000 0.000000
# 4 0.000000 0.000000 0.000000 0.061965 0.000000 0.000000
# 5 0.000000 0.000000 0.000000 0.000000 -0.665277 0.000000
# 6 0.000000 0.000000 0.000000 0.000000 0.000000 0.091738
#
#
# Mechanical properties :
#
#
# Convention : Reuss Voigt Hill
#
# Bulk Modulus (GPa) = 67.29017 81.41319 74.35168
# Shear Modulus (GPa) = -12.65729 12.85499 0.09885
#
# Velocity S-wave (km/s) = -2.61350 2.63383 0.23096
# Velocity P-wave (km/s) = 5.21587 7.29268 6.33990
#
# Compressibility (1/GPa) = 0.01486101
#
# Stress axis : x y z
#
# Youngs Moduli (GPa) = 49.53464 55.34577 40.04842
#
# Poissons Ratio (x) = 0.60209 0.41537
# Poissons Ratio (y) = 0.53887 0.11743
# Poissons Ratio (z) = 0.51375 0.16228
#
# Static dielectric constant tensor:
#      x y z
#    x 1.674680 0.000000 0.000000 
#    y 0.000000 1.659340 0.000000 
#    z 0.000000 0.000000 1.638740 
# 
# From -- ./inp_files/20378.got.cif
#   From: 2010.05.17/outbox.cif.g08.bks.cpg/sg52_11_cif.got.tgz:20378.got - 2010.06.03 12:15:38.
