data_PCOD9411028
_publ_section_title
;
Structure prediction by ZEFSAII (Michael W. Deem and Ramdas Pophale) SiO2 
 PCOD9411028
Probable space group: P N N A
;
_chemical_formula_sum "Si O2"
_cell_formula_units_Z 40
_cell_length_a 17.275054
_cell_length_b 5.035899
_cell_length_c 20.639677
_cell_angle_alpha 90.000000
_cell_angle_beta 90.000000
_cell_angle_gamma 90.000000
_cell_volume 1795.557517
_symmetry_space_group_name_H-M "P N N A"
_symmetry_group_IT_number 52
_symmetry_cell_setting 'orthorhombic'
loop_
_space_group_symop_operation_xyz
x,y,z
1/2-x,-y,z
x,1/2-y,1/2-z
1/2-x,1/2+y,1/2-z
-x,-y,-z
1/2+x,y,-z
-x,1/2+y,1/2+z
1/2+x,1/2-y,1/2+z
loop_
_atom_site_type_symbol
_atom_site_label
_atom_site_fract_x
_atom_site_fract_y
_atom_site_fract_z
Si Si1 0.195948 0.250000 0.750000
Si Si2 0.608983 0.850814 0.610442
Si Si3 0.567845 0.552565 0.306819
Si Si4 0.829517 0.846910 0.964864
Si Si5 0.958134 0.623987 0.437990
Si Si6 0.575125 0.750000 0.750000
O O1 0.250000 0.500000 0.764876
O O2 0.134748 0.327906 0.694121
O O3 0.633177 0.563155 0.584004
O O4 0.516757 0.845735 0.591597
O O5 0.618740 0.866259 0.687935
O O6 0.659686 0.071887 0.574236
O O7 0.593712 0.750000 0.250000
O O8 0.555772 0.596597 0.382444
O O9 0.484497 0.459257 0.281140
O O10 0.750000 0.000000 0.980982
O O11 0.876999 0.792359 0.030833
O O12 0.000000 0.500000 0.500000
#
# Coordination Sequence:
#
# PCOD9411028 Si02
#       6
#     4   8   8   8   8   4
#     4  11  22  42  60  88 134 181 214 260 330 419
#     4  10  22  41  67  94 129 169 224 276 339 409
#     4  10  21  39  65  99 127 164 224 283 334 400
#     4  11  23  42  62  94 132 176 220 274 336 412
#     4   9  21  41  66  98 129 176 222 284 341 410
#     4   9  22  36  66  98 122 165 212 290 338 389
#
# _framework density 22.277204000000001
#
# number of rings (size 3 to 8) (size 9 to 14) (size 15 to 20)
#    0.000    2.000    1.000    1.200    8.400    0.800 
#   10.800    2.000    0.000    0.000    0.000    0.000 
#    0.000    0.000    0.000    0.000    0.000    0.000 
#
# Total GULP energy -222674.420559 kJ/mol
# GULP energy per Si atom -5566.860514 kJ/mol
# Density = 2.222650 g / cm^3
# Si number density = 22.277204 Si / 1000 Ang^3
#
#
#
# Elastic Constant Matrix: (Units=GPa)
#
#
# Indices 1 2 3 4 5 6 
#
# 1 78.2211 7.9605 19.7607 0.0000 0.0000 0.0000
# 2 7.9605 89.0554 27.2587 0.0000 0.0000 0.0000
# 3 19.7607 27.2587 175.9335 0.0000 0.0000 0.0000
# 4 0.0000 0.0000 0.0000 20.4029 0.0000 0.0000
# 5 0.0000 0.0000 0.0000 0.0000 -5.3208 0.0000
# 6 0.0000 0.0000 0.0000 0.0000 0.0000 34.9035
#
#
#
# Elastic Compliance Matrix: (Units=1/GPa)
#
#
# Indices 1 2 3 4 5 6 
#
# 1 0.013207 -0.000763 -0.001365 0.000000 0.000000 0.000000
# 2 -0.000763 0.011832 -0.001748 0.000000 0.000000 0.000000
# 3 -0.001365 -0.001748 0.006108 0.000000 0.000000 0.000000
# 4 0.000000 0.000000 0.000000 0.049013 0.000000 0.000000
# 5 0.000000 0.000000 0.000000 0.000000 -0.187942 0.000000
# 6 0.000000 0.000000 0.000000 0.000000 0.000000 0.028650
#
#
# Mechanical properties :
#
#
# Convention : Reuss Voigt Hill
#
# Bulk Modulus (GPa) = 42.74231 50.35219 46.54725
# Shear Modulus (GPa) = -78.63768 29.21245 -24.71261
#
# Velocity S-wave (km/s) = -5.94779 3.62514 -3.33426
# Velocity P-wave (km/s) = 5.28584 6.33828 2.47323
#
# Compressibility (1/GPa) = 0.02339602
#
# Stress axis : x y z
#
# Youngs Moduli (GPa) = 75.71872 84.51627 163.71788
#
# Poissons Ratio (x) = 0.06446 0.22351
# Poissons Ratio (y) = 0.05775 0.28611
# Poissons Ratio (z) = 0.10337 0.14770
#
# Static dielectric constant tensor:
#      x y z
#    x 1.933050 0.000000 0.000000 
#    y 0.000000 1.895900 0.000000 
#    z 0.000000 0.000000 1.848990 
# 
# From -- ./inp_files/37561.got.cif
#   From: 2010.05.17/outbox.cif.g08.bks.cpg/sg52_19_cif.got.tgz:37561.got - 2010.06.03 12:15:38.
