data_PCOD9411815
_publ_section_title
;
Structure prediction by ZEFSAII (Michael W. Deem and Ramdas Pophale) SiO2 
 PCOD9411815
Probable space group: P N N A
;
_chemical_formula_sum "Si O2"
_cell_formula_units_Z 56
_cell_length_a 20.085076
_cell_length_b 8.671576
_cell_length_c 16.672850
_cell_angle_alpha 90.000000
_cell_angle_beta 90.000000
_cell_angle_gamma 90.000000
_cell_volume 2903.897997
_symmetry_space_group_name_H-M "P N N A"
_symmetry_group_IT_number 52
_symmetry_cell_setting 'orthorhombic'
loop_
_space_group_symop_operation_xyz
x,y,z
1/2-x,-y,z
x,1/2-y,1/2-z
1/2-x,1/2+y,1/2-z
-x,-y,-z
1/2+x,y,-z
-x,1/2+y,1/2+z
1/2+x,1/2-y,1/2+z
loop_
_atom_site_type_symbol
_atom_site_label
_atom_site_fract_x
_atom_site_fract_y
_atom_site_fract_z
Si Si1 0.048959 0.079463 0.726751
Si Si2 0.867730 0.290331 0.007958
Si Si3 0.044238 0.004899 0.419525
Si Si4 0.043566 0.970760 0.901582
Si Si5 0.319968 0.560784 0.871557
Si Si6 0.271943 0.842228 0.980032
Si Si7 0.589962 0.159899 0.960215
O O1 0.024304 0.250000 0.750000
O O2 0.122658 0.094035 0.690899
O O3 0.054571 0.980541 0.807566
O O4 0.000800 0.008788 0.659049
O O5 0.906177 0.362387 0.932827
O O6 0.913965 0.165758 0.054970
O O7 0.849489 0.430522 0.068431
O O8 0.796480 0.221583 0.984056
O O9 0.080903 0.168381 0.427527
O O10 0.000000 0.000000 0.500000
O O11 0.965066 0.942937 0.915317
O O12 0.066379 0.126934 0.947490
O O13 0.250000 0.500000 0.836739
O O14 0.300975 0.711863 0.922112
O O15 0.250000 0.000000 0.936822
O O16 0.332222 0.879478 0.040499
#
# Coordination Sequence:
#
# PCOD9411815 Si02
#       7
#     8   8   8   8   8   8   8
#     4  12  26  41  63  96 134 169 218 270 330 382
#     4  11  22  38  68  94 127 167 225 262 326 392
#     4  12  21  40  67  89 127 170 213 271 325 379
#     4  11  24  40  66  99 126 166 221 270 320 396
#     4  10  22  41  58  90 133 178 210 255 323 390
#     4  11  21  37  65  97 126 170 223 264 315 390
#     4  11  22  40  67  92 130 168 216 268 327 379
#
# _framework density 19.284421999999999
#
# number of rings (size 3 to 8) (size 9 to 14) (size 15 to 20)
#    0.000    0.857    5.714    1.714    2.000    2.286 
#    7.714    0.000    0.000    0.000   14.857    0.000 
#    0.000    0.000    0.000    0.000    0.000    0.000 
#
# Total GULP energy -312601.500891 kJ/mol
# GULP energy per Si atom -5582.169659 kJ/mol
# Density = 1.924053 g / cm^3
# Si number density = 19.284422 Si / 1000 Ang^3
#
#
#
# Elastic Constant Matrix: (Units=GPa)
#
#
# Indices 1 2 3 4 5 6 
#
# 1 147.1119 51.9837 44.6943 0.0000 0.0000 0.0000
# 2 51.9837 106.5533 34.7883 0.0000 0.0000 0.0000
# 3 44.6943 34.7883 69.5568 0.0000 0.0000 0.0000
# 4 0.0000 0.0000 0.0000 17.7337 0.0000 0.0000
# 5 0.0000 0.0000 0.0000 0.0000 21.3356 0.0000
# 6 0.0000 0.0000 0.0000 0.0000 0.0000 43.0999
#
#
#
# Elastic Compliance Matrix: (Units=1/GPa)
#
#
# Indices 1 2 3 4 5 6 
#
# 1 0.009213 -0.003062 -0.004388 0.000000 0.000000 0.000000
# 2 -0.003062 0.012234 -0.004151 0.000000 0.000000 0.000000
# 3 -0.004388 -0.004151 0.019273 0.000000 0.000000 0.000000
# 4 0.000000 0.000000 0.000000 0.056390 0.000000 0.000000
# 5 0.000000 0.000000 0.000000 0.000000 0.046870 0.000000
# 6 0.000000 0.000000 0.000000 0.000000 0.000000 0.023202
#
#
# Mechanical properties :
#
#
# Convention : Reuss Voigt Hill
#
# Bulk Modulus (GPa) = 57.08914 65.12829 61.10871
# Shear Modulus (GPa) = 25.48116 29.21755 27.34935
#
# Velocity S-wave (km/s) = 3.63896 3.89663 3.77000
# Velocity P-wave (km/s) = 6.87925 7.35464 7.12091
#
# Compressibility (1/GPa) = 0.01751647
#
# Stress axis : x y z
#
# Youngs Moduli (GPa) = 108.54574 81.73864 51.88662
#
# Poissons Ratio (x) = 0.25027 0.22770
# Poissons Ratio (y) = 0.33235 0.21540
# Poissons Ratio (z) = 0.47634 0.33933
#
# Static dielectric constant tensor:
#      x y z
#    x 1.709570 0.000000 0.000000 
#    y 0.000000 1.764010 0.000000 
#    z 0.000000 0.000000 1.647340 
# 
# From -- ./inp_files/28785.got.cif
#   From: 2010.05.17/outbox.cif.g08.bks.cpg/sg52_15_cif.got.tgz:28785.got - 2010.06.03 12:15:38.
