data_PCOD9411021
_publ_section_title
;
Structure prediction by ZEFSAII (Michael W. Deem and Ramdas Pophale) SiO2 
 PCOD9411021
Probable space group: P N N A
;
_chemical_formula_sum "Si O2"
_cell_formula_units_Z 40
_cell_length_a 10.635996
_cell_length_b 27.988251
_cell_length_c 5.576679
_cell_angle_alpha 90.000000
_cell_angle_beta 90.000000
_cell_angle_gamma 90.000000
_cell_volume 1660.082120
_symmetry_space_group_name_H-M "P N N A"
_symmetry_group_IT_number 52
_symmetry_cell_setting 'orthorhombic'
loop_
_space_group_symop_operation_xyz
x,y,z
1/2-x,-y,z
x,1/2-y,1/2-z
1/2-x,1/2+y,1/2-z
-x,-y,-z
1/2+x,y,-z
-x,1/2+y,1/2+z
1/2+x,1/2-y,1/2+z
loop_
_atom_site_type_symbol
_atom_site_label
_atom_site_fract_x
_atom_site_fract_y
_atom_site_fract_z
Si Si1 0.573771 0.031116 0.802188
Si Si2 0.040215 0.622725 0.563918
Si Si3 0.527476 0.193945 0.293151
Si Si4 0.281538 0.346940 0.936306
Si Si5 0.173743 0.560308 0.193814
O O1 0.506107 0.081560 0.751569
O O2 0.713036 0.048819 0.880102
O O3 0.615972 0.990197 0.610072
O O4 0.500000 0.000000 0.000000
O O5 0.160829 0.649038 0.670710
O O6 0.070336 0.590138 0.334820
O O7 0.955357 0.664405 0.455746
O O8 0.525758 0.250000 0.250000
O O9 0.394818 0.177797 0.412966
O O10 0.648776 0.179205 0.449387
O O11 0.266414 0.402315 0.012379
#
# Coordination Sequence:
#
# PCOD9411021 Si02
#       5
#     8   8   8   8   8
#     4   9  17  34  60  93 133 176 223 273 338 404
#     4  10  21  39  65  94 133 178 223 285 346 417
#     4  11  27  45  68 100 133 177 239 291 359 424
#     4  11  24  45  69  98 136 179 229 291 355 419
#     4   9  19  36  59  95 135 175 225 275 338 417
#
# _framework density 24.095195
#
# number of rings (size 3 to 8) (size 9 to 14) (size 15 to 20)
#    0.000    2.000    0.000    2.400    2.800    2.400 
#    0.000   18.000    0.000    0.000    0.000    0.000 
#    0.000    0.000    0.000    0.000    0.000    0.000 
#
# Total GULP energy -222787.456047 kJ/mol
# GULP energy per Si atom -5569.686401 kJ/mol
# Density = 2.404035 g / cm^3
# Si number density = 24.095195 Si / 1000 Ang^3
#
#
#
# Elastic Constant Matrix: (Units=GPa)
#
#
# Indices 1 2 3 4 5 6 
#
# 1 134.8406 64.8125 22.9079 0.0000 0.0000 0.0000
# 2 64.8125 197.1141 32.1657 0.0000 0.0000 0.0000
# 3 22.9079 32.1657 39.7812 0.0000 0.0000 0.0000
# 4 0.0000 0.0000 0.0000 30.4658 0.0000 0.0000
# 5 0.0000 0.0000 0.0000 0.0000 32.7886 0.0000
# 6 0.0000 0.0000 0.0000 0.0000 0.0000 22.5220
#
#
#
# Elastic Compliance Matrix: (Units=1/GPa)
#
#
# Indices 1 2 3 4 5 6 
#
# 1 0.009164 -0.002479 -0.003272 0.000000 0.000000 0.000000
# 2 -0.002479 0.006515 -0.003840 0.000000 0.000000 0.000000
# 3 -0.003272 -0.003840 0.030127 0.000000 0.000000 0.000000
# 4 0.000000 0.000000 0.000000 0.032824 0.000000 0.000000
# 5 0.000000 0.000000 0.000000 0.000000 0.030498 0.000000
# 6 0.000000 0.000000 0.000000 0.000000 0.000000 0.044401
#
#
# Mechanical properties :
#
#
# Convention : Reuss Voigt Hill
#
# Bulk Modulus (GPa) = 37.56258 67.94535 52.75396
# Shear Modulus (GPa) = 27.53512 33.94527 30.74020
#
# Velocity S-wave (km/s) = 3.38415 3.75747 3.57568
# Velocity P-wave (km/s) = 5.55815 6.86183 6.24411
#
# Compressibility (1/GPa) = 0.02662224
#
# Stress axis : x y z
#
# Youngs Moduli (GPa) = 109.12610 153.49190 33.19289
#
# Poissons Ratio (x) = 0.38052 0.10862
# Poissons Ratio (y) = 0.27053 0.12747
# Poissons Ratio (z) = 0.35710 0.58944
#
# Static dielectric constant tensor:
#      x y z
#    x 2.017370 0.000000 0.000000 
#    y 0.000000 1.937520 0.000000 
#    z 0.000000 0.000000 2.021040 
# 
# From -- ./inp_files/1361.got.cif
#   From: 2010.05.17/outbox.cif.g08.bks.cpg/sg52_1_cif.got.tgz:1361.got - 2010.06.03 12:15:38.
