data_PCOD9411058
_publ_section_title
;
Structure prediction by ZEFSAII (Michael W. Deem and Ramdas Pophale) SiO2 
 PCOD9411058
Probable space group: P N N A
;
_chemical_formula_sum "Si O2"
_cell_formula_units_Z 56
_cell_length_a 14.116321
_cell_length_b 14.903993
_cell_length_c 12.471080
_cell_angle_alpha 90.000000
_cell_angle_beta 90.000000
_cell_angle_gamma 90.000000
_cell_volume 2623.784901
_symmetry_space_group_name_H-M "P N N A"
_symmetry_group_IT_number 52
_symmetry_cell_setting 'orthorhombic'
loop_
_space_group_symop_operation_xyz
x,y,z
1/2-x,-y,z
x,1/2-y,1/2-z
1/2-x,1/2+y,1/2-z
-x,-y,-z
1/2+x,y,-z
-x,1/2+y,1/2+z
1/2+x,1/2-y,1/2+z
loop_
_atom_site_type_symbol
_atom_site_label
_atom_site_fract_x
_atom_site_fract_y
_atom_site_fract_z
Si Si1 0.494190 0.880228 0.127444
Si Si2 0.798477 0.599935 0.257251
Si Si3 0.168628 0.352865 0.217070
Si Si4 0.171623 0.721950 0.591141
Si Si5 0.691734 0.587380 0.603433
Si Si6 0.034964 0.424825 0.600346
Si Si7 0.272143 0.895112 0.519524
O O1 0.426871 0.891358 0.228776
O O2 0.562533 0.795479 0.123030
O O3 0.557603 0.969224 0.110416
O O4 0.438240 0.883921 0.015055
O O5 0.750000 0.500000 0.269340
O O6 0.728491 0.672352 0.312448
O O7 0.897162 0.617866 0.315221
O O8 0.825509 0.608465 0.132476
O O9 0.164753 0.250000 0.250000
O O10 0.258066 0.391626 0.283144
O O11 0.179582 0.364004 0.090506
O O12 0.199918 0.664824 0.485234
O O13 0.189683 0.824255 0.554180
O O14 0.750000 0.500000 0.563784
O O15 0.578083 0.579061 0.617842
O O16 0.250000 0.000000 0.502144
#
# Coordination Sequence:
#
# PCOD9411058 Si02
#       7
#     8   8   8   8   8   8   8
#     4  10  22  39  71 109 135 168 238 300 349 415
#     4  11  22  42  69 101 146 184 231 293 356 426
#     4  12  24  45  69 100 141 188 238 286 353 427
#     4  11  22  43  73 104 135 182 233 297 349 421
#     4  11  21  39  74 104 138 173 224 301 355 410
#     4  10  21  39  69 114 133 171 230 295 365 410
#     4  11  27  46  68  98 143 196 238 276 361 435
#
# _framework density 21.343214
#
# number of rings (size 3 to 8) (size 9 to 14) (size 15 to 20)
#    0.000    1.143    4.286    2.143    2.000    1.143 
#    0.000    5.000    0.000    0.000    0.000    0.000 
#    0.000    0.000    0.000    0.000    0.000    0.000 
#
# Total GULP energy -312142.205815 kJ/mol
# GULP energy per Si atom -5573.967961 kJ/mol
# Density = 2.129464 g / cm^3
# Si number density = 21.343214 Si / 1000 Ang^3
#
#
#
# Elastic Constant Matrix: (Units=GPa)
#
#
# Indices 1 2 3 4 5 6 
#
# 1 92.9225 9.6218 50.0224 0.0000 0.0000 0.0000
# 2 9.6218 99.0744 30.9191 0.0000 0.0000 0.0000
# 3 50.0224 30.9191 179.4651 0.0000 0.0000 0.0000
# 4 0.0000 0.0000 0.0000 19.9183 0.0000 0.0000
# 5 0.0000 0.0000 0.0000 0.0000 55.2828 0.0000
# 6 0.0000 0.0000 0.0000 0.0000 0.0000 16.4654
#
#
#
# Elastic Compliance Matrix: (Units=1/GPa)
#
#
# Indices 1 2 3 4 5 6 
#
# 1 0.012663 -0.000136 -0.003506 0.000000 0.000000 0.000000
# 2 -0.000136 0.010668 -0.001800 0.000000 0.000000 0.000000
# 3 -0.003506 -0.001800 0.006860 0.000000 0.000000 0.000000
# 4 0.000000 0.000000 0.000000 0.050205 0.000000 0.000000
# 5 0.000000 0.000000 0.000000 0.000000 0.018089 0.000000
# 6 0.000000 0.000000 0.000000 0.000000 0.000000 0.060734
#
#
# Mechanical properties :
#
#
# Convention : Reuss Voigt Hill
#
# Bulk Modulus (GPa) = 51.79452 61.39874 56.59663
# Shear Modulus (GPa) = 28.32243 37.05986 32.69115
#
# Velocity S-wave (km/s) = 3.64675 4.17151 3.91792
# Velocity P-wave (km/s) = 6.48474 7.21330 6.85870
#
# Compressibility (1/GPa) = 0.01930706
#
# Stress axis : x y z
#
# Youngs Moduli (GPa) = 78.96898 93.73479 145.78184
#
# Poissons Ratio (x) = 0.01271 0.51115
# Poissons Ratio (y) = 0.01071 0.26244
# Poissons Ratio (z) = 0.27689 0.16874
#
# Static dielectric constant tensor:
#      x y z
#    x 1.803920 0.000000 0.000000 
#    y 0.000000 2.339730 0.000000 
#    z 0.000000 0.000000 1.824760 
# 
# From -- ./inp_files/19644.got.cif
#   From: 2010.05.17/outbox.cif.g08.bks.cpg/sg52_10_cif.got.tgz:19644.got - 2010.06.03 12:15:38.
