data_PCOD9411692
_publ_section_title
;
Structure prediction by ZEFSAII (Michael W. Deem and Ramdas Pophale) SiO2 
 PCOD9411692
Probable space group: P N N A
;
_chemical_formula_sum "Si O2"
_cell_formula_units_Z 48
_cell_length_a 8.825384
_cell_length_b 11.091527
_cell_length_c 22.270160
_cell_angle_alpha 90.000000
_cell_angle_beta 90.000000
_cell_angle_gamma 90.000000
_cell_volume 2179.958816
_symmetry_space_group_name_H-M "P N N A"
_symmetry_group_IT_number 52
_symmetry_cell_setting 'orthorhombic'
loop_
_space_group_symop_operation_xyz
x,y,z
1/2-x,-y,z
x,1/2-y,1/2-z
1/2-x,1/2+y,1/2-z
-x,-y,-z
1/2+x,y,-z
-x,1/2+y,1/2+z
1/2+x,1/2-y,1/2+z
loop_
_atom_site_type_symbol
_atom_site_label
_atom_site_fract_x
_atom_site_fract_y
_atom_site_fract_z
Si Si1 0.154081 0.624104 0.180708
Si Si2 0.933031 0.499536 0.705749
Si Si3 0.398165 0.750000 0.250000
Si Si4 0.250000 0.000000 0.006854
Si Si5 0.958125 0.625528 0.069225
Si Si6 0.397913 0.345080 0.940685
Si Si7 0.503311 0.900639 0.084403
O O1 0.250000 0.500000 0.167838
O O2 0.054132 0.597028 0.240760
O O3 0.282243 0.720402 0.196099
O O4 0.049101 0.667146 0.127217
O O5 0.750000 0.500000 0.696271
O O6 0.981778 0.627140 0.735389
O O7 0.006142 0.506593 0.640194
O O8 0.131767 0.934122 0.963682
O O9 0.344687 0.912930 0.050023
O O10 0.783323 0.662383 0.064095
O O11 0.952838 0.479507 0.075367
O O12 0.045825 0.666161 0.009490
O O13 0.467671 0.238943 0.900791
#
# Coordination Sequence:
#
# PCOD9411692 Si02
#       7
#     8   8   4   4   8   8   8
#     4   9  20  36  60  88 116 157 200 255 293 360
#     4   9  19  37  60  89 116 156 202 257 288 361
#     4   8  18  34  58  90 106 154 202 228 306 346
#     4  10  24  38  60  90 120 152 204 250 304 348
#     4  10  22  40  57  91 125 150 200 251 298 379
#     4  10  23  37  61  88 121 158 193 240 321 349
#     4  11  21  41  61  90 119 161 199 252 301 368
#
# _framework density 22.018764000000001
#
# number of rings (size 3 to 8) (size 9 to 14) (size 15 to 20)
#    0.000    2.667    0.833    1.000    9.333    1.333 
#    9.000    1.667    0.000    0.000    0.000    0.000 
#    0.000    0.000    0.000    0.000    0.000    0.000 
#
# Total GULP energy -267874.236256 kJ/mol
# GULP energy per Si atom -5580.713255 kJ/mol
# Density = 2.196865 g / cm^3
# Si number density = 22.018764 Si / 1000 Ang^3
#
#
#
# Elastic Constant Matrix: (Units=GPa)
#
#
# Indices 1 2 3 4 5 6 
#
# 1 80.2932 7.0479 38.6737 0.0000 0.0000 0.0000
# 2 7.0479 50.9770 -8.1662 0.0000 0.0000 0.0000
# 3 38.6737 -8.1662 95.9501 0.0000 0.0000 0.0000
# 4 0.0000 0.0000 0.0000 9.8697 0.0000 0.0000
# 5 0.0000 0.0000 0.0000 0.0000 4.3906 0.0000
# 6 0.0000 0.0000 0.0000 0.0000 0.0000 12.0621
#
#
#
# Elastic Compliance Matrix: (Units=1/GPa)
#
#
# Indices 1 2 3 4 5 6 
#
# 1 0.015980 -0.003286 -0.006720 0.000000 0.000000 0.000000
# 2 -0.003286 0.020563 0.003075 0.000000 0.000000 0.000000
# 3 -0.006720 0.003075 0.013392 0.000000 0.000000 0.000000
# 4 0.000000 0.000000 0.000000 0.101320 0.000000 0.000000
# 5 0.000000 0.000000 0.000000 0.000000 0.227760 0.000000
# 6 0.000000 0.000000 0.000000 0.000000 0.000000 0.082904
#
#
# Mechanical properties :
#
#
# Convention : Reuss Voigt Hill
#
# Bulk Modulus (GPa) = 27.72221 33.59234 30.65727
# Shear Modulus (GPa) = 10.24994 17.90881 14.07938
#
# Velocity S-wave (km/s) = 2.15991 2.85501 2.53143
# Velocity P-wave (km/s) = 4.34026 5.11444 4.74317
#
# Compressibility (1/GPa) = 0.03607216
#
# Stress axis : x y z
#
# Youngs Moduli (GPa) = 62.57937 48.62987 74.66872
#
# Poissons Ratio (x) = 0.15979 0.50181
# Poissons Ratio (y) = 0.20563 -0.22957
# Poissons Ratio (z) = 0.42056 -0.14951
#
# Static dielectric constant tensor:
#      x y z
#    x 1.768820 0.000000 0.000000 
#    y 0.000000 1.880540 0.000000 
#    z 0.000000 0.000000 1.832550 
# 
# From -- ./inp_files/39480.got.cif
#   From: 2010.05.17/outbox.cif.g08.bks.cpg/sg52_20_cif.got.tgz:39480.got - 2010.06.03 12:15:38.
