data_PCOD9411521
_publ_section_title
;
Structure prediction by ZEFSAII (Michael W. Deem and Ramdas Pophale) SiO2 
 PCOD9411521
Probable space group: P N N A
;
_chemical_formula_sum "Si O2"
_cell_formula_units_Z 32
_cell_length_a 9.528935
_cell_length_b 17.099208
_cell_length_c 7.367608
_cell_angle_alpha 90.000000
_cell_angle_beta 90.000000
_cell_angle_gamma 90.000000
_cell_volume 1200.457725
_symmetry_space_group_name_H-M "P N N A"
_symmetry_group_IT_number 52
_symmetry_cell_setting 'orthorhombic'
loop_
_space_group_symop_operation_xyz
x,y,z
1/2-x,-y,z
x,1/2-y,1/2-z
1/2-x,1/2+y,1/2-z
-x,-y,-z
1/2+x,y,-z
-x,1/2+y,1/2+z
1/2+x,1/2-y,1/2+z
loop_
_atom_site_type_symbol
_atom_site_label
_atom_site_fract_x
_atom_site_fract_y
_atom_site_fract_z
Si Si1 0.403214 0.963276 0.845383
Si Si2 0.028262 0.732283 0.030015
Si Si3 0.655826 0.574246 0.885163
Si Si4 0.779952 0.826108 0.954232
O O1 0.508331 0.961461 0.680123
O O2 0.250000 0.000000 0.830587
O O3 0.368146 0.876284 0.905806
O O4 0.500000 0.000000 0.000000
O O5 0.028383 0.750000 0.250000
O O6 0.100262 0.647892 0.996741
O O7 0.135548 0.797454 0.959400
O O8 0.877748 0.748553 0.941498
O O9 0.750000 0.500000 0.942518
O O10 0.738866 0.617528 0.715678
#
# Coordination Sequence:
#
# PCOD9411521 Si02
#       4
#     8   8   8   8
#     4  12  18  30  57  91 117 144 192 256 316 342
#     4  10  22  37  58  88 121 158 202 247 305 362
#     4  11  22  38  61  90 123 160 203 256 307 363
#     4  11  18  36  59  85 121 155 195 256 298 355
#
# _framework density 26.656499
#
# number of rings (size 3 to 8) (size 9 to 14) (size 15 to 20)
#    0.000    1.000   10.000    0.000    0.000    0.000 
#    0.000    7.500    0.000    0.000    0.000    0.000 
#    0.000    0.000    0.000    0.000    0.000    0.000 
#
# Total GULP energy -178871.400013 kJ/mol
# GULP energy per Si atom -5589.731250 kJ/mol
# Density = 2.659583 g / cm^3
# Si number density = 26.656499 Si / 1000 Ang^3
#
#
#
# Elastic Constant Matrix: (Units=GPa)
#
#
# Indices 1 2 3 4 5 6 
#
# 1 229.8957 73.4876 34.5666 0.0000 0.0000 0.0000
# 2 73.4876 138.9682 30.1280 0.0000 0.0000 0.0000
# 3 34.5666 30.1280 84.1553 0.0000 0.0000 0.0000
# 4 0.0000 0.0000 0.0000 23.3671 0.0000 0.0000
# 5 0.0000 0.0000 0.0000 0.0000 20.1152 0.0000
# 6 0.0000 0.0000 0.0000 0.0000 0.0000 80.6586
#
#
#
# Elastic Compliance Matrix: (Units=1/GPa)
#
#
# Indices 1 2 3 4 5 6 
#
# 1 0.005360 -0.002556 -0.001287 0.000000 0.000000 0.000000
# 2 -0.002556 0.009020 -0.002179 0.000000 0.000000 0.000000
# 3 -0.001287 -0.002179 0.013192 0.000000 0.000000 0.000000
# 4 0.000000 0.000000 0.000000 0.042795 0.000000 0.000000
# 5 0.000000 0.000000 0.000000 0.000000 0.049714 0.000000
# 6 0.000000 0.000000 0.000000 0.000000 0.000000 0.012398
#
#
# Mechanical properties :
#
#
# Convention : Reuss Voigt Hill
#
# Bulk Modulus (GPa) = 64.39975 81.04265 72.72120
# Shear Modulus (GPa) = 33.40060 45.81730 39.60895
#
# Velocity S-wave (km/s) = 3.54361 4.15034 3.85892
# Velocity P-wave (km/s) = 6.39957 7.30997 6.86987
#
# Compressibility (1/GPa) = 0.01552801
#
# Stress axis : x y z
#
# Youngs Moduli (GPa) = 186.56125 110.86748 75.80582
#
# Poissons Ratio (x) = 0.28333 0.09755
# Poissons Ratio (y) = 0.47676 0.16521
# Poissons Ratio (z) = 0.24006 0.24163
#
# Static dielectric constant tensor:
#      x y z
#    x 2.105750 0.000000 0.000000 
#    y 0.000000 2.190620 0.000000 
#    z 0.000000 0.000000 2.335430 
# 
# From -- ./inp_files/16423.got.cif
#   From: 2010.05.17/outbox.cif.g08.bks.cpg/sg52_9_cif.got.tgz:16423.got - 2010.06.03 12:15:38.
