data_PCOD9411030
_publ_section_title
;
Structure prediction by ZEFSAII (Michael W. Deem and Ramdas Pophale) SiO2 
 PCOD9411030
Probable space group: P N N A
;
_chemical_formula_sum "Si O2"
_cell_formula_units_Z 40
_cell_length_a 10.914676
_cell_length_b 9.010366
_cell_length_c 16.418640
_cell_angle_alpha 90.000000
_cell_angle_beta 90.000000
_cell_angle_gamma 90.000000
_cell_volume 1614.694854
_symmetry_space_group_name_H-M "P N N A"
_symmetry_group_IT_number 52
_symmetry_cell_setting 'orthorhombic'
loop_
_space_group_symop_operation_xyz
x,y,z
1/2-x,-y,z
x,1/2-y,1/2-z
1/2-x,1/2+y,1/2-z
-x,-y,-z
1/2+x,y,-z
-x,1/2+y,1/2+z
1/2+x,1/2-y,1/2+z
loop_
_atom_site_type_symbol
_atom_site_label
_atom_site_fract_x
_atom_site_fract_y
_atom_site_fract_z
Si Si1 0.946796 0.799027 0.923660
Si Si2 0.651918 0.872531 0.183046
Si Si3 0.250000 0.000000 0.132550
Si Si4 0.163686 0.750000 0.250000
Si Si5 0.123218 0.428701 0.962393
Si Si6 0.014480 0.485361 0.182463
O O1 0.872126 0.951574 0.914135
O O2 0.091418 0.816047 0.901638
O O3 0.921299 0.654315 0.862990
O O4 0.898166 0.738841 0.010228
O O5 0.696171 0.750000 0.250000
O O6 0.750000 0.000000 0.171091
O O7 0.531471 0.934072 0.229760
O O8 0.267642 0.140837 0.190016
O O9 0.090588 0.634179 0.193301
O O10 0.250000 0.500000 0.991539
O O11 0.105531 0.466401 0.868219
O O12 0.000000 0.500000 0.000000
#
# Coordination Sequence:
#
# PCOD9411030 Si02
#       6
#     8   8   4   4   8   8
#     4  10  23  43  68 105 138 183 239 297 356 439
#     4  10  21  39  66 100 140 181 237 305 356 425
#     4  12  24  38  68 104 146 180 230 302 366 438
#     4  12  24  38  68 100 140 186 230 298 372 434
#     4  10  23  45  75 101 136 194 244 291 357 453
#     4  10  22  43  68 100 136 186 243 294 360 437
#
# _framework density 24.772483999999999
#
# number of rings (size 3 to 8) (size 9 to 14) (size 15 to 20)
#    0.000    1.600    2.000    1.800    8.400    0.000 
#    0.000    1.000    2.200    0.000    0.000    0.000 
#    0.000    0.000    0.000    0.000    0.000    0.000 
#
# Total GULP energy -223116.429108 kJ/mol
# GULP energy per Si atom -5577.910728 kJ/mol
# Density = 2.471610 g / cm^3
# Si number density = 24.772484 Si / 1000 Ang^3
#
#
#
# Elastic Constant Matrix: (Units=GPa)
#
#
# Indices 1 2 3 4 5 6 
#
# 1 109.6312 55.1852 16.4838 0.0000 0.0000 0.0000
# 2 55.1852 143.5048 11.1047 0.0000 0.0000 0.0000
# 3 16.4838 11.1047 27.9543 0.0000 0.0000 0.0000
# 4 0.0000 0.0000 0.0000 28.1177 0.0000 0.0000
# 5 0.0000 0.0000 0.0000 0.0000 -102.5533 0.0000
# 6 0.0000 0.0000 0.0000 0.0000 0.0000 62.0479
#
#
#
# Elastic Compliance Matrix: (Units=1/GPa)
#
#
# Indices 1 2 3 4 5 6 
#
# 1 0.012062 -0.004218 -0.005437 0.000000 0.000000 0.000000
# 2 -0.004218 0.008664 -0.000955 0.000000 0.000000 0.000000
# 3 -0.005437 -0.000955 0.039358 0.000000 0.000000 0.000000
# 4 0.000000 0.000000 0.000000 0.035565 0.000000 0.000000
# 5 0.000000 0.000000 0.000000 0.000000 -0.009751 0.000000
# 6 0.000000 0.000000 0.000000 0.000000 0.000000 0.016117
#
#
# Mechanical properties :
#
#
# Convention : Reuss Voigt Hill
#
# Bulk Modulus (GPa) = 25.73004 49.62640 37.67822
# Shear Modulus (GPa) = 36.71364 10.74358 23.72861
#
# Velocity S-wave (km/s) = 3.85389 2.08478 3.09829
# Velocity P-wave (km/s) = 5.49658 5.08640 5.29546
#
# Compressibility (1/GPa) = 0.03886507
#
# Stress axis : x y z
#
# Youngs Moduli (GPa) = 82.90411 115.41686 25.40774
#
# Poissons Ratio (x) = 0.48680 0.13815
# Poissons Ratio (y) = 0.34967 0.02426
# Poissons Ratio (z) = 0.45077 0.11019
#
# Static dielectric constant tensor:
#      x y z
#    x 2.025060 0.000000 0.000000 
#    y 0.000000 2.097980 0.000000 
#    z 0.000000 0.000000 2.127520 
# 
# From -- ./inp_files/32051.got.cif
#   From: 2010.05.17/outbox.cif.g08.bks.cpg/sg52_17_cif.got.tgz:32051.got - 2010.06.03 12:15:38.
