data_PCOD9411393
_publ_section_title
;
Structure prediction by ZEFSAII (Michael W. Deem and Ramdas Pophale) SiO2 
 PCOD9411393
Probable space group: P N N A
;
_chemical_formula_sum "Si O2"
_cell_formula_units_Z 48
_cell_length_a 8.830816
_cell_length_b 7.584730
_cell_length_c 29.819210
_cell_angle_alpha 90.000000
_cell_angle_beta 90.000000
_cell_angle_gamma 90.000000
_cell_volume 1997.271454
_symmetry_space_group_name_H-M "P N N A"
_symmetry_group_IT_number 52
_symmetry_cell_setting 'orthorhombic'
loop_
_space_group_symop_operation_xyz
x,y,z
1/2-x,-y,z
x,1/2-y,1/2-z
1/2-x,1/2+y,1/2-z
-x,-y,-z
1/2+x,y,-z
-x,1/2+y,1/2+z
1/2+x,1/2-y,1/2+z
loop_
_atom_site_type_symbol
_atom_site_label
_atom_site_fract_x
_atom_site_fract_y
_atom_site_fract_z
Si Si1 0.911390 0.988821 0.786451
Si Si2 0.000000 0.500000 0.000000
Si Si3 0.400611 0.884653 0.033329
Si Si4 0.843536 0.681419 0.333987
Si Si5 0.536894 0.623284 0.897737
Si Si6 0.151351 0.750000 0.750000
Si Si7 0.131014 0.244527 0.125628
O O1 0.881714 0.854125 0.827574
O O2 0.041165 0.915017 0.755091
O O3 0.750000 0.000000 0.762949
O O4 0.992194 0.151539 0.810459
O O5 0.098739 0.317114 0.015574
O O6 0.020970 0.581116 0.050032
O O7 0.448973 0.864547 0.085517
O O8 0.250000 0.000000 0.034081
O O9 0.500000 0.000000 0.000000
O O10 0.750000 0.500000 0.342676
O O11 0.745723 0.770136 0.295156
O O12 0.887726 0.782290 0.378738
O O13 0.694229 0.727933 0.889437
O O14 0.557367 0.436743 0.872594
#
# Coordination Sequence:
#
# PCOD9411393 Si02
#       7
#     8   4   8   8   8   4   8
#     4  11  22  43  73 109 138 194 263 305 375 488
#     4  10  24  42  66 110 150 196 272 314 398 488
#     4  11  24  42  69 100 144 200 242 334 391 462
#     4  10  23  44  75 106 151 201 251 320 407 483
#     4  10  21  43  70 101 149 198 245 331 383 466
#     4  10  26  46  66 110 156 186 242 324 392 486
#     4  10  22  41  70 104 137 188 264 313 382 463
#
# _framework density 24.032786000000002
#
# number of rings (size 3 to 8) (size 9 to 14) (size 15 to 20)
#    0.000    1.667    1.667    1.500    2.333    7.333 
#    6.000    2.500    0.000    0.000    0.000    0.000 
#    0.000    0.000    0.000    0.000    0.000    0.000 
#
# Total GULP energy -267426.549293 kJ/mol
# GULP energy per Si atom -5571.386444 kJ/mol
# Density = 2.397809 g / cm^3
# Si number density = 24.032786 Si / 1000 Ang^3
#
#
#
# Elastic Constant Matrix: (Units=GPa)
#
#
# Indices 1 2 3 4 5 6 
#
# 1 109.2220 46.5391 60.1282 0.0000 0.0000 0.0000
# 2 46.5391 103.0133 56.3890 0.0000 0.0000 0.0000
# 3 60.1282 56.3890 118.3578 0.0000 0.0000 0.0000
# 4 0.0000 0.0000 0.0000 41.6079 0.0000 0.0000
# 5 0.0000 0.0000 0.0000 0.0000 27.4668 0.0000
# 6 0.0000 0.0000 0.0000 0.0000 0.0000 33.5222
#
#
#
# Elastic Compliance Matrix: (Units=1/GPa)
#
#
# Indices 1 2 3 4 5 6 
#
# 1 0.013428 -0.003155 -0.005318 0.000000 0.000000 0.000000
# 2 -0.003155 0.013874 -0.005007 0.000000 0.000000 0.000000
# 3 -0.005318 -0.005007 0.013536 0.000000 0.000000 0.000000
# 4 0.000000 0.000000 0.000000 0.024034 0.000000 0.000000
# 5 0.000000 0.000000 0.000000 0.000000 0.036408 0.000000
# 6 0.000000 0.000000 0.000000 0.000000 0.000000 0.029831
#
#
# Mechanical properties :
#
#
# Convention : Reuss Voigt Hill
#
# Bulk Modulus (GPa) = 72.06258 72.96728 72.51493
# Shear Modulus (GPa) = 30.73196 31.68851 31.21023
#
# Velocity S-wave (km/s) = 3.57984 3.63513 3.60759
# Velocity P-wave (km/s) = 6.86566 6.93155 6.89868
#
# Compressibility (1/GPa) = 0.01387683
#
# Stress axis : x y z
#
# Youngs Moduli (GPa) = 74.47155 72.07897 73.87543
#
# Poissons Ratio (x) = 0.22742 0.39291
# Poissons Ratio (y) = 0.23497 0.36989
# Poissons Ratio (z) = 0.39608 0.36089
#
# Static dielectric constant tensor:
#      x y z
#    x 2.124370 0.000000 0.000000 
#    y 0.000000 2.066160 0.000000 
#    z 0.000000 0.000000 1.936630 
# 
# From -- ./inp_files/44467.got.cif
#   From: 2010.05.17/outbox.cif.g08.bks.cpg/sg52_23_cif.got.tgz:44467.got - 2010.06.03 12:15:38.
