data_PCOD9411062
_publ_section_title
;
Structure prediction by ZEFSAII (Michael W. Deem and Ramdas Pophale) SiO2 
 PCOD9411062
Probable space group: P N N A
;
_chemical_formula_sum "Si O2"
_cell_formula_units_Z 40
_cell_length_a 19.706716
_cell_length_b 14.320773
_cell_length_c 6.948669
_cell_angle_alpha 90.000000
_cell_angle_beta 90.000000
_cell_angle_gamma 90.000000
_cell_volume 1961.021446
_symmetry_space_group_name_H-M "P N N A"
_symmetry_group_IT_number 52
_symmetry_cell_setting 'orthorhombic'
loop_
_space_group_symop_operation_xyz
x,y,z
1/2-x,-y,z
x,1/2-y,1/2-z
1/2-x,1/2+y,1/2-z
-x,-y,-z
1/2+x,y,-z
-x,1/2+y,1/2+z
1/2+x,1/2-y,1/2+z
loop_
_atom_site_type_symbol
_atom_site_label
_atom_site_fract_x
_atom_site_fract_y
_atom_site_fract_z
Si Si1 0.275273 0.342392 0.623056
Si Si2 0.197533 0.087672 0.222454
Si Si3 0.843450 0.650235 0.141177
Si Si4 0.016673 0.452599 0.799138
Si Si5 0.405011 0.449421 0.474159
O O1 0.289458 0.250000 0.750000
O O2 0.235603 0.340305 0.419130
O O3 0.220333 0.399140 0.751681
O O4 0.345730 0.388676 0.566718
O O5 0.173666 0.136787 0.417429
O O6 0.250000 0.000000 0.256619
O O7 0.132882 0.040681 0.114819
O O8 0.843045 0.750000 0.250000
O O9 0.918187 0.611932 0.174362
O O10 0.043407 0.528365 0.645984
O O11 0.949917 0.408369 0.700642
O O12 0.000000 0.500000 0.000000
#
# Coordination Sequence:
#
# PCOD9411062 Si02
#       5
#     8   8   8   8   8
#     4  10  23  42  63  97 135 168 222 284 345 392
#     4  10  21  39  70  97 124 176 229 274 331 406
#     4  11  24  40  65  99 136 173 219 283 351 400
#     4  11  22  41  64  95 132 180 223 274 337 408
#     4  10  22  41  66  93 128 173 234 271 322 413
#
# _framework density 20.397532999999999
#
# number of rings (size 3 to 8) (size 9 to 14) (size 15 to 20)
#    0.000    1.600    4.000    0.000    2.800    3.200 
#    3.600    0.000    0.000    0.000    0.000    0.000 
#    0.000    0.000    0.000    0.000    0.000    0.000 
#
# Total GULP energy -222787.528773 kJ/mol
# GULP energy per Si atom -5569.688219 kJ/mol
# Density = 2.035111 g / cm^3
# Si number density = 20.397533 Si / 1000 Ang^3
#
#
#
# Elastic Constant Matrix: (Units=GPa)
#
#
# Indices 1 2 3 4 5 6 
#
# 1 155.8981 46.5076 75.3654 0.0000 0.0000 0.0000
# 2 46.5076 82.5497 62.1891 0.0000 0.0000 0.0000
# 3 75.3654 62.1891 184.2760 0.0000 0.0000 0.0000
# 4 0.0000 0.0000 0.0000 35.3629 0.0000 0.0000
# 5 0.0000 0.0000 0.0000 0.0000 49.9284 0.0000
# 6 0.0000 0.0000 0.0000 0.0000 0.0000 24.4222
#
#
#
# Elastic Compliance Matrix: (Units=1/GPa)
#
#
# Indices 1 2 3 4 5 6 
#
# 1 0.008485 -0.002904 -0.002490 0.000000 0.000000 0.000000
# 2 -0.002904 0.017238 -0.004630 0.000000 0.000000 0.000000
# 3 -0.002490 -0.004630 0.008007 0.000000 0.000000 0.000000
# 4 0.000000 0.000000 0.000000 0.028278 0.000000 0.000000
# 5 0.000000 0.000000 0.000000 0.000000 0.020029 0.000000
# 6 0.000000 0.000000 0.000000 0.000000 0.000000 0.040946
#
#
# Mechanical properties :
#
#
# Convention : Reuss Voigt Hill
#
# Bulk Modulus (GPa) = 73.08775 87.87200 80.47988
# Shear Modulus (GPa) = 33.87732 37.85348 35.86540
#
# Velocity S-wave (km/s) = 4.07978 4.31256 4.19778
# Velocity P-wave (km/s) = 7.62248 8.24444 7.93955
#
# Compressibility (1/GPa) = 0.01368218
#
# Stress axis : x y z
#
# Youngs Moduli (GPa) = 117.86149 58.01161 124.88548
#
# Poissons Ratio (x) = 0.16849 0.31095
# Poissons Ratio (y) = 0.34231 0.57817
# Poissons Ratio (z) = 0.29346 0.26857
#
# Static dielectric constant tensor:
#      x y z
#    x 1.797640 0.000000 0.000000 
#    y 0.000000 1.799960 0.000000 
#    z 0.000000 0.000000 1.756720 
# 
# From -- ./inp_files/4242.got.cif
#   From: 2010.05.17/outbox.cif.g08.bks.cpg/sg52_3_cif.got.tgz:4242.got - 2010.06.03 12:15:38.
