data_PCOD9411207
_publ_section_title
;
Structure prediction by ZEFSAII (Michael W. Deem and Ramdas Pophale) SiO2 
 PCOD9411207
Probable space group: P N N A
;
_chemical_formula_sum "Si O2"
_cell_formula_units_Z 32
_cell_length_a 12.253474
_cell_length_b 7.740446
_cell_length_c 15.069521
_cell_angle_alpha 90.000000
_cell_angle_beta 90.000000
_cell_angle_gamma 90.000000
_cell_volume 1429.304190
_symmetry_space_group_name_H-M "P N N A"
_symmetry_group_IT_number 52
_symmetry_cell_setting 'orthorhombic'
loop_
_space_group_symop_operation_xyz
x,y,z
1/2-x,-y,z
x,1/2-y,1/2-z
1/2-x,1/2+y,1/2-z
-x,-y,-z
1/2+x,y,-z
-x,1/2+y,1/2+z
1/2+x,1/2-y,1/2+z
loop_
_atom_site_type_symbol
_atom_site_label
_atom_site_fract_x
_atom_site_fract_y
_atom_site_fract_z
Si Si1 0.232378 0.294853 0.351228
Si Si2 0.151335 0.107028 0.683002
Si Si3 0.206197 0.804419 0.963326
Si Si4 0.496027 0.869516 0.414357
O O1 0.250000 0.500000 0.354168
O O2 0.257961 0.250000 0.250000
O O3 0.301772 0.232285 0.435970
O O4 0.114962 0.217233 0.380630
O O5 0.113985 0.250000 0.750000
O O6 0.210028 0.190691 0.596002
O O7 0.250000 0.000000 0.727100
O O8 0.051277 0.986326 0.660551
O O9 0.084328 0.783066 0.928106
O O10 0.250000 0.000000 0.961610
O O11 0.500000 0.000000 0.500000
#
# Coordination Sequence:
#
# PCOD9411207 Si02
#       4
#     8   8   8   8
#     4  11  27  47  72 106 148 192 239 298 361 431
#     4  10  21  40  71 103 142 181 229 303 355 427
#     4  10  23  44  72 102 142 186 235 298 358 422
#     4  11  24  46  74 101 142 192 242 288 360 428
#
# _framework density 22.388515000000002
#
# number of rings (size 3 to 8) (size 9 to 14) (size 15 to 20)
#    0.000    1.500    2.500    0.750    3.500   10.000 
#    9.000    0.000    0.000    0.000    0.000    0.000 
#    0.000    0.000    0.000    0.000    0.000    0.000 
#
# Total GULP energy -178560.568692 kJ/mol
# GULP energy per Si atom -5580.017772 kJ/mol
# Density = 2.233756 g / cm^3
# Si number density = 22.388515 Si / 1000 Ang^3
#
#
#
# Elastic Constant Matrix: (Units=GPa)
#
#
# Indices 1 2 3 4 5 6 
#
# 1 39.0378 41.6542 1.6431 0.0000 0.0000 0.0000
# 2 41.6542 103.4575 16.8714 0.0000 0.0000 0.0000
# 3 1.6431 16.8714 94.1281 0.0000 0.0000 0.0000
# 4 0.0000 0.0000 0.0000 40.5779 0.0000 0.0000
# 5 0.0000 0.0000 0.0000 0.0000 0.4952 0.0000
# 6 0.0000 0.0000 0.0000 0.0000 0.0000 37.7635
#
#
#
# Elastic Compliance Matrix: (Units=1/GPa)
#
#
# Indices 1 2 3 4 5 6 
#
# 1 0.045503 -0.018738 0.002564 0.000000 0.000000 0.000000
# 2 -0.018738 0.017674 -0.002841 0.000000 0.000000 0.000000
# 3 0.002564 -0.002841 0.011088 0.000000 0.000000 0.000000
# 4 0.000000 0.000000 0.000000 0.024644 0.000000 0.000000
# 5 0.000000 0.000000 0.000000 0.000000 2.019206 0.000000
# 6 0.000000 0.000000 0.000000 0.000000 0.000000 0.026481
#
#
# Mechanical properties :
#
#
# Convention : Reuss Voigt Hill
#
# Bulk Modulus (GPa) = 27.59783 39.66232 33.63007
# Shear Modulus (GPa) = 2.27821 27.53097 14.90459
#
# Velocity S-wave (km/s) = 1.00985 3.51050 2.58296
# Velocity P-wave (km/s) = 3.70314 5.84683 4.89381
#
# Compressibility (1/GPa) = 0.03623474
#
# Stress axis : x y z
#
# Youngs Moduli (GPa) = 21.97678 56.58173 90.18588
#
# Poissons Ratio (x) = 1.06026 -0.23127
# Poissons Ratio (y) = 0.41181 0.25619
# Poissons Ratio (z) = -0.05636 0.16073
#
# Static dielectric constant tensor:
#      x y z
#    x 1.805390 0.000000 0.000000 
#    y 0.000000 1.892440 0.000000 
#    z 0.000000 0.000000 1.917070 
# 
# From -- ./inp_files/25602.got.cif
#   From: 2010.05.17/outbox.cif.g08.bks.cpg/sg52_13_cif.got.tgz:25602.got - 2010.06.03 12:15:38.
