data_PCOD9411907
_publ_section_title
;
Structure prediction by ZEFSAII (Michael W. Deem and Ramdas Pophale) SiO2 
 PCOD9411907
Probable space group: P N N A
;
_chemical_formula_sum "Si O2"
_cell_formula_units_Z 40
_cell_length_a 5.993418
_cell_length_b 12.074976
_cell_length_c 29.677401
_cell_angle_alpha 90.000000
_cell_angle_beta 90.000000
_cell_angle_gamma 90.000000
_cell_volume 2147.764744
_symmetry_space_group_name_H-M "P N N A"
_symmetry_group_IT_number 52
_symmetry_cell_setting 'orthorhombic'
loop_
_space_group_symop_operation_xyz
x,y,z
1/2-x,-y,z
x,1/2-y,1/2-z
1/2-x,1/2+y,1/2-z
-x,-y,-z
1/2+x,y,-z
-x,1/2+y,1/2+z
1/2+x,1/2-y,1/2+z
loop_
_atom_site_type_symbol
_atom_site_label
_atom_site_fract_x
_atom_site_fract_y
_atom_site_fract_z
Si Si1 0.750000 0.500000 0.826022
Si Si2 0.250000 0.500000 0.523635
Si Si3 0.185098 0.123472 0.888988
Si Si4 0.329637 0.125674 0.180376
Si Si5 0.039709 0.798135 0.665647
Si Si6 0.880322 0.893191 0.262124
O O1 0.901073 0.593233 0.850579
O O2 0.581845 0.567746 0.794141
O O3 0.500000 0.500000 0.500000
O O4 0.226973 0.396157 0.558251
O O5 0.325479 0.227014 0.871067
O O6 0.936746 0.138163 0.869341
O O7 0.250000 0.000000 0.869771
O O8 0.129397 0.209231 0.185755
O O9 0.511880 0.157859 0.217644
O O10 0.250000 0.000000 0.187224
O O11 0.200601 0.837529 0.705438
O O12 0.750000 0.000000 0.243870
#
# Coordination Sequence:
#
# PCOD9411907 Si02
#       6
#     4   4   8   8   8   8
#     4  10  22  42  57  78 120 172 224 267 316 362
#     4  10  24  44  71 102 142 170 212 277 358 440
#     4  10  23  38  64  94 124 163 211 268 337 407
#     4  12  22  39  59  85 126 169 222 280 326 386
#     4  11  24  40  59  86 126 167 231 266 328 388
#     4  10  23  40  53  81 119 175 222 272 311 364
#
# _framework density 18.624013999999999
#
# number of rings (size 3 to 8) (size 9 to 14) (size 15 to 20)
#    0.600    0.800    3.000    1.800    4.200    4.800 
#    3.600    0.000    0.000    0.000    0.000    1.400 
#    0.000    0.000    0.000    0.000    0.000    0.000 
#
# Total GULP energy -222954.873784 kJ/mol
# GULP energy per Si atom -5573.871845 kJ/mol
# Density = 1.858162 g / cm^3
# Si number density = 18.624014 Si / 1000 Ang^3
#
#
#
# Elastic Constant Matrix: (Units=GPa)
#
#
# Indices 1 2 3 4 5 6 
#
# 1 125.1448 47.4638 49.5080 0.0000 0.0000 0.0000
# 2 47.4638 105.4934 28.8490 0.0000 0.0000 0.0000
# 3 49.5080 28.8490 89.2798 0.0000 0.0000 0.0000
# 4 0.0000 0.0000 0.0000 20.9624 0.0000 0.0000
# 5 0.0000 0.0000 0.0000 0.0000 10.8902 0.0000
# 6 0.0000 0.0000 0.0000 0.0000 0.0000 63.0898
#
#
#
# Elastic Compliance Matrix: (Units=1/GPa)
#
#
# Indices 1 2 3 4 5 6 
#
# 1 0.011442 -0.003744 -0.005135 0.000000 0.000000 0.000000
# 2 -0.003744 0.011623 -0.001680 0.000000 0.000000 0.000000
# 3 -0.005135 -0.001680 0.014591 0.000000 0.000000 0.000000
# 4 0.000000 0.000000 0.000000 0.047705 0.000000 0.000000
# 5 0.000000 0.000000 0.000000 0.000000 0.091825 0.000000
# 6 0.000000 0.000000 0.000000 0.000000 0.000000 0.015850
#
#
# Mechanical properties :
#
#
# Convention : Reuss Voigt Hill
#
# Bulk Modulus (GPa) = 60.46377 63.50663 61.98520
# Shear Modulus (GPa) = 22.76172 31.92830 27.34501
#
# Velocity S-wave (km/s) = 3.49975 4.14498 3.83595
# Velocity P-wave (km/s) = 6.99049 7.55521 7.27833
#
# Compressibility (1/GPa) = 0.01653883
#
# Stress axis : x y z
#
# Youngs Moduli (GPa) = 87.39589 86.03621 68.53463
#
# Poissons Ratio (x) = 0.32210 0.35194
# Poissons Ratio (y) = 0.32719 0.11512
# Poissons Ratio (z) = 0.44880 0.14452
#
# Static dielectric constant tensor:
#      x y z
#    x 1.722140 0.000000 0.000000 
#    y 0.000000 1.776190 0.000000 
#    z 0.000000 0.000000 1.620280 
# 
# From -- ./inp_files/41509.got.cif
#   From: 2010.05.17/outbox.cif.g08.bks.cpg/sg52_21_cif.got.tgz:41509.got - 2010.06.03 12:15:38.
