data_PCOD9411991
_publ_section_title
;
Structure prediction by ZEFSAII (Michael W. Deem and Ramdas Pophale) SiO2 
 PCOD9411991
Probable space group: P N N A
;
_chemical_formula_sum "Si O2"
_cell_formula_units_Z 40
_cell_length_a 9.083217
_cell_length_b 16.344809
_cell_length_c 10.342655
_cell_angle_alpha 90.000000
_cell_angle_beta 90.000000
_cell_angle_gamma 90.000000
_cell_volume 1535.506212
_symmetry_space_group_name_H-M "P N N A"
_symmetry_group_IT_number 52
_symmetry_cell_setting 'orthorhombic'
loop_
_space_group_symop_operation_xyz
x,y,z
1/2-x,-y,z
x,1/2-y,1/2-z
1/2-x,1/2+y,1/2-z
-x,-y,-z
1/2+x,y,-z
-x,1/2+y,1/2+z
1/2+x,1/2-y,1/2+z
loop_
_atom_site_type_symbol
_atom_site_label
_atom_site_fract_x
_atom_site_fract_y
_atom_site_fract_z
Si Si1 0.588995 0.246529 0.460669
Si Si2 0.920601 0.644795 0.720334
Si Si3 0.105217 0.442609 0.913664
Si Si4 0.322223 0.250000 0.750000
Si Si5 0.155052 0.750000 0.250000
Si Si6 0.427518 0.988074 0.858142
O O1 0.579583 0.307615 0.581589
O O2 0.614229 0.148477 0.474651
O O3 0.723151 0.275080 0.369561
O O4 0.442702 0.258298 0.376412
O O5 0.065052 0.679960 0.791561
O O6 0.963013 0.552603 0.711021
O O7 0.763386 0.672853 0.770133
O O8 0.250000 0.500000 0.906888
O O9 0.068663 0.422942 0.760947
O O10 0.000000 0.500000 0.000000
O O11 0.250000 0.000000 0.878141
O O12 0.500000 0.000000 0.000000
#
# Coordination Sequence:
#
# PCOD9411991 Si02
#       6
#     8   8   8   4   4   8
#     4  11  25  43  74 105 145 196 250 308 374 459
#     4  11  25  43  74 105 145 196 250 308 374 459
#     4  11  28  48  73 106 150 195 250 308 386 450
#     4  10  22  42  70  92 144 178 244 294 366 430
#     4  10  26  42  74 108 148 186 260 302 386 434
#     4  11  28  48  73 106 150 195 250 308 386 450
#
# _framework density 26.050042999999999
#
# number of rings (size 3 to 8) (size 9 to 14) (size 15 to 20)
#    0.000    1.200    0.000    3.600   22.400    0.800 
#    0.000    0.000    0.000    0.000    0.000    0.000 
#    0.000    0.000    0.000    0.000    0.000    0.000 
#
# Total GULP energy -223221.181504 kJ/mol
# GULP energy per Si atom -5580.529538 kJ/mol
# Density = 2.599075 g / cm^3
# Si number density = 26.050043 Si / 1000 Ang^3
#
#
#
# Elastic Constant Matrix: (Units=GPa)
#
#
# Indices 1 2 3 4 5 6 
#
# 1 162.4459 1.2899 56.6490 0.0000 0.0000 0.0000
# 2 1.2899 82.4581 6.5150 0.0000 0.0000 0.0000
# 3 56.6490 6.5150 168.2749 0.0000 0.0000 0.0000
# 4 0.0000 0.0000 0.0000 43.4984 0.0000 0.0000
# 5 0.0000 0.0000 0.0000 0.0000 56.6021 0.0000
# 6 0.0000 0.0000 0.0000 0.0000 0.0000 25.8463
#
#
#
# Elastic Compliance Matrix: (Units=1/GPa)
#
#
# Indices 1 2 3 4 5 6 
#
# 1 0.006975 0.000077 -0.002351 0.000000 0.000000 0.000000
# 2 0.000077 0.012165 -0.000497 0.000000 0.000000 0.000000
# 3 -0.002351 -0.000497 0.006753 0.000000 0.000000 0.000000
# 4 0.000000 0.000000 0.000000 0.022989 0.000000 0.000000
# 5 0.000000 0.000000 0.000000 0.000000 0.017667 0.000000
# 6 0.000000 0.000000 0.000000 0.000000 0.000000 0.038690
#
#
# Mechanical properties :
#
#
# Convention : Reuss Voigt Hill
#
# Bulk Modulus (GPa) = 49.13662 60.23186 54.68424
# Shear Modulus (GPa) = 42.52889 48.43770 45.48330
#
# Velocity S-wave (km/s) = 4.04491 4.31677 4.18305
# Velocity P-wave (km/s) = 6.38110 6.92948 6.66094
#
# Compressibility (1/GPa) = 0.02035142
#
# Stress axis : x y z
#
# Youngs Moduli (GPa) = 143.36541 82.20015 148.07380
#
# Poissons Ratio (x) = -0.00630 0.34814
# Poissons Ratio (y) = -0.01099 0.07356
# Poissons Ratio (z) = 0.33707 0.04084
#
# Static dielectric constant tensor:
#      x y z
#    x 2.016150 0.000000 0.000000 
#    y 0.000000 2.092080 0.000000 
#    z 0.000000 0.000000 2.163240 
# 
# From -- ./inp_files/8565.got.cif
#   From: 2010.05.17/outbox.cif.g08.bks.cpg/sg52_5_cif.got.tgz:8565.got - 2010.06.03 12:15:38.
