data_PCOD9411492
_publ_section_title
;
Structure prediction by ZEFSAII (Michael W. Deem and Ramdas Pophale) SiO2 
 PCOD9411492
Probable space group: P N N A
;
_chemical_formula_sum "Si O2"
_cell_formula_units_Z 56
_cell_length_a 5.854904
_cell_length_b 16.649665
_cell_length_c 26.952562
_cell_angle_alpha 90.000000
_cell_angle_beta 90.000000
_cell_angle_gamma 90.000000
_cell_volume 2627.394775
_symmetry_space_group_name_H-M "P N N A"
_symmetry_group_IT_number 52
_symmetry_cell_setting 'orthorhombic'
loop_
_space_group_symop_operation_xyz
x,y,z
1/2-x,-y,z
x,1/2-y,1/2-z
1/2-x,1/2+y,1/2-z
-x,-y,-z
1/2+x,y,-z
-x,1/2+y,1/2+z
1/2+x,1/2-y,1/2+z
loop_
_atom_site_type_symbol
_atom_site_label
_atom_site_fract_x
_atom_site_fract_y
_atom_site_fract_z
Si Si1 0.750000 0.000000 0.805254
Si Si2 0.687808 0.757110 0.516385
Si Si3 0.610766 0.900453 0.261505
Si Si4 0.033650 0.703918 0.119543
Si Si5 0.844337 0.750000 0.750000
Si Si6 0.887595 0.919249 0.644609
Si Si7 0.696457 0.906984 0.445534
Si Si8 0.503936 0.150487 0.184288
O O1 0.620133 0.930118 0.835757
O O2 0.933218 0.955308 0.769479
O O3 0.434945 0.722697 0.501100
O O4 0.684593 0.757821 0.575621
O O5 0.675028 0.846935 0.491957
O O6 0.514647 0.813012 0.273026
O O7 0.602395 0.929499 0.318078
O O8 0.820911 0.883918 0.225244
O O9 0.201921 0.651493 0.153802
O O10 0.873041 0.640266 0.090854
O O11 0.911288 0.779609 0.146775
O O12 0.688032 0.800863 0.786150
O O13 0.972252 0.910229 0.588545
O O14 0.750000 0.000000 0.650534
O O15 0.750000 0.000000 0.458056
#
# Coordination Sequence:
#
# PCOD9411492 Si02
#       8
#     4   8   8   8   4   8   8   8
#     4  10  24  44  60  88 124 168 222 294 342 408
#     4  10  22  42  65  94 139 179 227 286 347 411
#     4  11  23  39  62  88 128 174 223 280 345 403
#     4  11  24  42  62  95 129 178 233 284 341 413
#     4  10  22  36  56  88 120 164 206 276 328 404
#     4  12  23  40  60  91 134 180 233 275 327 411
#     4  11  24  36  62  96 133 183 224 278 339 417
#     4  11  24  41  64  90 126 173 230 284 353 409
#
# _framework density 21.313887000000001
#
# number of rings (size 3 to 8) (size 9 to 14) (size 15 to 20)
#    0.000    1.143    5.000    0.857    4.000    4.000 
#    0.000    0.000    0.000    0.000    0.000    4.000 
#    0.000    0.000    0.000    0.000    0.000    0.000 
#
# Total GULP energy -311862.130549 kJ/mol
# GULP energy per Si atom -5568.966617 kJ/mol
# Density = 2.126538 g / cm^3
# Si number density = 21.313887 Si / 1000 Ang^3
#
#
#
# Elastic Constant Matrix: (Units=GPa)
#
#
# Indices 1 2 3 4 5 6 
#
# 1 86.6010 38.5473 20.7720 0.0000 0.0000 0.0000
# 2 38.5473 100.4827 25.2561 0.0000 0.0000 0.0000
# 3 20.7720 25.2561 59.4478 0.0000 0.0000 0.0000
# 4 0.0000 0.0000 0.0000 5.8870 0.0000 0.0000
# 5 0.0000 0.0000 0.0000 0.0000 59.4649 0.0000
# 6 0.0000 0.0000 0.0000 0.0000 0.0000 28.4537
#
#
#
# Elastic Compliance Matrix: (Units=1/GPa)
#
#
# Indices 1 2 3 4 5 6 
#
# 1 0.014388 -0.004765 -0.003003 0.000000 0.000000 0.000000
# 2 -0.004765 0.012720 -0.003739 0.000000 0.000000 0.000000
# 3 -0.003003 -0.003739 0.019459 0.000000 0.000000 0.000000
# 4 0.000000 0.000000 0.000000 0.169864 0.000000 0.000000
# 5 0.000000 0.000000 0.000000 0.000000 0.016817 0.000000
# 6 0.000000 0.000000 0.000000 0.000000 0.000000 0.035145
#
#
# Mechanical properties :
#
#
# Convention : Reuss Voigt Hill
#
# Bulk Modulus (GPa) = 42.45683 46.18693 44.32188
# Shear Modulus (GPa) = 16.70796 29.55821 23.13309
#
# Velocity S-wave (km/s) = 2.80286 3.72802 3.29804
# Velocity P-wave (km/s) = 5.51704 6.34412 5.94498
#
# Compressibility (1/GPa) = 0.02355333
#
# Stress axis : x y z
#
# Youngs Moduli (GPa) = 69.50009 78.61853 51.38925
#
# Poissons Ratio (x) = 0.37461 0.15433
# Poissons Ratio (y) = 0.33116 0.19214
# Poissons Ratio (z) = 0.20872 0.29395
#
# Static dielectric constant tensor:
#      x y z
#    x 1.885010 0.000000 0.000000 
#    y 0.000000 1.824240 0.000000 
#    z 0.000000 0.000000 1.832050 
# 
# From -- ./inp_files/43820.got.cif
#   From: 2010.05.17/outbox.cif.g08.bks.cpg/sg52_22_cif.got.tgz:43820.got - 2010.06.03 12:15:38.
