data_PCOD9411034
_publ_section_title
;
Structure prediction by ZEFSAII (Michael W. Deem and Ramdas Pophale) SiO2 
 PCOD9411034
Probable space group: P N N A
;
_chemical_formula_sum "Si O2"
_cell_formula_units_Z 48
_cell_length_a 15.577383
_cell_length_b 8.770383
_cell_length_c 17.989653
_cell_angle_alpha 90.000000
_cell_angle_beta 90.000000
_cell_angle_gamma 90.000000
_cell_volume 2457.739468
_symmetry_space_group_name_H-M "P N N A"
_symmetry_group_IT_number 52
_symmetry_cell_setting 'orthorhombic'
loop_
_space_group_symop_operation_xyz
x,y,z
1/2-x,-y,z
x,1/2-y,1/2-z
1/2-x,1/2+y,1/2-z
-x,-y,-z
1/2+x,y,-z
-x,1/2+y,1/2+z
1/2+x,1/2-y,1/2+z
loop_
_atom_site_type_symbol
_atom_site_label
_atom_site_fract_x
_atom_site_fract_y
_atom_site_fract_z
Si Si1 0.038285 0.750000 0.250000
Si Si2 0.723450 0.678223 0.326317
Si Si3 0.851747 0.996270 0.837132
Si Si4 0.960417 0.750000 0.750000
Si Si5 0.602942 0.328430 0.124819
Si Si6 0.063627 0.365043 0.481158
Si Si7 0.067499 0.829724 0.610492
O O1 0.100330 0.855891 0.198385
O O2 0.972015 0.685240 0.187158
O O3 0.750000 0.500000 0.322525
O O4 0.688709 0.750000 0.250000
O O5 0.806449 0.782628 0.340206
O O6 0.647564 0.712500 0.384895
O O7 0.750000 0.000000 0.825698
O O8 0.899074 0.865973 0.791115
O O9 0.871149 0.943077 0.922272
O O10 0.020065 0.831341 0.689922
O O11 0.600514 0.500889 0.094735
O O12 0.595750 0.208688 0.057311
O O13 0.000000 0.500000 0.500000
O O14 0.005702 0.233580 0.443355
#
# Coordination Sequence:
#
# PCOD9411034 Si02
#       7
#     4   8   8   4   8   8   8
#     4  12  23  41  72  94 130 174 226 279 331 408
#     4  12  25  38  65 101 133 169 224 281 337 413
#     4  11  24  43  68  97 129 176 226 285 333 400
#     4  10  21  39  66  94 128 166 226 277 337 392
#     4  12  24  43  65  98 136 176 225 275 347 413
#     4  11  24  42  67  96 134 180 223 278 346 410
#     4  11  23  41  67  94 132 177 220 279 342 408
#
# _framework density 19.530142000000001
#
# number of rings (size 3 to 8) (size 9 to 14) (size 15 to 20)
#    0.000    0.667    5.000    3.500    2.333    2.000 
#    0.000    0.000    0.000    0.000    0.000    0.000 
#    0.000    0.000    0.000    0.000    0.000    0.000 
#
# Total GULP energy -267631.201363 kJ/mol
# GULP energy per Si atom -5575.650028 kJ/mol
# Density = 1.948569 g / cm^3
# Si number density = 19.530142 Si / 1000 Ang^3
#
#
#
# Elastic Constant Matrix: (Units=GPa)
#
#
# Indices 1 2 3 4 5 6 
#
# 1 124.3674 17.6675 18.9293 0.0000 0.0000 0.0000
# 2 17.6675 85.6695 14.0125 0.0000 0.0000 0.0000
# 3 18.9293 14.0125 66.2415 0.0000 0.0000 0.0000
# 4 0.0000 0.0000 0.0000 -6.9106 0.0000 0.0000
# 5 0.0000 0.0000 0.0000 0.0000 29.6249 0.0000
# 6 0.0000 0.0000 0.0000 0.0000 0.0000 28.5827
#
#
#
# Elastic Compliance Matrix: (Units=1/GPa)
#
#
# Indices 1 2 3 4 5 6 
#
# 1 0.008569 -0.001416 -0.002149 0.000000 0.000000 0.000000
# 2 -0.001416 0.012325 -0.002203 0.000000 0.000000 0.000000
# 3 -0.002149 -0.002203 0.016176 0.000000 0.000000 0.000000
# 4 0.000000 0.000000 0.000000 -0.144706 0.000000 0.000000
# 5 0.000000 0.000000 0.000000 0.000000 0.033755 0.000000
# 6 0.000000 0.000000 0.000000 0.000000 0.000000 0.034986
#
#
# Mechanical properties :
#
#
# Convention : Reuss Voigt Hill
#
# Bulk Modulus (GPa) = 39.16148 41.94410 40.55279
# Shear Modulus (GPa) = -265.29125 25.30402 -119.99361
#
# Velocity S-wave (km/s) = -11.66755 3.60340 -7.84688
# Velocity P-wave (km/s) = 12.70487 6.23185 7.82872
#
# Compressibility (1/GPa) = 0.02553530
#
# Stress axis : x y z
#
# Youngs Moduli (GPa) = 116.70089 81.13603 61.81857
#
# Poissons Ratio (x) = 0.11486 0.13286
# Poissons Ratio (y) = 0.16520 0.13617
# Poissons Ratio (z) = 0.25081 0.17871
#
# Static dielectric constant tensor:
#      x y z
#    x 1.441200 0.000000 0.000000 
#    y 0.000000 1.695030 0.000000 
#    z 0.000000 0.000000 1.640300 
# 
# From -- ./inp_files/33102.got.cif
#   From: 2010.05.17/outbox.cif.g08.bks.cpg/sg52_17_cif.got.tgz:33102.got - 2010.06.03 12:15:38.
