data_PCOD9411292
_publ_section_title
;
Structure prediction by ZEFSAII (Michael W. Deem and Ramdas Pophale) SiO2 
 PCOD9411292
Probable space group: P N N A
;
_chemical_formula_sum "Si O2"
_cell_formula_units_Z 64
_cell_length_a 8.755639
_cell_length_b 14.689457
_cell_length_c 24.851351
_cell_angle_alpha 90.000000
_cell_angle_beta 90.000000
_cell_angle_gamma 90.000000
_cell_volume 3196.270987
_symmetry_space_group_name_H-M "P N N A"
_symmetry_group_IT_number 52
_symmetry_cell_setting 'orthorhombic'
loop_
_space_group_symop_operation_xyz
x,y,z
1/2-x,-y,z
x,1/2-y,1/2-z
1/2-x,1/2+y,1/2-z
-x,-y,-z
1/2+x,y,-z
-x,1/2+y,1/2+z
1/2+x,1/2-y,1/2+z
loop_
_atom_site_type_symbol
_atom_site_label
_atom_site_fract_x
_atom_site_fract_y
_atom_site_fract_z
Si Si1 0.568707 0.506189 0.315534
Si Si2 0.852225 0.911295 0.628640
Si Si3 0.419665 0.652876 0.246375
Si Si4 0.409734 0.201826 0.412397
Si Si5 0.848135 0.375953 0.524866
Si Si6 0.590661 0.811639 0.800030
Si Si7 0.573627 0.019498 0.442072
Si Si8 0.522703 0.439593 0.568827
O O1 0.750000 0.500000 0.321254
O O2 0.518484 0.568580 0.265890
O O3 0.497849 0.405994 0.308634
O O4 0.499716 0.557324 0.367787
O O5 0.876134 0.861815 0.684659
O O6 0.754111 0.848347 0.589061
O O7 0.750000 0.000000 0.640207
O O8 0.001532 0.949010 0.600331
O O9 0.502144 0.750000 0.250000
O O10 0.264824 0.662142 0.282346
O O11 0.409365 0.278463 0.457861
O O12 0.421454 0.253116 0.354826
O O13 0.530596 0.121607 0.422879
O O14 0.676392 0.390042 0.547126
O O15 0.949649 0.455129 0.552565
O O16 0.877548 0.397571 0.462254
O O17 0.533507 0.750000 0.750000
O O18 0.750000 0.000000 0.446258
O O19 0.500000 0.000000 0.500000
#
# Coordination Sequence:
#
# PCOD9411292 Si02
#       8
#     8   8   8   8   8   8   8   8
#     4  12  27  42  62  97 146 175 220 281 342 395
#     4  10  21  41  70  97 130 170 224 282 343 398
#     4  11  23  43  71 100 131 177 233 274 334 415
#     4  11  21  42  70 100 127 177 231 286 333 417
#     4  10  22  39  64  93 128 171 223 265 333 394
#     4  11  22  43  72  98 130 176 235 273 337 411
#     4  11  26  48  68  99 137 181 233 296 357 412
#     4  10  23  40  62  93 134 177 216 272 328 403
#
# _framework density 20.023333999999998
#
# number of rings (size 3 to 8) (size 9 to 14) (size 15 to 20)
#    0.000    1.250    3.750    3.000    7.000    3.000 
#    2.250    0.000    0.000    0.000    0.000    0.000 
#    0.000    0.000    0.000    0.000    0.000    0.000 
#
# Total GULP energy -357544.156060 kJ/mol
# GULP energy per Si atom -5586.627438 kJ/mol
# Density = 1.997776 g / cm^3
# Si number density = 20.023334 Si / 1000 Ang^3
#
#
#
# Elastic Constant Matrix: (Units=GPa)
#
#
# Indices 1 2 3 4 5 6 
#
# 1 117.5258 51.5213 36.4873 0.0000 0.0000 0.0000
# 2 51.5213 129.9727 34.3103 0.0000 0.0000 0.0000
# 3 36.4873 34.3103 73.5889 0.0000 0.0000 0.0000
# 4 0.0000 0.0000 0.0000 39.5147 0.0000 0.0000
# 5 0.0000 0.0000 0.0000 0.0000 20.7328 0.0000
# 6 0.0000 0.0000 0.0000 0.0000 0.0000 0.0435
#
#
#
# Elastic Compliance Matrix: (Units=1/GPa)
#
#
# Indices 1 2 3 4 5 6 
#
# 1 0.011238 -0.003403 -0.003986 0.000000 0.000000 0.000000
# 2 -0.003403 0.009804 -0.002884 0.000000 0.000000 0.000000
# 3 -0.003986 -0.002884 0.016910 0.000000 0.000000 0.000000
# 4 0.000000 0.000000 0.000000 0.025307 0.000000 0.000000
# 5 0.000000 0.000000 0.000000 0.000000 0.048233 0.000000
# 6 0.000000 0.000000 0.000000 0.000000 0.000000 22.998096
#
#
# Mechanical properties :
#
#
# Convention : Reuss Voigt Hill
#
# Bulk Modulus (GPa) = 57.44690 62.85836 60.15263
# Shear Modulus (GPa) = 0.21611 25.30944 12.76278
#
# Velocity S-wave (km/s) = 0.32889 3.55913 2.52741
# Velocity P-wave (km/s) = 5.37554 6.95346 6.21478
#
# Compressibility (1/GPa) = 0.01740738
#
# Stress axis : x y z
#
# Youngs Moduli (GPa) = 88.98566 101.99903 59.13735
#
# Poissons Ratio (x) = 0.34706 0.23570
# Poissons Ratio (y) = 0.30278 0.17055
# Poissons Ratio (z) = 0.35466 0.29416
#
# Static dielectric constant tensor:
#      x y z
#    x 1.702690 0.000000 0.000000 
#    y 0.000000 1.718860 0.000000 
#    z 0.000000 0.000000 1.716470 
# 
# From -- ./inp_files/39678.got.cif
#   From: 2010.05.17/outbox.cif.g08.bks.cpg/sg52_20_cif.got.tgz:39678.got - 2010.06.03 12:15:38.
