data_PCOD9411649
_publ_section_title
;
Structure prediction by ZEFSAII (Michael W. Deem and Ramdas Pophale) SiO2 
 PCOD9411649
Probable space group: P N N A
;
_chemical_formula_sum "Si O2"
_cell_formula_units_Z 48
_cell_length_a 30.977063
_cell_length_b 5.081071
_cell_length_c 12.430761
_cell_angle_alpha 90.000000
_cell_angle_beta 90.000000
_cell_angle_gamma 90.000000
_cell_volume 1956.560219
_symmetry_space_group_name_H-M "P N N A"
_symmetry_group_IT_number 52
_symmetry_cell_setting 'orthorhombic'
loop_
_space_group_symop_operation_xyz
x,y,z
1/2-x,-y,z
x,1/2-y,1/2-z
1/2-x,1/2+y,1/2-z
-x,-y,-z
1/2+x,y,-z
-x,1/2+y,1/2+z
1/2+x,1/2-y,1/2+z
loop_
_atom_site_type_symbol
_atom_site_label
_atom_site_fract_x
_atom_site_fract_y
_atom_site_fract_z
Si Si1 0.568704 0.895135 0.465888
Si Si2 0.487882 0.804750 0.098884
Si Si3 0.218547 0.746133 0.125170
Si Si4 0.850634 0.624009 0.969889
Si Si5 0.404455 0.036781 0.157334
Si Si6 0.281152 0.746194 0.631753
O O1 0.535426 0.806447 0.374504
O O2 0.588464 0.666819 0.540273
O O3 0.540194 0.070216 0.547928
O O4 0.611104 0.063951 0.445696
O O5 0.454480 0.947383 0.178100
O O6 0.500000 0.000000 0.000000
O O7 0.250000 0.500000 0.111454
O O8 0.206064 0.750000 0.250000
O O9 0.324888 0.357371 0.065579
O O10 0.250000 0.000000 0.107066
O O11 0.871623 0.793444 0.870687
O O12 0.815373 0.779452 0.037495
O O13 0.393477 0.250000 0.250000
O O14 0.250000 0.500000 0.630190
O O15 0.302092 0.750000 0.750000
O O16 0.250000 0.000000 0.620983
#
# Coordination Sequence:
#
# PCOD9411649 Si02
#       6
#     8   8   8   8   8   8
#     4   9  19  36  63  95 129 178 231 295 349 423
#     4   8  16  36  62  85 127 178 232 283 351 415
#     4  10  24  46  64  92 143 203 243 288 353 441
#     4  11  24  39  69 102 142 183 242 306 370 437
#     4  10  22  39  62 103 148 192 237 291 355 449
#     4  10  24  47  76 102 128 178 240 309 378 443
#
# _framework density 24.532852999999999
#
# number of rings (size 3 to 8) (size 9 to 14) (size 15 to 20)
#    0.000    2.333    0.000    0.500    4.667    4.667 
#    6.000    0.000    0.000   46.000    0.000    0.000 
#    0.000    0.000    0.000    0.000    0.000    0.000 
#
# Total GULP energy -267593.058763 kJ/mol
# GULP energy per Si atom -5574.855391 kJ/mol
# Density = 2.447702 g / cm^3
# Si number density = 24.532853 Si / 1000 Ang^3
#
#
#
# Elastic Constant Matrix: (Units=GPa)
#
#
# Indices 1 2 3 4 5 6 
#
# 1 206.8896 63.1679 54.8479 0.0000 0.0000 0.0000
# 2 63.1679 160.6572 22.5197 0.0000 0.0000 0.0000
# 3 54.8479 22.5197 99.7037 0.0000 0.0000 0.0000
# 4 0.0000 0.0000 0.0000 29.0472 0.0000 0.0000
# 5 0.0000 0.0000 0.0000 0.0000 1.6486 0.0000
# 6 0.0000 0.0000 0.0000 0.0000 0.0000 28.6124
#
#
#
# Elastic Compliance Matrix: (Units=1/GPa)
#
#
# Indices 1 2 3 4 5 6 
#
# 1 0.006244 -0.002038 -0.002975 0.000000 0.000000 0.000000
# 2 -0.002038 0.007093 -0.000481 0.000000 0.000000 0.000000
# 3 -0.002975 -0.000481 0.011775 0.000000 0.000000 0.000000
# 4 0.000000 0.000000 0.000000 0.034427 0.000000 0.000000
# 5 0.000000 0.000000 0.000000 0.000000 0.606579 0.000000
# 6 0.000000 0.000000 0.000000 0.000000 0.000000 0.034950
#
#
# Mechanical properties :
#
#
# Convention : Reuss Voigt Hill
#
# Bulk Modulus (GPa) = 70.79785 83.14685 76.97235
# Shear Modulus (GPa) = 6.97579 33.64264 20.30921
#
# Velocity S-wave (km/s) = 1.68808 3.70716 2.88034
# Velocity P-wave (km/s) = 5.72019 7.23116 6.51960
#
# Compressibility (1/GPa) = 0.01412472
#
# Stress axis : x y z
#
# Youngs Moduli (GPa) = 160.14235 140.97927 84.92737
#
# Poissons Ratio (x) = 0.28735 0.25264
# Poissons Ratio (y) = 0.32641 0.04084
# Poissons Ratio (z) = 0.47638 0.06779
#
# Static dielectric constant tensor:
#      x y z
#    x 2.040530 0.000000 0.000000 
#    y 0.000000 2.123730 0.000000 
#    z 0.000000 0.000000 2.011620 
# 
# From -- ./inp_files/29421.got.cif
#   From: 2010.05.17/outbox.cif.g08.bks.cpg/sg52_15_cif.got.tgz:29421.got - 2010.06.03 12:15:38.
