data_PCOD9411732
_publ_section_title
;
Structure prediction by ZEFSAII (Michael W. Deem and Ramdas Pophale) SiO2 
 PCOD9411732
Probable space group: P N N A
;
_chemical_formula_sum "Si O2"
_cell_formula_units_Z 32
_cell_length_a 11.035715
_cell_length_b 8.359433
_cell_length_c 15.657335
_cell_angle_alpha 90.000000
_cell_angle_beta 90.000000
_cell_angle_gamma 90.000000
_cell_volume 1444.425481
_symmetry_space_group_name_H-M "P N N A"
_symmetry_group_IT_number 52
_symmetry_cell_setting 'orthorhombic'
loop_
_space_group_symop_operation_xyz
x,y,z
1/2-x,-y,z
x,1/2-y,1/2-z
1/2-x,1/2+y,1/2-z
-x,-y,-z
1/2+x,y,-z
-x,1/2+y,1/2+z
1/2+x,1/2-y,1/2+z
loop_
_atom_site_type_symbol
_atom_site_label
_atom_site_fract_x
_atom_site_fract_y
_atom_site_fract_z
Si Si1 0.963513 0.207937 0.460279
Si Si2 0.870006 0.893285 0.682255
Si Si3 0.435745 0.886870 0.624989
Si Si4 0.793848 0.173614 0.169199
O O1 0.088776 0.190304 0.407130
O O2 0.984765 0.220669 0.560147
O O3 0.878661 0.333878 0.413436
O O4 0.900384 0.037652 0.435867
O O5 0.858952 0.750000 0.750000
O O6 0.750000 0.000000 0.675919
O O7 0.978466 0.026005 0.694296
O O8 0.321452 0.788116 0.654826
O O9 0.862702 0.250000 0.250000
O O10 0.750000 0.000000 0.192306
#
# Coordination Sequence:
#
# PCOD9411732 Si02
#       4
#     8   8   8   8
#     4   9  21  41  68  91 130 172 221 264 330 403
#     4  10  22  40  63  98 131 173 216 261 323 400
#     4   9  22  40  71  87 131 174 221 261 338 391
#     4  12  25  40  67 101 130 170 226 286 332 391
#
# _framework density 22.154136999999999
#
# number of rings (size 3 to 8) (size 9 to 14) (size 15 to 20)
#    1.500    0.500    0.000    3.000    7.000    2.000 
#    0.000    1.250    0.000    0.000    0.000    0.000 
#    0.000    0.000    0.000    0.000    0.000    0.000 
#
# Total GULP energy -178337.680554 kJ/mol
# GULP energy per Si atom -5573.052517 kJ/mol
# Density = 2.210371 g / cm^3
# Si number density = 22.154137 Si / 1000 Ang^3
#
#
#
# Elastic Constant Matrix: (Units=GPa)
#
#
# Indices 1 2 3 4 5 6 
#
# 1 119.3883 48.8115 30.5375 0.0000 0.0000 0.0000
# 2 48.8115 71.7415 39.0546 0.0000 0.0000 0.0000
# 3 30.5375 39.0546 79.7075 0.0000 0.0000 0.0000
# 4 0.0000 0.0000 0.0000 31.4422 0.0000 0.0000
# 5 0.0000 0.0000 0.0000 0.0000 18.8521 0.0000
# 6 0.0000 0.0000 0.0000 0.0000 0.0000 14.1892
#
#
#
# Elastic Compliance Matrix: (Units=1/GPa)
#
#
# Indices 1 2 3 4 5 6 
#
# 1 0.011640 -0.007490 -0.000790 0.000000 0.000000 0.000000
# 2 -0.007490 0.023829 -0.008806 0.000000 0.000000 0.000000
# 3 -0.000790 -0.008806 0.017163 0.000000 0.000000 0.000000
# 4 0.000000 0.000000 0.000000 0.031804 0.000000 0.000000
# 5 0.000000 0.000000 0.000000 0.000000 0.053044 0.000000
# 6 0.000000 0.000000 0.000000 0.000000 0.000000 0.070476
#
#
# Mechanical properties :
#
#
# Convention : Reuss Voigt Hill
#
# Bulk Modulus (GPa) = 54.16842 56.40493 55.28668
# Shear Modulus (GPa) = 20.13840 23.05894 21.59867
#
# Velocity S-wave (km/s) = 3.01826 3.22971 3.12577
# Velocity P-wave (km/s) = 6.05395 6.27881 6.16741
#
# Compressibility (1/GPa) = 0.01846094
#
# Stress axis : x y z
#
# Youngs Moduli (GPa) = 85.90886 41.96632 58.26456
#
# Poissons Ratio (x) = 0.31432 0.04602
# Poissons Ratio (y) = 0.64344 0.51307
# Poissons Ratio (z) = 0.06785 0.36955
#
# Static dielectric constant tensor:
#      x y z
#    x 1.861240 0.000000 0.000000 
#    y 0.000000 1.836460 0.000000 
#    z 0.000000 0.000000 1.905250 
# 
# From -- ./inp_files/31871.got.cif
#   From: 2010.05.17/outbox.cif.g08.bks.cpg/sg52_16_cif.got.tgz:31871.got - 2010.06.03 12:15:38.
