data_PCOD9411470
_publ_section_title
;
Structure prediction by ZEFSAII (Michael W. Deem and Ramdas Pophale) SiO2 
 PCOD9411470
Probable space group: P N N A
;
_chemical_formula_sum "Si O2"
_cell_formula_units_Z 60
_cell_length_a 23.857332
_cell_length_b 22.158718
_cell_length_c 5.313995
_cell_angle_alpha 90.000000
_cell_angle_beta 90.000000
_cell_angle_gamma 90.000000
_cell_volume 2809.232255
_symmetry_space_group_name_H-M "P N N A"
_symmetry_group_IT_number 52
_symmetry_cell_setting 'orthorhombic'
loop_
_space_group_symop_operation_xyz
x,y,z
1/2-x,-y,z
x,1/2-y,1/2-z
1/2-x,1/2+y,1/2-z
-x,-y,-z
1/2+x,y,-z
-x,1/2+y,1/2+z
1/2+x,1/2-y,1/2+z
loop_
_atom_site_type_symbol
_atom_site_label
_atom_site_fract_x
_atom_site_fract_y
_atom_site_fract_z
Si Si1 0.150194 0.250000 0.250000
Si Si2 0.069437 0.981257 0.221090
Si Si3 0.652404 0.619314 0.643724
Si Si4 0.145352 0.686324 0.849302
Si Si5 0.275756 0.668942 0.880539
Si Si6 0.551200 0.443760 0.217076
Si Si7 0.634068 0.361412 0.494284
Si Si8 0.770725 0.931175 0.745047
O O1 0.192803 0.209501 0.415731
O O2 0.110932 0.305288 0.346506
O O3 0.125387 0.942972 0.232472
O O4 0.015987 0.937697 0.273401
O O5 0.066559 0.031037 0.441968
O O6 0.063096 0.008204 0.941534
O O7 0.631044 0.637738 0.367762
O O8 0.719468 0.608414 0.637434
O O9 0.635278 0.666716 0.862580
O O10 0.122750 0.750000 0.750000
O O11 0.212948 0.689157 0.842636
O O12 0.315482 0.672555 0.644501
O O13 0.275102 0.598714 0.968839
O O14 0.588906 0.387850 0.302577
O O15 0.668988 0.415328 0.631330
O O16 0.750000 0.000000 0.750399
#
# Coordination Sequence:
#
# PCOD9411470 Si02
#       8
#     4   8   8   8   8   8   8   8
#     4  10  22  36  58  82 118 166 210 260 306 374
#     4  10  22  44  62  95 119 161 210 250 305 376
#     4  11  22  37  59  86 121 157 197 250 304 356
#     4  11  22  37  58  84 116 163 204 245 291 368
#     4  10  22  36  55  83 120 161 209 246 306 370
#     4  10  23  39  70  89 120 162 207 256 305 369
#     4  11  21  37  58  88 120 161 203 261 310 375
#     4  10  22  34  51  87 125 161 189 246 315 378
#
# _framework density 21.358149000000001
#
# number of rings (size 3 to 8) (size 9 to 14) (size 15 to 20)
#    0.000    1.600    1.333    3.200    9.333    0.533 
#    0.000    0.000    1.467    1.600    0.000    0.000 
#    0.000    0.000    0.000    0.000    0.000    0.000 
#
# Total GULP energy -334468.443507 kJ/mol
# GULP energy per Si atom -5574.474058 kJ/mol
# Density = 2.130954 g / cm^3
# Si number density = 21.358149 Si / 1000 Ang^3
#
#
#
# Elastic Constant Matrix: (Units=GPa)
#
#
# Indices 1 2 3 4 5 6 
#
# 1 59.0648 0.9887 1.9000 0.0000 0.0000 0.0000
# 2 0.9887 84.1475 10.4397 0.0000 0.0000 0.0000
# 3 1.9000 10.4397 64.8726 0.0000 0.0000 0.0000
# 4 0.0000 0.0000 0.0000 24.6891 0.0000 0.0000
# 5 0.0000 0.0000 0.0000 0.0000 16.4294 0.0000
# 6 0.0000 0.0000 0.0000 0.0000 0.0000 -0.4531
#
#
#
# Elastic Compliance Matrix: (Units=1/GPa)
#
#
# Indices 1 2 3 4 5 6 
#
# 1 0.016948 -0.000140 -0.000474 0.000000 0.000000 0.000000
# 2 -0.000140 0.012127 -0.001947 0.000000 0.000000 0.000000
# 3 -0.000474 -0.001947 0.015742 0.000000 0.000000 0.000000
# 4 0.000000 0.000000 0.000000 0.040504 0.000000 0.000000
# 5 0.000000 0.000000 0.000000 0.000000 0.060866 0.000000
# 6 0.000000 0.000000 0.000000 0.000000 0.000000 -2.207116
#
#
# Mechanical properties :
#
#
# Convention : Reuss Voigt Hill
#
# Bulk Modulus (GPa) = 25.19261 26.08241 25.63751
# Shear Modulus (GPa) = -2.44789 21.11686 9.33448
#
# Velocity S-wave (km/s) = -1.07173 3.14778 2.09283
# Velocity P-wave (km/s) = 3.20772 5.04478 4.22725
#
# Compressibility (1/GPa) = 0.03969418
#
# Stress axis : x y z
#
# Youngs Moduli (GPa) = 59.00349 82.45957 63.52396
#
# Poissons Ratio (x) = 0.01157 0.03010
# Poissons Ratio (y) = 0.00828 0.12371
# Poissons Ratio (z) = 0.02796 0.16059
#
# Static dielectric constant tensor:
#      x y z
#    x 1.738620 0.000000 0.000000 
#    y 0.000000 1.851120 0.000000 
#    z 0.000000 0.000000 1.874650 
# 
# From -- ./inp_files/5278.got.cif
#   From: 2010.05.17/outbox.cif.g08.bks.cpg/sg52_3_cif.got.tgz:5278.got - 2010.06.03 12:15:38.
