data_PCOD9411860
_publ_section_title
;
Structure prediction by ZEFSAII (Michael W. Deem and Ramdas Pophale) SiO2 
 PCOD9411860
Probable space group: P N N A
;
_chemical_formula_sum "Si O2"
_cell_formula_units_Z 40
_cell_length_a 25.015983
_cell_length_b 8.604178
_cell_length_c 8.611493
_cell_angle_alpha 90.000000
_cell_angle_beta 90.000000
_cell_angle_gamma 90.000000
_cell_volume 1853.554723
_symmetry_space_group_name_H-M "P N N A"
_symmetry_group_IT_number 52
_symmetry_cell_setting 'orthorhombic'
loop_
_space_group_symop_operation_xyz
x,y,z
1/2-x,-y,z
x,1/2-y,1/2-z
1/2-x,1/2+y,1/2-z
-x,-y,-z
1/2+x,y,-z
-x,1/2+y,1/2+z
1/2+x,1/2-y,1/2+z
loop_
_atom_site_type_symbol
_atom_site_label
_atom_site_fract_x
_atom_site_fract_y
_atom_site_fract_z
Si Si1 0.420735 0.551813 0.947073
Si Si2 0.191768 0.054196 0.057807
Si Si3 0.193846 0.072589 0.422471
Si Si4 0.486951 0.241823 0.434208
Si Si5 0.096058 0.904582 0.860041
O O1 0.452281 0.708924 0.991286
O O2 0.422117 0.533544 0.762449
O O3 0.359764 0.524917 0.991713
O O4 0.453910 0.413404 0.022865
O O5 0.187185 0.020755 0.242577
O O6 0.192911 0.241453 0.055170
O O7 0.250000 0.000000 0.003339
O O8 0.146290 0.967509 0.958593
O O9 0.250000 0.000000 0.477308
O O10 0.484318 0.250000 0.250000
O O11 0.453429 0.369721 0.526261
O O12 0.106318 0.750000 0.750000
#
# Coordination Sequence:
#
# PCOD9411860 Si02
#       5
#     8   8   8   8   8
#     4  10  23  42  62 100 129 172 224 270 343 398
#     4  10  23  43  68 100 132 180 229 271 340 408
#     4  10  23  43  70  99 136 176 223 281 332 410
#     4  10  22  41  66  90 129 179 218 276 329 402
#     4  10  23  42  65  99 134 173 227 283 339 402
#
# _framework density 21.580157
#
# number of rings (size 3 to 8) (size 9 to 14) (size 15 to 20)
#    0.000    2.000    0.000    1.200    8.400    1.600 
#   18.000    0.000    0.000    0.000    0.000    0.000 
#    0.000    0.000    0.000    0.000    0.000    0.000 
#
# Total GULP energy -223229.233898 kJ/mol
# GULP energy per Si atom -5580.730847 kJ/mol
# Density = 2.153104 g / cm^3
# Si number density = 21.580157 Si / 1000 Ang^3
#
#
#
# Elastic Constant Matrix: (Units=GPa)
#
#
# Indices 1 2 3 4 5 6 
#
# 1 188.4224 58.6102 77.6673 0.0000 0.0000 0.0000
# 2 58.6102 46.3503 27.2224 0.0000 0.0000 0.0000
# 3 77.6673 27.2224 85.4998 0.0000 0.0000 0.0000
# 4 0.0000 0.0000 0.0000 26.1244 0.0000 0.0000
# 5 0.0000 0.0000 0.0000 0.0000 23.7563 0.0000
# 6 0.0000 0.0000 0.0000 0.0000 0.0000 41.2468
#
#
#
# Elastic Compliance Matrix: (Units=1/GPa)
#
#
# Indices 1 2 3 4 5 6 
#
# 1 0.011441 -0.010287 -0.007118 0.000000 0.000000 0.000000
# 2 -0.010287 0.035786 -0.002050 0.000000 0.000000 0.000000
# 3 -0.007118 -0.002050 0.018814 0.000000 0.000000 0.000000
# 4 0.000000 0.000000 0.000000 0.038278 0.000000 0.000000
# 5 0.000000 0.000000 0.000000 0.000000 0.042094 0.000000
# 6 0.000000 0.000000 0.000000 0.000000 0.000000 0.024244
#
#
# Mechanical properties :
#
#
# Convention : Reuss Voigt Hill
#
# Bulk Modulus (GPa) = 36.85510 71.91914 54.38712
# Shear Modulus (GPa) = 22.87174 28.67699 25.77437
#
# Velocity S-wave (km/s) = 3.25907 3.64931 3.45969
# Velocity P-wave (km/s) = 5.59261 7.15230 6.42000
#
# Compressibility (1/GPa) = 0.02713329
#
# Stress axis : x y z
#
# Youngs Moduli (GPa) = 87.40627 27.94367 53.15179
#
# Poissons Ratio (x) = 0.28745 0.37831
# Poissons Ratio (y) = 0.89912 0.10894
# Poissons Ratio (z) = 0.62212 0.05727
#
# Static dielectric constant tensor:
#      x y z
#    x 1.789320 0.000000 0.000000 
#    y 0.000000 1.858040 0.000000 
#    z 0.000000 0.000000 1.777910 
# 
# From -- ./inp_files/13969.got.cif
#   From: 2010.05.17/outbox.cif.g08.bks.cpg/sg52_7_cif.got.tgz:13969.got - 2010.06.03 12:15:38.
