data_PCOD9411607
_publ_section_title
;
Structure prediction by ZEFSAII (Michael W. Deem and Ramdas Pophale) SiO2 
 PCOD9411607
Probable space group: P N N A
;
_chemical_formula_sum "Si O2"
_cell_formula_units_Z 52
_cell_length_a 9.706052
_cell_length_b 17.947810
_cell_length_c 14.659201
_cell_angle_alpha 90.000000
_cell_angle_beta 90.000000
_cell_angle_gamma 90.000000
_cell_volume 2553.667661
_symmetry_space_group_name_H-M "P N N A"
_symmetry_group_IT_number 52
_symmetry_cell_setting 'orthorhombic'
loop_
_space_group_symop_operation_xyz
x,y,z
1/2-x,-y,z
x,1/2-y,1/2-z
1/2-x,1/2+y,1/2-z
-x,-y,-z
1/2+x,y,-z
-x,1/2+y,1/2+z
1/2+x,1/2-y,1/2+z
loop_
_atom_site_type_symbol
_atom_site_label
_atom_site_fract_x
_atom_site_fract_y
_atom_site_fract_z
Si Si1 0.984749 0.637264 0.838208
Si Si2 0.706603 0.915160 0.737057
Si Si3 0.097455 0.252651 0.492698
Si Si4 0.859174 0.314930 0.599704
Si Si5 0.019844 0.470827 0.896612
Si Si6 0.790975 0.841805 0.338480
Si Si7 0.493013 0.750000 0.750000
O O1 0.841278 0.635845 0.783306
O O2 0.017447 0.549610 0.846380
O O3 0.133891 0.666413 0.807466
O O4 0.955319 0.683223 0.931345
O O5 0.638571 0.882420 0.828636
O O6 0.607460 0.923809 0.647628
O O7 0.750000 0.000000 0.755513
O O8 0.209818 0.299418 0.438260
O O9 0.172904 0.216621 0.580781
O O10 0.973668 0.307402 0.521629
O O11 0.907770 0.246967 0.664291
O O12 0.155373 0.420852 0.878662
O O13 0.000000 0.500000 0.000000
O O14 0.890587 0.819564 0.255369
#
# Coordination Sequence:
#
# PCOD9411607 Si02
#       7
#     8   8   8   8   8   8   4
#     4  11  23  36  59  96 128 161 215 254 315 388
#     4  10  24  43  66  90 128 175 214 265 330 393
#     4  11  23  36  63  93 124 164 215 270 317 383
#     4  11  22  44  62  91 126 170 215 271 324 385
#     4  11  22  38  62  90 135 173 206 251 318 397
#     4  11  22  38  57  95 125 171 212 261 313 385
#     4  10  22  38  66  82 136 172 210 254 334 380
#
# _framework density 20.362869
#
# number of rings (size 3 to 8) (size 9 to 14) (size 15 to 20)
#    0.000    1.231    4.615    1.385    4.308    2.462 
#    0.000    0.769    0.000    0.000    0.000    0.000 
#    0.000    0.000    0.000    0.000    0.000    0.000 
#
# Total GULP energy -289614.984224 kJ/mol
# GULP energy per Si atom -5569.518927 kJ/mol
# Density = 2.031652 g / cm^3
# Si number density = 20.362869 Si / 1000 Ang^3
#
#
#
# Elastic Constant Matrix: (Units=GPa)
#
#
# Indices 1 2 3 4 5 6 
#
# 1 151.9462 37.7525 52.8134 0.0000 0.0000 0.0000
# 2 37.7525 71.3131 35.5533 0.0000 0.0000 0.0000
# 3 52.8134 35.5533 69.1471 0.0000 0.0000 0.0000
# 4 0.0000 0.0000 0.0000 38.9321 0.0000 0.0000
# 5 0.0000 0.0000 0.0000 0.0000 29.5670 0.0000
# 6 0.0000 0.0000 0.0000 0.0000 0.0000 27.6395
#
#
#
# Elastic Compliance Matrix: (Units=1/GPa)
#
#
# Indices 1 2 3 4 5 6 
#
# 1 0.009133 -0.001825 -0.006037 0.000000 0.000000 0.000000
# 2 -0.001825 0.019221 -0.008489 0.000000 0.000000 0.000000
# 3 -0.006037 -0.008489 0.023438 0.000000 0.000000 0.000000
# 4 0.000000 0.000000 0.000000 0.025686 0.000000 0.000000
# 5 0.000000 0.000000 0.000000 0.000000 0.033822 0.000000
# 6 0.000000 0.000000 0.000000 0.000000 0.000000 0.036180
#
#
# Mechanical properties :
#
#
# Convention : Reuss Voigt Hill
#
# Bulk Modulus (GPa) = 52.38505 60.51608 56.45057
# Shear Modulus (GPa) = 26.80313 30.31352 28.55833
#
# Velocity S-wave (km/s) = 3.63199 3.86251 3.74902
# Velocity P-wave (km/s) = 6.58559 7.04807 6.82075
#
# Compressibility (1/GPa) = 0.01908941
#
# Stress axis : x y z
#
# Youngs Moduli (GPa) = 109.49047 52.02640 42.66591
#
# Poissons Ratio (x) = 0.09495 0.25759
# Poissons Ratio (y) = 0.19983 0.36219
# Poissons Ratio (z) = 0.66104 0.44165
#
# Static dielectric constant tensor:
#      x y z
#    x 1.785980 0.000000 0.000000 
#    y 0.000000 1.771190 0.000000 
#    z 0.000000 0.000000 1.773500 
# 
# From -- ./inp_files/31418.got.cif
#   From: 2010.05.17/outbox.cif.g08.bks.cpg/sg52_16_cif.got.tgz:31418.got - 2010.06.03 12:15:38.
