data_PCOD9411236
_publ_section_title
;
Structure prediction by ZEFSAII (Michael W. Deem and Ramdas Pophale) SiO2 
 PCOD9411236
Probable space group: P N N A
;
_chemical_formula_sum "Si O2"
_cell_formula_units_Z 56
_cell_length_a 7.195033
_cell_length_b 20.560977
_cell_length_c 14.555739
_cell_angle_alpha 90.000000
_cell_angle_beta 90.000000
_cell_angle_gamma 90.000000
_cell_volume 2153.331022
_symmetry_space_group_name_H-M "P N N A"
_symmetry_group_IT_number 52
_symmetry_cell_setting 'orthorhombic'
loop_
_space_group_symop_operation_xyz
x,y,z
1/2-x,-y,z
x,1/2-y,1/2-z
1/2-x,1/2+y,1/2-z
-x,-y,-z
1/2+x,y,-z
-x,1/2+y,1/2+z
1/2+x,1/2-y,1/2+z
loop_
_atom_site_type_symbol
_atom_site_label
_atom_site_fract_x
_atom_site_fract_y
_atom_site_fract_z
Si Si1 0.843339 0.709747 0.470515
Si Si2 0.907608 0.588189 0.912378
Si Si3 0.526054 0.992421 0.134908
Si Si4 0.911358 0.662076 0.108845
Si Si5 0.427390 0.108943 0.005119
Si Si6 0.012338 0.964625 0.337888
Si Si7 0.174554 0.285857 0.154848
O O1 0.795747 0.770973 0.406037
O O2 0.771572 0.634920 0.463162
O O3 0.880748 0.740388 0.570159
O O4 0.050778 0.681664 0.449613
O O5 0.039601 0.525741 0.902935
O O6 0.704624 0.562719 0.880963
O O7 0.949104 0.648595 0.845899
O O8 0.904704 0.623320 0.011142
O O9 0.467201 0.002227 0.239197
O O10 0.750000 0.000000 0.129322
O O11 0.484748 0.923465 0.087087
O O12 0.429770 0.049652 0.075801
O O13 0.884883 0.599679 0.174553
O O14 0.114620 0.690156 0.133988
O O15 0.163924 0.250000 0.250000
#
# Coordination Sequence:
#
# PCOD9411236 Si02
#       7
#     8   8   8   8   8   8   8
#     4  11  22  40  69  96 133 177 224 284 361 430
#     4   9  21  40  63  98 130 184 241 288 354 419
#     4  11  25  45  63 104 132 181 234 295 360 423
#     4  10  21  41  64  97 136 181 232 286 353 422
#     4  11  24  43  72  94 142 177 231 291 365 435
#     4  10  22  41  69  94 139 182 244 297 345 424
#     4  10  22  37  64  98 132 176 236 292 353 429
#
# _framework density 26.006221
#
# number of rings (size 3 to 8) (size 9 to 14) (size 15 to 20)
#    0.000    1.714    2.857    0.429    6.000    1.143 
#   10.286    0.000    0.000    0.000    0.000    0.000 
#    0.000    0.000    0.000    0.000    0.000    0.000 
#
# Total GULP energy -311753.268544 kJ/mol
# GULP energy per Si atom -5567.022653 kJ/mol
# Density = 2.594703 g / cm^3
# Si number density = 26.006221 Si / 1000 Ang^3
#
#
#
# Elastic Constant Matrix: (Units=GPa)
#
#
# Indices 1 2 3 4 5 6 
#
# 1 101.5167 29.3844 -102.9706 0.0000 0.0000 0.0000
# 2 29.3844 240.8376 39.1046 0.0000 0.0000 0.0000
# 3 -102.9706 39.1046 235.9076 0.0000 0.0000 0.0000
# 4 0.0000 0.0000 0.0000 18.1163 0.0000 0.0000
# 5 0.0000 0.0000 0.0000 0.0000 23.9584 0.0000
# 6 0.0000 0.0000 0.0000 0.0000 0.0000 52.6609
#
#
#
# Elastic Compliance Matrix: (Units=1/GPa)
#
#
# Indices 1 2 3 4 5 6 
#
# 1 0.021113 -0.004185 0.009909 0.000000 0.000000 0.000000
# 2 -0.004185 0.005097 -0.002672 0.000000 0.000000 0.000000
# 3 0.009909 -0.002672 0.009007 0.000000 0.000000 0.000000
# 4 0.000000 0.000000 0.000000 0.055199 0.000000 0.000000
# 5 0.000000 0.000000 0.000000 0.000000 0.041739 0.000000
# 6 0.000000 0.000000 0.000000 0.000000 0.000000 0.018989
#
#
# Mechanical properties :
#
#
# Convention : Reuss Voigt Hill
#
# Bulk Modulus (GPa) = 24.19978 56.58873 40.39425
# Shear Modulus (GPa) = 31.48360 59.79667 45.64014
#
# Velocity S-wave (km/s) = 3.48317 4.80033 4.19378
# Velocity P-wave (km/s) = 5.04997 7.24783 6.24633
#
# Compressibility (1/GPa) = 0.04132269
#
# Stress axis : x y z
#
# Youngs Moduli (GPa) = 47.36358 196.21097 111.02349
#
# Poissons Ratio (x) = 0.82114 -1.10017
# Poissons Ratio (y) = 0.19822 0.29660
# Poissons Ratio (z) = -0.46934 0.52418
#
# Static dielectric constant tensor:
#      x y z
#    x 1.754060 0.000000 0.000000 
#    y 0.000000 2.025740 0.000000 
#    z 0.000000 0.000000 2.038570 
# 
# From -- ./inp_files/24944.got.cif
#   From: 2010.05.17/outbox.cif.g08.bks.cpg/sg52_13_cif.got.tgz:24944.got - 2010.06.03 12:15:38.
