data_PCOD9411831
_publ_section_title
;
Structure prediction by ZEFSAII (Michael W. Deem and Ramdas Pophale) SiO2 
 PCOD9411831
Probable space group: P N N A
;
_chemical_formula_sum "Si O2"
_cell_formula_units_Z 60
_cell_length_a 8.105258
_cell_length_b 12.980861
_cell_length_c 23.769811
_cell_angle_alpha 90.000000
_cell_angle_beta 90.000000
_cell_angle_gamma 90.000000
_cell_volume 2500.898532
_symmetry_space_group_name_H-M "P N N A"
_symmetry_group_IT_number 52
_symmetry_cell_setting 'orthorhombic'
loop_
_space_group_symop_operation_xyz
x,y,z
1/2-x,-y,z
x,1/2-y,1/2-z
1/2-x,1/2+y,1/2-z
-x,-y,-z
1/2+x,y,-z
-x,1/2+y,1/2+z
1/2+x,1/2-y,1/2+z
loop_
_atom_site_type_symbol
_atom_site_label
_atom_site_fract_x
_atom_site_fract_y
_atom_site_fract_z
Si Si1 0.750000 0.000000 0.034721
Si Si2 0.565218 0.023439 0.887170
Si Si3 0.590452 0.257647 0.905521
Si Si4 0.219468 0.760670 0.990977
Si Si5 0.913503 0.566944 0.049690
Si Si6 0.439709 0.029384 0.235912
Si Si7 0.628316 0.100559 0.330306
Si Si8 0.046666 0.669426 0.797776
O O1 0.747046 0.116724 0.009948
O O2 0.920688 0.000998 0.069628
O O3 0.571139 0.145765 0.876687
O O4 0.750000 0.000000 0.907473
O O5 0.532246 0.960652 0.830207
O O6 0.439814 0.259707 0.951318
O O7 0.566806 0.334618 0.853564
O O8 0.757148 0.266729 0.942573
O O9 0.353907 0.681873 0.965648
O O10 0.750000 0.500000 0.056286
O O11 0.977604 0.582059 0.113205
O O12 0.000000 0.500000 0.000000
O O13 0.507847 0.115206 0.277504
O O14 0.250000 0.000000 0.243134
O O15 0.538161 0.932317 0.260107
O O16 0.770301 0.187588 0.324133
O O17 0.750000 0.000000 0.330137
O O18 0.998367 0.750000 0.750000
#
# Coordination Sequence:
#
# PCOD9411831 Si02
#       8
#     4   8   8   8   8   8   8   8
#     4  10  26  44  72 104 148 190 246 292 376 436
#     4  10  23  42  69 103 142 186 238 298 363 443
#     4  11  24  43  66  99 138 186 237 294 367 437
#     4  11  25  43  67 100 140 187 239 294 363 446
#     4  11  23  42  64  95 135 183 235 297 358 432
#     4  10  22  41  63  96 133 175 227 291 366 427
#     4   9  21  38  64  88 126 171 230 283 344 428
#     4  11  21  42  69  94 130 184 234 291 362 436
#
# _framework density 23.991378000000001
#
# number of rings (size 3 to 8) (size 9 to 14) (size 15 to 20)
#    0.000    1.600    2.667    0.800    9.333    1.600 
#    2.400    0.667    0.000    0.000    0.000    0.000 
#    0.000    0.000    0.000    0.000    0.000    0.000 
#
# Total GULP energy -334055.724075 kJ/mol
# GULP energy per Si atom -5567.595401 kJ/mol
# Density = 2.393677 g / cm^3
# Si number density = 23.991378 Si / 1000 Ang^3
#
#
#
# Elastic Constant Matrix: (Units=GPa)
#
#
# Indices 1 2 3 4 5 6 
#
# 1 69.2175 11.9307 50.4382 0.0000 0.0000 0.0000
# 2 11.9307 52.6503 24.3023 0.0000 0.0000 0.0000
# 3 50.4382 24.3023 132.1896 0.0000 0.0000 0.0000
# 4 0.0000 0.0000 0.0000 -38.2839 0.0000 0.0000
# 5 0.0000 0.0000 0.0000 0.0000 19.8587 0.0000
# 6 0.0000 0.0000 0.0000 0.0000 0.0000 15.7620
#
#
#
# Elastic Compliance Matrix: (Units=1/GPa)
#
#
# Indices 1 2 3 4 5 6 
#
# 1 0.020070 -0.001107 -0.007454 0.000000 0.000000 0.000000
# 2 -0.001107 0.020816 -0.003404 0.000000 0.000000 0.000000
# 3 -0.007454 -0.003404 0.011035 0.000000 0.000000 0.000000
# 4 0.000000 0.000000 0.000000 -0.026121 0.000000 0.000000
# 5 0.000000 0.000000 0.000000 0.000000 0.050356 0.000000
# 6 0.000000 0.000000 0.000000 0.000000 0.000000 0.063444
#
#
# Mechanical properties :
#
#
# Convention : Reuss Voigt Hill
#
# Bulk Modulus (GPa) = 35.72856 47.48888 41.60872
# Shear Modulus (GPa) = 28.92503 10.62644 19.77574
#
# Velocity S-wave (km/s) = 3.47600 2.10687 2.87415
# Velocity P-wave (km/s) = 5.57088 5.07500 5.32871
#
# Compressibility (1/GPa) = 0.02798881
#
# Stress axis : x y z
#
# Youngs Moduli (GPa) = 49.82573 48.04109 90.62041
#
# Poissons Ratio (x) = 0.05319 0.67552
# Poissons Ratio (y) = 0.05516 0.30851
# Poissons Ratio (z) = 0.37142 0.16355
#
# Static dielectric constant tensor:
#      x y z
#    x 0.892980 0.000000 0.000000 
#    y 0.000000 0.885520 0.000000 
#    z 0.000000 0.000000 2.039780 
# 
# From -- ./inp_files/39652.got.cif
#   From: 2010.05.17/outbox.cif.g08.bks.cpg/sg52_20_cif.got.tgz:39652.got - 2010.06.03 12:15:38.
