data_PCOD9411700
_publ_section_title
;
Structure prediction by ZEFSAII (Michael W. Deem and Ramdas Pophale) SiO2 
 PCOD9411700
Probable space group: P N N A
;
_chemical_formula_sum "Si O2"
_cell_formula_units_Z 40
_cell_length_a 8.745972
_cell_length_b 8.576700
_cell_length_c 25.463806
_cell_angle_alpha 90.000000
_cell_angle_beta 90.000000
_cell_angle_gamma 90.000000
_cell_volume 1910.080271
_symmetry_space_group_name_H-M "P N N A"
_symmetry_group_IT_number 52
_symmetry_cell_setting 'orthorhombic'
loop_
_space_group_symop_operation_xyz
x,y,z
1/2-x,-y,z
x,1/2-y,1/2-z
1/2-x,1/2+y,1/2-z
-x,-y,-z
1/2+x,y,-z
-x,1/2+y,1/2+z
1/2+x,1/2-y,1/2+z
loop_
_atom_site_type_symbol
_atom_site_label
_atom_site_fract_x
_atom_site_fract_y
_atom_site_fract_z
Si Si1 0.547637 0.283660 0.873395
Si Si2 0.815603 0.326934 0.941562
Si Si3 0.380745 0.393775 0.532153
Si Si4 0.790388 0.180244 0.192365
Si Si5 0.610482 0.400778 0.110515
O O1 0.724281 0.272532 0.889380
O O2 0.465153 0.212383 0.925203
O O3 0.467217 0.196676 0.825732
O O4 0.498319 0.463880 0.865281
O O5 0.750000 0.500000 0.952480
O O6 0.996563 0.325051 0.930769
O O7 0.793370 0.213746 0.990166
O O8 0.250000 0.500000 0.558470
O O9 0.500000 0.500000 0.500000
O O10 0.769176 0.250000 0.250000
O O11 0.686639 0.282971 0.151945
O O12 0.750000 0.000000 0.191235
O O13 0.750000 0.500000 0.086600
#
# Coordination Sequence:
#
# PCOD9411700 Si02
#       5
#     8   8   8   8   8
#     4  10  22  40  60  90 125 170 205 266 317 386
#     4  10  23  41  60  88 127 170 212 259 320 388
#     4  12  25  39  59  92 132 169 219 266 322 390
#     4  11  23  41  67  96 123 161 213 268 322 386
#     4   9  21  38  64  88 122 162 209 257 313 377
#
# _framework density 20.941528000000002
#
# number of rings (size 3 to 8) (size 9 to 14) (size 15 to 20)
#    0.000    1.600    2.000    2.400    8.400    5.600 
#    0.000    1.000    0.000    2.400    0.000    0.000 
#    0.000    0.000    0.000    0.000    0.000    0.000 
#
# Total GULP energy -223382.102082 kJ/mol
# GULP energy per Si atom -5584.552552 kJ/mol
# Density = 2.089386 g / cm^3
# Si number density = 20.941528 Si / 1000 Ang^3
#
#
#
# Elastic Constant Matrix: (Units=GPa)
#
#
# Indices 1 2 3 4 5 6 
#
# 1 110.6376 34.5045 32.1015 0.0000 0.0000 0.0000
# 2 34.5045 113.2168 49.9991 0.0000 0.0000 0.0000
# 3 32.1015 49.9991 70.5084 0.0000 0.0000 0.0000
# 4 0.0000 0.0000 0.0000 32.4566 0.0000 0.0000
# 5 0.0000 0.0000 0.0000 0.0000 12.9456 0.0000
# 6 0.0000 0.0000 0.0000 0.0000 0.0000 31.7596
#
#
#
# Elastic Compliance Matrix: (Units=1/GPa)
#
#
# Indices 1 2 3 4 5 6 
#
# 1 0.010610 -0.001602 -0.003695 0.000000 0.000000 0.000000
# 2 -0.001602 0.013102 -0.008561 0.000000 0.000000 0.000000
# 3 -0.003695 -0.008561 0.021936 0.000000 0.000000 0.000000
# 4 0.000000 0.000000 0.000000 0.030810 0.000000 0.000000
# 5 0.000000 0.000000 0.000000 0.000000 0.077246 0.000000
# 6 0.000000 0.000000 0.000000 0.000000 0.000000 0.031487
#
#
# Mechanical properties :
#
#
# Convention : Reuss Voigt Hill
#
# Bulk Modulus (GPa) = 55.76694 58.61921 57.19307
# Shear Modulus (GPa) = 22.84313 27.28288 25.06301
#
# Velocity S-wave (km/s) = 3.30632 3.61337 3.46325
# Velocity P-wave (km/s) = 6.42365 6.74249 6.58500
#
# Compressibility (1/GPa) = 0.01793177
#
# Stress axis : x y z
#
# Youngs Moduli (GPa) = 94.24965 76.32574 45.58732
#
# Poissons Ratio (x) = 0.12227 0.16843
# Poissons Ratio (y) = 0.15098 0.39029
# Poissons Ratio (z) = 0.34822 0.65346
#
# Static dielectric constant tensor:
#      x y z
#    x 1.806810 0.000000 0.000000 
#    y 0.000000 1.808110 0.000000 
#    z 0.000000 0.000000 1.712040 
# 
# From -- ./inp_files/42103.got.cif
#   From: 2010.05.17/outbox.cif.g08.bks.cpg/sg52_22_cif.got.tgz:42103.got - 2010.06.03 12:15:38.
