data_PCOD9411132
_publ_section_title
;
Structure prediction by ZEFSAII (Michael W. Deem and Ramdas Pophale) SiO2 
 PCOD9411132
Probable space group: P N N A
;
_chemical_formula_sum "Si O2"
_cell_formula_units_Z 32
_cell_length_a 17.282629
_cell_length_b 13.847171
_cell_length_c 5.309517
_cell_angle_alpha 90.000000
_cell_angle_beta 90.000000
_cell_angle_gamma 90.000000
_cell_volume 1270.649817
_symmetry_space_group_name_H-M "P N N A"
_symmetry_group_IT_number 52
_symmetry_cell_setting 'orthorhombic'
loop_
_space_group_symop_operation_xyz
x,y,z
1/2-x,-y,z
x,1/2-y,1/2-z
1/2-x,1/2+y,1/2-z
-x,-y,-z
1/2+x,y,-z
-x,1/2+y,1/2+z
1/2+x,1/2-y,1/2+z
loop_
_atom_site_type_symbol
_atom_site_label
_atom_site_fract_x
_atom_site_fract_y
_atom_site_fract_z
Si Si1 0.372931 0.144610 0.876432
Si Si2 0.383784 0.850514 0.501851
Si Si3 0.549210 0.367629 0.507288
Si Si4 0.217207 0.604394 0.113435
O O1 0.381308 0.250000 0.750000
O O2 0.458745 0.115951 0.964912
O O3 0.334905 0.091373 0.636778
O O4 0.322655 0.144453 0.133208
O O5 0.428527 0.747378 0.496937
O O6 0.410013 0.907273 0.254997
O O7 0.292263 0.834876 0.480202
O O8 0.412082 0.902499 0.752229
O O9 0.250000 0.500000 0.183614
#
# Coordination Sequence:
#
# PCOD9411132 Si02
#       4
#     8   8   8   8
#     4  12  25  44  76 103 134 184 249 298 340 418
#     4  10  21  40  64  96 139 172 227 294 343 410
#     4  10  21  40  67 101 130 170 239 301 337 389
#     4  12  28  46  67 106 151 190 225 289 373 430
#
# _framework density 25.183964
#
# number of rings (size 3 to 8) (size 9 to 14) (size 15 to 20)
#    0.000    1.000    2.500    4.500   14.000    0.000 
#    0.000    7.500    0.000    0.000    0.000    0.000 
#    0.000    0.000    0.000    0.000    0.000    0.000 
#
# Total GULP energy -179057.615782 kJ/mol
# GULP energy per Si atom -5595.550493 kJ/mol
# Density = 2.512664 g / cm^3
# Si number density = 25.183964 Si / 1000 Ang^3
#
#
#
# Elastic Constant Matrix: (Units=GPa)
#
#
# Indices 1 2 3 4 5 6 
#
# 1 207.2244 22.4348 128.4758 0.0000 0.0000 0.0000
# 2 22.4348 48.3947 15.2541 0.0000 0.0000 0.0000
# 3 128.4758 15.2541 320.0335 0.0000 0.0000 0.0000
# 4 0.0000 0.0000 0.0000 14.0666 0.0000 0.0000
# 5 0.0000 0.0000 0.0000 0.0000 56.4091 0.0000
# 6 0.0000 0.0000 0.0000 0.0000 0.0000 26.4347
#
#
#
# Elastic Compliance Matrix: (Units=1/GPa)
#
#
# Indices 1 2 3 4 5 6 
#
# 1 0.006664 -0.002280 -0.002566 0.000000 0.000000 0.000000
# 2 -0.002280 0.021759 -0.000122 0.000000 0.000000 0.000000
# 3 -0.002566 -0.000122 0.004161 0.000000 0.000000 0.000000
# 4 0.000000 0.000000 0.000000 0.071090 0.000000 0.000000
# 5 0.000000 0.000000 0.000000 0.000000 0.017728 0.000000
# 6 0.000000 0.000000 0.000000 0.000000 0.000000 0.037829
#
#
# Mechanical properties :
#
#
# Convention : Reuss Voigt Hill
#
# Bulk Modulus (GPa) = 44.15681 100.88688 72.52184
# Shear Modulus (GPa) = 28.29402 46.68129 37.48766
#
# Velocity S-wave (km/s) = 3.35549 4.31003 3.86236
# Velocity P-wave (km/s) = 5.70826 8.05701 6.98211
#
# Compressibility (1/GPa) = 0.02264657
#
# Stress axis : x y z
#
# Youngs Moduli (GPa) = 150.06698 45.95830 240.34117
#
# Poissons Ratio (x) = 0.10479 0.61682
# Poissons Ratio (y) = 0.34218 0.02926
# Poissons Ratio (z) = 0.38514 0.00559
#
# Static dielectric constant tensor:
#      x y z
#    x 1.952410 0.000000 0.000000 
#    y 0.000000 2.313680 0.000000 
#    z 0.000000 0.000000 1.969340 
# 
# From -- ./inp_files/1917.got.cif
#   From: 2010.05.17/outbox.cif.g08.bks.cpg/sg52_1_cif.got.tgz:1917.got - 2010.06.03 12:15:38.
