data_PCOD9411836
_publ_section_title
;
Structure prediction by ZEFSAII (Michael W. Deem and Ramdas Pophale) SiO2 
 PCOD9411836
Probable space group: P N N A
;
_chemical_formula_sum "Si O2"
_cell_formula_units_Z 40
_cell_length_a 15.288970
_cell_length_b 26.048379
_cell_length_c 5.048338
_cell_angle_alpha 90.000000
_cell_angle_beta 90.000000
_cell_angle_gamma 90.000000
_cell_volume 2010.515173
_symmetry_space_group_name_H-M "P N N A"
_symmetry_group_IT_number 52
_symmetry_cell_setting 'orthorhombic'
loop_
_space_group_symop_operation_xyz
x,y,z
1/2-x,-y,z
x,1/2-y,1/2-z
1/2-x,1/2+y,1/2-z
-x,-y,-z
1/2+x,y,-z
-x,1/2+y,1/2+z
1/2+x,1/2-y,1/2+z
loop_
_atom_site_type_symbol
_atom_site_label
_atom_site_fract_x
_atom_site_fract_y
_atom_site_fract_z
Si Si1 0.594076 0.599033 0.875800
Si Si2 0.808972 0.191005 0.812610
Si Si3 0.403857 0.939662 0.566018
Si Si4 0.852810 0.498677 0.544427
Si Si5 0.752371 0.636597 0.168084
O O1 0.606362 0.655292 0.745677
O O2 0.497741 0.586034 0.969514
O O3 0.621867 0.556099 0.664939
O O4 0.668059 0.600722 0.104137
O O5 0.825708 0.250000 0.750000
O O6 0.739583 0.170064 0.597808
O O7 0.771920 0.174645 0.095742
O O8 0.369210 0.961836 0.288564
O O9 0.336034 0.899127 0.692202
O O10 0.407223 0.984792 0.785852
O O11 0.750000 0.500000 0.477185
#
# Coordination Sequence:
#
# PCOD9411836 Si02
#       5
#     8   8   8   8   8
#     4  10  25  38  65  90 129 159 215 250 313 369
#     4  10  22  43  66  88 120 165 207 265 320 361
#     4  12  24  39  63  93 128 166 204 252 308 376
#     4  12  23  39  61  91 131 168 205 245 311 375
#     4  10  22  41  64  89 126 160 207 254 310 367
#
# _framework density 19.895401
#
# number of rings (size 3 to 8) (size 9 to 14) (size 15 to 20)
#    1.200    0.000    2.000    4.800    5.600    0.000 
#    0.000    2.000    0.000    0.000    0.000    0.000 
#    0.000    0.000    0.000    0.000    0.000    0.000 
#
# Total GULP energy -223356.952201 kJ/mol
# GULP energy per Si atom -5583.923805 kJ/mol
# Density = 1.985012 g / cm^3
# Si number density = 19.895401 Si / 1000 Ang^3
#
#
#
# Elastic Constant Matrix: (Units=GPa)
#
#
# Indices 1 2 3 4 5 6 
#
# 1 99.9600 39.5818 4.0333 0.0000 0.0000 0.0000
# 2 39.5818 108.0045 -9.8205 0.0000 0.0000 0.0000
# 3 4.0333 -9.8205 68.6259 0.0000 0.0000 0.0000
# 4 0.0000 0.0000 0.0000 31.4836 0.0000 0.0000
# 5 0.0000 0.0000 0.0000 0.0000 8.9732 0.0000
# 6 0.0000 0.0000 0.0000 0.0000 0.0000 14.0371
#
#
#
# Elastic Compliance Matrix: (Units=1/GPa)
#
#
# Indices 1 2 3 4 5 6 
#
# 1 0.011821 -0.004453 -0.001332 0.000000 0.000000 0.000000
# 2 -0.004453 0.011059 0.001844 0.000000 0.000000 0.000000
# 3 -0.001332 0.001844 0.014914 0.000000 0.000000 0.000000
# 4 0.000000 0.000000 0.000000 0.031763 0.000000 0.000000
# 5 0.000000 0.000000 0.000000 0.000000 0.111443 0.000000
# 6 0.000000 0.000000 0.000000 0.000000 0.000000 0.071240
#
#
# Mechanical properties :
#
#
# Convention : Reuss Voigt Hill
#
# Bulk Modulus (GPa) = 33.43201 38.24218 35.83710
# Shear Modulus (GPa) = 18.51219 27.08516 22.79868
#
# Velocity S-wave (km/s) = 3.05368 3.69369 3.38883
# Velocity P-wave (km/s) = 5.41051 6.12000 5.77616
#
# Compressibility (1/GPa) = 0.02991145
#
# Stress axis : x y z
#
# Youngs Moduli (GPa) = 84.59391 90.42695 67.05124
#
# Poissons Ratio (x) = 0.40271 0.08932
# Poissons Ratio (y) = 0.37673 -0.12366
# Poissons Ratio (z) = 0.11268 -0.16677
#
# Static dielectric constant tensor:
#      x y z
#    x 1.676990 0.000000 0.000000 
#    y 0.000000 1.738260 0.000000 
#    z 0.000000 0.000000 1.732220 
# 
# From -- ./inp_files/2288.got.cif
#   From: 2010.05.17/outbox.cif.g08.bks.cpg/sg52_2_cif.got.tgz:2288.got - 2010.06.03 12:15:38.
