data_PCOD9411146
_publ_section_title
;
Structure prediction by ZEFSAII (Michael W. Deem and Ramdas Pophale) SiO2 
 PCOD9411146
Probable space group: P N N A
;
_chemical_formula_sum "Si O2"
_cell_formula_units_Z 60
_cell_length_a 9.055188
_cell_length_b 11.102936
_cell_length_c 26.543436
_cell_angle_alpha 90.000000
_cell_angle_beta 90.000000
_cell_angle_gamma 90.000000
_cell_volume 2668.655100
_symmetry_space_group_name_H-M "P N N A"
_symmetry_group_IT_number 52
_symmetry_cell_setting 'orthorhombic'
loop_
_space_group_symop_operation_xyz
x,y,z
1/2-x,-y,z
x,1/2-y,1/2-z
1/2-x,1/2+y,1/2-z
-x,-y,-z
1/2+x,y,-z
-x,1/2+y,1/2+z
1/2+x,1/2-y,1/2+z
loop_
_atom_site_type_symbol
_atom_site_label
_atom_site_fract_x
_atom_site_fract_y
_atom_site_fract_z
Si Si1 0.462327 0.533672 0.681307
Si Si2 0.711372 0.807258 0.200396
Si Si3 0.027969 0.201572 0.525002
Si Si4 0.751740 0.361070 0.505408
Si Si5 0.916362 0.666905 0.828035
Si Si6 0.367603 0.605943 0.389814
Si Si7 0.080674 0.027865 0.431531
Si Si8 0.750000 0.000000 0.752979
O O1 0.377761 0.430038 0.712685
O O2 0.355491 0.645602 0.670942
O O3 0.487461 0.461608 0.629062
O O4 0.616488 0.550382 0.711458
O O5 0.778622 0.750000 0.250000
O O6 0.582526 0.715500 0.183064
O O7 0.904705 0.305969 0.524558
O O8 0.183144 0.267137 0.533081
O O9 0.022190 0.122137 0.473246
O O10 0.999781 0.099755 0.566030
O O11 0.750000 0.500000 0.490043
O O12 0.639084 0.351481 0.553100
O O13 0.837557 0.786381 0.850994
O O14 0.923705 0.579086 0.875671
O O15 0.827430 0.601958 0.782819
O O16 0.250000 0.500000 0.388565
O O17 0.250000 0.000000 0.446046
#
# Coordination Sequence:
#
# PCOD9411146 Si02
#       8
#     8   8   8   8   8   8   8   4
#     4  10  22  40  66  98 133 189 225 287 352 408
#     4  10  21  41  64  91 146 181 221 286 353 412
#     4  11  22  41  70  97 128 185 222 285 367 418
#     4  11  23  42  69  99 134 176 235 291 348 428
#     4  11  22  39  68 105 136 185 233 295 341 415
#     4  10  21  40  65  94 136 172 236 295 346 411
#     4  11  21  40  70  98 142 179 231 292 351 416
#     4  12  22  38  76 104 134 182 252 274 340 438
#
# _framework density 22.483236999999999
#
# number of rings (size 3 to 8) (size 9 to 14) (size 15 to 20)
#    0.000    1.333    5.333    0.400    0.000    1.067 
#    0.000    4.000    5.867    0.000    0.000    0.000 
#    0.000    0.000    0.000    0.000    0.000    0.000 
#
# Total GULP energy -334509.679163 kJ/mol
# GULP energy per Si atom -5575.161319 kJ/mol
# Density = 2.243206 g / cm^3
# Si number density = 22.483237 Si / 1000 Ang^3
#
#
#
# Elastic Constant Matrix: (Units=GPa)
#
#
# Indices 1 2 3 4 5 6 
#
# 1 86.4349 43.4673 23.0664 0.0000 0.0000 0.0000
# 2 43.4673 102.0235 11.8124 0.0000 0.0000 0.0000
# 3 23.0664 11.8124 51.2002 0.0000 0.0000 0.0000
# 4 0.0000 0.0000 0.0000 -44.5494 0.0000 0.0000
# 5 0.0000 0.0000 0.0000 0.0000 6.4006 0.0000
# 6 0.0000 0.0000 0.0000 0.0000 0.0000 48.6763
#
#
#
# Elastic Compliance Matrix: (Units=1/GPa)
#
#
# Indices 1 2 3 4 5 6 
#
# 1 0.016289 -0.006258 -0.005895 0.000000 0.000000 0.000000
# 2 -0.006258 0.012475 -0.000059 0.000000 0.000000 0.000000
# 3 -0.005895 -0.000059 0.022200 0.000000 0.000000 0.000000
# 4 0.000000 0.000000 0.000000 -0.022447 0.000000 0.000000
# 5 0.000000 0.000000 0.000000 0.000000 0.156235 0.000000
# 6 0.000000 0.000000 0.000000 0.000000 0.000000 0.020544
#
#
# Mechanical properties :
#
#
# Convention : Reuss Voigt Hill
#
# Bulk Modulus (GPa) = 37.67660 44.03899 40.85780
# Shear Modulus (GPa) = 20.95850 12.85966 16.90908
#
# Velocity S-wave (km/s) = 3.05648 2.39418 2.74537
# Velocity P-wave (km/s) = 5.40834 5.22233 5.31615
#
# Compressibility (1/GPa) = 0.02654167
#
# Stress axis : x y z
#
# Youngs Moduli (GPa) = 61.38947 80.16319 45.04408
#
# Poissons Ratio (x) = 0.50163 0.26553
# Poissons Ratio (y) = 0.38415 0.00265
# Poissons Ratio (z) = 0.36189 0.00472
#
# Static dielectric constant tensor:
#      x y z
#    x 1.906200 0.000000 0.000000 
#    y 0.000000 1.781710 0.000000 
#    z 0.000000 0.000000 1.911340 
# 
# From -- ./inp_files/42357.got.cif
#   From: 2010.05.17/outbox.cif.g08.bks.cpg/sg52_22_cif.got.tgz:42357.got - 2010.06.03 12:15:38.
