data_PCOD9411731
_publ_section_title
;
Structure prediction by ZEFSAII (Michael W. Deem and Ramdas Pophale) SiO2 
 PCOD9411731
Probable space group: P N N A
;
_chemical_formula_sum "Si O2"
_cell_formula_units_Z 64
_cell_length_a 33.315273
_cell_length_b 8.964110
_cell_length_c 10.721955
_cell_angle_alpha 90.000000
_cell_angle_beta 90.000000
_cell_angle_gamma 90.000000
_cell_volume 3202.023639
_symmetry_space_group_name_H-M "P N N A"
_symmetry_group_IT_number 52
_symmetry_cell_setting 'orthorhombic'
loop_
_space_group_symop_operation_xyz
x,y,z
1/2-x,-y,z
x,1/2-y,1/2-z
1/2-x,1/2+y,1/2-z
-x,-y,-z
1/2+x,y,-z
-x,1/2+y,1/2+z
1/2+x,1/2-y,1/2+z
loop_
_atom_site_type_symbol
_atom_site_label
_atom_site_fract_x
_atom_site_fract_y
_atom_site_fract_z
Si Si1 0.473858 0.152448 0.378299
Si Si2 0.292163 0.432323 0.882314
Si Si3 0.373955 0.549614 0.485791
Si Si4 0.410703 0.910888 0.282377
Si Si5 0.960676 0.417531 0.439549
Si Si6 0.130955 0.386899 0.958239
Si Si7 0.945251 0.581408 0.194711
Si Si8 0.291729 0.083541 0.916463
O O1 0.477210 0.250000 0.250000
O O2 0.460717 0.255572 0.494511
O O3 0.519050 0.098752 0.404476
O O4 0.443785 0.026602 0.329413
O O5 0.250000 0.500000 0.919557
O O6 0.328151 0.529097 0.935201
O O7 0.290855 0.261897 0.925878
O O8 0.295950 0.443821 0.732152
O O9 0.383762 0.554419 0.338455
O O10 0.416446 0.483314 0.531477
O O11 0.368387 0.708265 0.555491
O O12 0.332341 0.467647 0.514916
O O13 0.429954 0.750000 0.250000
O O14 0.381638 0.900814 0.399102
O O15 0.961458 0.459158 0.293196
O O16 0.000000 0.500000 0.500000
O O17 0.096602 0.455732 0.869750
O O18 0.940116 0.750000 0.250000
O O19 0.250000 0.000000 0.955041
#
# Coordination Sequence:
#
# PCOD9411731 Si02
#       8
#     8   8   8   8   8   8   8   8
#     4  11  21  38  63  86 123 172 222 265 321 379
#     4  10  22  40  63  95 130 160 197 258 326 381
#     4  11  21  38  66  88 120 173 218 259 318 391
#     4  10  24  42  60  88 126 173 218 265 322 382
#     4  12  20  34  61  94 122 160 226 271 311 390
#     4  11  23  39  60  88 128 165 212 266 323 375
#     4  11  21  37  59  92 122 169 216 269 326 387
#     4  10  22  40  65  96 128 162 207 255 316 391
#
# _framework density 19.987361
#
# number of rings (size 3 to 8) (size 9 to 14) (size 15 to 20)
#    0.000    1.250    5.000    1.500    1.750    2.500 
#    0.000    0.625    0.000    0.000    0.000    0.000 
#    0.000    0.000    0.000    0.000    0.000    0.000 
#
# Total GULP energy -356977.021938 kJ/mol
# GULP energy per Si atom -5577.765968 kJ/mol
# Density = 1.994187 g / cm^3
# Si number density = 19.987361 Si / 1000 Ang^3
#
#
#
# Elastic Constant Matrix: (Units=GPa)
#
#
# Indices 1 2 3 4 5 6 
#
# 1 169.6561 80.4773 32.1550 0.0000 0.0000 0.0000
# 2 80.4773 95.9310 41.7915 0.0000 0.0000 0.0000
# 3 32.1550 41.7915 57.4395 0.0000 0.0000 0.0000
# 4 0.0000 0.0000 0.0000 31.6252 0.0000 0.0000
# 5 0.0000 0.0000 0.0000 0.0000 -8.4648 0.0000
# 6 0.0000 0.0000 0.0000 0.0000 0.0000 34.2397
#
#
#
# Elastic Compliance Matrix: (Units=1/GPa)
#
#
# Indices 1 2 3 4 5 6 
#
# 1 0.009811 -0.008547 0.000726 0.000000 0.000000 0.000000
# 2 -0.008547 0.022707 -0.011737 0.000000 0.000000 0.000000
# 3 0.000726 -0.011737 0.025542 0.000000 0.000000 0.000000
# 4 0.000000 0.000000 0.000000 0.031620 0.000000 0.000000
# 5 0.000000 0.000000 0.000000 0.000000 -0.118136 0.000000
# 6 0.000000 0.000000 0.000000 0.000000 0.000000 0.029206
#
#
# Mechanical properties :
#
#
# Convention : Reuss Voigt Hill
#
# Bulk Modulus (GPa) = 52.78149 70.20823 61.49486
# Shear Modulus (GPa) = 108.27334 22.72021 65.49678
#
# Velocity S-wave (km/s) = 7.36807 3.37520 5.73064
# Velocity P-wave (km/s) = 9.94231 7.09872 8.63832
#
# Compressibility (1/GPa) = 0.01894604
#
# Stress axis : x y z
#
# Youngs Moduli (GPa) = 101.92809 44.03920 39.15080
#
# Poissons Ratio (x) = 0.37639 -0.02843
# Poissons Ratio (y) = 0.87116 0.45949
# Poissons Ratio (z) = -0.07403 0.51687
#
# Static dielectric constant tensor:
#      x y z
#    x 1.691990 0.000000 0.000000 
#    y 0.000000 1.783620 0.000000 
#    z 0.000000 0.000000 1.698750 
# 
# From -- ./inp_files/23190.got.cif
#   From: 2010.05.17/outbox.cif.g08.bks.cpg/sg52_12_cif.got.tgz:23190.got - 2010.06.03 12:15:38.
