data_PCOD9411287
_publ_section_title
;
Structure prediction by ZEFSAII (Michael W. Deem and Ramdas Pophale) SiO2 
 PCOD9411287
Probable space group: P N N A
;
_chemical_formula_sum "Si O2"
_cell_formula_units_Z 40
_cell_length_a 9.755621
_cell_length_b 14.205144
_cell_length_c 13.944748
_cell_angle_alpha 90.000000
_cell_angle_beta 90.000000
_cell_angle_gamma 90.000000
_cell_volume 1932.463193
_symmetry_space_group_name_H-M "P N N A"
_symmetry_group_IT_number 52
_symmetry_cell_setting 'orthorhombic'
loop_
_space_group_symop_operation_xyz
x,y,z
1/2-x,-y,z
x,1/2-y,1/2-z
1/2-x,1/2+y,1/2-z
-x,-y,-z
1/2+x,y,-z
-x,1/2+y,1/2+z
1/2+x,1/2-y,1/2+z
loop_
_atom_site_type_symbol
_atom_site_label
_atom_site_fract_x
_atom_site_fract_y
_atom_site_fract_z
Si Si1 0.359796 0.414405 0.445577
Si Si2 0.968981 0.163735 0.314424
Si Si3 0.219689 0.777880 0.356360
Si Si4 0.874644 0.071297 0.501282
Si Si5 0.909711 0.021857 0.152763
O O1 0.250000 0.500000 0.435049
O O2 0.291416 0.316836 0.418035
O O3 0.491709 0.436387 0.379164
O O4 0.408019 0.415042 0.555963
O O5 0.914692 0.250000 0.250000
O O6 0.882032 0.136765 0.407210
O O7 0.972701 0.075272 0.242757
O O8 0.122380 0.189854 0.347491
O O9 0.172162 0.750000 0.250000
O O10 0.135780 0.860839 0.407005
O O11 0.750000 0.000000 0.499178
O O12 0.000000 0.000000 0.500000
O O13 0.750000 0.000000 0.172532
#
# Coordination Sequence:
#
# PCOD9411287 Si02
#       5
#     8   8   8   8   8
#     4  10  21  41  70 101 139 177 231 294 358 421
#     4  11  23  44  71  97 135 184 238 289 354 424
#     4  11  25  42  70 101 133 185 237 287 342 431
#     4  12  26  48  71 101 146 190 235 294 359 432
#     4  10  22  41  67  99 137 177 225 296 358 411
#
# _framework density 20.698969999999999
#
# number of rings (size 3 to 8) (size 9 to 14) (size 15 to 20)
#    0.000    1.200    2.000    4.200    2.800    4.000 
#    3.600    0.000    0.000    0.000    0.000    0.000 
#    0.000    0.000    0.000    0.000    0.000    0.000 
#
# Total GULP energy -223604.259367 kJ/mol
# GULP energy per Si atom -5590.106484 kJ/mol
# Density = 2.065186 g / cm^3
# Si number density = 20.698970 Si / 1000 Ang^3
#
#
#
# Elastic Constant Matrix: (Units=GPa)
#
#
# Indices 1 2 3 4 5 6 
#
# 1 110.0426 55.7676 27.1220 0.0000 0.0000 0.0000
# 2 55.7676 115.2505 64.3534 0.0000 0.0000 0.0000
# 3 27.1220 64.3534 109.9041 0.0000 0.0000 0.0000
# 4 0.0000 0.0000 0.0000 44.8273 0.0000 0.0000
# 5 0.0000 0.0000 0.0000 0.0000 25.4632 0.0000
# 6 0.0000 0.0000 0.0000 0.0000 0.0000 27.3291
#
#
#
# Elastic Compliance Matrix: (Units=1/GPa)
#
#
# Indices 1 2 3 4 5 6 
#
# 1 0.012072 -0.006207 0.000656 0.000000 0.000000 0.000000
# 2 -0.006207 0.016084 -0.007886 0.000000 0.000000 0.000000
# 3 0.000656 -0.007886 0.013555 0.000000 0.000000 0.000000
# 4 0.000000 0.000000 0.000000 0.022308 0.000000 0.000000
# 5 0.000000 0.000000 0.000000 0.000000 0.039272 0.000000
# 6 0.000000 0.000000 0.000000 0.000000 0.000000 0.036591
#
#
# Mechanical properties :
#
#
# Convention : Reuss Voigt Hill
#
# Bulk Modulus (GPa) = 67.40931 69.96480 68.68705
# Shear Modulus (GPa) = 29.12044 32.05420 30.58732
#
# Velocity S-wave (km/s) = 3.75488 3.93948 3.84829
# Velocity P-wave (km/s) = 7.17189 7.38696 7.28022
#
# Compressibility (1/GPa) = 0.01483475
#
# Stress axis : x y z
#
# Youngs Moduli (GPa) = 82.83950 62.17514 73.77620
#
# Poissons Ratio (x) = 0.38594 -0.04837
# Poissons Ratio (y) = 0.51421 0.58178
# Poissons Ratio (z) = -0.05431 0.49030
#
# Static dielectric constant tensor:
#      x y z
#    x 1.715420 0.000000 0.000000 
#    y 0.000000 1.736640 0.000000 
#    z 0.000000 0.000000 1.752690 
# 
# From -- ./inp_files/24443.got.cif
#   From: 2010.05.17/outbox.cif.g08.bks.cpg/sg52_13_cif.got.tgz:24443.got - 2010.06.03 12:15:38.
