data_PCOD9411604
_publ_section_title
;
Structure prediction by ZEFSAII (Michael W. Deem and Ramdas Pophale) SiO2 
 PCOD9411604
Probable space group: P N N A
;
_chemical_formula_sum "Si O2"
_cell_formula_units_Z 28
_cell_length_a 8.991468
_cell_length_b 7.908330
_cell_length_c 16.166437
_cell_angle_alpha 90.000000
_cell_angle_beta 90.000000
_cell_angle_gamma 90.000000
_cell_volume 1149.554856
_symmetry_space_group_name_H-M "P N N A"
_symmetry_group_IT_number 52
_symmetry_cell_setting 'orthorhombic'
loop_
_space_group_symop_operation_xyz
x,y,z
1/2-x,-y,z
x,1/2-y,1/2-z
1/2-x,1/2+y,1/2-z
-x,-y,-z
1/2+x,y,-z
-x,1/2+y,1/2+z
1/2+x,1/2-y,1/2+z
loop_
_atom_site_type_symbol
_atom_site_label
_atom_site_fract_x
_atom_site_fract_y
_atom_site_fract_z
Si Si1 0.750000 0.000000 0.251463
Si Si2 0.852277 0.749943 0.366003
Si Si3 0.073886 0.469845 0.089733
Si Si4 0.376957 0.881842 0.042711
O O1 0.723371 0.850364 0.317416
O O2 0.869193 0.920816 0.187352
O O3 0.810942 0.709951 0.459936
O O4 0.990426 0.879894 0.360812
O O5 0.250000 0.500000 0.091081
O O6 0.936301 0.733272 0.899252
O O7 0.000000 0.500000 0.000000
O O8 0.250000 0.000000 0.080460
O O9 0.500000 0.000000 0.000000
#
# Coordination Sequence:
#
# PCOD9411604 Si02
#       4
#     4   8   8   8
#     4  10  22  40  66  96 128 192 250 300 340 444
#     4  10  22  38  65  93 138 180 249 292 361 425
#     4  10  22  39  65 101 142 184 227 301 369 434
#     4  11  22  35  60  98 140 174 220 293 364 432
#
# _framework density 24.357256
#
# number of rings (size 3 to 8) (size 9 to 14) (size 15 to 20)
#    0.000    1.714    1.429    3.429   12.000    0.000 
#    0.000    0.000    0.000   27.429    0.000    0.000 
#    0.000    0.000    0.000    0.000    0.000    0.000 
#
# Total GULP energy -155923.261170 kJ/mol
# GULP energy per Si atom -5568.687899 kJ/mol
# Density = 2.430182 g / cm^3
# Si number density = 24.357256 Si / 1000 Ang^3
#
#
#
# Elastic Constant Matrix: (Units=GPa)
#
#
# Indices 1 2 3 4 5 6 
#
# 1 137.7084 84.1669 11.8681 0.0000 0.0000 0.0000
# 2 84.1669 172.9091 20.2143 0.0000 0.0000 0.0000
# 3 11.8681 20.2143 70.8169 0.0000 0.0000 0.0000
# 4 0.0000 0.0000 0.0000 61.5136 0.0000 0.0000
# 5 0.0000 0.0000 0.0000 0.0000 4.5769 0.0000
# 6 0.0000 0.0000 0.0000 0.0000 0.0000 62.4367
#
#
#
# Elastic Compliance Matrix: (Units=1/GPa)
#
#
# Indices 1 2 3 4 5 6 
#
# 1 0.010344 -0.004999 -0.000306 0.000000 0.000000 0.000000
# 2 -0.004999 0.008399 -0.001560 0.000000 0.000000 0.000000
# 3 -0.000306 -0.001560 0.014618 0.000000 0.000000 0.000000
# 4 0.000000 0.000000 0.000000 0.016257 0.000000 0.000000
# 5 0.000000 0.000000 0.000000 0.000000 0.218488 0.000000
# 6 0.000000 0.000000 0.000000 0.000000 0.000000 0.016016
#
#
# Mechanical properties :
#
#
# Convention : Reuss Voigt Hill
#
# Bulk Modulus (GPa) = 50.94343 68.21477 59.57910
# Shear Modulus (GPa) = 16.42605 43.38444 29.90524
#
# Velocity S-wave (km/s) = 2.59970 4.22497 3.50776
# Velocity P-wave (km/s) = 5.47465 7.20189 6.39683
#
# Compressibility (1/GPa) = 0.01962962
#
# Stress axis : x y z
#
# Youngs Moduli (GPa) = 96.67838 119.05980 68.41113
#
# Poissons Ratio (x) = 0.59519 0.02097
# Poissons Ratio (y) = 0.48331 0.10670
# Poissons Ratio (z) = 0.02963 0.18570
#
# Static dielectric constant tensor:
#      x y z
#    x 2.014420 0.000000 0.000000 
#    y 0.000000 2.269440 0.000000 
#    z 0.000000 0.000000 1.959740 
# 
# From -- ./inp_files/35392.got.cif
#   From: 2010.05.17/outbox.cif.g08.bks.cpg/sg52_18_cif.got.tgz:35392.got - 2010.06.03 12:15:38.
