data_PCOD9411294
_publ_section_title
;
Structure prediction by ZEFSAII (Michael W. Deem and Ramdas Pophale) SiO2 
 PCOD9411294
Probable space group: P N N A
;
_chemical_formula_sum "Si O2"
_cell_formula_units_Z 40
_cell_length_a 20.280479
_cell_length_b 10.326917
_cell_length_c 8.566449
_cell_angle_alpha 90.000000
_cell_angle_beta 90.000000
_cell_angle_gamma 90.000000
_cell_volume 1794.112733
_symmetry_space_group_name_H-M "P N N A"
_symmetry_group_IT_number 52
_symmetry_cell_setting 'orthorhombic'
loop_
_space_group_symop_operation_xyz
x,y,z
1/2-x,-y,z
x,1/2-y,1/2-z
1/2-x,1/2+y,1/2-z
-x,-y,-z
1/2+x,y,-z
-x,1/2+y,1/2+z
1/2+x,1/2-y,1/2+z
loop_
_atom_site_type_symbol
_atom_site_label
_atom_site_fract_x
_atom_site_fract_y
_atom_site_fract_z
Si Si1 0.646517 0.255008 0.933872
Si Si2 0.084159 0.706646 0.573455
Si Si3 0.268249 0.353474 0.610844
Si Si4 0.925814 0.006349 0.435582
Si Si5 0.536241 0.372221 0.367631
O O1 0.638776 0.250000 0.750000
O O2 0.718354 0.204079 0.982854
O O3 0.623218 0.395183 0.001268
O O4 0.594407 0.159567 0.014045
O O5 0.061963 0.750000 0.750000
O O6 0.155346 0.642740 0.566906
O O7 0.030402 0.631048 0.469935
O O8 0.097532 0.853071 0.510887
O O9 0.250000 0.500000 0.656589
O O10 0.262142 0.250000 0.750000
O O11 0.938380 0.982757 0.250358
O O12 0.000000 0.000000 0.500000
O O13 0.529181 0.250000 0.250000
#
# Coordination Sequence:
#
# PCOD9411294 Si02
#       5
#     8   8   8   8   8
#     4  11  25  46  71 103 143 189 238 299 363 430
#     4  11  25  43  70 109 141 191 241 297 366 438
#     4  11  28  50  72 106 143 195 245 294 369 439
#     4  11  23  43  71 109 142 186 239 295 371 429
#     4  10  21  41  71 104 142 184 232 301 355 430
#
# _framework density 22.295144000000001
#
# number of rings (size 3 to 8) (size 9 to 14) (size 15 to 20)
#    0.000    1.200    4.000    2.400   11.200    3.200 
#    3.600    0.000    0.000    0.000    0.000    0.000 
#    0.000    0.000    0.000    0.000    0.000    0.000 
#
# Total GULP energy -223500.333142 kJ/mol
# GULP energy per Si atom -5587.508329 kJ/mol
# Density = 2.224440 g / cm^3
# Si number density = 22.295144 Si / 1000 Ang^3
#
#
#
# Elastic Constant Matrix: (Units=GPa)
#
#
# Indices 1 2 3 4 5 6 
#
# 1 139.2368 64.8766 83.2601 0.0000 0.0000 0.0000
# 2 64.8766 153.1393 12.3521 0.0000 0.0000 0.0000
# 3 83.2601 12.3521 147.5999 0.0000 0.0000 0.0000
# 4 0.0000 0.0000 0.0000 20.7605 0.0000 0.0000
# 5 0.0000 0.0000 0.0000 0.0000 25.3913 0.0000
# 6 0.0000 0.0000 0.0000 0.0000 0.0000 41.7748
#
#
#
# Elastic Compliance Matrix: (Units=1/GPa)
#
#
# Indices 1 2 3 4 5 6 
#
# 1 0.014240 -0.005421 -0.007579 0.000000 0.000000 0.000000
# 2 -0.005421 0.008638 0.002335 0.000000 0.000000 0.000000
# 3 -0.007579 0.002335 0.010855 0.000000 0.000000 0.000000
# 4 0.000000 0.000000 0.000000 0.048168 0.000000 0.000000
# 5 0.000000 0.000000 0.000000 0.000000 0.039384 0.000000
# 6 0.000000 0.000000 0.000000 0.000000 0.000000 0.023938
#
#
# Mechanical properties :
#
#
# Convention : Reuss Voigt Hill
#
# Bulk Modulus (GPa) = 80.62541 84.55040 82.58791
# Shear Modulus (GPa) = 29.29317 36.21781 32.75549
#
# Velocity S-wave (km/s) = 3.62868 4.03484 3.83714
# Velocity P-wave (km/s) = 7.33469 7.72737 7.53359
#
# Compressibility (1/GPa) = 0.01240304
#
# Stress axis : x y z
#
# Youngs Moduli (GPa) = 70.22352 115.76197 92.12370
#
# Poissons Ratio (x) = 0.62760 0.69822
# Poissons Ratio (y) = 0.38071 -0.21514
# Poissons Ratio (z) = 0.53223 -0.27034
#
# Static dielectric constant tensor:
#      x y z
#    x 1.817620 0.000000 0.000000 
#    y 0.000000 2.363820 0.000000 
#    z 0.000000 0.000000 1.854820 
# 
# From -- ./inp_files/13168.got.cif
#   From: 2010.05.17/outbox.cif.g08.bks.cpg/sg52_7_cif.got.tgz:13168.got - 2010.06.03 12:15:38.
