data_PCOD9411441
_publ_section_title
;
Structure prediction by ZEFSAII (Michael W. Deem and Ramdas Pophale) SiO2 
 PCOD9411441
Probable space group: P N N A
;
_chemical_formula_sum "Si O2"
_cell_formula_units_Z 60
_cell_length_a 27.955981
_cell_length_b 8.551243
_cell_length_c 11.575931
_cell_angle_alpha 90.000000
_cell_angle_beta 90.000000
_cell_angle_gamma 90.000000
_cell_volume 2767.323391
_symmetry_space_group_name_H-M "P N N A"
_symmetry_group_IT_number 52
_symmetry_cell_setting 'orthorhombic'
loop_
_space_group_symop_operation_xyz
x,y,z
1/2-x,-y,z
x,1/2-y,1/2-z
1/2-x,1/2+y,1/2-z
-x,-y,-z
1/2+x,y,-z
-x,1/2+y,1/2+z
1/2+x,1/2-y,1/2+z
loop_
_atom_site_type_symbol
_atom_site_label
_atom_site_fract_x
_atom_site_fract_y
_atom_site_fract_z
Si Si1 0.472791 0.527319 0.352520
Si Si2 0.852468 0.058219 0.048408
Si Si3 0.082324 0.224716 0.965366
Si Si4 0.358434 0.250000 0.750000
Si Si5 0.438607 0.230148 0.462437
Si Si6 0.197695 0.572876 0.300646
Si Si7 0.943863 0.029847 0.328590
Si Si8 0.109160 0.449266 0.168858
O O1 0.459139 0.622452 0.469262
O O2 0.466982 0.343866 0.378440
O O3 0.521723 0.548931 0.281755
O O4 0.430575 0.577001 0.266182
O O5 0.829501 0.157278 0.152248
O O6 0.900410 0.156189 0.021048
O O7 0.821195 0.061834 0.932713
O O8 0.875908 0.890810 0.079499
O O9 0.106398 0.324052 0.068070
O O10 0.063685 0.352899 0.873351
O O11 0.393804 0.114962 0.699729
O O12 0.464445 0.128894 0.561955
O O13 0.407877 0.110103 0.388622
O O14 0.250000 0.500000 0.292251
O O15 0.196648 0.750000 0.250000
O O16 0.160162 0.471764 0.226407
#
# Coordination Sequence:
#
# PCOD9411441 Si02
#       8
#     8   8   8   4   8   8   8   8
#     4  11  21  39  62  87 130 173 236 282 338 397
#     4  10  21  45  69  95 134 183 227 272 351 403
#     4  10  23  39  67  94 131 180 234 289 339 410
#     4  10  24  48  68  86 132 194 236 282 336 410
#     4   9  19  41  63  83 127 191 220 273 341 412
#     4  12  25  41  74 113 145 170 218 280 352 432
#     4  10  24  43  59  95 132 176 251 293 331 391
#     4  11  20  40  63  93 137 182 213 262 364 414
#
# _framework density 21.681598999999999
#
# number of rings (size 3 to 8) (size 9 to 14) (size 15 to 20)
#    0.000    1.600    4.000    0.800    3.733    2.667 
#    9.600    6.000    0.000    2.400    0.000    0.000 
#    0.000    0.000    0.000    0.000    0.000    0.000 
#
# Total GULP energy -335490.280165 kJ/mol
# GULP energy per Si atom -5591.504669 kJ/mol
# Density = 2.163225 g / cm^3
# Si number density = 21.681599 Si / 1000 Ang^3
#
#
#
# Elastic Constant Matrix: (Units=GPa)
#
#
# Indices 1 2 3 4 5 6 
#
# 1 66.1445 21.4795 41.0863 0.0000 0.0000 0.0000
# 2 21.4795 126.3053 46.3126 0.0000 0.0000 0.0000
# 3 41.0863 46.3126 104.5763 0.0000 0.0000 0.0000
# 4 0.0000 0.0000 0.0000 50.1149 0.0000 0.0000
# 5 0.0000 0.0000 0.0000 0.0000 11.6064 0.0000
# 6 0.0000 0.0000 0.0000 0.0000 0.0000 13.4529
#
#
#
# Elastic Compliance Matrix: (Units=1/GPa)
#
#
# Indices 1 2 3 4 5 6 
#
# 1 0.020040 -0.000622 -0.007598 0.000000 0.000000 0.000000
# 2 -0.000622 0.009472 -0.003950 0.000000 0.000000 0.000000
# 3 -0.007598 -0.003950 0.014297 0.000000 0.000000 0.000000
# 4 0.000000 0.000000 0.000000 0.019954 0.000000 0.000000
# 5 0.000000 0.000000 0.000000 0.000000 0.086159 0.000000
# 6 0.000000 0.000000 0.000000 0.000000 0.000000 0.074333
#
#
# Mechanical properties :
#
#
# Convention : Reuss Voigt Hill
#
# Bulk Modulus (GPa) = 51.36606 57.19809 54.28207
# Shear Modulus (GPa) = 19.60134 27.57802 23.58968
#
# Velocity S-wave (km/s) = 3.01001 3.57032 3.30207
# Velocity P-wave (km/s) = 5.98521 6.59048 6.29512
#
# Compressibility (1/GPa) = 0.01946811
#
# Stress axis : x y z
#
# Youngs Moduli (GPa) = 49.90040 105.57960 69.94557
#
# Poissons Ratio (x) = 0.06568 0.53144
# Poissons Ratio (y) = 0.03104 0.27630
# Poissons Ratio (z) = 0.37914 0.41706
#
# Static dielectric constant tensor:
#      x y z
#    x 1.756170 0.000000 0.000000 
#    y 0.000000 1.885960 0.000000 
#    z 0.000000 0.000000 1.910660 
# 
# From -- ./inp_files/22882.got.cif
#   From: 2010.05.17/outbox.cif.g08.bks.cpg/sg52_12_cif.got.tgz:22882.got - 2010.06.03 12:15:38.
