data_PCOD9411340
_publ_section_title
;
Structure prediction by ZEFSAII (Michael W. Deem and Ramdas Pophale) SiO2 
 PCOD9411340
Probable space group: P N N A
;
_chemical_formula_sum "Si O2"
_cell_formula_units_Z 64
_cell_length_a 9.345375
_cell_length_b 24.006219
_cell_length_c 14.175216
_cell_angle_alpha 90.000000
_cell_angle_beta 90.000000
_cell_angle_gamma 90.000000
_cell_volume 3180.168869
_symmetry_space_group_name_H-M "P N N A"
_symmetry_group_IT_number 52
_symmetry_cell_setting 'orthorhombic'
loop_
_space_group_symop_operation_xyz
x,y,z
1/2-x,-y,z
x,1/2-y,1/2-z
1/2-x,1/2+y,1/2-z
-x,-y,-z
1/2+x,y,-z
-x,1/2+y,1/2+z
1/2+x,1/2-y,1/2+z
loop_
_atom_site_type_symbol
_atom_site_label
_atom_site_fract_x
_atom_site_fract_y
_atom_site_fract_z
Si Si1 0.767966 0.860604 0.439666
Si Si2 0.444820 0.620612 0.121710
Si Si3 0.457244 0.045934 0.771670
Si Si4 0.468326 0.157429 0.133474
Si Si5 0.207847 0.237313 0.859867
Si Si6 0.822413 0.690105 0.714193
Si Si7 0.372471 0.575119 0.764445
Si Si8 0.049205 0.851973 0.915798
O O1 0.601970 0.876164 0.423981
O O2 0.824664 0.873094 0.543558
O O3 0.774736 0.794976 0.415722
O O4 0.869499 0.896214 0.367810
O O5 0.441885 0.565994 0.186688
O O6 0.422169 0.667348 0.201749
O O7 0.292947 0.059258 0.746741
O O8 0.474687 0.088746 0.860411
O O9 0.462292 0.979169 0.767929
O O10 0.543756 0.217615 0.128664
O O11 0.320961 0.156738 0.190697
O O12 0.580733 0.121546 0.191427
O O13 0.449002 0.137317 0.026814
O O14 0.237708 0.250000 0.750000
O O15 0.313330 0.187041 0.891992
O O16 0.777466 0.750000 0.750000
O O17 0.916989 0.686131 0.619728
#
# Coordination Sequence:
#
# PCOD9411340 Si02
#       8
#     8   8   8   8   8   8   8   8
#     4  11  24  39  66  97 131 173 221 266 329 401
#     4  10  24  42  64  97 130 174 218 269 330 391
#     4   9  20  45  69  87 127 172 221 274 330 384
#     4  12  25  38  64 101 128 164 221 268 324 393
#     4  12  22  40  63  92 130 173 211 262 322 393
#     4  11  25  41  59  93 139 172 206 267 327 387
#     4  10  21  42  67  92 125 171 219 278 322 387
#     4  11  23  42  64  93 128 174 217 264 331 393
#
# _framework density 20.124717
#
# number of rings (size 3 to 8) (size 9 to 14) (size 15 to 20)
#    0.000    1.250    2.500    3.750    7.000    1.000 
#    0.000    2.500    0.000    0.000    0.000    0.000 
#    0.000    0.000    0.000    0.000    0.000    0.000 
#
# Total GULP energy -356674.606670 kJ/mol
# GULP energy per Si atom -5573.040729 kJ/mol
# Density = 2.007891 g / cm^3
# Si number density = 20.124717 Si / 1000 Ang^3
#
#
#
# Elastic Constant Matrix: (Units=GPa)
#
#
# Indices 1 2 3 4 5 6 
#
# 1 50.3721 -5.0801 10.4191 0.0000 0.0000 0.0000
# 2 -5.0801 25.9890 -9.8658 0.0000 0.0000 0.0000
# 3 10.4191 -9.8658 84.9317 0.0000 0.0000 0.0000
# 4 0.0000 0.0000 0.0000 -0.0606 0.0000 0.0000
# 5 0.0000 0.0000 0.0000 0.0000 65.1750 0.0000
# 6 0.0000 0.0000 0.0000 0.0000 0.0000 11.7288
#
#
#
# Elastic Compliance Matrix: (Units=1/GPa)
#
#
# Indices 1 2 3 4 5 6 
#
# 1 0.020622 0.003212 -0.002157 0.000000 0.000000 0.000000
# 2 0.003212 0.040753 0.004340 0.000000 0.000000 0.000000
# 3 -0.002157 0.004340 0.012543 0.000000 0.000000 0.000000
# 4 0.000000 0.000000 0.000000-16.511766 0.000000 0.000000
# 5 0.000000 0.000000 0.000000 0.000000 0.015343 0.000000
# 6 0.000000 0.000000 0.000000 0.000000 0.000000 0.085260
#
#
# Mechanical properties :
#
#
# Convention : Reuss Voigt Hill
#
# Bulk Modulus (GPa) = 11.80505 16.91545 14.36025
# Shear Modulus (GPa) = -0.30638 26.42332 13.05847
#
# Velocity S-wave (km/s) = -0.39060 3.62744 2.55007
# Velocity P-wave (km/s) = 2.38228 5.09587 3.97764
#
# Compressibility (1/GPa) = 0.08470952
#
# Stress axis : x y z
#
# Youngs Moduli (GPa) = 48.49117 24.53795 79.72652
#
# Poissons Ratio (x) = -0.07883 0.17195
# Poissons Ratio (y) = -0.15577 -0.34600
# Poissons Ratio (z) = 0.10458 -0.10649
#
# Static dielectric constant tensor:
#      x y z
#    x 1.728860 0.000000 0.000000 
#    y 0.000000 1.379260 0.000000 
#    z 0.000000 0.000000 1.689590 
# 
# From -- ./inp_files/25121.got.cif
#   From: 2010.05.17/outbox.cif.g08.bks.cpg/sg52_13_cif.got.tgz:25121.got - 2010.06.03 12:15:38.
