data_PCOD9411830
_publ_section_title
;
Structure prediction by ZEFSAII (Michael W. Deem and Ramdas Pophale) SiO2 
 PCOD9411830
Probable space group: P N N A
;
_chemical_formula_sum "Si O2"
_cell_formula_units_Z 56
_cell_length_a 21.284533
_cell_length_b 14.016249
_cell_length_c 9.327572
_cell_angle_alpha 90.000000
_cell_angle_beta 90.000000
_cell_angle_gamma 90.000000
_cell_volume 2782.688160
_symmetry_space_group_name_H-M "P N N A"
_symmetry_group_IT_number 52
_symmetry_cell_setting 'orthorhombic'
loop_
_space_group_symop_operation_xyz
x,y,z
1/2-x,-y,z
x,1/2-y,1/2-z
1/2-x,1/2+y,1/2-z
-x,-y,-z
1/2+x,y,-z
-x,1/2+y,1/2+z
1/2+x,1/2-y,1/2+z
loop_
_atom_site_type_symbol
_atom_site_label
_atom_site_fract_x
_atom_site_fract_y
_atom_site_fract_z
Si Si1 0.396517 0.005039 0.224535
Si Si2 0.119292 0.353296 0.522663
Si Si3 0.190826 0.432499 0.798642
Si Si4 0.004612 0.348387 0.723569
Si Si5 0.782895 0.711492 0.949077
Si Si6 0.568765 0.450219 0.030755
Si Si7 0.272003 0.393794 0.322120
O O1 0.460730 0.061856 0.201805
O O2 0.342366 0.085020 0.229201
O O3 0.402890 0.946845 0.372051
O O4 0.383387 0.935622 0.094038
O O5 0.164093 0.384710 0.654534
O O6 0.051472 0.340110 0.591295
O O7 0.148889 0.260726 0.449170
O O8 0.250000 0.500000 0.769210
O O9 0.216282 0.351550 0.907956
O O10 0.130323 0.484918 0.875694
O O11 0.968619 0.250000 0.750000
O O12 0.046558 0.365253 0.866014
O O13 0.767017 0.642569 0.816219
O O14 0.737451 0.805254 0.931589
O O15 0.500000 0.500000 0.000000
O O16 0.250000 0.500000 0.370073
#
# Coordination Sequence:
#
# PCOD9411830 Si02
#       7
#     8   8   8   8   8   8   8
#     4  11  22  40  67  91 130 171 215 280 332 390
#     4  11  23  41  64  94 128 172 224 264 324 394
#     4  11  23  40  64  93 132 178 214 271 337 401
#     4  10  22  41  63  95 128 170 220 267 334 398
#     4  11  23  38  63  92 128 168 219 264 320 401
#     4   9  20  40  66  91 124 169 222 266 331 398
#     4  11  23  39  62  99 128 159 220 275 336 385
#
# _framework density 20.124424000000001
#
# number of rings (size 3 to 8) (size 9 to 14) (size 15 to 20)
#    0.000    1.429    1.429    4.714    6.000    0.000 
#    0.000    0.000    0.000    0.000    0.000    0.000 
#    0.000    0.000    0.000    0.000    0.000    0.000 
#
# Total GULP energy -311949.654780 kJ/mol
# GULP energy per Si atom -5570.529550 kJ/mol
# Density = 2.007862 g / cm^3
# Si number density = 20.124424 Si / 1000 Ang^3
#
#
#
# Elastic Constant Matrix: (Units=GPa)
#
#
# Indices 1 2 3 4 5 6 
#
# 1 101.4297 23.5709 24.5721 0.0000 0.0000 0.0000
# 2 23.5709 66.2861 11.8424 0.0000 0.0000 0.0000
# 3 24.5721 11.8424 92.6799 0.0000 0.0000 0.0000
# 4 0.0000 0.0000 0.0000 20.0593 0.0000 0.0000
# 5 0.0000 0.0000 0.0000 0.0000 21.9708 0.0000
# 6 0.0000 0.0000 0.0000 0.0000 0.0000 36.7277
#
#
#
# Elastic Compliance Matrix: (Units=1/GPa)
#
#
# Indices 1 2 3 4 5 6 
#
# 1 0.011303 -0.003565 -0.002541 0.000000 0.000000 0.000000
# 2 -0.003565 0.016563 -0.001171 0.000000 0.000000 0.000000
# 3 -0.002541 -0.001171 0.011613 0.000000 0.000000 0.000000
# 4 0.000000 0.000000 0.000000 0.049852 0.000000 0.000000
# 5 0.000000 0.000000 0.000000 0.000000 0.045515 0.000000
# 6 0.000000 0.000000 0.000000 0.000000 0.000000 0.027227
#
#
# Mechanical properties :
#
#
# Convention : Reuss Voigt Hill
#
# Bulk Modulus (GPa) = 40.12163 42.26292 41.19227
# Shear Modulus (GPa) = 27.03613 29.11224 28.07418
#
# Velocity S-wave (km/s) = 3.66928 3.80756 3.73906
# Velocity P-wave (km/s) = 6.15886 6.35425 6.25732
#
# Compressibility (1/GPa) = 0.02492421
#
# Stress axis : x y z
#
# Youngs Moduli (GPa) = 88.47042 60.37494 86.10871
#
# Poissons Ratio (x) = 0.21526 0.21882
# Poissons Ratio (y) = 0.31543 0.10084
# Poissons Ratio (z) = 0.22482 0.07071
#
# Static dielectric constant tensor:
#      x y z
#    x 1.778670 0.000000 0.000000 
#    y 0.000000 1.737690 0.000000 
#    z 0.000000 0.000000 1.713320 
# 
# From -- ./inp_files/13468.got.cif
#   From: 2010.05.17/outbox.cif.g08.bks.cpg/sg52_7_cif.got.tgz:13468.got - 2010.06.03 12:15:38.
