data_PCOD9411763
_publ_section_title
;
Structure prediction by ZEFSAII (Michael W. Deem and Ramdas Pophale) SiO2 
 PCOD9411763
Probable space group: P N N A
;
_chemical_formula_sum "Si O2"
_cell_formula_units_Z 44
_cell_length_a 13.163372
_cell_length_b 17.378485
_cell_length_c 8.480869
_cell_angle_alpha 90.000000
_cell_angle_beta 90.000000
_cell_angle_gamma 90.000000
_cell_volume 1940.079037
_symmetry_space_group_name_H-M "P N N A"
_symmetry_group_IT_number 52
_symmetry_cell_setting 'orthorhombic'
loop_
_space_group_symop_operation_xyz
x,y,z
1/2-x,-y,z
x,1/2-y,1/2-z
1/2-x,1/2+y,1/2-z
-x,-y,-z
1/2+x,y,-z
-x,1/2+y,1/2+z
1/2+x,1/2-y,1/2+z
loop_
_atom_site_type_symbol
_atom_site_label
_atom_site_fract_x
_atom_site_fract_y
_atom_site_fract_z
Si Si1 0.552783 0.333211 0.238281
Si Si2 0.979180 0.994431 0.187067
Si Si3 0.726229 0.250000 0.750000
Si Si4 0.566103 0.361201 0.882266
Si Si5 0.250000 0.000000 0.895752
Si Si6 0.092400 0.750000 0.750000
Si Si7 0.747044 0.666201 0.451953
O O1 0.501085 0.250000 0.250000
O O2 0.485452 0.407602 0.275011
O O3 0.643634 0.323923 0.366905
O O4 0.595309 0.357189 0.065998
O O5 0.855446 0.996210 0.202128
O O6 0.028452 0.059818 0.298983
O O7 0.000000 0.000000 0.000000
O O8 0.656679 0.324753 0.781890
O O9 0.776555 0.273333 0.587916
O O10 0.478697 0.296276 0.869137
O O11 0.243167 0.922774 0.997158
O O12 0.162473 0.684721 0.676388
#
# Coordination Sequence:
#
# PCOD9411763 Si02
#       7
#     8   8   4   8   4   4   8
#     4  11  22  40  69  91 128 171 224 276 343 405
#     4  11  24  42  68  96 136 179 230 281 347 418
#     4  11  22  40  70  93 130 176 224 273 342 402
#     4  11  22  40  64  97 127 175 222 276 338 410
#     4  10  22  40  66  94 134 180 222 282 346 410
#     4  11  22  38  62  93 134 164 218 271 328 404
#     4  11  21  43  64  95 129 178 218 280 340 406
#
# _framework density 22.679489
#
# number of rings (size 3 to 8) (size 9 to 14) (size 15 to 20)
#    0.000    1.091    4.545    2.727    2.545    0.000 
#    4.909    0.000    0.000    0.000    0.000    0.000 
#    0.000    0.000    0.000    0.000    0.000    0.000 
#
# Total GULP energy -245476.035037 kJ/mol
# GULP energy per Si atom -5579.000796 kJ/mol
# Density = 2.262787 g / cm^3
# Si number density = 22.679489 Si / 1000 Ang^3
#
#
#
# Elastic Constant Matrix: (Units=GPa)
#
#
# Indices 1 2 3 4 5 6 
#
# 1 35.0670 10.0482 0.5747 0.0000 0.0000 0.0000
# 2 10.0482 176.3437 30.5934 0.0000 0.0000 0.0000
# 3 0.5747 30.5934 90.9350 0.0000 0.0000 0.0000
# 4 0.0000 0.0000 0.0000 43.5200 0.0000 0.0000
# 5 0.0000 0.0000 0.0000 0.0000 15.7642 0.0000
# 6 0.0000 0.0000 0.0000 0.0000 0.0000 3.7481
#
#
#
# Elastic Compliance Matrix: (Units=1/GPa)
#
#
# Indices 1 2 3 4 5 6 
#
# 1 0.029004 -0.001721 0.000396 0.000000 0.000000 0.000000
# 2 -0.001721 0.006124 -0.002050 0.000000 0.000000 0.000000
# 3 0.000396 -0.002050 0.011684 0.000000 0.000000 0.000000
# 4 0.000000 0.000000 0.000000 0.022978 0.000000 0.000000
# 5 0.000000 0.000000 0.000000 0.000000 0.063435 0.000000
# 6 0.000000 0.000000 0.000000 0.000000 0.000000 0.266801
#
#
# Mechanical properties :
#
#
# Convention : Reuss Voigt Hill
#
# Bulk Modulus (GPa) = 24.96148 42.75315 33.85731
# Shear Modulus (GPa) = 11.90109 30.01510 20.95810
#
# Velocity S-wave (km/s) = 2.29323 3.64187 3.04320
# Velocity P-wave (km/s) = 4.24758 6.04783 5.22581
#
# Compressibility (1/GPa) = 0.04006173
#
# Stress axis : x y z
#
# Youngs Moduli (GPa) = 34.47851 163.28137 85.58789
#
# Poissons Ratio (x) = 0.28106 -0.03388
# Poissons Ratio (y) = 0.05935 0.17542
# Poissons Ratio (z) = -0.01365 0.33466
#
# Static dielectric constant tensor:
#      x y z
#    x 1.861920 0.000000 0.000000 
#    y 0.000000 2.277940 0.000000 
#    z 0.000000 0.000000 1.915870 
# 
# From -- ./inp_files/10408.got.cif
#   From: 2010.05.17/outbox.cif.g08.bks.cpg/sg52_6_cif.got.tgz:10408.got - 2010.06.03 12:15:38.
