data_PCOD9411329
_publ_section_title
;
Structure prediction by ZEFSAII (Michael W. Deem and Ramdas Pophale) SiO2 
 PCOD9411329
Probable space group: P N N A
;
_chemical_formula_sum "Si O2"
_cell_formula_units_Z 40
_cell_length_a 9.845620
_cell_length_b 8.370626
_cell_length_c 21.489542
_cell_angle_alpha 90.000000
_cell_angle_beta 90.000000
_cell_angle_gamma 90.000000
_cell_volume 1771.039174
_symmetry_space_group_name_H-M "P N N A"
_symmetry_group_IT_number 52
_symmetry_cell_setting 'orthorhombic'
loop_
_space_group_symop_operation_xyz
x,y,z
1/2-x,-y,z
x,1/2-y,1/2-z
1/2-x,1/2+y,1/2-z
-x,-y,-z
1/2+x,y,-z
-x,1/2+y,1/2+z
1/2+x,1/2-y,1/2+z
loop_
_atom_site_type_symbol
_atom_site_label
_atom_site_fract_x
_atom_site_fract_y
_atom_site_fract_z
Si Si1 0.681513 0.844133 0.489403
Si Si2 0.609548 0.529792 0.669457
Si Si3 0.113948 0.599179 0.129735
Si Si4 0.435476 0.857286 0.040712
Si Si5 0.399921 0.563199 0.769650
O O1 0.612171 0.897964 0.554834
O O2 0.560713 0.764080 0.451638
O O3 0.804514 0.722957 0.507732
O O4 0.750000 0.000000 0.460366
O O5 0.750000 0.500000 0.704905
O O6 0.614642 0.715615 0.650468
O O7 0.607404 0.426573 0.606913
O O8 0.483541 0.487670 0.712530
O O9 0.250000 0.500000 0.145191
O O10 0.986389 0.534382 0.167931
O O11 0.500000 0.000000 0.000000
O O12 0.250000 0.500000 0.775538
O O13 0.395701 0.750000 0.750000
#
# Coordination Sequence:
#
# PCOD9411329 Si02
#       5
#     8   8   8   8   8
#     4  11  24  43  67 100 138 182 228 282 341 408
#     4  11  21  41  67  98 128 177 227 275 333 410
#     4  10  21  42  66  94 132 177 224 274 338 409
#     4  12  22  42  69  99 137 180 232 280 336 405
#     4  10  24  43  66  98 135 169 223 286 347 403
#
# _framework density 22.585609999999999
#
# number of rings (size 3 to 8) (size 9 to 14) (size 15 to 20)
#    0.000    1.200    4.000    1.800    0.000    3.200 
#    0.000    1.000    0.000    0.000    0.000    0.000 
#    0.000    0.000    0.000    0.000    0.000    0.000 
#
# Total GULP energy -223850.288204 kJ/mol
# GULP energy per Si atom -5596.257205 kJ/mol
# Density = 2.253420 g / cm^3
# Si number density = 22.585610 Si / 1000 Ang^3
#
#
#
# Elastic Constant Matrix: (Units=GPa)
#
#
# Indices 1 2 3 4 5 6 
#
# 1 195.9781 53.5091 55.5835 0.0000 0.0000 0.0000
# 2 53.5091 74.4378 27.5832 0.0000 0.0000 0.0000
# 3 55.5835 27.5832 63.1009 0.0000 0.0000 0.0000
# 4 0.0000 0.0000 0.0000 -104.3311 0.0000 0.0000
# 5 0.0000 0.0000 0.0000 0.0000 -14.3661 0.0000
# 6 0.0000 0.0000 0.0000 0.0000 0.0000 52.1646
#
#
#
# Elastic Compliance Matrix: (Units=1/GPa)
#
#
# Indices 1 2 3 4 5 6 
#
# 1 0.007500 -0.003512 -0.005071 0.000000 0.000000 0.000000
# 2 -0.003512 0.017675 -0.004633 0.000000 0.000000 0.000000
# 3 -0.005071 -0.004633 0.022340 0.000000 0.000000 0.000000
# 4 0.000000 0.000000 0.000000 -0.009585 0.000000 0.000000
# 5 0.000000 0.000000 0.000000 0.000000 -0.069608 0.000000
# 6 0.000000 0.000000 0.000000 0.000000 0.000000 0.019170
#
#
# Mechanical properties :
#
#
# Convention : Reuss Voigt Hill
#
# Bulk Modulus (GPa) = 47.43146 67.42978 57.43062
# Shear Modulus (GPa) = 238.64937 -0.18379 119.23279
#
# Velocity S-wave (km/s) = 10.29047 -0.28557 7.27366
# Velocity P-wave (km/s) = 12.73727 5.45997 9.79922
#
# Compressibility (1/GPa) = 0.02108305
#
# Stress axis : x y z
#
# Youngs Moduli (GPa) = 133.33683 56.57600 44.76338
#
# Poissons Ratio (x) = 0.19870 0.22700
# Poissons Ratio (y) = 0.46829 0.20738
# Poissons Ratio (z) = 0.67616 0.26210
#
# Static dielectric constant tensor:
#      x y z
#    x 1.806340 0.000000 0.000000 
#    y 0.000000 2.211860 0.000000 
#    z 0.000000 0.000000 1.799260 
# 
# From -- ./inp_files/39159.got.cif
#   From: 2010.05.17/outbox.cif.g08.bks.cpg/sg52_20_cif.got.tgz:39159.got - 2010.06.03 12:15:38.
