data_PCOD9411031
_publ_section_title
;
Structure prediction by ZEFSAII (Michael W. Deem and Ramdas Pophale) SiO2 
 PCOD9411031
Probable space group: P N N A
;
_chemical_formula_sum "Si O2"
_cell_formula_units_Z 36
_cell_length_a 25.904630
_cell_length_b 11.801682
_cell_length_c 5.036704
_cell_angle_alpha 90.000000
_cell_angle_beta 90.000000
_cell_angle_gamma 90.000000
_cell_volume 1539.812109
_symmetry_space_group_name_H-M "P N N A"
_symmetry_group_IT_number 52
_symmetry_cell_setting 'orthorhombic'
loop_
_space_group_symop_operation_xyz
x,y,z
1/2-x,-y,z
x,1/2-y,1/2-z
1/2-x,1/2+y,1/2-z
-x,-y,-z
1/2+x,y,-z
-x,1/2+y,1/2+z
1/2+x,1/2-y,1/2+z
loop_
_atom_site_type_symbol
_atom_site_label
_atom_site_fract_x
_atom_site_fract_y
_atom_site_fract_z
Si Si1 0.747762 0.250000 0.250000
Si Si2 0.015785 0.134276 0.680361
Si Si3 0.833581 0.063780 0.119670
Si Si4 0.445918 0.402416 0.690461
Si Si5 0.197389 0.069495 0.377185
O O1 0.785448 0.153083 0.122144
O O2 0.713897 0.188485 0.481245
O O3 0.043747 0.250000 0.750000
O O4 0.981604 0.153062 0.417783
O O5 0.975794 0.104545 0.913794
O O6 0.054061 0.029601 0.687219
O O7 0.887655 0.130260 0.120735
O O8 0.831643 0.999573 0.396616
O O9 0.830880 0.964113 0.897478
O O10 0.250000 0.000000 0.342614
#
# Coordination Sequence:
#
# PCOD9411031 Si02
#       5
#     4   8   8   8   8
#     4  10  24  42  70  94 130 186 222 276 352 388
#     4  10  21  39  66  89 137 168 205 263 341 388
#     4  11  23  40  65  97 129 165 229 274 315 410
#     4  10  22  40  62 100 126 168 215 272 314 396
#     4  10  22  41  62  90 132 168 212 277 333 385
#
# _framework density 23.379477999999999
#
# number of rings (size 3 to 8) (size 9 to 14) (size 15 to 20)
#    0.000    1.778    0.000    4.000    3.111    8.000 
#    2.000    0.000    9.778    0.000    0.000    0.000 
#    0.000    0.000    0.000    0.000    0.000    0.000 
#
# Total GULP energy -200638.166838 kJ/mol
# GULP energy per Si atom -5573.282412 kJ/mol
# Density = 2.332626 g / cm^3
# Si number density = 23.379478 Si / 1000 Ang^3
#
#
#
# Elastic Constant Matrix: (Units=GPa)
#
#
# Indices 1 2 3 4 5 6 
#
# 1 56.0653 2.7241 15.3889 0.0000 0.0000 0.0000
# 2 2.7241 116.1929 0.1830 0.0000 0.0000 0.0000
# 3 15.3889 0.1830 142.4885 0.0000 0.0000 0.0000
# 4 0.0000 0.0000 0.0000 41.9495 0.0000 0.0000
# 5 0.0000 0.0000 0.0000 0.0000 -4.5147 0.0000
# 6 0.0000 0.0000 0.0000 0.0000 0.0000 16.3790
#
#
#
# Elastic Compliance Matrix: (Units=1/GPa)
#
#
# Indices 1 2 3 4 5 6 
#
# 1 0.018403 -0.000428 -0.001987 0.000000 0.000000 0.000000
# 2 -0.000428 0.008616 0.000035 0.000000 0.000000 0.000000
# 3 -0.001987 0.000035 0.007233 0.000000 0.000000 0.000000
# 4 0.000000 0.000000 0.000000 0.023838 0.000000 0.000000
# 5 0.000000 0.000000 0.000000 0.000000 -0.221500 0.000000
# 6 0.000000 0.000000 0.000000 0.000000 0.000000 0.061054
#
#
# Mechanical properties :
#
#
# Convention : Reuss Voigt Hill
#
# Bulk Modulus (GPa) = 33.90815 39.03765 36.47290
# Shear Modulus (GPa) = -56.96971 30.52614 -13.22179
#
# Velocity S-wave (km/s) = -4.94169 3.61734 -2.38067
# Velocity P-wave (km/s) = 4.24565 5.84641 2.84209
#
# Compressibility (1/GPa) = 0.02949143
#
# Stress axis : x y z
#
# Youngs Moduli (GPa) = 54.34029 116.05822 138.26176
#
# Poissons Ratio (x) = 0.04971 0.27472
# Poissons Ratio (y) = 0.02327 -0.00487
# Poissons Ratio (z) = 0.10797 -0.00408
#
# Static dielectric constant tensor:
#      x y z
#    x 1.903120 0.000000 0.000000 
#    y 0.000000 1.719170 0.000000 
#    z 0.000000 0.000000 1.843910 
# 
# From -- ./inp_files/6295.got.cif
#   From: 2010.05.17/outbox.cif.g08.bks.cpg/sg52_4_cif.got.tgz:6295.got - 2010.06.03 12:15:38.
