data_PCOD9411536
_publ_section_title
;
Structure prediction by ZEFSAII (Michael W. Deem and Ramdas Pophale) SiO2 
 PCOD9411536
Probable space group: P N N A
;
_chemical_formula_sum "Si O2"
_cell_formula_units_Z 40
_cell_length_a 8.999412
_cell_length_b 17.173517
_cell_length_c 10.644746
_cell_angle_alpha 90.000000
_cell_angle_beta 90.000000
_cell_angle_gamma 90.000000
_cell_volume 1645.162047
_symmetry_space_group_name_H-M "P N N A"
_symmetry_group_IT_number 52
_symmetry_cell_setting 'orthorhombic'
loop_
_space_group_symop_operation_xyz
x,y,z
1/2-x,-y,z
x,1/2-y,1/2-z
1/2-x,1/2+y,1/2-z
-x,-y,-z
1/2+x,y,-z
-x,1/2+y,1/2+z
1/2+x,1/2-y,1/2+z
loop_
_atom_site_type_symbol
_atom_site_label
_atom_site_fract_x
_atom_site_fract_y
_atom_site_fract_z
Si Si1 0.654528 0.924980 0.730995
Si Si2 0.255136 0.588655 0.941318
Si Si3 0.772801 0.695384 0.578022
Si Si4 0.607604 0.448200 0.410225
Si Si5 0.021618 0.692492 0.960692
O O1 0.687994 0.917131 0.584033
O O2 0.718692 0.851613 0.802933
O O3 0.488680 0.933170 0.785055
O O4 0.750000 0.000000 0.772822
O O5 0.250000 0.500000 0.898413
O O6 0.407464 0.636966 0.958997
O O7 0.127503 0.639155 0.874568
O O8 0.833564 0.631282 0.476558
O O9 0.637179 0.749913 0.531213
O O10 0.909507 0.750614 0.606537
O O11 0.750000 0.500000 0.385258
O O12 0.500000 0.500000 0.500000
#
# Coordination Sequence:
#
# PCOD9411536 Si02
#       5
#     8   8   8   8   8
#     4  11  22  38  65  96 126 166 208 258 310 382
#     4  10  23  44  66  86 117 164 222 263 308 372
#     4  11  19  36  61  91 128 157 201 241 320 383
#     4  12  19  34  62  93 135 170 196 241 314 392
#     4  10  22  37  64  88 116 170 202 258 317 360
#
# _framework density 24.313714000000001
#
# number of rings (size 3 to 8) (size 9 to 14) (size 15 to 20)
#    0.000    1.200    6.000    0.600    0.000    3.200 
#    0.000    9.000    8.800    0.000    0.000    0.000 
#    0.000    0.000    0.000    0.000    0.000    0.000 
#
# Total GULP energy -223679.420863 kJ/mol
# GULP energy per Si atom -5591.985522 kJ/mol
# Density = 2.425837 g / cm^3
# Si number density = 24.313714 Si / 1000 Ang^3
#
#
#
# Elastic Constant Matrix: (Units=GPa)
#
#
# Indices 1 2 3 4 5 6 
#
# 1 203.9278 94.9131 34.0659 0.0000 0.0000 0.0000
# 2 94.9131 189.5130 29.1869 0.0000 0.0000 0.0000
# 3 34.0659 29.1869 90.2825 0.0000 0.0000 0.0000
# 4 0.0000 0.0000 0.0000 14.2750 0.0000 0.0000
# 5 0.0000 0.0000 0.0000 0.0000 16.3191 0.0000
# 6 0.0000 0.0000 0.0000 0.0000 0.0000 50.2560
#
#
#
# Elastic Compliance Matrix: (Units=1/GPa)
#
#
# Indices 1 2 3 4 5 6 
#
# 1 0.006580 -0.003066 -0.001492 0.000000 0.000000 0.000000
# 2 -0.003066 0.006981 -0.001100 0.000000 0.000000 0.000000
# 3 -0.001492 -0.001100 0.011995 0.000000 0.000000 0.000000
# 4 0.000000 0.000000 0.000000 0.070052 0.000000 0.000000
# 5 0.000000 0.000000 0.000000 0.000000 0.061278 0.000000
# 6 0.000000 0.000000 0.000000 0.000000 0.000000 0.019898
#
#
# Mechanical properties :
#
#
# Convention : Reuss Voigt Hill
#
# Bulk Modulus (GPa) = 70.21944 88.89499 79.55722
# Shear Modulus (GPa) = 25.92739 37.87386 31.90062
#
# Velocity S-wave (km/s) = 3.26907 3.95107 3.62614
# Velocity P-wave (km/s) = 6.57209 7.57995 7.09394
#
# Compressibility (1/GPa) = 0.01424107
#
# Stress axis : x y z
#
# Youngs Moduli (GPa) = 151.98376 143.23699 83.36889
#
# Poissons Ratio (x) = 0.43910 0.12436
# Poissons Ratio (y) = 0.46591 0.09173
# Poissons Ratio (z) = 0.22670 0.15760
#
# Static dielectric constant tensor:
#      x y z
#    x 1.965520 0.000000 0.000000 
#    y 0.000000 2.019890 0.000000 
#    z 0.000000 0.000000 1.961560 
# 
# From -- ./inp_files/24575.got.cif
#   From: 2010.05.17/outbox.cif.g08.bks.cpg/sg52_13_cif.got.tgz:24575.got - 2010.06.03 12:15:38.
