data_PCOD9411559
_publ_section_title
;
Structure prediction by ZEFSAII (Michael W. Deem and Ramdas Pophale) SiO2 
 PCOD9411559
Probable space group: P N N A
;
_chemical_formula_sum "Si O2"
_cell_formula_units_Z 60
_cell_length_a 5.378833
_cell_length_b 30.318565
_cell_length_c 18.233011
_cell_angle_alpha 90.000000
_cell_angle_beta 90.000000
_cell_angle_gamma 90.000000
_cell_volume 2973.412047
_symmetry_space_group_name_H-M "P N N A"
_symmetry_group_IT_number 52
_symmetry_cell_setting 'orthorhombic'
loop_
_space_group_symop_operation_xyz
x,y,z
1/2-x,-y,z
x,1/2-y,1/2-z
1/2-x,1/2+y,1/2-z
-x,-y,-z
1/2+x,y,-z
-x,1/2+y,1/2+z
1/2+x,1/2-y,1/2+z
loop_
_atom_site_type_symbol
_atom_site_label
_atom_site_fract_x
_atom_site_fract_y
_atom_site_fract_z
Si Si1 0.305740 0.250000 0.750000
Si Si2 0.932608 0.273814 0.956334
Si Si3 0.859498 0.813507 0.669905
Si Si4 0.709967 0.892592 0.328715
Si Si5 0.009577 0.338718 0.710109
Si Si6 0.000875 0.028533 0.398427
Si Si7 0.532469 0.397595 0.023520
Si Si8 0.574962 0.831667 0.955281
O O1 0.479970 0.229986 0.686468
O O2 0.150441 0.291512 0.719819
O O3 0.866315 0.300135 0.882598
O O4 0.922235 0.221290 0.943337
O O5 0.704291 0.282566 0.011833
O O6 0.042095 0.851836 0.643638
O O7 0.745826 0.831148 0.745950
O O8 0.539036 0.936009 0.332993
O O9 0.834994 0.875628 0.254608
O O10 0.918947 0.902699 0.390611
O O11 0.963619 0.350431 0.626138
O O12 0.485576 0.941643 0.472575
O O13 0.750000 0.000000 0.401258
O O14 0.250000 0.000000 0.391825
O O15 0.774151 0.374753 0.990996
O O16 0.337043 0.842790 0.006139
#
# Coordination Sequence:
#
# PCOD9411559 Si02
#       8
#     4   8   8   8   8   8   8   8
#     4  10  22  38  60  88 112 168 222 242 328 390
#     4  10  23  37  56  84 117 159 213 261 305 354
#     4  11  24  39  60  83 125 170 211 267 318 379
#     4  10  26  38  59  91 123 166 215 265 316 367
#     4  11  24  41  63  85 125 160 207 267 322 386
#     4  11  24  43  67  92 128 179 228 265 305 366
#     4  10  22  38  59  86 123 167 222 262 300 356
#     4  10  23  40  64  88 113 151 205 260 314 379
#
# _framework density 20.178839
#
# number of rings (size 3 to 8) (size 9 to 14) (size 15 to 20)
#    0.000    1.600    0.000    3.600   18.667    8.533 
#    0.000    0.000    0.000    0.000    0.000    0.000 
#    0.000    3.200    0.000    0.000    0.000    0.000 
#
# Total GULP energy -335600.972928 kJ/mol
# GULP energy per Si atom -5593.349549 kJ/mol
# Density = 2.013291 g / cm^3
# Si number density = 20.178839 Si / 1000 Ang^3
#
#
#
# Elastic Constant Matrix: (Units=GPa)
#
#
# Indices 1 2 3 4 5 6 
#
# 1 118.9310 44.7120 50.7236 0.0000 0.0000 0.0000
# 2 44.7120 84.6267 29.8809 0.0000 0.0000 0.0000
# 3 50.7236 29.8809 134.8482 0.0000 0.0000 0.0000
# 4 0.0000 0.0000 0.0000 34.6469 0.0000 0.0000
# 5 0.0000 0.0000 0.0000 0.0000 31.6300 0.0000
# 6 0.0000 0.0000 0.0000 0.0000 0.0000 17.0403
#
#
#
# Elastic Compliance Matrix: (Units=1/GPa)
#
#
# Indices 1 2 3 4 5 6 
#
# 1 0.011698 -0.005019 -0.003288 0.000000 0.000000 0.000000
# 2 -0.005019 0.014973 -0.001430 0.000000 0.000000 0.000000
# 3 -0.003288 -0.001430 0.008969 0.000000 0.000000 0.000000
# 4 0.000000 0.000000 0.000000 0.028863 0.000000 0.000000
# 5 0.000000 0.000000 0.000000 0.000000 0.031616 0.000000
# 6 0.000000 0.000000 0.000000 0.000000 0.000000 0.058684
#
#
# Mechanical properties :
#
#
# Convention : Reuss Voigt Hill
#
# Bulk Modulus (GPa) = 61.85795 65.44874 63.65335
# Shear Modulus (GPa) = 27.82945 30.86941 29.34943
#
# Velocity S-wave (km/s) = 3.71771 3.91550 3.81788
# Velocity P-wave (km/s) = 7.01070 7.27642 7.14479
#
# Compressibility (1/GPa) = 0.01616607
#
# Stress axis : x y z
#
# Youngs Moduli (GPa) = 85.48822 66.78483 111.49121
#
# Poissons Ratio (x) = 0.33522 0.36656
# Poissons Ratio (y) = 0.42910 0.15942
# Poissons Ratio (z) = 0.28107 0.09549
#
# Static dielectric constant tensor:
#      x y z
#    x 1.795950 0.000000 0.000000 
#    y 0.000000 1.745870 0.000000 
#    z 0.000000 0.000000 1.737250 
# 
# From -- ./inp_files/30385.got.cif
#   From: 2010.05.17/outbox.cif.g08.bks.cpg/sg52_16_cif.got.tgz:30385.got - 2010.06.03 12:15:38.
