data_PCOD9411035
_publ_section_title
;
Structure prediction by ZEFSAII (Michael W. Deem and Ramdas Pophale) SiO2 
 PCOD9411035
Probable space group: P N N A
;
_chemical_formula_sum "Si O2"
_cell_formula_units_Z 64
_cell_length_a 23.024796
_cell_length_b 9.063036
_cell_length_c 15.694036
_cell_angle_alpha 90.000000
_cell_angle_beta 90.000000
_cell_angle_gamma 90.000000
_cell_volume 3274.945979
_symmetry_space_group_name_H-M "P N N A"
_symmetry_group_IT_number 52
_symmetry_cell_setting 'orthorhombic'
loop_
_space_group_symop_operation_xyz
x,y,z
1/2-x,-y,z
x,1/2-y,1/2-z
1/2-x,1/2+y,1/2-z
-x,-y,-z
1/2+x,y,-z
-x,1/2+y,1/2+z
1/2+x,1/2-y,1/2+z
loop_
_atom_site_type_symbol
_atom_site_label
_atom_site_fract_x
_atom_site_fract_y
_atom_site_fract_z
Si Si1 0.290822 0.626542 0.821541
Si Si2 0.367945 0.657253 0.483332
Si Si3 0.693486 0.913170 0.773850
Si Si4 0.591750 0.194609 0.345917
Si Si5 0.110447 0.128988 0.325525
Si Si6 0.377425 0.159973 0.060966
Si Si7 0.756615 0.339143 0.461727
Si Si8 0.527514 0.915690 0.581455
O O1 0.250000 0.500000 0.789305
O O2 0.296929 0.750000 0.750000
O O3 0.356058 0.574174 0.844015
O O4 0.259176 0.703724 0.901092
O O5 0.382545 0.698853 0.580601
O O6 0.382594 0.779869 0.413444
O O7 0.399092 0.501372 0.467822
O O8 0.298042 0.645474 0.474442
O O9 0.714801 0.750000 0.750000
O O10 0.644868 0.874888 0.843817
O O11 0.750000 0.000000 0.805128
O O12 0.662717 0.017454 0.702535
O O13 0.586086 0.250000 0.250000
O O14 0.528480 0.155117 0.376180
O O15 0.103575 0.250000 0.250000
O O16 0.056656 0.024091 0.349253
O O17 0.423784 0.292173 0.057406
O O18 0.318717 0.186880 0.005480
O O19 0.750000 0.500000 0.416717
O O20 0.500000 0.000000 0.500000
#
# Coordination Sequence:
#
# PCOD9411035 Si02
#       8
#     8   8   8   8   8   8   8   8
#     4  10  21  39  66  95 126 164 216 280 355 410
#     4  10  21  43  67 100 132 175 230 287 350 416
#     4  12  25  41  66 106 144 188 227 280 355 428
#     4  10  24  44  69  93 131 180 225 284 347 406
#     4  12  25  42  67  97 139 182 230 291 342 412
#     4  11  24  41  69  97 135 185 230 282 352 418
#     4   9  20  37  63  93 131 164 216 278 342 416
#     4  12  27  47  67  95 142 181 244 290 338 418
#
# _framework density 19.542306
#
# number of rings (size 3 to 8) (size 9 to 14) (size 15 to 20)
#    0.000    1.250    3.750    1.875    5.250    1.500 
#    2.250    0.625    0.000    0.000    0.000    0.000 
#    0.000    0.000    0.000    0.000    0.000    0.000 
#
# Total GULP energy -356457.214171 kJ/mol
# GULP energy per Si atom -5569.643971 kJ/mol
# Density = 1.949783 g / cm^3
# Si number density = 19.542306 Si / 1000 Ang^3
#
#
#
# Elastic Constant Matrix: (Units=GPa)
#
#
# Indices 1 2 3 4 5 6 
#
# 1 140.4177 63.6946 34.0532 0.0000 0.0000 0.0000
# 2 63.6946 102.4599 38.8031 0.0000 0.0000 0.0000
# 3 34.0532 38.8031 96.4759 0.0000 0.0000 0.0000
# 4 0.0000 0.0000 0.0000 26.2317 0.0000 0.0000
# 5 0.0000 0.0000 0.0000 0.0000 -1.7087 0.0000
# 6 0.0000 0.0000 0.0000 0.0000 0.0000 21.9578
#
#
#
# Elastic Compliance Matrix: (Units=1/GPa)
#
#
# Indices 1 2 3 4 5 6 
#
# 1 0.010039 -0.005779 -0.001219 0.000000 0.000000 0.000000
# 2 -0.005779 0.014840 -0.003929 0.000000 0.000000 0.000000
# 3 -0.001219 -0.003929 0.012376 0.000000 0.000000 0.000000
# 4 0.000000 0.000000 0.000000 0.038122 0.000000 0.000000
# 5 0.000000 0.000000 0.000000 0.000000 -0.585229 0.000000
# 6 0.000000 0.000000 0.000000 0.000000 0.000000 0.045542
#
#
# Mechanical properties :
#
#
# Convention : Reuss Voigt Hill
#
# Bulk Modulus (GPa) = 64.93158 68.05057 66.49107
# Shear Modulus (GPa) = -11.43320 22.81634 5.69157
#
# Velocity S-wave (km/s) = -2.42140 3.42063 1.70844
# Velocity P-wave (km/s) = 5.04784 7.10624 6.16358
#
# Compressibility (1/GPa) = 0.01540083
#
# Stress axis : x y z
#
# Youngs Moduli (GPa) = 99.61568 67.38373 80.80243
#
# Poissons Ratio (x) = 0.38940 0.09850
# Poissons Ratio (y) = 0.57566 0.31748
# Poissons Ratio (z) = 0.12144 0.26476
#
# Static dielectric constant tensor:
#      x y z
#    x 1.696640 0.000000 0.000000 
#    y 0.000000 1.752180 0.000000 
#    z 0.000000 0.000000 1.738960 
# 
# From -- ./inp_files/34110.got.cif
#   From: 2010.05.17/outbox.cif.g08.bks.cpg/sg52_18_cif.got.tgz:34110.got - 2010.06.03 12:15:38.
