data_PCOD9411882
_publ_section_title
;
Structure prediction by ZEFSAII (Michael W. Deem and Ramdas Pophale) SiO2 
 PCOD9411882
Probable space group: P N N A
;
_chemical_formula_sum "Si O2"
_cell_formula_units_Z 64
_cell_length_a 12.939511
_cell_length_b 9.376958
_cell_length_c 21.897157
_cell_angle_alpha 90.000000
_cell_angle_beta 90.000000
_cell_angle_gamma 90.000000
_cell_volume 2656.853251
_symmetry_space_group_name_H-M "P N N A"
_symmetry_group_IT_number 52
_symmetry_cell_setting 'orthorhombic'
loop_
_space_group_symop_operation_xyz
x,y,z
1/2-x,-y,z
x,1/2-y,1/2-z
1/2-x,1/2+y,1/2-z
-x,-y,-z
1/2+x,y,-z
-x,1/2+y,1/2+z
1/2+x,1/2-y,1/2+z
loop_
_atom_site_type_symbol
_atom_site_label
_atom_site_fract_x
_atom_site_fract_y
_atom_site_fract_z
Si Si1 0.691457 0.851742 0.133915
Si Si2 0.897234 0.152784 0.810984
Si Si3 0.286367 0.221576 0.403921
Si Si4 0.322679 0.870665 0.699177
Si Si5 0.475688 0.666385 0.310221
Si Si6 0.929050 0.359958 0.494459
Si Si7 0.485204 0.395037 0.128671
Si Si8 0.066008 0.346506 0.065771
O O1 0.599750 0.843623 0.183295
O O2 0.636164 0.856945 0.068029
O O3 0.750000 0.000000 0.140738
O O4 0.733125 0.283557 0.143954
O O5 0.900696 0.250000 0.750000
O O6 0.786456 0.175804 0.844402
O O7 0.983174 0.224598 0.857553
O O8 0.928230 0.990781 0.805429
O O9 0.359257 0.097755 0.373708
O O10 0.189272 0.158532 0.438624
O O11 0.250000 0.000000 0.717829
O O12 0.337531 0.750000 0.750000
O O13 0.431516 0.938738 0.678780
O O14 0.445469 0.750000 0.250000
O O15 0.445759 0.753457 0.371462
O O16 0.849503 0.317092 0.547157
O O17 0.000000 0.500000 0.500000
O O18 0.014069 0.236339 0.489363
O O19 0.499825 0.509780 0.075617
#
# Coordination Sequence:
#
# PCOD9411882 Si02
#       8
#     8   8   8   8   8   8   8   8
#     4  11  25  42  70 103 142 187 243 295 358 439
#     4  10  22  41  69 100 139 184 229 287 362 420
#     4  10  25  45  72 102 138 188 238 296 366 429
#     4  12  25  43  71 111 151 194 239 292 361 436
#     4  11  23  42  68 107 144 185 234 296 353 428
#     4  11  26  44  71 105 138 187 240 309 365 428
#     4  10  24  45  70  98 144 185 231 298 352 431
#     4  11  24  46  72 101 139 182 245 291 362 435
#
# _framework density 24.088647999999999
#
# number of rings (size 3 to 8) (size 9 to 14) (size 15 to 20)
#    0.750    0.500    0.000    6.000    3.500    5.500 
#    0.000    3.125    0.000    0.000    0.000    0.000 
#    0.000    0.000    0.000    0.000    0.000    0.000 
#
# Total GULP energy -356481.403159 kJ/mol
# GULP energy per Si atom -5570.021924 kJ/mol
# Density = 2.403382 g / cm^3
# Si number density = 24.088648 Si / 1000 Ang^3
#
#
#
# Elastic Constant Matrix: (Units=GPa)
#
#
# Indices 1 2 3 4 5 6 
#
# 1 69.1392 21.8406 5.2195 0.0000 0.0000 0.0000
# 2 21.8406 141.2572 54.1164 0.0000 0.0000 0.0000
# 3 5.2195 54.1164 85.5749 0.0000 0.0000 0.0000
# 4 0.0000 0.0000 0.0000 38.6260 0.0000 0.0000
# 5 0.0000 0.0000 0.0000 0.0000 15.3097 0.0000
# 6 0.0000 0.0000 0.0000 0.0000 0.0000 30.0773
#
#
#
# Elastic Compliance Matrix: (Units=1/GPa)
#
#
# Indices 1 2 3 4 5 6 
#
# 1 0.015242 -0.002640 0.000740 0.000000 0.000000 0.000000
# 2 -0.002640 0.009800 -0.006036 0.000000 0.000000 0.000000
# 3 0.000740 -0.006036 0.015458 0.000000 0.000000 0.000000
# 4 0.000000 0.000000 0.000000 0.025889 0.000000 0.000000
# 5 0.000000 0.000000 0.000000 0.000000 0.065318 0.000000
# 6 0.000000 0.000000 0.000000 0.000000 0.000000 0.033248
#
#
# Mechanical properties :
#
#
# Convention : Reuss Voigt Hill
#
# Bulk Modulus (GPa) = 40.60668 50.92493 45.76581
# Shear Modulus (GPa) = 26.44990 31.12226 28.78608
#
# Velocity S-wave (km/s) = 3.31724 3.59832 3.46064
# Velocity P-wave (km/s) = 5.61835 6.20084 5.91677
#
# Compressibility (1/GPa) = 0.02462649
#
# Stress axis : x y z
#
# Youngs Moduli (GPa) = 65.60952 102.04023 64.69196
#
# Poissons Ratio (x) = 0.26939 -0.04787
# Poissons Ratio (y) = 0.17321 0.39051
# Poissons Ratio (z) = -0.04854 0.61596
#
# Static dielectric constant tensor:
#      x y z
#    x 2.073500 0.000000 0.000000 
#    y 0.000000 2.091580 0.000000 
#    z 0.000000 0.000000 2.036920 
# 
# From -- ./inp_files/40682.got.cif
#   From: 2010.05.17/outbox.cif.g08.bks.cpg/sg52_21_cif.got.tgz:40682.got - 2010.06.03 12:15:38.
