data_PCOD9411675
_publ_section_title
;
Structure prediction by ZEFSAII (Michael W. Deem and Ramdas Pophale) SiO2 
 PCOD9411675
Probable space group: P N N A
;
_chemical_formula_sum "Si O2"
_cell_formula_units_Z 32
_cell_length_a 7.770054
_cell_length_b 8.122416
_cell_length_c 21.563117
_cell_angle_alpha 90.000000
_cell_angle_beta 90.000000
_cell_angle_gamma 90.000000
_cell_volume 1360.883051
_symmetry_space_group_name_H-M "P N N A"
_symmetry_group_IT_number 52
_symmetry_cell_setting 'orthorhombic'
loop_
_space_group_symop_operation_xyz
x,y,z
1/2-x,-y,z
x,1/2-y,1/2-z
1/2-x,1/2+y,1/2-z
-x,-y,-z
1/2+x,y,-z
-x,1/2+y,1/2+z
1/2+x,1/2-y,1/2+z
loop_
_atom_site_type_symbol
_atom_site_label
_atom_site_fract_x
_atom_site_fract_y
_atom_site_fract_z
Si Si1 0.147862 0.825919 0.536761
Si Si2 0.416058 0.750000 0.250000
Si Si3 0.250000 0.000000 0.156063
Si Si4 0.045290 0.476445 0.147842
Si Si5 0.528505 0.196300 0.087603
O O1 0.073777 0.766120 0.472072
O O2 0.276879 0.689188 0.563839
O O3 0.003939 0.868710 0.587703
O O4 0.250000 0.000000 0.528534
O O5 0.302004 0.849939 0.200607
O O6 0.516881 0.617430 0.209027
O O7 0.084481 0.950343 0.115127
O O8 0.250000 0.500000 0.152074
O O9 0.967105 0.656041 0.137779
#
# Coordination Sequence:
#
# PCOD9411675 Si02
#       5
#     8   4   4   8   8
#     4  10  22  39  67  99 132 173 216 281 346 420
#     4  12  24  42  64  94 124 182 228 274 332 406
#     4  12  24  40  68  94 134 176 230 288 332 422
#     4  11  20  41  67  91 129 174 225 268 334 408
#     4  11  22  40  65  99 132 173 221 280 352 405
#
# _framework density 23.514142
#
# number of rings (size 3 to 8) (size 9 to 14) (size 15 to 20)
#    0.000    1.000    3.750    5.250    0.000    1.000 
#    0.000    8.750    0.000    0.000    0.000    0.000 
#    0.000    0.000    0.000    0.000    0.000    0.000 
#
# Total GULP energy -179089.747368 kJ/mol
# GULP energy per Si atom -5596.554605 kJ/mol
# Density = 2.346062 g / cm^3
# Si number density = 23.514142 Si / 1000 Ang^3
#
#
#
# Elastic Constant Matrix: (Units=GPa)
#
#
# Indices 1 2 3 4 5 6 
#
# 1 65.5875 36.4790 35.1405 0.0000 0.0000 0.0000
# 2 36.4790 104.1170 45.4658 0.0000 0.0000 0.0000
# 3 35.1405 45.4658 118.8102 0.0000 0.0000 0.0000
# 4 0.0000 0.0000 0.0000 13.0108 0.0000 0.0000
# 5 0.0000 0.0000 0.0000 0.0000 -17.2729 0.0000
# 6 0.0000 0.0000 0.0000 0.0000 0.0000 23.2626
#
#
#
# Elastic Compliance Matrix: (Units=1/GPa)
#
#
# Indices 1 2 3 4 5 6 
#
# 1 0.020376 -0.005412 -0.003956 0.000000 0.000000 0.000000
# 2 -0.005412 0.012969 -0.003362 0.000000 0.000000 0.000000
# 3 -0.003956 -0.003362 0.010873 0.000000 0.000000 0.000000
# 4 0.000000 0.000000 0.000000 0.076859 0.000000 0.000000
# 5 0.000000 0.000000 0.000000 0.000000 -0.057894 0.000000
# 6 0.000000 0.000000 0.000000 0.000000 0.000000 0.042987
#
#
# Mechanical properties :
#
#
# Convention : Reuss Voigt Hill
#
# Bulk Modulus (GPa) = 53.30757 58.07616 55.69186
# Shear Modulus (GPa) = 36.26269 15.22876 25.74572
#
# Velocity S-wave (km/s) = 3.93130 2.54764 3.31252
# Velocity P-wave (km/s) = 6.58229 5.77979 6.19405
#
# Compressibility (1/GPa) = 0.01875906
#
# Stress axis : x y z
#
# Youngs Moduli (GPa) = 49.07708 77.10764 91.96742
#
# Poissons Ratio (x) = 0.41728 0.36380
# Poissons Ratio (y) = 0.26559 0.30922
# Poissons Ratio (z) = 0.19413 0.25926
#
# Static dielectric constant tensor:
#      x y z
#    x 1.907340 0.000000 0.000000 
#    y 0.000000 1.975110 0.000000 
#    z 0.000000 0.000000 1.874600 
# 
# From -- ./inp_files/35500.got.cif
#   From: 2010.05.17/outbox.cif.g08.bks.cpg/sg52_18_cif.got.tgz:35500.got - 2010.06.03 12:15:38.
