data_PCOD9411162
_publ_section_title
;
Structure prediction by ZEFSAII (Michael W. Deem and Ramdas Pophale) SiO2 
 PCOD9411162
Probable space group: P N N A
;
_chemical_formula_sum "Si O2"
_cell_formula_units_Z 32
_cell_length_a 9.382095
_cell_length_b 11.670107
_cell_length_c 11.424160
_cell_angle_alpha 90.000000
_cell_angle_beta 90.000000
_cell_angle_gamma 90.000000
_cell_volume 1250.831879
_symmetry_space_group_name_H-M "P N N A"
_symmetry_group_IT_number 52
_symmetry_cell_setting 'orthorhombic'
loop_
_space_group_symop_operation_xyz
x,y,z
1/2-x,-y,z
x,1/2-y,1/2-z
1/2-x,1/2+y,1/2-z
-x,-y,-z
1/2+x,y,-z
-x,1/2+y,1/2+z
1/2+x,1/2-y,1/2+z
loop_
_atom_site_type_symbol
_atom_site_label
_atom_site_fract_x
_atom_site_fract_y
_atom_site_fract_z
Si Si1 0.835750 0.601104 0.487850
Si Si2 0.419203 0.250085 0.897407
Si Si3 0.089553 0.979757 0.758429
Si Si4 0.394246 0.068576 0.415564
O O1 0.750000 0.500000 0.556163
O O2 0.725875 0.672025 0.400543
O O3 0.917224 0.522749 0.392195
O O4 0.934796 0.681954 0.567949
O O5 0.440324 0.350436 0.796005
O O6 0.380851 0.313722 0.019348
O O7 0.250000 0.000000 0.713418
O O8 0.979304 0.067753 0.702714
O O9 0.250000 0.000000 0.404029
O O10 0.500000 0.000000 0.500000
#
# Coordination Sequence:
#
# PCOD9411162 Si02
#       4
#     8   8   8   8
#     4   9  18  37  66  99 134 179 232 288 353 428
#     4  10  21  40  66  96 135 181 232 295 358 419
#     4   9  21  42  68  96 131 180 233 286 353 432
#     4  12  26  43  64  97 140 185 237 294 355 431
#
# _framework density 25.582978000000001
#
# number of rings (size 3 to 8) (size 9 to 14) (size 15 to 20)
#    0.000    2.500    0.000    5.250    0.000    5.000 
#    0.000   12.500    0.000    0.000    0.000    0.000 
#    0.000    0.000    0.000    0.000    0.000    0.000 
#
# Total GULP energy -178262.163573 kJ/mol
# GULP energy per Si atom -5570.692612 kJ/mol
# Density = 2.552475 g / cm^3
# Si number density = 25.582978 Si / 1000 Ang^3
#
#
#
# Elastic Constant Matrix: (Units=GPa)
#
#
# Indices 1 2 3 4 5 6 
#
# 1 139.6494 26.8147 51.5280 0.0000 0.0000 0.0000
# 2 26.8147 116.8396 49.7941 0.0000 0.0000 0.0000
# 3 51.5280 49.7941 102.8580 0.0000 0.0000 0.0000
# 4 0.0000 0.0000 0.0000 550.2145 0.0000 0.0000
# 5 0.0000 0.0000 0.0000 0.0000 45.2667 0.0000
# 6 0.0000 0.0000 0.0000 0.0000 0.0000 53.1839
#
#
#
# Elastic Compliance Matrix: (Units=1/GPa)
#
#
# Indices 1 2 3 4 5 6 
#
# 1 0.008787 -0.000177 -0.004316 0.000000 0.000000 0.000000
# 2 -0.000177 0.010787 -0.005133 0.000000 0.000000 0.000000
# 3 -0.004316 -0.005133 0.014370 0.000000 0.000000 0.000000
# 4 0.000000 0.000000 0.000000 0.001817 0.000000 0.000000
# 5 0.000000 0.000000 0.000000 0.000000 0.022091 0.000000
# 6 0.000000 0.000000 0.000000 0.000000 0.000000 0.018803
#
#
# Mechanical properties :
#
#
# Convention : Reuss Voigt Hill
#
# Bulk Modulus (GPa) = 68.07216 68.40230 68.23723
# Shear Modulus (GPa) = 49.60008 145.14703 97.37356
#
# Velocity S-wave (km/s) = 4.40795 7.54049 6.17612
# Velocity P-wave (km/s) = 7.25071 10.12953 8.80853
#
# Compressibility (1/GPa) = 0.01469029
#
# Stress axis : x y z
#
# Youngs Moduli (GPa) = 113.79816 92.70329 69.59147
#
# Poissons Ratio (x) = 0.01643 0.30039
# Poissons Ratio (y) = 0.02016 0.35724
# Poissons Ratio (z) = 0.49120 0.47588
#
# Static dielectric constant tensor:
#      x y z
#    x 2.062230 0.000000 0.000000 
#    y 0.000000 2.290020 0.000000 
#    z 0.000000 0.000000 2.706810 
# 
# From -- ./inp_files/24165.got.cif
#   From: 2010.05.17/outbox.cif.g08.bks.cpg/sg52_13_cif.got.tgz:24165.got - 2010.06.03 12:15:38.
