data_PCOD9411514
_publ_section_title
;
Structure prediction by ZEFSAII (Michael W. Deem and Ramdas Pophale) SiO2 
 PCOD9411514
Probable space group: P N N A
;
_chemical_formula_sum "Si O2"
_cell_formula_units_Z 40
_cell_length_a 16.413763
_cell_length_b 11.050340
_cell_length_c 9.898547
_cell_angle_alpha 90.000000
_cell_angle_beta 90.000000
_cell_angle_gamma 90.000000
_cell_volume 1795.375310
_symmetry_space_group_name_H-M "P N N A"
_symmetry_group_IT_number 52
_symmetry_cell_setting 'orthorhombic'
loop_
_space_group_symop_operation_xyz
x,y,z
1/2-x,-y,z
x,1/2-y,1/2-z
1/2-x,1/2+y,1/2-z
-x,-y,-z
1/2+x,y,-z
-x,1/2+y,1/2+z
1/2+x,1/2-y,1/2+z
loop_
_atom_site_type_symbol
_atom_site_label
_atom_site_fract_x
_atom_site_fract_y
_atom_site_fract_z
Si Si1 0.600064 0.609635 0.246468
Si Si2 0.652251 0.231705 0.910798
Si Si3 0.931089 0.004618 0.826865
Si Si4 0.904234 0.986021 0.521626
Si Si5 0.193354 0.885932 0.010878
O O1 0.570165 0.750000 0.250000
O O2 0.525386 0.522836 0.294778
O O3 0.629947 0.568343 0.098636
O O4 0.671475 0.602713 0.354959
O O5 0.652026 0.250000 0.750000
O O6 0.598362 0.109813 0.918521
O O7 0.615430 0.344435 0.989461
O O8 0.745097 0.220601 0.957658
O O9 0.888003 0.013784 0.679354
O O10 0.892643 0.115233 0.910410
O O11 0.000000 0.000000 0.500000
O O12 0.250000 0.000000 0.055363
#
# Coordination Sequence:
#
# PCOD9411514 Si02
#       5
#     8   8   8   8   8
#     4  11  22  36  57  86 119 156 199 250 305 365
#     4   9  18  36  61  87 116 153 202 254 306 368
#     4   9  18  38  62  84 111 152 206 253 298 360
#     4   9  18  35  62  89 114 155 205 253 303 363
#     4  10  22  37  55  82 118 156 192 244 309 364
#
# _framework density 22.279465999999999
#
# number of rings (size 3 to 8) (size 9 to 14) (size 15 to 20)
#    0.000    2.400    0.000    3.600    0.000    3.200 
#    0.000    8.000    0.000   16.800    0.000    0.000 
#    0.000    0.000    0.000    0.000    0.000    0.000 
#
# Total GULP energy -222889.287160 kJ/mol
# GULP energy per Si atom -5572.232179 kJ/mol
# Density = 2.222876 g / cm^3
# Si number density = 22.279466 Si / 1000 Ang^3
#
#
#
# Elastic Constant Matrix: (Units=GPa)
#
#
# Indices 1 2 3 4 5 6 
#
# 1 61.4630 34.5678 -6.8429 0.0000 0.0000 0.0000
# 2 34.5678 61.2480 31.4104 0.0000 0.0000 0.0000
# 3 -6.8429 31.4104 66.1079 0.0000 0.0000 0.0000
# 4 0.0000 0.0000 0.0000 23.9874 0.0000 0.0000
# 5 0.0000 0.0000 0.0000 0.0000 39.1240 0.0000
# 6 0.0000 0.0000 0.0000 0.0000 0.0000 32.8790
#
#
#
# Elastic Compliance Matrix: (Units=1/GPa)
#
#
# Indices 1 2 3 4 5 6 
#
# 1 0.033469 -0.027324 0.016447 0.000000 0.000000 0.000000
# 2 -0.027324 0.043895 -0.023684 0.000000 0.000000 0.000000
# 3 0.016447 -0.023684 0.028083 0.000000 0.000000 0.000000
# 4 0.000000 0.000000 0.000000 0.041689 0.000000 0.000000
# 5 0.000000 0.000000 0.000000 0.000000 0.025560 0.000000
# 6 0.000000 0.000000 0.000000 0.000000 0.000000 0.030415
#
#
# Mechanical properties :
#
#
# Convention : Reuss Voigt Hill
#
# Bulk Modulus (GPa) = 27.53066 34.12105 30.82586
# Shear Modulus (GPa) = 17.58460 27.84364 22.71412
#
# Velocity S-wave (km/s) = 2.81245 3.53901 3.19644
# Velocity P-wave (km/s) = 4.78856 5.66107 5.24299
#
# Compressibility (1/GPa) = 0.03632314
#
# Stress axis : x y z
#
# Youngs Moduli (GPa) = 29.87872 22.78169 35.60924
#
# Poissons Ratio (x) = 0.62249 -0.58567
# Poissons Ratio (y) = 0.81641 0.84339
# Poissons Ratio (z) = -0.49142 0.53957
#
# Static dielectric constant tensor:
#      x y z
#    x 1.850500 0.000000 0.000000 
#    y 0.000000 1.928760 0.000000 
#    z 0.000000 0.000000 1.838490 
# 
# From -- ./inp_files/11641.got.cif
#   From: 2010.05.17/outbox.cif.g08.bks.cpg/sg52_6_cif.got.tgz:11641.got - 2010.06.03 12:15:38.
