data_PCOD9411450
_publ_section_title
;
Structure prediction by ZEFSAII (Michael W. Deem and Ramdas Pophale) SiO2 
 PCOD9411450
Probable space group: P N N A
;
_chemical_formula_sum "Si O2"
_cell_formula_units_Z 36
_cell_length_a 22.789578
_cell_length_b 5.280832
_cell_length_c 13.470765
_cell_angle_alpha 90.000000
_cell_angle_beta 90.000000
_cell_angle_gamma 90.000000
_cell_volume 1621.178721
_symmetry_space_group_name_H-M "P N N A"
_symmetry_group_IT_number 52
_symmetry_cell_setting 'orthorhombic'
loop_
_space_group_symop_operation_xyz
x,y,z
1/2-x,-y,z
x,1/2-y,1/2-z
1/2-x,1/2+y,1/2-z
-x,-y,-z
1/2+x,y,-z
-x,1/2+y,1/2+z
1/2+x,1/2-y,1/2+z
loop_
_atom_site_type_symbol
_atom_site_label
_atom_site_fract_x
_atom_site_fract_y
_atom_site_fract_z
Si Si1 0.421286 0.750000 0.750000
Si Si2 0.482216 0.124703 0.397251
Si Si3 0.250000 0.000000 0.598623
Si Si4 0.250000 0.000000 0.015045
Si Si5 0.361428 0.125738 0.139822
Si Si6 0.575573 0.250000 0.750000
Si Si7 0.341803 0.250000 0.750000
O O1 0.461823 0.739770 0.650782
O O2 0.382249 0.497468 0.738130
O O3 0.420177 0.266979 0.411362
O O4 0.500000 0.000000 0.500000
O O5 0.466024 0.943567 0.305052
O O6 0.224795 0.247867 0.540569
O O7 0.298537 0.148772 0.663551
O O8 0.302440 0.123100 0.078906
O O9 0.354868 0.250000 0.250000
O O10 0.381160 0.842843 0.164648
#
# Coordination Sequence:
#
# PCOD9411450 Si02
#       7
#     4   8   4   4   8   4   4
#     4  12  25  48  81 115 143 212 252 300 398 466
#     4  11  25  46  72 110 158 197 253 320 380 459
#     4  12  29  55  72 116 146 196 262 331 361 470
#     4  12  29  45  82 114 146 200 276 301 393 450
#     4  10  25  46  73 106 155 201 249 322 377 460
#     4  10  21  46  67 103 154 197 254 308 384 454
#     4  12  28  52  82 100 159 197 246 320 390 434
#
# _framework density 22.206066
#
# number of rings (size 3 to 8) (size 9 to 14) (size 15 to 20)
#    0.000    0.889    3.333    3.333   10.889    2.667 
#    4.000    0.000    0.000    0.000    0.000    0.000 
#    0.000    0.000    0.000    0.000    0.000    0.000 
#
# Total GULP energy -200622.419535 kJ/mol
# GULP energy per Si atom -5572.844987 kJ/mol
# Density = 2.215552 g / cm^3
# Si number density = 22.206066 Si / 1000 Ang^3
#
#
#
# Elastic Constant Matrix: (Units=GPa)
#
#
# Indices 1 2 3 4 5 6 
#
# 1 153.4611 53.4002 65.1625 0.0000 0.0000 0.0000
# 2 53.4002 115.4023 31.5648 0.0000 0.0000 0.0000
# 3 65.1625 31.5648 90.9085 0.0000 0.0000 0.0000
# 4 0.0000 0.0000 0.0000 30.5380 0.0000 0.0000
# 5 0.0000 0.0000 0.0000 0.0000 -8.7453 0.0000
# 6 0.0000 0.0000 0.0000 0.0000 0.0000 48.6340
#
#
#
# Elastic Compliance Matrix: (Units=1/GPa)
#
#
# Indices 1 2 3 4 5 6 
#
# 1 0.010237 -0.003016 -0.006290 0.000000 0.000000 0.000000
# 2 -0.003016 0.010463 -0.001471 0.000000 0.000000 0.000000
# 3 -0.006290 -0.001471 0.016020 0.000000 0.000000 0.000000
# 4 0.000000 0.000000 0.000000 0.032746 0.000000 0.000000
# 5 0.000000 0.000000 0.000000 0.000000 -0.114347 0.000000
# 6 0.000000 0.000000 0.000000 0.000000 0.000000 0.020562
#
#
# Mechanical properties :
#
#
# Convention : Reuss Voigt Hill
#
# Bulk Modulus (GPa) = 65.94305 73.33634 69.63970
# Shear Modulus (GPa) = 2181.63829 28.06162 1104.84996
#
# Velocity S-wave (km/s) = 31.37809 3.55870 22.32990
# Velocity P-wave (km/s) = 36.64068 7.06986 26.38676
#
# Compressibility (1/GPa) = 0.01516460
#
# Stress axis : x y z
#
# Youngs Moduli (GPa) = 97.68512 95.57081 62.42300
#
# Poissons Ratio (x) = 0.28828 0.39267
# Poissons Ratio (y) = 0.29466 0.09182
# Poissons Ratio (z) = 0.61448 0.14058
#
# Static dielectric constant tensor:
#      x y z
#    x 1.934030 0.000000 0.000000 
#    y 0.000000 1.962430 0.000000 
#    z 0.000000 0.000000 1.839920 
# 
# From -- ./inp_files/28549.got.cif
#   From: 2010.05.17/outbox.cif.g08.bks.cpg/sg52_15_cif.got.tgz:28549.got - 2010.06.03 12:15:38.
