data_PCOD9411135
_publ_section_title
;
Structure prediction by ZEFSAII (Michael W. Deem and Ramdas Pophale) SiO2 
 PCOD9411135
Probable space group: P N N A
;
_chemical_formula_sum "Si O2"
_cell_formula_units_Z 36
_cell_length_a 12.861710
_cell_length_b 5.533376
_cell_length_c 22.147340
_cell_angle_alpha 90.000000
_cell_angle_beta 90.000000
_cell_angle_gamma 90.000000
_cell_volume 1576.196896
_symmetry_space_group_name_H-M "P N N A"
_symmetry_group_IT_number 52
_symmetry_cell_setting 'orthorhombic'
loop_
_space_group_symop_operation_xyz
x,y,z
1/2-x,-y,z
x,1/2-y,1/2-z
1/2-x,1/2+y,1/2-z
-x,-y,-z
1/2+x,y,-z
-x,1/2+y,1/2+z
1/2+x,1/2-y,1/2+z
loop_
_atom_site_type_symbol
_atom_site_label
_atom_site_fract_x
_atom_site_fract_y
_atom_site_fract_z
Si Si1 0.349319 0.315318 0.066870
Si Si2 0.640291 0.449418 0.676147
Si Si3 0.990459 0.062352 0.356688
Si Si4 0.312019 0.255372 0.572990
Si Si5 0.524408 0.250000 0.250000
O O1 0.250000 0.500000 0.076037
O O2 0.461235 0.425258 0.085611
O O3 0.346990 0.087797 0.112238
O O4 0.344447 0.242117 0.997322
O O5 0.750000 0.500000 0.707428
O O6 0.596585 0.180388 0.669475
O O7 0.549322 0.577238 0.711816
O O8 0.911264 0.253456 0.383538
O O9 0.930691 0.913775 0.304212
O O10 0.250000 0.500000 0.585114
O O11 0.250000 0.000000 0.581953
#
# Coordination Sequence:
#
# PCOD9411135 Si02
#       5
#     8   8   8   8   4
#     4  10  21  40  65 108 143 179 224 281 358 440
#     4  11  22  37  66  99 140 177 223 280 358 434
#     4  11  24  44  69  99 140 185 233 291 354 420
#     4  11  27  46  73 102 142 188 243 296 348 412
#     4  10  26  38  66  96 136 176 238 288 350 420
#
# _framework density 22.839784999999999
#
# number of rings (size 3 to 8) (size 9 to 14) (size 15 to 20)
#    0.000    1.333    2.222    2.000   12.444    0.889 
#    0.000    0.000    4.889    0.000    0.000    0.000 
#    0.000    0.000    0.000    0.000    0.000    0.000 
#
# Total GULP energy -200769.901230 kJ/mol
# GULP energy per Si atom -5576.941701 kJ/mol
# Density = 2.278780 g / cm^3
# Si number density = 22.839785 Si / 1000 Ang^3
#
#
#
# Elastic Constant Matrix: (Units=GPa)
#
#
# Indices 1 2 3 4 5 6 
#
# 1 59.1285 32.5188 46.5656 0.0000 0.0000 0.0000
# 2 32.5188 81.3873 30.5494 0.0000 0.0000 0.0000
# 3 46.5656 30.5494 105.8483 0.0000 0.0000 0.0000
# 4 0.0000 0.0000 0.0000 -4.3508 0.0000 0.0000
# 5 0.0000 0.0000 0.0000 0.0000 91.5064 0.0000
# 6 0.0000 0.0000 0.0000 0.0000 0.0000 43.8135
#
#
#
# Elastic Compliance Matrix: (Units=1/GPa)
#
#
# Indices 1 2 3 4 5 6 
#
# 1 0.029738 -0.007818 -0.010826 0.000000 0.000000 0.000000
# 2 -0.007818 0.015835 -0.001131 0.000000 0.000000 0.000000
# 3 -0.010826 -0.001131 0.014537 0.000000 0.000000 0.000000
# 4 0.000000 0.000000 0.000000 -0.229841 0.000000 0.000000
# 5 0.000000 0.000000 0.000000 0.000000 0.010928 0.000000
# 6 0.000000 0.000000 0.000000 0.000000 0.000000 0.022824
#
#
# Mechanical properties :
#
#
# Convention : Reuss Voigt Hill
#
# Bulk Modulus (GPa) = 48.63959 51.73684 50.18822
# Shear Modulus (GPa) = -55.81930 35.30916 -10.25507
#
# Velocity S-wave (km/s) = -4.94900 3.93612 -2.12126
# Velocity P-wave (km/s) = 3.36371 6.58473 4.00276
#
# Compressibility (1/GPa) = 0.02055938
#
# Stress axis : x y z
#
# Youngs Moduli (GPa) = 33.62689 63.15018 68.79212
#
# Poissons Ratio (x) = 0.49373 0.74475
# Poissons Ratio (y) = 0.26291 0.07779
# Poissons Ratio (z) = 0.36405 0.07141
#
# Static dielectric constant tensor:
#      x y z
#    x 1.908230 0.000000 0.000000 
#    y 0.000000 1.115920 0.000000 
#    z 0.000000 0.000000 1.854710 
# 
# From -- ./inp_files/37048.got.cif
#   From: 2010.05.17/outbox.cif.g08.bks.cpg/sg52_19_cif.got.tgz:37048.got - 2010.06.03 12:15:38.
