data_PCOD9411871
_publ_section_title
;
Structure prediction by ZEFSAII (Michael W. Deem and Ramdas Pophale) SiO2 
 PCOD9411871
Probable space group: P N N A
;
_chemical_formula_sum "Si O2"
_cell_formula_units_Z 64
_cell_length_a 13.237721
_cell_length_b 9.382008
_cell_length_c 23.973974
_cell_angle_alpha 90.000000
_cell_angle_beta 90.000000
_cell_angle_gamma 90.000000
_cell_volume 2977.481368
_symmetry_space_group_name_H-M "P N N A"
_symmetry_group_IT_number 52
_symmetry_cell_setting 'orthorhombic'
loop_
_space_group_symop_operation_xyz
x,y,z
1/2-x,-y,z
x,1/2-y,1/2-z
1/2-x,1/2+y,1/2-z
-x,-y,-z
1/2+x,y,-z
-x,1/2+y,1/2+z
1/2+x,1/2-y,1/2+z
loop_
_atom_site_type_symbol
_atom_site_label
_atom_site_fract_x
_atom_site_fract_y
_atom_site_fract_z
Si Si1 0.192155 0.866030 0.018817
Si Si2 0.275272 0.670779 0.808762
Si Si3 0.381588 0.244918 0.597168
Si Si4 0.798232 0.158886 0.806252
Si Si5 0.513224 0.261898 0.359242
Si Si6 0.004638 0.005079 0.433358
Si Si7 0.009813 0.003258 0.067880
Si Si8 0.798218 0.844427 0.598745
O O1 0.124483 0.942001 0.067351
O O2 0.257534 0.744389 0.046718
O O3 0.250000 0.000000 0.994003
O O4 0.144252 0.790340 0.965909
O O5 0.250000 0.500000 0.805530
O O6 0.255399 0.750000 0.750000
O O7 0.204202 0.747334 0.855755
O O8 0.393518 0.699263 0.824193
O O9 0.405610 0.077349 0.591559
O O10 0.475636 0.357566 0.602279
O O11 0.791453 0.250000 0.750000
O O12 0.917471 0.174518 0.824918
O O13 0.729088 0.245441 0.849788
O O14 0.750000 0.000000 0.800840
O O15 0.554249 0.381814 0.401601
O O16 0.473469 0.141416 0.402153
O O17 0.088636 0.116274 0.415108
O O18 0.000000 0.000000 0.500000
O O19 0.000000 0.000000 0.000000
O O20 0.750000 0.000000 0.605870
#
# Coordination Sequence:
#
# PCOD9411871 Si02
#       8
#     8   8   8   8   8   8   8   8
#     4  11  23  40  69 110 153 199 244 301 380 458
#     4  12  30  54  78 107 144 200 270 319 376 443
#     4  11  26  44  71 108 146 200 253 309 367 451
#     4  12  28  52  79 113 145 198 255 316 389 462
#     4  12  26  50  77 108 156 196 246 320 377 442
#     4  12  25  44  72 113 156 198 243 305 380 458
#     4  10  22  41  67 109 149 191 241 296 370 451
#     4  12  23  43  73 107 149 194 246 308 375 452
#
# _framework density 21.494676999999999
#
# number of rings (size 3 to 8) (size 9 to 14) (size 15 to 20)
#    0.000    0.500    3.750    4.125    8.750    0.500 
#    0.000    0.625    0.000    0.000    0.000    0.000 
#    0.000    0.000    0.000    0.000    0.000    0.000 
#
# Total GULP energy -356591.041964 kJ/mol
# GULP energy per Si atom -5571.735031 kJ/mol
# Density = 2.144575 g / cm^3
# Si number density = 21.494677 Si / 1000 Ang^3
#
#
#
# Elastic Constant Matrix: (Units=GPa)
#
#
# Indices 1 2 3 4 5 6 
#
# 1 59.6050 52.9716 39.9393 0.0000 0.0000 0.0000
# 2 52.9716 167.1028 43.2162 0.0000 0.0000 0.0000
# 3 39.9393 43.2162 100.6734 0.0000 0.0000 0.0000
# 4 0.0000 0.0000 0.0000 34.1396 0.0000 0.0000
# 5 0.0000 0.0000 0.0000 0.0000 39.2621 0.0000
# 6 0.0000 0.0000 0.0000 0.0000 0.0000 11.0019
#
#
#
# Elastic Compliance Matrix: (Units=1/GPa)
#
#
# Indices 1 2 3 4 5 6 
#
# 1 0.028474 -0.006867 -0.008348 0.000000 0.000000 0.000000
# 2 -0.006867 0.008388 -0.000876 0.000000 0.000000 0.000000
# 3 -0.008348 -0.000876 0.013621 0.000000 0.000000 0.000000
# 4 0.000000 0.000000 0.000000 0.029291 0.000000 0.000000
# 5 0.000000 0.000000 0.000000 0.000000 0.025470 0.000000
# 6 0.000000 0.000000 0.000000 0.000000 0.000000 0.090894
#
#
# Mechanical properties :
#
#
# Convention : Reuss Voigt Hill
#
# Bulk Modulus (GPa) = 54.64659 66.62618 60.63639
# Shear Modulus (GPa) = 21.32910 29.63100 25.48005
#
# Velocity S-wave (km/s) = 3.15349 3.71688 3.44672
# Velocity P-wave (km/s) = 6.22397 7.03450 6.64161
#
# Compressibility (1/GPa) = 0.01829940
#
# Stress axis : x y z
#
# Youngs Moduli (GPa) = 35.11973 119.21969 73.41469
#
# Poissons Ratio (x) = 0.81871 0.61289
# Poissons Ratio (y) = 0.24117 0.06433
# Poissons Ratio (z) = 0.29319 0.10447
#
# Static dielectric constant tensor:
#      x y z
#    x 2.046370 0.000000 0.000000 
#    y 0.000000 1.903050 0.000000 
#    z 0.000000 0.000000 1.440490 
# 
# From -- ./inp_files/40677.got.cif
#   From: 2010.05.17/outbox.cif.g08.bks.cpg/sg52_21_cif.got.tgz:40677.got - 2010.06.03 12:15:38.
