data_PCOD9411147
_publ_section_title
;
Structure prediction by ZEFSAII (Michael W. Deem and Ramdas Pophale) SiO2 
 PCOD9411147
Probable space group: P N N A
;
_chemical_formula_sum "Si O2"
_cell_formula_units_Z 64
_cell_length_a 8.433425
_cell_length_b 25.001129
_cell_length_c 15.256211
_cell_angle_alpha 90.000000
_cell_angle_beta 90.000000
_cell_angle_gamma 90.000000
_cell_volume 3216.698041
_symmetry_space_group_name_H-M "P N N A"
_symmetry_group_IT_number 52
_symmetry_cell_setting 'orthorhombic'
loop_
_space_group_symop_operation_xyz
x,y,z
1/2-x,-y,z
x,1/2-y,1/2-z
1/2-x,1/2+y,1/2-z
-x,-y,-z
1/2+x,y,-z
-x,1/2+y,1/2+z
1/2+x,1/2-y,1/2+z
loop_
_atom_site_type_symbol
_atom_site_label
_atom_site_fract_x
_atom_site_fract_y
_atom_site_fract_z
Si Si1 0.063149 0.120039 0.513766
Si Si2 0.166479 0.555027 0.901800
Si Si3 0.650903 0.367618 0.426780
Si Si4 0.292112 0.315895 0.100231
Si Si5 0.674556 0.805147 0.937687
Si Si6 0.386078 0.090078 0.789199
Si Si7 0.604267 0.190741 0.772291
Si Si8 0.396666 0.536955 0.436605
O O1 0.206827 0.100338 0.573044
O O2 0.133067 0.166564 0.451569
O O3 0.991586 0.072447 0.453794
O O4 0.923721 0.141365 0.574744
O O5 0.250000 0.500000 0.928349
O O6 0.138444 0.556419 0.798288
O O7 0.766555 0.322075 0.466088
O O8 0.478090 0.341438 0.415786
O O9 0.726171 0.393805 0.340596
O O10 0.652482 0.412838 0.502793
O O11 0.354651 0.257990 0.070710
O O12 0.245514 0.316168 0.201808
O O13 0.817693 0.813482 0.868301
O O14 0.475525 0.144713 0.762799
O O15 0.498205 0.058657 0.857183
O O16 0.540111 0.250000 0.750000
O O17 0.250000 0.500000 0.407312
O O18 0.500000 0.500000 0.500000
#
# Coordination Sequence:
#
# PCOD9411147 Si02
#       8
#     8   8   8   8   8   8   8   8
#     4  10  22  44  69  89 127 161 212 279 333 406
#     4  11  25  45  68  95 124 167 219 277 339 390
#     4  12  23  40  63  94 132 175 221 266 318 397
#     4  10  21  40  65  95 124 167 216 265 336 394
#     4  11  21  39  64  92 130 173 213 260 325 397
#     4  12  25  44  64  98 134 170 226 273 331 398
#     4  10  22  42  62  91 132 169 213 273 329 394
#     4  12  24  43  64  92 133 177 221 268 322 381
#
# _framework density 19.896179
#
# number of rings (size 3 to 8) (size 9 to 14) (size 15 to 20)
#    0.000    1.000    5.000    1.125    3.500    1.000 
#    4.500    0.625    0.000    0.000    0.000    0.000 
#    0.000    0.000    0.000    0.000    0.000    0.000 
#
# Total GULP energy -357541.234322 kJ/mol
# GULP energy per Si atom -5586.581786 kJ/mol
# Density = 1.985089 g / cm^3
# Si number density = 19.896179 Si / 1000 Ang^3
#
#
#
# Elastic Constant Matrix: (Units=GPa)
#
#
# Indices 1 2 3 4 5 6 
#
# 1 59.9400 14.7909 -4.5197 0.0000 0.0000 0.0000
# 2 14.7909 80.4698 9.6136 0.0000 0.0000 0.0000
# 3 -4.5197 9.6136 50.9541 0.0000 0.0000 0.0000
# 4 0.0000 0.0000 0.0000 26.8477 0.0000 0.0000
# 5 0.0000 0.0000 0.0000 0.0000 21.2395 0.0000
# 6 0.0000 0.0000 0.0000 0.0000 0.0000 35.4438
#
#
#
# Elastic Compliance Matrix: (Units=1/GPa)
#
#
# Indices 1 2 3 4 5 6 
#
# 1 0.017722 -0.003525 0.002237 0.000000 0.000000 0.000000
# 2 -0.003525 0.013415 -0.002844 0.000000 0.000000 0.000000
# 3 0.002237 -0.002844 0.020360 0.000000 0.000000 0.000000
# 4 0.000000 0.000000 0.000000 0.037247 0.000000 0.000000
# 5 0.000000 0.000000 0.000000 0.000000 0.047082 0.000000
# 6 0.000000 0.000000 0.000000 0.000000 0.000000 0.028214
#
#
# Mechanical properties :
#
#
# Convention : Reuss Voigt Hill
#
# Bulk Modulus (GPa) = 23.12982 25.68149 24.40565
# Shear Modulus (GPa) = 26.77898 28.13814 27.45856
#
# Velocity S-wave (km/s) = 3.67268 3.76473 3.71899
# Velocity P-wave (km/s) = 5.44383 5.64211 5.54385
#
# Compressibility (1/GPa) = 0.04323424
#
# Stress axis : x y z
#
# Youngs Moduli (GPa) = 56.42777 74.54566 49.11488
#
# Poissons Ratio (x) = 0.26275 -0.10987
# Poissons Ratio (y) = 0.19889 0.13966
# Poissons Ratio (z) = -0.12623 0.21198
#
# Static dielectric constant tensor:
#      x y z
#    x 1.703330 0.000000 0.000000 
#    y 0.000000 1.746040 0.000000 
#    z 0.000000 0.000000 1.676950 
# 
# From -- ./inp_files/25145.got.cif
#   From: 2010.05.17/outbox.cif.g08.bks.cpg/sg52_13_cif.got.tgz:25145.got - 2010.06.03 12:15:38.
