data_PCOD9411078
_publ_section_title
;
Structure prediction by ZEFSAII (Michael W. Deem and Ramdas Pophale) SiO2 
 PCOD9411078
Probable space group: P N N A
;
_chemical_formula_sum "Si O2"
_cell_formula_units_Z 48
_cell_length_a 15.861219
_cell_length_b 18.312724
_cell_length_c 8.505687
_cell_angle_alpha 90.000000
_cell_angle_beta 90.000000
_cell_angle_gamma 90.000000
_cell_volume 2470.579928
_symmetry_space_group_name_H-M "P N N A"
_symmetry_group_IT_number 52
_symmetry_cell_setting 'orthorhombic'
loop_
_space_group_symop_operation_xyz
x,y,z
1/2-x,-y,z
x,1/2-y,1/2-z
1/2-x,1/2+y,1/2-z
-x,-y,-z
1/2+x,y,-z
-x,1/2+y,1/2+z
1/2+x,1/2-y,1/2+z
loop_
_atom_site_type_symbol
_atom_site_label
_atom_site_fract_x
_atom_site_fract_y
_atom_site_fract_z
Si Si1 0.010678 0.513205 0.311832
Si Si2 0.676826 0.060657 0.673052
Si Si3 0.233519 0.686603 0.372186
Si Si4 0.869559 0.809321 0.114890
Si Si5 0.951568 0.177374 0.860143
Si Si6 0.336175 0.545598 0.808873
O O1 0.089229 0.467134 0.247364
O O2 0.032270 0.598981 0.276769
O O3 0.000000 0.500000 0.500000
O O4 0.920952 0.498998 0.227054
O O5 0.717042 0.123755 0.779164
O O6 0.662231 0.075571 0.487734
O O7 0.750000 0.000000 0.676334
O O8 0.219094 0.750000 0.250000
O O9 0.296117 0.714766 0.502507
O O10 0.140390 0.667485 0.435823
O O11 0.876629 0.750000 0.250000
O O12 0.842967 0.887243 0.187567
O O13 0.962843 0.814918 0.038630
O O14 0.949977 0.250000 0.750000
O O15 0.250000 0.500000 0.786692
#
# Coordination Sequence:
#
# PCOD9411078 Si02
#       6
#     8   8   8   8   8   8
#     4  11  22  37  63  90 123 162 205 257 317 362
#     4  11  21  38  60  88 121 156 205 247 302 366
#     4  11  22  38  64  87 118 159 208 245 308 371
#     4  10  21  40  61  84 119 154 199 248 304 354
#     4   9  20  38  59  86 116 161 199 244 308 374
#     4  10  23  38  59  87 122 156 197 252 304 358
#
# _framework density 19.428636000000001
#
# number of rings (size 3 to 8) (size 9 to 14) (size 15 to 20)
#    0.000    1.667    1.667    3.500    2.333    1.333 
#    0.000    0.833    0.000    0.000    0.000    0.000 
#    0.000    0.000    0.000    0.000    0.000    0.000 
#
# Total GULP energy -267399.519466 kJ/mol
# GULP energy per Si atom -5570.823322 kJ/mol
# Density = 1.938442 g / cm^3
# Si number density = 19.428636 Si / 1000 Ang^3
#
#
#
# Elastic Constant Matrix: (Units=GPa)
#
#
# Indices 1 2 3 4 5 6 
#
# 1 213.4607 16.9430 41.1692 0.0000 0.0000 0.0000
# 2 16.9430 57.3487 -10.4824 0.0000 0.0000 0.0000
# 3 41.1692 -10.4824 48.0863 0.0000 0.0000 0.0000
# 4 0.0000 0.0000 0.0000 16.9015 0.0000 0.0000
# 5 0.0000 0.0000 0.0000 0.0000 50.9867 0.0000
# 6 0.0000 0.0000 0.0000 0.0000 0.0000 27.6682
#
#
#
# Elastic Compliance Matrix: (Units=1/GPa)
#
#
# Indices 1 2 3 4 5 6 
#
# 1 0.006024 -0.002835 -0.005775 0.000000 0.000000 0.000000
# 2 -0.002835 0.019495 0.006677 0.000000 0.000000 0.000000
# 3 -0.005775 0.006677 0.027196 0.000000 0.000000 0.000000
# 4 0.000000 0.000000 0.000000 0.059167 0.000000 0.000000
# 5 0.000000 0.000000 0.000000 0.000000 0.019613 0.000000
# 6 0.000000 0.000000 0.000000 0.000000 0.000000 0.036143
#
#
# Mechanical properties :
#
#
# Convention : Reuss Voigt Hill
#
# Bulk Modulus (GPa) = 20.47147 46.01724 33.24435
# Shear Modulus (GPa) = 26.62605 37.19566 31.91086
#
# Velocity S-wave (km/s) = 3.70598 4.38022 4.05713
# Velocity P-wave (km/s) = 5.37327 7.02271 6.25262
#
# Compressibility (1/GPa) = 0.04884847
#
# Stress axis : x y z
#
# Youngs Moduli (GPa) = 166.01474 51.29439 36.77026
#
# Poissons Ratio (x) = 0.14543 0.21235
# Poissons Ratio (y) = 0.47068 -0.24552
# Poissons Ratio (z) = 0.95876 -0.34250
#
# Static dielectric constant tensor:
#      x y z
#    x 1.745520 0.000000 0.000000 
#    y 0.000000 1.631210 0.000000 
#    z 0.000000 0.000000 1.663580 
# 
# From -- ./inp_files/10472.got.cif
#   From: 2010.05.17/outbox.cif.g08.bks.cpg/sg52_6_cif.got.tgz:10472.got - 2010.06.03 12:15:38.
