data_PCOD9411271
_publ_section_title
;
Structure prediction by ZEFSAII (Michael W. Deem and Ramdas Pophale) SiO2 
 PCOD9411271
Probable space group: P N N A
;
_chemical_formula_sum "Si O2"
_cell_formula_units_Z 48
_cell_length_a 14.742193
_cell_length_b 17.491373
_cell_length_c 8.735498
_cell_angle_alpha 90.000000
_cell_angle_beta 90.000000
_cell_angle_gamma 90.000000
_cell_volume 2252.545967
_symmetry_space_group_name_H-M "P N N A"
_symmetry_group_IT_number 52
_symmetry_cell_setting 'orthorhombic'
loop_
_space_group_symop_operation_xyz
x,y,z
1/2-x,-y,z
x,1/2-y,1/2-z
1/2-x,1/2+y,1/2-z
-x,-y,-z
1/2+x,y,-z
-x,1/2+y,1/2+z
1/2+x,1/2-y,1/2+z
loop_
_atom_site_type_symbol
_atom_site_label
_atom_site_fract_x
_atom_site_fract_y
_atom_site_fract_z
Si Si1 0.691419 0.386501 0.440098
Si Si2 0.357046 0.367669 0.335394
Si Si3 0.371325 0.289791 0.033459
Si Si4 0.242619 0.250000 0.750000
Si Si5 0.553284 0.028776 0.855501
Si Si6 0.750000 0.000000 0.318911
Si Si7 0.437933 0.435936 0.922740
O O1 0.785824 0.386730 0.531981
O O2 0.682383 0.306876 0.351513
O O3 0.623243 0.411508 0.572308
O O4 0.697769 0.444430 0.298513
O O5 0.319997 0.328974 0.178930
O O6 0.406738 0.293662 0.412991
O O7 0.402364 0.449140 0.293904
O O8 0.309441 0.284723 0.881072
O O9 0.446758 0.353130 0.999073
O O10 0.481673 0.067658 0.744485
O O11 0.500000 0.000000 0.000000
O O12 0.668319 0.960582 0.413507
O O13 0.500000 0.500000 0.000000
#
# Coordination Sequence:
#
# PCOD9411271 Si02
#       7
#     8   8   8   4   8   4   8
#     4  11  21  41  70 100 135 185 236 280 354 420
#     4  10  21  41  68  96 133 181 228 286 351 410
#     4  10  22  40  67  96 135 181 228 286 353 408
#     4  10  22  42  72  96 134 188 234 280 358 422
#     4  12  23  40  67 101 136 175 232 286 345 420
#     4  12  22  42  70  96 138 180 232 290 354 420
#     4  12  25  43  70 106 137 183 240 298 352 424
#
# _framework density 21.309222999999999
#
# number of rings (size 3 to 8) (size 9 to 14) (size 15 to 20)
#    0.000    1.000    6.667    0.000    2.333    1.333 
#    0.000    3.333   11.000    0.000    0.000    0.000 
#    0.000    0.000    0.000    0.000    0.000    0.000 
#
# Total GULP energy -267304.773143 kJ/mol
# GULP energy per Si atom -5568.849440 kJ/mol
# Density = 2.126072 g / cm^3
# Si number density = 21.309223 Si / 1000 Ang^3
#
#
#
# Elastic Constant Matrix: (Units=GPa)
#
#
# Indices 1 2 3 4 5 6 
#
# 1 48.5208 28.8922 6.6714 0.0000 0.0000 0.0000
# 2 28.8922 101.2236 25.4938 0.0000 0.0000 0.0000
# 3 6.6714 25.4938 86.0664 0.0000 0.0000 0.0000
# 4 0.0000 0.0000 0.0000 46.6935 0.0000 0.0000
# 5 0.0000 0.0000 0.0000 0.0000 25.7733 0.0000
# 6 0.0000 0.0000 0.0000 0.0000 0.0000 24.3796
#
#
#
# Elastic Compliance Matrix: (Units=1/GPa)
#
#
# Indices 1 2 3 4 5 6 
#
# 1 0.024833 -0.007136 0.000189 0.000000 0.000000 0.000000
# 2 -0.007136 0.012726 -0.003216 0.000000 0.000000 0.000000
# 3 0.000189 -0.003216 0.012557 0.000000 0.000000 0.000000
# 4 0.000000 0.000000 0.000000 0.021416 0.000000 0.000000
# 5 0.000000 0.000000 0.000000 0.000000 0.038800 0.000000
# 6 0.000000 0.000000 0.000000 0.000000 0.000000 0.041018
#
#
# Mechanical properties :
#
#
# Convention : Reuss Voigt Hill
#
# Bulk Modulus (GPa) = 33.56924 39.76949 36.66936
# Shear Modulus (GPa) = 27.53215 31.01950 29.27582
#
# Velocity S-wave (km/s) = 3.59838 3.81948 3.71058
# Velocity P-wave (km/s) = 5.74909 6.17696 5.96686
#
# Compressibility (1/GPa) = 0.02978918
#
# Stress axis : x y z
#
# Youngs Moduli (GPa) = 40.26948 78.58003 79.63654
#
# Poissons Ratio (x) = 0.56071 -0.01503
# Poissons Ratio (y) = 0.28734 0.25615
# Poissons Ratio (z) = -0.00760 0.25275
#
# Static dielectric constant tensor:
#      x y z
#    x 1.649000 0.000000 0.000000 
#    y 0.000000 1.731000 0.000000 
#    z 0.000000 0.000000 1.778010 
# 
# From -- ./inp_files/10526.got.cif
#   From: 2010.05.17/outbox.cif.g08.bks.cpg/sg52_6_cif.got.tgz:10526.got - 2010.06.03 12:15:38.
