data_PCOD9411682
_publ_section_title
;
Structure prediction by ZEFSAII (Michael W. Deem and Ramdas Pophale) SiO2 
 PCOD9411682
Probable space group: P N N A
;
_chemical_formula_sum "Si O2"
_cell_formula_units_Z 60
_cell_length_a 18.685095
_cell_length_b 16.702558
_cell_length_c 8.442608
_cell_angle_alpha 90.000000
_cell_angle_beta 90.000000
_cell_angle_gamma 90.000000
_cell_volume 2634.844100
_symmetry_space_group_name_H-M "P N N A"
_symmetry_group_IT_number 52
_symmetry_cell_setting 'orthorhombic'
loop_
_space_group_symop_operation_xyz
x,y,z
1/2-x,-y,z
x,1/2-y,1/2-z
1/2-x,1/2+y,1/2-z
-x,-y,-z
1/2+x,y,-z
-x,1/2+y,1/2+z
1/2+x,1/2-y,1/2+z
loop_
_atom_site_type_symbol
_atom_site_label
_atom_site_fract_x
_atom_site_fract_y
_atom_site_fract_z
Si Si1 0.531452 0.925528 0.168540
Si Si2 0.047032 0.926658 0.308597
Si Si3 0.696246 0.925037 0.121867
Si Si4 0.334408 0.750000 0.750000
Si Si5 0.538808 0.170852 0.081327
Si Si6 0.211038 0.820436 0.554527
Si Si7 0.292776 0.418026 0.269216
Si Si8 0.948700 0.194303 0.427052
O O1 0.611639 0.945051 0.111595
O O2 0.539313 0.838323 0.251493
O O3 0.502979 0.998759 0.272165
O O4 0.471761 0.904303 0.036264
O O5 0.125839 0.944863 0.253130
O O6 0.050432 0.891482 0.482791
O O7 0.020512 0.850082 0.210644
O O8 0.703320 0.878440 0.289738
O O9 0.750000 0.000000 0.133316
O O10 0.715472 0.885573 0.949768
O O11 0.387421 0.816265 0.825906
O O12 0.282020 0.774287 0.607274
O O13 0.512078 0.251585 0.995922
O O14 0.221951 0.860864 0.382216
O O15 0.133365 0.775945 0.549711
O O16 0.250000 0.500000 0.255475
#
# Coordination Sequence:
#
# PCOD9411682 Si02
#       8
#     8   8   8   4   8   8   8   8
#     4  11  24  40  69 104 141 180 242 289 354 433
#     4  11  22  42  68 101 135 185 227 289 355 425
#     4  10  22  39  69 103 137 186 231 293 355 423
#     4  12  28  44  70  98 144 186 234 308 366 426
#     4  12  24  43  66 100 143 184 230 296 360 434
#     4  10  25  44  68  98 136 186 240 294 352 434
#     4  10  22  42  67 101 140 181 233 295 356 427
#     4  10  23  45  69  97 136 191 236 287 360 437
#
# _framework density 22.771746
#
# number of rings (size 3 to 8) (size 9 to 14) (size 15 to 20)
#    0.000    1.333    2.667    1.600    5.600    2.133 
#    0.000    2.000    0.000    0.000    0.000    0.000 
#    0.000    0.000    0.000    0.000    0.000    0.000 
#
# Total GULP energy -334667.557257 kJ/mol
# GULP energy per Si atom -5577.792621 kJ/mol
# Density = 2.271992 g / cm^3
# Si number density = 22.771746 Si / 1000 Ang^3
#
#
#
# Elastic Constant Matrix: (Units=GPa)
#
#
# Indices 1 2 3 4 5 6 
#
# 1 117.9779 44.5285 34.1997 0.0000 0.0000 0.0000
# 2 44.5285 51.2282 16.3865 0.0000 0.0000 0.0000
# 3 34.1997 16.3865 89.4499 0.0000 0.0000 0.0000
# 4 0.0000 0.0000 0.0000 39.3208 0.0000 0.0000
# 5 0.0000 0.0000 0.0000 0.0000 30.3298 0.0000
# 6 0.0000 0.0000 0.0000 0.0000 0.0000 48.9723
#
#
#
# Elastic Compliance Matrix: (Units=1/GPa)
#
#
# Indices 1 2 3 4 5 6 
#
# 1 0.013415 -0.010644 -0.003179 0.000000 0.000000 0.000000
# 2 -0.010644 0.029180 -0.001276 0.000000 0.000000 0.000000
# 3 -0.003179 -0.001276 0.012629 0.000000 0.000000 0.000000
# 4 0.000000 0.000000 0.000000 0.025432 0.000000 0.000000
# 5 0.000000 0.000000 0.000000 0.000000 0.032971 0.000000
# 6 0.000000 0.000000 0.000000 0.000000 0.000000 0.020420
#
#
# Mechanical properties :
#
#
# Convention : Reuss Voigt Hill
#
# Bulk Modulus (GPa) = 39.95829 49.87618 44.91724
# Shear Modulus (GPa) = 28.97098 34.62733 31.79916
#
# Velocity S-wave (km/s) = 3.57071 3.90375 3.74094
# Velocity P-wave (km/s) = 5.88093 6.50148 6.19898
#
# Compressibility (1/GPa) = 0.02502609
#
# Stress axis : x y z
#
# Youngs Moduli (GPa) = 74.54351 34.26962 79.18454
#
# Poissons Ratio (x) = 0.36475 0.25174
# Poissons Ratio (y) = 0.79341 0.10105
# Poissons Ratio (z) = 0.23699 0.04373
#
# Static dielectric constant tensor:
#      x y z
#    x 1.788220 0.000000 0.000000 
#    y 0.000000 1.841090 0.000000 
#    z 0.000000 0.000000 2.039530 
# 
# From -- ./inp_files/12443.got.cif
#   From: 2010.05.17/outbox.cif.g08.bks.cpg/sg52_7_cif.got.tgz:12443.got - 2010.06.03 12:15:38.
