data_PCOD9411541
_publ_section_title
;
Structure prediction by ZEFSAII (Michael W. Deem and Ramdas Pophale) SiO2 
 PCOD9411541
Probable space group: P N N A
;
_chemical_formula_sum "Si O2"
_cell_formula_units_Z 64
_cell_length_a 18.291466
_cell_length_b 19.932885
_cell_length_c 9.526691
_cell_angle_alpha 90.000000
_cell_angle_beta 90.000000
_cell_angle_gamma 90.000000
_cell_volume 3473.447622
_symmetry_space_group_name_H-M "P N N A"
_symmetry_group_IT_number 52
_symmetry_cell_setting 'orthorhombic'
loop_
_space_group_symop_operation_xyz
x,y,z
1/2-x,-y,z
x,1/2-y,1/2-z
1/2-x,1/2+y,1/2-z
-x,-y,-z
1/2+x,y,-z
-x,1/2+y,1/2+z
1/2+x,1/2-y,1/2+z
loop_
_atom_site_type_symbol
_atom_site_label
_atom_site_fract_x
_atom_site_fract_y
_atom_site_fract_z
Si Si1 0.168699 0.671603 0.620468
Si Si2 0.310088 0.692569 0.444742
Si Si3 0.369623 0.186929 0.552121
Si Si4 0.671509 0.473911 0.828388
Si Si5 0.068717 0.548750 0.964822
Si Si6 0.724730 0.334461 0.874024
Si Si7 0.415945 0.044898 0.862207
Si Si8 0.078745 0.422878 0.433065
O O1 0.250707 0.682556 0.566513
O O2 0.119750 0.732246 0.554265
O O3 0.159938 0.675006 0.788914
O O4 0.143051 0.597374 0.580312
O O5 0.273399 0.670555 0.295624
O O6 0.322867 0.771637 0.427157
O O7 0.381334 0.647197 0.461929
O O8 0.432735 0.130946 0.526396
O O9 0.304168 0.173378 0.442696
O O10 0.750000 0.500000 0.778507
O O11 0.688098 0.404834 0.909846
O O12 0.619661 0.456373 0.699096
O O13 0.632098 0.525813 0.929813
O O14 0.089942 0.535304 0.803941
O O15 0.000000 0.500000 0.000000
O O16 0.493957 0.079841 0.893351
O O17 0.413313 0.974065 0.938740
#
# Coordination Sequence:
#
# PCOD9411541 Si02
#       8
#     8   8   8   8   8   8   8   8
#     4   9  19  34  56  81 105 144 181 225 273 331
#     4   9  19  35  56  82 108 140 186 227 276 319
#     4   9  18  35  54  80 110 141 180 222 276 331
#     4  11  21  35  59  85 110 146 186 227 278 326
#     4  11  21  38  55  81 113 148 184 228 275 330
#     4   9  18  34  54  84 108 140 180 232 273 323
#     4  10  22  38  55  79 113 147 184 223 283 332
#     4  10  22  38  55  80 112 146 181 232 274 330
#
# _framework density 18.425497
#
# number of rings (size 3 to 8) (size 9 to 14) (size 15 to 20)
#    0.000    2.250    2.500    0.000    3.500    1.000 
#    2.250    2.500    0.000    0.000    0.000    0.000 
#    0.000    0.000    0.000    0.000    0.000    0.000 
#
# Total GULP energy -356484.832964 kJ/mol
# GULP energy per Si atom -5570.075515 kJ/mol
# Density = 1.838356 g / cm^3
# Si number density = 18.425497 Si / 1000 Ang^3
#
#
#
# Elastic Constant Matrix: (Units=GPa)
#
#
# Indices 1 2 3 4 5 6 
#
# 1 22.2395 12.8443 0.0070 0.0000 0.0000 0.0000
# 2 12.8443 70.2059 5.3113 0.0000 0.0000 0.0000
# 3 0.0070 5.3113 23.4275 0.0000 0.0000 0.0000
# 4 0.0000 0.0000 0.0000 134.5357 0.0000 0.0000
# 5 0.0000 0.0000 0.0000 0.0000 13.5494 0.0000
# 6 0.0000 0.0000 0.0000 0.0000 0.0000 35.7072
#
#
#
# Elastic Compliance Matrix: (Units=1/GPa)
#
#
# Indices 1 2 3 4 5 6 
#
# 1 0.050380 -0.009377 0.002111 0.000000 0.000000 0.000000
# 2 -0.009377 0.016238 -0.003678 0.000000 0.000000 0.000000
# 3 0.002111 -0.003678 0.043518 0.000000 0.000000 0.000000
# 4 0.000000 0.000000 0.000000 0.007433 0.000000 0.000000
# 5 0.000000 0.000000 0.000000 0.000000 0.073804 0.000000
# 6 0.000000 0.000000 0.000000 0.000000 0.000000 0.028006
#
#
# Mechanical properties :
#
#
# Convention : Reuss Voigt Hill
#
# Bulk Modulus (GPa) = 11.33185 16.91090 14.12137
# Shear Modulus (GPa) = 18.47181 43.27248 30.87214
#
# Velocity S-wave (km/s) = 3.16968 4.85140 4.09774
# Velocity P-wave (km/s) = 4.42259 6.37019 5.48355
#
# Compressibility (1/GPa) = 0.08824688
#
# Stress axis : x y z
#
# Youngs Moduli (GPa) = 19.84916 61.58548 22.97891
#
# Poissons Ratio (x) = 0.57747 -0.04850
# Poissons Ratio (y) = 0.18612 0.08453
# Poissons Ratio (z) = -0.04190 0.22654
#
# Static dielectric constant tensor:
#      x y z
#    x 1.621120 0.000000 0.000000 
#    y 0.000000 1.698610 0.000000 
#    z 0.000000 0.000000 1.621380 
# 
# From -- ./inp_files/12594.got.cif
#   From: 2010.05.17/outbox.cif.g08.bks.cpg/sg52_7_cif.got.tgz:12594.got - 2010.06.03 12:15:38.
