data_PCOD9411375
_publ_section_title
;
Structure prediction by ZEFSAII (Michael W. Deem and Ramdas Pophale) SiO2 
 PCOD9411375
Probable space group: P N N A
;
_chemical_formula_sum "Si O2"
_cell_formula_units_Z 44
_cell_length_a 14.100519
_cell_length_b 25.118534
_cell_length_c 6.583688
_cell_angle_alpha 90.000000
_cell_angle_beta 90.000000
_cell_angle_gamma 90.000000
_cell_volume 2331.839360
_symmetry_space_group_name_H-M "P N N A"
_symmetry_group_IT_number 52
_symmetry_cell_setting 'orthorhombic'
loop_
_space_group_symop_operation_xyz
x,y,z
1/2-x,-y,z
x,1/2-y,1/2-z
1/2-x,1/2+y,1/2-z
-x,-y,-z
1/2+x,y,-z
-x,1/2+y,1/2+z
1/2+x,1/2-y,1/2+z
loop_
_atom_site_type_symbol
_atom_site_label
_atom_site_fract_x
_atom_site_fract_y
_atom_site_fract_z
Si Si1 0.072954 0.967889 0.361743
Si Si2 0.869185 0.123860 0.345260
Si Si3 0.750000 0.000000 0.861837
Si Si4 0.134278 0.687902 0.230719
Si Si5 0.228695 0.382725 0.504604
Si Si6 0.004752 0.383412 0.536527
O O1 0.021395 0.933623 0.183535
O O2 0.128775 0.926527 0.505298
O O3 0.846635 0.995077 0.734438
O O4 0.000000 0.000000 0.500000
O O5 0.882813 0.172748 0.497099
O O6 0.773718 0.133100 0.219599
O O7 0.950464 0.113598 0.178064
O O8 0.758193 0.055319 0.980063
O O9 0.152644 0.750000 0.250000
O O10 0.218974 0.652408 0.331537
O O11 0.041682 0.667507 0.352016
O O12 0.116215 0.378622 0.504869
#
# Coordination Sequence:
#
# PCOD9411375 Si02
#       6
#     8   8   4   8   8   8
#     4  11  24  37  60  94 129 177 217 262 324 393
#     4  10  21  43  63  88 131 166 208 273 327 377
#     4  12  22  40  60  94 138 166 224 270 326 402
#     4  10  23  48  65  93 130 164 221 275 332 399
#     4  11  24  40  64  98 127 169 218 263 332 400
#     4  10  23  43  61  98 124 167 224 266 329 400
#
# _framework density 18.869225
#
# number of rings (size 3 to 8) (size 9 to 14) (size 15 to 20)
#    0.000    1.455    5.455    1.091    5.091    7.273 
#    6.545    0.000    0.000    0.000    0.000    0.000 
#    0.000    0.000    0.000    0.000    0.000    0.000 
#
# Total GULP energy -245563.903823 kJ/mol
# GULP energy per Si atom -5580.997814 kJ/mol
# Density = 1.882628 g / cm^3
# Si number density = 18.869225 Si / 1000 Ang^3
#
#
#
# Elastic Constant Matrix: (Units=GPa)
#
#
# Indices 1 2 3 4 5 6 
#
# 1 126.2539 15.3480 25.8717 0.0000 0.0000 0.0000
# 2 15.3480 99.1723 30.4939 0.0000 0.0000 0.0000
# 3 25.8717 30.4939 105.8730 0.0000 0.0000 0.0000
# 4 0.0000 0.0000 0.0000 11.8744 0.0000 0.0000
# 5 0.0000 0.0000 0.0000 0.0000 15.6998 0.0000
# 6 0.0000 0.0000 0.0000 0.0000 0.0000 12.3275
#
#
#
# Elastic Compliance Matrix: (Units=1/GPa)
#
#
# Indices 1 2 3 4 5 6 
#
# 1 0.008386 -0.000733 -0.001838 0.000000 0.000000 0.000000
# 2 -0.000733 0.011127 -0.003026 0.000000 0.000000 0.000000
# 3 -0.001838 -0.003026 0.010766 0.000000 0.000000 0.000000
# 4 0.000000 0.000000 0.000000 0.084215 0.000000 0.000000
# 5 0.000000 0.000000 0.000000 0.000000 0.063695 0.000000
# 6 0.000000 0.000000 0.000000 0.000000 0.000000 0.081119
#
#
# Mechanical properties :
#
#
# Convention : Reuss Voigt Hill
#
# Bulk Modulus (GPa) = 52.39454 52.74737 52.57096
# Shear Modulus (GPa) = 18.05936 25.28604 21.67270
#
# Velocity S-wave (km/s) = 3.09703 3.66467 3.39274
# Velocity P-wave (km/s) = 6.37309 6.77652 6.57790
#
# Compressibility (1/GPa) = 0.01908596
#
# Stress axis : x y z
#
# Youngs Moduli (GPa) = 119.24195 89.86945 92.88483
#
# Poissons Ratio (x) = 0.06584 0.17075
# Poissons Ratio (y) = 0.08736 0.28106
# Poissons Ratio (z) = 0.21920 0.27193
#
# Static dielectric constant tensor:
#      x y z
#    x 1.636770 0.000000 0.000000 
#    y 0.000000 1.672720 0.000000 
#    z 0.000000 0.000000 1.682860 
# 
# From -- ./inp_files/2392.got.cif
#   From: 2010.05.17/outbox.cif.g08.bks.cpg/sg52_2_cif.got.tgz:2392.got - 2010.06.03 12:15:38.
