data_PCOD9411231
_publ_section_title
;
Structure prediction by ZEFSAII (Michael W. Deem and Ramdas Pophale) SiO2 
 PCOD9411231
Probable space group: P N N A
;
_chemical_formula_sum "Si O2"
_cell_formula_units_Z 60
_cell_length_a 8.195831
_cell_length_b 17.350682
_cell_length_c 17.055318
_cell_angle_alpha 90.000000
_cell_angle_beta 90.000000
_cell_angle_gamma 90.000000
_cell_volume 2425.321776
_symmetry_space_group_name_H-M "P N N A"
_symmetry_group_IT_number 52
_symmetry_cell_setting 'orthorhombic'
loop_
_space_group_symop_operation_xyz
x,y,z
1/2-x,-y,z
x,1/2-y,1/2-z
1/2-x,1/2+y,1/2-z
-x,-y,-z
1/2+x,y,-z
-x,1/2+y,1/2+z
1/2+x,1/2-y,1/2+z
loop_
_atom_site_type_symbol
_atom_site_label
_atom_site_fract_x
_atom_site_fract_y
_atom_site_fract_z
Si Si1 0.620043 0.403871 0.738532
Si Si2 0.250000 0.500000 0.947980
Si Si3 0.206971 0.816516 0.809520
Si Si4 0.507759 0.891292 0.470159
Si Si5 0.014880 0.716534 0.540665
Si Si6 0.356417 0.138388 0.359626
Si Si7 0.411505 0.549831 0.746756
Si Si8 0.188431 0.814625 0.117909
O O1 0.466868 0.346469 0.726101
O O2 0.693380 0.401864 0.826066
O O3 0.543866 0.486700 0.718871
O O4 0.776733 0.373686 0.688708
O O5 0.372181 0.549729 0.001252
O O6 0.368909 0.435191 0.911572
O O7 0.263521 0.750000 0.750000
O O8 0.163648 0.790348 0.897497
O O9 0.339555 0.884719 0.810723
O O10 0.456666 0.805093 0.450495
O O11 0.609943 0.872335 0.549364
O O12 0.062122 0.687537 0.454471
O O13 0.859908 0.672064 0.572951
O O14 0.509682 0.096595 0.318477
O O15 0.337062 0.229733 0.344732
O O16 0.250000 0.500000 0.766566
#
# Coordination Sequence:
#
# PCOD9411231 Si02
#       8
#     8   4   8   8   8   8   8   8
#     4  10  21  42  64  95 132 170 221 279 337 397
#     4  10  22  38  52  82 128 166 220 250 322 384
#     4  10  22  41  66  94 128 176 223 282 336 408
#     4  10  22  37  58  86 124 177 214 266 313 399
#     4  10  21  41  64  91 128 168 227 276 333 394
#     4  11  22  38  63  91 127 176 221 267 330 404
#     4  10  24  41  62  98 134 170 216 281 342 393
#     4  10  22  40  67  94 126 174 223 273 330 400
#
# _framework density 24.738987000000002
#
# number of rings (size 3 to 8) (size 9 to 14) (size 15 to 20)
#    0.000    1.867    0.000    4.000    2.800    5.333 
#    4.800    0.667    0.000    3.200    0.000    0.000 
#    0.000    0.000    0.000    0.000    0.000    0.000 
#
# Total GULP energy -335223.558829 kJ/mol
# GULP energy per Si atom -5587.059314 kJ/mol
# Density = 2.468268 g / cm^3
# Si number density = 24.738987 Si / 1000 Ang^3
#
#
#
# Elastic Constant Matrix: (Units=GPa)
#
#
# Indices 1 2 3 4 5 6 
#
# 1 85.2131 36.5603 14.6544 0.0000 0.0000 0.0000
# 2 36.5603 126.8149 33.8871 0.0000 0.0000 0.0000
# 3 14.6544 33.8871 71.6520 0.0000 0.0000 0.0000
# 4 0.0000 0.0000 0.0000 15.4596 0.0000 0.0000
# 5 0.0000 0.0000 0.0000 0.0000 28.4836 0.0000
# 6 0.0000 0.0000 0.0000 0.0000 0.0000 53.7309
#
#
#
# Elastic Compliance Matrix: (Units=1/GPa)
#
#
# Indices 1 2 3 4 5 6 
#
# 1 0.013460 -0.003600 -0.001050 0.000000 0.000000 0.000000
# 2 -0.003600 0.009989 -0.003988 0.000000 0.000000 0.000000
# 3 -0.001050 -0.003988 0.016057 0.000000 0.000000 0.000000
# 4 0.000000 0.000000 0.000000 0.064685 0.000000 0.000000
# 5 0.000000 0.000000 0.000000 0.000000 0.035108 0.000000
# 6 0.000000 0.000000 0.000000 0.000000 0.000000 0.018611
#
#
# Mechanical properties :
#
#
# Convention : Reuss Voigt Hill
#
# Bulk Modulus (GPa) = 44.98395 50.43152 47.70773
# Shear Modulus (GPa) = 27.38270 32.77337 30.07803
#
# Velocity S-wave (km/s) = 3.33057 3.64368 3.49064
# Velocity P-wave (km/s) = 5.74570 6.17508 5.96426
#
# Compressibility (1/GPa) = 0.02223015
#
# Stress axis : x y z
#
# Youngs Moduli (GPa) = 74.29164 100.11020 62.27726
#
# Poissons Ratio (x) = 0.36039 0.06542
# Poissons Ratio (y) = 0.26744 0.24836
# Poissons Ratio (z) = 0.07804 0.39923
#
# Static dielectric constant tensor:
#      x y z
#    x 2.082740 0.000000 0.000000 
#    y 0.000000 1.996520 0.000000 
#    z 0.000000 0.000000 2.027340 
# 
# From -- ./inp_files/31470.got.cif
#   From: 2010.05.17/outbox.cif.g08.bks.cpg/sg52_16_cif.got.tgz:31470.got - 2010.06.03 12:15:38.
