data_PCOD9411938
_publ_section_title
;
Structure prediction by ZEFSAII (Michael W. Deem and Ramdas Pophale) SiO2 
 PCOD9411938
Probable space group: P N N A
;
_chemical_formula_sum "Si O2"
_cell_formula_units_Z 36
_cell_length_a 22.559621
_cell_length_b 6.107729
_cell_length_c 11.801224
_cell_angle_alpha 90.000000
_cell_angle_beta 90.000000
_cell_angle_gamma 90.000000
_cell_volume 1626.067659
_symmetry_space_group_name_H-M "P N N A"
_symmetry_group_IT_number 52
_symmetry_cell_setting 'orthorhombic'
loop_
_space_group_symop_operation_xyz
x,y,z
1/2-x,-y,z
x,1/2-y,1/2-z
1/2-x,1/2+y,1/2-z
-x,-y,-z
1/2+x,y,-z
-x,1/2+y,1/2+z
1/2+x,1/2-y,1/2+z
loop_
_atom_site_type_symbol
_atom_site_label
_atom_site_fract_x
_atom_site_fract_y
_atom_site_fract_z
Si Si1 0.383301 0.250000 0.250000
Si Si2 0.199419 0.170300 0.878525
Si Si3 0.542905 0.378074 0.631946
Si Si4 0.637558 0.468298 0.956755
Si Si5 0.908372 0.342942 0.376116
O O1 0.423990 0.398865 0.332573
O O2 0.349454 0.415535 0.164607
O O3 0.212182 0.250000 0.750000
O O4 0.250000 0.000000 0.911819
O O5 0.137435 0.041298 0.875472
O O6 0.190515 0.354068 0.974032
O O7 0.535779 0.250000 0.750000
O O8 0.586330 0.214850 0.563820
O O9 0.475241 0.408249 0.592865
O O10 0.613182 0.654007 0.040244
O O11 0.907173 0.250000 0.250000
#
# Coordination Sequence:
#
# PCOD9411938 Si02
#       5
#     4   8   8   8   8
#     4  10  22  42  66 104 140 186 226 278 348 422
#     4  12  27  44  68 102 139 181 235 295 355 418
#     4   9  21  38  67 105 145 184 226 278 345 424
#     4  11  23  42  68 103 141 181 230 285 348 417
#     4  11  22  40  67 105 147 184 225 283 350 420
#
# _framework density 22.139303000000002
#
# number of rings (size 3 to 8) (size 9 to 14) (size 15 to 20)
#    0.000    1.333    2.222    2.667    1.556    5.333 
#    0.000    0.000    0.000    0.000  130.000    0.000 
#    0.000    0.000    0.000    0.000    0.000    0.000 
#
# Total GULP energy -201217.596943 kJ/mol
# GULP energy per Si atom -5589.377693 kJ/mol
# Density = 2.208891 g / cm^3
# Si number density = 22.139303 Si / 1000 Ang^3
#
#
#
# Elastic Constant Matrix: (Units=GPa)
#
#
# Indices 1 2 3 4 5 6 
#
# 1 63.7190 27.9460 53.2884 0.0000 0.0000 0.0000
# 2 27.9460 93.2696 54.8767 0.0000 0.0000 0.0000
# 3 53.2884 54.8767 135.6490 0.0000 0.0000 0.0000
# 4 0.0000 0.0000 0.0000 9.0880 0.0000 0.0000
# 5 0.0000 0.0000 0.0000 0.0000 3.8286 0.0000
# 6 0.0000 0.0000 0.0000 0.0000 0.0000 27.2567
#
#
#
# Elastic Compliance Matrix: (Units=1/GPa)
#
#
# Indices 1 2 3 4 5 6 
#
# 1 0.023691 -0.002129 -0.008445 0.000000 0.000000 0.000000
# 2 -0.002129 0.014262 -0.004933 0.000000 0.000000 0.000000
# 3 -0.008445 -0.004933 0.012685 0.000000 0.000000 0.000000
# 4 0.000000 0.000000 0.000000 0.110035 0.000000 0.000000
# 5 0.000000 0.000000 0.000000 0.000000 0.261191 0.000000
# 6 0.000000 0.000000 0.000000 0.000000 0.000000 0.036688
#
#
# Mechanical properties :
#
#
# Convention : Reuss Voigt Hill
#
# Bulk Modulus (GPa) = 50.96220 62.76219 56.86219
# Shear Modulus (GPa) = 10.07845 18.46978 14.27411
#
# Velocity S-wave (km/s) = 2.13592 2.89148 2.54193
# Velocity P-wave (km/s) = 5.39924 6.28950 5.86130
#
# Compressibility (1/GPa) = 0.01962239
#
# Stress axis : x y z
#
# Youngs Moduli (GPa) = 42.21097 70.11546 78.83151
#
# Poissons Ratio (x) = 0.14931 0.66574
# Poissons Ratio (y) = 0.08989 0.38889
# Poissons Ratio (z) = 0.35648 0.34589
#
# Static dielectric constant tensor:
#      x y z
#    x 1.787550 0.000000 0.000000 
#    y 0.000000 1.853290 0.000000 
#    z 0.000000 0.000000 1.849830 
# 
# From -- ./inp_files/22066.got.cif
#   From: 2010.05.17/outbox.cif.g08.bks.cpg/sg52_12_cif.got.tgz:22066.got - 2010.06.03 12:15:38.
