data_PCOD9411426
_publ_section_title
;
Structure prediction by ZEFSAII (Michael W. Deem and Ramdas Pophale) SiO2 
 PCOD9411426
Probable space group: P N N A
;
_chemical_formula_sum "Si O2"
_cell_formula_units_Z 32
_cell_length_a 28.465529
_cell_length_b 8.389332
_cell_length_c 5.586030
_cell_angle_alpha 90.000000
_cell_angle_beta 90.000000
_cell_angle_gamma 90.000000
_cell_volume 1333.981800
_symmetry_space_group_name_H-M "P N N A"
_symmetry_group_IT_number 52
_symmetry_cell_setting 'orthorhombic'
loop_
_space_group_symop_operation_xyz
x,y,z
1/2-x,-y,z
x,1/2-y,1/2-z
1/2-x,1/2+y,1/2-z
-x,-y,-z
1/2+x,y,-z
-x,1/2+y,1/2+z
1/2+x,1/2-y,1/2+z
loop_
_atom_site_type_symbol
_atom_site_label
_atom_site_fract_x
_atom_site_fract_y
_atom_site_fract_z
Si Si1 0.657673 0.578161 0.634065
Si Si2 0.715783 0.750000 0.250000
Si Si3 0.250000 0.500000 0.091281
Si Si4 0.062411 0.750000 0.750000
Si Si5 0.495514 0.250000 0.250000
Si Si6 0.410951 0.581760 0.655874
O O1 0.644823 0.750000 0.750000
O O2 0.683753 0.622509 0.385970
O O3 0.700465 0.500167 0.775282
O O4 0.613326 0.461892 0.596650
O O5 0.747370 0.840485 0.438223
O O6 0.093557 0.591108 0.775370
O O7 0.033397 0.754518 0.498574
O O8 0.533164 0.390523 0.307046
O O9 0.390728 0.750000 0.750000
#
# Coordination Sequence:
#
# PCOD9411426 Si02
#       6
#     8   4   4   4   4   8
#     4  10  22  46  73 105 149 199 245 315 389 452
#     4  10  21  44  71 100 138 196 248 296 381 447
#     4  10  22  44  78  98 144 198 250 298 388 460
#     4  12  23  52  82 107 162 205 254 330 384 483
#     4  10  26  48  79 115 152 207 260 316 401 460
#     4  10  25  46  77 114 149 198 254 320 383 466
#
# _framework density 23.988334999999999
#
# number of rings (size 3 to 8) (size 9 to 14) (size 15 to 20)
#    0.750    1.000    0.000    3.000    1.750    0.000 
#   27.000    0.000   11.000    0.000    0.000    0.000 
#    0.000    0.000    0.000    0.000    0.000    0.000 
#
# Total GULP energy -178235.619160 kJ/mol
# GULP energy per Si atom -5569.863099 kJ/mol
# Density = 2.393374 g / cm^3
# Si number density = 23.988335 Si / 1000 Ang^3
#
#
#
# Elastic Constant Matrix: (Units=GPa)
#
#
# Indices 1 2 3 4 5 6 
#
# 1 101.1153 74.2345 75.3511 0.0000 0.0000 0.0000
# 2 74.2345 152.1079 44.6408 0.0000 0.0000 0.0000
# 3 75.3511 44.6408 128.2202 0.0000 0.0000 0.0000
# 4 0.0000 0.0000 0.0000 7.2319 0.0000 0.0000
# 5 0.0000 0.0000 0.0000 0.0000 66.7240 0.0000
# 6 0.0000 0.0000 0.0000 0.0000 0.0000 -24.4704
#
#
#
# Elastic Compliance Matrix: (Units=1/GPa)
#
#
# Indices 1 2 3 4 5 6 
#
# 1 0.025023 -0.008795 -0.011643 0.000000 0.000000 0.000000
# 2 -0.008795 0.010414 0.001543 0.000000 0.000000 0.000000
# 3 -0.011643 0.001543 0.014104 0.000000 0.000000 0.000000
# 4 0.000000 0.000000 0.000000 0.138277 0.000000 0.000000
# 5 0.000000 0.000000 0.000000 0.000000 0.014987 0.000000
# 6 0.000000 0.000000 0.000000 0.000000 0.000000 -0.040866
#
#
# Mechanical properties :
#
#
# Convention : Reuss Voigt Hill
#
# Bulk Modulus (GPa) = 85.10338 85.54404 85.32371
# Shear Modulus (GPa) = 24.55219 22.37823 23.46521
#
# Velocity S-wave (km/s) = 3.20270 3.05762 3.13100
# Velocity P-wave (km/s) = 7.01644 6.94287 6.97975
#
# Compressibility (1/GPa) = 0.01175041
#
# Stress axis : x y z
#
# Youngs Moduli (GPa) = 39.96247 96.02583 70.90026
#
# Poissons Ratio (x) = 0.84458 0.82552
# Poissons Ratio (y) = 0.35148 -0.10940
# Poissons Ratio (z) = 0.46530 -0.14817
#
# Static dielectric constant tensor:
#      x y z
#    x 1.989180 0.000000 0.000000 
#    y 0.000000 1.921320 0.000000 
#    z 0.000000 0.000000 2.051250 
# 
# From -- ./inp_files/6196.got.cif
#   From: 2010.05.17/outbox.cif.g08.bks.cpg/sg52_4_cif.got.tgz:6196.got - 2010.06.03 12:15:38.
