data_PCOD9411299
_publ_section_title
;
Structure prediction by ZEFSAII (Michael W. Deem and Ramdas Pophale) SiO2 
 PCOD9411299
Probable space group: P N N A
;
_chemical_formula_sum "Si O2"
_cell_formula_units_Z 32
_cell_length_a 8.975208
_cell_length_b 7.990719
_cell_length_c 20.543170
_cell_angle_alpha 90.000000
_cell_angle_beta 90.000000
_cell_angle_gamma 90.000000
_cell_volume 1473.322566
_symmetry_space_group_name_H-M "P N N A"
_symmetry_group_IT_number 52
_symmetry_cell_setting 'orthorhombic'
loop_
_space_group_symop_operation_xyz
x,y,z
1/2-x,-y,z
x,1/2-y,1/2-z
1/2-x,1/2+y,1/2-z
-x,-y,-z
1/2+x,y,-z
-x,1/2+y,1/2+z
1/2+x,1/2-y,1/2+z
loop_
_atom_site_type_symbol
_atom_site_label
_atom_site_fract_x
_atom_site_fract_y
_atom_site_fract_z
Si Si1 0.750000 0.000000 0.709618
Si Si2 0.472882 0.372385 0.109232
Si Si3 0.126998 0.851448 0.525705
Si Si4 0.766656 0.191097 0.145910
Si Si5 0.010933 0.250000 0.250000
O O1 0.838882 0.120164 0.659877
O O2 0.623156 0.093252 0.750379
O O3 0.510931 0.550395 0.073356
O O4 0.615260 0.299117 0.146991
O O5 0.430162 0.279066 0.042309
O O6 0.190479 0.706522 0.570474
O O7 0.250000 0.000000 0.514629
O O8 0.898941 0.264148 0.189630
O O9 0.750000 0.000000 0.166668
#
# Coordination Sequence:
#
# PCOD9411299 Si02
#       5
#     4   8   8   8   4
#     4  12  26  46  68 100 128 180 230 288 318 392
#     4  10  21  41  73  96 130 173 226 276 328 396
#     4   9  18  40  69 103 127 169 224 274 333 399
#     4  11  26  42  65 100 139 179 212 274 345 406
#     4  12  30  44  66  94 136 180 236 270 334 400
#
# _framework density 21.719615000000001
#
# number of rings (size 3 to 8) (size 9 to 14) (size 15 to 20)
#    0.000    1.500    3.750    0.000    7.000    1.000 
#    0.000    0.000    2.750    0.000    0.000    0.000 
#    0.000    0.000    0.000    0.000    0.000    0.000 
#
# Total GULP energy -178348.793079 kJ/mol
# GULP energy per Si atom -5573.399784 kJ/mol
# Density = 2.167018 g / cm^3
# Si number density = 21.719615 Si / 1000 Ang^3
#
#
#
# Elastic Constant Matrix: (Units=GPa)
#
#
# Indices 1 2 3 4 5 6 
#
# 1 135.4097 16.7545 57.9904 0.0000 0.0000 0.0000
# 2 16.7545 26.3521 7.9477 0.0000 0.0000 0.0000
# 3 57.9904 7.9477 84.6424 0.0000 0.0000 0.0000
# 4 0.0000 0.0000 0.0000 15.0291 0.0000 0.0000
# 5 0.0000 0.0000 0.0000 0.0000 43.2039 0.0000
# 6 0.0000 0.0000 0.0000 0.0000 0.0000 23.6898
#
#
#
# Elastic Compliance Matrix: (Units=1/GPa)
#
#
# Indices 1 2 3 4 5 6 
#
# 1 0.011027 -0.004870 -0.007098 0.000000 0.000000 0.000000
# 2 -0.004870 0.041205 -0.000532 0.000000 0.000000 0.000000
# 3 -0.007098 -0.000532 0.016727 0.000000 0.000000 0.000000
# 4 0.000000 0.000000 0.000000 0.066538 0.000000 0.000000
# 5 0.000000 0.000000 0.000000 0.000000 0.023146 0.000000
# 6 0.000000 0.000000 0.000000 0.000000 0.000000 0.042212
#
#
# Mechanical properties :
#
#
# Convention : Reuss Voigt Hill
#
# Bulk Modulus (GPa) = 22.74867 45.75435 34.25151
# Shear Modulus (GPa) = 20.78928 27.29868 24.04398
#
# Velocity S-wave (km/s) = 3.09717 3.54908 3.33080
# Velocity P-wave (km/s) = 4.82560 6.15681 5.53140
#
# Compressibility (1/GPa) = 0.04395860
#
# Stress axis : x y z
#
# Youngs Moduli (GPa) = 90.68421 24.26904 59.78292
#
# Poissons Ratio (x) = 0.11820 0.42432
# Poissons Ratio (y) = 0.44167 0.03181
# Poissons Ratio (z) = 0.64365 0.01292
#
# Static dielectric constant tensor:
#      x y z
#    x 1.865240 0.000000 0.000000 
#    y 0.000000 1.908230 0.000000 
#    z 0.000000 0.000000 1.814490 
# 
# From -- ./inp_files/35515.got.cif
#   From: 2010.05.17/outbox.cif.g08.bks.cpg/sg52_18_cif.got.tgz:35515.got - 2010.06.03 12:15:38.
