data_PCOD9411906
_publ_section_title
;
Structure prediction by ZEFSAII (Michael W. Deem and Ramdas Pophale) SiO2 
 PCOD9411906
Probable space group: P N N A
;
_chemical_formula_sum "Si O2"
_cell_formula_units_Z 40
_cell_length_a 12.741229
_cell_length_b 9.515267
_cell_length_c 15.387428
_cell_angle_alpha 90.000000
_cell_angle_beta 90.000000
_cell_angle_gamma 90.000000
_cell_volume 1865.513235
_symmetry_space_group_name_H-M "P N N A"
_symmetry_group_IT_number 52
_symmetry_cell_setting 'orthorhombic'
loop_
_space_group_symop_operation_xyz
x,y,z
1/2-x,-y,z
x,1/2-y,1/2-z
1/2-x,1/2+y,1/2-z
-x,-y,-z
1/2+x,y,-z
-x,1/2+y,1/2+z
1/2+x,1/2-y,1/2+z
loop_
_atom_site_type_symbol
_atom_site_label
_atom_site_fract_x
_atom_site_fract_y
_atom_site_fract_z
Si Si1 0.947115 0.580751 0.247750
Si Si2 0.856808 0.266082 0.018657
Si Si3 0.976586 0.916192 0.912381
Si Si4 0.250000 0.500000 0.452817
Si Si5 0.835610 0.376238 0.821953
Si Si6 0.250000 0.000000 0.633702
O O1 0.944362 0.750000 0.250000
O O2 0.846725 0.536595 0.194719
O O3 0.960670 0.497816 0.337611
O O4 0.055950 0.548242 0.200872
O O5 0.789716 0.375513 0.072620
O O6 0.969244 0.233818 0.065024
O O7 0.857119 0.310007 0.917161
O O8 0.793787 0.121167 0.014048
O O9 0.850149 0.934993 0.899854
O O10 0.000000 0.000000 0.000000
O O11 0.750000 0.500000 0.823503
O O12 0.816345 0.250000 0.750000
#
# Coordination Sequence:
#
# PCOD9411906 Si02
#       6
#     8   8   8   4   8   4
#     4  11  27  45  72 103 152 188 250 309 368 446
#     4  11  26  45  72 109 146 200 241 300 380 458
#     4  10  23  43  73 107 136 195 247 299 371 444
#     4  10  22  41  81  98 144 184 258 300 365 441
#     4  11  25  48  74 110 149 188 245 315 374 439
#     4  12  30  47  69 104 152 204 238 304 385 443
#
# _framework density 21.441822999999999
#
# number of rings (size 3 to 8) (size 9 to 14) (size 15 to 20)
#    0.000    1.200    1.000    4.800   16.800    3.200 
#    0.000    0.000    0.000    0.000    0.000    0.000 
#    0.000    0.000    0.000    0.000    0.000    0.000 
#
# Total GULP energy -223249.512562 kJ/mol
# GULP energy per Si atom -5581.237814 kJ/mol
# Density = 2.139302 g / cm^3
# Si number density = 21.441823 Si / 1000 Ang^3
#
#
#
# Elastic Constant Matrix: (Units=GPa)
#
#
# Indices 1 2 3 4 5 6 
#
# 1 150.5368 83.3740 86.1313 0.0000 0.0000 0.0000
# 2 83.3740 96.6224 55.5160 0.0000 0.0000 0.0000
# 3 86.1313 55.5160 157.1098 0.0000 0.0000 0.0000
# 4 0.0000 0.0000 0.0000 36.8704 0.0000 0.0000
# 5 0.0000 0.0000 0.0000 0.0000 38.0114 0.0000
# 6 0.0000 0.0000 0.0000 0.0000 0.0000 -227.1507
#
#
#
# Elastic Compliance Matrix: (Units=1/GPa)
#
#
# Indices 1 2 3 4 5 6 
#
# 1 0.014942 -0.010272 -0.004562 0.000000 0.000000 0.000000
# 2 -0.010272 0.020048 -0.001453 0.000000 0.000000 0.000000
# 3 -0.004562 -0.001453 0.009379 0.000000 0.000000 0.000000
# 4 0.000000 0.000000 0.000000 0.027122 0.000000 0.000000
# 5 0.000000 0.000000 0.000000 0.000000 0.026308 0.000000
# 6 0.000000 0.000000 0.000000 0.000000 0.000000 -0.004402
#
#
# Mechanical properties :
#
#
# Convention : Reuss Voigt Hill
#
# Bulk Modulus (GPa) = 84.77564 94.92352 89.84958
# Shear Modulus (GPa) = 38.49025 -18.50396 9.99314
#
# Velocity S-wave (km/s) = 4.24146 -2.94085 2.16118
# Velocity P-wave (km/s) = 7.97559 5.73018 6.94424
#
# Compressibility (1/GPa) = 0.01179584
#
# Stress axis : x y z
#
# Youngs Moduli (GPa) = 66.92377 49.88008 106.61880
#
# Poissons Ratio (x) = 0.51239 0.48639
# Poissons Ratio (y) = 0.68747 0.15487
# Poissons Ratio (z) = 0.30530 0.07245
#
# Static dielectric constant tensor:
#      x y z
#    x 1.601390 0.000000 0.000000 
#    y 0.000000 1.820680 0.000000 
#    z 0.000000 0.000000 1.519520 
# 
# From -- ./inp_files/25862.got.cif
#   From: 2010.05.17/outbox.cif.g08.bks.cpg/sg52_13_cif.got.tgz:25862.got - 2010.06.03 12:15:38.
