data_PCOD9411807
_publ_section_title
;
Structure prediction by ZEFSAII (Michael W. Deem and Ramdas Pophale) SiO2 
 PCOD9411807
Probable space group: P N N A
;
_chemical_formula_sum "Si O2"
_cell_formula_units_Z 40
_cell_length_a 16.322995
_cell_length_b 8.165612
_cell_length_c 11.798387
_cell_angle_alpha 90.000000
_cell_angle_beta 90.000000
_cell_angle_gamma 90.000000
_cell_volume 1572.574485
_symmetry_space_group_name_H-M "P N N A"
_symmetry_group_IT_number 52
_symmetry_cell_setting 'orthorhombic'
loop_
_space_group_symop_operation_xyz
x,y,z
1/2-x,-y,z
x,1/2-y,1/2-z
1/2-x,1/2+y,1/2-z
-x,-y,-z
1/2+x,y,-z
-x,1/2+y,1/2+z
1/2+x,1/2-y,1/2+z
loop_
_atom_site_type_symbol
_atom_site_label
_atom_site_fract_x
_atom_site_fract_y
_atom_site_fract_z
Si Si1 0.158958 0.033859 0.346282
Si Si2 0.841052 0.444037 0.142365
Si Si3 0.498058 0.578929 0.805182
Si Si4 0.840000 0.437881 0.409049
Si Si5 0.594768 0.394911 0.621445
O O1 0.163650 0.044011 0.209625
O O2 0.117459 0.296381 0.111883
O O3 0.250000 0.000000 0.386799
O O4 0.087491 0.901037 0.363605
O O5 0.750000 0.500000 0.112385
O O6 0.926937 0.526243 0.109624
O O7 0.653644 0.513204 0.277098
O O8 0.845187 0.242913 0.396426
O O9 0.476589 0.750000 0.750000
O O10 0.517633 0.445068 0.703212
O O11 0.750000 0.500000 0.446015
O O12 0.900440 0.515868 0.501632
#
# Coordination Sequence:
#
# PCOD9411807 Si02
#       5
#     8   8   8   8   8
#     4   9  20  38  67 100 139 183 217 293 368 435
#     4  10  24  44  67  93 139 190 242 294 350 411
#     4  10  23  39  66  97 139 186 232 283 363 426
#     4  10  22  40  71  97 129 181 245 290 356 414
#     4   9  21  40  67 100 136 170 237 285 362 430
#
# _framework density 25.435995999999999
#
# number of rings (size 3 to 8) (size 9 to 14) (size 15 to 20)
#    1.200    1.200    0.000    0.600   14.000    0.800 
#    0.000    4.000    0.000    0.000    0.000    0.000 
#    0.000    0.000    0.000    0.000    0.000    0.000 
#
# Total GULP energy -222909.255928 kJ/mol
# GULP energy per Si atom -5572.731398 kJ/mol
# Density = 2.537810 g / cm^3
# Si number density = 25.435996 Si / 1000 Ang^3
#
#
#
# Elastic Constant Matrix: (Units=GPa)
#
#
# Indices 1 2 3 4 5 6 
#
# 1 182.9187 68.0523 19.5042 0.0000 0.0000 0.0000
# 2 68.0523 97.5478 19.3834 0.0000 0.0000 0.0000
# 3 19.5042 19.3834 176.1051 0.0000 0.0000 0.0000
# 4 0.0000 0.0000 0.0000 32.0221 0.0000 0.0000
# 5 0.0000 0.0000 0.0000 0.0000 -141.8611 0.0000
# 6 0.0000 0.0000 0.0000 0.0000 0.0000 34.3028
#
#
#
# Elastic Compliance Matrix: (Units=1/GPa)
#
#
# Indices 1 2 3 4 5 6 
#
# 1 0.007395 -0.005108 -0.000257 0.000000 0.000000 0.000000
# 2 -0.005108 0.014009 -0.000976 0.000000 0.000000 0.000000
# 3 -0.000257 -0.000976 0.005814 0.000000 0.000000 0.000000
# 4 0.000000 0.000000 0.000000 0.031228 0.000000 0.000000
# 5 0.000000 0.000000 0.000000 0.000000 -0.007049 0.000000
# 6 0.000000 0.000000 0.000000 0.000000 0.000000 0.029152
#
#
# Mechanical properties :
#
#
# Convention : Reuss Voigt Hill
#
# Bulk Modulus (GPa) = 68.79372 74.49461 71.64416
# Shear Modulus (GPa) = 50.98121 8.20155 29.59138
#
# Velocity S-wave (km/s) = 4.48179 1.79761 3.41452
# Velocity P-wave (km/s) = 7.34074 5.80165 6.61610
#
# Compressibility (1/GPa) = 0.01453621
#
# Stress axis : x y z
#
# Youngs Moduli (GPa) = 135.23559 71.38483 171.98928
#
# Poissons Ratio (x) = 0.36461 0.04416
# Poissons Ratio (y) = 0.69073 0.16790
# Poissons Ratio (z) = 0.03473 0.06969
#
# Static dielectric constant tensor:
#      x y z
#    x 2.187130 0.000000 0.000000 
#    y 0.000000 2.007700 0.000000 
#    z 0.000000 0.000000 2.060030 
# 
# From -- ./inp_files/37139.got.cif
#   From: 2010.05.17/outbox.cif.g08.bks.cpg/sg52_19_cif.got.tgz:37139.got - 2010.06.03 12:15:38.
