data_PCOD9411801
_publ_section_title
;
Structure prediction by ZEFSAII (Michael W. Deem and Ramdas Pophale) SiO2 
 PCOD9411801
Probable space group: P N N A
;
_chemical_formula_sum "Si O2"
_cell_formula_units_Z 24
_cell_length_a 10.646676
_cell_length_b 5.042481
_cell_length_c 20.060591
_cell_angle_alpha 90.000000
_cell_angle_beta 90.000000
_cell_angle_gamma 90.000000
_cell_volume 1076.966097
_symmetry_space_group_name_H-M "P N N A"
_symmetry_group_IT_number 52
_symmetry_cell_setting 'orthorhombic'
loop_
_space_group_symop_operation_xyz
x,y,z
1/2-x,-y,z
x,1/2-y,1/2-z
1/2-x,1/2+y,1/2-z
-x,-y,-z
1/2+x,y,-z
-x,1/2+y,1/2+z
1/2+x,1/2-y,1/2+z
loop_
_atom_site_type_symbol
_atom_site_label
_atom_site_fract_x
_atom_site_fract_y
_atom_site_fract_z
Si Si1 0.423558 0.250000 0.250000
Si Si2 0.607541 0.067236 0.150451
Si Si3 0.995788 0.413926 0.076231
Si Si4 0.750000 0.500000 0.858606
O O1 0.517970 0.040600 0.215403
O O2 0.329909 0.317718 0.190440
O O3 0.574461 0.358270 0.120383
O O4 0.750000 0.000000 0.169116
O O5 0.572106 0.859154 0.093040
O O6 0.140705 0.372463 0.097914
O O7 0.000000 0.500000 0.000000
#
# Coordination Sequence:
#
# PCOD9411801 Si02
#       4
#     4   8   8   4
#     4  10  22  42  68 104 134 180 232 288 352 406
#     4  11  25  43  69 100 140 178 228 285 350 414
#     4  11  25  44  67 100 134 188 227 281 343 413
#     4  10  22  40  70  94 136 174 232 284 336 404
#
# _framework density 22.284828000000001
#
# number of rings (size 3 to 8) (size 9 to 14) (size 15 to 20)
#    0.000    1.333    0.000    4.000    4.667   13.333 
#    0.000    0.000    0.000    0.000    0.000    0.000 
#    0.000    0.000    0.000    0.000    0.000    0.000 
#
# Total GULP energy -133994.950273 kJ/mol
# GULP energy per Si atom -5583.122928 kJ/mol
# Density = 2.223411 g / cm^3
# Si number density = 22.284828 Si / 1000 Ang^3
#
#
#
# Elastic Constant Matrix: (Units=GPa)
#
#
# Indices 1 2 3 4 5 6 
#
# 1 203.1616 16.4360 43.7547 0.0000 0.0000 0.0000
# 2 16.4360 58.7446 2.5824 0.0000 0.0000 0.0000
# 3 43.7547 2.5824 113.4863 0.0000 0.0000 0.0000
# 4 0.0000 0.0000 0.0000 23.2887 0.0000 0.0000
# 5 0.0000 0.0000 0.0000 0.0000 8.3571 0.0000
# 6 0.0000 0.0000 0.0000 0.0000 0.0000 23.6356
#
#
#
# Elastic Compliance Matrix: (Units=1/GPa)
#
#
# Indices 1 2 3 4 5 6 
#
# 1 0.005488 -0.001444 -0.002083 0.000000 0.000000 0.000000
# 2 -0.001444 0.017420 0.000160 0.000000 0.000000 0.000000
# 3 -0.002083 0.000160 0.009611 0.000000 0.000000 0.000000
# 4 0.000000 0.000000 0.000000 0.042939 0.000000 0.000000
# 5 0.000000 0.000000 0.000000 0.000000 0.119658 0.000000
# 6 0.000000 0.000000 0.000000 0.000000 0.000000 0.042309
#
#
# Mechanical properties :
#
#
# Convention : Reuss Voigt Hill
#
# Bulk Modulus (GPa) = 38.78137 55.65983 47.22060
# Shear Modulus (GPa) = 19.78217 31.89759 25.83988
#
# Velocity S-wave (km/s) = 2.98266 3.78743 3.40888
# Velocity P-wave (km/s) = 5.41313 6.64507 6.06049
#
# Compressibility (1/GPa) = 0.02578558
#
# Stress axis : x y z
#
# Youngs Moduli (GPa) = 182.22953 57.40605 104.04691
#
# Poissons Ratio (x) = 0.08288 0.21672
# Poissons Ratio (y) = 0.26310 -0.01668
# Poissons Ratio (z) = 0.37956 -0.00920
#
# Static dielectric constant tensor:
#      x y z
#    x 1.961530 0.000000 0.000000 
#    y 0.000000 1.878250 0.000000 
#    z 0.000000 0.000000 1.848720 
# 
# From -- ./inp_files/36336.got.cif
#   From: 2010.05.17/outbox.cif.g08.bks.cpg/sg52_19_cif.got.tgz:36336.got - 2010.06.03 12:15:38.
