data_PCOD9411361
_publ_section_title
;
Structure prediction by ZEFSAII (Michael W. Deem and Ramdas Pophale) SiO2 
 PCOD9411361
Probable space group: P N N A
;
_chemical_formula_sum "Si O2"
_cell_formula_units_Z 56
_cell_length_a 14.135972
_cell_length_b 13.030809
_cell_length_c 15.253812
_cell_angle_alpha 90.000000
_cell_angle_beta 90.000000
_cell_angle_gamma 90.000000
_cell_volume 2809.800238
_symmetry_space_group_name_H-M "P N N A"
_symmetry_group_IT_number 52
_symmetry_cell_setting 'orthorhombic'
loop_
_space_group_symop_operation_xyz
x,y,z
1/2-x,-y,z
x,1/2-y,1/2-z
1/2-x,1/2+y,1/2-z
-x,-y,-z
1/2+x,y,-z
-x,1/2+y,1/2+z
1/2+x,1/2-y,1/2+z
loop_
_atom_site_type_symbol
_atom_site_label
_atom_site_fract_x
_atom_site_fract_y
_atom_site_fract_z
Si Si1 0.062653 0.023204 0.669695
Si Si2 0.368020 0.750000 0.250000
Si Si3 0.750000 0.500000 0.284618
Si Si4 0.206694 0.812436 0.916100
Si Si5 0.767841 0.379105 0.618694
Si Si6 0.490382 0.190378 0.603710
Si Si7 0.402256 0.729960 0.927397
Si Si8 0.525198 0.647420 0.691843
O O1 0.057701 0.125774 0.612978
O O2 0.990068 0.046969 0.749280
O O3 0.161230 0.017699 0.721286
O O4 0.047158 0.926094 0.607536
O O5 0.303165 0.682754 0.316496
O O6 0.442089 0.808751 0.311711
O O7 0.775206 0.403582 0.347043
O O8 0.102857 0.763391 0.900686
O O9 0.291067 0.730078 0.906437
O O10 0.228659 0.850350 0.015455
O O11 0.750000 0.500000 0.626559
O O12 0.872815 0.354381 0.650425
O O13 0.559776 0.225255 0.525848
O O14 0.445830 0.831660 0.881790
O O15 0.517459 0.750000 0.750000
#
# Coordination Sequence:
#
# PCOD9411361 Si02
#       8
#     8   4   4   8   8   8   8   8
#     4  11  24  41  69 101 135 176 236 281 349 418
#     4  12  26  46  66 104 142 172 230 296 348 400
#     4  12  24  44  68 104 134 182 240 282 350 416
#     4  12  25  43  68  99 138 183 230 287 351 411
#     4  12  24  43  70  99 135 182 229 279 347 417
#     4  12  25  44  69 101 138 182 230 296 350 411
#     4  11  23  44  68  97 139 181 228 288 346 420
#     4  10  21  42  69  95 133 182 223 277 342 418
#
# _framework density 19.930243999999998
#
# number of rings (size 3 to 8) (size 9 to 14) (size 15 to 20)
#    0.000    0.571    5.714    3.000    0.000    1.143 
#    0.000    2.857    0.000    0.000    0.000    0.000 
#    0.000    0.000    0.000    0.000    0.000    0.000 
#
# Total GULP energy -312282.465633 kJ/mol
# GULP energy per Si atom -5576.472601 kJ/mol
# Density = 1.988488 g / cm^3
# Si number density = 19.930244 Si / 1000 Ang^3
#
#
#
# Elastic Constant Matrix: (Units=GPa)
#
#
# Indices 1 2 3 4 5 6 
#
# 1 79.1178 -6.0331 -1.7956 0.0000 0.0000 0.0000
# 2 -6.0331 64.1642 -3.3578 0.0000 0.0000 0.0000
# 3 -1.7956 -3.3578 46.8939 0.0000 0.0000 0.0000
# 4 0.0000 0.0000 0.0000 311.3505 0.0000 0.0000
# 5 0.0000 0.0000 0.0000 0.0000 23.1640 0.0000
# 6 0.0000 0.0000 0.0000 0.0000 0.0000 26.7172
#
#
#
# Elastic Compliance Matrix: (Units=1/GPa)
#
#
# Indices 1 2 3 4 5 6 
#
# 1 0.012746 0.001229 0.000576 0.000000 0.000000 0.000000
# 2 0.001229 0.015762 0.001176 0.000000 0.000000 0.000000
# 3 0.000576 0.001176 0.021431 0.000000 0.000000 0.000000
# 4 0.000000 0.000000 0.000000 0.003212 0.000000 0.000000
# 5 0.000000 0.000000 0.000000 0.000000 0.043170 0.000000
# 6 0.000000 0.000000 0.000000 0.000000 0.000000 0.037429
#
#
# Mechanical properties :
#
#
# Convention : Reuss Voigt Hill
#
# Bulk Modulus (GPa) = 17.88913 18.64475 18.26694
# Shear Modulus (GPa) = 34.14760 85.67050 59.90905
#
# Velocity S-wave (km/s) = 4.14376 6.56342 5.48859
# Velocity P-wave (km/s) = 5.64710 8.17394 7.02506
#
# Compressibility (1/GPa) = 0.05589988
#
# Stress axis : x y z
#
# Youngs Moduli (GPa) = 78.45513 63.44350 46.66140
#
# Poissons Ratio (x) = -0.07795 -0.02688
# Poissons Ratio (y) = -0.09639 -0.05486
# Poissons Ratio (z) = -0.04519 -0.07459
#
# Static dielectric constant tensor:
#      x y z
#    x 1.789350 0.000000 0.000000 
#    y 0.000000 1.568730 0.000000 
#    z 0.000000 0.000000 1.778580 
# 
# From -- ./inp_files/27312.got.cif
#   From: 2010.05.17/outbox.cif.g08.bks.cpg/sg52_14_cif.got.tgz:27312.got - 2010.06.03 12:15:38.
