data_PCOD9411964
_publ_section_title
;
Structure prediction by ZEFSAII (Michael W. Deem and Ramdas Pophale) SiO2 
 PCOD9411964
Probable space group: P N N A
;
_chemical_formula_sum "Si O2"
_cell_formula_units_Z 32
_cell_length_a 12.456554
_cell_length_b 12.053530
_cell_length_c 9.387205
_cell_angle_alpha 90.000000
_cell_angle_beta 90.000000
_cell_angle_gamma 90.000000
_cell_volume 1409.446094
_symmetry_space_group_name_H-M "P N N A"
_symmetry_group_IT_number 52
_symmetry_cell_setting 'orthorhombic'
loop_
_space_group_symop_operation_xyz
x,y,z
1/2-x,-y,z
x,1/2-y,1/2-z
1/2-x,1/2+y,1/2-z
-x,-y,-z
1/2+x,y,-z
-x,1/2+y,1/2+z
1/2+x,1/2-y,1/2+z
loop_
_atom_site_type_symbol
_atom_site_label
_atom_site_fract_x
_atom_site_fract_y
_atom_site_fract_z
Si Si1 0.463325 0.750000 0.750000
Si Si2 0.851563 0.437409 0.416319
Si Si3 0.560032 0.506436 0.710196
Si Si4 0.253500 0.775232 0.589887
Si Si5 0.750000 0.000000 0.572947
O O1 0.526533 0.635122 0.736092
O O2 0.381285 0.760061 0.614870
O O3 0.750000 0.500000 0.348382
O O4 0.888312 0.506585 0.553981
O O5 0.808549 0.323900 0.485833
O O6 0.949295 0.438155 0.305317
O O7 0.646758 0.475128 0.828170
O O8 0.212512 0.750000 0.750000
O O9 0.229501 0.892257 0.522482
#
# Coordination Sequence:
#
# PCOD9411964 Si02
#       5
#     4   8   8   8   4
#     4  10  22  42  68 100 142 190 234 298 376 416
#     4  11  21  47  72 102 146 189 234 294 385 427
#     4  11  24  42  75 107 143 187 242 311 355 448
#     4  10  25  44  72 100 145 193 237 308 365 428
#     4  12  26  48  72 114 144 188 264 298 358 446
#
# _framework density 22.703954
#
# number of rings (size 3 to 8) (size 9 to 14) (size 15 to 20)
#    0.750    0.500    3.750    1.500    5.250    1.000 
#    4.500    0.000    0.000    0.000    0.000    0.000 
#    0.000    0.000    0.000    0.000    0.000    0.000 
#
# Total GULP energy -178580.857732 kJ/mol
# GULP energy per Si atom -5580.651804 kJ/mol
# Density = 2.265228 g / cm^3
# Si number density = 22.703954 Si / 1000 Ang^3
#
#
#
# Elastic Constant Matrix: (Units=GPa)
#
#
# Indices 1 2 3 4 5 6 
#
# 1 135.8641 49.7402 53.0959 0.0000 0.0000 0.0000
# 2 49.7402 119.2642 26.2750 0.0000 0.0000 0.0000
# 3 53.0959 26.2750 81.2268 0.0000 0.0000 0.0000
# 4 0.0000 0.0000 0.0000 22.4954 0.0000 0.0000
# 5 0.0000 0.0000 0.0000 0.0000 20.4484 0.0000
# 6 0.0000 0.0000 0.0000 0.0000 0.0000 41.6549
#
#
#
# Elastic Compliance Matrix: (Units=1/GPa)
#
#
# Indices 1 2 3 4 5 6 
#
# 1 0.010919 -0.003210 -0.006099 0.000000 0.000000 0.000000
# 2 -0.003210 0.009972 -0.001127 0.000000 0.000000 0.000000
# 3 -0.006099 -0.001127 0.016663 0.000000 0.000000 0.000000
# 4 0.000000 0.000000 0.000000 0.044454 0.000000 0.000000
# 5 0.000000 0.000000 0.000000 0.000000 0.048904 0.000000
# 6 0.000000 0.000000 0.000000 0.000000 0.000000 0.024007
#
#
# Mechanical properties :
#
#
# Convention : Reuss Voigt Hill
#
# Bulk Modulus (GPa) = 59.95001 66.06413 63.00707
# Shear Modulus (GPa) = 27.57083 30.73600 29.15342
#
# Velocity S-wave (km/s) = 3.48855 3.68336 3.58728
# Velocity P-wave (km/s) = 6.53369 6.87392 6.70596
#
# Compressibility (1/GPa) = 0.01668056
#
# Stress axis : x y z
#
# Youngs Moduli (GPa) = 91.58257 100.28131 60.01437
#
# Poissons Ratio (x) = 0.32193 0.36603
# Poissons Ratio (y) = 0.29400 0.06765
# Poissons Ratio (z) = 0.55857 0.11304
#
# Static dielectric constant tensor:
#      x y z
#    x 1.864370 0.000000 0.000000 
#    y 0.000000 2.019710 0.000000 
#    z 0.000000 0.000000 1.939650 
# 
# From -- ./inp_files/9644.got.cif
#   From: 2010.05.17/outbox.cif.g08.bks.cpg/sg52_5_cif.got.tgz:9644.got - 2010.06.03 12:15:38.
