data_PCOD9411229
_publ_section_title
;
Structure prediction by ZEFSAII (Michael W. Deem and Ramdas Pophale) SiO2 
 PCOD9411229
Probable space group: P N N A
;
_chemical_formula_sum "Si O2"
_cell_formula_units_Z 48
_cell_length_a 32.095631
_cell_length_b 8.254968
_cell_length_c 7.916693
_cell_angle_alpha 90.000000
_cell_angle_beta 90.000000
_cell_angle_gamma 90.000000
_cell_volume 2097.515198
_symmetry_space_group_name_H-M "P N N A"
_symmetry_group_IT_number 52
_symmetry_cell_setting 'orthorhombic'
loop_
_space_group_symop_operation_xyz
x,y,z
1/2-x,-y,z
x,1/2-y,1/2-z
1/2-x,1/2+y,1/2-z
-x,-y,-z
1/2+x,y,-z
-x,1/2+y,1/2+z
1/2+x,1/2-y,1/2+z
loop_
_atom_site_type_symbol
_atom_site_label
_atom_site_fract_x
_atom_site_fract_y
_atom_site_fract_z
Si Si1 0.803232 0.636573 0.456504
Si Si2 0.435047 0.678906 0.028255
Si Si3 0.134877 0.250000 0.250000
Si Si4 0.714609 0.762817 0.947481
Si Si5 0.076792 0.999126 0.819942
Si Si6 0.168012 0.578433 0.811528
Si Si7 0.011163 0.750000 0.750000
O O1 0.836758 0.704617 0.589307
O O2 0.760796 0.736470 0.472316
O O3 0.799457 0.448453 0.520219
O O4 0.814555 0.587927 0.262567
O O5 0.424321 0.862024 0.962290
O O6 0.435509 0.578407 0.858220
O O7 0.398669 0.629243 0.159178
O O8 0.479002 0.668057 0.121020
O O9 0.721533 0.750000 0.750000
O O10 0.682060 0.617463 0.997745
O O11 0.122000 0.926814 0.771581
O O12 0.042017 0.865537 0.854043
O O13 0.187621 0.750000 0.750000
#
# Coordination Sequence:
#
# PCOD9411229 Si02
#       7
#     8   8   4   8   8   8   4
#     4  10  21  41  63  91 127 175 217 276 338 394
#     4  10  24  38  63 101 127 166 220 268 336 405
#     4  11  20  40  64  90 130 168 214 268 336 405
#     4  10  22  40  62  94 130 170 227 279 328 400
#     4  11  21  41  64  95 131 169 216 273 333 403
#     4  10  21  41  65  92 130 173 226 273 336 395
#     4  11  22  42  68  88 132 174 212 272 332 411
#
# _framework density 22.884219000000002
#
# number of rings (size 3 to 8) (size 9 to 14) (size 15 to 20)
#    0.000    1.667    3.333    1.000    2.333    0.000 
#    0.000   20.000    3.667    0.000    0.000    0.000 
#    0.000    0.000    0.000    0.000    0.000    0.000 
#
# Total GULP energy -267220.199462 kJ/mol
# GULP energy per Si atom -5567.087489 kJ/mol
# Density = 2.283213 g / cm^3
# Si number density = 22.884219 Si / 1000 Ang^3
#
#
#
# Elastic Constant Matrix: (Units=GPa)
#
#
# Indices 1 2 3 4 5 6 
#
# 1 143.6347 15.4096 18.6728 0.0000 0.0000 0.0000
# 2 15.4096 54.6643 -14.5677 0.0000 0.0000 0.0000
# 3 18.6728 -14.5677 54.1149 0.0000 0.0000 0.0000
# 4 0.0000 0.0000 0.0000 -3.2807 0.0000 0.0000
# 5 0.0000 0.0000 0.0000 0.0000 32.3930 0.0000
# 6 0.0000 0.0000 0.0000 0.0000 0.0000 21.5958
#
#
#
# Elastic Compliance Matrix: (Units=1/GPa)
#
#
# Indices 1 2 3 4 5 6 
#
# 1 0.007754 -0.003123 -0.003516 0.000000 0.000000 0.000000
# 2 -0.003123 0.020965 0.006721 0.000000 0.000000 0.000000
# 3 -0.003516 0.006721 0.021502 0.000000 0.000000 0.000000
# 4 0.000000 0.000000 0.000000 -0.304813 0.000000 0.000000
# 5 0.000000 0.000000 0.000000 0.000000 0.030871 0.000000
# 6 0.000000 0.000000 0.000000 0.000000 0.000000 0.046305
#
#
# Mechanical properties :
#
#
# Convention : Reuss Voigt Hill
#
# Bulk Modulus (GPa) = 19.84705 32.38259 26.11482
# Shear Modulus (GPa) = -31.09749 25.66824 -2.71463
#
# Velocity S-wave (km/s) = -3.69033 3.35275 -1.09033
# Velocity P-wave (km/s) = 3.07676 5.40085 3.13869
#
# Compressibility (1/GPa) = 0.05038533
#
# Stress axis : x y z
#
# Youngs Moduli (GPa) = 128.96089 47.69840 46.50741
#
# Poissons Ratio (x) = 0.14896 0.16354
# Poissons Ratio (y) = 0.40275 -0.31260
# Poissons Ratio (z) = 0.45348 -0.32060
#
# Static dielectric constant tensor:
#      x y z
#    x 1.881590 0.000000 0.000000 
#    y 0.000000 1.900210 0.000000 
#    z 0.000000 0.000000 2.264890 
# 
# From -- ./inp_files/15598.got.cif
#   From: 2010.05.17/outbox.cif.g08.bks.cpg/sg52_8_cif.got.tgz:15598.got - 2010.06.03 12:15:38.
