data_PCOD9411278
_publ_section_title
;
Structure prediction by ZEFSAII (Michael W. Deem and Ramdas Pophale) SiO2 
 PCOD9411278
Probable space group: P N N A
;
_chemical_formula_sum "Si O2"
_cell_formula_units_Z 48
_cell_length_a 8.019974
_cell_length_b 10.117310
_cell_length_c 30.039862
_cell_angle_alpha 90.000000
_cell_angle_beta 90.000000
_cell_angle_gamma 90.000000
_cell_volume 2437.451320
_symmetry_space_group_name_H-M "P N N A"
_symmetry_group_IT_number 52
_symmetry_cell_setting 'orthorhombic'
loop_
_space_group_symop_operation_xyz
x,y,z
1/2-x,-y,z
x,1/2-y,1/2-z
1/2-x,1/2+y,1/2-z
-x,-y,-z
1/2+x,y,-z
-x,1/2+y,1/2+z
1/2+x,1/2-y,1/2+z
loop_
_atom_site_type_symbol
_atom_site_label
_atom_site_fract_x
_atom_site_fract_y
_atom_site_fract_z
Si Si1 0.250000 0.500000 0.386151
Si Si2 0.325370 0.718119 0.160140
Si Si3 0.750000 0.500000 0.227067
Si Si4 0.038965 0.750000 0.750000
Si Si5 0.440551 0.543655 0.548976
Si Si6 0.250000 0.500000 0.019492
Si Si7 0.995868 0.957922 0.351832
Si Si8 0.454727 0.646117 0.943806
O O1 0.275444 0.637973 0.359263
O O2 0.416766 0.498641 0.416352
O O3 0.417407 0.739740 0.207387
O O4 0.156751 0.632056 0.158656
O O5 0.453128 0.610837 0.137735
O O6 0.841475 0.379923 0.252680
O O7 0.612015 0.447186 0.192630
O O8 0.250000 0.500000 0.557673
O O9 0.500000 0.500000 0.500000
O O10 0.440248 0.700189 0.551653
O O11 0.356496 0.403856 0.050194
O O12 0.360231 0.584194 0.985568
O O13 0.902974 0.901328 0.395069
#
# Coordination Sequence:
#
# PCOD9411278 Si02
#       8
#     4   8   4   4   8   4   8   8
#     4  12  26  44  70 100 140 184 232 288 348 426
#     4  10  23  43  67  97 130 180 223 277 354 423
#     4  10  23  42  68 103 132 172 221 286 340 415
#     4  10  24  44  68 100 138 172 222 286 350 422
#     4  12  26  43  66  95 139 188 231 284 357 413
#     4  10  23  34  64  91 122 164 225 280 332 385
#     4  10  21  41  69  90 130 176 225 275 339 410
#     4  11  22  41  61  94 125 174 224 284 330 408
#
# _framework density 19.692699999999999
#
# number of rings (size 3 to 8) (size 9 to 14) (size 15 to 20)
#    0.000    1.333    2.500    2.500    0.000   10.000 
#    1.500    0.000    0.000    0.000    0.000    0.000 
#    0.000    0.000    0.000    0.000    0.000    0.000 
#
# Total GULP energy -267659.993343 kJ/mol
# GULP energy per Si atom -5576.249861 kJ/mol
# Density = 1.964788 g / cm^3
# Si number density = 19.692700 Si / 1000 Ang^3
#
#
#
# Elastic Constant Matrix: (Units=GPa)
#
#
# Indices 1 2 3 4 5 6 
#
# 1 111.7505 55.3916 27.8657 0.0000 0.0000 0.0000
# 2 55.3916 167.6507 58.3075 0.0000 0.0000 0.0000
# 3 27.8657 58.3075 71.3191 0.0000 0.0000 0.0000
# 4 0.0000 0.0000 0.0000 38.7719 0.0000 0.0000
# 5 0.0000 0.0000 0.0000 0.0000 40.5342 0.0000
# 6 0.0000 0.0000 0.0000 0.0000 0.0000 31.7152
#
#
#
# Elastic Compliance Matrix: (Units=1/GPa)
#
#
# Indices 1 2 3 4 5 6 
#
# 1 0.010870 -0.002954 -0.001832 0.000000 0.000000 0.000000
# 2 -0.002954 0.009138 -0.006316 0.000000 0.000000 0.000000
# 3 -0.001832 -0.006316 0.019901 0.000000 0.000000 0.000000
# 4 0.000000 0.000000 0.000000 0.025792 0.000000 0.000000
# 5 0.000000 0.000000 0.000000 0.000000 0.024671 0.000000
# 6 0.000000 0.000000 0.000000 0.000000 0.000000 0.031531
#
#
# Mechanical properties :
#
#
# Convention : Reuss Voigt Hill
#
# Bulk Modulus (GPa) = 56.48471 70.42778 63.45624
# Shear Modulus (GPa) = 33.33179 36.14795 34.73987
#
# Velocity S-wave (km/s) = 4.11858 4.28904 4.20467
# Velocity P-wave (km/s) = 7.16675 7.76974 7.47433
#
# Compressibility (1/GPa) = 0.01770391
#
# Stress axis : x y z
#
# Youngs Moduli (GPa) = 91.99980 109.43788 50.24856
#
# Poissons Ratio (x) = 0.32331 0.09204
# Poissons Ratio (y) = 0.27179 0.31738
# Poissons Ratio (z) = 0.16851 0.69124
#
# Static dielectric constant tensor:
#      x y z
#    x 1.733990 0.000000 0.000000 
#    y 0.000000 1.679470 0.000000 
#    z 0.000000 0.000000 1.681850 
# 
# From -- ./inp_files/44480.got.cif
#   From: 2010.05.17/outbox.cif.g08.bks.cpg/sg52_23_cif.got.tgz:44480.got - 2010.06.03 12:15:38.
