data_PCOD9411456
_publ_section_title
;
Structure prediction by ZEFSAII (Michael W. Deem and Ramdas Pophale) SiO2 
 PCOD9411456
Probable space group: P N N A
;
_chemical_formula_sum "Si O2"
_cell_formula_units_Z 32
_cell_length_a 8.865826
_cell_length_b 24.165308
_cell_length_c 4.610242
_cell_angle_alpha 90.000000
_cell_angle_beta 90.000000
_cell_angle_gamma 90.000000
_cell_volume 987.723215
_symmetry_space_group_name_H-M "P N N A"
_symmetry_group_IT_number 52
_symmetry_cell_setting 'orthorhombic'
loop_
_space_group_symop_operation_xyz
x,y,z
1/2-x,-y,z
x,1/2-y,1/2-z
1/2-x,1/2+y,1/2-z
-x,-y,-z
1/2+x,y,-z
-x,1/2+y,1/2+z
1/2+x,1/2-y,1/2+z
loop_
_atom_site_type_symbol
_atom_site_label
_atom_site_fract_x
_atom_site_fract_y
_atom_site_fract_z
Si Si1 0.841586 0.614051 0.176127
Si Si2 0.379579 0.809403 0.250821
Si Si3 0.394832 0.336548 0.312137
Si Si4 0.539889 0.556486 0.346019
O O1 0.024381 0.702996 0.545971
O O2 0.736164 0.651939 0.934272
O O3 0.712644 0.566689 0.267096
O O4 0.009466 0.604473 0.404821
O O5 0.294505 0.750000 0.250000
O O6 0.276019 0.843166 0.980999
O O7 0.469984 0.828372 0.551177
O O8 0.571586 0.426726 0.911139
O O9 0.500000 0.500000 0.500000
#
# Coordination Sequence:
#
# PCOD9411456 Si02
#       4
#     8   8   8   8
#     4  10  24  44  73 108 150 190 251 309 374 459
#     4  12  28  46  73 104 148 203 249 313 385 432
#     4  10  24  46  67 106 150 183 255 312 353 473
#     4  10  21  46  76 108 151 187 241 315 380 453
#
# _framework density 32.397737999999997
#
# number of rings (size 3 to 8) (size 9 to 14) (size 15 to 20)
#    1.500    0.000    2.500    0.750    7.000    0.000 
#    0.000    7.500    0.000    0.000    0.000    0.000 
#    0.000    0.000    0.000    0.000    0.000    0.000 
#
# Total GULP energy -178540.819174 kJ/mol
# GULP energy per Si atom -5579.400599 kJ/mol
# Density = 3.232400 g / cm^3
# Si number density = 32.397738 Si / 1000 Ang^3
#
#
#
# Elastic Constant Matrix: (Units=GPa)
#
#
# Indices 1 2 3 4 5 6 
#
# 1 453.6025 46.7517 141.7287 0.0000 0.0000 0.0000
# 2 46.7517 216.2158 74.4980 0.0000 0.0000 0.0000
# 3 141.7287 74.4980 363.4741 0.0000 0.0000 0.0000
# 4 0.0000 0.0000 0.0000 66.7376 0.0000 0.0000
# 5 0.0000 0.0000 0.0000 0.0000 117.6157 0.0000
# 6 0.0000 0.0000 0.0000 0.0000 0.0000 33.4927
#
#
#
# Elastic Compliance Matrix: (Units=1/GPa)
#
#
# Indices 1 2 3 4 5 6 
#
# 1 0.002520 -0.000222 -0.000937 0.000000 0.000000 0.000000
# 2 -0.000222 0.004996 -0.000937 0.000000 0.000000 0.000000
# 3 -0.000937 -0.000937 0.003309 0.000000 0.000000 0.000000
# 4 0.000000 0.000000 0.000000 0.014984 0.000000 0.000000
# 5 0.000000 0.000000 0.000000 0.000000 0.008502 0.000000
# 6 0.000000 0.000000 0.000000 0.000000 0.000000 0.029857
#
#
# Mechanical properties :
#
#
# Convention : Reuss Voigt Hill
#
# Bulk Modulus (GPa) = 150.78913 173.24991 162.01952
# Shear Modulus (GPa) = 70.84902 94.92347 82.88624
#
# Velocity S-wave (km/s) = 4.68145 5.41877 5.06355
# Velocity P-wave (km/s) = 8.71008 9.63030 9.18173
#
# Compressibility (1/GPa) = 0.00663178
#
# Stress axis : x y z
#
# Youngs Moduli (GPa) = 396.77901 200.15989 302.22343
#
# Poissons Ratio (x) = 0.04444 0.28325
# Poissons Ratio (y) = 0.08810 0.28331
# Poissons Ratio (z) = 0.37187 0.18763
#
# Static dielectric constant tensor:
#      x y z
#    x 2.654830 0.000000 0.000000 
#    y 0.000000 3.515570 0.000000 
#    z 0.000000 0.000000 2.585720 
# 
# From -- ./inp_files/445.got.cif
#   From: 2010.05.17/outbox.cif.g08.bks.cpg/sg52_1_cif.got.tgz:445.got - 2010.06.03 12:15:38.
