data_PCOD9411150
_publ_section_title
;
Structure prediction by ZEFSAII (Michael W. Deem and Ramdas Pophale) SiO2 
 PCOD9411150
Probable space group: P N N A
;
_chemical_formula_sum "Si O2"
_cell_formula_units_Z 40
_cell_length_a 24.967448
_cell_length_b 8.093665
_cell_length_c 9.418192
_cell_angle_alpha 90.000000
_cell_angle_beta 90.000000
_cell_angle_gamma 90.000000
_cell_volume 1903.210910
_symmetry_space_group_name_H-M "P N N A"
_symmetry_group_IT_number 52
_symmetry_cell_setting 'orthorhombic'
loop_
_space_group_symop_operation_xyz
x,y,z
1/2-x,-y,z
x,1/2-y,1/2-z
1/2-x,1/2+y,1/2-z
-x,-y,-z
1/2+x,y,-z
-x,1/2+y,1/2+z
1/2+x,1/2-y,1/2+z
loop_
_atom_site_type_symbol
_atom_site_label
_atom_site_fract_x
_atom_site_fract_y
_atom_site_fract_z
Si Si1 0.448564 0.576485 0.426095
Si Si2 0.796983 0.627884 0.879334
Si Si3 0.078346 0.443249 0.101834
Si Si4 0.876977 0.271067 0.578252
Si Si5 0.767246 0.190499 0.092048
O O1 0.500000 0.500000 0.500000
O O2 0.451249 0.560076 0.254019
O O3 0.438937 0.768611 0.467242
O O4 0.399733 0.452009 0.459310
O O5 0.750000 0.500000 0.854766
O O6 0.791346 0.750000 0.750000
O O7 0.857814 0.572059 0.874790
O O8 0.782987 0.710040 0.028834
O O9 0.079709 0.627266 0.033710
O O10 0.872512 0.250000 0.750000
O O11 0.818979 0.265342 0.504470
O O12 0.779061 0.250000 0.250000
O O13 0.750000 0.000000 0.086351
#
# Coordination Sequence:
#
# PCOD9411150 Si02
#       5
#     8   8   8   8   8
#     4  10  21  40  65  97 129 167 220 297 342 381
#     4  12  22  37  70 102 132 177 225 275 338 410
#     4  10  21  40  68  98 131 169 234 276 332 420
#     4  10  22  43  69  97 129 174 234 279 328 412
#     4  12  26  40  60  95 144 182 216 272 345 417
#
# _framework density 21.017112000000001
#
# number of rings (size 3 to 8) (size 9 to 14) (size 15 to 20)
#    0.000    1.200    4.000    3.000    5.600    0.800 
#    3.600    0.000    0.000    0.000    0.000    0.000 
#    0.000    0.000    0.000    0.000    0.000    0.000 
#
# Total GULP energy -223119.571555 kJ/mol
# GULP energy per Si atom -5577.989289 kJ/mol
# Density = 2.096928 g / cm^3
# Si number density = 21.017112 Si / 1000 Ang^3
#
#
#
# Elastic Constant Matrix: (Units=GPa)
#
#
# Indices 1 2 3 4 5 6 
#
# 1 91.2303 15.9962 34.9266 0.0000 0.0000 0.0000
# 2 15.9962 93.3059 -5.7622 0.0000 0.0000 0.0000
# 3 34.9266 -5.7622 42.9780 0.0000 0.0000 0.0000
# 4 0.0000 0.0000 0.0000 33.2052 0.0000 0.0000
# 5 0.0000 0.0000 0.0000 0.0000 24.5599 0.0000
# 6 0.0000 0.0000 0.0000 0.0000 0.0000 35.8386
#
#
#
# Elastic Compliance Matrix: (Units=1/GPa)
#
#
# Indices 1 2 3 4 5 6 
#
# 1 0.017175 -0.003838 -0.014472 0.000000 0.000000 0.000000
# 2 -0.003838 0.011665 0.004683 0.000000 0.000000 0.000000
# 3 -0.014472 0.004683 0.035656 0.000000 0.000000 0.000000
# 4 0.000000 0.000000 0.000000 0.030116 0.000000 0.000000
# 5 0.000000 0.000000 0.000000 0.000000 0.040717 0.000000
# 6 0.000000 0.000000 0.000000 0.000000 0.000000 0.027903
#
#
# Mechanical properties :
#
#
# Convention : Reuss Voigt Hill
#
# Bulk Modulus (GPa) = 26.85157 35.31503 31.08330
# Shear Modulus (GPa) = 24.64286 30.87764 27.76025
#
# Velocity S-wave (km/s) = 3.42791 3.83713 3.63828
# Velocity P-wave (km/s) = 5.33585 6.03911 5.69834
#
# Compressibility (1/GPa) = 0.03724178
#
# Stress axis : x y z
#
# Youngs Moduli (GPa) = 58.22553 85.72924 28.04558
#
# Poissons Ratio (x) = 0.32904 0.40587
# Poissons Ratio (y) = 0.22347 -0.13134
# Poissons Ratio (z) = 0.84262 -0.40147
#
# Static dielectric constant tensor:
#      x y z
#    x 1.678450 0.000000 0.000000 
#    y 0.000000 1.941640 0.000000 
#    z 0.000000 0.000000 1.722260 
# 
# From -- ./inp_files/13961.got.cif
#   From: 2010.05.17/outbox.cif.g08.bks.cpg/sg52_7_cif.got.tgz:13961.got - 2010.06.03 12:15:38.
