data_PCOD9411296
_publ_section_title
;
Structure prediction by ZEFSAII (Michael W. Deem and Ramdas Pophale) SiO2 
 PCOD9411296
Probable space group: P N N A
;
_chemical_formula_sum "Si O2"
_cell_formula_units_Z 64
_cell_length_a 8.562221
_cell_length_b 28.511455
_cell_length_c 11.275663
_cell_angle_alpha 90.000000
_cell_angle_beta 90.000000
_cell_angle_gamma 90.000000
_cell_volume 2752.630398
_symmetry_space_group_name_H-M "P N N A"
_symmetry_group_IT_number 52
_symmetry_cell_setting 'orthorhombic'
loop_
_space_group_symop_operation_xyz
x,y,z
1/2-x,-y,z
x,1/2-y,1/2-z
1/2-x,1/2+y,1/2-z
-x,-y,-z
1/2+x,y,-z
-x,1/2+y,1/2+z
1/2+x,1/2-y,1/2+z
loop_
_atom_site_type_symbol
_atom_site_label
_atom_site_fract_x
_atom_site_fract_y
_atom_site_fract_z
Si Si1 0.435222 0.169950 0.463557
Si Si2 0.874307 0.838293 0.935530
Si Si3 0.687349 0.582448 0.115763
Si Si4 0.850568 0.546487 0.902827
Si Si5 0.864207 0.387300 0.745369
Si Si6 0.301293 0.389229 0.619657
Si Si7 0.383568 0.033671 0.069497
Si Si8 0.337508 0.734260 0.112387
O O1 0.355101 0.130260 0.545449
O O2 0.467502 0.141698 0.340009
O O3 0.331769 0.213352 0.416075
O O4 0.557731 0.193471 0.553629
O O5 0.733036 0.854272 0.846734
O O6 0.876076 0.782992 0.949764
O O7 0.035496 0.860466 0.889560
O O8 0.835360 0.858563 0.064145
O O9 0.534814 0.548641 0.117826
O O10 0.723344 0.594599 0.248828
O O11 0.823475 0.559181 0.040259
O O12 0.750000 0.500000 0.881847
O O13 0.770723 0.587047 0.823459
O O14 0.939073 0.430020 0.670039
O O15 0.312964 0.433356 0.532238
O O16 0.250000 0.000000 0.120656
O O17 0.500000 0.000000 0.000000
O O18 0.357901 0.750000 0.250000
#
# Coordination Sequence:
#
# PCOD9411296 Si02
#       8
#     8   8   8   8   8   8   8   8
#     4  11  24  46  70 109 135 194 238 292 372 429
#     4  11  22  45  69 103 136 193 227 297 369 423
#     4  11  24  45  66  97 140 182 230 297 359 426
#     4  11  23  42  69  98 132 184 237 287 354 428
#     4  10  21  41  72  94 143 182 227 288 361 420
#     4  11  24  44  70  98 149 183 235 298 370 428
#     4  11  24  43  68 105 138 189 244 291 360 436
#     4  12  24  45  76 102 149 182 248 302 356 445
#
# _framework density 23.250487
#
# number of rings (size 3 to 8) (size 9 to 14) (size 15 to 20)
#    0.000    1.000    2.500    5.250    1.750    0.500 
#   20.250    0.625    0.000    0.000    0.000    0.000 
#    0.000    0.000    0.000    0.000    0.000    0.000 
#
# Total GULP energy -357927.743422 kJ/mol
# GULP energy per Si atom -5592.620991 kJ/mol
# Density = 2.319757 g / cm^3
# Si number density = 23.250487 Si / 1000 Ang^3
#
#
#
# Elastic Constant Matrix: (Units=GPa)
#
#
# Indices 1 2 3 4 5 6 
#
# 1 60.6585 6.0716 14.9310 0.0000 0.0000 0.0000
# 2 6.0716 97.0333 13.4825 0.0000 0.0000 0.0000
# 3 14.9310 13.4825 150.0303 0.0000 0.0000 0.0000
# 4 0.0000 0.0000 0.0000 28.7517 0.0000 0.0000
# 5 0.0000 0.0000 0.0000 0.0000 21.2860 0.0000
# 6 0.0000 0.0000 0.0000 0.0000 0.0000 38.1346
#
#
#
# Elastic Compliance Matrix: (Units=1/GPa)
#
#
# Indices 1 2 3 4 5 6 
#
# 1 0.016967 -0.000837 -0.001613 0.000000 0.000000 0.000000
# 2 -0.000837 0.010477 -0.000858 0.000000 0.000000 0.000000
# 3 -0.001613 -0.000858 0.006903 0.000000 0.000000 0.000000
# 4 0.000000 0.000000 0.000000 0.034780 0.000000 0.000000
# 5 0.000000 0.000000 0.000000 0.000000 0.046979 0.000000
# 6 0.000000 0.000000 0.000000 0.000000 0.000000 0.026223
#
#
# Mechanical properties :
#
#
# Convention : Reuss Voigt Hill
#
# Bulk Modulus (GPa) = 36.06313 41.85469 38.95891
# Shear Modulus (GPa) = 31.60745 35.85028 33.72887
#
# Velocity S-wave (km/s) = 3.69105 3.93098 3.81290
# Velocity P-wave (km/s) = 5.80599 6.21645 6.01472
#
# Compressibility (1/GPa) = 0.02772915
#
# Stress axis : x y z
#
# Youngs Moduli (GPa) = 58.93912 95.44364 144.86471
#
# Poissons Ratio (x) = 0.07993 0.23370
# Poissons Ratio (y) = 0.04936 0.12432
# Poissons Ratio (z) = 0.09508 0.08191
#
# Static dielectric constant tensor:
#      x y z
#    x 1.925960 0.000000 0.000000 
#    y 0.000000 1.888760 0.000000 
#    z 0.000000 0.000000 1.799240 
# 
# From -- ./inp_files/17246.got.cif
#   From: 2010.05.17/outbox.cif.g08.bks.cpg/sg52_9_cif.got.tgz:17246.got - 2010.06.03 12:15:38.
