data_PCOD9411835
_publ_section_title
;
Structure prediction by ZEFSAII (Michael W. Deem and Ramdas Pophale) SiO2 
 PCOD9411835
Probable space group: P N N A
;
_chemical_formula_sum "Si O2"
_cell_formula_units_Z 40
_cell_length_a 31.236974
_cell_length_b 5.156156
_cell_length_c 12.876709
_cell_angle_alpha 90.000000
_cell_angle_beta 90.000000
_cell_angle_gamma 90.000000
_cell_volume 2073.957659
_symmetry_space_group_name_H-M "P N N A"
_symmetry_group_IT_number 52
_symmetry_cell_setting 'orthorhombic'
loop_
_space_group_symop_operation_xyz
x,y,z
1/2-x,-y,z
x,1/2-y,1/2-z
1/2-x,1/2+y,1/2-z
-x,-y,-z
1/2+x,y,-z
-x,1/2+y,1/2+z
1/2+x,1/2-y,1/2+z
loop_
_atom_site_type_symbol
_atom_site_label
_atom_site_fract_x
_atom_site_fract_y
_atom_site_fract_z
Si Si1 0.379644 0.670147 0.524473
Si Si2 0.468286 0.878211 0.083608
Si Si3 0.076718 0.750000 0.250000
Si Si4 0.853072 0.354836 0.911337
Si Si5 0.028771 0.750000 0.750000
Si Si6 0.720306 0.750000 0.750000
Si Si7 0.589285 0.250000 0.250000
O O1 0.427277 0.723798 0.477983
O O2 0.368003 0.379197 0.487343
O O3 0.382689 0.730023 0.645959
O O4 0.348439 0.877256 0.471746
O O5 0.498293 0.693060 0.151467
O O6 0.450676 0.077184 0.171142
O O7 0.500000 0.000000 0.000000
O O8 0.109646 0.597731 0.175052
O O9 0.811064 0.274698 0.848853
O O10 0.058851 0.500947 0.740438
O O11 0.750000 0.500000 0.741881
#
# Coordination Sequence:
#
# PCOD9411835 Si02
#       7
#     8   8   4   8   4   4   4
#     4  11  23  40  57  84 115 170 208 254 303 363
#     4  11  22  36  55  78 112 162 214 278 321 350
#     4   9  21  38  52  82 111 164 200 245 308 376
#     4  10  22  41  64  86 129 158 190 229 313 383
#     4  12  24  38  51  78 109 151 210 288 322 343
#     4  11  22  40  72 112 132 146 182 238 294 380
#     4  12  25  38  57  80 112 153 222 263 294 345
#
# _framework density 19.286797
#
# number of rings (size 3 to 8) (size 9 to 14) (size 15 to 20)
#    0.000    1.200    2.000    4.200    2.800    8.000 
#    0.000    0.000    0.000    0.000    0.000   14.000 
#    0.000    0.000    0.000    0.000    0.000    0.000 
#
# Total GULP energy -223476.853640 kJ/mol
# GULP energy per Si atom -5586.921341 kJ/mol
# Density = 1.924290 g / cm^3
# Si number density = 19.286797 Si / 1000 Ang^3
#
#
#
# Elastic Constant Matrix: (Units=GPa)
#
#
# Indices 1 2 3 4 5 6 
#
# 1 73.7393 17.5553 31.1571 0.0000 0.0000 0.0000
# 2 17.5553 76.1100 18.2590 0.0000 0.0000 0.0000
# 3 31.1571 18.2590 136.9529 0.0000 0.0000 0.0000
# 4 0.0000 0.0000 0.0000 27.7523 0.0000 0.0000
# 5 0.0000 0.0000 0.0000 0.0000 16.6010 0.0000
# 6 0.0000 0.0000 0.0000 0.0000 0.0000 -47.5055
#
#
#
# Elastic Compliance Matrix: (Units=1/GPa)
#
#
# Indices 1 2 3 4 5 6 
#
# 1 0.015573 -0.002833 -0.003165 0.000000 0.000000 0.000000
# 2 -0.002833 0.014088 -0.001234 0.000000 0.000000 0.000000
# 3 -0.003165 -0.001234 0.008186 0.000000 0.000000 0.000000
# 4 0.000000 0.000000 0.000000 0.036033 0.000000 0.000000
# 5 0.000000 0.000000 0.000000 0.000000 0.060237 0.000000
# 6 0.000000 0.000000 0.000000 0.000000 0.000000 -0.021050
#
#
# Mechanical properties :
#
#
# Convention : Reuss Voigt Hill
#
# Bulk Modulus (GPa) = 42.76399 46.74944 44.75671
# Shear Modulus (GPa) = 36.94773 14.02493 25.48633
#
# Velocity S-wave (km/s) = 4.38162 2.69955 3.63910
# Velocity P-wave (km/s) = 6.91512 5.83168 6.39638
#
# Compressibility (1/GPa) = 0.02338416
#
# Stress axis : x y z
#
# Youngs Moduli (GPa) = 64.21331 70.98109 122.15410
#
# Poissons Ratio (x) = 0.20107 0.38665
# Poissons Ratio (y) = 0.18190 0.15072
# Poissons Ratio (z) = 0.20325 0.08758
#
# Static dielectric constant tensor:
#      x y z
#    x 1.647750 0.000000 0.000000 
#    y 0.000000 1.683380 0.000000 
#    z 0.000000 0.000000 1.756510 
# 
# From -- ./inp_files/22720.got.cif
#   From: 2010.05.17/outbox.cif.g08.bks.cpg/sg52_12_cif.got.tgz:22720.got - 2010.06.03 12:15:38.
