data_PCOD9411605
_publ_section_title
;
Structure prediction by ZEFSAII (Michael W. Deem and Ramdas Pophale) SiO2 
 PCOD9411605
Probable space group: P N N A
;
_chemical_formula_sum "Si O2"
_cell_formula_units_Z 36
_cell_length_a 8.172277
_cell_length_b 19.730091
_cell_length_c 9.464983
_cell_angle_alpha 90.000000
_cell_angle_beta 90.000000
_cell_angle_gamma 90.000000
_cell_volume 1526.131671
_symmetry_space_group_name_H-M "P N N A"
_symmetry_group_IT_number 52
_symmetry_cell_setting 'orthorhombic'
loop_
_space_group_symop_operation_xyz
x,y,z
1/2-x,-y,z
x,1/2-y,1/2-z
1/2-x,1/2+y,1/2-z
-x,-y,-z
1/2+x,y,-z
-x,1/2+y,1/2+z
1/2+x,1/2-y,1/2+z
loop_
_atom_site_type_symbol
_atom_site_label
_atom_site_fract_x
_atom_site_fract_y
_atom_site_fract_z
Si Si1 0.253932 0.147617 0.912719
Si Si2 0.837209 0.069473 0.336208
Si Si3 0.014146 0.750000 0.750000
Si Si4 0.395670 0.328515 0.296996
Si Si5 0.166187 0.132009 0.420481
O O1 0.323722 0.082075 0.831298
O O2 0.368818 0.206053 0.849058
O O3 0.068755 0.154453 0.863764
O O4 0.266291 0.154634 0.079718
O O5 0.728762 0.126791 0.419227
O O6 0.024341 0.078352 0.384571
O O7 0.750000 0.000000 0.375066
O O8 0.910533 0.798564 0.644324
O O9 0.401305 0.250000 0.250000
O O10 0.335371 0.373844 0.166559
#
# Coordination Sequence:
#
# PCOD9411605 Si02
#       5
#     8   8   4   8   8
#     4  11  25  41  66  98 137 177 225 282 349 411
#     4  11  25  46  70 100 139 191 237 279 330 407
#     4  10  22  38  66 102 138 174 218 292 352 410
#     4  12  26  42  66 103 140 176 218 285 360 422
#     4  11  24  40  69 102 140 178 231 284 345 404
#
# _framework density 23.589053
#
# number of rings (size 3 to 8) (size 9 to 14) (size 15 to 20)
#    0.000    0.889    2.222    4.667    9.333    0.000 
#    0.000    5.556    0.000    0.000    0.000    0.000 
#    0.000    0.000    0.000    0.000    0.000    0.000 
#
# Total GULP energy -201330.412349 kJ/mol
# GULP energy per Si atom -5592.511454 kJ/mol
# Density = 2.353536 g / cm^3
# Si number density = 23.589053 Si / 1000 Ang^3
#
#
#
# Elastic Constant Matrix: (Units=GPa)
#
#
# Indices 1 2 3 4 5 6 
#
# 1 97.7826 -8.3273 6.7722 0.0000 0.0000 0.0000
# 2 -8.3273 29.8859 15.0967 0.0000 0.0000 0.0000
# 3 6.7722 15.0967 108.2613 0.0000 0.0000 0.0000
# 4 0.0000 0.0000 0.0000 14.2990 0.0000 0.0000
# 5 0.0000 0.0000 0.0000 0.0000 32.0755 0.0000
# 6 0.0000 0.0000 0.0000 0.0000 0.0000 2.3131
#
#
#
# Elastic Compliance Matrix: (Units=1/GPa)
#
#
# Indices 1 2 3 4 5 6 
#
# 1 0.010608 0.003541 -0.001157 0.000000 0.000000 0.000000
# 2 0.003541 0.037178 -0.005406 0.000000 0.000000 0.000000
# 3 -0.001157 -0.005406 0.010063 0.000000 0.000000 0.000000
# 4 0.000000 0.000000 0.000000 0.069935 0.000000 0.000000
# 5 0.000000 0.000000 0.000000 0.000000 0.031176 0.000000
# 6 0.000000 0.000000 0.000000 0.000000 0.000000 0.432316
#
#
# Mechanical properties :
#
#
# Convention : Reuss Voigt Hill
#
# Bulk Modulus (GPa) = 19.30346 29.22366 24.26356
# Shear Modulus (GPa) = 8.13550 24.56339 16.34945
#
# Velocity S-wave (km/s) = 1.85912 3.23043 2.63553
# Velocity P-wave (km/s) = 3.57903 5.13125 4.42375
#
# Compressibility (1/GPa) = 0.05180420
#
# Stress axis : x y z
#
# Youngs Moduli (GPa) = 94.26452 26.89776 99.37269
#
# Poissons Ratio (x) = -0.09523 0.11501
# Poissons Ratio (y) = -0.33375 0.53719
# Poissons Ratio (z) = 0.10909 0.14540
#
# Static dielectric constant tensor:
#      x y z
#    x 1.931510 0.000000 0.000000 
#    y 0.000000 1.910910 0.000000 
#    z 0.000000 0.000000 1.929980 
# 
# From -- ./inp_files/7275.got.cif
#   From: 2010.05.17/outbox.cif.g08.bks.cpg/sg52_4_cif.got.tgz:7275.got - 2010.06.03 12:15:38.
