data_PCOD9411253
_publ_section_title
;
Structure prediction by ZEFSAII (Michael W. Deem and Ramdas Pophale) SiO2 
 PCOD9411253
Probable space group: P N N A
;
_chemical_formula_sum "Si O2"
_cell_formula_units_Z 36
_cell_length_a 12.758295
_cell_length_b 20.829108
_cell_length_c 4.456578
_cell_angle_alpha 90.000000
_cell_angle_beta 90.000000
_cell_angle_gamma 90.000000
_cell_volume 1184.308438
_symmetry_space_group_name_H-M "P N N A"
_symmetry_group_IT_number 52
_symmetry_cell_setting 'orthorhombic'
loop_
_space_group_symop_operation_xyz
x,y,z
1/2-x,-y,z
x,1/2-y,1/2-z
1/2-x,1/2+y,1/2-z
-x,-y,-z
1/2+x,y,-z
-x,1/2+y,1/2+z
1/2+x,1/2-y,1/2+z
loop_
_atom_site_type_symbol
_atom_site_label
_atom_site_fract_x
_atom_site_fract_y
_atom_site_fract_z
Si Si1 0.473034 0.448284 0.305199
Si Si2 0.169895 0.043866 0.747357
Si Si3 0.440244 0.852625 0.364589
Si Si4 0.792619 0.141501 0.851566
Si Si5 0.565151 0.750000 0.750000
O O1 0.405784 0.504912 0.518474
O O2 0.501331 0.389769 0.596438
O O3 0.376454 0.402672 0.173797
O O4 0.500000 0.500000 0.000000
O O5 0.247387 0.091935 0.909583
O O6 0.250000 0.000000 0.568577
O O7 0.082389 0.092076 0.617560
O O8 0.318612 0.836742 0.290817
O O9 0.494468 0.792848 0.528141
O O10 0.855970 0.204616 0.934312
#
# Coordination Sequence:
#
# PCOD9411253 Si02
#       5
#     8   8   8   8   4
#     4   9  19  42  63  93 134 169 218 273 348 394
#     4  10  21  41  66  95 134 172 224 283 342 403
#     4   9  23  41  60  98 129 170 233 272 328 419
#     4  11  21  42  67  90 133 182 215 287 335 400
#     4  10  24  42  62  94 136 170 236 272 332 410
#
# _framework density 30.397486000000001
#
# number of rings (size 3 to 8) (size 9 to 14) (size 15 to 20)
#    1.333    0.889    2.222    0.000    3.111    0.889 
#    8.000    4.444    0.000    0.000    0.000    0.000 
#    0.000    0.000    0.000    0.000    0.000    0.000 
#
# Total GULP energy -200401.853100 kJ/mol
# GULP energy per Si atom -5566.718142 kJ/mol
# Density = 3.032830 g / cm^3
# Si number density = 30.397486 Si / 1000 Ang^3
#
#
#
# Elastic Constant Matrix: (Units=GPa)
#
#
# Indices 1 2 3 4 5 6 
#
# 1 268.2802 159.5206 89.1021 0.0000 0.0000 0.0000
# 2 159.5206 222.8471 74.0419 0.0000 0.0000 0.0000
# 3 89.1021 74.0419 161.9827 0.0000 0.0000 0.0000
# 4 0.0000 0.0000 0.0000 65.9575 0.0000 0.0000
# 5 0.0000 0.0000 0.0000 0.0000 50.7819 0.0000
# 6 0.0000 0.0000 0.0000 0.0000 0.0000 109.2973
#
#
#
# Elastic Compliance Matrix: (Units=1/GPa)
#
#
# Indices 1 2 3 4 5 6 
#
# 1 0.006915 -0.004346 -0.001817 0.000000 0.000000 0.000000
# 2 -0.004346 0.008023 -0.001276 0.000000 0.000000 0.000000
# 3 -0.001817 -0.001276 0.007756 0.000000 0.000000 0.000000
# 4 0.000000 0.000000 0.000000 0.015161 0.000000 0.000000
# 5 0.000000 0.000000 0.000000 0.000000 0.019692 0.000000
# 6 0.000000 0.000000 0.000000 0.000000 0.000000 0.009149
#
#
# Mechanical properties :
#
#
# Convention : Reuss Voigt Hill
#
# Bulk Modulus (GPa) = 127.96434 144.27104 136.11769
# Shear Modulus (GPa) = 59.39488 67.23703 63.31595
#
# Velocity S-wave (km/s) = 4.42514 4.70822 4.56887
# Velocity P-wave (km/s) = 8.26423 8.78185 8.52697
#
# Compressibility (1/GPa) = 0.00781468
#
# Stress axis : x y z
#
# Youngs Moduli (GPa) = 144.60424 124.64486 128.92419
#
# Poissons Ratio (x) = 0.54177 0.23428
# Poissons Ratio (y) = 0.62852 0.16455
# Poissons Ratio (z) = 0.26278 0.15909
#
# Static dielectric constant tensor:
#      x y z
#    x 3.726400 0.000000 0.000000 
#    y 0.000000 2.595430 0.000000 
#    z 0.000000 0.000000 2.833280 
# 
# From -- ./inp_files/2165.got.cif
#   From: 2010.05.17/outbox.cif.g08.bks.cpg/sg52_2_cif.got.tgz:2165.got - 2010.06.03 12:15:38.
