data_PCOD9411352
_publ_section_title
;
Structure prediction by ZEFSAII (Michael W. Deem and Ramdas Pophale) SiO2 
 PCOD9411352
Probable space group: P N N A
;
_chemical_formula_sum "Si O2"
_cell_formula_units_Z 36
_cell_length_a 21.171674
_cell_length_b 13.956935
_cell_length_c 5.891013
_cell_angle_alpha 90.000000
_cell_angle_beta 90.000000
_cell_angle_gamma 90.000000
_cell_volume 1740.745316
_symmetry_space_group_name_H-M "P N N A"
_symmetry_group_IT_number 52
_symmetry_cell_setting 'orthorhombic'
loop_
_space_group_symop_operation_xyz
x,y,z
1/2-x,-y,z
x,1/2-y,1/2-z
1/2-x,1/2+y,1/2-z
-x,-y,-z
1/2+x,y,-z
-x,1/2+y,1/2+z
1/2+x,1/2-y,1/2+z
loop_
_atom_site_type_symbol
_atom_site_label
_atom_site_fract_x
_atom_site_fract_y
_atom_site_fract_z
Si Si1 0.940784 0.068673 0.518843
Si Si2 0.321495 0.530882 0.775090
Si Si3 0.198084 0.250000 0.750000
Si Si4 0.144162 0.893906 0.099372
Si Si5 0.263477 0.250000 0.250000
Si Si6 0.412924 0.250000 0.750000
O O1 0.921696 0.087771 0.777491
O O2 0.950485 0.170160 0.392278
O O3 0.877970 0.018327 0.415884
O O4 0.000000 0.000000 0.500000
O O5 0.250000 0.500000 0.846110
O O6 0.332060 0.644576 0.774619
O O7 0.329640 0.487019 0.523014
O O8 0.230029 0.259178 0.496465
O O9 0.193417 0.844859 0.267425
O O10 0.131108 0.812065 0.914046
#
# Coordination Sequence:
#
# PCOD9411352 Si02
#       6
#     8   8   4   8   4   4
#     4  11  25  45  69 102 142 188 243 302 368 441
#     4  11  25  43  70 105 142 186 241 303 362 445
#     4  12  27  44  67 110 155 185 240 312 388 425
#     4  11  22  41  71 100 133 187 243 297 355 447
#     4  12  22  42  74 102 146 194 242 302 368 450
#     4  10  21  42  69 100 129 183 248 288 352 439
#
# _framework density 20.680793999999999
#
# number of rings (size 3 to 8) (size 9 to 14) (size 15 to 20)
#    0.000    0.889    4.444    2.000    3.111    4.444 
#    8.000    0.000    0.000    0.000    0.000    0.000 
#    0.000    0.000    0.000    0.000    0.000    0.000 
#
# Total GULP energy -200718.874846 kJ/mol
# GULP energy per Si atom -5575.524301 kJ/mol
# Density = 2.063372 g / cm^3
# Si number density = 20.680794 Si / 1000 Ang^3
#
#
#
# Elastic Constant Matrix: (Units=GPa)
#
#
# Indices 1 2 3 4 5 6 
#
# 1 79.8881 46.8175 35.3254 0.0000 0.0000 0.0000
# 2 46.8175 177.4103 30.0217 0.0000 0.0000 0.0000
# 3 35.3254 30.0217 81.9357 0.0000 0.0000 0.0000
# 4 0.0000 0.0000 0.0000 48.5227 0.0000 0.0000
# 5 0.0000 0.0000 0.0000 0.0000 -1.4273 0.0000
# 6 0.0000 0.0000 0.0000 0.0000 0.0000 -32.3986
#
#
#
# Elastic Compliance Matrix: (Units=1/GPa)
#
#
# Indices 1 2 3 4 5 6 
#
# 1 0.017312 -0.003524 -0.006173 0.000000 0.000000 0.000000
# 2 -0.003524 0.006727 -0.000945 0.000000 0.000000 0.000000
# 3 -0.006173 -0.000945 0.015212 0.000000 0.000000 0.000000
# 4 0.000000 0.000000 0.000000 0.020609 0.000000 0.000000
# 5 0.000000 0.000000 0.000000 0.000000 -0.700620 0.000000
# 6 0.000000 0.000000 0.000000 0.000000 0.000000 -0.030865
#
#
# Mechanical properties :
#
#
# Convention : Reuss Voigt Hill
#
# Bulk Modulus (GPa) = 55.65745 62.61813 59.13779
# Shear Modulus (GPa) = -7.75973 18.07733 5.15880
#
# Velocity S-wave (km/s) = -1.93915 2.95975 1.58111
# Velocity P-wave (km/s) = 4.68587 6.48261 5.65604
#
# Compressibility (1/GPa) = 0.01796705
#
# Stress axis : x y z
#
# Youngs Moduli (GPa) = 57.76272 148.66377 65.73610
#
# Poissons Ratio (x) = 0.52390 0.40577
# Poissons Ratio (y) = 0.20356 0.06214
# Poissons Ratio (z) = 0.35655 0.14054
#
# Static dielectric constant tensor:
#      x y z
#    x 1.730360 0.000000 0.000000 
#    y 0.000000 1.496060 0.000000 
#    z 0.000000 0.000000 1.331980 
# 
# From -- ./inp_files/4111.got.cif
#   From: 2010.05.17/outbox.cif.g08.bks.cpg/sg52_3_cif.got.tgz:4111.got - 2010.06.03 12:15:38.
