data_PCOD9411265
_publ_section_title
;
Structure prediction by ZEFSAII (Michael W. Deem and Ramdas Pophale) SiO2 
 PCOD9411265
Probable space group: P N N A
;
_chemical_formula_sum "Si O2"
_cell_formula_units_Z 64
_cell_length_a 7.411602
_cell_length_b 19.584222
_cell_length_c 17.349663
_cell_angle_alpha 90.000000
_cell_angle_beta 90.000000
_cell_angle_gamma 90.000000
_cell_volume 2518.311547
_symmetry_space_group_name_H-M "P N N A"
_symmetry_group_IT_number 52
_symmetry_cell_setting 'orthorhombic'
loop_
_space_group_symop_operation_xyz
x,y,z
1/2-x,-y,z
x,1/2-y,1/2-z
1/2-x,1/2+y,1/2-z
-x,-y,-z
1/2+x,y,-z
-x,1/2+y,1/2+z
1/2+x,1/2-y,1/2+z
loop_
_atom_site_type_symbol
_atom_site_label
_atom_site_fract_x
_atom_site_fract_y
_atom_site_fract_z
Si Si1 0.271792 0.201162 0.129978
Si Si2 0.026608 0.543205 0.758503
Si Si3 0.418489 0.119452 0.591001
Si Si4 0.638188 0.933573 0.947400
Si Si5 0.357105 0.258874 0.660736
Si Si6 0.624271 0.605741 0.759858
Si Si7 0.662742 0.846120 0.577620
Si Si8 0.240997 0.903754 0.888422
O O1 0.256525 0.134785 0.076717
O O2 0.383282 0.171018 0.203115
O O3 0.356956 0.263953 0.081936
O O4 0.073152 0.224795 0.157146
O O5 0.103505 0.561849 0.843584
O O6 0.834725 0.582834 0.753588
O O7 0.983155 0.463998 0.746333
O O8 0.153529 0.570467 0.690796
O O9 0.318902 0.188045 0.618403
O O10 0.628396 0.138386 0.591986
O O11 0.380410 0.113427 0.500355
O O12 0.750000 0.000000 0.923010
O O13 0.442388 0.927033 0.909566
O O14 0.624808 0.930483 0.039450
O O15 0.308311 0.250000 0.750000
O O16 0.264239 0.322161 0.618978
O O17 0.569922 0.626549 0.845666
#
# Coordination Sequence:
#
# PCOD9411265 Si02
#       8
#     8   8   8   8   8   8   8   8
#     4  11  22  43  72 105 144 203 255 317 395 468
#     4  10  22  42  75 105 146 209 258 318 393 473
#     4  10  21  41  68 106 150 202 257 319 391 461
#     4  12  30  49  75 109 153 203 259 322 388 473
#     4  11  20  41  75 108 149 203 255 316 387 457
#     4  10  21  41  74 106 142 202 263 313 391 480
#     4  10  22  41  70 104 147 194 257 323 389 461
#     4  12  25  48  76 109 150 204 263 315 396 469
#
# _framework density 25.413854000000001
#
# number of rings (size 3 to 8) (size 9 to 14) (size 15 to 20)
#    0.000    1.250    2.500    3.750    1.750    4.500 
#    2.250    1.875    0.000    0.000    0.000    0.000 
#    0.000    2.000    0.000    0.000    0.000    0.000 
#
# Total GULP energy -358613.859264 kJ/mol
# GULP energy per Si atom -5603.341551 kJ/mol
# Density = 2.535601 g / cm^3
# Si number density = 25.413854 Si / 1000 Ang^3
#
#
#
# Elastic Constant Matrix: (Units=GPa)
#
#
# Indices 1 2 3 4 5 6 
#
# 1 109.4091 54.1660 42.8192 0.0000 0.0000 0.0000
# 2 54.1660 83.9785 33.3757 0.0000 0.0000 0.0000
# 3 42.8192 33.3757 178.7256 0.0000 0.0000 0.0000
# 4 0.0000 0.0000 0.0000 44.7590 0.0000 0.0000
# 5 0.0000 0.0000 0.0000 0.0000 34.7372 0.0000
# 6 0.0000 0.0000 0.0000 0.0000 0.0000 18.9231
#
#
#
# Elastic Compliance Matrix: (Units=1/GPa)
#
#
# Indices 1 2 3 4 5 6 
#
# 1 0.013941 -0.008279 -0.001794 0.000000 0.000000 0.000000
# 2 -0.008279 0.017779 -0.001337 0.000000 0.000000 0.000000
# 3 -0.001794 -0.001337 0.006275 0.000000 0.000000 0.000000
# 4 0.000000 0.000000 0.000000 0.022342 0.000000 0.000000
# 5 0.000000 0.000000 0.000000 0.000000 0.028788 0.000000
# 6 0.000000 0.000000 0.000000 0.000000 0.000000 0.052846
#
#
# Mechanical properties :
#
#
# Convention : Reuss Voigt Hill
#
# Bulk Modulus (GPa) = 65.89594 70.31499 68.10546
# Shear Modulus (GPa) = 29.43837 35.80066 32.61952
#
# Velocity S-wave (km/s) = 3.40716 3.75735 3.58653
# Velocity P-wave (km/s) = 6.43923 6.82287 6.63383
#
# Compressibility (1/GPa) = 0.01517544
#
# Stress axis : x y z
#
# Youngs Moduli (GPa) = 71.73220 56.24667 159.37358
#
# Poissons Ratio (x) = 0.46565 0.28590
# Poissons Ratio (y) = 0.59386 0.21302
# Poissons Ratio (z) = 0.12868 0.07518
#
# Static dielectric constant tensor:
#      x y z
#    x 2.055180 0.000000 0.000000 
#    y 0.000000 1.989590 0.000000 
#    z 0.000000 0.000000 2.065200 
# 
# From -- ./inp_files/26364.got.cif
#   From: 2010.05.17/outbox.cif.g08.bks.cpg/sg52_14_cif.got.tgz:26364.got - 2010.06.03 12:15:38.
