data_PCOD9411413
_publ_section_title
;
Structure prediction by ZEFSAII (Michael W. Deem and Ramdas Pophale) SiO2 
 PCOD9411413
Probable space group: P N N A
;
_chemical_formula_sum "Si O2"
_cell_formula_units_Z 24
_cell_length_a 16.237901
_cell_length_b 5.420264
_cell_length_c 12.966327
_cell_angle_alpha 90.000000
_cell_angle_beta 90.000000
_cell_angle_gamma 90.000000
_cell_volume 1141.214547
_symmetry_space_group_name_H-M "P N N A"
_symmetry_group_IT_number 52
_symmetry_cell_setting 'orthorhombic'
loop_
_space_group_symop_operation_xyz
x,y,z
1/2-x,-y,z
x,1/2-y,1/2-z
1/2-x,1/2+y,1/2-z
-x,-y,-z
1/2+x,y,-z
-x,1/2+y,1/2+z
1/2+x,1/2-y,1/2+z
loop_
_atom_site_type_symbol
_atom_site_label
_atom_site_fract_x
_atom_site_fract_y
_atom_site_fract_z
Si Si1 0.890657 0.250000 0.750000
Si Si2 0.483853 0.753276 0.936558
Si Si3 0.750000 0.500000 0.868299
Si Si4 0.791290 0.752864 0.424762
O O1 0.827329 0.451260 0.795207
O O2 0.952175 0.214192 0.844292
O O3 0.388225 0.746947 0.905294
O O4 0.500000 0.500000 0.000000
O O5 0.500000 0.000000 0.000000
O O6 0.772863 0.713973 0.951335
O O7 0.750000 0.500000 0.390421
O O8 0.750000 0.000000 0.379405
#
# Coordination Sequence:
#
# PCOD9411413 Si02
#       4
#     4   8   4   8
#     4  12  26  42  74 108 138 184 240 290 356 418
#     4  12  25  46  66 105 146 182 230 293 355 413
#     4  10  24  38  68 102 130 174 238 280 352 396
#     4  10  21  44  68  93 138 183 221 282 351 404
#
# _framework density 21.030227
#
# number of rings (size 3 to 8) (size 9 to 14) (size 15 to 20)
#    1.000    0.000    3.333    4.000    7.000    1.333 
#    0.000    1.667    0.000    0.000    0.000    0.000 
#    0.000    0.000    0.000    0.000    0.000    0.000 
#
# Total GULP energy -133886.359259 kJ/mol
# GULP energy per Si atom -5578.598302 kJ/mol
# Density = 2.098236 g / cm^3
# Si number density = 21.030227 Si / 1000 Ang^3
#
#
#
# Elastic Constant Matrix: (Units=GPa)
#
#
# Indices 1 2 3 4 5 6 
#
# 1 231.5002 67.7391 46.9602 0.0000 0.0000 0.0000
# 2 67.7391 146.6793 36.7590 0.0000 0.0000 0.0000
# 3 46.9602 36.7590 111.1276 0.0000 0.0000 0.0000
# 4 0.0000 0.0000 0.0000 -8.4017 0.0000 0.0000
# 5 0.0000 0.0000 0.0000 0.0000 47.1204 0.0000
# 6 0.0000 0.0000 0.0000 0.0000 0.0000 33.9943
#
#
#
# Elastic Compliance Matrix: (Units=1/GPa)
#
#
# Indices 1 2 3 4 5 6 
#
# 1 0.005225 -0.002028 -0.001537 0.000000 0.000000 0.000000
# 2 -0.002028 0.008221 -0.001862 0.000000 0.000000 0.000000
# 3 -0.001537 -0.001862 0.010264 0.000000 0.000000 0.000000
# 4 0.000000 0.000000 0.000000 -0.119023 0.000000 0.000000
# 5 0.000000 0.000000 0.000000 0.000000 0.021222 0.000000
# 6 0.000000 0.000000 0.000000 0.000000 0.000000 0.029417
#
#
# Mechanical properties :
#
#
# Convention : Reuss Voigt Hill
#
# Bulk Modulus (GPa) = 77.78892 88.02485 82.90688
# Shear Modulus (GPa) = -169.29300 37.06586 -66.11357
#
# Velocity S-wave (km/s) = -8.98190 4.20277 -5.61299
# Velocity P-wave (km/s) = 8.39623 8.09310 1.58089
#
# Compressibility (1/GPa) = 0.01285530
#
# Stress axis : x y z
#
# Youngs Moduli (GPa) = 191.39546 121.64339 97.42513
#
# Poissons Ratio (x) = 0.24665 0.14976
# Poissons Ratio (y) = 0.38809 0.18145
# Poissons Ratio (z) = 0.29421 0.22655
#
# Static dielectric constant tensor:
#      x y z
#    x 1.593590 0.000000 0.000000 
#    y 0.000000 1.748360 0.000000 
#    z 0.000000 0.000000 1.720610 
# 
# From -- ./inp_files/26580.got.cif
#   From: 2010.05.17/outbox.cif.g08.bks.cpg/sg52_14_cif.got.tgz:26580.got - 2010.06.03 12:15:38.
