data_PCOD9411552
_publ_section_title
;
Structure prediction by ZEFSAII (Michael W. Deem and Ramdas Pophale) SiO2 
 PCOD9411552
Probable space group: P N N A
;
_chemical_formula_sum "Si O2"
_cell_formula_units_Z 48
_cell_length_a 12.244002
_cell_length_b 10.956407
_cell_length_c 17.769337
_cell_angle_alpha 90.000000
_cell_angle_beta 90.000000
_cell_angle_gamma 90.000000
_cell_volume 2383.761342
_symmetry_space_group_name_H-M "P N N A"
_symmetry_group_IT_number 52
_symmetry_cell_setting 'orthorhombic'
loop_
_space_group_symop_operation_xyz
x,y,z
1/2-x,-y,z
x,1/2-y,1/2-z
1/2-x,1/2+y,1/2-z
-x,-y,-z
1/2+x,y,-z
-x,1/2+y,1/2+z
1/2+x,1/2-y,1/2+z
loop_
_atom_site_type_symbol
_atom_site_label
_atom_site_fract_x
_atom_site_fract_y
_atom_site_fract_z
Si Si1 0.833713 0.664285 0.504145
Si Si2 0.776412 0.358936 0.896468
Si Si3 0.672570 0.250000 0.750000
Si Si4 0.937791 0.547264 0.646600
Si Si5 0.332184 0.750000 0.750000
Si Si6 0.994932 0.273405 0.625432
Si Si7 0.188230 0.881774 0.867889
O O1 0.800455 0.788559 0.544935
O O2 0.868848 0.573574 0.570824
O O3 0.729929 0.630828 0.452911
O O4 0.931128 0.681320 0.444550
O O5 0.750000 0.500000 0.901927
O O6 0.743687 0.309398 0.814919
O O7 0.901455 0.316299 0.904288
O O8 0.607831 0.363830 0.711915
O O9 0.944512 0.401005 0.658819
O O10 0.060851 0.595189 0.634206
O O11 0.425731 0.789085 0.687287
O O12 0.240927 0.781958 0.814317
O O13 0.250000 0.000000 0.835292
#
# Coordination Sequence:
#
# PCOD9411552 Si02
#       7
#     8   8   4   8   4   8   8
#     4  10  23  40  65  98 122 167 212 264 322 373
#     4  11  26  42  63  91 130 166 215 266 318 388
#     4  10  26  40  62  94 124 166 212 262 324 368
#     4  11  22  40  66  96 128 165 211 269 315 379
#     4  10  22  38  58  94 124 170 208 254 328 366
#     4  11  23  39  67  91 129 170 213 256 324 384
#     4  11  21  38  63  91 129 160 212 263 307 380
#
# _framework density 20.136244000000001
#
# number of rings (size 3 to 8) (size 9 to 14) (size 15 to 20)
#    0.000    1.333    3.333    2.500    7.000    2.000 
#    0.000    3.333    0.000    0.000    0.000    0.000 
#    0.000    0.000    0.000    0.000    0.000    0.000 
#
# Total GULP energy -267241.476289 kJ/mol
# GULP energy per Si atom -5567.530756 kJ/mol
# Density = 2.009041 g / cm^3
# Si number density = 20.136244 Si / 1000 Ang^3
#
#
#
# Elastic Constant Matrix: (Units=GPa)
#
#
# Indices 1 2 3 4 5 6 
#
# 1 57.9224 7.4846 -0.8157 0.0000 0.0000 0.0000
# 2 7.4846 68.5159 -1.2851 0.0000 0.0000 0.0000
# 3 -0.8157 -1.2851 73.1182 0.0000 0.0000 0.0000
# 4 0.0000 0.0000 0.0000 17.5874 0.0000 0.0000
# 5 0.0000 0.0000 0.0000 0.0000 -18.0317 0.0000
# 6 0.0000 0.0000 0.0000 0.0000 0.0000 12.7657
#
#
#
# Elastic Compliance Matrix: (Units=1/GPa)
#
#
# Indices 1 2 3 4 5 6 
#
# 1 0.017514 -0.001910 0.000162 0.000000 0.000000 0.000000
# 2 -0.001910 0.014808 0.000239 0.000000 0.000000 0.000000
# 3 0.000162 0.000239 0.013682 0.000000 0.000000 0.000000
# 4 0.000000 0.000000 0.000000 0.056859 0.000000 0.000000
# 5 0.000000 0.000000 0.000000 0.000000 -0.055458 0.000000
# 6 0.000000 0.000000 0.000000 0.000000 0.000000 0.078335
#
#
# Mechanical properties :
#
#
# Convention : Reuss Voigt Hill
#
# Bulk Modulus (GPa) = 23.26360 23.36936 23.31648
# Shear Modulus (GPa) = 34.94375 15.40915 25.17645
#
# Velocity S-wave (km/s) = 4.17029 2.76931 3.53980
# Velocity P-wave (km/s) = 5.89632 4.67506 5.32085
#
# Compressibility (1/GPa) = 0.04298561
#
# Stress axis : x y z
#
# Youngs Moduli (GPa) = 57.09851 67.52976 73.08613
#
# Poissons Ratio (x) = 0.12899 -0.01183
# Poissons Ratio (y) = 0.10907 -0.01746
# Poissons Ratio (z) = -0.00924 -0.01614
#
# Static dielectric constant tensor:
#      x y z
#    x 1.724040 0.000000 0.000000 
#    y 0.000000 1.696890 0.000000 
#    z 0.000000 0.000000 1.732360 
# 
# From -- ./inp_files/32250.got.cif
#   From: 2010.05.17/outbox.cif.g08.bks.cpg/sg52_17_cif.got.tgz:32250.got - 2010.06.03 12:15:38.
