data_PCOD9411392
_publ_section_title
;
Structure prediction by ZEFSAII (Michael W. Deem and Ramdas Pophale) SiO2 
 PCOD9411392
Probable space group: P N N A
;
_chemical_formula_sum "Si O2"
_cell_formula_units_Z 40
_cell_length_a 13.245677
_cell_length_b 8.736797
_cell_length_c 15.580950
_cell_angle_alpha 90.000000
_cell_angle_beta 90.000000
_cell_angle_gamma 90.000000
_cell_volume 1803.102184
_symmetry_space_group_name_H-M "P N N A"
_symmetry_group_IT_number 52
_symmetry_cell_setting 'orthorhombic'
loop_
_space_group_symop_operation_xyz
x,y,z
1/2-x,-y,z
x,1/2-y,1/2-z
1/2-x,1/2+y,1/2-z
-x,-y,-z
1/2+x,y,-z
-x,1/2+y,1/2+z
1/2+x,1/2-y,1/2+z
loop_
_atom_site_type_symbol
_atom_site_label
_atom_site_fract_x
_atom_site_fract_y
_atom_site_fract_z
Si Si1 0.934742 0.202462 0.649862
Si Si2 0.228791 0.158656 0.096720
Si Si3 0.658633 0.705384 0.348912
Si Si4 0.541048 0.159526 0.660262
Si Si5 0.863792 0.635564 0.414526
O O1 0.923090 0.250000 0.750000
O O2 0.835688 0.254798 0.596972
O O3 0.031684 0.283581 0.606706
O O4 0.953074 0.021638 0.655972
O O5 0.148057 0.276296 0.132065
O O6 0.250000 0.000000 0.147444
O O7 0.166682 0.100368 0.012491
O O8 0.669910 0.750000 0.250000
O O9 0.561364 0.789491 0.388475
O O10 0.767976 0.739067 0.388210
O O11 0.639472 0.524354 0.362895
O O12 0.527033 0.250000 0.750000
#
# Coordination Sequence:
#
# PCOD9411392 Si02
#       5
#     8   8   8   8   8
#     4  12  26  47  74 104 141 190 243 293 355 429
#     4  12  25  45  72 101 146 184 232 292 359 423
#     4  10  21  43  70 101 137 178 235 286 346 427
#     4  11  25  45  72 105 139 185 240 292 352 426
#     4  11  25  44  72 105 138 186 234 288 360 416
#
# _framework density 22.183990000000001
#
# number of rings (size 3 to 8) (size 9 to 14) (size 15 to 20)
#    0.000    0.800    2.000    6.600    2.800    6.400 
#    3.600    0.000    0.000    0.000    0.000    0.000 
#    0.000    0.000    0.000    0.000    0.000    0.000 
#
# Total GULP energy -223152.761556 kJ/mol
# GULP energy per Si atom -5578.819039 kJ/mol
# Density = 2.213350 g / cm^3
# Si number density = 22.183990 Si / 1000 Ang^3
#
#
#
# Elastic Constant Matrix: (Units=GPa)
#
#
# Indices 1 2 3 4 5 6 
#
# 1 144.9703 18.4820 13.8245 0.0000 0.0000 0.0000
# 2 18.4820 113.7877 18.4519 0.0000 0.0000 0.0000
# 3 13.8245 18.4519 33.0425 0.0000 0.0000 0.0000
# 4 0.0000 0.0000 0.0000 20.6830 0.0000 0.0000
# 5 0.0000 0.0000 0.0000 0.0000 35.0133 0.0000
# 6 0.0000 0.0000 0.0000 0.0000 0.0000 31.6561
#
#
#
# Elastic Compliance Matrix: (Units=1/GPa)
#
#
# Indices 1 2 3 4 5 6 
#
# 1 0.007243 -0.000753 -0.002610 0.000000 0.000000 0.000000
# 2 -0.000753 0.009742 -0.005125 0.000000 0.000000 0.000000
# 3 -0.002610 -0.005125 0.034218 0.000000 0.000000 0.000000
# 4 0.000000 0.000000 0.000000 0.048349 0.000000 0.000000
# 5 0.000000 0.000000 0.000000 0.000000 0.028561 0.000000
# 6 0.000000 0.000000 0.000000 0.000000 0.000000 0.031589
#
#
# Mechanical properties :
#
#
# Convention : Reuss Voigt Hill
#
# Bulk Modulus (GPa) = 29.21693 43.70191 36.45942
# Shear Modulus (GPa) = 26.58361 33.53996 30.06178
#
# Velocity S-wave (km/s) = 3.46544 3.89253 3.68518
# Velocity P-wave (km/s) = 5.40474 6.32020 5.88031
#
# Compressibility (1/GPa) = 0.03422674
#
# Stress axis : x y z
#
# Youngs Moduli (GPa) = 138.06709 102.65150 29.22453
#
# Poissons Ratio (x) = 0.07732 0.07627
# Poissons Ratio (y) = 0.10400 0.14977
# Poissons Ratio (z) = 0.36031 0.52608
#
# Static dielectric constant tensor:
#      x y z
#    x 1.895130 0.000000 0.000000 
#    y 0.000000 1.771010 0.000000 
#    z 0.000000 0.000000 0.473030 
# 
# From -- ./inp_files/31955.got.cif
#   From: 2010.05.17/outbox.cif.g08.bks.cpg/sg52_16_cif.got.tgz:31955.got - 2010.06.03 12:15:38.
