data_PCOD9411535
_publ_section_title
;
Structure prediction by ZEFSAII (Michael W. Deem and Ramdas Pophale) SiO2 
 PCOD9411535
Probable space group: P N N A
;
_chemical_formula_sum "Si O2"
_cell_formula_units_Z 48
_cell_length_a 7.957404
_cell_length_b 12.676200
_cell_length_c 25.428499
_cell_angle_alpha 90.000000
_cell_angle_beta 90.000000
_cell_angle_gamma 90.000000
_cell_volume 2564.963656
_symmetry_space_group_name_H-M "P N N A"
_symmetry_group_IT_number 52
_symmetry_cell_setting 'orthorhombic'
loop_
_space_group_symop_operation_xyz
x,y,z
1/2-x,-y,z
x,1/2-y,1/2-z
1/2-x,1/2+y,1/2-z
-x,-y,-z
1/2+x,y,-z
-x,1/2+y,1/2+z
1/2+x,1/2-y,1/2+z
loop_
_atom_site_type_symbol
_atom_site_label
_atom_site_fract_x
_atom_site_fract_y
_atom_site_fract_z
Si Si1 0.942786 0.968064 0.285240
Si Si2 0.250000 0.500000 0.501419
Si Si3 0.250000 0.000000 0.536083
Si Si4 0.814560 0.750000 0.250000
Si Si5 0.250000 0.500000 0.137519
Si Si6 0.988231 0.129250 0.066631
Si Si7 0.890243 0.410327 0.316958
Si Si8 0.428791 0.627850 0.055083
O O1 0.926045 0.845384 0.271175
O O2 0.750000 0.000000 0.300308
O O3 0.983783 0.038003 0.233258
O O4 0.085798 0.983817 0.327527
O O5 0.115283 0.448975 0.462477
O O6 0.314195 0.407092 0.539788
O O7 0.151760 0.083305 0.498727
O O8 0.397796 0.063155 0.565341
O O9 0.698786 0.695329 0.294657
O O10 0.293685 0.597645 0.099499
O O11 0.031724 0.249479 0.053948
O O12 0.985475 0.112629 0.129303
O O13 0.750000 0.500000 0.328848
#
# Coordination Sequence:
#
# PCOD9411535 Si02
#       8
#     8   4   4   4   4   8   8   8
#     4   9  21  41  59  85 129 157 200 264 304 369
#     4  10  24  39  60  88 130 153 214 258 302 362
#     4   9  20  42  58  86 130 158 194 265 308 378
#     4   8  18  38  62  84 112 170 202 234 318 372
#     4  11  24  39  56 100 120 155 208 259 306 382
#     4  11  21  40  61  91 118 168 204 258 305 373
#     4   9  19  37  62  86 118 162 201 250 314 369
#     4  10  22  37  63  89 121 162 207 247 321 370
#
# _framework density 18.713716000000002
#
# number of rings (size 3 to 8) (size 9 to 14) (size 15 to 20)
#    0.000    2.667    0.833    1.000    5.833    0.667 
#    9.000    1.667    0.000    0.000    0.000    0.000 
#    0.000    0.000    0.000    0.000    0.000    0.000 
#
# Total GULP energy -267523.342578 kJ/mol
# GULP energy per Si atom -5573.402970 kJ/mol
# Density = 1.867112 g / cm^3
# Si number density = 18.713716 Si / 1000 Ang^3
#
#
#
# Elastic Constant Matrix: (Units=GPa)
#
#
# Indices 1 2 3 4 5 6 
#
# 1 53.0852 8.1832 35.9113 0.0000 0.0000 0.0000
# 2 8.1832 99.0642 38.7673 0.0000 0.0000 0.0000
# 3 35.9113 38.7673 101.6903 0.0000 0.0000 0.0000
# 4 0.0000 0.0000 0.0000 11.8380 0.0000 0.0000
# 5 0.0000 0.0000 0.0000 0.0000 14.9192 0.0000
# 6 0.0000 0.0000 0.0000 0.0000 0.0000 22.4212
#
#
#
# Elastic Compliance Matrix: (Units=1/GPa)
#
#
# Indices 1 2 3 4 5 6 
#
# 1 0.024973 0.001632 -0.009441 0.000000 0.000000 0.000000
# 2 0.001632 0.011971 -0.005140 0.000000 0.000000 0.000000
# 3 -0.009441 -0.005140 0.015127 0.000000 0.000000 0.000000
# 4 0.000000 0.000000 0.000000 0.084474 0.000000 0.000000
# 5 0.000000 0.000000 0.000000 0.000000 0.067028 0.000000
# 6 0.000000 0.000000 0.000000 0.000000 0.000000 0.044601
#
#
# Mechanical properties :
#
#
# Convention : Reuss Voigt Hill
#
# Bulk Modulus (GPa) = 38.20777 46.61815 42.41296
# Shear Modulus (GPa) = 17.68060 21.23423 19.45742
#
# Velocity S-wave (km/s) = 3.07708 3.37217 3.22800
# Velocity P-wave (km/s) = 5.75204 6.33461 6.05034
#
# Compressibility (1/GPa) = 0.02617269
#
# Stress axis : x y z
#
# Youngs Moduli (GPa) = 40.04350 83.53434 66.10540
#
# Poissons Ratio (x) = -0.13631 0.62411
# Poissons Ratio (y) = -0.06534 0.33978
# Poissons Ratio (z) = 0.37805 0.42937
#
# Static dielectric constant tensor:
#      x y z
#    x 1.692260 0.000000 0.000000 
#    y 0.000000 1.620020 0.000000 
#    z 0.000000 0.000000 1.665560 
# 
# From -- ./inp_files/39534.got.cif
#   From: 2010.05.17/outbox.cif.g08.bks.cpg/sg52_20_cif.got.tgz:39534.got - 2010.06.03 12:15:38.
