data_PCOD9411677
_publ_section_title
;
Structure prediction by ZEFSAII (Michael W. Deem and Ramdas Pophale) SiO2 
 PCOD9411677
Probable space group: P N N A
;
_chemical_formula_sum "Si O2"
_cell_formula_units_Z 44
_cell_length_a 8.431961
_cell_length_b 8.103592
_cell_length_c 29.422078
_cell_angle_alpha 90.000000
_cell_angle_beta 90.000000
_cell_angle_gamma 90.000000
_cell_volume 2010.386220
_symmetry_space_group_name_H-M "P N N A"
_symmetry_group_IT_number 52
_symmetry_cell_setting 'orthorhombic'
loop_
_space_group_symop_operation_xyz
x,y,z
1/2-x,-y,z
x,1/2-y,1/2-z
1/2-x,1/2+y,1/2-z
-x,-y,-z
1/2+x,y,-z
-x,1/2+y,1/2+z
1/2+x,1/2-y,1/2+z
loop_
_atom_site_type_symbol
_atom_site_label
_atom_site_fract_x
_atom_site_fract_y
_atom_site_fract_z
Si Si1 0.750000 0.500000 0.141128
Si Si2 0.250000 0.000000 0.341214
Si Si3 0.560580 0.509278 0.448504
Si Si4 0.149181 0.164235 0.120596
Si Si5 0.959704 0.647804 0.064049
Si Si6 0.250000 0.500000 0.008809
Si Si7 0.474029 0.304575 0.801477
O O1 0.892152 0.554052 0.107756
O O2 0.687178 0.642788 0.173837
O O3 0.253101 0.835102 0.372512
O O4 0.402117 0.958187 0.309407
O O5 0.750000 0.500000 0.446243
O O6 0.500000 0.500000 0.500000
O O7 0.474580 0.658057 0.421568
O O8 0.508480 0.337261 0.425948
O O9 0.048840 0.161827 0.167230
O O10 0.250000 0.000000 0.117205
O O11 0.108431 0.566493 0.039315
O O12 0.820575 0.636913 0.025513
O O13 0.459033 0.250000 0.750000
#
# Coordination Sequence:
#
# PCOD9411677 Si02
#       7
#     4   4   8   8   8   4   8
#     4  11  24  44  67 104 146 190 237 306 383 452
#     4   8  24  47  77 104 140 186 245 304 369 456
#     4  12  25  42  64 102 150 195 247 301 359 436
#     4  10  24  45  74 108 140 192 246 304 377 435
#     4  10  22  39  67  99 145 195 246 309 361 432
#     4   9  20  41  66 102 140 198 260 294 364 432
#     4  10  24  48  73 107 139 186 242 304 382 452
#
# _framework density 21.886341999999999
#
# number of rings (size 3 to 8) (size 9 to 14) (size 15 to 20)
#    1.091    0.727    0.000    2.727    3.818    5.091 
#    4.909    1.818    0.000    1.091    0.000    0.000 
#    0.000    0.000    0.000    0.000    0.000    0.000 
#
# Total GULP energy -245694.701860 kJ/mol
# GULP energy per Si atom -5583.970497 kJ/mol
# Density = 2.183653 g / cm^3
# Si number density = 21.886342 Si / 1000 Ang^3
#
#
#
# Elastic Constant Matrix: (Units=GPa)
#
#
# Indices 1 2 3 4 5 6 
#
# 1 115.7319 52.8880 72.2541 0.0000 0.0000 0.0000
# 2 52.8880 109.4233 42.3729 0.0000 0.0000 0.0000
# 3 72.2541 42.3729 178.8391 0.0000 0.0000 0.0000
# 4 0.0000 0.0000 0.0000 36.2506 0.0000 0.0000
# 5 0.0000 0.0000 0.0000 0.0000 26.7768 0.0000
# 6 0.0000 0.0000 0.0000 0.0000 0.0000 27.4484
#
#
#
# Elastic Compliance Matrix: (Units=1/GPa)
#
#
# Indices 1 2 3 4 5 6 
#
# 1 0.013575 -0.004886 -0.004327 0.000000 0.000000 0.000000
# 2 -0.004886 0.011820 -0.000827 0.000000 0.000000 0.000000
# 3 -0.004327 -0.000827 0.007536 0.000000 0.000000 0.000000
# 4 0.000000 0.000000 0.000000 0.027586 0.000000 0.000000
# 5 0.000000 0.000000 0.000000 0.000000 0.037346 0.000000
# 6 0.000000 0.000000 0.000000 0.000000 0.000000 0.036432
#
#
# Mechanical properties :
#
#
# Convention : Reuss Voigt Hill
#
# Bulk Modulus (GPa) = 77.80741 82.11381 79.96061
# Shear Modulus (GPa) = 31.51463 33.86046 32.68754
#
# Velocity S-wave (km/s) = 3.79875 3.93759 3.86879
# Velocity P-wave (km/s) = 7.40733 7.63365 7.52134
#
# Compressibility (1/GPa) = 0.01285225
#
# Stress axis : x y z
#
# Youngs Moduli (GPa) = 73.66675 84.59991 132.70299
#
# Poissons Ratio (x) = 0.41332 0.57418
# Poissons Ratio (y) = 0.35990 0.10972
# Poissons Ratio (z) = 0.31874 0.06994
#
# Static dielectric constant tensor:
#      x y z
#    x 1.886730 0.000000 0.000000 
#    y 0.000000 1.830120 0.000000 
#    z 0.000000 0.000000 1.801420 
# 
# From -- ./inp_files/44315.got.cif
#   From: 2010.05.17/outbox.cif.g08.bks.cpg/sg52_23_cif.got.tgz:44315.got - 2010.06.03 12:15:38.
