data_PCOD9411785
_publ_section_title
;
Structure prediction by ZEFSAII (Michael W. Deem and Ramdas Pophale) SiO2 
 PCOD9411785
Probable space group: P N N A
;
_chemical_formula_sum "Si O2"
_cell_formula_units_Z 48
_cell_length_a 27.310985
_cell_length_b 7.858368
_cell_length_c 10.332142
_cell_angle_alpha 90.000000
_cell_angle_beta 90.000000
_cell_angle_gamma 90.000000
_cell_volume 2217.481946
_symmetry_space_group_name_H-M "P N N A"
_symmetry_group_IT_number 52
_symmetry_cell_setting 'orthorhombic'
loop_
_space_group_symop_operation_xyz
x,y,z
1/2-x,-y,z
x,1/2-y,1/2-z
1/2-x,1/2+y,1/2-z
-x,-y,-z
1/2+x,y,-z
-x,1/2+y,1/2+z
1/2+x,1/2-y,1/2+z
loop_
_atom_site_type_symbol
_atom_site_label
_atom_site_fract_x
_atom_site_fract_y
_atom_site_fract_z
Si Si1 0.052802 0.357833 0.879291
Si Si2 0.123145 0.943036 0.250436
Si Si3 0.277914 0.759090 0.894504
Si Si4 0.470151 0.869920 0.344544
Si Si5 0.681064 0.593853 0.486802
Si Si6 0.151262 0.545637 0.957838
O O1 0.059179 0.250000 0.750000
O O2 0.100963 0.470428 0.903441
O O3 0.003643 0.467401 0.865962
O O4 0.044590 0.277098 0.021968
O O5 0.103386 0.750000 0.250000
O O6 0.151933 0.961366 0.385303
O O7 0.077918 0.069246 0.266846
O O8 0.156957 0.957419 0.123784
O O9 0.256491 0.750000 0.750000
O O10 0.235157 0.817586 0.992708
O O11 0.305210 0.581597 0.917292
O O12 0.314732 0.920814 0.904323
O O13 0.499947 0.750000 0.250000
O O14 0.652720 0.753931 0.425734
#
# Coordination Sequence:
#
# PCOD9411785 Si02
#       6
#     8   8   8   8   8   8
#     4  10  22  43  64  99 135 180 230 281 352 420
#     4   9  20  42  66  95 128 172 220 280 343 407
#     4  11  25  43  63  94 134 181 223 283 339 415
#     4  10  22  40  68  95 137 178 224 292 347 408
#     4  10  24  42  66  96 127 177 226 273 348 407
#     4  10  22  43  67  94 136 172 220 285 339 415
#
# _framework density 21.646176000000001
#
# number of rings (size 3 to 8) (size 9 to 14) (size 15 to 20)
#    0.000    2.000    0.000    1.500    9.333    2.000 
#   24.000    0.000    0.000    0.000    0.000    0.000 
#    0.000    0.000    0.000    0.000    0.000    0.000 
#
# Total GULP energy -267554.235695 kJ/mol
# GULP energy per Si atom -5574.046577 kJ/mol
# Density = 2.159691 g / cm^3
# Si number density = 21.646176 Si / 1000 Ang^3
#
#
#
# Elastic Constant Matrix: (Units=GPa)
#
#
# Indices 1 2 3 4 5 6 
#
# 1 68.3847 9.8993 48.9035 0.0000 0.0000 0.0000
# 2 9.8993 71.6161 59.8530 0.0000 0.0000 0.0000
# 3 48.9035 59.8530 144.4967 0.0000 0.0000 0.0000
# 4 0.0000 0.0000 0.0000 30.8339 0.0000 0.0000
# 5 0.0000 0.0000 0.0000 0.0000 29.0059 0.0000
# 6 0.0000 0.0000 0.0000 0.0000 0.0000 -8.0293
#
#
#
# Elastic Compliance Matrix: (Units=1/GPa)
#
#
# Indices 1 2 3 4 5 6 
#
# 1 0.020185 0.004465 -0.008681 0.000000 0.000000 0.000000
# 2 0.004465 0.022344 -0.010766 0.000000 0.000000 0.000000
# 3 -0.008681 -0.010766 0.014318 0.000000 0.000000 0.000000
# 4 0.000000 0.000000 0.000000 0.032432 0.000000 0.000000
# 5 0.000000 0.000000 0.000000 0.000000 0.034476 0.000000
# 6 0.000000 0.000000 0.000000 0.000000 0.000000 -0.124544
#
#
# Mechanical properties :
#
#
# Convention : Reuss Voigt Hill
#
# Bulk Modulus (GPa) = 37.19923 57.97881 47.58902
# Shear Modulus (GPa) = 131.11122 21.41822 76.26472
#
# Velocity S-wave (km/s) = 7.79113 3.14900 5.94213
# Velocity P-wave (km/s) = 9.90747 6.32965 8.31332
#
# Compressibility (1/GPa) = 0.02688228
#
# Stress axis : x y z
#
# Youngs Moduli (GPa) = 49.54281 44.75431 69.84173
#
# Poissons Ratio (x) = -0.19982 0.60627
# Poissons Ratio (y) = -0.22120 0.75195
# Poissons Ratio (z) = 0.43006 0.48184
#
# Static dielectric constant tensor:
#      x y z
#    x 1.817680 0.000000 0.000000 
#    y 0.000000 1.849620 0.000000 
#    z 0.000000 0.000000 1.815480 
# 
# From -- ./inp_files/15531.got.cif
#   From: 2010.05.17/outbox.cif.g08.bks.cpg/sg52_8_cif.got.tgz:15531.got - 2010.06.03 12:15:38.
