data_PCOD9411001
_publ_section_title
;
Structure prediction by ZEFSAII (Michael W. Deem and Ramdas Pophale) SiO2 
 PCOD9411001
Probable space group: P N N A
;
_chemical_formula_sum "Si O2"
_cell_formula_units_Z 40
_cell_length_a 11.616588
_cell_length_b 5.144683
_cell_length_c 27.237833
_cell_angle_alpha 90.000000
_cell_angle_beta 90.000000
_cell_angle_gamma 90.000000
_cell_volume 1627.832667
_symmetry_space_group_name_H-M "P N N A"
_symmetry_group_IT_number 52
_symmetry_cell_setting 'orthorhombic'
loop_
_space_group_symop_operation_xyz
x,y,z
1/2-x,-y,z
x,1/2-y,1/2-z
1/2-x,1/2+y,1/2-z
-x,-y,-z
1/2+x,y,-z
-x,1/2+y,1/2+z
1/2+x,1/2-y,1/2+z
loop_
_atom_site_type_symbol
_atom_site_label
_atom_site_fract_x
_atom_site_fract_y
_atom_site_fract_z
Si Si1 0.957597 0.013256 0.718039
Si Si2 0.451939 0.735453 0.125286
Si Si3 0.626236 0.382638 0.064784
Si Si4 0.823259 0.736878 0.533231
Si Si5 0.366976 0.625995 0.667453
O O1 0.906318 0.250000 0.750000
O O2 0.081018 0.134839 0.698943
O O3 0.964421 0.750000 0.750000
O O4 0.896250 0.949600 0.666389
O O5 0.534841 0.573288 0.089184
O O6 0.371235 0.864295 0.085280
O O7 0.529451 0.924962 0.158274
O O8 0.750000 0.500000 0.052465
O O9 0.655831 0.203950 0.111181
O O10 0.587170 0.280811 0.011724
O O11 0.750000 0.500000 0.512352
O O12 0.750000 0.000000 0.544456
O O13 0.250000 0.500000 0.687778
#
# Coordination Sequence:
#
# PCOD9411001 Si02
#       5
#     8   8   8   8   8
#     4  11  24  45  66  97 130 175 221 278 337 404
#     4  11  24  43  70  96 134 181 220 277 335 393
#     4  10  21  39  65 100 142 178 218 260 327 406
#     4  11  27  44  67 100 135 177 228 277 326 391
#     4  11  22  40  67 100 141 178 220 263 329 406
#
# _framework density 24.57255
#
# number of rings (size 3 to 8) (size 9 to 14) (size 15 to 20)
#    0.000    1.200    4.000    1.200    8.400    0.800 
#    3.600    0.000    0.000    2.400    0.000    0.000 
#    0.000    0.000    0.000    0.000    0.000    0.000 
#
# Total GULP energy -223070.099179 kJ/mol
# GULP energy per Si atom -5576.752479 kJ/mol
# Density = 2.451662 g / cm^3
# Si number density = 24.572550 Si / 1000 Ang^3
#
#
#
# Elastic Constant Matrix: (Units=GPa)
#
#
# Indices 1 2 3 4 5 6 
#
# 1 19.5982 6.2595 3.5656 0.0000 0.0000 0.0000
# 2 6.2595 109.0089 25.8662 0.0000 0.0000 0.0000
# 3 3.5656 25.8662 161.7630 0.0000 0.0000 0.0000
# 4 0.0000 0.0000 0.0000 97.2551 0.0000 0.0000
# 5 0.0000 0.0000 0.0000 0.0000 31.1718 0.0000
# 6 0.0000 0.0000 0.0000 0.0000 0.0000 23.8761
#
#
#
# Elastic Compliance Matrix: (Units=1/GPa)
#
#
# Indices 1 2 3 4 5 6 
#
# 1 0.052053 -0.002824 -0.000696 0.000000 0.000000 0.000000
# 2 -0.002824 0.009689 -0.001487 0.000000 0.000000 0.000000
# 3 -0.000696 -0.001487 0.006435 0.000000 0.000000 0.000000
# 4 0.000000 0.000000 0.000000 0.010282 0.000000 0.000000
# 5 0.000000 0.000000 0.000000 0.000000 0.032080 0.000000
# 6 0.000000 0.000000 0.000000 0.000000 0.000000 0.041883
#
#
# Mechanical properties :
#
#
# Convention : Reuss Voigt Hill
#
# Bulk Modulus (GPa) = 17.19287 40.19476 28.69382
# Shear Modulus (GPa) = 27.49916 47.43918 37.46917
#
# Velocity S-wave (km/s) = 3.34893 4.39860 3.90915
# Velocity P-wave (km/s) = 4.68676 6.49538 5.66373
#
# Compressibility (1/GPa) = 0.05816364
#
# Stress axis : x y z
#
# Youngs Moduli (GPa) = 19.21101 103.21458 155.40034
#
# Poissons Ratio (x) = 0.29147 0.10813
# Poissons Ratio (y) = 0.05425 0.23108
# Poissons Ratio (z) = 0.01337 0.15348
#
# Static dielectric constant tensor:
#      x y z
#    x 2.056320 0.000000 0.000000 
#    y 0.000000 2.144200 0.000000 
#    z 0.000000 0.000000 2.150120 
# 
# From -- ./inp_files/44726.got.cif
#   From: 2010.05.17/outbox.cif.g08.bks.cpg/sg52_23_cif.got.tgz:44726.got - 2010.06.03 12:15:38.
