data_PCOD9411208
_publ_section_title
;
Structure prediction by ZEFSAII (Michael W. Deem and Ramdas Pophale) SiO2 
 PCOD9411208
Probable space group: P N N A
;
_chemical_formula_sum "Si O2"
_cell_formula_units_Z 32
_cell_length_a 17.079266
_cell_length_b 15.360037
_cell_length_c 5.172735
_cell_angle_alpha 90.000000
_cell_angle_beta 90.000000
_cell_angle_gamma 90.000000
_cell_volume 1357.005770
_symmetry_space_group_name_H-M "P N N A"
_symmetry_group_IT_number 52
_symmetry_cell_setting 'orthorhombic'
loop_
_space_group_symop_operation_xyz
x,y,z
1/2-x,-y,z
x,1/2-y,1/2-z
1/2-x,1/2+y,1/2-z
-x,-y,-z
1/2+x,y,-z
-x,1/2+y,1/2+z
1/2+x,1/2-y,1/2+z
loop_
_atom_site_type_symbol
_atom_site_label
_atom_site_fract_x
_atom_site_fract_y
_atom_site_fract_z
Si Si1 0.554513 0.250000 0.750000
Si Si2 0.660350 0.901102 0.554255
Si Si3 0.945487 0.250000 0.750000
Si Si4 0.555139 0.000000 0.244012
Si Si5 0.839650 0.901102 0.554255
O O1 0.500000 0.258350 0.500000
O O2 0.610269 0.166932 0.712123
O O3 0.610269 0.833068 0.712122
O O4 0.750000 0.874265 0.516067
O O5 0.613024 0.918156 0.286538
O O6 0.661482 0.000000 0.668142
O O7 0.113024 0.081844 0.713462
O O8 0.500000 0.000000 0.500000
O O9 0.500000 0.000000 0.000000
#
# Coordination Sequence:
#
# PCOD9411208 Si02
#       5
#     4   8   4   8   8
#     4  12  27  46  73 110 154 208 258 314 381 456
#     4   9  22  47  75 109 150 199 254 317 386 454
#     4  12  27  46  73 110 154 208 258 314 381 456
#     4  10  21  40  71 108 141 182 245 312 377 444
#     4   9  22  47  75 109 150 199 254 317 386 454
#
# _framework density 23.581327999999999
#
# number of rings (size 3 to 8) (size 9 to 14) (size 15 to 20)
#    1.500    0.500    0.000    2.250    0.000    9.000 
#    0.000   15.000    0.000    0.000    0.000    0.000 
#    0.000    0.000    0.000    0.000    0.000    0.000 
#
# Total GULP energy -178848.440156 kJ/mol
# GULP energy per Si atom -5589.013755 kJ/mol
# Density = 2.352766 g / cm^3
# Si number density = 23.581328 Si / 1000 Ang^3
#
#
#
# Elastic Constant Matrix: (Units=GPa)
#
#
# Indices 1 2 3 4 5 6 
#
# 1 271.2592 83.1206 119.8854 0.0000 0.0000 0.0000
# 2 83.1206 131.2960 67.6213 0.0000 0.0000 0.0000
# 3 119.8854 67.6213 172.7387 0.0000 0.0000 0.0000
# 4 0.0000 0.0000 0.0000 21.5920 0.0000 0.0000
# 5 0.0000 0.0000 0.0000 0.0000 9.5223 0.0000
# 6 0.0000 0.0000 0.0000 0.0000 0.0000 45.2646
#
#
#
# Elastic Compliance Matrix: (Units=1/GPa)
#
#
# Indices 1 2 3 4 5 6 
#
# 1 0.005696 -0.001966 -0.003183 0.000000 0.000000 0.000000
# 2 -0.001966 0.010219 -0.002635 0.000000 0.000000 0.000000
# 3 -0.003183 -0.002635 0.009030 0.000000 0.000000 0.000000
# 4 0.000000 0.000000 0.000000 0.046313 0.000000 0.000000
# 5 0.000000 0.000000 0.000000 0.000000 0.105017 0.000000
# 6 0.000000 0.000000 0.000000 0.000000 0.000000 0.022092
#
#
# Mechanical properties :
#
#
# Convention : Reuss Voigt Hill
#
# Bulk Modulus (GPa) = 106.67625 124.06096 115.36860
# Shear Modulus (GPa) = 23.03481 35.58687 29.31084
#
# Velocity S-wave (km/s) = 3.12881 3.88894 3.52940
# Velocity P-wave (km/s) = 7.64123 8.53752 8.10178
#
# Compressibility (1/GPa) = 0.00937416
#
# Stress axis : x y z
#
# Youngs Moduli (GPa) = 175.56128 97.86024 110.74037
#
# Poissons Ratio (x) = 0.19244 0.35253
# Poissons Ratio (y) = 0.34524 0.29185
# Poissons Ratio (z) = 0.55888 0.25791
#
# Static dielectric constant tensor:
#      x y z
#    x 1.904380 0.000000 0.000000 
#    y 0.000000 1.966730 0.000000 
#    z 0.000000 0.000000 1.928190 
# 
# From -- ./inp_files/3145.got.cif
#   From: 2010.05.17/outbox.cif.g08.bks.cpg/sg52_2_cif.got.tgz:3145.got - 2010.06.03 12:15:38.
