data_PCOD9411967
_publ_section_title
;
Structure prediction by ZEFSAII (Michael W. Deem and Ramdas Pophale) SiO2 
 PCOD9411967
Probable space group: P N N A
;
_chemical_formula_sum "Si O2"
_cell_formula_units_Z 40
_cell_length_a 9.865482
_cell_length_b 21.189200
_cell_length_c 8.512547
_cell_angle_alpha 90.000000
_cell_angle_beta 90.000000
_cell_angle_gamma 90.000000
_cell_volume 1779.477051
_symmetry_space_group_name_H-M "P N N A"
_symmetry_group_IT_number 52
_symmetry_cell_setting 'orthorhombic'
loop_
_space_group_symop_operation_xyz
x,y,z
1/2-x,-y,z
x,1/2-y,1/2-z
1/2-x,1/2+y,1/2-z
-x,-y,-z
1/2+x,y,-z
-x,1/2+y,1/2+z
1/2+x,1/2-y,1/2+z
loop_
_atom_site_type_symbol
_atom_site_label
_atom_site_fract_x
_atom_site_fract_y
_atom_site_fract_z
Si Si1 0.259531 0.250000 0.750000
Si Si2 0.637363 0.086206 0.098219
Si Si3 0.881235 0.165436 0.998657
Si Si4 0.796131 0.127652 0.678453
Si Si5 0.911380 0.637946 0.088394
Si Si6 0.750000 0.500000 0.638752
O O1 0.356160 0.276681 0.613046
O O2 0.159955 0.302461 0.825726
O O3 0.530679 0.138790 0.034656
O O4 0.611264 0.081446 0.283878
O O5 0.790278 0.111494 0.079819
O O6 0.637022 0.028351 0.978509
O O7 0.811981 0.173690 0.827921
O O8 0.662268 0.131061 0.576226
O O9 0.800933 0.057750 0.755087
O O10 0.927513 0.141642 0.573353
#
# Coordination Sequence:
#
# PCOD9411967 Si02
#       6
#     4   8   8   8   8   4
#     4  10  22  42  68  92 128 170 204 270 332 364
#     4   9  20  39  62  91 121 161 214 256 310 387
#     4   9  20  39  63  93 123 160 213 257 310 386
#     4  10  23  41  62  95 129 163 216 262 312 393
#     4  10  23  40  61  93 128 164 217 261 310 390
#     4  10  22  42  68  90 126 168 204 274 336 362
#
# _framework density 22.478513
#
# number of rings (size 3 to 8) (size 9 to 14) (size 15 to 20)
#    0.000    2.400    0.000    0.000    0.000   20.800 
#    0.000    0.000    0.000    0.000    0.000    0.000 
#    0.000    0.000    0.000    0.000    0.000    0.000 
#
# Total GULP energy -223160.807057 kJ/mol
# GULP energy per Si atom -5579.020176 kJ/mol
# Density = 2.242735 g / cm^3
# Si number density = 22.478513 Si / 1000 Ang^3
#
#
#
# Elastic Constant Matrix: (Units=GPa)
#
#
# Indices 1 2 3 4 5 6 
#
# 1 59.6983 20.7694 38.7774 0.0000 0.0000 0.0000
# 2 20.7694 81.7448 54.1674 0.0000 0.0000 0.0000
# 3 38.7774 54.1674 109.2605 0.0000 0.0000 0.0000
# 4 0.0000 0.0000 0.0000 32.0410 0.0000 0.0000
# 5 0.0000 0.0000 0.0000 0.0000 26.6829 0.0000
# 6 0.0000 0.0000 0.0000 0.0000 0.0000 25.7126
#
#
#
# Elastic Compliance Matrix: (Units=1/GPa)
#
#
# Indices 1 2 3 4 5 6 
#
# 1 0.021790 -0.000613 -0.007429 0.000000 0.000000 0.000000
# 2 -0.000613 0.018235 -0.008823 0.000000 0.000000 0.000000
# 3 -0.007429 -0.008823 0.016163 0.000000 0.000000 0.000000
# 4 0.000000 0.000000 0.000000 0.031210 0.000000 0.000000
# 5 0.000000 0.000000 0.000000 0.000000 0.037477 0.000000
# 6 0.000000 0.000000 0.000000 0.000000 0.000000 0.038892
#
#
# Mechanical properties :
#
#
# Convention : Reuss Voigt Hill
#
# Bulk Modulus (GPa) = 44.52821 53.12577 48.82699
# Shear Modulus (GPa) = 24.39212 26.01992 25.20602
#
# Velocity S-wave (km/s) = 3.29771 3.40596 3.35227
# Velocity P-wave (km/s) = 5.86106 6.25722 6.06238
#
# Compressibility (1/GPa) = 0.02245768
#
# Stress axis : x y z
#
# Youngs Moduli (GPa) = 45.89239 54.83856 61.86890
#
# Poissons Ratio (x) = 0.03363 0.45965
# Poissons Ratio (y) = 0.02815 0.54585
# Poissons Ratio (z) = 0.34095 0.48383
#
# Static dielectric constant tensor:
#      x y z
#    x 1.803910 0.000000 0.000000 
#    y 0.000000 1.925210 0.000000 
#    z 0.000000 0.000000 1.854790 
# 
# From -- ./inp_files/7472.got.cif
#   From: 2010.05.17/outbox.cif.g08.bks.cpg/sg52_4_cif.got.tgz:7472.got - 2010.06.03 12:15:38.
