data_PCOD9411020
_publ_section_title
;
Structure prediction by ZEFSAII (Michael W. Deem and Ramdas Pophale) SiO2 
 PCOD9411020
Probable space group: P N N A
;
_chemical_formula_sum "Si O2"
_cell_formula_units_Z 48
_cell_length_a 27.188186
_cell_length_b 9.758162
_cell_length_c 8.915663
_cell_angle_alpha 90.000000
_cell_angle_beta 90.000000
_cell_angle_gamma 90.000000
_cell_volume 2365.385338
_symmetry_space_group_name_H-M "P N N A"
_symmetry_group_IT_number 52
_symmetry_cell_setting 'orthorhombic'
loop_
_space_group_symop_operation_xyz
x,y,z
1/2-x,-y,z
x,1/2-y,1/2-z
1/2-x,1/2+y,1/2-z
-x,-y,-z
1/2+x,y,-z
-x,1/2+y,1/2+z
1/2+x,1/2-y,1/2+z
loop_
_atom_site_type_symbol
_atom_site_label
_atom_site_fract_x
_atom_site_fract_y
_atom_site_fract_z
Si Si1 0.967575 0.396787 0.678840
Si Si2 0.384398 0.607200 0.302068
Si Si3 0.168385 0.168622 0.896903
Si Si4 0.664767 0.592252 0.231218
Si Si5 0.301965 0.566232 0.057512
Si Si6 0.550108 0.607542 0.323400
O O1 0.968342 0.250000 0.750000
O O2 0.921027 0.485226 0.729737
O O3 0.959517 0.382208 0.500709
O O4 0.016473 0.479884 0.721996
O O5 0.407529 0.750000 0.250000
O O6 0.370831 0.626879 0.476231
O O7 0.335571 0.585836 0.203135
O O8 0.148366 0.250000 0.750000
O O9 0.189669 0.025168 0.835273
O O10 0.202020 0.284070 0.977432
O O11 0.681701 0.750000 0.250000
O O12 0.607118 0.589187 0.277382
O O13 0.672582 0.535521 0.063387
O O14 0.250000 0.500000 0.094589
O O15 0.533771 0.750000 0.250000
#
# Coordination Sequence:
#
# PCOD9411020 Si02
#       6
#     8   8   8   8   8   8
#     4  11  24  40  65  96 132 168 220 263 329 393
#     4  10  21  41  63  91 131 172 212 270 329 388
#     4   9  19  40  65  89 126 165 213 264 318 389
#     4  10  21  39  65  94 130 171 215 273 324 383
#     4  10  23  41  64  93 126 170 223 268 331 389
#     4  10  23  43  61  95 134 169 221 261 324 394
#
# _framework density 20.292676
#
# number of rings (size 3 to 8) (size 9 to 14) (size 15 to 20)
#    0.000    2.000    1.667    0.500    4.667    4.667 
#    3.000   10.833    0.000    0.000    0.000    0.000 
#    0.000    0.000    0.000    0.000    0.000    0.000 
#
# Total GULP energy -267839.322393 kJ/mol
# GULP energy per Si atom -5579.985883 kJ/mol
# Density = 2.024649 g / cm^3
# Si number density = 20.292676 Si / 1000 Ang^3
#
#
#
# Elastic Constant Matrix: (Units=GPa)
#
#
# Indices 1 2 3 4 5 6 
#
# 1 70.7412 59.2678 20.4984 0.0000 0.0000 0.0000
# 2 59.2678 204.1131 46.7589 0.0000 0.0000 0.0000
# 3 20.4984 46.7589 72.2837 0.0000 0.0000 0.0000
# 4 0.0000 0.0000 0.0000 30.6892 0.0000 0.0000
# 5 0.0000 0.0000 0.0000 0.0000 12.3343 0.0000
# 6 0.0000 0.0000 0.0000 0.0000 0.0000 29.9991
#
#
#
# Elastic Compliance Matrix: (Units=1/GPa)
#
#
# Indices 1 2 3 4 5 6 
#
# 1 0.018956 -0.005016 -0.002131 0.000000 0.000000 0.000000
# 2 -0.005016 0.007079 -0.003157 0.000000 0.000000 0.000000
# 3 -0.002131 -0.003157 0.016481 0.000000 0.000000 0.000000
# 4 0.000000 0.000000 0.000000 0.032585 0.000000 0.000000
# 5 0.000000 0.000000 0.000000 0.000000 0.081074 0.000000
# 6 0.000000 0.000000 0.000000 0.000000 0.000000 0.033334
#
#
# Mechanical properties :
#
#
# Convention : Reuss Voigt Hill
#
# Bulk Modulus (GPa) = 45.64469 66.68758 56.16613
# Shear Modulus (GPa) = 22.99706 29.31205 26.15455
#
# Velocity S-wave (km/s) = 3.37006 3.80473 3.59397
# Velocity P-wave (km/s) = 6.13882 7.22742 6.70525
#
# Compressibility (1/GPa) = 0.02190836
#
# Stress axis : x y z
#
# Youngs Moduli (GPa) = 52.75374 141.26483 60.67717
#
# Poissons Ratio (x) = 0.70859 0.12929
# Poissons Ratio (y) = 0.26462 0.19154
# Poissons Ratio (z) = 0.11241 0.44593
#
# Static dielectric constant tensor:
#      x y z
#    x 1.708130 0.000000 0.000000 
#    y 0.000000 1.727950 0.000000 
#    z 0.000000 0.000000 1.718930 
# 
# From -- ./inp_files/15470.got.cif
#   From: 2010.05.17/outbox.cif.g08.bks.cpg/sg52_8_cif.got.tgz:15470.got - 2010.06.03 12:15:38.
