data_PCOD9411800
_publ_section_title
;
Structure prediction by ZEFSAII (Michael W. Deem and Ramdas Pophale) SiO2 
 PCOD9411800
Probable space group: P N N A
;
_chemical_formula_sum "Si O2"
_cell_formula_units_Z 60
_cell_length_a 8.770935
_cell_length_b 29.275397
_cell_length_c 10.759229
_cell_angle_alpha 90.000000
_cell_angle_beta 90.000000
_cell_angle_gamma 90.000000
_cell_volume 2762.675249
_symmetry_space_group_name_H-M "P N N A"
_symmetry_group_IT_number 52
_symmetry_cell_setting 'orthorhombic'
loop_
_space_group_symop_operation_xyz
x,y,z
1/2-x,-y,z
x,1/2-y,1/2-z
1/2-x,1/2+y,1/2-z
-x,-y,-z
1/2+x,y,-z
-x,1/2+y,1/2+z
1/2+x,1/2-y,1/2+z
loop_
_atom_site_type_symbol
_atom_site_label
_atom_site_fract_x
_atom_site_fract_y
_atom_site_fract_z
Si Si1 0.405937 0.470926 0.896765
Si Si2 0.558656 0.633729 0.096907
Si Si3 0.049929 0.594970 0.330696
Si Si4 0.941475 0.323075 0.356686
Si Si5 0.294411 0.630172 0.496779
Si Si6 0.932565 0.000101 0.140224
Si Si7 0.364741 0.750000 0.250000
Si Si8 0.716371 0.839437 0.637046
O O1 0.250000 0.500000 0.886251
O O2 0.387470 0.417823 0.933395
O O3 0.467049 0.464750 0.752789
O O4 0.500000 0.500000 0.000000
O O5 0.614296 0.656038 0.226305
O O6 0.375586 0.635706 0.104303
O O7 0.618352 0.665277 0.986471
O O8 0.177557 0.593858 0.439852
O O9 0.119177 0.629202 0.230830
O O10 0.893186 0.613246 0.388688
O O11 0.005069 0.544538 0.293380
O O12 0.811199 0.328185 0.458940
O O13 0.081632 0.355391 0.396927
O O14 0.018449 0.274015 0.345374
O O15 0.750000 0.000000 0.124125
O O16 0.000000 0.000000 0.000000
O O17 0.264457 0.790869 0.305071
#
# Coordination Sequence:
#
# PCOD9411800 Si02
#       8
#     8   8   8   8   8   8   4   8
#     4  11  25  43  64  95 133 181 235 286 330 418
#     4  11  24  43  68  97 139 180 232 276 366 397
#     4  11  22  43  66  98 136 182 228 276 358 401
#     4  10  23  41  69  98 133 179 217 290 333 418
#     4  10  22  40  70  94 131 181 225 272 342 416
#     4  11  26  40  64 101 137 177 229 295 336 403
#     4  10  22  48  66 106 138 164 242 276 356 400
#     4  11  25  45  71 100 136 188 220 297 337 441
#
# _framework density 21.718078999999999
#
# number of rings (size 3 to 8) (size 9 to 14) (size 15 to 20)
#    0.000    1.333    2.667    2.400    9.333    3.733 
#    0.000    0.667    0.000    0.000    0.000    0.000 
#    0.000    0.000    0.000    0.000    0.000    0.000 
#
# Total GULP energy -334728.818836 kJ/mol
# GULP energy per Si atom -5578.813647 kJ/mol
# Density = 2.166865 g / cm^3
# Si number density = 21.718079 Si / 1000 Ang^3
#
#
#
# Elastic Constant Matrix: (Units=GPa)
#
#
# Indices 1 2 3 4 5 6 
#
# 1 85.0697 15.9280 34.2464 0.0000 0.0000 0.0000
# 2 15.9280 93.7551 11.6205 0.0000 0.0000 0.0000
# 3 34.2464 11.6205 110.8250 0.0000 0.0000 0.0000
# 4 0.0000 0.0000 0.0000 19.7588 0.0000 0.0000
# 5 0.0000 0.0000 0.0000 0.0000 41.0516 0.0000
# 6 0.0000 0.0000 0.0000 0.0000 0.0000 26.6225
#
#
#
# Elastic Compliance Matrix: (Units=1/GPa)
#
#
# Indices 1 2 3 4 5 6 
#
# 1 0.013728 -0.001830 -0.004050 0.000000 0.000000 0.000000
# 2 -0.001830 0.011051 -0.000593 0.000000 0.000000 0.000000
# 3 -0.004050 -0.000593 0.010337 0.000000 0.000000 0.000000
# 4 0.000000 0.000000 0.000000 0.050610 0.000000 0.000000
# 5 0.000000 0.000000 0.000000 0.000000 0.024360 0.000000
# 6 0.000000 0.000000 0.000000 0.000000 0.000000 0.037562
#
#
# Mechanical properties :
#
#
# Convention : Reuss Voigt Hill
#
# Bulk Modulus (GPa) = 45.10916 45.91551 45.51234
# Shear Modulus (GPa) = 29.76458 32.67691 31.22074
#
# Velocity S-wave (km/s) = 3.70604 3.88312 3.79561
# Velocity P-wave (km/s) = 6.25527 6.42591 6.34116
#
# Compressibility (1/GPa) = 0.02216844
#
# Stress axis : x y z
#
# Youngs Moduli (GPa) = 72.84231 90.49324 96.73959
#
# Poissons Ratio (x) = 0.16563 0.39183
# Poissons Ratio (y) = 0.13332 0.05738
# Poissons Ratio (z) = 0.29503 0.05367
#
# Static dielectric constant tensor:
#      x y z
#    x 1.771360 0.000000 0.000000 
#    y 0.000000 1.915450 0.000000 
#    z 0.000000 0.000000 1.878430 
# 
# From -- ./inp_files/17145.got.cif
#   From: 2010.05.17/outbox.cif.g08.bks.cpg/sg52_9_cif.got.tgz:17145.got - 2010.06.03 12:15:38.
