data_PCOD9411383
_publ_section_title
;
Structure prediction by ZEFSAII (Michael W. Deem and Ramdas Pophale) SiO2 
 PCOD9411383
Probable space group: P N N A
;
_chemical_formula_sum "Si O2"
_cell_formula_units_Z 24
_cell_length_a 9.825817
_cell_length_b 7.883408
_cell_length_c 14.793887
_cell_angle_alpha 90.000000
_cell_angle_beta 90.000000
_cell_angle_gamma 90.000000
_cell_volume 1145.948162
_symmetry_space_group_name_H-M "P N N A"
_symmetry_group_IT_number 52
_symmetry_cell_setting 'orthorhombic'
loop_
_space_group_symop_operation_xyz
x,y,z
1/2-x,-y,z
x,1/2-y,1/2-z
1/2-x,1/2+y,1/2-z
-x,-y,-z
1/2+x,y,-z
-x,1/2+y,1/2+z
1/2+x,1/2-y,1/2+z
loop_
_atom_site_type_symbol
_atom_site_label
_atom_site_fract_x
_atom_site_fract_y
_atom_site_fract_z
Si Si1 0.250000 0.500000 0.556565
Si Si2 0.291144 0.323107 0.065581
Si Si3 0.750000 0.000000 0.738517
Si Si4 0.511570 0.147550 0.164507
O O1 0.250568 0.335579 0.493390
O O2 0.382911 0.523074 0.617934
O O3 0.250000 0.500000 0.018736
O O4 0.221301 0.350481 0.164368
O O5 0.447404 0.284244 0.094052
O O6 0.619111 0.953240 0.796638
O O7 0.570954 0.250000 0.250000
#
# Coordination Sequence:
#
# PCOD9411383 Si02
#       4
#     4   8   4   8
#     4  12  23  40  67 102 138 162 208 290 345 372
#     4   9  21  40  68  93 126 175 226 263 315 404
#     4   8  19  44  69  86 124 180 230 260 305 410
#     4  10  21  43  66  99 131 174 227 266 333 399
#
# _framework density 20.943353999999999
#
# number of rings (size 3 to 8) (size 9 to 14) (size 15 to 20)
#    1.000    1.333    0.000    2.000    0.000    1.333 
#    3.000    8.333    0.000    0.000    0.000    0.000 
#    0.000    0.000    0.000    0.000    0.000    0.000 
#
# Total GULP energy -133672.982541 kJ/mol
# GULP energy per Si atom -5569.707606 kJ/mol
# Density = 2.089569 g / cm^3
# Si number density = 20.943354 Si / 1000 Ang^3
#
#
#
# Elastic Constant Matrix: (Units=GPa)
#
#
# Indices 1 2 3 4 5 6 
#
# 1 87.5041 66.6678 62.4860 0.0000 0.0000 0.0000
# 2 66.6678 169.0241 71.5280 0.0000 0.0000 0.0000
# 3 62.4860 71.5280 103.5830 0.0000 0.0000 0.0000
# 4 0.0000 0.0000 0.0000 25.2978 0.0000 0.0000
# 5 0.0000 0.0000 0.0000 0.0000 13.9205 0.0000
# 6 0.0000 0.0000 0.0000 0.0000 0.0000 13.6087
#
#
#
# Elastic Compliance Matrix: (Units=1/GPa)
#
#
# Indices 1 2 3 4 5 6 
#
# 1 0.022131 -0.004351 -0.010346 0.000000 0.000000 0.000000
# 2 -0.004351 0.009214 -0.003738 0.000000 0.000000 0.000000
# 3 -0.010346 -0.003738 0.018477 0.000000 0.000000 0.000000
# 4 0.000000 0.000000 0.000000 0.039529 0.000000 0.000000
# 5 0.000000 0.000000 0.000000 0.000000 0.071836 0.000000
# 6 0.000000 0.000000 0.000000 0.000000 0.000000 0.073483
#
#
# Mechanical properties :
#
#
# Convention : Reuss Voigt Hill
#
# Bulk Modulus (GPa) = 77.20915 84.60830 80.90873
# Shear Modulus (GPa) = 18.12533 21.19402 19.65967
#
# Velocity S-wave (km/s) = 2.94504 3.18460 3.06716
# Velocity P-wave (km/s) = 6.96492 7.34905 7.15956
#
# Compressibility (1/GPa) = 0.01295183
#
# Stress axis : x y z
#
# Youngs Moduli (GPa) = 45.18601 108.52627 54.12242
#
# Poissons Ratio (x) = 0.47217 0.55994
# Poissons Ratio (y) = 0.19659 0.20232
# Poissons Ratio (z) = 0.46749 0.40570
#
# Static dielectric constant tensor:
#      x y z
#    x 1.723030 0.000000 0.000000 
#    y 0.000000 1.924510 0.000000 
#    z 0.000000 0.000000 1.795050 
# 
# From -- ./inp_files/23937.got.cif
#   From: 2010.05.17/outbox.cif.g08.bks.cpg/sg52_12_cif.got.tgz:23937.got - 2010.06.03 12:15:38.
