data_PCOD9411503
_publ_section_title
;
Structure prediction by ZEFSAII (Michael W. Deem and Ramdas Pophale) SiO2 
 PCOD9411503
Probable space group: P N N A
;
_chemical_formula_sum "Si O2"
_cell_formula_units_Z 44
_cell_length_a 18.898418
_cell_length_b 10.091439
_cell_length_c 11.964791
_cell_angle_alpha 90.000000
_cell_angle_beta 90.000000
_cell_angle_gamma 90.000000
_cell_volume 2281.832002
_symmetry_space_group_name_H-M "P N N A"
_symmetry_group_IT_number 52
_symmetry_cell_setting 'orthorhombic'
loop_
_space_group_symop_operation_xyz
x,y,z
1/2-x,-y,z
x,1/2-y,1/2-z
1/2-x,1/2+y,1/2-z
-x,-y,-z
1/2+x,y,-z
-x,1/2+y,1/2+z
1/2+x,1/2-y,1/2+z
loop_
_atom_site_type_symbol
_atom_site_label
_atom_site_fract_x
_atom_site_fract_y
_atom_site_fract_z
Si Si1 0.370363 0.845034 0.854843
Si Si2 0.669047 0.394391 0.700972
Si Si3 0.608986 0.843182 0.147707
Si Si4 0.250000 0.500000 0.103702
Si Si5 0.962996 0.875564 0.944139
Si Si6 0.237641 0.711032 0.495524
O O1 0.378031 0.750000 0.750000
O O2 0.292339 0.831335 0.907801
O O3 0.385203 0.999416 0.826004
O O4 0.422966 0.801126 0.955439
O O5 0.652820 0.250000 0.750000
O O6 0.686190 0.484873 0.807038
O O7 0.599614 0.430922 0.633197
O O8 0.734544 0.364674 0.615776
O O9 0.632910 0.750000 0.250000
O O10 0.527637 0.806047 0.118845
O O11 0.660016 0.821251 0.040952
O O12 0.244176 0.633136 0.032446
O O13 0.000000 0.000000 0.000000
#
# Coordination Sequence:
#
# PCOD9411503 Si02
#       6
#     8   8   8   4   8   8
#     4  10  22  41  63  84 122 167 195 243 312 364
#     4   9  19  37  58  81 116 160 190 245 305 351
#     4  11  23  39  62  92 120 159 204 253 300 363
#     4  10  22  36  62  94 116 156 214 254 300 364
#     4   9  20  38  59  83 122 158 199 241 304 361
#     4  10  22  37  61  90 123 153 205 254 303 358
#
# _framework density 19.282751999999999
#
# number of rings (size 3 to 8) (size 9 to 14) (size 15 to 20)
#    0.000    2.182    0.000    1.636   10.182    0.000 
#    6.545    0.909    0.000    0.000    0.000    0.000 
#    0.000    0.000    0.000    0.000    0.000    0.000 
#
# Total GULP energy -245316.528530 kJ/mol
# GULP energy per Si atom -5575.375648 kJ/mol
# Density = 1.923886 g / cm^3
# Si number density = 19.282752 Si / 1000 Ang^3
#
#
#
# Elastic Constant Matrix: (Units=GPa)
#
#
# Indices 1 2 3 4 5 6 
#
# 1 73.8095 13.5668 20.4370 0.0000 0.0000 0.0000
# 2 13.5668 101.4528 31.3339 0.0000 0.0000 0.0000
# 3 20.4370 31.3339 62.8071 0.0000 0.0000 0.0000
# 4 0.0000 0.0000 0.0000 27.7917 0.0000 0.0000
# 5 0.0000 0.0000 0.0000 0.0000 18.0875 0.0000
# 6 0.0000 0.0000 0.0000 0.0000 0.0000 9.5886
#
#
#
# Elastic Compliance Matrix: (Units=1/GPa)
#
#
# Indices 1 2 3 4 5 6 
#
# 1 0.014919 -0.000586 -0.004562 0.000000 0.000000 0.000000
# 2 -0.000586 0.011675 -0.005634 0.000000 0.000000 0.000000
# 3 -0.004562 -0.005634 0.020217 0.000000 0.000000 0.000000
# 4 0.000000 0.000000 0.000000 0.035982 0.000000 0.000000
# 5 0.000000 0.000000 0.000000 0.000000 0.055287 0.000000
# 6 0.000000 0.000000 0.000000 0.000000 0.000000 0.104291
#
#
# Mechanical properties :
#
#
# Convention : Reuss Voigt Hill
#
# Bulk Modulus (GPa) = 39.60862 40.97165 40.29014
# Shear Modulus (GPa) = 18.35862 22.60900 20.48381
#
# Velocity S-wave (km/s) = 3.08892 3.42789 3.26281
# Velocity P-wave (km/s) = 5.77126 6.07957 5.92742
#
# Compressibility (1/GPa) = 0.02524703
#
# Stress axis : x y z
#
# Youngs Moduli (GPa) = 67.02697 85.65142 49.46319
#
# Poissons Ratio (x) = 0.05019 0.22567
# Poissons Ratio (y) = 0.03928 0.27867
# Poissons Ratio (z) = 0.30580 0.48256
#
# Static dielectric constant tensor:
#      x y z
#    x 1.751860 0.000000 0.000000 
#    y 0.000000 1.655630 0.000000 
#    z 0.000000 0.000000 1.695460 
# 
# From -- ./inp_files/20546.got.cif
#   From: 2010.05.17/outbox.cif.g08.bks.cpg/sg52_11_cif.got.tgz:20546.got - 2010.06.03 12:15:38.
