data_PCOD9411644
_publ_section_title
;
Structure prediction by ZEFSAII (Michael W. Deem and Ramdas Pophale) SiO2 
 PCOD9411644
Probable space group: P N N A
;
_chemical_formula_sum "Si O2"
_cell_formula_units_Z 44
_cell_length_a 26.280335
_cell_length_b 14.794485
_cell_length_c 5.515604
_cell_angle_alpha 90.000000
_cell_angle_beta 90.000000
_cell_angle_gamma 90.000000
_cell_volume 2144.489019
_symmetry_space_group_name_H-M "P N N A"
_symmetry_group_IT_number 52
_symmetry_cell_setting 'orthorhombic'
loop_
_space_group_symop_operation_xyz
x,y,z
1/2-x,-y,z
x,1/2-y,1/2-z
1/2-x,1/2+y,1/2-z
-x,-y,-z
1/2+x,y,-z
-x,1/2+y,1/2+z
1/2+x,1/2-y,1/2+z
loop_
_atom_site_type_symbol
_atom_site_label
_atom_site_fract_x
_atom_site_fract_y
_atom_site_fract_z
Si Si1 0.477982 0.356113 0.717086
Si Si2 0.365443 0.339181 0.162685
Si Si3 0.960569 0.856226 0.278314
Si Si4 0.794545 0.250000 0.250000
Si Si5 0.389351 0.480161 0.814722
Si Si6 0.210041 0.573766 0.547419
O O1 0.465139 0.250000 0.750000
O O2 0.511822 0.374975 0.479039
O O3 0.427345 0.414201 0.668430
O O4 0.506642 0.375755 0.974953
O O5 0.396175 0.250000 0.250000
O O6 0.324431 0.379829 0.344802
O O7 0.332446 0.293992 0.947189
O O8 0.393916 0.427458 0.070058
O O9 0.948395 0.750000 0.250000
O O10 0.911857 0.920682 0.304064
O O11 0.763728 0.337462 0.336191
O O12 0.331397 0.472396 0.725675
O O13 0.250000 0.500000 0.463643
#
# Coordination Sequence:
#
# PCOD9411644 Si02
#       6
#     8   8   8   4   8   8
#     4  10  23  38  64  95 128 165 210 268 325 379
#     4   9  20  35  60  91 123 153 205 267 317 372
#     4  10  23  43  61  92 134 170 213 264 316 388
#     4   8  18  40  60  84 122 152 196 268 314 368
#     4  11  23  36  66  90 124 168 210 258 319 383
#     4  10  22  39  61  93 125 163 210 260 316 375
#
# _framework density 20.517707999999999
#
# number of rings (size 3 to 8) (size 9 to 14) (size 15 to 20)
#    0.000    2.182    0.000    1.091   12.727    3.636 
#    1.636    0.000    0.000    0.000    0.000    0.000 
#    0.000    0.000    0.000    0.000    0.000    0.000 
#
# Total GULP energy -244997.754088 kJ/mol
# GULP energy per Si atom -5568.130775 kJ/mol
# Density = 2.047101 g / cm^3
# Si number density = 20.517708 Si / 1000 Ang^3
#
#
#
# Elastic Constant Matrix: (Units=GPa)
#
#
# Indices 1 2 3 4 5 6 
#
# 1 50.4754 45.6212 15.5304 0.0000 0.0000 0.0000
# 2 45.6212 97.9539 23.0368 0.0000 0.0000 0.0000
# 3 15.5304 23.0368 85.3284 0.0000 0.0000 0.0000
# 4 0.0000 0.0000 0.0000 20.0359 0.0000 0.0000
# 5 0.0000 0.0000 0.0000 0.0000 99.7427 0.0000
# 6 0.0000 0.0000 0.0000 0.0000 0.0000 -36.8172
#
#
#
# Elastic Compliance Matrix: (Units=1/GPa)
#
#
# Indices 1 2 3 4 5 6 
#
# 1 0.034555 -0.015605 -0.002076 0.000000 0.000000 0.000000
# 2 -0.015605 0.017949 -0.002005 0.000000 0.000000 0.000000
# 3 -0.002076 -0.002005 0.012639 0.000000 0.000000 0.000000
# 4 0.000000 0.000000 0.000000 0.049910 0.000000 0.000000
# 5 0.000000 0.000000 0.000000 0.000000 0.010026 0.000000
# 6 0.000000 0.000000 0.000000 0.000000 0.000000 -0.027161
#
#
# Mechanical properties :
#
#
# Convention : Reuss Voigt Hill
#
# Bulk Modulus (GPa) = 38.80724 44.68159 41.74442
# Shear Modulus (GPa) = 34.27451 26.56357 30.41904
#
# Velocity S-wave (km/s) = 4.09159 3.60205 3.85460
# Velocity P-wave (km/s) = 6.42468 6.25492 6.34037
#
# Compressibility (1/GPa) = 0.02576839
#
# Stress axis : x y z
#
# Youngs Moduli (GPa) = 28.93927 55.71452 79.12189
#
# Poissons Ratio (x) = 0.86945 0.16427
# Poissons Ratio (y) = 0.45161 0.15867
# Poissons Ratio (z) = 0.06008 0.11173
#
# Static dielectric constant tensor:
#      x y z
#    x 1.745720 0.000000 0.000000 
#    y 0.000000 1.763780 0.000000 
#    z 0.000000 0.000000 1.890670 
# 
# From -- ./inp_files/5745.got.cif
#   From: 2010.05.17/outbox.cif.g08.bks.cpg/sg52_3_cif.got.tgz:5745.got - 2010.06.03 12:15:38.
