data_PCOD9411881
_publ_section_title
;
Structure prediction by ZEFSAII (Michael W. Deem and Ramdas Pophale) SiO2 
 PCOD9411881
Probable space group: P N N A
;
_chemical_formula_sum "Si O2"
_cell_formula_units_Z 40
_cell_length_a 12.176941
_cell_length_b 12.217118
_cell_length_c 10.159171
_cell_angle_alpha 90.000000
_cell_angle_beta 90.000000
_cell_angle_gamma 90.000000
_cell_volume 1511.350663
_symmetry_space_group_name_H-M "P N N A"
_symmetry_group_IT_number 52
_symmetry_cell_setting 'orthorhombic'
loop_
_space_group_symop_operation_xyz
x,y,z
1/2-x,-y,z
x,1/2-y,1/2-z
1/2-x,1/2+y,1/2-z
-x,-y,-z
1/2+x,y,-z
-x,1/2+y,1/2+z
1/2+x,1/2-y,1/2+z
loop_
_atom_site_type_symbol
_atom_site_label
_atom_site_fract_x
_atom_site_fract_y
_atom_site_fract_z
Si Si1 0.130796 0.024962 0.531557
Si Si2 0.104583 0.403052 0.370876
Si Si3 0.553533 0.255397 0.402513
Si Si4 0.338324 0.141905 0.083516
Si Si5 0.631429 0.629601 0.282262
O O1 0.120561 0.156120 0.536489
O O2 0.250000 0.000000 0.460518
O O3 0.147388 0.959091 0.669018
O O4 0.000000 0.000000 0.500000
O O5 0.080926 0.366778 0.521654
O O6 0.221748 0.349081 0.347541
O O7 0.110082 0.532967 0.351955
O O8 0.000407 0.361692 0.293573
O O9 0.576540 0.250000 0.250000
O O10 0.419947 0.254920 0.414253
O O11 0.326165 0.108006 0.929799
O O12 0.675220 0.750000 0.250000
#
# Coordination Sequence:
#
# PCOD9411881 Si02
#       5
#     8   8   8   8   8
#     4  12  29  48  72 105 150 196 242 308 381 461
#     4  10  22  41  69  99 138 182 242 302 353 439
#     4  11  23  40  68 102 140 181 242 296 365 433
#     4  10  22  41  69 100 137 183 244 298 357 438
#     4  11  24  45  67 100 138 190 240 298 373 436
#
# _framework density 26.466393
#
# number of rings (size 3 to 8) (size 9 to 14) (size 15 to 20)
#    0.000    1.200    0.000    7.200   11.200    0.800 
#    7.200    0.000    0.000    0.000    0.000    0.000 
#    0.000    0.000    0.000    0.000    0.000    0.000 
#
# Total GULP energy -223394.156563 kJ/mol
# GULP energy per Si atom -5584.853914 kJ/mol
# Density = 2.640615 g / cm^3
# Si number density = 26.466393 Si / 1000 Ang^3
#
#
#
# Elastic Constant Matrix: (Units=GPa)
#
#
# Indices 1 2 3 4 5 6 
#
# 1 234.9921 59.0492 13.6358 0.0000 0.0000 0.0000
# 2 59.0492 80.7227 20.9406 0.0000 0.0000 0.0000
# 3 13.6358 20.9406 56.3042 0.0000 0.0000 0.0000
# 4 0.0000 0.0000 0.0000 36.6384 0.0000 0.0000
# 5 0.0000 0.0000 0.0000 0.0000 -9.8026 0.0000
# 6 0.0000 0.0000 0.0000 0.0000 0.0000 38.2093
#
#
#
# Elastic Compliance Matrix: (Units=1/GPa)
#
#
# Indices 1 2 3 4 5 6 
#
# 1 0.005215 -0.003860 0.000172 0.000000 0.000000 0.000000
# 2 -0.003860 0.016568 -0.005227 0.000000 0.000000 0.000000
# 3 0.000172 -0.005227 0.019663 0.000000 0.000000 0.000000
# 4 0.000000 0.000000 0.000000 0.027294 0.000000 0.000000
# 5 0.000000 0.000000 0.000000 0.000000 -0.102013 0.000000
# 6 0.000000 0.000000 0.000000 0.000000 0.000000 0.026172
#
#
# Mechanical properties :
#
#
# Convention : Reuss Voigt Hill
#
# Bulk Modulus (GPa) = 42.34216 62.14112 52.24164
# Shear Modulus (GPa) = 268.83603 31.56859 150.20231
#
# Velocity S-wave (km/s) = 10.08944 3.45741 7.54157
# Velocity P-wave (km/s) = 12.31919 6.28240 9.77831
#
# Compressibility (1/GPa) = 0.02361712
#
# Stress axis : x y z
#
# Youngs Moduli (GPa) = 191.74165 60.35908 50.85719
#
# Poissons Ratio (x) = 0.23297 -0.00877
# Poissons Ratio (y) = 0.74009 0.26583
# Poissons Ratio (z) = -0.03307 0.31550
#
# Static dielectric constant tensor:
#      x y z
#    x 2.190610 0.000000 0.000000 
#    y 0.000000 2.021190 0.000000 
#    z 0.000000 0.000000 2.088160 
# 
# From -- ./inp_files/19256.got.cif
#   From: 2010.05.17/outbox.cif.g08.bks.cpg/sg52_10_cif.got.tgz:19256.got - 2010.06.03 12:15:38.
