data_PCOD9411510
_publ_section_title
;
Structure prediction by ZEFSAII (Michael W. Deem and Ramdas Pophale) SiO2 
 PCOD9411510
Probable space group: P N N A
;
_chemical_formula_sum "Si O2"
_cell_formula_units_Z 56
_cell_length_a 18.144287
_cell_length_b 15.526228
_cell_length_c 9.121863
_cell_angle_alpha 90.000000
_cell_angle_beta 90.000000
_cell_angle_gamma 90.000000
_cell_volume 2569.741342
_symmetry_space_group_name_H-M "P N N A"
_symmetry_group_IT_number 52
_symmetry_cell_setting 'orthorhombic'
loop_
_space_group_symop_operation_xyz
x,y,z
1/2-x,-y,z
x,1/2-y,1/2-z
1/2-x,1/2+y,1/2-z
-x,-y,-z
1/2+x,y,-z
-x,1/2+y,1/2+z
1/2+x,1/2-y,1/2+z
loop_
_atom_site_type_symbol
_atom_site_label
_atom_site_fract_x
_atom_site_fract_y
_atom_site_fract_z
Si Si1 0.573614 0.164086 0.041333
Si Si2 0.070761 0.845469 0.235345
Si Si3 0.708845 0.915447 0.241479
Si Si4 0.811280 0.750000 0.250000
Si Si5 0.846260 0.493840 0.555866
Si Si6 0.697030 0.095349 0.657021
Si Si7 0.358946 0.429840 0.020199
Si Si8 0.598838 0.250000 0.750000
O O1 0.505954 0.165643 0.152783
O O2 0.636763 0.222905 0.115033
O O3 0.555651 0.201353 0.879914
O O4 0.602785 0.066076 0.022373
O O5 0.105239 0.750000 0.250000
O O6 0.113208 0.918732 0.144605
O O7 0.073637 0.885261 0.397463
O O8 0.759142 0.832823 0.265892
O O9 0.639748 0.908521 0.349207
O O10 0.750000 0.000000 0.301064
O O11 0.692689 0.939995 0.074282
O O12 0.805433 0.553150 0.678974
O O13 0.779941 0.102812 0.592404
O O14 0.653499 0.182554 0.673576
O O15 0.648708 0.030522 0.557377
#
# Coordination Sequence:
#
# PCOD9411510 Si02
#       8
#     8   8   8   4   8   8   8   4
#     4  11  23  46  66  96 131 183 227 276 336 419
#     4  11  25  44  66  90 133 183 227 272 333 422
#     4  12  24  42  67 104 137 169 219 297 345 404
#     4  12  26  40  70  98 136 174 228 276 352 404
#     4  10  24  42  70  95 134 177 226 283 349 409
#     4   9  19  39  64  96 127 168 217 272 337 406
#     4  10  22  39  61  93 133 169 212 267 340 396
#     4  10  22  36  70  94 120 164 230 276 324 392
#
# _framework density 21.792076000000002
#
# number of rings (size 3 to 8) (size 9 to 14) (size 15 to 20)
#    0.000    1.429    3.571    1.286    7.000    0.000 
#    2.571    0.714    0.000    0.000    0.000    0.000 
#    0.000    0.000    0.000    0.000    0.000    0.000 
#
# Total GULP energy -312371.222929 kJ/mol
# GULP energy per Si atom -5578.057552 kJ/mol
# Density = 2.174248 g / cm^3
# Si number density = 21.792076 Si / 1000 Ang^3
#
#
#
# Elastic Constant Matrix: (Units=GPa)
#
#
# Indices 1 2 3 4 5 6 
#
# 1 27.3589 26.9297 23.3716 0.0000 0.0000 0.0000
# 2 26.9297 122.0739 36.1551 0.0000 0.0000 0.0000
# 3 23.3716 36.1551 111.7205 0.0000 0.0000 0.0000
# 4 0.0000 0.0000 0.0000 26.5305 0.0000 0.0000
# 5 0.0000 0.0000 0.0000 0.0000 388.5101 0.0000
# 6 0.0000 0.0000 0.0000 0.0000 0.0000 7.9373
#
#
#
# Elastic Compliance Matrix: (Units=1/GPa)
#
#
# Indices 1 2 3 4 5 6 
#
# 1 0.052434 -0.009200 -0.007992 0.000000 0.000000 0.000000
# 2 -0.009200 0.010674 -0.001530 0.000000 0.000000 0.000000
# 3 -0.007992 -0.001530 0.011118 0.000000 0.000000 0.000000
# 4 0.000000 0.000000 0.000000 0.037692 0.000000 0.000000
# 5 0.000000 0.000000 0.000000 0.000000 0.002574 0.000000
# 6 0.000000 0.000000 0.000000 0.000000 0.000000 0.125988
#
#
# Mechanical properties :
#
#
# Convention : Reuss Voigt Hill
#
# Bulk Modulus (GPa) = 27.18651 48.22955 37.70803
# Shear Modulus (GPa) = 17.23043 96.24205 56.73624
#
# Velocity S-wave (km/s) = 2.81494 6.65279 5.10801
# Velocity P-wave (km/s) = 4.80288 9.01069 7.22012
#
# Compressibility (1/GPa) = 0.03678295
#
# Stress axis : x y z
#
# Youngs Moduli (GPa) = 19.07166 93.68209 89.94566
#
# Poissons Ratio (x) = 0.86188 0.71881
# Poissons Ratio (y) = 0.17546 0.13760
# Poissons Ratio (z) = 0.15241 0.14332
#
# Static dielectric constant tensor:
#      x y z
#    x 1.843390 0.000000 0.000000 
#    y 0.000000 1.797170 0.000000 
#    z 0.000000 0.000000 1.907780 
# 
# From -- ./inp_files/13493.got.cif
#   From: 2010.05.17/outbox.cif.g08.bks.cpg/sg52_7_cif.got.tgz:13493.got - 2010.06.03 12:15:38.
