data_PCOD9411948
_publ_section_title
;
Structure prediction by ZEFSAII (Michael W. Deem and Ramdas Pophale) SiO2 
 PCOD9411948
Probable space group: P N N A
;
_chemical_formula_sum "Si O2"
_cell_formula_units_Z 44
_cell_length_a 7.755463
_cell_length_b 15.526040
_cell_length_c 16.675992
_cell_angle_alpha 90.000000
_cell_angle_beta 90.000000
_cell_angle_gamma 90.000000
_cell_volume 2007.983358
_symmetry_space_group_name_H-M "P N N A"
_symmetry_group_IT_number 52
_symmetry_cell_setting 'orthorhombic'
loop_
_space_group_symop_operation_xyz
x,y,z
1/2-x,-y,z
x,1/2-y,1/2-z
1/2-x,1/2+y,1/2-z
-x,-y,-z
1/2+x,y,-z
-x,1/2+y,1/2+z
1/2+x,1/2-y,1/2+z
loop_
_atom_site_type_symbol
_atom_site_label
_atom_site_fract_x
_atom_site_fract_y
_atom_site_fract_z
Si Si1 0.575659 0.396309 0.601692
Si Si2 0.250000 0.500000 0.541308
Si Si3 0.791675 0.250000 0.250000
Si Si4 0.545351 0.407115 0.770137
Si Si5 0.750000 0.500000 0.159314
Si Si6 0.294726 0.797356 0.411577
Si Si7 0.615152 0.320271 0.096342
O O1 0.389821 0.444996 0.592134
O O2 0.667026 0.431382 0.521072
O O3 0.650609 0.421828 0.689127
O O4 0.608911 0.293464 0.604672
O O5 0.687176 0.260466 0.167693
O O6 0.910511 0.333143 0.254754
O O7 0.423956 0.486313 0.790778
O O8 0.632765 0.370000 0.850443
O O9 0.700645 0.414126 0.111768
O O10 0.329028 0.805556 0.505576
O O11 0.089745 0.805281 0.399729
#
# Coordination Sequence:
#
# PCOD9411948 Si02
#       7
#     8   4   4   8   4   8   8
#     4  11  23  44  63  99 133 181 227 287 341 425
#     4  10  25  40  65  94 140 180 226 287 358 397
#     4  10  22  42  66  96 130 180 222 280 332 416
#     4  11  23  44  69  95 139 178 226 287 347 416
#     4  10  25  46  65 102 138 184 228 285 354 419
#     4  12  25  44  72 102 134 185 232 293 343 429
#     4  11  26  43  70 102 137 183 234 288 357 413
#
# _framework density 21.912531999999999
#
# number of rings (size 3 to 8) (size 9 to 14) (size 15 to 20)
#    0.000    1.091    1.818    3.818    5.091    5.091 
#    6.545    0.000    0.000    0.000    0.000    0.000 
#    0.000    0.000    0.000    0.000    0.000    0.000 
#
# Total GULP energy -245184.851660 kJ/mol
# GULP energy per Si atom -5572.382992 kJ/mol
# Density = 2.186266 g / cm^3
# Si number density = 21.912532 Si / 1000 Ang^3
#
#
#
# Elastic Constant Matrix: (Units=GPa)
#
#
# Indices 1 2 3 4 5 6 
#
# 1 63.7143 0.0350 22.5810 0.0000 0.0000 0.0000
# 2 0.0350 33.8915 15.6555 0.0000 0.0000 0.0000
# 3 22.5810 15.6555 164.3920 0.0000 0.0000 0.0000
# 4 0.0000 0.0000 0.0000 -195.3185 0.0000 0.0000
# 5 0.0000 0.0000 0.0000 0.0000 94.0087 0.0000
# 6 0.0000 0.0000 0.0000 0.0000 0.0000 26.9976
#
#
#
# Elastic Compliance Matrix: (Units=1/GPa)
#
#
# Indices 1 2 3 4 5 6 
#
# 1 0.016536 0.001080 -0.002374 0.000000 0.000000 0.000000
# 2 0.001080 0.030934 -0.003094 0.000000 0.000000 0.000000
# 3 -0.002374 -0.003094 0.006704 0.000000 0.000000 0.000000
# 4 0.000000 0.000000 0.000000 -0.005120 0.000000 0.000000
# 5 0.000000 0.000000 0.000000 0.000000 0.010637 0.000000
# 6 0.000000 0.000000 0.000000 0.000000 0.000000 0.037040
#
#
# Mechanical properties :
#
#
# Convention : Reuss Voigt Hill
#
# Bulk Modulus (GPa) = 22.02828 37.61564 29.82196
# Shear Modulus (GPa) = 41.44515 0.05263 20.74889
#
# Velocity S-wave (km/s) = 4.35373 0.15515 3.08051
# Velocity P-wave (km/s) = 5.94541 4.15158 5.12755
#
# Compressibility (1/GPa) = 0.04539619
#
# Stress axis : x y z
#
# Youngs Moduli (GPa) = 60.47445 32.32679 149.16880
#
# Poissons Ratio (x) = -0.03490 0.35416
# Poissons Ratio (y) = -0.06529 0.46156
# Poissons Ratio (z) = 0.14358 0.10003
#
# Static dielectric constant tensor:
#      x y z
#    x 1.845370 0.000000 0.000000 
#    y 0.000000 1.988110 0.000000 
#    z 0.000000 0.000000 2.037200 
# 
# From -- ./inp_files/24666.got.cif
#   From: 2010.05.17/outbox.cif.g08.bks.cpg/sg52_13_cif.got.tgz:24666.got - 2010.06.03 12:15:38.
