data_PCOD9411286
_publ_section_title
;
Structure prediction by ZEFSAII (Michael W. Deem and Ramdas Pophale) SiO2 
 PCOD9411286
Probable space group: P N N A
;
_chemical_formula_sum "Si O2"
_cell_formula_units_Z 64
_cell_length_a 9.052473
_cell_length_b 15.392166
_cell_length_c 21.236882
_cell_angle_alpha 90.000000
_cell_angle_beta 90.000000
_cell_angle_gamma 90.000000
_cell_volume 2959.086976
_symmetry_space_group_name_H-M "P N N A"
_symmetry_group_IT_number 52
_symmetry_cell_setting 'orthorhombic'
loop_
_space_group_symop_operation_xyz
x,y,z
1/2-x,-y,z
x,1/2-y,1/2-z
1/2-x,1/2+y,1/2-z
-x,-y,-z
1/2+x,y,-z
-x,1/2+y,1/2+z
1/2+x,1/2-y,1/2+z
loop_
_atom_site_type_symbol
_atom_site_label
_atom_site_fract_x
_atom_site_fract_y
_atom_site_fract_z
Si Si1 0.544782 0.550377 0.323353
Si Si2 0.353063 0.080708 0.596403
Si Si3 0.408020 0.188347 0.477357
Si Si4 0.164846 0.144086 0.838999
Si Si5 0.931241 0.830098 0.344779
Si Si6 0.421596 0.000143 0.304289
Si Si7 0.833578 0.699698 0.481086
Si Si8 0.392133 0.957205 0.053816
O O1 0.685089 0.611086 0.305755
O O2 0.580712 0.448584 0.340577
O O3 0.440503 0.545647 0.263187
O O4 0.485066 0.583425 0.389675
O O5 0.426793 0.121729 0.534510
O O6 0.234527 0.141679 0.633464
O O7 0.477764 0.048703 0.644392
O O8 0.250000 0.000000 0.576479
O O9 0.468538 0.163163 0.408819
O O10 0.494051 0.278775 0.488063
O O11 0.240085 0.216897 0.487105
O O12 0.078708 0.231649 0.818349
O O13 0.201463 0.177408 0.909461
O O14 0.002967 0.903718 0.300624
O O15 0.250000 0.000000 0.322204
O O16 0.799879 0.613739 0.516735
O O17 0.250000 0.000000 0.087852
O O18 0.500000 0.000000 0.000000
#
# Coordination Sequence:
#
# PCOD9411286 Si02
#       8
#     8   8   8   8   8   8   8   8
#     4  11  24  42  69  96 137 181 228 289 332 403
#     4  10  23  43  69  97 134 176 230 271 346 408
#     4  11  21  40  64  99 135 167 214 284 343 406
#     4  10  21  41  70 101 127 179 232 268 340 414
#     4  10  24  43  70 100 136 180 226 280 340 421
#     4  11  27  48  68  98 136 180 235 292 345 400
#     4  11  22  37  63  99 139 167 218 275 338 404
#     4  12  23  37  63  96 133 178 219 276 344 404
#
# _framework density 21.628292999999999
#
# number of rings (size 3 to 8) (size 9 to 14) (size 15 to 20)
#    0.000    1.250    3.750    2.625    8.750    3.000 
#    0.000    0.000    2.750    0.000    0.000    0.000 
#    0.000    0.000    0.000    0.000    0.000    0.000 
#
# Total GULP energy -356289.146410 kJ/mol
# GULP energy per Si atom -5567.017913 kJ/mol
# Density = 2.157907 g / cm^3
# Si number density = 21.628293 Si / 1000 Ang^3
#
#
#
# Elastic Constant Matrix: (Units=GPa)
#
#
# Indices 1 2 3 4 5 6 
#
# 1 90.2843 19.3731 30.3191 0.0000 0.0000 0.0000
# 2 19.3731 77.4727 10.7988 0.0000 0.0000 0.0000
# 3 30.3191 10.7988 95.8421 0.0000 0.0000 0.0000
# 4 0.0000 0.0000 0.0000 21.5485 0.0000 0.0000
# 5 0.0000 0.0000 0.0000 0.0000 26.3632 0.0000
# 6 0.0000 0.0000 0.0000 0.0000 0.0000 30.4893
#
#
#
# Elastic Compliance Matrix: (Units=1/GPa)
#
#
# Indices 1 2 3 4 5 6 
#
# 1 0.012928 -0.002705 -0.003785 0.000000 0.000000 0.000000
# 2 -0.002705 0.013680 -0.000686 0.000000 0.000000 0.000000
# 3 -0.003785 -0.000686 0.011708 0.000000 0.000000 0.000000
# 4 0.000000 0.000000 0.000000 0.046407 0.000000 0.000000
# 5 0.000000 0.000000 0.000000 0.000000 0.037932 0.000000
# 6 0.000000 0.000000 0.000000 0.000000 0.000000 0.032798
#
#
# Mechanical properties :
#
#
# Convention : Reuss Voigt Hill
#
# Bulk Modulus (GPa) = 41.72801 42.73124 42.22962
# Shear Modulus (GPa) = 28.12274 29.22074 28.67174
#
# Velocity S-wave (km/s) = 3.60985 3.67964 3.64491
# Velocity P-wave (km/s) = 6.05886 6.15248 6.10585
#
# Compressibility (1/GPa) = 0.02396472
#
# Stress axis : x y z
#
# Youngs Moduli (GPa) = 77.35393 73.10052 85.40896
#
# Poissons Ratio (x) = 0.19775 0.32325
# Poissons Ratio (y) = 0.20926 0.05855
# Poissons Ratio (z) = 0.29277 0.05012
#
# Static dielectric constant tensor:
#      x y z
#    x 1.784180 0.000000 0.000000 
#    y 0.000000 1.903890 0.000000 
#    z 0.000000 0.000000 1.901880 
# 
# From -- ./inp_files/36206.got.cif
#   From: 2010.05.17/outbox.cif.g08.bks.cpg/sg52_19_cif.got.tgz:36206.got - 2010.06.03 12:15:38.
