data_PCOD9411482
_publ_section_title
;
Structure prediction by ZEFSAII (Michael W. Deem and Ramdas Pophale) SiO2 
 PCOD9411482
Probable space group: P N N A
;
_chemical_formula_sum "Si O2"
_cell_formula_units_Z 32
_cell_length_a 10.453374
_cell_length_b 9.426064
_cell_length_c 12.548525
_cell_angle_alpha 90.000000
_cell_angle_beta 90.000000
_cell_angle_gamma 90.000000
_cell_volume 1236.458525
_symmetry_space_group_name_H-M "P N N A"
_symmetry_group_IT_number 52
_symmetry_cell_setting 'orthorhombic'
loop_
_space_group_symop_operation_xyz
x,y,z
1/2-x,-y,z
x,1/2-y,1/2-z
1/2-x,1/2+y,1/2-z
-x,-y,-z
1/2+x,y,-z
-x,1/2+y,1/2+z
1/2+x,1/2-y,1/2+z
loop_
_atom_site_type_symbol
_atom_site_label
_atom_site_fract_x
_atom_site_fract_y
_atom_site_fract_z
Si Si1 0.283459 0.335346 0.840099
Si Si2 0.797528 0.153115 0.594922
Si Si3 0.622405 0.091384 0.898899
Si Si4 0.973031 0.835991 0.125539
O O1 0.250000 0.500000 0.810905
O O2 0.366125 0.250000 0.750000
O O3 0.165446 0.222768 0.847546
O O4 0.319388 0.346180 0.965743
O O5 0.688828 0.262537 0.632315
O O6 0.929896 0.207352 0.641738
O O7 0.750000 0.000000 0.627397
O O8 0.750000 0.000000 0.930862
O O9 0.534631 0.982567 0.832222
O O10 0.537663 0.135355 0.999633
#
# Coordination Sequence:
#
# PCOD9411482 Si02
#       4
#     8   8   8   8
#     4  10  22  35  50  76 110 142 174 222 276 325
#     4   9  18  32  53  81 107 134 177 225 267 320
#     4   8  15  27  47  75  98 128 172 214 253 304
#     4   9  17  32  52  74 103 139 178 216 266 321
#
# _framework density 25.880368000000001
#
# number of rings (size 3 to 8) (size 9 to 14) (size 15 to 20)
#    0.000    3.000    0.000    0.000    0.000   19.000 
#    0.000    0.000    0.000    4.500    0.000   15.750 
#    0.000    0.000    0.000    0.000    0.000    0.000 
#
# Total GULP energy -178408.253276 kJ/mol
# GULP energy per Si atom -5575.257915 kJ/mol
# Density = 2.582146 g / cm^3
# Si number density = 25.880368 Si / 1000 Ang^3
#
#
#
# Elastic Constant Matrix: (Units=GPa)
#
#
# Indices 1 2 3 4 5 6 
#
# 1 60.9759 39.3989 -19.8978 0.0000 0.0000 0.0000
# 2 39.3989 220.4259 32.5799 0.0000 0.0000 0.0000
# 3 -19.8978 32.5799 103.5495 0.0000 0.0000 0.0000
# 4 0.0000 0.0000 0.0000 39.5933 0.0000 0.0000
# 5 0.0000 0.0000 0.0000 0.0000 -39.2034 0.0000
# 6 0.0000 0.0000 0.0000 0.0000 0.0000 -9.1433
#
#
#
# Elastic Compliance Matrix: (Units=1/GPa)
#
#
# Indices 1 2 3 4 5 6 
#
# 1 0.021172 -0.004599 0.005515 0.000000 0.000000 0.000000
# 2 -0.004599 0.005757 -0.002695 0.000000 0.000000 0.000000
# 3 0.005515 -0.002695 0.011565 0.000000 0.000000 0.000000
# 4 0.000000 0.000000 0.000000 0.025257 0.000000 0.000000
# 5 0.000000 0.000000 0.000000 0.000000 -0.025508 0.000000
# 6 0.000000 0.000000 0.000000 0.000000 0.000000 -0.109370
#
#
# Mechanical properties :
#
#
# Convention : Reuss Voigt Hill
#
# Bulk Modulus (GPa) = 28.62433 54.34592 41.48513
# Shear Modulus (GPa) = -89.40729 20.44069 -34.48330
#
# Velocity S-wave (km/s) = -5.88399 2.81341 -3.65418
# Velocity P-wave (km/s) = 5.92263 5.62123 1.31897
#
# Compressibility (1/GPa) = 0.03493531
#
# Stress axis : x y z
#
# Youngs Moduli (GPa) = 47.23318 173.69773 86.46763
#
# Poissons Ratio (x) = 0.79891 -0.47690
# Poissons Ratio (y) = 0.21724 0.23305
# Poissons Ratio (z) = -0.26051 0.46815
#
# Static dielectric constant tensor:
#      x y z
#    x 2.044140 0.000000 0.000000 
#    y 0.000000 2.028880 0.000000 
#    z 0.000000 0.000000 2.293650 
# 
# From -- ./inp_files/25456.got.cif
#   From: 2010.05.17/outbox.cif.g08.bks.cpg/sg52_13_cif.got.tgz:25456.got - 2010.06.03 12:15:38.
