data_PCOD9411998
_publ_section_title
;
Structure prediction by ZEFSAII (Michael W. Deem and Ramdas Pophale) SiO2 
 PCOD9411998
Probable space group: P N N A
;
_chemical_formula_sum "Si O2"
_cell_formula_units_Z 24
_cell_length_a 11.052143
_cell_length_b 7.586059
_cell_length_c 11.873912
_cell_angle_alpha 90.000000
_cell_angle_beta 90.000000
_cell_angle_gamma 90.000000
_cell_volume 995.535010
_symmetry_space_group_name_H-M "P N N A"
_symmetry_group_IT_number 52
_symmetry_cell_setting 'orthorhombic'
loop_
_space_group_symop_operation_xyz
x,y,z
1/2-x,-y,z
x,1/2-y,1/2-z
1/2-x,1/2+y,1/2-z
-x,-y,-z
1/2+x,y,-z
-x,1/2+y,1/2+z
1/2+x,1/2-y,1/2+z
loop_
_atom_site_type_symbol
_atom_site_label
_atom_site_fract_x
_atom_site_fract_y
_atom_site_fract_z
Si Si1 0.369363 0.115312 0.856229
Si Si2 0.876662 0.540956 0.716544
Si Si3 0.875487 0.093403 0.535873
O O1 0.364184 0.250000 0.750000
O O2 0.495792 0.012142 0.843304
O O3 0.250000 0.000000 0.852125
O O4 0.375131 0.224306 0.970924
O O5 0.750000 0.500000 0.656039
O O6 0.874695 0.750000 0.750000
O O7 0.874688 0.423056 0.829558
O O8 0.750000 0.000000 0.498709
O O9 0.000000 0.000000 0.500000
#
# Coordination Sequence:
#
# PCOD9411998 Si02
#       3
#     8   8   8
#     4  11  23  42  72 104 140 190 245 297 362 426
#     4  10  22  42  71 100 136 189 238 292 364 432
#     4  11  22  44  71  99 144 184 233 301 362 427
#
# _framework density 24.107642999999999
#
# number of rings (size 3 to 8) (size 9 to 14) (size 15 to 20)
#    0.000    1.333    6.667    1.000    0.000    1.333 
#    6.000    8.333    0.000    0.000    0.000    0.000 
#    0.000    0.000    0.000    0.000    0.000    0.000 
#
# Total GULP energy -134384.174702 kJ/mol
# GULP energy per Si atom -5599.340613 kJ/mol
# Density = 2.405277 g / cm^3
# Si number density = 24.107643 Si / 1000 Ang^3
#
#
#
# Elastic Constant Matrix: (Units=GPa)
#
#
# Indices 1 2 3 4 5 6 
#
# 1 331.3606 86.2324 64.8064 0.0000 0.0000 0.0000
# 2 86.2324 78.5831 71.0323 0.0000 0.0000 0.0000
# 3 64.8064 71.0323 131.6087 0.0000 0.0000 0.0000
# 4 0.0000 0.0000 0.0000 53.1036 0.0000 0.0000
# 5 0.0000 0.0000 0.0000 0.0000 27.5537 0.0000
# 6 0.0000 0.0000 0.0000 0.0000 0.0000 53.5881
#
#
#
# Elastic Compliance Matrix: (Units=1/GPa)
#
#
# Indices 1 2 3 4 5 6 
#
# 1 0.004270 -0.005439 0.000833 0.000000 0.000000 0.000000
# 2 -0.005439 0.031774 -0.014471 0.000000 0.000000 0.000000
# 3 0.000833 -0.014471 0.014999 0.000000 0.000000 0.000000
# 4 0.000000 0.000000 0.000000 0.018831 0.000000 0.000000
# 5 0.000000 0.000000 0.000000 0.000000 0.036293 0.000000
# 6 0.000000 0.000000 0.000000 0.000000 0.000000 0.018661
#
#
# Mechanical properties :
#
#
# Convention : Reuss Voigt Hill
#
# Bulk Modulus (GPa) = 77.58702 109.52165 93.55433
# Shear Modulus (GPa) = 29.89026 48.14782 39.01904
#
# Velocity S-wave (km/s) = 3.52499 4.47385 4.02747
# Velocity P-wave (km/s) = 6.98719 8.49800 7.77936
#
# Compressibility (1/GPa) = 0.01288875
#
# Stress axis : x y z
#
# Youngs Moduli (GPa) = 234.17247 31.47223 66.67217
#
# Poissons Ratio (x) = 0.17116 -0.05551
# Poissons Ratio (y) = 1.27356 0.96482
# Poissons Ratio (z) = -0.19496 0.45544
#
# Static dielectric constant tensor:
#      x y z
#    x 1.556740 0.000000 0.000000 
#    y 0.000000 1.983320 0.000000 
#    z 0.000000 0.000000 1.907800 
# 
# From -- ./inp_files/17430.got.cif
#   From: 2010.05.17/outbox.cif.g08.bks.cpg/sg52_9_cif.got.tgz:17430.got - 2010.06.03 12:15:38.
