data_PCOD9411775
_publ_section_title
;
Structure prediction by ZEFSAII (Michael W. Deem and Ramdas Pophale) SiO2 
 PCOD9411775
Probable space group: P N N A
;
_chemical_formula_sum "Si O2"
_cell_formula_units_Z 56
_cell_length_a 14.798760
_cell_length_b 11.396032
_cell_length_c 16.918836
_cell_angle_alpha 90.000000
_cell_angle_beta 90.000000
_cell_angle_gamma 90.000000
_cell_volume 2853.313346
_symmetry_space_group_name_H-M "P N N A"
_symmetry_group_IT_number 52
_symmetry_cell_setting 'orthorhombic'
loop_
_space_group_symop_operation_xyz
x,y,z
1/2-x,-y,z
x,1/2-y,1/2-z
1/2-x,1/2+y,1/2-z
-x,-y,-z
1/2+x,y,-z
-x,1/2+y,1/2+z
1/2+x,1/2-y,1/2+z
loop_
_atom_site_type_symbol
_atom_site_label
_atom_site_fract_x
_atom_site_fract_y
_atom_site_fract_z
Si Si1 0.561817 0.287009 0.391535
Si Si2 0.851497 0.446831 0.019180
Si Si3 0.374250 0.250000 0.750000
Si Si4 0.493200 0.029943 0.800931
Si Si5 0.982263 0.043728 0.625793
Si Si6 0.273804 0.242028 0.899834
Si Si7 0.250000 0.500000 0.536607
Si Si8 0.929959 0.590131 0.539368
O O1 0.546498 0.408761 0.341889
O O2 0.500540 0.182083 0.362348
O O3 0.666393 0.250040 0.390046
O O4 0.545819 0.297103 0.486775
O O5 0.750000 0.500000 0.028162
O O6 0.826166 0.309930 0.031041
O O7 0.926685 0.489891 0.083705
O O8 0.899808 0.473173 0.935548
O O9 0.427659 0.139482 0.784129
O O10 0.313545 0.295521 0.820830
O O11 0.559107 0.082072 0.867872
O O12 0.532076 0.004223 0.713982
O O13 0.290578 0.103920 0.911167
O O14 0.170777 0.444541 0.485267
O O15 0.000000 0.500000 0.500000
#
# Coordination Sequence:
#
# PCOD9411775 Si02
#       8
#     8   8   4   8   8   8   4   8
#     4  10  22  40  67  93 127 167 214 271 326 394
#     4  11  24  43  64  88 127 174 219 261 323 394
#     4  12  24  36  62  92 136 166 210 270 336 390
#     4  11  24  40  61  96 129 171 214 270 332 385
#     4  11  24  42  65  91 130 170 219 268 326 391
#     4  11  22  39  63  94 127 162 213 268 327 394
#     4  10  22  42  64  98 118 170 218 264 322 392
#     4   9  20  39  65  91 127 161 215 260 321 385
#
# _framework density 19.626308000000002
#
# number of rings (size 3 to 8) (size 9 to 14) (size 15 to 20)
#    0.000    1.429    2.857    3.000    8.000    0.000 
#    2.571    0.000    0.000    0.000    0.000    0.000 
#    0.000    0.000    0.000    0.000    0.000    0.000 
#
# Total GULP energy -311820.254016 kJ/mol
# GULP energy per Si atom -5568.218822 kJ/mol
# Density = 1.958164 g / cm^3
# Si number density = 19.626308 Si / 1000 Ang^3
#
#
#
# Elastic Constant Matrix: (Units=GPa)
#
#
# Indices 1 2 3 4 5 6 
#
# 1 60.2995 6.8621 33.2674 0.0000 0.0000 0.0000
# 2 6.8621 64.7988 2.4721 0.0000 0.0000 0.0000
# 3 33.2674 2.4721 134.5386 0.0000 0.0000 0.0000
# 4 0.0000 0.0000 0.0000 27.0613 0.0000 0.0000
# 5 0.0000 0.0000 0.0000 0.0000 28.0171 0.0000
# 6 0.0000 0.0000 0.0000 0.0000 0.0000 1.7454
#
#
#
# Elastic Compliance Matrix: (Units=1/GPa)
#
#
# Indices 1 2 3 4 5 6 
#
# 1 0.019429 -0.001876 -0.004770 0.000000 0.000000 0.000000
# 2 -0.001876 0.015624 0.000177 0.000000 0.000000 0.000000
# 3 -0.004770 0.000177 0.008609 0.000000 0.000000 0.000000
# 4 0.000000 0.000000 0.000000 0.036953 0.000000 0.000000
# 5 0.000000 0.000000 0.000000 0.000000 0.035692 0.000000
# 6 0.000000 0.000000 0.000000 0.000000 0.000000 0.572950
#
#
# Mechanical properties :
#
#
# Convention : Reuss Voigt Hill
#
# Bulk Modulus (GPa) = 32.54688 38.31557 35.43122
# Shear Modulus (GPa) = 7.01817 25.83378 16.42598
#
# Velocity S-wave (km/s) = 1.89306 3.63200 2.89612
# Velocity P-wave (km/s) = 4.62574 6.09537 5.41068
#
# Compressibility (1/GPa) = 0.03072491
#
# Stress axis : x y z
#
# Youngs Moduli (GPa) = 51.47000 64.00306 116.15791
#
# Poissons Ratio (x) = 0.12004 0.55404
# Poissons Ratio (y) = 0.09653 -0.02052
# Poissons Ratio (z) = 0.24550 -0.01131
#
# Static dielectric constant tensor:
#      x y z
#    x 1.678220 0.000000 0.000000 
#    y 0.000000 1.737390 0.000000 
#    z 0.000000 0.000000 1.587370 
# 
# From -- ./inp_files/27338.got.cif
#   From: 2010.05.17/outbox.cif.g08.bks.cpg/sg52_14_cif.got.tgz:27338.got - 2010.06.03 12:15:38.
