data_PCOD9411129
_publ_section_title
;
Structure prediction by ZEFSAII (Michael W. Deem and Ramdas Pophale) SiO2 
 PCOD9411129
Probable space group: P N N A
;
_chemical_formula_sum "Si O2"
_cell_formula_units_Z 64
_cell_length_a 15.276581
_cell_length_b 21.938417
_cell_length_c 8.986653
_cell_angle_alpha 90.000000
_cell_angle_beta 90.000000
_cell_angle_gamma 90.000000
_cell_volume 3011.822872
_symmetry_space_group_name_H-M "P N N A"
_symmetry_group_IT_number 52
_symmetry_cell_setting 'orthorhombic'
loop_
_space_group_symop_operation_xyz
x,y,z
1/2-x,-y,z
x,1/2-y,1/2-z
1/2-x,1/2+y,1/2-z
-x,-y,-z
1/2+x,y,-z
-x,1/2+y,1/2+z
1/2+x,1/2-y,1/2+z
loop_
_atom_site_type_symbol
_atom_site_label
_atom_site_fract_x
_atom_site_fract_y
_atom_site_fract_z
Si Si1 0.769323 0.268589 0.995015
Si Si2 0.964601 0.255790 0.420689
Si Si3 0.977063 0.626119 0.414051
Si Si4 0.239172 0.342701 0.297406
Si Si5 0.916402 0.577911 0.704565
Si Si6 0.484453 0.070801 0.526601
Si Si7 0.594772 0.327577 0.115002
Si Si8 0.626589 0.558975 0.765527
O O1 0.778181 0.305333 0.840203
O O2 0.742251 0.200493 0.940941
O O3 0.863824 0.265441 0.070426
O O4 0.690952 0.301391 0.083383
O O5 0.994849 0.250000 0.250000
O O6 0.973579 0.323922 0.484832
O O7 0.024332 0.215724 0.531768
O O8 0.925920 0.583162 0.528185
O O9 0.922546 0.663211 0.290219
O O10 0.043609 0.583700 0.325304
O O11 0.141782 0.363239 0.257691
O O12 0.292744 0.405259 0.304702
O O13 0.872554 0.513948 0.752659
O O14 0.006592 0.582415 0.797964
O O15 0.566252 0.107408 0.455428
O O16 0.395600 0.081793 0.434261
O O17 0.500000 0.000000 0.500000
#
# Coordination Sequence:
#
# PCOD9411129 Si02
#       8
#     8   8   8   8   8   8   8   8
#     4  11  24  41  64  94 134 170 217 273 333 393
#     4  12  26  41  65  94 131 172 218 275 334 401
#     4  11  23  41  64  93 130 169 219 269 334 393
#     4  11  22  38  63  95 127 167 217 269 326 394
#     4  11  21  38  66  97 125 171 219 269 322 400
#     4   9  19  37  63  93 125 160 214 263 317 388
#     4  11  23  42  66  94 130 174 216 273 337 393
#     4  10  21  40  64  93 130 171 214 271 331 389
#
# _framework density 21.249587999999999
#
# number of rings (size 3 to 8) (size 9 to 14) (size 15 to 20)
#    0.000    1.250    2.500    4.125    3.500    2.000 
#    0.000    0.000    0.000    0.000    0.000    0.000 
#    0.000    0.000    0.000    0.000    0.000    0.000 
#
# Total GULP energy -357228.832728 kJ/mol
# GULP energy per Si atom -5581.700511 kJ/mol
# Density = 2.120122 g / cm^3
# Si number density = 21.249588 Si / 1000 Ang^3
#
#
#
# Elastic Constant Matrix: (Units=GPa)
#
#
# Indices 1 2 3 4 5 6 
#
# 1 68.7924 23.5584 12.0331 0.0000 0.0000 0.0000
# 2 23.5584 95.1614 17.9480 0.0000 0.0000 0.0000
# 3 12.0331 17.9480 106.3640 0.0000 0.0000 0.0000
# 4 0.0000 0.0000 0.0000 31.9264 0.0000 0.0000
# 5 0.0000 0.0000 0.0000 0.0000 23.6501 0.0000
# 6 0.0000 0.0000 0.0000 0.0000 0.0000 28.7386
#
#
#
# Elastic Compliance Matrix: (Units=1/GPa)
#
#
# Indices 1 2 3 4 5 6 
#
# 1 0.016025 -0.003745 -0.001181 0.000000 0.000000 0.000000
# 2 -0.003745 0.011729 -0.001556 0.000000 0.000000 0.000000
# 3 -0.001181 -0.001556 0.009798 0.000000 0.000000 0.000000
# 4 0.000000 0.000000 0.000000 0.031322 0.000000 0.000000
# 5 0.000000 0.000000 0.000000 0.000000 0.042283 0.000000
# 6 0.000000 0.000000 0.000000 0.000000 0.000000 0.034796
#
#
# Mechanical properties :
#
#
# Convention : Reuss Voigt Hill
#
# Bulk Modulus (GPa) = 40.66742 41.93299 41.30021
# Shear Modulus (GPa) = 29.91999 31.31493 30.61746
#
# Velocity S-wave (km/s) = 3.75644 3.84301 3.79997
# Velocity P-wave (km/s) = 6.16393 6.28236 6.22342
#
# Compressibility (1/GPa) = 0.02458971
#
# Stress axis : x y z
#
# Youngs Moduli (GPa) = 62.40087 85.25988 102.06392
#
# Poissons Ratio (x) = 0.31926 0.12055
# Poissons Ratio (y) = 0.23366 0.15876
# Poissons Ratio (z) = 0.07370 0.13262
#
# Static dielectric constant tensor:
#      x y z
#    x 1.774640 0.000000 0.000000 
#    y 0.000000 1.789220 0.000000 
#    z 0.000000 0.000000 1.846580 
# 
# From -- ./inp_files/11009.got.cif
#   From: 2010.05.17/outbox.cif.g08.bks.cpg/sg52_6_cif.got.tgz:11009.got - 2010.06.03 12:15:38.
