data_PCOD9411638
_publ_section_title
;
Structure prediction by ZEFSAII (Michael W. Deem and Ramdas Pophale) SiO2 
 PCOD9411638
Probable space group: P N N A
;
_chemical_formula_sum "Si O2"
_cell_formula_units_Z 64
_cell_length_a 12.635188
_cell_length_b 11.368154
_cell_length_c 24.076214
_cell_angle_alpha 90.000000
_cell_angle_beta 90.000000
_cell_angle_gamma 90.000000
_cell_volume 3458.277597
_symmetry_space_group_name_H-M "P N N A"
_symmetry_group_IT_number 52
_symmetry_cell_setting 'orthorhombic'
loop_
_space_group_symop_operation_xyz
x,y,z
1/2-x,-y,z
x,1/2-y,1/2-z
1/2-x,1/2+y,1/2-z
-x,-y,-z
1/2+x,y,-z
-x,1/2+y,1/2+z
1/2+x,1/2-y,1/2+z
loop_
_atom_site_type_symbol
_atom_site_label
_atom_site_fract_x
_atom_site_fract_y
_atom_site_fract_z
Si Si1 0.650961 0.922897 0.803640
Si Si2 0.675737 0.662160 0.330860
Si Si3 0.906438 0.989071 0.680786
Si Si4 0.679766 0.383216 0.428279
Si Si5 0.001961 0.472943 0.395680
Si Si6 0.799167 0.867108 0.951436
Si Si7 0.728899 0.807027 0.645173
Si Si8 0.852340 0.072972 0.292756
O O1 0.626928 0.964552 0.741664
O O2 0.558110 0.961356 0.844598
O O3 0.684157 0.788318 0.811175
O O4 0.750000 0.000000 0.823024
O O5 0.784181 0.659850 0.367164
O O6 0.585757 0.613780 0.371194
O O7 0.655741 0.795093 0.314497
O O8 0.661936 0.586339 0.274364
O O9 0.859124 0.090055 0.640316
O O10 0.837570 0.871731 0.665828
O O11 0.032988 0.973265 0.686493
O O12 0.750000 0.500000 0.433751
O O13 0.559056 0.425787 0.429052
O O14 0.703663 0.317393 0.485664
O O15 0.082940 0.396080 0.430748
O O16 0.748785 0.772983 0.909183
O O17 0.750000 0.000000 0.949722
O O18 0.750000 0.000000 0.312308
#
# Coordination Sequence:
#
# PCOD9411638 Si02
#       8
#     8   8   8   8   8   8   8   8
#     4  12  21  34  57  88 124 155 192 246 308 367
#     4  10  22  39  61  84 118 158 191 258 301 372
#     4  11  25  37  60  89 125 166 204 246 298 386
#     4   9  21  36  58  88 119 151 208 253 307 355
#     4  11  18  34  59  90 120 152 196 242 316 364
#     4  11  20  36  59  89 120 159 199 260 304 359
#     4  11  22  39  56  89 131 162 202 244 313 365
#     4  11  23  41  62  88 119 161 208 242 311 370
#
# _framework density 18.506322000000001
#
# number of rings (size 3 to 8) (size 9 to 14) (size 15 to 20)
#    0.000    1.250    5.000    2.625    0.000    1.000 
#    2.250    0.000    2.750    0.750    0.000    0.000 
#    0.000    0.000    0.000    0.000    0.000    0.000 
#
# Total GULP energy -356408.444442 kJ/mol
# GULP energy per Si atom -5568.881944 kJ/mol
# Density = 1.846420 g / cm^3
# Si number density = 18.506322 Si / 1000 Ang^3
#
#
#
# Elastic Constant Matrix: (Units=GPa)
#
#
# Indices 1 2 3 4 5 6 
#
# 1 105.3574 40.5801 23.4196 0.0000 0.0000 0.0000
# 2 40.5801 74.2217 18.9372 0.0000 0.0000 0.0000
# 3 23.4196 18.9372 95.9448 0.0000 0.0000 0.0000
# 4 0.0000 0.0000 0.0000 31.0085 0.0000 0.0000
# 5 0.0000 0.0000 0.0000 0.0000 63.4436 0.0000
# 6 0.0000 0.0000 0.0000 0.0000 0.0000 23.7138
#
#
#
# Elastic Compliance Matrix: (Units=1/GPa)
#
#
# Indices 1 2 3 4 5 6 
#
# 1 0.012301 -0.006275 -0.001764 0.000000 0.000000 0.000000
# 2 -0.006275 0.017389 -0.001900 0.000000 0.000000 0.000000
# 3 -0.001764 -0.001900 0.011228 0.000000 0.000000 0.000000
# 4 0.000000 0.000000 0.000000 0.032249 0.000000 0.000000
# 5 0.000000 0.000000 0.000000 0.000000 0.015762 0.000000
# 6 0.000000 0.000000 0.000000 0.000000 0.000000 0.042169
#
#
# Mechanical properties :
#
#
# Convention : Reuss Voigt Hill
#
# Bulk Modulus (GPa) = 47.53132 49.04420 48.28776
# Shear Modulus (GPa) = 31.64745 36.47231 34.05988
#
# Velocity S-wave (km/s) = 4.13981 4.44419 4.29470
# Velocity P-wave (km/s) = 6.97067 7.27278 7.12333
#
# Compressibility (1/GPa) = 0.02103876
#
# Stress axis : x y z
#
# Youngs Moduli (GPa) = 81.29683 57.50777 89.06053
#
# Poissons Ratio (x) = 0.36087 0.15710
# Poissons Ratio (y) = 0.51015 0.16925
# Poissons Ratio (z) = 0.14340 0.10929
#
# Static dielectric constant tensor:
#      x y z
#    x 1.703120 0.000000 0.000000 
#    y 0.000000 1.598350 0.000000 
#    z 0.000000 0.000000 1.709270 
# 
# From -- ./inp_files/40354.got.cif
#   From: 2010.05.17/outbox.cif.g08.bks.cpg/sg52_21_cif.got.tgz:40354.got - 2010.06.03 12:15:38.
