data_PCOD9411075
_publ_section_title
;
Structure prediction by ZEFSAII (Michael W. Deem and Ramdas Pophale) SiO2 
 PCOD9411075
Probable space group: P N N A
;
_chemical_formula_sum "Si O2"
_cell_formula_units_Z 32
_cell_length_a 15.903813
_cell_length_b 8.272390
_cell_length_c 10.741762
_cell_angle_alpha 90.000000
_cell_angle_beta 90.000000
_cell_angle_gamma 90.000000
_cell_volume 1413.213532
_symmetry_space_group_name_H-M "P N N A"
_symmetry_group_IT_number 52
_symmetry_cell_setting 'orthorhombic'
loop_
_space_group_symop_operation_xyz
x,y,z
1/2-x,-y,z
x,1/2-y,1/2-z
1/2-x,1/2+y,1/2-z
-x,-y,-z
1/2+x,y,-z
-x,1/2+y,1/2+z
1/2+x,1/2-y,1/2+z
loop_
_atom_site_type_symbol
_atom_site_label
_atom_site_fract_x
_atom_site_fract_y
_atom_site_fract_z
Si Si1 0.669254 0.617306 0.857255
Si Si2 0.488652 0.870685 0.363969
Si Si3 0.232185 0.811100 0.618467
Si Si4 0.576514 0.311915 0.118450
O O1 0.750000 0.500000 0.842291
O O2 0.664516 0.750000 0.750000
O O3 0.590570 0.494420 0.855295
O O4 0.682988 0.709235 0.989479
O O5 0.490988 0.750000 0.250000
O O6 0.474986 0.775557 0.493502
O O7 0.567076 0.993167 0.370482
O O8 0.197215 0.750000 0.750000
O O9 0.328636 0.746153 0.604212
O O10 0.250000 0.000000 0.632532
O O11 0.543007 0.250000 0.250000
#
# Coordination Sequence:
#
# PCOD9411075 Si02
#       4
#     8   8   8   8
#     4  11  22  40  62  93 123 158 201 249 302 358
#     4  11  23  42  65  88 123 161 201 254 301 354
#     4  10  21  40  60  88 123 156 197 245 300 357
#     4  10  22  42  62  87 123 157 203 252 294 358
#
# _framework density 22.643429000000001
#
# number of rings (size 3 to 8) (size 9 to 14) (size 15 to 20)
#    0.000    1.500    5.000    1.500    0.000    3.000 
#    4.500    0.000    0.000    0.000    0.000    0.000 
#    0.000    0.000    0.000    0.000    0.000    0.000 
#
# Total GULP energy -178747.191763 kJ/mol
# GULP energy per Si atom -5585.849743 kJ/mol
# Density = 2.259189 g / cm^3
# Si number density = 22.643429 Si / 1000 Ang^3
#
#
#
# Elastic Constant Matrix: (Units=GPa)
#
#
# Indices 1 2 3 4 5 6 
#
# 1 122.7908 8.8338 31.7191 0.0000 0.0000 0.0000
# 2 8.8338 31.7537 72.6748 0.0000 0.0000 0.0000
# 3 31.7191 72.6748 264.6445 0.0000 0.0000 0.0000
# 4 0.0000 0.0000 0.0000 64.7176 0.0000 0.0000
# 5 0.0000 0.0000 0.0000 0.0000 17.7349 0.0000
# 6 0.0000 0.0000 0.0000 0.0000 0.0000 5.4162
#
#
#
# Elastic Compliance Matrix: (Units=1/GPa)
#
#
# Indices 1 2 3 4 5 6 
#
# 1 0.008404 -0.000088 -0.000983 0.000000 0.000000 0.000000
# 2 -0.000088 0.084773 -0.023269 0.000000 0.000000 0.000000
# 3 -0.000983 -0.023269 0.010287 0.000000 0.000000 0.000000
# 4 0.000000 0.000000 0.000000 0.015452 0.000000 0.000000
# 5 0.000000 0.000000 0.000000 0.000000 0.056386 0.000000
# 6 0.000000 0.000000 0.000000 0.000000 0.000000 0.184631
#
#
# Mechanical properties :
#
#
# Convention : Reuss Voigt Hill
#
# Bulk Modulus (GPa) = 18.25369 71.73828 44.99598
# Shear Modulus (GPa) = 11.71303 37.97115 24.84209
#
# Velocity S-wave (km/s) = 2.27685 4.09946 3.31584
# Velocity P-wave (km/s) = 3.87181 7.35921 5.88000
#
# Compressibility (1/GPa) = 0.05478344
#
# Stress axis : x y z
#
# Youngs Moduli (GPa) = 118.98776 11.79615 97.21421
#
# Poissons Ratio (x) = 0.00104 0.09558
# Poissons Ratio (y) = 0.01046 2.26211
# Poissons Ratio (z) = 0.11698 0.27449
#
# Static dielectric constant tensor:
#      x y z
#    x 1.959360 0.000000 0.000000 
#    y 0.000000 1.796610 0.000000 
#    z 0.000000 0.000000 1.858950 
# 
# From -- ./inp_files/9566.got.cif
#   From: 2010.05.17/outbox.cif.g08.bks.cpg/sg52_5_cif.got.tgz:9566.got - 2010.06.03 12:15:38.
