data_PCOD9411198
_publ_section_title
;
Structure prediction by ZEFSAII (Michael W. Deem and Ramdas Pophale) SiO2 
 PCOD9411198
Probable space group: P N N A
;
_chemical_formula_sum "Si O2"
_cell_formula_units_Z 56
_cell_length_a 19.886064
_cell_length_b 14.708057
_cell_length_c 9.256320
_cell_angle_alpha 90.000000
_cell_angle_beta 90.000000
_cell_angle_gamma 90.000000
_cell_volume 2707.338114
_symmetry_space_group_name_H-M "P N N A"
_symmetry_group_IT_number 52
_symmetry_cell_setting 'orthorhombic'
loop_
_space_group_symop_operation_xyz
x,y,z
1/2-x,-y,z
x,1/2-y,1/2-z
1/2-x,1/2+y,1/2-z
-x,-y,-z
1/2+x,y,-z
-x,1/2+y,1/2+z
1/2+x,1/2-y,1/2+z
loop_
_atom_site_type_symbol
_atom_site_label
_atom_site_fract_x
_atom_site_fract_y
_atom_site_fract_z
Si Si1 0.750000 0.500000 0.236223
Si Si2 0.250000 0.500000 0.242666
Si Si3 0.045840 0.677625 0.878760
Si Si4 0.354610 0.441672 0.003792
Si Si5 0.834320 0.837132 0.174216
Si Si6 0.456746 0.528212 0.196755
Si Si7 0.477429 0.840556 0.673478
Si Si8 0.152405 0.343852 0.343090
O O1 0.690024 0.532127 0.132137
O O2 0.782202 0.580984 0.325261
O O3 0.213793 0.415807 0.322568
O O4 0.305601 0.451753 0.140580
O O5 0.047649 0.750000 0.750000
O O6 0.113273 0.656412 0.968511
O O7 0.026611 0.581541 0.807549
O O8 0.988464 0.682190 0.003139
O O9 0.414553 0.511782 0.047992
O O10 0.801494 0.750000 0.250000
O O11 0.901255 0.855124 0.270394
O O12 0.854320 0.817712 0.010099
O O13 0.477104 0.424596 0.227675
O O14 0.410402 0.593223 0.293673
O O15 0.502224 0.750000 0.750000
O O16 0.157210 0.250000 0.250000
#
# Coordination Sequence:
#
# PCOD9411198 Si02
#       8
#     4   4   8   8   8   8   8   8
#     4  11  21  42  66  88 134 168 210 278 322 382
#     4   9  21  44  70  88 134 172 228 274 328 380
#     4  11  22  38  64  97 128 170 216 265 323 405
#     4   9  20  38  65  93 121 173 216 264 328 382
#     4  11  26  40  66  99 132 169 220 270 331 393
#     4  10  21  40  69  91 129 171 217 263 326 397
#     4  10  23  43  63  95 133 168 212 276 333 384
#     4  11  25  43  69  99 125 176 226 265 325 398
#
# _framework density 20.684522999999999
#
# number of rings (size 3 to 8) (size 9 to 14) (size 15 to 20)
#    0.000    1.714    0.000    4.286   14.000    1.143 
#    2.571    6.429    0.000    0.000    0.000    0.000 
#    0.000    0.000    0.000    0.000    0.000    0.000 
#
# Total GULP energy -311918.292787 kJ/mol
# GULP energy per Si atom -5569.969514 kJ/mol
# Density = 2.063744 g / cm^3
# Si number density = 20.684523 Si / 1000 Ang^3
#
#
#
# Elastic Constant Matrix: (Units=GPa)
#
#
# Indices 1 2 3 4 5 6 
#
# 1 75.7224 49.4047 25.3655 0.0000 0.0000 0.0000
# 2 49.4047 157.4890 63.9851 0.0000 0.0000 0.0000
# 3 25.3655 63.9851 112.1313 0.0000 0.0000 0.0000
# 4 0.0000 0.0000 0.0000 29.4707 0.0000 0.0000
# 5 0.0000 0.0000 0.0000 0.0000 18.4329 0.0000
# 6 0.0000 0.0000 0.0000 0.0000 0.0000 41.1668
#
#
#
# Elastic Compliance Matrix: (Units=1/GPa)
#
#
# Indices 1 2 3 4 5 6 
#
# 1 0.016695 -0.004820 -0.001026 0.000000 0.000000 0.000000
# 2 -0.004820 0.009658 -0.004421 0.000000 0.000000 0.000000
# 3 -0.001026 -0.004421 0.011673 0.000000 0.000000 0.000000
# 4 0.000000 0.000000 0.000000 0.033932 0.000000 0.000000
# 5 0.000000 0.000000 0.000000 0.000000 0.054251 0.000000
# 6 0.000000 0.000000 0.000000 0.000000 0.000000 0.024291
#
#
# Mechanical properties :
#
#
# Convention : Reuss Voigt Hill
#
# Bulk Modulus (GPa) = 57.17046 69.20591 63.18819
# Shear Modulus (GPa) = 28.27030 31.58655 29.92843
#
# Velocity S-wave (km/s) = 3.70095 3.91200 3.80794
# Velocity P-wave (km/s) = 6.77953 7.34408 7.06744
#
# Compressibility (1/GPa) = 0.01749155
#
# Stress axis : x y z
#
# Youngs Moduli (GPa) = 59.89874 103.54296 85.66998
#
# Poissons Ratio (x) = 0.49912 0.08789
# Poissons Ratio (y) = 0.28874 0.37871
# Poissons Ratio (z) = 0.06145 0.45772
#
# Static dielectric constant tensor:
#      x y z
#    x 1.790410 0.000000 0.000000 
#    y 0.000000 1.731620 0.000000 
#    z 0.000000 0.000000 1.770610 
# 
# From -- ./inp_files/13477.got.cif
#   From: 2010.05.17/outbox.cif.g08.bks.cpg/sg52_7_cif.got.tgz:13477.got - 2010.06.03 12:15:38.
