data_PCOD9411160
_publ_section_title
;
Structure prediction by ZEFSAII (Michael W. Deem and Ramdas Pophale) SiO2 
 PCOD9411160
Probable space group: P N N A
;
_chemical_formula_sum "Si O2"
_cell_formula_units_Z 64
_cell_length_a 14.068319
_cell_length_b 22.761543
_cell_length_c 9.609608
_cell_angle_alpha 90.000000
_cell_angle_beta 90.000000
_cell_angle_gamma 90.000000
_cell_volume 3077.156461
_symmetry_space_group_name_H-M "P N N A"
_symmetry_group_IT_number 52
_symmetry_cell_setting 'orthorhombic'
loop_
_space_group_symop_operation_xyz
x,y,z
1/2-x,-y,z
x,1/2-y,1/2-z
1/2-x,1/2+y,1/2-z
-x,-y,-z
1/2+x,y,-z
-x,1/2+y,1/2+z
1/2+x,1/2-y,1/2+z
loop_
_atom_site_type_symbol
_atom_site_label
_atom_site_fract_x
_atom_site_fract_y
_atom_site_fract_z
Si Si1 0.810895 0.123834 0.218460
Si Si2 0.957133 0.870471 0.071982
Si Si3 0.640416 0.045569 0.258832
Si Si4 0.784695 0.797711 0.981294
Si Si5 0.496361 0.443297 0.688516
Si Si6 0.838748 0.956953 0.585736
Si Si7 0.129115 0.817626 0.226503
Si Si8 0.763176 0.338653 0.973588
O O1 0.747208 0.063514 0.210057
O O2 0.776862 0.170246 0.102667
O O3 0.922258 0.109466 0.219262
O O4 0.785707 0.147907 0.368439
O O5 0.911401 0.893682 0.215748
O O6 0.890851 0.819708 0.008506
O O7 0.059775 0.848734 0.119209
O O8 0.958161 0.921523 0.955780
O O9 0.637625 0.029866 0.422814
O O10 0.575632 0.997882 0.181911
O O11 0.734632 0.819205 0.839825
O O12 0.775018 0.727735 0.972759
O O13 0.574816 0.459337 0.804871
O O14 0.805803 0.889379 0.580533
O O15 0.750000 0.000000 0.623472
O O16 0.099992 0.750000 0.250000
O O17 0.142336 0.844117 0.378840
#
# Coordination Sequence:
#
# PCOD9411160 Si02
#       8
#     8   8   8   8   8   8   8   8
#     4  10  21  40  66  94 128 166 216 270 329 393
#     4  11  24  40  67  98 130 169 219 269 328 405
#     4  10  23  40  64  93 127 176 213 271 331 387
#     4  10  21  44  63  92 133 167 211 274 327 396
#     4  12  23  42  64  98 130 171 217 272 322 393
#     4  11  25  43  65  96 131 175 219 272 325 392
#     4  10  22  40  65  93 129 170 212 267 326 389
#     4  10  22  41  66  92 129 173 212 269 330 383
#
# _framework density 20.798424000000001
#
# number of rings (size 3 to 8) (size 9 to 14) (size 15 to 20)
#    0.000    1.500    1.250    3.750    3.500    3.000 
#    2.250    0.625    0.000    0.000    0.000    0.000 
#    0.000    0.000    0.000    0.000    0.000    0.000 
#
# Total GULP energy -356772.771643 kJ/mol
# GULP energy per Si atom -5574.574557 kJ/mol
# Density = 2.075109 g / cm^3
# Si number density = 20.798424 Si / 1000 Ang^3
#
#
#
# Elastic Constant Matrix: (Units=GPa)
#
#
# Indices 1 2 3 4 5 6 
#
# 1 95.1088 39.1172 46.6809 0.0000 0.0000 0.0000
# 2 39.1172 82.4080 44.7882 0.0000 0.0000 0.0000
# 3 46.6809 44.7882 84.3802 0.0000 0.0000 0.0000
# 4 0.0000 0.0000 0.0000 20.4763 0.0000 0.0000
# 5 0.0000 0.0000 0.0000 0.0000 29.6542 0.0000
# 6 0.0000 0.0000 0.0000 0.0000 0.0000 7.0360
#
#
#
# Elastic Compliance Matrix: (Units=1/GPa)
#
#
# Indices 1 2 3 4 5 6 
#
# 1 0.015203 -0.003718 -0.006437 0.000000 0.000000 0.000000
# 2 -0.003718 0.017964 -0.007478 0.000000 0.000000 0.000000
# 3 -0.006437 -0.007478 0.019382 0.000000 0.000000 0.000000
# 4 0.000000 0.000000 0.000000 0.048837 0.000000 0.000000
# 5 0.000000 0.000000 0.000000 0.000000 0.033722 0.000000
# 6 0.000000 0.000000 0.000000 0.000000 0.000000 0.142126
#
#
# Mechanical properties :
#
#
# Convention : Reuss Voigt Hill
#
# Bulk Modulus (GPa) = 57.86407 58.11885 57.99146
# Shear Modulus (GPa) = 15.71041 20.18736 17.94889
#
# Velocity S-wave (km/s) = 2.75137 3.11886 2.94086
# Velocity P-wave (km/s) = 6.16240 6.40111 6.28289
#
# Compressibility (1/GPa) = 0.01728188
#
# Stress axis : x y z
#
# Youngs Moduli (GPa) = 65.77722 55.66706 51.59525
#
# Poissons Ratio (x) = 0.20697 0.33212
# Poissons Ratio (y) = 0.24455 0.38584
# Poissons Ratio (z) = 0.42341 0.41629
#
# Static dielectric constant tensor:
#      x y z
#    x 1.804920 0.000000 0.000000 
#    y 0.000000 1.787380 0.000000 
#    z 0.000000 0.000000 1.751190 
# 
# From -- ./inp_files/11029.got.cif
#   From: 2010.05.17/outbox.cif.g08.bks.cpg/sg52_6_cif.got.tgz:11029.got - 2010.06.03 12:15:38.
