data_PCOD9411384
_publ_section_title
;
Structure prediction by ZEFSAII (Michael W. Deem and Ramdas Pophale) SiO2 
 PCOD9411384
Probable space group: P N N A
;
_chemical_formula_sum "Si O2"
_cell_formula_units_Z 52
_cell_length_a 5.011568
_cell_length_b 19.387698
_cell_length_c 23.644722
_cell_angle_alpha 90.000000
_cell_angle_beta 90.000000
_cell_angle_gamma 90.000000
_cell_volume 2297.386612
_symmetry_space_group_name_H-M "P N N A"
_symmetry_group_IT_number 52
_symmetry_cell_setting 'orthorhombic'
loop_
_space_group_symop_operation_xyz
x,y,z
1/2-x,-y,z
x,1/2-y,1/2-z
1/2-x,1/2+y,1/2-z
-x,-y,-z
1/2+x,y,-z
-x,1/2+y,1/2+z
1/2+x,1/2-y,1/2+z
loop_
_atom_site_type_symbol
_atom_site_label
_atom_site_fract_x
_atom_site_fract_y
_atom_site_fract_z
Si Si1 0.250000 0.000000 0.818101
Si Si2 0.549218 0.404278 0.465868
Si Si3 0.961189 0.739702 0.037193
Si Si4 0.250000 0.000000 0.120908
Si Si5 0.503549 0.750000 0.250000
Si Si6 0.991941 0.453132 0.139931
Si Si7 0.191296 0.111661 0.736829
Si Si8 0.288022 0.323090 0.148248
O O1 0.097295 0.061545 0.785463
O O2 0.502864 0.036404 0.847423
O O3 0.853327 0.421320 0.481244
O O4 0.531181 0.322614 0.456458
O O5 0.417906 0.445022 0.415182
O O6 0.043015 0.708653 0.097400
O O7 0.176975 0.720799 0.989033
O O8 0.683474 0.817592 0.241060
O O9 0.340152 0.731406 0.192678
O O10 0.250000 0.500000 0.135047
O O11 0.071208 0.375743 0.120758
O O12 0.750000 0.500000 0.116016
O O13 0.910961 0.434724 0.204333
O O14 0.977610 0.131501 0.689161
#
# Coordination Sequence:
#
# PCOD9411384 Si02
#       8
#     4   8   8   4   4   8   8   8
#     4  12  28  39  66  98 144 173 230 274 344 418
#     4  10  21  43  67  90 128 175 229 280 340 398
#     4  10  25  44  70 101 134 179 232 289 349 409
#     4  12  26  39  64 100 128 183 218 290 326 406
#     4  10  26  38  68 104 138 182 230 288 348 428
#     4  11  21  39  67  96 125 173 227 263 335 411
#     4  11  24  43  64  98 139 186 224 278 345 414
#     4  11  24  43  71  99 139 186 225 293 348 425
#
# _framework density 22.634412000000001
#
# number of rings (size 3 to 8) (size 9 to 14) (size 15 to 20)
#    0.000    1.231    2.308    1.846   11.846    1.231 
#    0.000    0.000    0.000    2.769    0.000    0.000 
#    0.000    0.000    0.000    0.000    0.000    0.000 
#
# Total GULP energy -290336.565821 kJ/mol
# GULP energy per Si atom -5583.395497 kJ/mol
# Density = 2.258290 g / cm^3
# Si number density = 22.634412 Si / 1000 Ang^3
#
#
#
# Elastic Constant Matrix: (Units=GPa)
#
#
# Indices 1 2 3 4 5 6 
#
# 1 105.1905 27.3686 8.7355 0.0000 0.0000 0.0000
# 2 27.3686 71.3268 35.5830 0.0000 0.0000 0.0000
# 3 8.7355 35.5830 54.0020 0.0000 0.0000 0.0000
# 4 0.0000 0.0000 0.0000 12.8486 0.0000 0.0000
# 5 0.0000 0.0000 0.0000 0.0000 33.4534 0.0000
# 6 0.0000 0.0000 0.0000 0.0000 0.0000 35.3691
#
#
#
# Elastic Compliance Matrix: (Units=1/GPa)
#
#
# Indices 1 2 3 4 5 6 
#
# 1 0.010636 -0.004801 0.001443 0.000000 0.000000 0.000000
# 2 -0.004801 0.023052 -0.014413 0.000000 0.000000 0.000000
# 3 0.001443 -0.014413 0.027782 0.000000 0.000000 0.000000
# 4 0.000000 0.000000 0.000000 0.077829 0.000000 0.000000
# 5 0.000000 0.000000 0.000000 0.000000 0.029892 0.000000
# 6 0.000000 0.000000 0.000000 0.000000 0.000000 0.028273
#
#
# Mechanical properties :
#
#
# Convention : Reuss Voigt Hill
#
# Bulk Modulus (GPa) = 38.56888 41.54372 40.05630
# Shear Modulus (GPa) = 20.69112 26.92303 23.80707
#
# Velocity S-wave (km/s) = 3.02676 3.45262 3.24668
# Velocity P-wave (km/s) = 5.41221 5.85561 5.63827
#
# Compressibility (1/GPa) = 0.02592764
#
# Stress axis : x y z
#
# Youngs Moduli (GPa) = 94.02176 43.37937 35.99513
#
# Poissons Ratio (x) = 0.20826 -0.05194
# Poissons Ratio (y) = 0.45139 0.51880
# Poissons Ratio (z) = -0.13567 0.62523
#
# Static dielectric constant tensor:
#      x y z
#    x 1.941510 0.000000 0.000000 
#    y 0.000000 1.857000 0.000000 
#    z 0.000000 0.000000 1.938770 
# 
# From -- ./inp_files/35210.got.cif
#   From: 2010.05.17/outbox.cif.g08.bks.cpg/sg52_18_cif.got.tgz:35210.got - 2010.06.03 12:15:38.
