data_PCOD9411004
_publ_section_title
;
Structure prediction by ZEFSAII (Michael W. Deem and Ramdas Pophale) SiO2 
 PCOD9411004
Probable space group: P N N A
;
_chemical_formula_sum "Si O2"
_cell_formula_units_Z 40
_cell_length_a 13.495278
_cell_length_b 9.343778
_cell_length_c 16.224108
_cell_angle_alpha 90.000000
_cell_angle_beta 90.000000
_cell_angle_gamma 90.000000
_cell_volume 2045.809427
_symmetry_space_group_name_H-M "P N N A"
_symmetry_group_IT_number 52
_symmetry_cell_setting 'orthorhombic'
loop_
_space_group_symop_operation_xyz
x,y,z
1/2-x,-y,z
x,1/2-y,1/2-z
1/2-x,1/2+y,1/2-z
-x,-y,-z
1/2+x,y,-z
-x,1/2+y,1/2+z
1/2+x,1/2-y,1/2+z
loop_
_atom_site_type_symbol
_atom_site_label
_atom_site_fract_x
_atom_site_fract_y
_atom_site_fract_z
Si Si1 0.636393 0.658154 0.050641
Si Si2 0.135429 0.969079 0.213097
Si Si3 0.134034 0.321939 0.930861
Si Si4 0.467757 0.628732 0.436121
Si Si5 0.066669 0.679516 0.137669
O O1 0.748522 0.697019 0.075574
O O2 0.617462 0.492908 0.071876
O O3 0.563499 0.777307 0.086446
O O4 0.611148 0.656979 0.952905
O O5 0.126233 0.813041 0.172693
O O6 0.081341 0.953668 0.301230
O O7 0.250000 0.000000 0.227011
O O8 0.085514 0.070919 0.145303
O O9 0.048642 0.272199 0.867524
O O10 0.102510 0.238560 0.013821
O O11 0.500000 0.500000 0.500000
#
# Coordination Sequence:
#
# PCOD9411004 Si02
#       5
#     8   8   8   8   8
#     4  10  21  39  65  91 119 171 215 254 310 385
#     4  11  23  38  61  90 130 160 199 267 336 373
#     4  10  21  39  65  85 129 168 215 253 311 382
#     4  11  20  36  61  94 121 159 216 262 306 387
#     4  10  21  41  57  92 126 162 199 265 323 372
#
# _framework density 19.552164000000001
#
# number of rings (size 3 to 8) (size 9 to 14) (size 15 to 20)
#    0.000    1.600    4.000    3.600    2.800    0.000 
#    7.200    0.000   17.600    0.000    0.000    0.000 
#    0.000    0.000    0.000    0.000    0.000    0.000 
#
# Total GULP energy -222860.680036 kJ/mol
# GULP energy per Si atom -5571.517001 kJ/mol
# Density = 1.950766 g / cm^3
# Si number density = 19.552164 Si / 1000 Ang^3
#
#
#
# Elastic Constant Matrix: (Units=GPa)
#
#
# Indices 1 2 3 4 5 6 
#
# 1 103.3518 42.5690 35.2296 0.0000 0.0000 0.0000
# 2 42.5690 66.4658 -0.1390 0.0000 0.0000 0.0000
# 3 35.2296 -0.1390 71.9409 0.0000 0.0000 0.0000
# 4 0.0000 0.0000 0.0000 27.8045 0.0000 0.0000
# 5 0.0000 0.0000 0.0000 0.0000 17.8764 0.0000
# 6 0.0000 0.0000 0.0000 0.0000 0.0000 36.3681
#
#
#
# Elastic Compliance Matrix: (Units=1/GPa)
#
#
# Indices 1 2 3 4 5 6 
#
# 1 0.017022 -0.010919 -0.008357 0.000000 0.000000 0.000000
# 2 -0.010919 0.022050 0.005390 0.000000 0.000000 0.000000
# 3 -0.008357 0.005390 0.018003 0.000000 0.000000 0.000000
# 4 0.000000 0.000000 0.000000 0.035965 0.000000 0.000000
# 5 0.000000 0.000000 0.000000 0.000000 0.055940 0.000000
# 6 0.000000 0.000000 0.000000 0.000000 0.000000 0.027497
#
#
# Mechanical properties :
#
#
# Convention : Reuss Voigt Hill
#
# Bulk Modulus (GPa) = 34.12689 44.11974 39.12331
# Shear Modulus (GPa) = 23.36270 27.34971 25.35621
#
# Velocity S-wave (km/s) = 3.46047 3.74412 3.60509
# Velocity P-wave (km/s) = 5.78434 6.42693 6.11408
#
# Compressibility (1/GPa) = 0.02930241
#
# Stress axis : x y z
#
# Youngs Moduli (GPa) = 58.74848 45.35146 55.54633
#
# Poissons Ratio (x) = 0.49521 0.46418
# Poissons Ratio (y) = 0.64149 -0.29938
# Poissons Ratio (z) = 0.49094 -0.24443
#
# Static dielectric constant tensor:
#      x y z
#    x 1.696750 0.000000 0.000000 
#    y 0.000000 1.717630 0.000000 
#    z 0.000000 0.000000 1.730610 
# 
# From -- ./inp_files/32868.got.cif
#   From: 2010.05.17/outbox.cif.g08.bks.cpg/sg52_17_cif.got.tgz:32868.got - 2010.06.03 12:15:38.
