data_PCOD9411304
_publ_section_title
;
Structure prediction by ZEFSAII (Michael W. Deem and Ramdas Pophale) SiO2 
 PCOD9411304
Probable space group: P N N A
;
_chemical_formula_sum "Si O2"
_cell_formula_units_Z 48
_cell_length_a 21.674630
_cell_length_b 11.590181
_cell_length_c 10.356621
_cell_angle_alpha 90.000000
_cell_angle_beta 90.000000
_cell_angle_gamma 90.000000
_cell_volume 2601.716638
_symmetry_space_group_name_H-M "P N N A"
_symmetry_group_IT_number 52
_symmetry_cell_setting 'orthorhombic'
loop_
_space_group_symop_operation_xyz
x,y,z
1/2-x,-y,z
x,1/2-y,1/2-z
1/2-x,1/2+y,1/2-z
-x,-y,-z
1/2+x,y,-z
-x,1/2+y,1/2+z
1/2+x,1/2-y,1/2+z
loop_
_atom_site_type_symbol
_atom_site_label
_atom_site_fract_x
_atom_site_fract_y
_atom_site_fract_z
Si Si1 0.600259 0.756143 0.097582
Si Si2 0.512444 0.250000 0.250000
Si Si3 0.625913 0.072656 0.776838
Si Si4 0.944877 0.436715 0.926553
Si Si5 0.027405 0.129717 0.010334
Si Si6 0.300355 0.100809 0.052759
Si Si7 0.229185 0.250000 0.250000
O O1 0.604469 0.750000 0.250000
O O2 0.531730 0.800764 0.061659
O O3 0.600327 0.633480 0.022432
O O4 0.653904 0.842858 0.050841
O O5 0.471254 0.345448 0.177699
O O6 0.545367 0.317295 0.369589
O O7 0.583089 0.131866 0.886532
O O8 0.682904 0.145587 0.725136
O O9 0.586794 0.035388 0.655804
O O10 0.654910 0.961364 0.845354
O O11 0.000000 0.500000 0.000000
O O12 0.000000 0.000000 0.000000
O O13 0.267760 0.205657 0.128351
O O14 0.250000 0.000000 0.014721
#
# Coordination Sequence:
#
# PCOD9411304 Si02
#       7
#     8   4   8   8   8   8   4
#     4  11  23  38  61  89 126 163 207 261 316 394
#     4  10  22  35  54  88 134 165 194 242 308 410
#     4  11  21  38  64  89 125 157 203 269 307 377
#     4  11  22  35  57  91 128 161 199 244 325 391
#     4  11  20  37  63  93 128 163 201 252 340 380
#     4  10  21  42  62  84 113 166 216 252 311 359
#     4  10  24  37  66  88 116 157 226 262 292 360
#
# _framework density 18.449358
#
# number of rings (size 3 to 8) (size 9 to 14) (size 15 to 20)
#    0.000    1.333    3.333    3.000    5.833    0.667 
#    0.000    1.667    7.333    0.000    0.000    0.000 
#    0.000    0.000    0.000    0.000    0.000    0.000 
#
# Total GULP energy -267628.828588 kJ/mol
# GULP energy per Si atom -5575.600596 kJ/mol
# Density = 1.840737 g / cm^3
# Si number density = 18.449358 Si / 1000 Ang^3
#
#
#
# Elastic Constant Matrix: (Units=GPa)
#
#
# Indices 1 2 3 4 5 6 
#
# 1 89.5689 22.0820 59.4391 0.0000 0.0000 0.0000
# 2 22.0820 55.5872 53.6836 0.0000 0.0000 0.0000
# 3 59.4391 53.6836 140.5030 0.0000 0.0000 0.0000
# 4 0.0000 0.0000 0.0000 36.5649 0.0000 0.0000
# 5 0.0000 0.0000 0.0000 0.0000 -19.0190 0.0000
# 6 0.0000 0.0000 0.0000 0.0000 0.0000 26.5545
#
#
#
# Elastic Compliance Matrix: (Units=1/GPa)
#
#
# Indices 1 2 3 4 5 6 
#
# 1 0.015525 0.000278 -0.006674 0.000000 0.000000 0.000000
# 2 0.000278 0.028515 -0.011013 0.000000 0.000000 0.000000
# 3 -0.006674 -0.011013 0.014148 0.000000 0.000000 0.000000
# 4 0.000000 0.000000 0.000000 0.027349 0.000000 0.000000
# 5 0.000000 0.000000 0.000000 0.000000 -0.052579 0.000000
# 6 0.000000 0.000000 0.000000 0.000000 0.000000 0.037658
#
#
# Mechanical properties :
#
#
# Convention : Reuss Voigt Hill
#
# Bulk Modulus (GPa) = 42.78777 61.78540 52.28659
# Shear Modulus (GPa) = 44.16044 18.85039 31.50542
#
# Velocity S-wave (km/s) = 4.89775 3.19993 4.13688
# Velocity P-wave (km/s) = 7.43144 6.87129 7.15685
#
# Compressibility (1/GPa) = 0.02337116
#
# Stress axis : x y z
#
# Youngs Moduli (GPa) = 64.41224 35.06955 70.67914
#
# Poissons Ratio (x) = -0.00976 0.47172
# Poissons Ratio (y) = -0.01792 0.77837
# Poissons Ratio (z) = 0.42989 0.38621
#
# Static dielectric constant tensor:
#      x y z
#    x 1.634490 0.000000 0.000000 
#    y 0.000000 0.325950 0.000000 
#    z 0.000000 0.000000 1.655530 
# 
# From -- ./inp_files/14345.got.cif
#   From: 2010.05.17/outbox.cif.g08.bks.cpg/sg52_8_cif.got.tgz:14345.got - 2010.06.03 12:15:38.
