data_PCOD9411080
_publ_section_title
;
Structure prediction by ZEFSAII (Michael W. Deem and Ramdas Pophale) SiO2 
 PCOD9411080
Probable space group: P N N A
;
_chemical_formula_sum "Si O2"
_cell_formula_units_Z 40
_cell_length_a 27.370944
_cell_length_b 8.984425
_cell_length_c 8.176493
_cell_angle_alpha 90.000000
_cell_angle_beta 90.000000
_cell_angle_gamma 90.000000
_cell_volume 2010.699329
_symmetry_space_group_name_H-M "P N N A"
_symmetry_group_IT_number 52
_symmetry_cell_setting 'orthorhombic'
loop_
_space_group_symop_operation_xyz
x,y,z
1/2-x,-y,z
x,1/2-y,1/2-z
1/2-x,1/2+y,1/2-z
-x,-y,-z
1/2+x,y,-z
-x,1/2+y,1/2+z
1/2+x,1/2-y,1/2+z
loop_
_atom_site_type_symbol
_atom_site_label
_atom_site_fract_x
_atom_site_fract_y
_atom_site_fract_z
Si Si1 0.395695 0.920330 0.803546
Si Si2 0.497645 0.071862 0.190989
Si Si3 0.298212 0.082052 0.693221
Si Si4 0.898091 0.919961 0.805337
Si Si5 0.201030 0.920351 0.303296
O O1 0.389706 0.750000 0.750000
O O2 0.448972 0.974872 0.741776
O O3 0.349033 0.010474 0.746769
O O4 0.397584 0.924863 0.998891
O O5 0.495106 0.250000 0.250000
O O6 0.447669 0.999892 0.255514
O O7 0.500000 0.000000 0.000000
O O8 0.296539 0.250000 0.750000
O O9 0.296569 0.074819 0.498354
O O10 0.250000 0.000000 0.759841
O O11 0.898491 0.750000 0.750000
O O12 0.848691 0.998947 0.747946
O O13 0.200126 0.750000 0.250000
O O14 0.250000 0.000000 0.237016
#
# Coordination Sequence:
#
# PCOD9411080 Si02
#       5
#     8   8   8   8   8
#     4  10  21  40  61  86 122 158 199 246 298 358
#     4   9  20  39  61  88 123 164 205 253 308 367
#     4  11  24  40  61  87 117 155 197 244 299 358
#     4  11  22  38  62  91 123 161 203 251 304 363
#     4  11  24  41  61  88 120 156 200 250 306 366
#
# _framework density 19.893574999999998
#
# number of rings (size 3 to 8) (size 9 to 14) (size 15 to 20)
#    0.000    1.600    0.000    4.200    0.000    8.800 
#    0.000   16.000    0.000    0.000    0.000    0.000 
#    0.000    0.000    0.000    0.000    0.000    0.000 
#
# Total GULP energy -222967.965581 kJ/mol
# GULP energy per Si atom -5574.199140 kJ/mol
# Density = 1.984830 g / cm^3
# Si number density = 19.893575 Si / 1000 Ang^3
#
#
#
# Elastic Constant Matrix: (Units=GPa)
#
#
# Indices 1 2 3 4 5 6 
#
# 1 267.7964 134.4419 38.9718 0.0000 0.0000 0.0000
# 2 134.4419 156.9443 26.5317 0.0000 0.0000 0.0000
# 3 38.9718 26.5317 56.7449 0.0000 0.0000 0.0000
# 4 0.0000 0.0000 0.0000 35.8843 0.0000 0.0000
# 5 0.0000 0.0000 0.0000 0.0000 75.5263 0.0000
# 6 0.0000 0.0000 0.0000 0.0000 0.0000 45.4853
#
#
#
# Elastic Compliance Matrix: (Units=1/GPa)
#
#
# Indices 1 2 3 4 5 6 
#
# 1 0.006776 -0.005448 -0.002106 0.000000 0.000000 0.000000
# 2 -0.005448 0.011299 -0.001541 0.000000 0.000000 0.000000
# 3 -0.002106 -0.001541 0.019790 0.000000 0.000000 0.000000
# 4 0.000000 0.000000 0.000000 0.027867 0.000000 0.000000
# 5 0.000000 0.000000 0.000000 0.000000 0.013240 0.000000
# 6 0.000000 0.000000 0.000000 0.000000 0.000000 0.021985
#
#
# Mechanical properties :
#
#
# Convention : Reuss Voigt Hill
#
# Bulk Modulus (GPa) = 50.82968 97.93069 74.38018
# Shear Modulus (GPa) = 39.77482 50.14854 44.96168
#
# Velocity S-wave (km/s) = 4.47629 5.02624 4.75922
# Velocity P-wave (km/s) = 7.23343 9.11144 8.22620
#
# Compressibility (1/GPa) = 0.01967355
#
# Stress axis : x y z
#
# Youngs Moduli (GPa) = 147.58125 88.50006 50.53085
#
# Poissons Ratio (x) = 0.48218 0.10643
# Poissons Ratio (y) = 0.80407 0.07788
# Poissons Ratio (z) = 0.31083 0.13641
#
# Static dielectric constant tensor:
#      x y z
#    x 1.721510 0.000000 0.000000 
#    y 0.000000 1.670210 0.000000 
#    z 0.000000 0.000000 1.727870 
# 
# From -- ./inp_files/14003.got.cif
#   From: 2010.05.17/outbox.cif.g08.bks.cpg/sg52_8_cif.got.tgz:14003.got - 2010.06.03 12:15:38.
