data_PCOD9411818
_publ_section_title
;
Structure prediction by ZEFSAII (Michael W. Deem and Ramdas Pophale) SiO2 
 PCOD9411818
Probable space group: P N N A
;
_chemical_formula_sum "Si O2"
_cell_formula_units_Z 48
_cell_length_a 14.515247
_cell_length_b 12.973178
_cell_length_c 13.669761
_cell_angle_alpha 90.000000
_cell_angle_beta 90.000000
_cell_angle_gamma 90.000000
_cell_volume 2574.137425
_symmetry_space_group_name_H-M "P N N A"
_symmetry_group_IT_number 52
_symmetry_cell_setting 'orthorhombic'
loop_
_space_group_symop_operation_xyz
x,y,z
1/2-x,-y,z
x,1/2-y,1/2-z
1/2-x,1/2+y,1/2-z
-x,-y,-z
1/2+x,y,-z
-x,1/2+y,1/2+z
1/2+x,1/2-y,1/2+z
loop_
_atom_site_type_symbol
_atom_site_label
_atom_site_fract_x
_atom_site_fract_y
_atom_site_fract_z
Si Si1 0.239084 0.317098 0.105721
Si Si2 0.650662 0.193525 0.399853
Si Si3 0.314939 0.905503 0.189512
Si Si4 0.021060 0.528290 0.389541
Si Si5 0.674494 0.086932 0.194049
Si Si6 0.058271 0.741863 0.132851
O O1 0.211423 0.199625 0.134477
O O2 0.200420 0.384448 0.195390
O O3 0.350356 0.321015 0.106539
O O4 0.196183 0.341166 0.000761
O O5 0.675893 0.123208 0.306895
O O6 0.684113 0.309455 0.371351
O O7 0.539104 0.200479 0.406848
O O8 0.250000 0.000000 0.159323
O O9 0.416377 0.943302 0.162263
O O10 0.070306 0.639268 0.396312
O O11 0.000000 0.500000 0.500000
O O12 0.926609 0.544499 0.331067
O O13 0.750000 0.000000 0.174089
O O14 0.049388 0.750000 0.250000
#
# Coordination Sequence:
#
# PCOD9411818 Si02
#       6
#     8   8   8   8   8   8
#     4  11  23  37  62  92 123 157 203 254 306 362
#     4  10  22  41  61  88 123 160 209 243 303 383
#     4  11  21  38  61  92 121 150 202 260 301 351
#     4  11  22  36  63  92 116 155 205 255 303 361
#     4  10  22  41  62  85 122 163 202 246 304 366
#     4  11  18  41  64  83 119 168 198 249 311 356
#
# _framework density 18.647023000000001
#
# number of rings (size 3 to 8) (size 9 to 14) (size 15 to 20)
#    0.000    1.333    6.667    2.000    2.333    2.000 
#    3.000    2.500    0.000    0.000    0.000    0.000 
#    0.000    0.000    0.000    0.000    0.000    0.000 
#
# Total GULP energy -268045.413301 kJ/mol
# GULP energy per Si atom -5584.279444 kJ/mol
# Density = 1.860458 g / cm^3
# Si number density = 18.647023 Si / 1000 Ang^3
#
#
#
# Elastic Constant Matrix: (Units=GPa)
#
#
# Indices 1 2 3 4 5 6 
#
# 1 112.4915 19.2559 37.4650 0.0000 0.0000 0.0000
# 2 19.2559 48.0613 6.1933 0.0000 0.0000 0.0000
# 3 37.4650 6.1933 98.5109 0.0000 0.0000 0.0000
# 4 0.0000 0.0000 0.0000 15.1222 0.0000 0.0000
# 5 0.0000 0.0000 0.0000 0.0000 18.5262 0.0000
# 6 0.0000 0.0000 0.0000 0.0000 0.0000 31.0652
#
#
#
# Elastic Compliance Matrix: (Units=1/GPa)
#
#
# Indices 1 2 3 4 5 6 
#
# 1 0.010840 -0.003843 -0.003881 0.000000 0.000000 0.000000
# 2 -0.003843 0.022339 0.000057 0.000000 0.000000 0.000000
# 3 -0.003881 0.000057 0.011624 0.000000 0.000000 0.000000
# 4 0.000000 0.000000 0.000000 0.066128 0.000000 0.000000
# 5 0.000000 0.000000 0.000000 0.000000 0.053978 0.000000
# 6 0.000000 0.000000 0.000000 0.000000 0.000000 0.032190
#
#
# Mechanical properties :
#
#
# Convention : Reuss Voigt Hill
#
# Bulk Modulus (GPa) = 33.93402 42.76576 38.34989
# Shear Modulus (GPa) = 22.49666 26.01935 24.25800
#
# Velocity S-wave (km/s) = 3.47716 3.73951 3.61072
# Velocity P-wave (km/s) = 5.86161 6.45208 6.16392
#
# Compressibility (1/GPa) = 0.02946896
#
# Stress axis : x y z
#
# Youngs Moduli (GPa) = 92.25154 44.76456 86.03222
#
# Poissons Ratio (x) = 0.17203 0.33389
# Poissons Ratio (y) = 0.35452 -0.00491
# Poissons Ratio (z) = 0.35803 -0.00256
#
# Static dielectric constant tensor:
#      x y z
#    x 1.656580 0.000000 0.000000 
#    y 0.000000 1.682070 0.000000 
#    z 0.000000 0.000000 1.619660 
# 
# From -- ./inp_files/27167.got.cif
#   From: 2010.05.17/outbox.cif.g08.bks.cpg/sg52_14_cif.got.tgz:27167.got - 2010.06.03 12:15:38.
