data_PCOD9411268
_publ_section_title
;
Structure prediction by ZEFSAII (Michael W. Deem and Ramdas Pophale) SiO2 
 PCOD9411268
Probable space group: P N N A
;
_chemical_formula_sum "Si O2"
_cell_formula_units_Z 48
_cell_length_a 10.060458
_cell_length_b 13.458918
_cell_length_c 17.332533
_cell_angle_alpha 90.000000
_cell_angle_beta 90.000000
_cell_angle_gamma 90.000000
_cell_volume 2346.874873
_symmetry_space_group_name_H-M "P N N A"
_symmetry_group_IT_number 52
_symmetry_cell_setting 'orthorhombic'
loop_
_space_group_symop_operation_xyz
x,y,z
1/2-x,-y,z
x,1/2-y,1/2-z
1/2-x,1/2+y,1/2-z
-x,-y,-z
1/2+x,y,-z
-x,1/2+y,1/2+z
1/2+x,1/2-y,1/2+z
loop_
_atom_site_type_symbol
_atom_site_label
_atom_site_fract_x
_atom_site_fract_y
_atom_site_fract_z
Si Si1 0.054286 0.277889 0.922451
Si Si2 0.241248 0.279498 0.059712
Si Si3 0.110864 0.449781 0.623309
Si Si4 0.359815 0.585943 0.197455
Si Si5 0.108052 0.454678 0.809769
Si Si6 0.136878 0.417789 0.372648
O O1 0.086666 0.162446 0.904692
O O2 0.075735 0.349644 0.849135
O O3 0.900181 0.284700 0.948410
O O4 0.157249 0.316563 0.986862
O O5 0.196381 0.336713 0.136665
O O6 0.190746 0.167801 0.073241
O O7 0.250000 0.500000 0.600206
O O8 0.105695 0.444224 0.716927
O O9 0.995150 0.526406 0.599952
O O10 0.250000 0.500000 0.202586
O O11 0.494557 0.534057 0.169086
O O12 0.383402 0.622678 0.285089
O O13 0.250000 0.500000 0.832162
O O14 0.250000 0.500000 0.368046
#
# Coordination Sequence:
#
# PCOD9411268 Si02
#       6
#     8   8   8   8   8   8
#     4  12  27  43  62  92 132 171 206 255 317 379
#     4  12  27  41  62  94 130 171 208 255 317 377
#     4  10  23  43  69  96 124 163 211 264 315 367
#     4  10  21  41  68  94 119 159 215 263 306 364
#     4  10  23  43  69  96 124 163 211 264 315 367
#     4  10  21  41  68  94 119 159 215 263 306 364
#
# _framework density 20.452732000000001
#
# number of rings (size 3 to 8) (size 9 to 14) (size 15 to 20)
#    0.000    1.333    3.333    1.000    4.667    4.000 
#    0.000    5.000    0.000    0.000    0.000    0.000 
#    0.000    0.000    0.000    0.000    0.000    0.000 
#
# Total GULP energy -268247.035260 kJ/mol
# GULP energy per Si atom -5588.479901 kJ/mol
# Density = 2.040618 g / cm^3
# Si number density = 20.452732 Si / 1000 Ang^3
#
#
#
# Elastic Constant Matrix: (Units=GPa)
#
#
# Indices 1 2 3 4 5 6 
#
# 1 188.0761 34.4481 18.3331 0.0000 0.0000 0.0000
# 2 34.4481 53.7269 13.1838 0.0000 0.0000 0.0000
# 3 18.3331 13.1838 44.3932 0.0000 0.0000 0.0000
# 4 0.0000 0.0000 0.0000 8.7314 0.0000 0.0000
# 5 0.0000 0.0000 0.0000 0.0000 52.8451 0.0000
# 6 0.0000 0.0000 0.0000 0.0000 0.0000 31.4525
#
#
#
# Elastic Compliance Matrix: (Units=1/GPa)
#
#
# Indices 1 2 3 4 5 6 
#
# 1 0.006112 -0.003559 -0.001467 0.000000 0.000000 0.000000
# 2 -0.003559 0.022148 -0.005108 0.000000 0.000000 0.000000
# 3 -0.001467 -0.005108 0.024649 0.000000 0.000000 0.000000
# 4 0.000000 0.000000 0.000000 0.114530 0.000000 0.000000
# 5 0.000000 0.000000 0.000000 0.000000 0.018923 0.000000
# 6 0.000000 0.000000 0.000000 0.000000 0.000000 0.031794
#
#
# Mechanical properties :
#
#
# Convention : Reuss Voigt Hill
#
# Bulk Modulus (GPa) = 30.63620 46.45847 38.54734
# Shear Modulus (GPa) = 20.05592 33.28787 26.67189
#
# Velocity S-wave (km/s) = 3.13485 4.03867 3.61512
# Velocity P-wave (km/s) = 5.30232 6.67174 6.02606
#
# Compressibility (1/GPa) = 0.03264112
#
# Stress axis : x y z
#
# Youngs Moduli (GPa) = 163.61725 45.15125 40.56995
#
# Poissons Ratio (x) = 0.16068 0.05952
# Poissons Ratio (y) = 0.58227 0.20722
# Poissons Ratio (z) = 0.24005 0.23062
#
# Static dielectric constant tensor:
#      x y z
#    x 1.723120 0.000000 0.000000 
#    y 0.000000 1.759220 0.000000 
#    z 0.000000 0.000000 1.774130 
# 
# From -- ./inp_files/31252.got.cif
#   From: 2010.05.17/outbox.cif.g08.bks.cpg/sg52_16_cif.got.tgz:31252.got - 2010.06.03 12:15:38.
