data_PCOD9411519
_publ_section_title
;
Structure prediction by ZEFSAII (Michael W. Deem and Ramdas Pophale) SiO2 
 PCOD9411519
Probable space group: P N N A
;
_chemical_formula_sum "Si O2"
_cell_formula_units_Z 60
_cell_length_a 5.662972
_cell_length_b 22.477869
_cell_length_c 21.572454
_cell_angle_alpha 90.000000
_cell_angle_beta 90.000000
_cell_angle_gamma 90.000000
_cell_volume 2745.990951
_symmetry_space_group_name_H-M "P N N A"
_symmetry_group_IT_number 52
_symmetry_cell_setting 'orthorhombic'
loop_
_space_group_symop_operation_xyz
x,y,z
1/2-x,-y,z
x,1/2-y,1/2-z
1/2-x,1/2+y,1/2-z
-x,-y,-z
1/2+x,y,-z
-x,1/2+y,1/2+z
1/2+x,1/2-y,1/2+z
loop_
_atom_site_type_symbol
_atom_site_label
_atom_site_fract_x
_atom_site_fract_y
_atom_site_fract_z
Si Si1 0.408177 0.323832 0.988597
Si Si2 0.508914 0.781382 0.352400
Si Si3 0.366368 0.645284 0.362579
Si Si4 0.578004 0.811924 0.967727
Si Si5 0.133570 0.250000 0.750000
Si Si6 0.996953 0.017526 0.102638
Si Si7 0.823521 0.350282 0.762478
Si Si8 0.002254 0.026602 0.753984
O O1 0.411368 0.307784 0.916586
O O2 0.659243 0.354666 0.999288
O O3 0.414097 0.261368 0.029008
O O4 0.471172 0.711421 0.365570
O O5 0.708868 0.781550 0.300564
O O6 0.292526 0.817867 0.321227
O O7 0.126355 0.655505 0.402497
O O8 0.498651 0.588771 0.390375
O O9 0.361110 0.629146 0.289573
O O10 0.320063 0.827668 0.994493
O O11 0.962348 0.299909 0.724385
O O12 0.750000 0.000000 0.072348
O O13 0.250000 0.000000 0.074447
O O14 0.998169 0.983696 0.170746
O O15 0.991140 0.405950 0.770053
O O16 0.750000 0.000000 0.732563
O O17 0.250000 0.000000 0.732067
#
# Coordination Sequence:
#
# PCOD9411519 Si02
#       8
#     8   8   8   8   4   8   8   8
#     4  10  22  41  60  84 120 170 219 255 304 392
#     4  12  25  38  58  95 131 167 205 264 335 398
#     4  12  21  41  60  87 128 167 217 262 328 388
#     4  10  22  37  59  86 111 167 220 263 309 376
#     4  12  26  32  60  92 140 168 196 264 344 398
#     4  10  22  37  58  85 109 163 216 259 302 370
#     4  12  25  39  57  97 133 166 207 264 339 401
#     4  10  22  41  60  82 118 170 215 252 302 388
#
# _framework density 21.850037
#
# number of rings (size 3 to 8) (size 9 to 14) (size 15 to 20)
#    0.000    1.067    8.000    0.000   11.200    1.067 
#    0.000    0.000    0.000    2.400    0.000    0.000 
#    0.000    3.200    0.000    0.000    0.000    0.000 
#
# Total GULP energy -334529.098463 kJ/mol
# GULP energy per Si atom -5575.484974 kJ/mol
# Density = 2.180031 g / cm^3
# Si number density = 21.850037 Si / 1000 Ang^3
#
#
#
# Elastic Constant Matrix: (Units=GPa)
#
#
# Indices 1 2 3 4 5 6 
#
# 1 160.2624 32.9345 23.4108 0.0000 0.0000 0.0000
# 2 32.9345 89.6813 14.0867 0.0000 0.0000 0.0000
# 3 23.4108 14.0867 59.1949 0.0000 0.0000 0.0000
# 4 0.0000 0.0000 0.0000 -0.9611 0.0000 0.0000
# 5 0.0000 0.0000 0.0000 0.0000 7.3501 0.0000
# 6 0.0000 0.0000 0.0000 0.0000 0.0000 68.5632
#
#
#
# Elastic Compliance Matrix: (Units=1/GPa)
#
#
# Indices 1 2 3 4 5 6 
#
# 1 0.007026 -0.002227 -0.002249 0.000000 0.000000 0.000000
# 2 -0.002227 0.012289 -0.002044 0.000000 0.000000 0.000000
# 3 -0.002249 -0.002044 0.018269 0.000000 0.000000 0.000000
# 4 0.000000 0.000000 0.000000 -1.040482 0.000000 0.000000
# 5 0.000000 0.000000 0.000000 0.000000 0.136053 0.000000
# 6 0.000000 0.000000 0.000000 0.000000 0.000000 0.014585
#
#
# Mechanical properties :
#
#
# Convention : Reuss Voigt Hill
#
# Bulk Modulus (GPa) = 40.74072 50.00028 45.37050
# Shear Modulus (GPa) = -6.01656 30.90423 12.44383
#
# Velocity S-wave (km/s) = -1.66119 3.76490 2.38903
# Velocity P-wave (km/s) = 3.87385 6.46780 5.33100
#
# Compressibility (1/GPa) = 0.02454547
#
# Stress axis : x y z
#
# Youngs Moduli (GPa) = 142.33048 81.37052 54.73744
#
# Poissons Ratio (x) = 0.18121 0.12309
# Poissons Ratio (y) = 0.31697 0.11187
# Poissons Ratio (z) = 0.32006 0.16630
#
# Static dielectric constant tensor:
#      x y z
#    x 1.916010 0.000000 0.000000 
#    y 0.000000 1.863430 0.000000 
#    z 0.000000 0.000000 1.693570 
# 
# From -- ./inp_files/35273.got.cif
#   From: 2010.05.17/outbox.cif.g08.bks.cpg/sg52_18_cif.got.tgz:35273.got - 2010.06.03 12:15:38.
