data_PCOD9411216
_publ_section_title
;
Structure prediction by ZEFSAII (Michael W. Deem and Ramdas Pophale) SiO2 
 PCOD9411216
Probable space group: P N N A
;
_chemical_formula_sum "Si O2"
_cell_formula_units_Z 64
_cell_length_a 16.740846
_cell_length_b 28.711227
_cell_length_c 6.479988
_cell_angle_alpha 90.000000
_cell_angle_beta 90.000000
_cell_angle_gamma 90.000000
_cell_volume 3114.607721
_symmetry_space_group_name_H-M "P N N A"
_symmetry_group_IT_number 52
_symmetry_cell_setting 'orthorhombic'
loop_
_space_group_symop_operation_xyz
x,y,z
1/2-x,-y,z
x,1/2-y,1/2-z
1/2-x,1/2+y,1/2-z
-x,-y,-z
1/2+x,y,-z
-x,1/2+y,1/2+z
1/2+x,1/2-y,1/2+z
loop_
_atom_site_type_symbol
_atom_site_label
_atom_site_fract_x
_atom_site_fract_y
_atom_site_fract_z
Si Si1 0.429417 0.197326 0.330656
Si Si2 0.568459 0.040736 0.760967
Si Si3 0.716209 0.800527 0.355394
Si Si4 0.181922 0.032505 0.625424
Si Si5 0.597433 0.537963 0.421232
Si Si6 0.834939 0.888237 0.043905
Si Si7 0.328294 0.364572 0.472327
Si Si8 0.608728 0.195505 0.317051
O O1 0.434366 0.250000 0.250000
O O2 0.357671 0.197027 0.492418
O O3 0.519743 0.184714 0.403167
O O4 0.393811 0.163853 0.154617
O O5 0.613829 0.041743 0.544598
O O6 0.474388 0.049229 0.764187
O O7 0.606641 0.078747 0.914694
O O8 0.573698 0.990255 0.872653
O O9 0.717889 0.750000 0.250000
O O10 0.694558 0.836753 0.177661
O O11 0.806659 0.808883 0.439571
O O12 0.194979 0.080264 0.757452
O O13 0.250000 0.000000 0.517575
O O14 0.154828 0.996424 0.800344
O O15 0.636647 0.585448 0.483961
O O16 0.761683 0.874428 0.892261
O O17 0.877005 0.841670 0.131769
O O18 0.606426 0.250000 0.250000
#
# Coordination Sequence:
#
# PCOD9411216 Si02
#       8
#     8   8   8   8   8   8   8   8
#     4  11  22  40  66  92 119 169 216 254 319 392
#     4  10  23  38  64  85 125 162 209 256 312 380
#     4  10  21  41  60  87 126 161 200 264 315 366
#     4  11  22  37  62  90 127 163 207 254 313 382
#     4  10  22  41  57  93 123 162 203 265 315 364
#     4  10  22  40  61  92 125 167 206 264 316 370
#     4  11  22  37  64  88 125 159 212 259 310 379
#     4   9  21  41  65  90 128 163 205 265 316 372
#
# _framework density 20.548335999999999
#
# number of rings (size 3 to 8) (size 9 to 14) (size 15 to 20)
#    0.000    1.750    2.500    1.125    1.750    4.000 
#    0.000    3.125    0.000    0.000    0.000    0.000 
#    0.000    0.000    0.000    0.000    0.000    0.000 
#
# Total GULP energy -356413.815863 kJ/mol
# GULP energy per Si atom -5568.965873 kJ/mol
# Density = 2.050157 g / cm^3
# Si number density = 20.548336 Si / 1000 Ang^3
#
#
#
# Elastic Constant Matrix: (Units=GPa)
#
#
# Indices 1 2 3 4 5 6 
#
# 1 154.9211 23.4420 20.5343 0.0000 0.0000 0.0000
# 2 23.4420 126.7555 16.3682 0.0000 0.0000 0.0000
# 3 20.5343 16.3682 33.7166 0.0000 0.0000 0.0000
# 4 0.0000 0.0000 0.0000 14.1446 0.0000 0.0000
# 5 0.0000 0.0000 0.0000 0.0000 26.0174 0.0000
# 6 0.0000 0.0000 0.0000 0.0000 0.0000 29.5708
#
#
#
# Elastic Compliance Matrix: (Units=1/GPa)
#
#
# Indices 1 2 3 4 5 6 
#
# 1 0.007098 -0.000805 -0.003932 0.000000 0.000000 0.000000
# 2 -0.000805 0.008508 -0.003640 0.000000 0.000000 0.000000
# 3 -0.003932 -0.003640 0.033821 0.000000 0.000000 0.000000
# 4 0.000000 0.000000 0.000000 0.070699 0.000000 0.000000
# 5 0.000000 0.000000 0.000000 0.000000 0.038436 0.000000
# 6 0.000000 0.000000 0.000000 0.000000 0.000000 0.033817
#
#
# Mechanical properties :
#
#
# Convention : Reuss Voigt Hill
#
# Bulk Modulus (GPa) = 30.60664 48.45357 39.53011
# Shear Modulus (GPa) = 22.72482 30.94978 26.83730
#
# Velocity S-wave (km/s) = 3.32915 3.88518 3.61786
# Velocity P-wave (km/s) = 5.45022 6.61496 6.06063
#
# Compressibility (1/GPa) = 0.03267264
#
# Stress axis : x y z
#
# Youngs Moduli (GPa) = 140.88726 117.53460 29.56749
#
# Poissons Ratio (x) = 0.09461 0.11626
# Poissons Ratio (y) = 0.11340 0.10763
# Poissons Ratio (z) = 0.55397 0.42785
#
# Static dielectric constant tensor:
#      x y z
#    x 1.829080 0.000000 0.000000 
#    y 0.000000 1.740130 0.000000 
#    z 0.000000 0.000000 1.704110 
# 
# From -- ./inp_files/3661.got.cif
#   From: 2010.05.17/outbox.cif.g08.bks.cpg/sg52_2_cif.got.tgz:3661.got - 2010.06.03 12:15:38.
