data_PCOD9411566
_publ_section_title
;
Structure prediction by ZEFSAII (Michael W. Deem and Ramdas Pophale) SiO2 
 PCOD9411566
Probable space group: P N N A
;
_chemical_formula_sum "Si O2"
_cell_formula_units_Z 52
_cell_length_a 8.921473
_cell_length_b 19.384474
_cell_length_c 14.067670
_cell_angle_alpha 90.000000
_cell_angle_beta 90.000000
_cell_angle_gamma 90.000000
_cell_volume 2432.835578
_symmetry_space_group_name_H-M "P N N A"
_symmetry_group_IT_number 52
_symmetry_cell_setting 'orthorhombic'
loop_
_space_group_symop_operation_xyz
x,y,z
1/2-x,-y,z
x,1/2-y,1/2-z
1/2-x,1/2+y,1/2-z
-x,-y,-z
1/2+x,y,-z
-x,1/2+y,1/2+z
1/2+x,1/2-y,1/2+z
loop_
_atom_site_type_symbol
_atom_site_label
_atom_site_fract_x
_atom_site_fract_y
_atom_site_fract_z
Si Si1 0.677207 0.123395 0.131565
Si Si2 0.642657 0.403742 0.734293
Si Si3 0.526606 0.949810 0.726135
Si Si4 0.553238 0.835382 0.585513
Si Si5 0.000830 0.356818 0.443868
Si Si6 0.099294 0.298300 0.105540
Si Si7 0.885675 0.750000 0.250000
O O1 0.609506 0.065305 0.201478
O O2 0.831457 0.118681 0.074131
O O3 0.703044 0.188636 0.200686
O O4 0.550903 0.138643 0.052532
O O5 0.567032 0.470521 0.781735
O O6 0.821689 0.411489 0.737239
O O7 0.597175 0.404849 0.625029
O O8 0.586452 0.337188 0.793422
O O9 0.511801 0.910647 0.626567
O O10 0.491205 0.832895 0.479803
O O11 0.725352 0.810721 0.582319
O O12 0.479615 0.784272 0.664141
O O13 0.043992 0.280406 0.405085
#
# Coordination Sequence:
#
# PCOD9411566 Si02
#       7
#     8   8   8   8   8   8   4
#     4  11  24  39  64  90 128 159 208 252 314 363
#     4  10  23  41  66  89 127 163 216 253 305 371
#     4   9  22  45  63  90 120 174 208 255 310 363
#     4  10  22  38  64  87 128 159 206 251 311 361
#     4  12  24  38  63  95 125 163 204 260 308 374
#     4  11  23  37  62  96 125 163 202 257 309 370
#     4  10  22  38  60  88 124 160 192 258 304 366
#
# _framework density 21.374234999999999
#
# number of rings (size 3 to 8) (size 9 to 14) (size 15 to 20)
#    0.000    1.538    1.538    2.308    8.615    3.077 
#    0.000    0.000    0.000    0.000    0.000    0.000 
#    0.000    0.000    0.000    0.000    0.000    0.000 
#
# Total GULP energy -290082.924619 kJ/mol
# GULP energy per Si atom -5578.517781 kJ/mol
# Density = 2.132559 g / cm^3
# Si number density = 21.374235 Si / 1000 Ang^3
#
#
#
# Elastic Constant Matrix: (Units=GPa)
#
#
# Indices 1 2 3 4 5 6 
#
# 1 68.2107 -14.5007 19.8940 0.0000 0.0000 0.0000
# 2 -14.5007 21.7657 -15.4198 0.0000 0.0000 0.0000
# 3 19.8940 -15.4198 73.3660 0.0000 0.0000 0.0000
# 4 0.0000 0.0000 0.0000 17.4234 0.0000 0.0000
# 5 0.0000 0.0000 0.0000 0.0000 31.5104 0.0000
# 6 0.0000 0.0000 0.0000 0.0000 0.0000 14.7175
#
#
#
# Elastic Compliance Matrix: (Units=1/GPa)
#
#
# Indices 1 2 3 4 5 6 
#
# 1 0.017523 0.009761 -0.002700 0.000000 0.000000 0.000000
# 2 0.009761 0.059419 0.009842 0.000000 0.000000 0.000000
# 3 -0.002700 0.009842 0.016431 0.000000 0.000000 0.000000
# 4 0.000000 0.000000 0.000000 0.057394 0.000000 0.000000
# 5 0.000000 0.000000 0.000000 0.000000 0.031736 0.000000
# 6 0.000000 0.000000 0.000000 0.000000 0.000000 0.067946
#
#
# Mechanical properties :
#
#
# Convention : Reuss Voigt Hill
#
# Bulk Modulus (GPa) = 7.86292 15.92106 11.89199
# Shear Modulus (GPa) = 19.30234 24.28820 21.79527
#
# Velocity S-wave (km/s) = 3.00837 3.37461 3.19674
# Velocity P-wave (km/s) = 3.96909 4.75908 4.38193
#
# Compressibility (1/GPa) = 0.12717921
#
# Stress axis : x y z
#
# Youngs Moduli (GPa) = 57.06765 16.82957 60.86098
#
# Poissons Ratio (x) = -0.16428 0.16432
# Poissons Ratio (y) = -0.55706 -0.59897
# Poissons Ratio (z) = 0.15408 -0.16563
#
# Static dielectric constant tensor:
#      x y z
#    x 1.793210 0.000000 0.000000 
#    y 0.000000 1.838380 0.000000 
#    z 0.000000 0.000000 1.727870 
# 
# From -- ./inp_files/24891.got.cif
#   From: 2010.05.17/outbox.cif.g08.bks.cpg/sg52_13_cif.got.tgz:24891.got - 2010.06.03 12:15:38.
