data_PCOD9411241
_publ_section_title
;
Structure prediction by ZEFSAII (Michael W. Deem and Ramdas Pophale) SiO2 
 PCOD9411241
Probable space group: P N N A
;
_chemical_formula_sum "Si O2"
_cell_formula_units_Z 36
_cell_length_a 12.738836
_cell_length_b 21.876484
_cell_length_c 5.918250
_cell_angle_alpha 90.000000
_cell_angle_beta 90.000000
_cell_angle_gamma 90.000000
_cell_volume 1649.303485
_symmetry_space_group_name_H-M "P N N A"
_symmetry_group_IT_number 52
_symmetry_cell_setting 'orthorhombic'
loop_
_space_group_symop_operation_xyz
x,y,z
1/2-x,-y,z
x,1/2-y,1/2-z
1/2-x,1/2+y,1/2-z
-x,-y,-z
1/2+x,y,-z
-x,1/2+y,1/2+z
1/2+x,1/2-y,1/2+z
loop_
_atom_site_type_symbol
_atom_site_label
_atom_site_fract_x
_atom_site_fract_y
_atom_site_fract_z
Si Si1 0.357188 0.750000 0.750000
Si Si2 0.883593 0.639499 0.554171
Si Si3 0.706519 0.808531 0.625136
Si Si4 0.445939 0.093325 0.586179
Si Si5 0.077611 0.024817 0.803736
O O1 0.414033 0.696048 0.609937
O O2 0.282868 0.784312 0.571322
O O3 0.782402 0.659436 0.694511
O O4 0.855521 0.577942 0.418314
O O5 0.977511 0.622805 0.725973
O O6 0.657404 0.750000 0.750000
O O7 0.624347 0.854913 0.522730
O O8 0.514620 0.060872 0.391594
O O9 0.379384 0.037394 0.694612
O O10 0.000000 0.000000 0.000000
#
# Coordination Sequence:
#
# PCOD9411241 Si02
#       5
#     4   8   8   8   8
#     4  10  22  44  58  90 136 164 216 272 326 400
#     4  10  21  41  65  93 130 173 213 274 329 389
#     4  10  23  43  62  96 133 165 222 270 330 405
#     4  10  21  43  66  96 129 171 222 271 328 395
#     4   9  20  40  64  92 129 166 217 267 325 395
#
# _framework density 21.827394999999999
#
# number of rings (size 3 to 8) (size 9 to 14) (size 15 to 20)
#    0.000    2.222    0.000    1.333    0.000    7.111 
#   26.000   26.667    0.000    0.000    0.000    0.000 
#    0.000    0.000    0.000    0.000    0.000    0.000 
#
# Total GULP energy -201133.155304 kJ/mol
# GULP energy per Si atom -5587.032092 kJ/mol
# Density = 2.177772 g / cm^3
# Si number density = 21.827395 Si / 1000 Ang^3
#
#
#
# Elastic Constant Matrix: (Units=GPa)
#
#
# Indices 1 2 3 4 5 6 
#
# 1 55.6082 78.5960 39.6510 0.0000 0.0000 0.0000
# 2 78.5960 224.2047 98.3182 0.0000 0.0000 0.0000
# 3 39.6510 98.3182 129.8591 0.0000 0.0000 0.0000
# 4 0.0000 0.0000 0.0000 73.3103 0.0000 0.0000
# 5 0.0000 0.0000 0.0000 0.0000 6.8902 0.0000
# 6 0.0000 0.0000 0.0000 0.0000 0.0000 96.4964
#
#
#
# Elastic Compliance Matrix: (Units=1/GPa)
#
#
# Indices 1 2 3 4 5 6 
#
# 1 0.036041 -0.011690 -0.002154 0.000000 0.000000 0.000000
# 2 -0.011690 0.010469 -0.004357 0.000000 0.000000 0.000000
# 3 -0.002154 -0.004357 0.011657 0.000000 0.000000 0.000000
# 4 0.000000 0.000000 0.000000 0.013641 0.000000 0.000000
# 5 0.000000 0.000000 0.000000 0.000000 0.145135 0.000000
# 6 0.000000 0.000000 0.000000 0.000000 0.000000 0.010363
#
#
# Mechanical properties :
#
#
# Convention : Reuss Voigt Hill
#
# Bulk Modulus (GPa) = 45.94446 93.64470 69.79458
# Shear Modulus (GPa) = 18.45284 48.21315 33.33300
#
# Velocity S-wave (km/s) = 2.91073 4.70492 3.91207
# Velocity P-wave (km/s) = 5.69132 8.51532 7.24230
#
# Compressibility (1/GPa) = 0.02176541
#
# Stress axis : x y z
#
# Youngs Moduli (GPa) = 27.74607 95.52455 85.78639
#
# Poissons Ratio (x) = 1.11665 0.18481
# Poissons Ratio (y) = 0.32434 0.37373
# Poissons Ratio (z) = 0.05977 0.41616
#
# Static dielectric constant tensor:
#      x y z
#    x 1.778830 0.000000 0.000000 
#    y 0.000000 1.814160 0.000000 
#    z 0.000000 0.000000 1.814810 
# 
# From -- ./inp_files/2128.got.cif
#   From: 2010.05.17/outbox.cif.g08.bks.cpg/sg52_2_cif.got.tgz:2128.got - 2010.06.03 12:15:38.
