data_PCOD9411114
_publ_section_title
;
Structure prediction by ZEFSAII (Michael W. Deem and Ramdas Pophale) SiO2 
 PCOD9411114
Probable space group: P N N A
;
_chemical_formula_sum "Si O2"
_cell_formula_units_Z 52
_cell_length_a 5.297693
_cell_length_b 21.321829
_cell_length_c 19.565104
_cell_angle_alpha 90.000000
_cell_angle_beta 90.000000
_cell_angle_gamma 90.000000
_cell_volume 2210.005753
_symmetry_space_group_name_H-M "P N N A"
_symmetry_group_IT_number 52
_symmetry_cell_setting 'orthorhombic'
loop_
_space_group_symop_operation_xyz
x,y,z
1/2-x,-y,z
x,1/2-y,1/2-z
1/2-x,1/2+y,1/2-z
-x,-y,-z
1/2+x,y,-z
-x,1/2+y,1/2+z
1/2+x,1/2-y,1/2+z
loop_
_atom_site_type_symbol
_atom_site_label
_atom_site_fract_x
_atom_site_fract_y
_atom_site_fract_z
Si Si1 0.670725 0.633684 0.463200
Si Si2 0.461205 0.826214 0.170249
Si Si3 0.442189 0.892746 0.663796
Si Si4 0.250000 0.000000 0.923013
Si Si5 0.357730 0.431662 0.025563
Si Si6 0.916618 0.441421 0.695653
Si Si7 0.958816 0.684061 0.828137
O O1 0.416873 0.657396 0.498699
O O2 0.667225 0.650064 0.383298
O O3 0.650221 0.558150 0.466158
O O4 0.247212 0.880474 0.173176
O O5 0.408591 0.754857 0.147473
O O6 0.539939 0.817183 0.248231
O O7 0.532417 0.937232 0.602074
O O8 0.412071 0.923905 0.738648
O O9 0.194069 0.854529 0.641651
O O10 0.688149 0.848899 0.669965
O O11 0.048381 0.030326 0.871070
O O12 0.250000 0.500000 0.003059
O O13 0.583650 0.398854 0.983232
O O14 0.750000 0.500000 0.721719
#
# Coordination Sequence:
#
# PCOD9411114 Si02
#       7
#     8   8   8   4   8   8   8
#     4  12  26  42  65  93 134 178 218 268 322 405
#     4  10  23  47  66  95 133 172 230 272 345 405
#     4  11  23  41  65 102 129 168 228 276 345 397
#     4  12  24  42  64  98 134 180 222 270 348 404
#     4  10  21  40  63  92 133 178 211 260 333 417
#     4  11  23  41  68 104 134 173 219 301 347 403
#     4  10  24  43  72  94 127 175 220 292 334 393
#
# _framework density 23.529349
#
# number of rings (size 3 to 8) (size 9 to 14) (size 15 to 20)
#    0.000    1.231    1.538    3.692    2.154    8.615 
#    4.154    4.615    0.000    0.000    0.000    0.000 
#    0.000    0.000    0.000    0.000    0.000    0.000 
#
# Total GULP energy -290150.006588 kJ/mol
# GULP energy per Si atom -5579.807819 kJ/mol
# Density = 2.347580 g / cm^3
# Si number density = 23.529349 Si / 1000 Ang^3
#
#
#
# Elastic Constant Matrix: (Units=GPa)
#
#
# Indices 1 2 3 4 5 6 
#
# 1 123.3461 25.5033 26.0355 0.0000 0.0000 0.0000
# 2 25.5033 71.9136 -4.1035 0.0000 0.0000 0.0000
# 3 26.0355 -4.1035 64.9676 0.0000 0.0000 0.0000
# 4 0.0000 0.0000 0.0000 18.3585 0.0000 0.0000
# 5 0.0000 0.0000 0.0000 0.0000 36.4171 0.0000
# 6 0.0000 0.0000 0.0000 0.0000 0.0000 14.6955
#
#
#
# Elastic Compliance Matrix: (Units=1/GPa)
#
#
# Indices 1 2 3 4 5 6 
#
# 1 0.009744 -0.003692 -0.004138 0.000000 0.000000 0.000000
# 2 -0.003692 0.015355 0.002449 0.000000 0.000000 0.000000
# 3 -0.004138 0.002449 0.017205 0.000000 0.000000 0.000000
# 4 0.000000 0.000000 0.000000 0.054471 0.000000 0.000000
# 5 0.000000 0.000000 0.000000 0.000000 0.027460 0.000000
# 6 0.000000 0.000000 0.000000 0.000000 0.000000 0.068048
#
#
# Mechanical properties :
#
#
# Convention : Reuss Voigt Hill
#
# Bulk Modulus (GPa) = 31.70290 39.45534 35.57912
# Shear Modulus (GPa) = 23.41290 28.08036 25.74663
#
# Velocity S-wave (km/s) = 3.15787 3.45834 3.31151
# Velocity P-wave (km/s) = 5.17679 5.72292 5.45669
#
# Compressibility (1/GPa) = 0.03154285
#
# Stress axis : x y z
#
# Youngs Moduli (GPa) = 102.62700 65.12725 58.12164
#
# Poissons Ratio (x) = 0.24043 0.24051
# Poissons Ratio (y) = 0.37887 -0.14236
# Poissons Ratio (z) = 0.42468 -0.15951
#
# Static dielectric constant tensor:
#      x y z
#    x 2.113750 0.000000 0.000000 
#    y 0.000000 1.972400 0.000000 
#    z 0.000000 0.000000 1.898430 
# 
# From -- ./inp_files/35196.got.cif
#   From: 2010.05.17/outbox.cif.g08.bks.cpg/sg52_18_cif.got.tgz:35196.got - 2010.06.03 12:15:38.
