data_PCOD9411550
_publ_section_title
;
Structure prediction by ZEFSAII (Michael W. Deem and Ramdas Pophale) SiO2 
 PCOD9411550
Probable space group: P N N A
;
_chemical_formula_sum "Si O2"
_cell_formula_units_Z 36
_cell_length_a 15.716937
_cell_length_b 5.244587
_cell_length_c 21.385807
_cell_angle_alpha 90.000000
_cell_angle_beta 90.000000
_cell_angle_gamma 90.000000
_cell_volume 1762.807338
_symmetry_space_group_name_H-M "P N N A"
_symmetry_group_IT_number 52
_symmetry_cell_setting 'orthorhombic'
loop_
_space_group_symop_operation_xyz
x,y,z
1/2-x,-y,z
x,1/2-y,1/2-z
1/2-x,1/2+y,1/2-z
-x,-y,-z
1/2+x,y,-z
-x,1/2+y,1/2+z
1/2+x,1/2-y,1/2+z
loop_
_atom_site_type_symbol
_atom_site_label
_atom_site_fract_x
_atom_site_fract_y
_atom_site_fract_z
Si Si1 0.807914 0.252020 0.966261
Si Si2 0.328423 0.368283 0.810622
Si Si3 0.561665 0.739062 0.419158
Si Si4 0.534863 0.250000 0.250000
Si Si5 0.539273 0.740778 0.616213
O O1 0.750000 0.500000 0.972074
O O2 0.862708 0.262887 0.902584
O O3 0.750000 0.000000 0.970409
O O4 0.878885 0.258336 0.020786
O O5 0.250000 0.500000 0.845993
O O6 0.284448 0.250000 0.750000
O O7 0.375782 0.191311 0.859840
O O8 0.401862 0.537866 0.778662
O O9 0.498938 0.500961 0.420657
O O10 0.511059 0.002442 0.405242
O O11 0.477905 0.314107 0.310450
#
# Coordination Sequence:
#
# PCOD9411550 Si02
#       5
#     8   8   8   4   8
#     4  12  25  43  64  93 123 160 209 266 308 353
#     4  11  20  33  55  88 128 158 198 241 306 366
#     4  11  23  40  64  91 125 167 201 247 309 379
#     4  10  22  38  58  88 122 168 204 248 296 374
#     4  11  23  42  66  90 124 164 209 249 307 371
#
# _framework density 20.421972
#
# number of rings (size 3 to 8) (size 9 to 14) (size 15 to 20)
#    0.000    0.889    3.333    4.667    0.000    2.667 
#    0.000    1.111    0.000    0.000    0.000    0.000 
#    0.000    0.000    0.000    0.000    0.000    0.000 
#
# Total GULP energy -201020.616261 kJ/mol
# GULP energy per Si atom -5583.906007 kJ/mol
# Density = 2.037549 g / cm^3
# Si number density = 20.421972 Si / 1000 Ang^3
#
#
#
# Elastic Constant Matrix: (Units=GPa)
#
#
# Indices 1 2 3 4 5 6 
#
# 1 75.4566 44.5003 43.6138 0.0000 0.0000 0.0000
# 2 44.5003 125.6992 20.4189 0.0000 0.0000 0.0000
# 3 43.6138 20.4189 101.9895 0.0000 0.0000 0.0000
# 4 0.0000 0.0000 0.0000 10.7291 0.0000 0.0000
# 5 0.0000 0.0000 0.0000 0.0000 26.9869 0.0000
# 6 0.0000 0.0000 0.0000 0.0000 0.0000 13.9479
#
#
#
# Elastic Compliance Matrix: (Units=1/GPa)
#
#
# Indices 1 2 3 4 5 6 
#
# 1 0.021605 -0.006355 -0.007967 0.000000 0.000000 0.000000
# 2 -0.006355 0.010092 0.000697 0.000000 0.000000 0.000000
# 3 -0.007967 0.000697 0.013072 0.000000 0.000000 0.000000
# 4 0.000000 0.000000 0.000000 0.093204 0.000000 0.000000
# 5 0.000000 0.000000 0.000000 0.000000 0.037055 0.000000
# 6 0.000000 0.000000 0.000000 0.000000 0.000000 0.071695
#
#
# Mechanical properties :
#
#
# Convention : Reuss Voigt Hill
#
# Bulk Modulus (GPa) = 57.07607 57.80125 57.43866
# Shear Modulus (GPa) = 17.86911 23.30694 20.58803
#
# Velocity S-wave (km/s) = 2.96124 3.38193 3.17855
# Velocity P-wave (km/s) = 6.30087 6.60415 6.45429
#
# Compressibility (1/GPa) = 0.01752048
#
# Stress axis : x y z
#
# Youngs Moduli (GPa) = 46.28563 99.08908 76.49807
#
# Poissons Ratio (x) = 0.62966 0.60944
# Poissons Ratio (y) = 0.29412 -0.05331
# Poissons Ratio (z) = 0.36875 -0.06906
#
# Static dielectric constant tensor:
#      x y z
#    x 1.745050 0.000000 0.000000 
#    y 0.000000 3.438750 0.000000 
#    z 0.000000 0.000000 1.757550 
# 
# From -- ./inp_files/37043.got.cif
#   From: 2010.05.17/outbox.cif.g08.bks.cpg/sg52_19_cif.got.tgz:37043.got - 2010.06.03 12:15:38.
