data_PCOD9411095
_publ_section_title
;
Structure prediction by ZEFSAII (Michael W. Deem and Ramdas Pophale) SiO2 
 PCOD9411095
Probable space group: P N N A
;
_chemical_formula_sum "Si O2"
_cell_formula_units_Z 40
_cell_length_a 9.256810
_cell_length_b 8.699120
_cell_length_c 22.549188
_cell_angle_alpha 90.000000
_cell_angle_beta 90.000000
_cell_angle_gamma 90.000000
_cell_volume 1815.798191
_symmetry_space_group_name_H-M "P N N A"
_symmetry_group_IT_number 52
_symmetry_cell_setting 'orthorhombic'
loop_
_space_group_symop_operation_xyz
x,y,z
1/2-x,-y,z
x,1/2-y,1/2-z
1/2-x,1/2+y,1/2-z
-x,-y,-z
1/2+x,y,-z
-x,1/2+y,1/2+z
1/2+x,1/2-y,1/2+z
loop_
_atom_site_type_symbol
_atom_site_label
_atom_site_fract_x
_atom_site_fract_y
_atom_site_fract_z
Si Si1 0.913135 0.258585 0.526131
Si Si2 0.746564 0.816793 0.188518
Si Si3 0.750000 0.000000 0.603476
Si Si4 0.250000 0.000000 0.102543
Si Si5 0.713777 0.320561 0.068912
Si Si6 0.908313 0.755603 0.680927
O O1 0.863908 0.409910 0.561065
O O2 0.851789 0.261506 0.459867
O O3 0.081008 0.219727 0.526254
O O4 0.835637 0.118505 0.561497
O O5 0.804821 0.750000 0.250000
O O6 0.827804 0.747648 0.132284
O O7 0.581100 0.761235 0.181592
O O8 0.750000 0.000000 0.189112
O O9 0.858866 0.908105 0.646327
O O10 0.334704 0.881539 0.144333
O O11 0.750000 0.500000 0.073201
O O12 0.861365 0.750000 0.750000
#
# Coordination Sequence:
#
# PCOD9411095 Si02
#       6
#     8   8   4   4   8   8
#     4  11  25  40  64  96 131 173 214 273 332 398
#     4  11  25  44  67  95 131 174 223 275 335 399
#     4  10  21  40  62  92 131 166 220 266 328 394
#     4  10  23  40  62  96 135 164 222 270 340 394
#     4  12  25  42  67  97 132 175 220 273 332 399
#     4  10  21  40  65  93 127 175 219 273 326 393
#
# _framework density 22.028877999999999
#
# number of rings (size 3 to 8) (size 9 to 14) (size 15 to 20)
#    0.000    1.200    1.000    4.200    7.000    2.400 
#    0.000    5.000    0.000    0.000    0.000    0.000 
#    0.000    0.000    0.000    0.000    0.000    0.000 
#
# Total GULP energy -224049.782725 kJ/mol
# GULP energy per Si atom -5601.244568 kJ/mol
# Density = 2.197874 g / cm^3
# Si number density = 22.028878 Si / 1000 Ang^3
#
#
#
# Elastic Constant Matrix: (Units=GPa)
#
#
# Indices 1 2 3 4 5 6 
#
# 1 52.5112 5.3296 -3.0651 0.0000 0.0000 0.0000
# 2 5.3296 98.5444 21.8947 0.0000 0.0000 0.0000
# 3 -3.0651 21.8947 117.9671 0.0000 0.0000 0.0000
# 4 0.0000 0.0000 0.0000 14.9949 0.0000 0.0000
# 5 0.0000 0.0000 0.0000 0.0000 31.5125 0.0000
# 6 0.0000 0.0000 0.0000 0.0000 0.0000 23.9449
#
#
#
# Elastic Compliance Matrix: (Units=1/GPa)
#
#
# Indices 1 2 3 4 5 6 
#
# 1 0.019207 -0.001199 0.000722 0.000000 0.000000 0.000000
# 2 -0.001199 0.010659 -0.002009 0.000000 0.000000 0.000000
# 3 0.000722 -0.002009 0.008869 0.000000 0.000000 0.000000
# 4 0.000000 0.000000 0.000000 0.066689 0.000000 0.000000
# 5 0.000000 0.000000 0.000000 0.000000 0.031733 0.000000
# 6 0.000000 0.000000 0.000000 0.000000 0.000000 0.041763
#
#
# Mechanical properties :
#
#
# Convention : Reuss Voigt Hill
#
# Bulk Modulus (GPa) = 29.61988 35.26012 32.44000
# Shear Modulus (GPa) = 25.62156 30.41468 28.01812
#
# Velocity S-wave (km/s) = 3.41411 3.71977 3.57021
# Velocity P-wave (km/s) = 5.38671 5.87282 5.63501
#
# Compressibility (1/GPa) = 0.03376111
#
# Stress axis : x y z
#
# Youngs Moduli (GPa) = 52.06328 93.81721 112.75681
#
# Poissons Ratio (x) = 0.11250 -0.08137
# Poissons Ratio (y) = 0.06243 0.22658
# Poissons Ratio (z) = -0.03757 0.18852
#
# Static dielectric constant tensor:
#      x y z
#    x 1.785610 0.000000 0.000000 
#    y 0.000000 1.779280 0.000000 
#    z 0.000000 0.000000 1.815050 
# 
# From -- ./inp_files/39278.got.cif
#   From: 2010.05.17/outbox.cif.g08.bks.cpg/sg52_20_cif.got.tgz:39278.got - 2010.06.03 12:15:38.
