data_PCOD9411570
_publ_section_title
;
Structure prediction by ZEFSAII (Michael W. Deem and Ramdas Pophale) SiO2 
 PCOD9411570
Probable space group: P N N A
;
_chemical_formula_sum "Si O2"
_cell_formula_units_Z 32
_cell_length_a 5.402049
_cell_length_b 11.706605
_cell_length_c 17.562733
_cell_angle_alpha 90.000000
_cell_angle_beta 90.000000
_cell_angle_gamma 90.000000
_cell_volume 1110.661155
_symmetry_space_group_name_H-M "P N N A"
_symmetry_group_IT_number 52
_symmetry_cell_setting 'orthorhombic'
loop_
_space_group_symop_operation_xyz
x,y,z
1/2-x,-y,z
x,1/2-y,1/2-z
1/2-x,1/2+y,1/2-z
-x,-y,-z
1/2+x,y,-z
-x,1/2+y,1/2+z
1/2+x,1/2-y,1/2+z
loop_
_atom_site_type_symbol
_atom_site_label
_atom_site_fract_x
_atom_site_fract_y
_atom_site_fract_z
Si Si1 0.128134 0.299522 0.677796
Si Si2 0.508244 0.070680 0.723309
Si Si3 0.355473 0.376585 0.931374
Si Si4 0.395341 0.150934 0.032641
O O1 0.983265 0.250000 0.750000
O O2 0.390571 0.347704 0.710008
O O3 0.174082 0.191065 0.625174
O O4 0.979392 0.373835 0.618573
O O5 0.564783 0.108323 0.635026
O O6 0.250000 0.000000 0.713935
O O7 0.750000 0.000000 0.746745
O O8 0.250000 0.500000 0.957128
O O9 0.388767 0.284098 0.998596
O O10 0.121628 0.107166 0.018259
#
# Coordination Sequence:
#
# PCOD9411570 Si02
#       4
#     8   8   8   8
#     4   9  20  40  64  94 130 173 218 269 330 396
#     4  10  22  40  65  93 126 172 224 274 324 386
#     4   9  20  39  64  97 133 169 214 269 336 404
#     4  10  22  38  60  91 130 169 210 260 324 394
#
# _framework density 28.811665999999999
#
# number of rings (size 3 to 8) (size 9 to 14) (size 15 to 20)
#    0.000    2.500    0.000    0.000    0.000   18.000 
#    0.000   17.500    0.000   22.500    0.000    0.000 
#    0.000    0.000    0.000    0.000    0.000    0.000 
#
# Total GULP energy -178187.188648 kJ/mol
# GULP energy per Si atom -5568.349645 kJ/mol
# Density = 2.874609 g / cm^3
# Si number density = 28.811666 Si / 1000 Ang^3
#
#
#
# Elastic Constant Matrix: (Units=GPa)
#
#
# Indices 1 2 3 4 5 6 
#
# 1 172.0690 36.7046 59.0114 0.0000 0.0000 0.0000
# 2 36.7046 120.0023 26.8949 0.0000 0.0000 0.0000
# 3 59.0114 26.8949 202.9963 0.0000 0.0000 0.0000
# 4 0.0000 0.0000 0.0000 42.7050 0.0000 0.0000
# 5 0.0000 0.0000 0.0000 0.0000 54.3469 0.0000
# 6 0.0000 0.0000 0.0000 0.0000 0.0000 37.8115
#
#
#
# Elastic Compliance Matrix: (Units=1/GPa)
#
#
# Indices 1 2 3 4 5 6 
#
# 1 0.006768 -0.001679 -0.001745 0.000000 0.000000 0.000000
# 2 -0.001679 0.009005 -0.000705 0.000000 0.000000 0.000000
# 3 -0.001745 -0.000705 0.005527 0.000000 0.000000 0.000000
# 4 0.000000 0.000000 0.000000 0.023416 0.000000 0.000000
# 5 0.000000 0.000000 0.000000 0.000000 0.018400 0.000000
# 6 0.000000 0.000000 0.000000 0.000000 0.000000 0.026447
#
#
# Mechanical properties :
#
#
# Convention : Reuss Voigt Hill
#
# Bulk Modulus (GPa) = 76.67698 82.25438 79.46568
# Shear Modulus (GPa) = 48.93849 51.80313 50.37081
#
# Velocity S-wave (km/s) = 4.12584 4.24487 4.18578
# Velocity P-wave (km/s) = 7.02621 7.25508 7.14156
#
# Compressibility (1/GPa) = 0.01304172
#
# Stress axis : x y z
#
# Youngs Moduli (GPa) = 147.74820 111.05275 180.93348
#
# Poissons Ratio (x) = 0.18647 0.31574
# Poissons Ratio (y) = 0.24808 0.12754
# Poissons Ratio (z) = 0.25783 0.07828
#
# Static dielectric constant tensor:
#      x y z
#    x 2.342720 0.000000 0.000000 
#    y 0.000000 2.043270 0.000000 
#    z 0.000000 0.000000 2.414540 
# 
# From -- ./inp_files/34899.got.cif
#   From: 2010.05.17/outbox.cif.g08.bks.cpg/sg52_18_cif.got.tgz:34899.got - 2010.06.03 12:15:38.
