data_PCOD9411862
_publ_section_title
;
Structure prediction by ZEFSAII (Michael W. Deem and Ramdas Pophale) SiO2 
 PCOD9411862
Probable space group: P N N A
;
_chemical_formula_sum "Si O2"
_cell_formula_units_Z 56
_cell_length_a 15.815801
_cell_length_b 12.467555
_cell_length_c 13.601348
_cell_angle_alpha 90.000000
_cell_angle_beta 90.000000
_cell_angle_gamma 90.000000
_cell_volume 2681.973221
_symmetry_space_group_name_H-M "P N N A"
_symmetry_group_IT_number 52
_symmetry_cell_setting 'orthorhombic'
loop_
_space_group_symop_operation_xyz
x,y,z
1/2-x,-y,z
x,1/2-y,1/2-z
1/2-x,1/2+y,1/2-z
-x,-y,-z
1/2+x,y,-z
-x,1/2+y,1/2+z
1/2+x,1/2-y,1/2+z
loop_
_atom_site_type_symbol
_atom_site_label
_atom_site_fract_x
_atom_site_fract_y
_atom_site_fract_z
Si Si1 0.961916 0.939046 0.593145
Si Si2 0.381680 0.048870 0.230614
Si Si3 0.359699 0.753459 0.508163
Si Si4 0.105764 0.878667 0.747856
Si Si5 0.065798 0.426490 0.651867
Si Si6 0.791611 0.862040 0.303700
Si Si7 0.711526 0.161733 0.824852
O O1 0.921631 0.827925 0.555797
O O2 0.035400 0.914979 0.670709
O O3 0.898290 0.014863 0.656055
O O4 0.000000 0.000000 0.500000
O O5 0.468220 0.088802 0.180909
O O6 0.303409 0.127818 0.214374
O O7 0.350438 0.939682 0.178895
O O8 0.404683 0.653838 0.565423
O O9 0.317442 0.833781 0.586231
O O10 0.289925 0.705961 0.434715
O O11 0.099345 0.750000 0.750000
O O12 0.198867 0.913222 0.708850
O O13 0.085350 0.944477 0.849368
O O14 0.125305 0.397211 0.744318
O O15 0.773639 0.750000 0.250000
O O16 0.677097 0.250000 0.750000
#
# Coordination Sequence:
#
# PCOD9411862 Si02
#       7
#     8   8   8   8   8   8   8
#     4  11  24  42  69 102 132 176 235 284 345 422
#     4  10  24  44  64  96 137 180 227 284 354 404
#     4  11  23  40  69  98 136 180 233 283 342 420
#     4  10  22  41  66  92 134 175 215 279 358 402
#     4  10  22  41  70  97 134 175 229 293 349 409
#     4   9  20  41  62  98 131 167 215 287 346 396
#     4  11  24  45  66  93 139 188 223 282 350 424
#
# _framework density 20.88015
#
# number of rings (size 3 to 8) (size 9 to 14) (size 15 to 20)
#    0.000    1.714    1.429    2.143    4.000    5.714 
#   15.429    0.000    0.000    0.000    0.000    0.000 
#    0.000    0.000    0.000    0.000    0.000    0.000 
#
# Total GULP energy -312263.041632 kJ/mol
# GULP energy per Si atom -5576.125743 kJ/mol
# Density = 2.083263 g / cm^3
# Si number density = 20.880150 Si / 1000 Ang^3
#
#
#
# Elastic Constant Matrix: (Units=GPa)
#
#
# Indices 1 2 3 4 5 6 
#
# 1 126.6146 36.7236 55.1067 0.0000 0.0000 0.0000
# 2 36.7236 81.5256 38.7745 0.0000 0.0000 0.0000
# 3 55.1067 38.7745 94.2733 0.0000 0.0000 0.0000
# 4 0.0000 0.0000 0.0000 18.8369 0.0000 0.0000
# 5 0.0000 0.0000 0.0000 0.0000 -3.6512 0.0000
# 6 0.0000 0.0000 0.0000 0.0000 0.0000 17.0255
#
#
#
# Elastic Compliance Matrix: (Units=1/GPa)
#
#
# Indices 1 2 3 4 5 6 
#
# 1 0.010942 -0.002346 -0.005431 0.000000 0.000000 0.000000
# 2 -0.002346 0.015752 -0.005108 0.000000 0.000000 0.000000
# 3 -0.005431 -0.005108 0.015883 0.000000 0.000000 0.000000
# 4 0.000000 0.000000 0.000000 0.053087 0.000000 0.000000
# 5 0.000000 0.000000 0.000000 0.000000 -0.273886 0.000000
# 6 0.000000 0.000000 0.000000 0.000000 0.000000 0.058735
#
#
# Mechanical properties :
#
#
# Convention : Reuss Voigt Hill
#
# Bulk Modulus (GPa) = 59.49605 62.62479 61.06042
# Shear Modulus (GPa) = -56.74470 17.89616 -19.42427
#
# Velocity S-wave (km/s) = -5.21875 2.93079 -3.05335
# Velocity P-wave (km/s) = 2.78530 6.44285 4.10806
#
# Compressibility (1/GPa) = 0.01680784
#
# Stress axis : x y z
#
# Youngs Moduli (GPa) = 91.38863 63.48421 62.96012
#
# Poissons Ratio (x) = 0.14892 0.34196
# Poissons Ratio (y) = 0.21438 0.32157
# Poissons Ratio (z) = 0.49637 0.32425
#
# Static dielectric constant tensor:
#      x y z
#    x 1.748330 0.000000 0.000000 
#    y 0.000000 1.824490 0.000000 
#    z 0.000000 0.000000 1.687060 
# 
# From -- ./inp_files/19638.got.cif
#   From: 2010.05.17/outbox.cif.g08.bks.cpg/sg52_10_cif.got.tgz:19638.got - 2010.06.03 12:15:38.
