data_PCOD9411077
_publ_section_title
;
Structure prediction by ZEFSAII (Michael W. Deem and Ramdas Pophale) SiO2 
 PCOD9411077
Probable space group: P N N A
;
_chemical_formula_sum "Si O2"
_cell_formula_units_Z 36
_cell_length_a 11.627793
_cell_length_b 5.479177
_cell_length_c 23.159735
_cell_angle_alpha 90.000000
_cell_angle_beta 90.000000
_cell_angle_gamma 90.000000
_cell_volume 1475.523762
_symmetry_space_group_name_H-M "P N N A"
_symmetry_group_IT_number 52
_symmetry_cell_setting 'orthorhombic'
loop_
_space_group_symop_operation_xyz
x,y,z
1/2-x,-y,z
x,1/2-y,1/2-z
1/2-x,1/2+y,1/2-z
-x,-y,-z
1/2+x,y,-z
-x,1/2+y,1/2+z
1/2+x,1/2-y,1/2+z
loop_
_atom_site_type_symbol
_atom_site_label
_atom_site_fract_x
_atom_site_fract_y
_atom_site_fract_z
Si Si1 0.123474 0.503240 0.713337
Si Si2 0.620733 0.458229 0.071582
Si Si3 0.081545 0.293232 0.454296
Si Si4 0.250000 0.500000 0.130158
Si Si5 0.941417 0.326307 0.636736
O O1 0.250000 0.500000 0.682984
O O2 0.126821 0.750000 0.750000
O O3 0.008366 0.521309 0.674910
O O4 0.113608 0.250000 0.750000
O O5 0.750000 0.500000 0.089324
O O6 0.549288 0.692883 0.049358
O O7 0.544533 0.359552 0.123649
O O8 0.622169 0.264093 0.018739
O O9 0.091258 0.557676 0.425400
O O10 0.160243 0.133041 0.411875
O O11 0.170746 0.697057 0.162356
#
# Coordination Sequence:
#
# PCOD9411077 Si02
#       5
#     8   8   8   4   8
#     4  10  25  47  75 107 140 173 225 303 377 428
#     4  10  22  37  61  99 140 178 231 280 337 413
#     4  10  21  40  60  94 139 184 223 277 338 405
#     4  10  22  42  64  92 136 184 224 278 338 410
#     4  11  24  40  72  95 133 183 234 282 350 426
#
# _framework density 24.398115000000001
#
# number of rings (size 3 to 8) (size 9 to 14) (size 15 to 20)
#    0.000    1.778    1.111    1.333    9.333    0.889 
#    4.000    0.000    4.889    0.000    0.000    0.000 
#    0.000    0.000    0.000    0.000    0.000    0.000 
#
# Total GULP energy -201162.039852 kJ/mol
# GULP energy per Si atom -5587.834440 kJ/mol
# Density = 2.434258 g / cm^3
# Si number density = 24.398115 Si / 1000 Ang^3
#
#
#
# Elastic Constant Matrix: (Units=GPa)
#
#
# Indices 1 2 3 4 5 6 
#
# 1 176.5123 41.1187 17.8786 0.0000 0.0000 0.0000
# 2 41.1187 91.3975 11.3942 0.0000 0.0000 0.0000
# 3 17.8786 11.3942 33.8438 0.0000 0.0000 0.0000
# 4 0.0000 0.0000 0.0000 25.1147 0.0000 0.0000
# 5 0.0000 0.0000 0.0000 0.0000 16.7114 0.0000
# 6 0.0000 0.0000 0.0000 0.0000 0.0000 36.2319
#
#
#
# Elastic Compliance Matrix: (Units=1/GPa)
#
#
# Indices 1 2 3 4 5 6 
#
# 1 0.006536 -0.002620 -0.002571 0.000000 0.000000 0.000000
# 2 -0.002620 0.012471 -0.002814 0.000000 0.000000 0.000000
# 3 -0.002571 -0.002814 0.031853 0.000000 0.000000 0.000000
# 4 0.000000 0.000000 0.000000 0.039817 0.000000 0.000000
# 5 0.000000 0.000000 0.000000 0.000000 0.059839 0.000000
# 6 0.000000 0.000000 0.000000 0.000000 0.000000 0.027600
#
#
# Mechanical properties :
#
#
# Convention : Reuss Voigt Hill
#
# Bulk Modulus (GPa) = 28.69479 49.17073 38.93276
# Shear Modulus (GPa) = 24.30211 31.03575 27.66893
#
# Velocity S-wave (km/s) = 3.15947 3.57046 3.37123
# Velocity P-wave (km/s) = 5.00962 6.09875 5.58082
#
# Compressibility (1/GPa) = 0.03484953
#
# Stress axis : x y z
#
# Youngs Moduli (GPa) = 152.99775 80.18735 31.39416
#
# Poissons Ratio (x) = 0.21009 0.08071
# Poissons Ratio (y) = 0.40086 0.08836
# Poissons Ratio (z) = 0.39331 0.22568
#
# Static dielectric constant tensor:
#      x y z
#    x 1.955160 0.000000 0.000000 
#    y 0.000000 2.068570 0.000000 
#    z 0.000000 0.000000 1.998120 
# 
# From -- ./inp_files/39908.got.cif
#   From: 2010.05.17/outbox.cif.g08.bks.cpg/sg52_20_cif.got.tgz:39908.got - 2010.06.03 12:15:38.
