data_PCOD9411447
_publ_section_title
;
Structure prediction by ZEFSAII (Michael W. Deem and Ramdas Pophale) SiO2 
 PCOD9411447
Probable space group: P N N A
;
_chemical_formula_sum "Si O2"
_cell_formula_units_Z 32
_cell_length_a 10.593422
_cell_length_b 19.170162
_cell_length_c 6.888268
_cell_angle_alpha 90.000000
_cell_angle_beta 90.000000
_cell_angle_gamma 90.000000
_cell_volume 1398.853043
_symmetry_space_group_name_H-M "P N N A"
_symmetry_group_IT_number 52
_symmetry_cell_setting 'orthorhombic'
loop_
_space_group_symop_operation_xyz
x,y,z
1/2-x,-y,z
x,1/2-y,1/2-z
1/2-x,1/2+y,1/2-z
-x,-y,-z
1/2+x,y,-z
-x,1/2+y,1/2+z
1/2+x,1/2-y,1/2+z
loop_
_atom_site_type_symbol
_atom_site_label
_atom_site_fract_x
_atom_site_fract_y
_atom_site_fract_z
Si Si1 0.889197 0.339104 0.326499
Si Si2 0.124222 0.954648 0.527758
Si Si3 0.870099 0.779153 0.035491
Si Si4 0.825413 0.190208 0.601221
O O1 0.676824 0.291552 0.923928
O O2 0.757986 0.325632 0.442515
O O3 0.885260 0.416887 0.237459
O O4 0.881203 0.298696 0.116096
O O5 0.139351 0.890228 0.372707
O O6 0.250000 0.000000 0.516626
O O7 0.000000 0.000000 0.500000
O O8 0.893057 0.750000 0.250000
O O9 0.983877 0.822197 0.943741
O O10 0.864873 0.250000 0.750000
#
# Coordination Sequence:
#
# PCOD9411447 Si02
#       4
#     8   8   8   8
#     4   9  23  43  77 111 157 206 261 340 394 484
#     4  10  24  47  77 113 163 215 259 328 424 494
#     4  10  21  45  73 112 151 200 274 335 393 462
#     4   9  22  42  79 114 154 199 268 330 406 478
#
# _framework density 22.875885
#
# number of rings (size 3 to 8) (size 9 to 14) (size 15 to 20)
#    1.500    1.000    0.000    0.000    3.500    6.000 
#    4.500    1.250    0.000    0.000    0.000    0.000 
#    0.000    2.000    0.000    0.000    0.000    0.000 
#
# Total GULP energy -178194.093610 kJ/mol
# GULP energy per Si atom -5568.565425 kJ/mol
# Density = 2.282382 g / cm^3
# Si number density = 22.875885 Si / 1000 Ang^3
#
#
#
# Elastic Constant Matrix: (Units=GPa)
#
#
# Indices 1 2 3 4 5 6 
#
# 1 238.5452 104.9467 63.7252 0.0000 0.0000 0.0000
# 2 104.9467 166.5090 60.7218 0.0000 0.0000 0.0000
# 3 63.7252 60.7218 86.9766 0.0000 0.0000 0.0000
# 4 0.0000 0.0000 0.0000 45.5275 0.0000 0.0000
# 5 0.0000 0.0000 0.0000 0.0000 13.3195 0.0000
# 6 0.0000 0.0000 0.0000 0.0000 0.0000 9.1434
#
#
#
# Elastic Compliance Matrix: (Units=1/GPa)
#
#
# Indices 1 2 3 4 5 6 
#
# 1 0.006157 -0.002999 -0.002417 0.000000 0.000000 0.000000
# 2 -0.002999 0.009518 -0.004447 0.000000 0.000000 0.000000
# 3 -0.002417 -0.004447 0.016373 0.000000 0.000000 0.000000
# 4 0.000000 0.000000 0.000000 0.021965 0.000000 0.000000
# 5 0.000000 0.000000 0.000000 0.000000 0.075078 0.000000
# 6 0.000000 0.000000 0.000000 0.000000 0.000000 0.109369
#
#
# Mechanical properties :
#
#
# Convention : Reuss Voigt Hill
#
# Bulk Modulus (GPa) = 81.16494 105.64646 93.40570
# Shear Modulus (GPa) = 19.06251 31.10721 25.08486
#
# Velocity S-wave (km/s) = 2.88983 3.69158 3.31503
# Velocity P-wave (km/s) = 6.83318 8.02827 7.45471
#
# Compressibility (1/GPa) = 0.01232059
#
# Stress axis : x y z
#
# Youngs Moduli (GPa) = 162.40651 105.06525 61.07477
#
# Poissons Ratio (x) = 0.31512 0.14764
# Poissons Ratio (y) = 0.48710 0.27162
# Poissons Ratio (z) = 0.39260 0.46726
#
# Static dielectric constant tensor:
#      x y z
#    x 1.923980 0.000000 0.000000 
#    y 0.000000 2.002470 0.000000 
#    z 0.000000 0.000000 2.039830 
# 
# From -- ./inp_files/18092.got.cif
#   From: 2010.05.17/outbox.cif.g08.bks.cpg/sg52_10_cif.got.tgz:18092.got - 2010.06.03 12:15:38.
