data_PCOD9411391
_publ_section_title
;
Structure prediction by ZEFSAII (Michael W. Deem and Ramdas Pophale) SiO2 
 PCOD9411391
Probable space group: P N N A
;
_chemical_formula_sum "Si O2"
_cell_formula_units_Z 40
_cell_length_a 22.816131
_cell_length_b 9.049614
_cell_length_c 7.946404
_cell_angle_alpha 90.000000
_cell_angle_beta 90.000000
_cell_angle_gamma 90.000000
_cell_volume 1640.751077
_symmetry_space_group_name_H-M "P N N A"
_symmetry_group_IT_number 52
_symmetry_cell_setting 'orthorhombic'
loop_
_space_group_symop_operation_xyz
x,y,z
1/2-x,-y,z
x,1/2-y,1/2-z
1/2-x,1/2+y,1/2-z
-x,-y,-z
1/2+x,y,-z
-x,1/2+y,1/2+z
1/2+x,1/2-y,1/2+z
loop_
_atom_site_type_symbol
_atom_site_label
_atom_site_fract_x
_atom_site_fract_y
_atom_site_fract_z
Si Si1 0.192885 0.439291 0.876897
Si Si2 0.350577 0.421102 0.214220
Si Si3 0.977548 0.923227 0.684753
Si Si4 0.829135 0.663587 0.574897
Si Si5 0.575094 0.397141 0.331131
O O1 0.250000 0.500000 0.785817
O O2 0.132717 0.446532 0.773773
O O3 0.183226 0.539999 0.042849
O O4 0.201506 0.270746 0.941244
O O5 0.357614 0.250000 0.250000
O O6 0.413384 0.502734 0.197243
O O7 0.316863 0.496413 0.371656
O O8 0.976654 0.750000 0.750000
O O9 0.025001 0.985348 0.817212
O O10 0.000000 0.000000 0.500000
O O11 0.824767 0.750000 0.750000
O O12 0.895146 0.654820 0.502237
O O13 0.549369 0.250000 0.250000
#
# Coordination Sequence:
#
# PCOD9411391 Si02
#       5
#     8   8   8   8   8
#     4  10  21  43  69  99 137 183 240 299 358 432
#     4  11  24  42  67 101 143 187 243 292 361 437
#     4  12  26  44  73 107 147 190 243 306 368 448
#     4   9  21  42  67  97 135 183 235 286 361 430
#     4  10  22  42  70  99 138 188 233 297 369 433
#
# _framework density 24.379079999999998
#
# number of rings (size 3 to 8) (size 9 to 14) (size 15 to 20)
#    0.000    1.600    2.000    2.400    5.600    3.200 
#    0.000   13.000    0.000    0.000    0.000    0.000 
#    0.000    0.000    0.000    0.000    0.000    0.000 
#
# Total GULP energy -223026.154521 kJ/mol
# GULP energy per Si atom -5575.653863 kJ/mol
# Density = 2.432359 g / cm^3
# Si number density = 24.379080 Si / 1000 Ang^3
#
#
#
# Elastic Constant Matrix: (Units=GPa)
#
#
# Indices 1 2 3 4 5 6 
#
# 1 127.2364 61.3456 3.8135 0.0000 0.0000 0.0000
# 2 61.3456 194.3909 31.9471 0.0000 0.0000 0.0000
# 3 3.8135 31.9471 93.2809 0.0000 0.0000 0.0000
# 4 0.0000 0.0000 0.0000 22.5504 0.0000 0.0000
# 5 0.0000 0.0000 0.0000 0.0000 5.7295 0.0000
# 6 0.0000 0.0000 0.0000 0.0000 0.0000 36.3174
#
#
#
# Elastic Compliance Matrix: (Units=1/GPa)
#
#
# Indices 1 2 3 4 5 6 
#
# 1 0.009308 -0.003046 0.000663 0.000000 0.000000 0.000000
# 2 -0.003046 0.006448 -0.002084 0.000000 0.000000 0.000000
# 3 0.000663 -0.002084 0.011407 0.000000 0.000000 0.000000
# 4 0.000000 0.000000 0.000000 0.044345 0.000000 0.000000
# 5 0.000000 0.000000 0.000000 0.000000 0.174534 0.000000
# 6 0.000000 0.000000 0.000000 0.000000 0.000000 0.027535
#
#
# Mechanical properties :
#
#
# Convention : Reuss Voigt Hill
#
# Bulk Modulus (GPa) = 54.85935 67.68006 61.26971
# Shear Modulus (GPa) = 17.32572 34.10628 25.71600
#
# Velocity S-wave (km/s) = 2.66875 3.74438 3.25135
# Velocity P-wave (km/s) = 5.66108 6.82023 6.26751
#
# Compressibility (1/GPa) = 0.01822843
#
# Stress axis : x y z
#
# Youngs Moduli (GPa) = 107.43066 155.08377 87.66632
#
# Poissons Ratio (x) = 0.47245 -0.05811
# Poissons Ratio (y) = 0.32728 0.18268
# Poissons Ratio (z) = -0.07121 0.32317
#
# Static dielectric constant tensor:
#      x y z
#    x 1.896390 0.000000 0.000000 
#    y 0.000000 2.023310 0.000000 
#    z 0.000000 0.000000 2.161740 
# 
# From -- ./inp_files/14812.got.cif
#   From: 2010.05.17/outbox.cif.g08.bks.cpg/sg52_8_cif.got.tgz:14812.got - 2010.06.03 12:15:38.
