data_PCOD9411306
_publ_section_title
;
Structure prediction by ZEFSAII (Michael W. Deem and Ramdas Pophale) SiO2 
 PCOD9411306
Probable space group: P N N A
;
_chemical_formula_sum "Si O2"
_cell_formula_units_Z 56
_cell_length_a 13.739565
_cell_length_b 13.447478
_cell_length_c 14.675120
_cell_angle_alpha 90.000000
_cell_angle_beta 90.000000
_cell_angle_gamma 90.000000
_cell_volume 2711.411831
_symmetry_space_group_name_H-M "P N N A"
_symmetry_group_IT_number 52
_symmetry_cell_setting 'orthorhombic'
loop_
_space_group_symop_operation_xyz
x,y,z
1/2-x,-y,z
x,1/2-y,1/2-z
1/2-x,1/2+y,1/2-z
-x,-y,-z
1/2+x,y,-z
-x,1/2+y,1/2+z
1/2+x,1/2-y,1/2+z
loop_
_atom_site_type_symbol
_atom_site_label
_atom_site_fract_x
_atom_site_fract_y
_atom_site_fract_z
Si Si1 0.634927 0.015236 0.816068
Si Si2 0.768445 0.817774 0.503886
Si Si3 0.089433 0.167616 0.331043
Si Si4 0.930018 0.656663 0.140310
Si Si5 0.543104 0.111800 0.168821
Si Si6 0.176199 0.091136 0.997267
Si Si7 0.554303 0.606482 0.011805
O O1 0.593746 0.066117 0.726011
O O2 0.750000 0.000000 0.804124
O O3 0.570007 0.918078 0.836126
O O4 0.623749 0.087141 0.904298
O O5 0.813795 0.827326 0.605472
O O6 0.846885 0.861948 0.433331
O O7 0.770222 0.697699 0.486760
O O8 0.669053 0.875220 0.482388
O O9 0.084090 0.250000 0.250000
O O10 0.001201 0.162654 0.404764
O O11 0.930235 0.772946 0.162041
O O12 0.922017 0.588003 0.228618
O O13 0.031147 0.649447 0.087736
O O14 0.601380 0.068453 0.083951
O O15 0.250000 0.000000 0.999073
O O16 0.500000 0.500000 0.000000
#
# Coordination Sequence:
#
# PCOD9411306 Si02
#       7
#     8   8   8   8   8   8   8
#     4  11  24  38  64  98 128 168 222 276 344 412
#     4  10  23  45  66  91 141 173 229 287 347 424
#     4  11  24  43  65 100 133 178 233 290 356 418
#     4   9  22  41  67  91 123 180 219 266 347 407
#     4  10  21  42  63  92 131 164 220 275 332 425
#     4  10  22  41  65  99 127 176 217 277 356 411
#     4  11  25  43  66  98 134 184 227 288 351 411
#
# _framework density 20.653447
#
# number of rings (size 3 to 8) (size 9 to 14) (size 15 to 20)
#    0.000    1.714    1.429    1.286    8.000    2.857 
#   10.286    0.000    0.000    0.000    0.000    0.000 
#    0.000    0.000    0.000    0.000    0.000    0.000 
#
# Total GULP energy -311787.238541 kJ/mol
# GULP energy per Si atom -5567.629260 kJ/mol
# Density = 2.060644 g / cm^3
# Si number density = 20.653447 Si / 1000 Ang^3
#
#
#
# Elastic Constant Matrix: (Units=GPa)
#
#
# Indices 1 2 3 4 5 6 
#
# 1 118.0597 37.6834 39.0951 0.0000 0.0000 0.0000
# 2 37.6834 51.9165 27.0606 0.0000 0.0000 0.0000
# 3 39.0951 27.0606 126.1935 0.0000 0.0000 0.0000
# 4 0.0000 0.0000 0.0000 20.5139 0.0000 0.0000
# 5 0.0000 0.0000 0.0000 0.0000 14.6802 0.0000
# 6 0.0000 0.0000 0.0000 0.0000 0.0000 26.4982
#
#
#
# Elastic Compliance Matrix: (Units=1/GPa)
#
#
# Indices 1 2 3 4 5 6 
#
# 1 0.011451 -0.007276 -0.001987 0.000000 0.000000 0.000000
# 2 -0.007276 0.026308 -0.003387 0.000000 0.000000 0.000000
# 3 -0.001987 -0.003387 0.009266 0.000000 0.000000 0.000000
# 4 0.000000 0.000000 0.000000 0.048747 0.000000 0.000000
# 5 0.000000 0.000000 0.000000 0.000000 0.068119 0.000000
# 6 0.000000 0.000000 0.000000 0.000000 0.000000 0.037738
#
#
# Mechanical properties :
#
#
# Convention : Reuss Voigt Hill
#
# Bulk Modulus (GPa) = 46.03064 55.98309 51.00686
# Shear Modulus (GPa) = 21.35180 25.16051 23.25616
#
# Velocity S-wave (km/s) = 3.21878 3.49409 3.35926
# Velocity P-wave (km/s) = 6.01246 6.59113 6.30843
#
# Compressibility (1/GPa) = 0.02172466
#
# Stress axis : x y z
#
# Youngs Moduli (GPa) = 87.33123 38.01083 107.91661
#
# Poissons Ratio (x) = 0.27655 0.21446
# Poissons Ratio (y) = 0.63538 0.36557
# Poissons Ratio (z) = 0.17355 0.12876
#
# Static dielectric constant tensor:
#      x y z
#    x 1.693850 0.000000 0.000000 
#    y 0.000000 1.753510 0.000000 
#    z 0.000000 0.000000 1.783960 
# 
# From -- ./inp_files/26136.got.cif
#   From: 2010.05.17/outbox.cif.g08.bks.cpg/sg52_14_cif.got.tgz:26136.got - 2010.06.03 12:15:38.
