data_PCOD9411043
_publ_section_title
;
Structure prediction by ZEFSAII (Michael W. Deem and Ramdas Pophale) SiO2 
 PCOD9411043
Probable space group: P N N A
;
_chemical_formula_sum "Si O2"
_cell_formula_units_Z 28
_cell_length_a 7.254891
_cell_length_b 6.834924
_cell_length_c 25.054251
_cell_angle_alpha 90.000000
_cell_angle_beta 90.000000
_cell_angle_gamma 90.000000
_cell_volume 1242.355840
_symmetry_space_group_name_H-M "P N N A"
_symmetry_group_IT_number 52
_symmetry_cell_setting 'orthorhombic'
loop_
_space_group_symop_operation_xyz
x,y,z
1/2-x,-y,z
x,1/2-y,1/2-z
1/2-x,1/2+y,1/2-z
-x,-y,-z
1/2+x,y,-z
-x,1/2+y,1/2+z
1/2+x,1/2-y,1/2+z
loop_
_atom_site_type_symbol
_atom_site_label
_atom_site_fract_x
_atom_site_fract_y
_atom_site_fract_z
Si Si1 0.250000 0.500000 0.984126
Si Si2 0.250000 0.000000 0.338639
Si Si3 0.121457 0.679850 0.808788
Si Si4 0.750000 0.000000 0.107166
Si Si5 0.442281 0.219229 0.431424
O O1 0.422959 0.539800 0.946894
O O2 0.292778 0.310404 0.021299
O O3 0.412913 0.897636 0.306755
O O4 0.158876 0.835139 0.376851
O O5 0.250000 0.500000 0.823903
O O6 0.177300 0.750000 0.750000
O O7 0.156171 0.841911 0.853639
O O8 0.918954 0.900524 0.074664
#
# Coordination Sequence:
#
# PCOD9411043 Si02
#       5
#     4   4   8   4   8
#     4   9  20  42  65  96 154 184 227 302 342 399
#     4  11  24  44  72 102 140 184 230 290 346 415
#     4  12  26  47  72 104 144 179 230 295 357 415
#     4  12  24  42  75 102 138 190 237 284 352 424
#     4  10  21  39  67 101 138 189 230 284 351 406
#
# _framework density 22.537825999999999
#
# number of rings (size 3 to 8) (size 9 to 14) (size 15 to 20)
#    0.000    1.143    4.286    1.714    0.000    5.714 
#    0.000    0.000    0.000    0.000    0.000    0.000 
#    0.000    0.000    0.000    0.000    0.000    0.000 
#
# Total GULP energy -156440.930026 kJ/mol
# GULP energy per Si atom -5587.176072 kJ/mol
# Density = 2.248653 g / cm^3
# Si number density = 22.537826 Si / 1000 Ang^3
#
#
#
# Elastic Constant Matrix: (Units=GPa)
#
#
# Indices 1 2 3 4 5 6 
#
# 1 101.2798 38.9525 12.1436 0.0000 0.0000 0.0000
# 2 38.9525 104.9773 35.4612 0.0000 0.0000 0.0000
# 3 12.1436 35.4612 65.5349 0.0000 0.0000 0.0000
# 4 0.0000 0.0000 0.0000 -3.0895 0.0000 0.0000
# 5 0.0000 0.0000 0.0000 0.0000 2170.6845 0.0000
# 6 0.0000 0.0000 0.0000 0.0000 0.0000 51.3217
#
#
#
# Elastic Compliance Matrix: (Units=1/GPa)
#
#
# Indices 1 2 3 4 5 6 
#
# 1 0.011520 -0.004348 0.000218 0.000000 0.000000 0.000000
# 2 -0.004348 0.013298 -0.006390 0.000000 0.000000 0.000000
# 3 0.000218 -0.006390 0.018676 0.000000 0.000000 0.000000
# 4 0.000000 0.000000 0.000000 -0.323675 0.000000 0.000000
# 5 0.000000 0.000000 0.000000 0.000000 0.000461 0.000000
# 6 0.000000 0.000000 0.000000 0.000000 0.000000 0.019485
#
#
# Mechanical properties :
#
#
# Convention : Reuss Voigt Hill
#
# Bulk Modulus (GPa) = 44.53510 49.43408 46.98459
# Shear Modulus (GPa) = -21.57860 456.13230 217.27685
#
# Velocity S-wave (km/s) = -3.09761 14.24165 9.82928
# Velocity P-wave (km/s) = 2.64754 17.10012 12.23568
#
# Compressibility (1/GPa) = 0.02245420
#
# Stress axis : x y z
#
# Youngs Moduli (GPa) = 86.80703 75.20075 53.54432
#
# Poissons Ratio (x) = 0.32699 -0.01168
# Poissons Ratio (y) = 0.37746 0.34213
# Poissons Ratio (z) = -0.01894 0.48051
#
# Static dielectric constant tensor:
#      x y z
#    x 1.866690 0.000000 0.000000 
#    y 0.000000 1.884940 0.000000 
#    z 0.000000 0.000000 1.802550 
# 
# From -- ./inp_files/41971.got.cif
#   From: 2010.05.17/outbox.cif.g08.bks.cpg/sg52_21_cif.got.tgz:41971.got - 2010.06.03 12:15:38.
