data_PCOD9411574
_publ_section_title
;
Structure prediction by ZEFSAII (Michael W. Deem and Ramdas Pophale) SiO2 
 PCOD9411574
Probable space group: P N N A
;
_chemical_formula_sum "Si O2"
_cell_formula_units_Z 64
_cell_length_a 9.309243
_cell_length_b 18.285343
_cell_length_c 19.997866
_cell_angle_alpha 90.000000
_cell_angle_beta 90.000000
_cell_angle_gamma 90.000000
_cell_volume 3404.090771
_symmetry_space_group_name_H-M "P N N A"
_symmetry_group_IT_number 52
_symmetry_cell_setting 'orthorhombic'
loop_
_space_group_symop_operation_xyz
x,y,z
1/2-x,-y,z
x,1/2-y,1/2-z
1/2-x,1/2+y,1/2-z
-x,-y,-z
1/2+x,y,-z
-x,1/2+y,1/2+z
1/2+x,1/2-y,1/2+z
loop_
_atom_site_type_symbol
_atom_site_label
_atom_site_fract_x
_atom_site_fract_y
_atom_site_fract_z
Si Si1 0.130792 0.187937 0.805768
Si Si2 0.099738 0.542016 0.556439
Si Si3 0.539113 0.242557 0.506627
Si Si4 0.768880 0.201715 0.406454
Si Si5 0.347837 0.397721 0.322218
Si Si6 0.050948 0.440907 0.299677
Si Si7 0.209956 0.916695 0.710355
Si Si8 0.304628 0.340199 0.459242
O O1 0.139684 0.250000 0.750000
O O2 0.214119 0.224256 0.868237
O O3 0.202606 0.116107 0.773639
O O4 0.965937 0.164388 0.814172
O O5 0.250000 0.500000 0.568342
O O6 0.152295 0.618221 0.526024
O O7 0.000000 0.500000 0.500000
O O8 0.020652 0.557217 0.626478
O O9 0.650068 0.191462 0.465378
O O10 0.427690 0.210814 0.561306
O O11 0.427852 0.278862 0.454088
O O12 0.649023 0.303108 0.536843
O O13 0.769191 0.136726 0.352503
O O14 0.188003 0.387947 0.295717
O O15 0.402059 0.474322 0.293353
O O16 0.320811 0.400127 0.401771
O O17 0.948873 0.418549 0.239856
O O18 0.250000 0.000000 0.695024
#
# Coordination Sequence:
#
# PCOD9411574 Si02
#       8
#     8   8   8   8   8   8   8   8
#     4  10  22  41  62  88 122 162 199 244 301 379
#     4  12  23  34  50  84 125 171 215 247 288 360
#     4  10  22  38  61  86 118 155 207 265 319 374
#     4  10  23  44  65  96 123 157 210 267 324 386
#     4  11  21  38  53  85 124 160 211 243 302 357
#     4  11  24  35  56  86 128 167 206 254 294 372
#     4  11  23  43  68  89 122 168 212 254 317 386
#     4  11  21  33  55  81 122 166 202 254 309 356
#
# _framework density 18.800908
#
# number of rings (size 3 to 8) (size 9 to 14) (size 15 to 20)
#    0.000    1.250    3.750    2.625    5.250    0.000 
#    2.250    0.625    0.000    0.000    0.000    0.000 
#    0.000    0.000    0.000    0.000    0.000    0.000 
#
# Total GULP energy -356677.436470 kJ/mol
# GULP energy per Si atom -5573.084945 kJ/mol
# Density = 1.875812 g / cm^3
# Si number density = 18.800908 Si / 1000 Ang^3
#
#
#
# Elastic Constant Matrix: (Units=GPa)
#
#
# Indices 1 2 3 4 5 6 
#
# 1 141.8483 36.0334 41.4182 0.0000 0.0000 0.0000
# 2 36.0334 68.8665 27.6338 0.0000 0.0000 0.0000
# 3 41.4182 27.6338 62.1445 0.0000 0.0000 0.0000
# 4 0.0000 0.0000 0.0000 19.7048 0.0000 0.0000
# 5 0.0000 0.0000 0.0000 0.0000 23.5731 0.0000
# 6 0.0000 0.0000 0.0000 0.0000 0.0000 24.9197
#
#
#
# Elastic Compliance Matrix: (Units=1/GPa)
#
#
# Indices 1 2 3 4 5 6 
#
# 1 0.009195 -0.002863 -0.004855 0.000000 0.000000 0.000000
# 2 -0.002863 0.018566 -0.006348 0.000000 0.000000 0.000000
# 3 -0.004855 -0.006348 0.022150 0.000000 0.000000 0.000000
# 4 0.000000 0.000000 0.000000 0.050749 0.000000 0.000000
# 5 0.000000 0.000000 0.000000 0.000000 0.042421 0.000000
# 6 0.000000 0.000000 0.000000 0.000000 0.000000 0.040129
#
#
# Mechanical properties :
#
#
# Convention : Reuss Voigt Hill
#
# Bulk Modulus (GPa) = 45.91496 53.67002 49.79249
# Shear Modulus (GPa) = 22.87278 24.82445 23.84862
#
# Velocity S-wave (km/s) = 3.49173 3.63765 3.56544
# Velocity P-wave (km/s) = 6.38208 6.80087 6.59480
#
# Compressibility (1/GPa) = 0.02177940
#
# Stress axis : x y z
#
# Youngs Moduli (GPa) = 108.75891 53.86223 45.14682
#
# Poissons Ratio (x) = 0.15420 0.21919
# Poissons Ratio (y) = 0.31135 0.28658
# Poissons Ratio (z) = 0.52803 0.34190
#
# Static dielectric constant tensor:
#      x y z
#    x 1.940070 0.000000 0.000000 
#    y 0.000000 1.693910 0.000000 
#    z 0.000000 0.000000 1.668800 
# 
# From -- ./inp_files/36204.got.cif
#   From: 2010.05.17/outbox.cif.g08.bks.cpg/sg52_19_cif.got.tgz:36204.got - 2010.06.03 12:15:38.
