data_PCOD9411617
_publ_section_title
;
Structure prediction by ZEFSAII (Michael W. Deem and Ramdas Pophale) SiO2 
 PCOD9411617
Probable space group: P N N A
;
_chemical_formula_sum "Si O2"
_cell_formula_units_Z 32
_cell_length_a 5.987363
_cell_length_b 12.705093
_cell_length_c 19.264231
_cell_angle_alpha 90.000000
_cell_angle_beta 90.000000
_cell_angle_gamma 90.000000
_cell_volume 1465.430124
_symmetry_space_group_name_H-M "P N N A"
_symmetry_group_IT_number 52
_symmetry_cell_setting 'orthorhombic'
loop_
_space_group_symop_operation_xyz
x,y,z
1/2-x,-y,z
x,1/2-y,1/2-z
1/2-x,1/2+y,1/2-z
-x,-y,-z
1/2+x,y,-z
-x,1/2+y,1/2+z
1/2+x,1/2-y,1/2+z
loop_
_atom_site_type_symbol
_atom_site_label
_atom_site_fract_x
_atom_site_fract_y
_atom_site_fract_z
Si Si1 0.750000 0.500000 0.348083
Si Si2 0.169648 0.158188 0.966582
Si Si3 0.358310 0.612347 0.907962
Si Si4 0.576253 0.632498 0.225982
Si Si5 0.750000 0.000000 0.630376
O O1 0.855069 0.587417 0.397789
O O2 0.596409 0.564087 0.295138
O O3 0.186975 0.281570 0.948349
O O4 0.427281 0.136044 0.994993
O O5 0.250000 0.500000 0.927587
O O6 0.291414 0.632280 0.826290
O O7 0.615818 0.583705 0.913957
O O8 0.524050 0.750000 0.250000
O O9 0.400987 0.573189 0.178171
#
# Coordination Sequence:
#
# PCOD9411617 Si02
#       5
#     4   8   8   8   4
#     4  12  24  48  75 107 154 184 258 310 378 460
#     4  12  30  50  73 105 152 212 254 299 363 453
#     4  10  23  44  69 107 142 182 255 314 380 440
#     4  11  22  41  70 110 141 185 236 319 391 432
#     4  10  22  38  69 111 140 178 242 310 396 442
#
# _framework density 21.836593000000001
#
# number of rings (size 3 to 8) (size 9 to 14) (size 15 to 20)
#    0.000    1.000    6.250    0.750    7.000    6.000 
#    0.000    0.000    0.000    0.000    0.000    0.000 
#    0.000    0.000    0.000    0.000    0.000    0.000 
#
# Total GULP energy -178244.629739 kJ/mol
# GULP energy per Si atom -5570.144679 kJ/mol
# Density = 2.178689 g / cm^3
# Si number density = 21.836593 Si / 1000 Ang^3
#
#
#
# Elastic Constant Matrix: (Units=GPa)
#
#
# Indices 1 2 3 4 5 6 
#
# 1 75.9916 13.9638 30.4913 0.0000 0.0000 0.0000
# 2 13.9638 123.3258 22.1809 0.0000 0.0000 0.0000
# 3 30.4913 22.1809 79.9282 0.0000 0.0000 0.0000
# 4 0.0000 0.0000 0.0000 -439.1163 0.0000 0.0000
# 5 0.0000 0.0000 0.0000 0.0000 -6.3608 0.0000
# 6 0.0000 0.0000 0.0000 0.0000 0.0000 7.3310
#
#
#
# Elastic Compliance Matrix: (Units=1/GPa)
#
#
# Indices 1 2 3 4 5 6 
#
# 1 0.015600 -0.000733 -0.005748 0.000000 0.000000 0.000000
# 2 -0.000733 0.008569 -0.002099 0.000000 0.000000 0.000000
# 3 -0.005748 -0.002099 0.015286 0.000000 0.000000 0.000000
# 4 0.000000 0.000000 0.000000 -0.002277 0.000000 0.000000
# 5 0.000000 0.000000 0.000000 0.000000 -0.157212 0.000000
# 6 0.000000 0.000000 0.000000 0.000000 0.000000 0.136408
#
#
# Mechanical properties :
#
#
# Convention : Reuss Voigt Hill
#
# Bulk Modulus (GPa) = 44.84801 45.83528 45.34165
# Shear Modulus (GPa) = 122.05723 -73.45526 24.30098
#
# Velocity S-wave (km/s) = 7.48446 -5.80617 3.33957
# Velocity P-wave (km/s) = 9.76074 4.89011 5.97323
#
# Compressibility (1/GPa) = 0.02229753
#
# Stress axis : x y z
#
# Youngs Moduli (GPa) = 64.10136 116.69993 65.41784
#
# Poissons Ratio (x) = 0.08549 0.37602
# Poissons Ratio (y) = 0.04696 0.13728
# Poissons Ratio (z) = 0.36845 0.24490
#
# Static dielectric constant tensor:
#      x y z
#    x 1.432520 0.000000 0.000000 
#    y 0.000000 1.796860 0.000000 
#    z 0.000000 0.000000 1.803960 
# 
# From -- ./inp_files/34829.got.cif
#   From: 2010.05.17/outbox.cif.g08.bks.cpg/sg52_18_cif.got.tgz:34829.got - 2010.06.03 12:15:38.
