data_PCOD9411957
_publ_section_title
;
Structure prediction by ZEFSAII (Michael W. Deem and Ramdas Pophale) SiO2 
 PCOD9411957
Probable space group: P N N A
;
_chemical_formula_sum "Si O2"
_cell_formula_units_Z 24
_cell_length_a 28.865662
_cell_length_b 5.037023
_cell_length_c 7.869101
_cell_angle_alpha 90.000000
_cell_angle_beta 90.000000
_cell_angle_gamma 90.000000
_cell_volume 1144.143705
_symmetry_space_group_name_H-M "P N N A"
_symmetry_group_IT_number 52
_symmetry_cell_setting 'orthorhombic'
loop_
_space_group_symop_operation_xyz
x,y,z
1/2-x,-y,z
x,1/2-y,1/2-z
1/2-x,1/2+y,1/2-z
-x,-y,-z
1/2+x,y,-z
-x,1/2+y,1/2+z
1/2+x,1/2-y,1/2+z
loop_
_atom_site_type_symbol
_atom_site_label
_atom_site_fract_x
_atom_site_fract_y
_atom_site_fract_z
Si Si1 0.379367 0.982155 0.858052
Si Si2 0.699466 0.996789 0.873043
Si Si3 0.031499 0.245935 0.048653
O O1 0.355287 0.750000 0.750000
O O2 0.391694 0.250000 0.750000
O O3 0.343368 0.053153 0.003928
O O4 0.422429 0.819765 0.941249
O O5 0.692250 0.250000 0.750000
O O6 0.750000 0.000000 0.962422
O O7 0.702699 0.750000 0.750000
O O8 0.041779 0.250000 0.250000
O O9 0.000000 0.500000 0.000000
O O10 0.000000 0.000000 0.000000
#
# Coordination Sequence:
#
# PCOD9411957 Si02
#       3
#     8   8   8
#     4  12  25  41  64  96 131 169 216 266 324 387
#     4  10  22  42  67  96 131 172 217 264 321 387
#     4  12  25  43  65  90 124 165 213 266 322 380
#
# _framework density 20.976382999999998
#
# number of rings (size 3 to 8) (size 9 to 14) (size 15 to 20)
#    0.000    0.667    0.000    9.000    0.000    4.000 
#    0.000    0.000    0.000    0.000    0.000    0.000 
#    0.000    0.000    0.000    0.000    0.000    0.000 
#
# Total GULP energy -133968.206827 kJ/mol
# GULP energy per Si atom -5582.008618 kJ/mol
# Density = 2.092864 g / cm^3
# Si number density = 20.976383 Si / 1000 Ang^3
#
#
#
# Elastic Constant Matrix: (Units=GPa)
#
#
# Indices 1 2 3 4 5 6 
#
# 1 121.5631 28.1234 36.7766 0.0000 0.0000 0.0000
# 2 28.1234 165.1421 32.0168 0.0000 0.0000 0.0000
# 3 36.7766 32.0168 98.0452 0.0000 0.0000 0.0000
# 4 0.0000 0.0000 0.0000 31.8223 0.0000 0.0000
# 5 0.0000 0.0000 0.0000 0.0000 25.4378 0.0000
# 6 0.0000 0.0000 0.0000 0.0000 0.0000 29.5009
#
#
#
# Elastic Compliance Matrix: (Units=1/GPa)
#
#
# Indices 1 2 3 4 5 6 
#
# 1 0.009426 -0.000982 -0.003215 0.000000 0.000000 0.000000
# 2 -0.000982 0.006567 -0.001776 0.000000 0.000000 0.000000
# 3 -0.003215 -0.001776 0.011985 0.000000 0.000000 0.000000
# 4 0.000000 0.000000 0.000000 0.031424 0.000000 0.000000
# 5 0.000000 0.000000 0.000000 0.000000 0.039312 0.000000
# 6 0.000000 0.000000 0.000000 0.000000 0.000000 0.033897
#
#
# Mechanical properties :
#
#
# Convention : Reuss Voigt Hill
#
# Bulk Modulus (GPa) = 62.37479 64.28711 63.33095
# Shear Modulus (GPa) = 33.35518 36.54112 34.94815
#
# Velocity S-wave (km/s) = 3.99197 4.17827 4.08618
# Velocity P-wave (km/s) = 7.14479 7.34787 7.24704
#
# Compressibility (1/GPa) = 0.01603212
#
# Stress axis : x y z
#
# Youngs Moduli (GPa) = 106.08961 152.27758 83.43535
#
# Poissons Ratio (x) = 0.14952 0.26825
# Poissons Ratio (y) = 0.10417 0.14819
# Poissons Ratio (z) = 0.34108 0.27046
#
# Static dielectric constant tensor:
#      x y z
#    x 1.768760 0.000000 0.000000 
#    y 0.000000 1.732600 0.000000 
#    z 0.000000 0.000000 1.499650 
# 
# From -- ./inp_files/13747.got.cif
#   From: 2010.05.17/outbox.cif.g08.bks.cpg/sg52_7_cif.got.tgz:13747.got - 2010.06.03 12:15:38.
