data_PCOD9411821
_publ_section_title
;
Structure prediction by ZEFSAII (Michael W. Deem and Ramdas Pophale) SiO2 
 PCOD9411821
Probable space group: P N N A
;
_chemical_formula_sum "Si O2"
_cell_formula_units_Z 28
_cell_length_a 16.022046
_cell_length_b 4.859031
_cell_length_c 17.295972
_cell_angle_alpha 90.000000
_cell_angle_beta 90.000000
_cell_angle_gamma 90.000000
_cell_volume 1346.519408
_symmetry_space_group_name_H-M "P N N A"
_symmetry_group_IT_number 52
_symmetry_cell_setting 'orthorhombic'
loop_
_space_group_symop_operation_xyz
x,y,z
1/2-x,-y,z
x,1/2-y,1/2-z
1/2-x,1/2+y,1/2-z
-x,-y,-z
1/2+x,y,-z
-x,1/2+y,1/2+z
1/2+x,1/2-y,1/2+z
loop_
_atom_site_type_symbol
_atom_site_label
_atom_site_fract_x
_atom_site_fract_y
_atom_site_fract_z
Si Si1 0.005352 0.724489 0.604909
Si Si2 0.750000 0.000000 0.968636
Si Si3 0.392572 0.750000 0.250000
Si Si4 0.096346 0.298962 0.959016
Si Si5 0.250000 0.000000 0.352928
O O1 0.037018 0.433934 0.575366
O O2 0.956723 0.662712 0.683217
O O3 0.938573 0.856478 0.545243
O O4 0.083327 0.936253 0.595555
O O5 0.774212 0.244458 0.908865
O O6 0.683667 0.151599 0.023857
O O7 0.328280 0.556212 0.203376
#
# Coordination Sequence:
#
# PCOD9411821 Si02
#       5
#     8   4   4   8   4
#     4  10  23  39  62  88 131 169 214 253 319 390
#     4  12  23  44  66  94 131 170 224 278 321 394
#     4  12  26  42  62 100 140 170 206 266 340 408
#     4  10  22  41  61  90 123 174 216 263 307 380
#     4  12  27  38  62 102 135 172 200 274 355 406
#
# _framework density 20.794354999999999
#
# number of rings (size 3 to 8) (size 9 to 14) (size 15 to 20)
#    0.000    1.143    2.857    2.571    8.000    3.429 
#    0.000    0.000    0.000    3.429    0.000    0.000 
#    0.000    0.000    0.000    0.000    0.000    0.000 
#
# Total GULP energy -156031.687323 kJ/mol
# GULP energy per Si atom -5572.560262 kJ/mol
# Density = 2.074703 g / cm^3
# Si number density = 20.794355 Si / 1000 Ang^3
#
#
#
# Elastic Constant Matrix: (Units=GPa)
#
#
# Indices 1 2 3 4 5 6 
#
# 1 84.8766 15.3828 57.6827 0.0000 0.0000 0.0000
# 2 15.3828 105.3290 21.7495 0.0000 0.0000 0.0000
# 3 57.6827 21.7495 97.2613 0.0000 0.0000 0.0000
# 4 0.0000 0.0000 0.0000 18.5192 0.0000 0.0000
# 5 0.0000 0.0000 0.0000 0.0000 24.7645 0.0000
# 6 0.0000 0.0000 0.0000 0.0000 0.0000 39.5461
#
#
#
# Elastic Compliance Matrix: (Units=1/GPa)
#
#
# Indices 1 2 3 4 5 6 
#
# 1 0.019761 -0.000489 -0.011610 0.000000 0.000000 0.000000
# 2 -0.000489 0.009966 -0.001939 0.000000 0.000000 0.000000
# 3 -0.011610 -0.001939 0.017601 0.000000 0.000000 0.000000
# 4 0.000000 0.000000 0.000000 0.053998 0.000000 0.000000
# 5 0.000000 0.000000 0.000000 0.000000 0.040380 0.000000
# 6 0.000000 0.000000 0.000000 0.000000 0.000000 0.025287
#
#
# Mechanical properties :
#
#
# Convention : Reuss Voigt Hill
#
# Bulk Modulus (GPa) = 51.94226 53.01076 52.47651
# Shear Modulus (GPa) = 24.81570 29.40940 27.11255
#
# Velocity S-wave (km/s) = 3.45829 3.76479 3.61479
# Velocity P-wave (km/s) = 6.40153 6.66682 6.53552
#
# Compressibility (1/GPa) = 0.01925214
#
# Stress axis : x y z
#
# Youngs Moduli (GPa) = 50.60535 100.34367 56.81560
#
# Poissons Ratio (x) = 0.04902 0.65964
# Poissons Ratio (y) = 0.02472 0.11015
# Poissons Ratio (z) = 0.58754 0.19454
#
# Static dielectric constant tensor:
#      x y z
#    x 1.841230 0.000000 0.000000 
#    y 0.000000 1.811030 0.000000 
#    z 0.000000 0.000000 1.759400 
# 
# From -- ./inp_files/32566.got.cif
#   From: 2010.05.17/outbox.cif.g08.bks.cpg/sg52_17_cif.got.tgz:32566.got - 2010.06.03 12:15:38.
