data_PCOD9411696
_publ_section_title
;
Structure prediction by ZEFSAII (Michael W. Deem and Ramdas Pophale) SiO2 
 PCOD9411696
Probable space group: P N N A
;
_chemical_formula_sum "Si O2"
_cell_formula_units_Z 32
_cell_length_a 21.940608
_cell_length_b 8.261966
_cell_length_c 8.832356
_cell_angle_alpha 90.000000
_cell_angle_beta 90.000000
_cell_angle_gamma 90.000000
_cell_volume 1601.063759
_symmetry_space_group_name_H-M "P N N A"
_symmetry_group_IT_number 52
_symmetry_cell_setting 'orthorhombic'
loop_
_space_group_symop_operation_xyz
x,y,z
1/2-x,-y,z
x,1/2-y,1/2-z
1/2-x,1/2+y,1/2-z
-x,-y,-z
1/2+x,y,-z
-x,1/2+y,1/2+z
1/2+x,1/2-y,1/2+z
loop_
_atom_site_type_symbol
_atom_site_label
_atom_site_fract_x
_atom_site_fract_y
_atom_site_fract_z
Si Si1 0.001542 0.816317 0.071607
Si Si2 0.375316 0.307300 0.920922
Si Si3 0.371786 0.806730 0.576965
Si Si4 0.751734 0.195797 0.578584
O O1 0.000821 0.750000 0.250000
O O2 0.936873 0.748269 0.012587
O O3 0.064653 0.746589 0.009493
O O4 0.000000 0.000000 0.000000
O O5 0.381277 0.250000 0.750000
O O6 0.372013 0.500311 0.924815
O O7 0.311548 0.245193 0.989557
O O8 0.366788 0.750000 0.750000
O O9 0.312291 0.744652 0.489502
O O10 0.757302 0.250000 0.750000
O O11 0.750000 0.000000 0.571188
#
# Coordination Sequence:
#
# PCOD9411696 Si02
#       4
#     8   8   8   8
#     4  11  24  42  64  93 126 165 209 259 317 379
#     4  11  22  39  63  91 123 161 205 255 309 375
#     4  10  22  40  60  88 121 160 202 250 309 370
#     4  10  23  39  60  88 119 156 202 252 308 370
#
# _framework density 19.986709999999999
#
# number of rings (size 3 to 8) (size 9 to 14) (size 15 to 20)
#    0.000    1.500    0.000    5.250    0.000    9.000 
#    0.000    0.000    0.000    0.000    0.000    0.000 
#    0.000    0.000    0.000    0.000    0.000    0.000 
#
# Total GULP energy -178376.369873 kJ/mol
# GULP energy per Si atom -5574.261559 kJ/mol
# Density = 1.994122 g / cm^3
# Si number density = 19.986710 Si / 1000 Ang^3
#
#
#
# Elastic Constant Matrix: (Units=GPa)
#
#
# Indices 1 2 3 4 5 6 
#
# 1 222.4472 39.5988 79.0451 0.0000 0.0000 0.0000
# 2 39.5988 68.8094 22.9804 0.0000 0.0000 0.0000
# 3 79.0451 22.9804 104.1591 0.0000 0.0000 0.0000
# 4 0.0000 0.0000 0.0000 34.1935 0.0000 0.0000
# 5 0.0000 0.0000 0.0000 0.0000 43.6450 0.0000
# 6 0.0000 0.0000 0.0000 0.0000 0.0000 131.8300
#
#
#
# Elastic Compliance Matrix: (Units=1/GPa)
#
#
# Indices 1 2 3 4 5 6 
#
# 1 0.006462 -0.002246 -0.004408 0.000000 0.000000 0.000000
# 2 -0.002246 0.016470 -0.001929 0.000000 0.000000 0.000000
# 3 -0.004408 -0.001929 0.013372 0.000000 0.000000 0.000000
# 4 0.000000 0.000000 0.000000 0.029245 0.000000 0.000000
# 5 0.000000 0.000000 0.000000 0.000000 0.022912 0.000000
# 6 0.000000 0.000000 0.000000 0.000000 0.000000 0.007586
#
#
# Mechanical properties :
#
#
# Convention : Reuss Voigt Hill
#
# Bulk Modulus (GPa) = 52.25692 75.40716 63.83204
# Shear Modulus (GPa) = 41.80887 58.85312 50.33100
#
# Velocity S-wave (km/s) = 4.57862 5.43232 5.02363
# Velocity P-wave (km/s) = 7.35896 8.78392 8.10283
#
# Compressibility (1/GPa) = 0.01913622
#
# Stress axis : x y z
#
# Youngs Moduli (GPa) = 154.75693 60.71684 74.78575
#
# Poissons Ratio (x) = 0.13640 0.32966
# Poissons Ratio (y) = 0.34766 0.14425
# Poissons Ratio (z) = 0.68219 0.11712
#
# Static dielectric constant tensor:
#      x y z
#    x 1.711360 0.000000 0.000000 
#    y 0.000000 1.723370 0.000000 
#    z 0.000000 0.000000 1.696620 
# 
# From -- ./inp_files/12798.got.cif
#   From: 2010.05.17/outbox.cif.g08.bks.cpg/sg52_7_cif.got.tgz:12798.got - 2010.06.03 12:15:38.
