data_PCOD9411940
_publ_section_title
;
Structure prediction by ZEFSAII (Michael W. Deem and Ramdas Pophale) SiO2 
 PCOD9411940
Probable space group: P N N A
;
_chemical_formula_sum "Si O2"
_cell_formula_units_Z 24
_cell_length_a 4.960755
_cell_length_b 13.639305
_cell_length_c 12.434809
_cell_angle_alpha 90.000000
_cell_angle_beta 90.000000
_cell_angle_gamma 90.000000
_cell_volume 841.354726
_symmetry_space_group_name_H-M "P N N A"
_symmetry_group_IT_number 52
_symmetry_cell_setting 'orthorhombic'
loop_
_space_group_symop_operation_xyz
x,y,z
1/2-x,-y,z
x,1/2-y,1/2-z
1/2-x,1/2+y,1/2-z
-x,-y,-z
1/2+x,y,-z
-x,1/2+y,1/2+z
1/2+x,1/2-y,1/2+z
loop_
_atom_site_type_symbol
_atom_site_label
_atom_site_fract_x
_atom_site_fract_y
_atom_site_fract_z
Si Si1 0.704532 0.893781 0.271627
Si Si2 0.050298 0.687740 0.045229
Si Si3 0.802260 0.392976 0.617624
O O1 0.418518 0.875082 0.213389
O O2 0.852067 0.818720 0.352656
O O3 0.911636 0.901992 0.173579
O O4 0.750000 0.000000 0.326290
O O5 0.167546 0.798993 0.041918
O O6 0.349256 0.640129 0.044041
O O7 0.750000 0.500000 0.568852
#
# Coordination Sequence:
#
# PCOD9411940 Si02
#       3
#     8   8   8
#     4  10  22  42  66  90 123 172 223 265 310 379
#     4  12  25  38  61  98 134 166 204 266 335 384
#     4  10  22  42  66  90 123 172 223 265 310 379
#
# _framework density 28.525426
#
# number of rings (size 3 to 8) (size 9 to 14) (size 15 to 20)
#    0.000    1.333    0.000    5.000    0.000    5.333 
#    0.000    0.000    0.000    0.000    0.000    0.000 
#    0.000    0.000    0.000    0.000    0.000    0.000 
#
# Total GULP energy -133957.407711 kJ/mol
# GULP energy per Si atom -5581.558655 kJ/mol
# Density = 2.846050 g / cm^3
# Si number density = 28.525426 Si / 1000 Ang^3
#
#
#
# Elastic Constant Matrix: (Units=GPa)
#
#
# Indices 1 2 3 4 5 6 
#
# 1 175.0258 46.0592 53.2196 0.0000 0.0000 0.0000
# 2 46.0592 127.7862 29.5754 0.0000 0.0000 0.0000
# 3 53.2196 29.5754 102.6965 0.0000 0.0000 0.0000
# 4 0.0000 0.0000 0.0000 29.0049 0.0000 0.0000
# 5 0.0000 0.0000 0.0000 0.0000 49.4454 0.0000
# 6 0.0000 0.0000 0.0000 0.0000 0.0000 34.4531
#
#
#
# Elastic Compliance Matrix: (Units=1/GPa)
#
#
# Indices 1 2 3 4 5 6 
#
# 1 0.007167 -0.001847 -0.003182 0.000000 0.000000 0.000000
# 2 -0.001847 0.008860 -0.001595 0.000000 0.000000 0.000000
# 3 -0.003182 -0.001595 0.011846 0.000000 0.000000 0.000000
# 4 0.000000 0.000000 0.000000 0.034477 0.000000 0.000000
# 5 0.000000 0.000000 0.000000 0.000000 0.020224 0.000000
# 6 0.000000 0.000000 0.000000 0.000000 0.000000 0.029025
#
#
# Mechanical properties :
#
#
# Convention : Reuss Voigt Hill
#
# Bulk Modulus (GPa) = 68.37237 73.69077 71.03157
# Shear Modulus (GPa) = 38.54396 41.02429 39.78413
#
# Velocity S-wave (km/s) = 3.67987 3.79643 3.73861
# Velocity P-wave (km/s) = 6.48662 6.71615 6.60238
#
# Compressibility (1/GPa) = 0.01462579
#
# Stress axis : x y z
#
# Youngs Moduli (GPa) = 139.52727 112.86316 84.41812
#
# Poissons Ratio (x) = 0.20843 0.26864
# Poissons Ratio (y) = 0.25767 0.13462
# Poissons Ratio (z) = 0.44401 0.17997
#
# Static dielectric constant tensor:
#      x y z
#    x 2.170270 0.000000 0.000000 
#    y 0.000000 2.580880 0.000000 
#    z 0.000000 0.000000 2.313630 
# 
# From -- ./inp_files/23354.got.cif
#   From: 2010.05.17/outbox.cif.g08.bks.cpg/sg52_12_cif.got.tgz:23354.got - 2010.06.03 12:15:38.
