data_PCOD9411217
_publ_section_title
;
Structure prediction by ZEFSAII (Michael W. Deem and Ramdas Pophale) SiO2 
 PCOD9411217
Probable space group: P N N A
;
_chemical_formula_sum "Si O2"
_cell_formula_units_Z 44
_cell_length_a 25.924957
_cell_length_b 11.032498
_cell_length_c 7.014632
_cell_angle_alpha 90.000000
_cell_angle_beta 90.000000
_cell_angle_gamma 90.000000
_cell_volume 2006.304255
_symmetry_space_group_name_H-M "P N N A"
_symmetry_group_IT_number 52
_symmetry_cell_setting 'orthorhombic'
loop_
_space_group_symop_operation_xyz
x,y,z
1/2-x,-y,z
x,1/2-y,1/2-z
1/2-x,1/2+y,1/2-z
-x,-y,-z
1/2+x,y,-z
-x,1/2+y,1/2+z
1/2+x,1/2-y,1/2+z
loop_
_atom_site_type_symbol
_atom_site_label
_atom_site_fract_x
_atom_site_fract_y
_atom_site_fract_z
Si Si1 0.743282 0.867546 0.558159
Si Si2 0.148497 0.318331 0.949914
Si Si3 0.547387 0.317696 0.449987
Si Si4 0.893083 0.466208 0.284040
Si Si5 0.791684 0.105786 0.986380
Si Si6 0.962159 0.250000 0.250000
O O1 0.802788 0.828810 0.583930
O O2 0.712868 0.890633 0.754991
O O3 0.720030 0.746976 0.462008
O O4 0.750000 0.000000 0.461325
O O5 0.163243 0.250000 0.750000
O O6 0.099211 0.247366 0.027213
O O7 0.130107 0.449324 0.880356
O O8 0.536751 0.250000 0.250000
O O9 0.565884 0.452434 0.400998
O O10 0.499613 0.298935 0.586188
O O11 0.846439 0.428205 0.422907
O O12 0.924012 0.356987 0.190877
O O13 0.750000 0.000000 0.038927
#
# Coordination Sequence:
#
# PCOD9411217 Si02
#       6
#     8   8   8   8   8   4
#     4  10  22  36  61  94 125 166 213 258 318 391
#     4   9  20  39  63  90 126 165 214 265 321 391
#     4   9  22  45  68  95 125 169 224 277 329 398
#     4  10  23  41  62  94 133 167 216 279 334 389
#     4  10  21  41  60  88 131 169 212 261 320 385
#     4  12  24  40  70  94 130 178 214 272 350 386
#
# _framework density 21.930872999999998
#
# number of rings (size 3 to 8) (size 9 to 14) (size 15 to 20)
#    0.000    2.545    0.000    2.727    2.545    9.455 
#    3.273    0.000    0.000    0.000    0.000    0.000 
#    0.000    0.000    0.000    0.000    0.000    0.000 
#
# Total GULP energy -245523.005769 kJ/mol
# GULP energy per Si atom -5580.068313 kJ/mol
# Density = 2.188096 g / cm^3
# Si number density = 21.930873 Si / 1000 Ang^3
#
#
#
# Elastic Constant Matrix: (Units=GPa)
#
#
# Indices 1 2 3 4 5 6 
#
# 1 77.1616 32.7498 3.9828 0.0000 0.0000 0.0000
# 2 32.7498 165.2722 10.2747 0.0000 0.0000 0.0000
# 3 3.9828 10.2747 55.1020 0.0000 0.0000 0.0000
# 4 0.0000 0.0000 0.0000 -19.7748 0.0000 0.0000
# 5 0.0000 0.0000 0.0000 0.0000 117.6442 0.0000
# 6 0.0000 0.0000 0.0000 0.0000 0.0000 -119.9898
#
#
#
# Elastic Compliance Matrix: (Units=1/GPa)
#
#
# Indices 1 2 3 4 5 6 
#
# 1 0.014164 -0.002775 -0.000506 0.000000 0.000000 0.000000
# 2 -0.002775 0.006665 -0.001042 0.000000 0.000000 0.000000
# 3 -0.000506 -0.001042 0.018379 0.000000 0.000000 0.000000
# 4 0.000000 0.000000 0.000000 -0.050569 0.000000 0.000000
# 5 0.000000 0.000000 0.000000 0.000000 0.008500 0.000000
# 6 0.000000 0.000000 0.000000 0.000000 0.000000 -0.008334
#
#
# Mechanical properties :
#
#
# Convention : Reuss Voigt Hill
#
# Bulk Modulus (GPa) = 32.72168 43.50560 38.11364
# Shear Modulus (GPa) = 654.49879 12.27782 333.38830
#
# Velocity S-wave (km/s) = 17.29408 2.36866 12.34293
# Velocity P-wave (km/s) = 20.34042 5.23082 14.85083
#
# Compressibility (1/GPa) = 0.03056078
#
# Stress axis : x y z
#
# Youngs Moduli (GPa) = 70.60239 150.02977 54.40962
#
# Poissons Ratio (x) = 0.41636 0.02755
# Poissons Ratio (y) = 0.19593 0.05671
# Poissons Ratio (z) = 0.03574 0.15637
#
# Static dielectric constant tensor:
#      x y z
#    x 1.765110 0.000000 0.000000 
#    y 0.000000 1.878300 0.000000 
#    z 0.000000 0.000000 1.836760 
# 
# From -- ./inp_files/14155.got.cif
#   From: 2010.05.17/outbox.cif.g08.bks.cpg/sg52_8_cif.got.tgz:14155.got - 2010.06.03 12:15:38.
