data_PCOD9411515
_publ_section_title
;
Structure prediction by ZEFSAII (Michael W. Deem and Ramdas Pophale) SiO2 
 PCOD9411515
Probable space group: P N N A
;
_chemical_formula_sum "Si O2"
_cell_formula_units_Z 48
_cell_length_a 5.374915
_cell_length_b 17.126984
_cell_length_c 26.104627
_cell_angle_alpha 90.000000
_cell_angle_beta 90.000000
_cell_angle_gamma 90.000000
_cell_volume 2403.089715
_symmetry_space_group_name_H-M "P N N A"
_symmetry_group_IT_number 52
_symmetry_cell_setting 'orthorhombic'
loop_
_space_group_symop_operation_xyz
x,y,z
1/2-x,-y,z
x,1/2-y,1/2-z
1/2-x,1/2+y,1/2-z
-x,-y,-z
1/2+x,y,-z
-x,1/2+y,1/2+z
1/2+x,1/2-y,1/2+z
loop_
_atom_site_type_symbol
_atom_site_label
_atom_site_fract_x
_atom_site_fract_y
_atom_site_fract_z
Si Si1 0.074930 0.569892 0.331488
Si Si2 0.194143 0.182931 0.292510
Si Si3 0.795955 0.913608 0.065023
Si Si4 0.388595 0.803603 0.123742
Si Si5 0.697345 0.088013 0.270629
Si Si6 0.718492 0.275271 0.514316
O O1 0.250000 0.500000 0.314677
O O2 0.245677 0.644602 0.335551
O O3 0.984734 0.560104 0.389835
O O4 0.863523 0.582014 0.290071
O O5 0.238263 0.250000 0.250000
O O6 0.095056 0.222884 0.345583
O O7 0.452135 0.132046 0.294316
O O8 0.954837 0.133253 0.276112
O O9 0.605151 0.858906 0.099123
O O10 0.750000 0.000000 0.041820
O O11 0.842687 0.855764 0.016930
O O12 0.223319 0.788271 0.073476
O O13 0.750000 0.000000 0.289880
O O14 0.450826 0.234129 0.511820
#
# Coordination Sequence:
#
# PCOD9411515 Si02
#       6
#     8   8   8   8   8   8
#     4  12  22  38  59  90 126 176 220 261 307 374
#     4  12  25  43  66  93 126 163 213 271 330 380
#     4  11  22  36  58  85 133 177 220 251 300 368
#     4  11  24  39  58  91 125 173 219 265 311 368
#     4  12  27  45  66  91 125 167 218 270 325 387
#     4  10  22  37  56  81 125 168 214 256 295 360
#
# _framework density 19.974288000000001
#
# number of rings (size 3 to 8) (size 9 to 14) (size 15 to 20)
#    0.000    0.667    5.000    3.500    2.333    3.333 
#    0.000    0.000    0.000    0.000    0.000    0.000 
#    0.000   53.333    0.000    0.000    0.000    0.000 
#
# Total GULP energy -267216.286630 kJ/mol
# GULP energy per Si atom -5567.005971 kJ/mol
# Density = 1.992883 g / cm^3
# Si number density = 19.974288 Si / 1000 Ang^3
#
#
#
# Elastic Constant Matrix: (Units=GPa)
#
#
# Indices 1 2 3 4 5 6 
#
# 1 116.0954 49.8623 13.1378 0.0000 0.0000 0.0000
# 2 49.8623 87.1857 37.4746 0.0000 0.0000 0.0000
# 3 13.1378 37.4746 93.0617 0.0000 0.0000 0.0000
# 4 0.0000 0.0000 0.0000 4.3245 0.0000 0.0000
# 5 0.0000 0.0000 0.0000 0.0000 41.3272 0.0000
# 6 0.0000 0.0000 0.0000 0.0000 0.0000 30.4403
#
#
#
# Elastic Compliance Matrix: (Units=1/GPa)
#
#
# Indices 1 2 3 4 5 6 
#
# 1 0.011536 -0.007132 0.001243 0.000000 0.000000 0.000000
# 2 -0.007132 0.018280 -0.006354 0.000000 0.000000 0.000000
# 3 0.001243 -0.006354 0.013129 0.000000 0.000000 0.000000
# 4 0.000000 0.000000 0.000000 0.231242 0.000000 0.000000
# 5 0.000000 0.000000 0.000000 0.000000 0.024197 0.000000
# 6 0.000000 0.000000 0.000000 0.000000 0.000000 0.032851
#
#
# Mechanical properties :
#
#
# Convention : Reuss Voigt Hill
#
# Bulk Modulus (GPa) = 54.17403 55.25468 54.71435
# Shear Modulus (GPa) = 13.81698 28.27628 21.04663
#
# Velocity S-wave (km/s) = 2.63295 3.76657 3.24957
# Velocity P-wave (km/s) = 6.03523 6.82928 6.44449
#
# Compressibility (1/GPa) = 0.01845903
#
# Stress axis : x y z
#
# Youngs Moduli (GPa) = 86.68466 54.70507 76.16863
#
# Poissons Ratio (x) = 0.39016 -0.09471
# Poissons Ratio (y) = 0.61824 0.48399
# Poissons Ratio (z) = -0.10778 0.34761
#
# Static dielectric constant tensor:
#      x y z
#    x 1.897030 0.000000 0.000000 
#    y 0.000000 1.820460 0.000000 
#    z 0.000000 0.000000 1.742620 
# 
# From -- ./inp_files/41697.got.cif
#   From: 2010.05.17/outbox.cif.g08.bks.cpg/sg52_21_cif.got.tgz:41697.got - 2010.06.03 12:15:38.
