data_PCOD9411353
_publ_section_title
;
Structure prediction by ZEFSAII (Michael W. Deem and Ramdas Pophale) SiO2 
 PCOD9411353
Probable space group: P N N A
;
_chemical_formula_sum "Si O2"
_cell_formula_units_Z 40
_cell_length_a 12.058953
_cell_length_b 8.170539
_cell_length_c 16.673713
_cell_angle_alpha 90.000000
_cell_angle_beta 90.000000
_cell_angle_gamma 90.000000
_cell_volume 1642.830025
_symmetry_space_group_name_H-M "P N N A"
_symmetry_group_IT_number 52
_symmetry_cell_setting 'orthorhombic'
loop_
_space_group_symop_operation_xyz
x,y,z
1/2-x,-y,z
x,1/2-y,1/2-z
1/2-x,1/2+y,1/2-z
-x,-y,-z
1/2+x,y,-z
-x,1/2+y,1/2+z
1/2+x,1/2-y,1/2+z
loop_
_atom_site_type_symbol
_atom_site_label
_atom_site_fract_x
_atom_site_fract_y
_atom_site_fract_z
Si Si1 0.685619 0.835794 0.173784
Si Si2 0.415882 0.289839 0.126882
Si Si3 0.687250 0.163127 0.873827
Si Si4 0.526555 0.677523 0.044070
Si Si5 0.031735 0.495523 0.257460
O O1 0.749639 0.750000 0.250000
O O2 0.631518 0.716784 0.104791
O O3 0.750000 0.000000 0.143488
O O4 0.579055 0.906246 0.219642
O O5 0.283932 0.294483 0.134732
O O6 0.463408 0.457425 0.164401
O O7 0.462060 0.153170 0.186017
O O8 0.442668 0.232312 0.038574
O O9 0.584052 0.236370 0.922174
O O10 0.750000 0.000000 0.907275
O O11 0.636426 0.103319 0.789839
O O12 0.500000 0.500000 0.000000
#
# Coordination Sequence:
#
# PCOD9411353 Si02
#       5
#     8   8   8   8   8
#     4  11  26  48  75 106 152 209 256 315 390 475
#     4  10  21  42  69 103 142 189 249 311 371 452
#     4   9  21  43  66 105 145 198 247 306 394 448
#     4  11  25  47  72 110 153 196 258 327 387 463
#     4   9  21  43  67 103 142 192 243 314 373 456
#
# _framework density 24.348227999999999
#
# number of rings (size 3 to 8) (size 9 to 14) (size 15 to 20)
#    0.000    2.000    0.000    1.200    2.800   12.000 
#   61.200    0.000    0.000    0.000    0.000    0.000 
#    0.000    0.000    0.000    0.000    0.000    0.000 
#
# Total GULP energy -223012.449457 kJ/mol
# GULP energy per Si atom -5575.311236 kJ/mol
# Density = 2.429281 g / cm^3
# Si number density = 24.348228 Si / 1000 Ang^3
#
#
#
# Elastic Constant Matrix: (Units=GPa)
#
#
# Indices 1 2 3 4 5 6 
#
# 1 66.1612 39.5027 -2.5193 0.0000 0.0000 0.0000
# 2 39.5027 126.0204 47.9435 0.0000 0.0000 0.0000
# 3 -2.5193 47.9435 146.9681 0.0000 0.0000 0.0000
# 4 0.0000 0.0000 0.0000 34.3169 0.0000 0.0000
# 5 0.0000 0.0000 0.0000 0.0000 17.8620 0.0000
# 6 0.0000 0.0000 0.0000 0.0000 0.0000 84.5788
#
#
#
# Elastic Compliance Matrix: (Units=1/GPa)
#
#
# Indices 1 2 3 4 5 6 
#
# 1 0.019460 -0.007109 0.002653 0.000000 0.000000 0.000000
# 2 -0.007109 0.011657 -0.003925 0.000000 0.000000 0.000000
# 3 0.002653 -0.003925 0.008130 0.000000 0.000000 0.000000
# 4 0.000000 0.000000 0.000000 0.029140 0.000000 0.000000
# 5 0.000000 0.000000 0.000000 0.000000 0.055985 0.000000
# 6 0.000000 0.000000 0.000000 0.000000 0.000000 0.011823
#
#
# Mechanical properties :
#
#
# Convention : Reuss Voigt Hill
#
# Bulk Modulus (GPa) = 44.47425 56.55595 50.51510
# Shear Modulus (GPa) = 31.16187 44.29971 37.73079
#
# Velocity S-wave (km/s) = 3.58137 4.27010 3.94081
# Velocity P-wave (km/s) = 5.95039 6.89855 6.44194
#
# Compressibility (1/GPa) = 0.02248492
#
# Stress axis : x y z
#
# Youngs Moduli (GPa) = 51.38654 85.78707 123.00259
#
# Poissons Ratio (x) = 0.60989 -0.32630
# Poissons Ratio (y) = 0.36532 0.48272
# Poissons Ratio (z) = -0.13632 0.33667
#
# Static dielectric constant tensor:
#      x y z
#    x 1.936380 0.000000 0.000000 
#    y 0.000000 2.182710 0.000000 
#    z 0.000000 0.000000 1.993880 
# 
# From -- ./inp_files/31922.got.cif
#   From: 2010.05.17/outbox.cif.g08.bks.cpg/sg52_16_cif.got.tgz:31922.got - 2010.06.03 12:15:38.
