data_PCOD9411575
_publ_section_title
;
Structure prediction by ZEFSAII (Michael W. Deem and Ramdas Pophale) SiO2 
 PCOD9411575
Probable space group: P N N A
;
_chemical_formula_sum "Si O2"
_cell_formula_units_Z 48
_cell_length_a 21.195990
_cell_length_b 11.102543
_cell_length_c 9.765602
_cell_angle_alpha 90.000000
_cell_angle_beta 90.000000
_cell_angle_gamma 90.000000
_cell_volume 2298.133166
_symmetry_space_group_name_H-M "P N N A"
_symmetry_group_IT_number 52
_symmetry_cell_setting 'orthorhombic'
loop_
_space_group_symop_operation_xyz
x,y,z
1/2-x,-y,z
x,1/2-y,1/2-z
1/2-x,1/2+y,1/2-z
-x,-y,-z
1/2+x,y,-z
-x,1/2+y,1/2+z
1/2+x,1/2-y,1/2+z
loop_
_atom_site_type_symbol
_atom_site_label
_atom_site_fract_x
_atom_site_fract_y
_atom_site_fract_z
Si Si1 0.488402 0.376572 0.079367
Si Si2 0.018100 0.500001 0.658440
Si Si3 0.889579 0.800506 0.118496
Si Si4 0.820348 0.861060 0.843138
Si Si5 0.168559 0.634054 0.345038
Si Si6 0.903568 0.213806 0.110210
O O1 0.475448 0.424595 0.235193
O O2 0.549388 0.286479 0.086602
O O3 0.500000 0.500000 0.000000
O O4 0.435044 0.312091 0.990213
O O5 0.082391 0.426451 0.668057
O O6 0.038588 0.636630 0.677449
O O7 0.000000 0.500000 0.500000
O O8 0.853962 0.750000 0.250000
O O9 0.848639 0.827484 0.988832
O O10 0.841841 0.750000 0.750000
O O11 0.744628 0.859206 0.850813
O O12 0.842639 0.994878 0.797701
O O13 0.149106 0.750000 0.250000
O O14 0.138843 0.645040 0.497184
O O15 0.867607 0.250000 0.250000
#
# Coordination Sequence:
#
# PCOD9411575 Si02
#       6
#     8   8   8   8   8   8
#     4  11  24  39  57  93 132 161 209 263 315 389
#     4  11  22  38  58  87 125 165 208 248 312 376
#     4  10  22  38  61  87 121 163 203 256 313 374
#     4  10  22  44  67  94 125 166 217 267 323 387
#     4  10  24  43  67  94 128 168 214 270 325 381
#     4  12  24  40  64  92 128 170 212 260 323 390
#
# _framework density 20.886519
#
# number of rings (size 3 to 8) (size 9 to 14) (size 15 to 20)
#    0.000    1.333    5.000    0.000    2.333    4.000 
#    0.000    0.000    0.000    0.000    0.000    0.000 
#    0.000    0.000    0.000    0.000    0.000    0.000 
#
# Total GULP energy -267220.936316 kJ/mol
# GULP energy per Si atom -5567.102840 kJ/mol
# Density = 2.083898 g / cm^3
# Si number density = 20.886519 Si / 1000 Ang^3
#
#
#
# Elastic Constant Matrix: (Units=GPa)
#
#
# Indices 1 2 3 4 5 6 
#
# 1 30.6237 33.0884 24.1091 0.0000 0.0000 0.0000
# 2 33.0884 159.9577 62.6388 0.0000 0.0000 0.0000
# 3 24.1091 62.6388 138.1924 0.0000 0.0000 0.0000
# 4 0.0000 0.0000 0.0000 43.0221 0.0000 0.0000
# 5 0.0000 0.0000 0.0000 0.0000 22.5784 0.0000
# 6 0.0000 0.0000 0.0000 0.0000 0.0000 -2.4725
#
#
#
# Elastic Compliance Matrix: (Units=1/GPa)
#
#
# Indices 1 2 3 4 5 6 
#
# 1 0.044082 -0.007425 -0.004325 0.000000 0.000000 0.000000
# 2 -0.007425 0.008851 -0.002717 0.000000 0.000000 0.000000
# 3 -0.004325 -0.002717 0.009222 0.000000 0.000000 0.000000
# 4 0.000000 0.000000 0.000000 0.023244 0.000000 0.000000
# 5 0.000000 0.000000 0.000000 0.000000 0.044290 0.000000
# 6 0.000000 0.000000 0.000000 0.000000 0.000000 -0.404447
#
#
# Mechanical properties :
#
#
# Convention : Reuss Voigt Hill
#
# Bulk Modulus (GPa) = 30.10043 63.16069 46.63056
# Shear Modulus (GPa) = -21.29930 26.55477 2.62774
#
# Velocity S-wave (km/s) = -3.19684 3.56951 1.12287
# Velocity P-wave (km/s) = 0.90352 6.87707 4.90462
#
# Compressibility (1/GPa) = 0.03322211
#
# Stress axis : x y z
#
# Youngs Moduli (GPa) = 22.68505 112.97608 108.43340
#
# Poissons Ratio (x) = 0.83885 0.46897
# Poissons Ratio (y) = 0.16844 0.29459
# Poissons Ratio (z) = 0.09811 0.30693
#
# Static dielectric constant tensor:
#      x y z
#    x 1.777920 0.000000 0.000000 
#    y 0.000000 1.881700 0.000000 
#    z 0.000000 0.000000 1.856440 
# 
# From -- ./inp_files/14240.got.cif
#   From: 2010.05.17/outbox.cif.g08.bks.cpg/sg52_8_cif.got.tgz:14240.got - 2010.06.03 12:15:38.
