data_PCOD9411168
_publ_section_title
;
Structure prediction by ZEFSAII (Michael W. Deem and Ramdas Pophale) SiO2 
 PCOD9411168
Probable space group: P N N A
;
_chemical_formula_sum "Si O2"
_cell_formula_units_Z 60
_cell_length_a 27.580083
_cell_length_b 8.369227
_cell_length_c 11.705762
_cell_angle_alpha 90.000000
_cell_angle_beta 90.000000
_cell_angle_gamma 90.000000
_cell_volume 2701.970519
_symmetry_space_group_name_H-M "P N N A"
_symmetry_group_IT_number 52
_symmetry_cell_setting 'orthorhombic'
loop_
_space_group_symop_operation_xyz
x,y,z
1/2-x,-y,z
x,1/2-y,1/2-z
1/2-x,1/2+y,1/2-z
-x,-y,-z
1/2+x,y,-z
-x,1/2+y,1/2+z
1/2+x,1/2-y,1/2+z
loop_
_atom_site_type_symbol
_atom_site_label
_atom_site_fract_x
_atom_site_fract_y
_atom_site_fract_z
Si Si1 0.140877 0.584047 0.825301
Si Si2 0.892851 0.056032 0.690887
Si Si3 0.446341 0.327213 0.977179
Si Si4 0.295528 0.883100 0.984140
Si Si5 0.456304 0.771807 0.371629
Si Si6 0.180292 0.250000 0.750000
Si Si7 0.805241 0.523863 0.951403
Si Si8 0.897760 0.474751 0.545160
O O1 0.145960 0.750000 0.750000
O O2 0.089208 0.579845 0.891215
O O3 0.148236 0.410406 0.766876
O O4 0.180317 0.562050 0.928331
O O5 0.932574 0.135936 0.608050
O O6 0.911004 0.876621 0.667920
O O7 0.840077 0.063130 0.637531
O O8 0.891001 0.089198 0.824451
O O9 0.502466 0.341913 0.951857
O O10 0.426561 0.146738 0.965282
O O11 0.287834 0.805845 0.858077
O O12 0.250000 0.000000 0.013061
O O13 0.309214 0.717731 0.050088
O O14 0.345081 0.984609 0.995424
O O15 0.483210 0.750000 0.250000
O O16 0.433071 0.623418 0.435518
O O17 0.750000 0.500000 0.924950
#
# Coordination Sequence:
#
# PCOD9411168 Si02
#       8
#     8   8   8   8   8   4   8   8
#     4  10  22  41  65  95 135 175 220 282 332 404
#     4  10  22  42  65  91 132 175 212 273 334 392
#     4  11  22  39  66  97 129 168 225 272 329 399
#     4  11  25  42  65  97 130 171 220 272 332 402
#     4  10  21  40  67  91 128 177 214 269 338 398
#     4  10  24  44  64  96 136 180 220 270 348 398
#     4  10  23  41  64  94 127 171 220 273 331 395
#     4  11  23  42  66  96 133 171 218 271 336 397
#
# _framework density 22.206014
#
# number of rings (size 3 to 8) (size 9 to 14) (size 15 to 20)
#    0.000    1.600    1.333    2.400    5.600    2.667 
#    1.200    0.000    0.000    0.000    0.000    0.000 
#    0.000    0.000    0.000    0.000    0.000    0.000 
#
# Total GULP energy -334172.729821 kJ/mol
# GULP energy per Si atom -5569.545497 kJ/mol
# Density = 2.215547 g / cm^3
# Si number density = 22.206014 Si / 1000 Ang^3
#
#
#
# Elastic Constant Matrix: (Units=GPa)
#
#
# Indices 1 2 3 4 5 6 
#
# 1 105.8497 5.5705 44.2745 0.0000 0.0000 0.0000
# 2 5.5705 87.0393 23.2198 0.0000 0.0000 0.0000
# 3 44.2745 23.2198 66.6598 0.0000 0.0000 0.0000
# 4 0.0000 0.0000 0.0000 31.9186 0.0000 0.0000
# 5 0.0000 0.0000 0.0000 0.0000 6.1590 0.0000
# 6 0.0000 0.0000 0.0000 0.0000 0.0000 7.7950
#
#
#
# Elastic Compliance Matrix: (Units=1/GPa)
#
#
# Indices 1 2 3 4 5 6 
#
# 1 0.013295 0.001659 -0.009409 0.000000 0.000000 0.000000
# 2 0.001659 0.012873 -0.005586 0.000000 0.000000 0.000000
# 3 -0.009409 -0.005586 0.023196 0.000000 0.000000 0.000000
# 4 0.000000 0.000000 0.000000 0.031330 0.000000 0.000000
# 5 0.000000 0.000000 0.000000 0.000000 0.162364 0.000000
# 6 0.000000 0.000000 0.000000 0.000000 0.000000 0.128288
#
#
# Mechanical properties :
#
#
# Convention : Reuss Voigt Hill
#
# Bulk Modulus (GPa) = 44.06482 45.07536 44.57009
# Shear Modulus (GPa) = 12.32796 21.60678 16.96737
#
# Velocity S-wave (km/s) = 2.35875 3.12270 2.76721
# Velocity P-wave (km/s) = 5.22542 5.77447 5.50679
#
# Compressibility (1/GPa) = 0.02269384
#
# Stress axis : x y z
#
# Youngs Moduli (GPa) = 75.21395 77.68139 43.11027
#
# Poissons Ratio (x) = -0.12888 0.40560
# Poissons Ratio (y) = -0.12478 0.24082
# Poissons Ratio (z) = 0.70765 0.43393
#
# Static dielectric constant tensor:
#      x y z
#    x 1.784720 0.000000 0.000000 
#    y 0.000000 1.943920 0.000000 
#    z 0.000000 0.000000 2.438410 
# 
# From -- ./inp_files/22905.got.cif
#   From: 2010.05.17/outbox.cif.g08.bks.cpg/sg52_12_cif.got.tgz:22905.got - 2010.06.03 12:15:38.
