data_PCOD9411370
_publ_section_title
;
Structure prediction by ZEFSAII (Michael W. Deem and Ramdas Pophale) SiO2 
 PCOD9411370
Probable space group: P N N A
;
_chemical_formula_sum "Si O2"
_cell_formula_units_Z 24
_cell_length_a 7.107788
_cell_length_b 9.794526
_cell_length_c 11.824462
_cell_angle_alpha 90.000000
_cell_angle_beta 90.000000
_cell_angle_gamma 90.000000
_cell_volume 823.188471
_symmetry_space_group_name_H-M "P N N A"
_symmetry_group_IT_number 52
_symmetry_cell_setting 'orthorhombic'
loop_
_space_group_symop_operation_xyz
x,y,z
1/2-x,-y,z
x,1/2-y,1/2-z
1/2-x,1/2+y,1/2-z
-x,-y,-z
1/2+x,y,-z
-x,1/2+y,1/2+z
1/2+x,1/2-y,1/2+z
loop_
_atom_site_type_symbol
_atom_site_label
_atom_site_fract_x
_atom_site_fract_y
_atom_site_fract_z
Si Si1 0.598037 0.813304 0.408363
Si Si2 0.471610 0.482275 0.632912
Si Si3 0.479488 0.113796 0.349634
O O1 0.500313 0.680140 0.357719
O O2 0.808255 0.829701 0.360944
O O3 0.620709 0.813094 0.545070
O O4 0.489142 0.952449 0.381364
O O5 0.250000 0.500000 0.655327
O O6 0.500000 0.500000 0.500000
O O7 0.570424 0.592017 0.716855
#
# Coordination Sequence:
#
# PCOD9411370 Si02
#       3
#     8   8   8
#     4  10  21  42  70  95 131 172 225 271 333 395
#     4  12  25  42  66 101 135 175 218 279 337 398
#     4  10  22  43  71  94 130 179 221 274 338 391
#
# _framework density 29.154926
#
# number of rings (size 3 to 8) (size 9 to 14) (size 15 to 20)
#    0.000    1.333    3.333    3.000    0.000    4.000 
#   12.000    0.000    0.000    0.000    0.000    0.000 
#    0.000    0.000    0.000    0.000    0.000    0.000 
#
# Total GULP energy -134397.299185 kJ/mol
# GULP energy per Si atom -5599.887466 kJ/mol
# Density = 2.908857 g / cm^3
# Si number density = 29.154926 Si / 1000 Ang^3
#
#
#
# Elastic Constant Matrix: (Units=GPa)
#
#
# Indices 1 2 3 4 5 6 
#
# 1 70.9238 -2.0463 31.9245 0.0000 0.0000 0.0000
# 2 -2.0463 112.7513 90.5462 0.0000 0.0000 0.0000
# 3 31.9245 90.5462 306.9677 0.0000 0.0000 0.0000
# 4 0.0000 0.0000 0.0000 81.5976 0.0000 0.0000
# 5 0.0000 0.0000 0.0000 0.0000 27.6041 0.0000
# 6 0.0000 0.0000 0.0000 0.0000 0.0000 33.1330
#
#
#
# Elastic Compliance Matrix: (Units=1/GPa)
#
#
# Indices 1 2 3 4 5 6 
#
# 1 0.015134 0.002016 -0.002169 0.000000 0.000000 0.000000
# 2 0.002016 0.011891 -0.003717 0.000000 0.000000 0.000000
# 3 -0.002169 -0.003717 0.004580 0.000000 0.000000 0.000000
# 4 0.000000 0.000000 0.000000 0.012255 0.000000 0.000000
# 5 0.000000 0.000000 0.000000 0.000000 0.036227 0.000000
# 6 0.000000 0.000000 0.000000 0.000000 0.000000 0.030181
#
#
# Mechanical properties :
#
#
# Convention : Reuss Voigt Hill
#
# Bulk Modulus (GPa) = 41.90183 81.27686 61.58934
# Shear Modulus (GPa) = 39.69461 53.14815 46.42138
#
# Velocity S-wave (km/s) = 3.69386 4.27424 3.99461
# Velocity P-wave (km/s) = 5.70930 7.23166 6.51510
#
# Compressibility (1/GPa) = 0.02386531
#
# Stress axis : x y z
#
# Youngs Moduli (GPa) = 66.07649 84.09913 218.35768
#
# Poissons Ratio (x) = -0.16956 0.47354
# Poissons Ratio (y) = -0.13323 0.81166
# Poissons Ratio (z) = 0.14330 0.31260
#
# Static dielectric constant tensor:
#      x y z
#    x 2.233690 0.000000 0.000000 
#    y 0.000000 2.333630 0.000000 
#    z 0.000000 0.000000 2.459210 
# 
# From -- ./inp_files/16242.got.cif
#   From: 2010.05.17/outbox.cif.g08.bks.cpg/sg52_9_cif.got.tgz:16242.got - 2010.06.03 12:15:38.
