data_PCOD9411463
_publ_section_title
;
Structure prediction by ZEFSAII (Michael W. Deem and Ramdas Pophale) SiO2 
 PCOD9411463
Probable space group: P N N A
;
_chemical_formula_sum "Si O2"
_cell_formula_units_Z 36
_cell_length_a 9.342945
_cell_length_b 6.816102
_cell_length_c 21.894755
_cell_angle_alpha 90.000000
_cell_angle_beta 90.000000
_cell_angle_gamma 90.000000
_cell_volume 1394.311993
_symmetry_space_group_name_H-M "P N N A"
_symmetry_group_IT_number 52
_symmetry_cell_setting 'orthorhombic'
loop_
_space_group_symop_operation_xyz
x,y,z
1/2-x,-y,z
x,1/2-y,1/2-z
1/2-x,1/2+y,1/2-z
-x,-y,-z
1/2+x,y,-z
-x,1/2+y,1/2+z
1/2+x,1/2-y,1/2+z
loop_
_atom_site_type_symbol
_atom_site_label
_atom_site_fract_x
_atom_site_fract_y
_atom_site_fract_z
Si Si1 0.811059 0.250000 0.750000
Si Si2 0.295407 0.266377 0.900583
Si Si3 0.998473 0.708388 0.349631
Si Si4 0.624195 0.644397 0.972031
Si Si5 0.024330 0.158855 0.310524
O O1 0.909848 0.387484 0.705456
O O2 0.693056 0.182890 0.699803
O O3 0.250000 0.500000 0.899720
O O4 0.447482 0.240901 0.867701
O O5 0.165245 0.164803 0.865288
O O6 0.316252 0.227449 0.971899
O O7 0.071895 0.727231 0.415490
O O8 0.997760 0.930088 0.322148
O O9 0.750000 0.500000 0.950488
O O10 0.500000 0.500000 0.000000
O O11 0.952340 0.250000 0.250000
#
# Coordination Sequence:
#
# PCOD9411463 Si02
#       5
#     4   8   8   8   8
#     4  10  22  28  50  68 100 144 156 214 234 288
#     4   9  18  31  47  72  99 133 155 205 254 292
#     4  11  20  34  48  75 108 126 174 194 249 308
#     4  11  17  29  50  74 102 129 155 210 263 297
#     4   9  19  32  47  70 100 136 164 200 245 288
#
# _framework density 25.819186999999999
#
# number of rings (size 3 to 8) (size 9 to 14) (size 15 to 20)
#    0.667    1.333    6.667    2.000    1.556    0.000 
#    0.000    0.000    0.000    0.000    0.000    1.556 
#    0.000    0.000    0.000    0.000    0.000    0.000 
#
# Total GULP energy -200903.611153 kJ/mol
# GULP energy per Si atom -5580.655865 kJ/mol
# Density = 2.576042 g / cm^3
# Si number density = 25.819187 Si / 1000 Ang^3
#
#
#
# Elastic Constant Matrix: (Units=GPa)
#
#
# Indices 1 2 3 4 5 6 
#
# 1 176.5219 23.4851 85.5854 0.0000 0.0000 0.0000
# 2 23.4851 71.0547 14.3898 0.0000 0.0000 0.0000
# 3 85.5854 14.3898 194.5809 0.0000 0.0000 0.0000
# 4 0.0000 0.0000 0.0000 17.0528 0.0000 0.0000
# 5 0.0000 0.0000 0.0000 0.0000 54.4623 0.0000
# 6 0.0000 0.0000 0.0000 0.0000 0.0000 36.9632
#
#
#
# Elastic Compliance Matrix: (Units=1/GPa)
#
#
# Indices 1 2 3 4 5 6 
#
# 1 0.007425 -0.001820 -0.003131 0.000000 0.000000 0.000000
# 2 -0.001820 0.014734 -0.000289 0.000000 0.000000 0.000000
# 3 -0.003131 -0.000289 0.006538 0.000000 0.000000 0.000000
# 4 0.000000 0.000000 0.000000 0.058641 0.000000 0.000000
# 5 0.000000 0.000000 0.000000 0.000000 0.018361 0.000000
# 6 0.000000 0.000000 0.000000 0.000000 0.000000 0.027054
#
#
# Mechanical properties :
#
#
# Convention : Reuss Voigt Hill
#
# Bulk Modulus (GPa) = 54.89671 76.56424 65.73048
# Shear Modulus (GPa) = 33.48804 42.94212 38.21508
#
# Velocity S-wave (km/s) = 3.60533 4.08264 3.85139
# Velocity P-wave (km/s) = 6.21605 7.20710 6.72985
#
# Compressibility (1/GPa) = 0.01821603
#
# Stress axis : x y z
#
# Youngs Moduli (GPa) = 134.67239 67.87124 152.95261
#
# Poissons Ratio (x) = 0.12353 0.47896
# Poissons Ratio (y) = 0.24512 0.04421
# Poissons Ratio (z) = 0.42172 0.01962
#
# Static dielectric constant tensor:
#      x y z
#    x 2.081010 0.000000 0.000000 
#    y 0.000000 2.640960 0.000000 
#    z 0.000000 0.000000 1.995550 
# 
# From -- ./inp_files/39354.got.cif
#   From: 2010.05.17/outbox.cif.g08.bks.cpg/sg52_20_cif.got.tgz:39354.got - 2010.06.03 12:15:38.
