data_PCOD9411247
_publ_section_title
;
Structure prediction by ZEFSAII (Michael W. Deem and Ramdas Pophale) SiO2 
 PCOD9411247
Probable space group: P N N A
;
_chemical_formula_sum "Si O2"
_cell_formula_units_Z 40
_cell_length_a 15.386728
_cell_length_b 13.432437
_cell_length_c 9.730655
_cell_angle_alpha 90.000000
_cell_angle_beta 90.000000
_cell_angle_gamma 90.000000
_cell_volume 2011.143982
_symmetry_space_group_name_H-M "P N N A"
_symmetry_group_IT_number 52
_symmetry_cell_setting 'orthorhombic'
loop_
_space_group_symop_operation_xyz
x,y,z
1/2-x,-y,z
x,1/2-y,1/2-z
1/2-x,1/2+y,1/2-z
-x,-y,-z
1/2+x,y,-z
-x,1/2+y,1/2+z
1/2+x,1/2-y,1/2+z
loop_
_atom_site_type_symbol
_atom_site_label
_atom_site_fract_x
_atom_site_fract_y
_atom_site_fract_z
Si Si1 0.183636 0.073396 0.972910
Si Si2 0.629802 0.928323 0.278438
Si Si3 0.443034 0.636543 0.295600
Si Si4 0.653106 0.457438 0.948428
Si Si5 0.218430 0.219362 0.616599
O O1 0.238078 0.174815 0.950304
O O2 0.250000 0.000000 0.050048
O O3 0.159465 0.013199 0.832077
O O4 0.100041 0.106364 0.059618
O O5 0.546338 0.876680 0.213084
O O6 0.702984 0.847189 0.322357
O O7 0.612065 0.980039 0.426058
O O8 0.421897 0.750000 0.250000
O O9 0.403026 0.558449 0.186127
O O10 0.750000 0.500000 0.921183
O O11 0.668330 0.348599 0.011657
O O12 0.162463 0.250000 0.750000
#
# Coordination Sequence:
#
# PCOD9411247 Si02
#       5
#     8   8   8   8   8
#     4  12  23  40  66  91 124 166 211 261 309 380
#     4  11  23  40  66  89 120 168 214 253 305 383
#     4  12  25  39  58  95 136 155 195 274 330 355
#     4  10  21  41  66  84 118 171 207 246 306 389
#     4  11  19  39  65  92 113 160 224 245 294 368
#
# _framework density 19.889178000000001
#
# number of rings (size 3 to 8) (size 9 to 14) (size 15 to 20)
#    0.000    0.800    6.000    3.000    0.000    0.000 
#    0.000    0.000    0.000    0.000    0.000    0.000 
#    0.000    0.000    0.000    0.000    0.000    0.000 
#
# Total GULP energy -222889.494766 kJ/mol
# GULP energy per Si atom -5572.237369 kJ/mol
# Density = 1.984391 g / cm^3
# Si number density = 19.889178 Si / 1000 Ang^3
#
#
#
# Elastic Constant Matrix: (Units=GPa)
#
#
# Indices 1 2 3 4 5 6 
#
# 1 65.0694 6.2500 28.8958 0.0000 0.0000 0.0000
# 2 6.2500 113.2770 29.2002 0.0000 0.0000 0.0000
# 3 28.8958 29.2002 82.8692 0.0000 0.0000 0.0000
# 4 0.0000 0.0000 0.0000 29.0999 0.0000 0.0000
# 5 0.0000 0.0000 0.0000 0.0000 30.8432 0.0000
# 6 0.0000 0.0000 0.0000 0.0000 0.0000 24.8982
#
#
#
# Elastic Compliance Matrix: (Units=1/GPa)
#
#
# Indices 1 2 3 4 5 6 
#
# 1 0.018234 0.000696 -0.006603 0.000000 0.000000 0.000000
# 2 0.000696 0.009736 -0.003674 0.000000 0.000000 0.000000
# 3 -0.006603 -0.003674 0.015664 0.000000 0.000000 0.000000
# 4 0.000000 0.000000 0.000000 0.034364 0.000000 0.000000
# 5 0.000000 0.000000 0.000000 0.000000 0.032422 0.000000
# 6 0.000000 0.000000 0.000000 0.000000 0.000000 0.040164
#
#
# Mechanical properties :
#
#
# Convention : Reuss Voigt Hill
#
# Bulk Modulus (GPa) = 40.86131 43.32306 42.09218
# Shear Modulus (GPa) = 28.10516 30.09289 29.09902
#
# Velocity S-wave (km/s) = 3.76318 3.89399 3.82914
# Velocity P-wave (km/s) = 6.28261 6.48437 6.38429
#
# Compressibility (1/GPa) = 0.02447303
#
# Stress axis : x y z
#
# Youngs Moduli (GPa) = 54.84355 102.70678 63.84017
#
# Poissons Ratio (x) = -0.07150 0.42155
# Poissons Ratio (y) = -0.03818 0.23452
# Poissons Ratio (z) = 0.36214 0.37730
#
# Static dielectric constant tensor:
#      x y z
#    x 1.720180 0.000000 0.000000 
#    y 0.000000 1.743280 0.000000 
#    z 0.000000 0.000000 1.753380 
# 
# From -- ./inp_files/10056.got.cif
#   From: 2010.05.17/outbox.cif.g08.bks.cpg/sg52_6_cif.got.tgz:10056.got - 2010.06.03 12:15:38.
