data_PCOD9411847
_publ_section_title
;
Structure prediction by ZEFSAII (Michael W. Deem and Ramdas Pophale) SiO2 
 PCOD9411847
Probable space group: P N N A
;
_chemical_formula_sum "Si O2"
_cell_formula_units_Z 56
_cell_length_a 8.062006
_cell_length_b 20.157180
_cell_length_c 14.485355
_cell_angle_alpha 90.000000
_cell_angle_beta 90.000000
_cell_angle_gamma 90.000000
_cell_volume 2353.976019
_symmetry_space_group_name_H-M "P N N A"
_symmetry_group_IT_number 52
_symmetry_cell_setting 'orthorhombic'
loop_
_space_group_symop_operation_xyz
x,y,z
1/2-x,-y,z
x,1/2-y,1/2-z
1/2-x,1/2+y,1/2-z
-x,-y,-z
1/2+x,y,-z
-x,1/2+y,1/2+z
1/2+x,1/2-y,1/2+z
loop_
_atom_site_type_symbol
_atom_site_label
_atom_site_fract_x
_atom_site_fract_y
_atom_site_fract_z
Si Si1 0.438092 0.907264 0.600991
Si Si2 0.479271 0.514754 0.381583
Si Si3 0.606893 0.715249 0.849810
Si Si4 0.430587 0.353647 0.905093
Si Si5 0.223596 0.257281 0.533562
Si Si6 0.419505 0.968677 0.329717
Si Si7 0.300825 0.913235 0.963445
O O1 0.558637 0.862243 0.665267
O O2 0.250312 0.884710 0.613952
O O3 0.499887 0.883284 0.500833
O O4 0.451082 0.985152 0.615918
O O5 0.440564 0.513844 0.275959
O O6 0.337907 0.554209 0.437182
O O7 0.533849 0.440468 0.411899
O O8 0.645500 0.556272 0.408390
O O9 0.631894 0.750000 0.750000
O O10 0.440614 0.741665 0.904876
O O11 0.749593 0.727179 0.928895
O O12 0.380208 0.276769 0.913593
O O13 0.553448 0.389971 0.835519
O O14 0.226462 0.335842 0.527805
O O15 0.250000 0.000000 0.366299
#
# Coordination Sequence:
#
# PCOD9411847 Si02
#       7
#     8   8   8   8   8   8   8
#     4  10  22  41  65  92 136 177 222 286 355 424
#     4  10  25  40  66  97 137 179 232 284 348 429
#     4  10  23  41  66 102 133 184 238 293 354 436
#     4  10  22  42  67  99 132 179 230 288 356 428
#     4  10  22  43  71  96 140 181 235 294 364 428
#     4  12  26  40  64  99 136 177 230 290 349 423
#     4  10  22  43  66  95 137 180 226 289 354 419
#
# _framework density 23.789536999999999
#
# number of rings (size 3 to 8) (size 9 to 14) (size 15 to 20)
#    0.000    1.714    0.000    2.571   10.000    3.429 
#    0.000    0.714    0.000    0.000    0.000    0.000 
#    0.000    0.000    0.000    0.000    0.000    0.000 
#
# Total GULP energy -312359.027535 kJ/mol
# GULP energy per Si atom -5577.839777 kJ/mol
# Density = 2.373539 g / cm^3
# Si number density = 23.789537 Si / 1000 Ang^3
#
#
#
# Elastic Constant Matrix: (Units=GPa)
#
#
# Indices 1 2 3 4 5 6 
#
# 1 116.3087 26.2393 0.4423 0.0000 0.0000 0.0000
# 2 26.2393 173.8636 18.1672 0.0000 0.0000 0.0000
# 3 0.4423 18.1672 79.8242 0.0000 0.0000 0.0000
# 4 0.0000 0.0000 0.0000 25.1384 0.0000 0.0000
# 5 0.0000 0.0000 0.0000 0.0000 77.8941 0.0000
# 6 0.0000 0.0000 0.0000 0.0000 0.0000 26.1359
#
#
#
# Elastic Compliance Matrix: (Units=1/GPa)
#
#
# Indices 1 2 3 4 5 6 
#
# 1 0.008906 -0.001372 0.000263 0.000000 0.000000 0.000000
# 2 -0.001372 0.006103 -0.001381 0.000000 0.000000 0.000000
# 3 0.000263 -0.001381 0.012840 0.000000 0.000000 0.000000
# 4 0.000000 0.000000 0.000000 0.039780 0.000000 0.000000
# 5 0.000000 0.000000 0.000000 0.000000 0.012838 0.000000
# 6 0.000000 0.000000 0.000000 0.000000 0.000000 0.038262
#
#
# Mechanical properties :
#
#
# Convention : Reuss Voigt Hill
#
# Bulk Modulus (GPa) = 43.72661 51.07712 47.40186
# Shear Modulus (GPa) = 38.07137 47.51020 42.79078
#
# Velocity S-wave (km/s) = 4.00477 4.47375 4.24574
# Velocity P-wave (km/s) = 6.30910 6.94283 6.63354
#
# Compressibility (1/GPa) = 0.02286937
#
# Stress axis : x y z
#
# Youngs Moduli (GPa) = 112.28089 163.85458 77.87884
#
# Poissons Ratio (x) = 0.22474 -0.02047
# Poissons Ratio (y) = 0.15400 0.10758
# Poissons Ratio (z) = -0.02951 0.22634
#
# Static dielectric constant tensor:
#      x y z
#    x 2.036400 0.000000 0.000000 
#    y 0.000000 2.034370 0.000000 
#    z 0.000000 0.000000 1.909070 
# 
# From -- ./inp_files/24964.got.cif
#   From: 2010.05.17/outbox.cif.g08.bks.cpg/sg52_13_cif.got.tgz:24964.got - 2010.06.03 12:15:38.
