data_PCOD9411002
_publ_section_title
;
Structure prediction by ZEFSAII (Michael W. Deem and Ramdas Pophale) SiO2 
 PCOD9411002
Probable space group: P N N A
;
_chemical_formula_sum "Si O2"
_cell_formula_units_Z 32
_cell_length_a 22.213830
_cell_length_b 7.056711
_cell_length_c 9.870224
_cell_angle_alpha 90.000000
_cell_angle_beta 90.000000
_cell_angle_gamma 90.000000
_cell_volume 1547.222543
_symmetry_space_group_name_H-M "P N N A"
_symmetry_group_IT_number 52
_symmetry_cell_setting 'orthorhombic'
loop_
_space_group_symop_operation_xyz
x,y,z
1/2-x,-y,z
x,1/2-y,1/2-z
1/2-x,1/2+y,1/2-z
-x,-y,-z
1/2+x,y,-z
-x,1/2+y,1/2+z
1/2+x,1/2-y,1/2+z
loop_
_atom_site_type_symbol
_atom_site_label
_atom_site_fract_x
_atom_site_fract_y
_atom_site_fract_z
Si Si1 0.496526 0.271122 0.483975
Si Si2 0.938065 0.750000 0.750000
Si Si3 0.681890 0.932415 0.157294
Si Si4 0.872967 0.374880 0.630796
Si Si5 0.910873 0.750000 0.250000
O O1 0.500000 0.500000 0.500000
O O2 0.517645 0.189334 0.627468
O O3 0.429604 0.251044 0.426320
O O4 0.545409 0.207836 0.374951
O O5 0.898225 0.574796 0.691831
O O6 0.672811 0.750000 0.250000
O O7 0.750000 0.000000 0.177394
O O8 0.632435 0.081172 0.207082
O O9 0.669324 0.903839 0.998031
O O10 0.844788 0.250000 0.750000
#
# Coordination Sequence:
#
# PCOD9411002 Si02
#       5
#     8   4   8   8   4
#     4  10  21  39  65 102 142 176 216 277 354 407
#     4  10  22  40  61  97 148 174 212 278 344 412
#     4  12  28  48  72  99 134 189 245 288 348 421
#     4  11  25  44  66 106 137 182 229 280 358 420
#     4  12  22  46  71 103 144 176 234 294 342 424
#
# _framework density 20.682220999999998
#
# number of rings (size 3 to 8) (size 9 to 14) (size 15 to 20)
#    0.000    1.000    7.500    0.000    5.250    1.000 
#    2.250    0.000    0.000    0.000    0.000    0.000 
#    0.000    0.000    0.000    0.000    0.000    0.000 
#
# Total GULP energy -178884.137059 kJ/mol
# GULP energy per Si atom -5590.129283 kJ/mol
# Density = 2.063515 g / cm^3
# Si number density = 20.682221 Si / 1000 Ang^3
#
#
#
# Elastic Constant Matrix: (Units=GPa)
#
#
# Indices 1 2 3 4 5 6 
#
# 1 49.2341 6.9818 13.7223 0.0000 0.0000 0.0000
# 2 6.9818 91.5920 38.2114 0.0000 0.0000 0.0000
# 3 13.7223 38.2114 156.6198 0.0000 0.0000 0.0000
# 4 0.0000 0.0000 0.0000 40.5183 0.0000 0.0000
# 5 0.0000 0.0000 0.0000 0.0000 10.4714 0.0000
# 6 0.0000 0.0000 0.0000 0.0000 0.0000 6.0916
#
#
#
# Elastic Compliance Matrix: (Units=1/GPa)
#
#
# Indices 1 2 3 4 5 6 
#
# 1 0.020889 -0.000923 -0.001605 0.000000 0.000000 0.000000
# 2 -0.000923 0.012196 -0.002895 0.000000 0.000000 0.000000
# 3 -0.001605 -0.002895 0.007232 0.000000 0.000000 0.000000
# 4 0.000000 0.000000 0.000000 0.024680 0.000000 0.000000
# 5 0.000000 0.000000 0.000000 0.000000 0.095498 0.000000
# 6 0.000000 0.000000 0.000000 0.000000 0.000000 0.164161
#
#
# Mechanical properties :
#
#
# Convention : Reuss Voigt Hill
#
# Bulk Modulus (GPa) = 33.93044 46.14191 40.03617
# Shear Modulus (GPa) = 14.47910 27.31828 20.89869
#
# Velocity S-wave (km/s) = 2.64876 3.63830 3.18223
# Velocity P-wave (km/s) = 5.07896 6.32519 5.73602
#
# Compressibility (1/GPa) = 0.02947206
#
# Stress axis : x y z
#
# Youngs Moduli (GPa) = 47.87130 81.99442 138.27913
#
# Poissons Ratio (x) = 0.07566 0.22195
# Poissons Ratio (y) = 0.04417 0.40027
# Poissons Ratio (z) = 0.07684 0.23735
#
# Static dielectric constant tensor:
#      x y z
#    x 1.693430 0.000000 0.000000 
#    y 0.000000 1.783250 0.000000 
#    z 0.000000 0.000000 1.704610 
# 
# From -- ./inp_files/12850.got.cif
#   From: 2010.05.17/outbox.cif.g08.bks.cpg/sg52_7_cif.got.tgz:12850.got - 2010.06.03 12:15:38.
