data_PCOD9411976
_publ_section_title
;
Structure prediction by ZEFSAII (Michael W. Deem and Ramdas Pophale) SiO2 
 PCOD9411976
Probable space group: P N N A
;
_chemical_formula_sum "Si O2"
_cell_formula_units_Z 40
_cell_length_a 12.217626
_cell_length_b 24.475826
_cell_length_c 6.382400
_cell_angle_alpha 90.000000
_cell_angle_beta 90.000000
_cell_angle_gamma 90.000000
_cell_volume 1908.570482
_symmetry_space_group_name_H-M "P N N A"
_symmetry_group_IT_number 52
_symmetry_cell_setting 'orthorhombic'
loop_
_space_group_symop_operation_xyz
x,y,z
1/2-x,-y,z
x,1/2-y,1/2-z
1/2-x,1/2+y,1/2-z
-x,-y,-z
1/2+x,y,-z
-x,1/2+y,1/2+z
1/2+x,1/2-y,1/2+z
loop_
_atom_site_type_symbol
_atom_site_label
_atom_site_fract_x
_atom_site_fract_y
_atom_site_fract_z
Si Si1 0.679674 0.838968 0.563061
Si Si2 0.087931 0.575748 0.749409
Si Si3 0.973184 0.336792 0.560644
Si Si4 0.878913 0.250000 0.250000
Si Si5 0.648115 0.103683 0.843410
Si Si6 0.250000 0.500000 0.562196
O O1 0.647296 0.892993 0.435189
O O2 0.691203 0.789770 0.398799
O O3 0.783294 0.854789 0.702334
O O4 0.577447 0.824803 0.715188
O O5 0.098440 0.614046 0.542076
O O6 0.146286 0.519173 0.700297
O O7 0.957508 0.579031 0.779868
O O8 0.953458 0.287282 0.400752
O O9 0.094569 0.361319 0.535169
O O10 0.712584 0.051475 0.926093
#
# Coordination Sequence:
#
# PCOD9411976 Si02
#       6
#     8   8   8   4   8   4
#     4  11  21  45  68 100 141 172 231 294 338 427
#     4   9  23  39  64  98 134 176 234 275 341 408
#     4   9  21  44  63  96 138 171 225 287 337 415
#     4  10  22  44  70  98 132 174 226 292 360 408
#     4  10  22  42  68  97 139 183 224 280 347 406
#     4  12  20  44  68  98 142 190 232 284 340 418
#
# _framework density 20.958095
#
# number of rings (size 3 to 8) (size 9 to 14) (size 15 to 20)
#    1.200    0.800    2.000    1.200    0.000    2.400 
#    3.600    3.000    0.000    0.000    0.000    0.000 
#    0.000    0.000    0.000    0.000    0.000    0.000 
#
# Total GULP energy -222883.865160 kJ/mol
# GULP energy per Si atom -5572.096629 kJ/mol
# Density = 2.091039 g / cm^3
# Si number density = 20.958095 Si / 1000 Ang^3
#
#
#
# Elastic Constant Matrix: (Units=GPa)
#
#
# Indices 1 2 3 4 5 6 
#
# 1 91.4018 45.7935 29.3252 0.0000 0.0000 0.0000
# 2 45.7935 108.7080 38.5064 0.0000 0.0000 0.0000
# 3 29.3252 38.5064 83.1445 0.0000 0.0000 0.0000
# 4 0.0000 0.0000 0.0000 32.9122 0.0000 0.0000
# 5 0.0000 0.0000 0.0000 0.0000 28.4878 0.0000
# 6 0.0000 0.0000 0.0000 0.0000 0.0000 25.4787
#
#
#
# Elastic Compliance Matrix: (Units=1/GPa)
#
#
# Indices 1 2 3 4 5 6 
#
# 1 0.014359 -0.005090 -0.002707 0.000000 0.000000 0.000000
# 2 -0.005090 0.012808 -0.004137 0.000000 0.000000 0.000000
# 3 -0.002707 -0.004137 0.014898 0.000000 0.000000 0.000000
# 4 0.000000 0.000000 0.000000 0.030384 0.000000 0.000000
# 5 0.000000 0.000000 0.000000 0.000000 0.035103 0.000000
# 6 0.000000 0.000000 0.000000 0.000000 0.000000 0.039248
#
#
# Mechanical properties :
#
#
# Convention : Reuss Voigt Hill
#
# Bulk Modulus (GPa) = 54.95144 56.72274 55.83709
# Shear Modulus (GPa) = 28.29100 28.68437 28.48769
#
# Velocity S-wave (km/s) = 3.67806 3.70355 3.69083
# Velocity P-wave (km/s) = 6.65689 6.73884 6.69799
#
# Compressibility (1/GPa) = 0.01819789
#
# Stress axis : x y z
#
# Youngs Moduli (GPa) = 69.64055 78.07382 67.12351
#
# Poissons Ratio (x) = 0.39739 0.18172
# Poissons Ratio (y) = 0.35447 0.27767
# Poissons Ratio (z) = 0.18854 0.32296
#
# Static dielectric constant tensor:
#      x y z
#    x 1.811980 0.000000 0.000000 
#    y 0.000000 1.747330 0.000000 
#    z 0.000000 0.000000 1.755830 
# 
# From -- ./inp_files/2309.got.cif
#   From: 2010.05.17/outbox.cif.g08.bks.cpg/sg52_2_cif.got.tgz:2309.got - 2010.06.03 12:15:38.
