data_PCOD9411242
_publ_section_title
;
Structure prediction by ZEFSAII (Michael W. Deem and Ramdas Pophale) SiO2 
 PCOD9411242
Probable space group: P N N A
;
_chemical_formula_sum "Si O2"
_cell_formula_units_Z 36
_cell_length_a 13.569899
_cell_length_b 9.283883
_cell_length_c 13.390975
_cell_angle_alpha 90.000000
_cell_angle_beta 90.000000
_cell_angle_gamma 90.000000
_cell_volume 1687.013170
_symmetry_space_group_name_H-M "P N N A"
_symmetry_group_IT_number 52
_symmetry_cell_setting 'orthorhombic'
loop_
_space_group_symop_operation_xyz
x,y,z
1/2-x,-y,z
x,1/2-y,1/2-z
1/2-x,1/2+y,1/2-z
-x,-y,-z
1/2+x,y,-z
-x,1/2+y,1/2+z
1/2+x,1/2-y,1/2+z
loop_
_atom_site_type_symbol
_atom_site_label
_atom_site_fract_x
_atom_site_fract_y
_atom_site_fract_z
Si Si1 0.750000 0.000000 0.872322
Si Si2 0.750000 0.000000 0.550189
Si Si3 0.927451 0.628952 0.172840
Si Si4 0.597532 0.411480 0.789767
Si Si5 0.250000 0.500000 0.702767
Si Si6 0.736000 0.234626 0.043552
O O1 0.654127 0.006155 0.800988
O O2 0.741456 0.134723 0.946459
O O3 0.677497 0.087158 0.621726
O O4 0.797048 0.121517 0.480231
O O5 0.966547 0.750000 0.250000
O O6 0.838425 0.552352 0.230329
O O7 0.872829 0.709883 0.080281
O O8 0.009965 0.507273 0.164917
O O9 0.573920 0.250000 0.750000
O O10 0.223462 0.635005 0.632213
#
# Coordination Sequence:
#
# PCOD9411242 Si02
#       6
#     4   4   8   8   4   8
#     4  10  22  44  64  92 138 176 212 268 332 388
#     4  11  23  39  65  96 130 174 221 269 321 389
#     4  10  23  41  66  97 128 174 217 268 333 393
#     4  11  24  41  65  97 134 178 214 267 339 394
#     4   9  21  45  65  88 134 174 209 267 345 385
#     4  10  21  41  65  95 125 169 224 266 317 391
#
# _framework density 21.339492
#
# number of rings (size 3 to 8) (size 9 to 14) (size 15 to 20)
#    0.000    1.778    2.222    0.667    3.111    5.333 
#    4.000    3.333    0.000    0.000    0.000    0.000 
#    0.000    0.000    0.000    0.000    0.000    0.000 
#
# Total GULP energy -200710.471363 kJ/mol
# GULP energy per Si atom -5575.290871 kJ/mol
# Density = 2.129092 g / cm^3
# Si number density = 21.339492 Si / 1000 Ang^3
#
#
#
# Elastic Constant Matrix: (Units=GPa)
#
#
# Indices 1 2 3 4 5 6 
#
# 1 30.9629 31.7324 9.7146 0.0000 0.0000 0.0000
# 2 31.7324 164.7971 46.0930 0.0000 0.0000 0.0000
# 3 9.7146 46.0930 99.8410 0.0000 0.0000 0.0000
# 4 0.0000 0.0000 0.0000 29.8125 0.0000 0.0000
# 5 0.0000 0.0000 0.0000 0.0000 8.0580 0.0000
# 6 0.0000 0.0000 0.0000 0.0000 0.0000 38.3194
#
#
#
# Elastic Compliance Matrix: (Units=1/GPa)
#
#
# Indices 1 2 3 4 5 6 
#
# 1 0.040250 -0.007642 -0.000388 0.000000 0.000000 0.000000
# 2 -0.007642 0.008419 -0.003143 0.000000 0.000000 0.000000
# 3 -0.000388 -0.003143 0.011505 0.000000 0.000000 0.000000
# 4 0.000000 0.000000 0.000000 0.033543 0.000000 0.000000
# 5 0.000000 0.000000 0.000000 0.000000 0.124101 0.000000
# 6 0.000000 0.000000 0.000000 0.000000 0.000000 0.026096
#
#
# Mechanical properties :
#
#
# Convention : Reuss Voigt Hill
#
# Bulk Modulus (GPa) = 26.43601 52.29786 39.36693
# Shear Modulus (GPa) = 17.92956 29.10870 23.51913
#
# Velocity S-wave (km/s) = 2.90177 3.69735 3.32345
# Velocity P-wave (km/s) = 4.86233 6.54125 5.76325
#
# Compressibility (1/GPa) = 0.03782719
#
# Stress axis : x y z
#
# Youngs Moduli (GPa) = 24.84458 118.78461 86.92063
#
# Poissons Ratio (x) = 0.90772 0.03377
# Poissons Ratio (y) = 0.18985 0.27319
# Poissons Ratio (z) = 0.00965 0.37334
#
# Static dielectric constant tensor:
#      x y z
#    x 1.770130 0.000000 0.000000 
#    y 0.000000 1.921120 0.000000 
#    z 0.000000 0.000000 1.814960 
# 
# From -- ./inp_files/26818.got.cif
#   From: 2010.05.17/outbox.cif.g08.bks.cpg/sg52_14_cif.got.tgz:26818.got - 2010.06.03 12:15:38.
