data_PCOD9411431
_publ_section_title
;
Structure prediction by ZEFSAII (Michael W. Deem and Ramdas Pophale) SiO2 
 PCOD9411431
Probable space group: P N N A
;
_chemical_formula_sum "Si O2"
_cell_formula_units_Z 40
_cell_length_a 7.454610
_cell_length_b 9.462831
_cell_length_c 24.341716
_cell_angle_alpha 90.000000
_cell_angle_beta 90.000000
_cell_angle_gamma 90.000000
_cell_volume 1717.106383
_symmetry_space_group_name_H-M "P N N A"
_symmetry_group_IT_number 52
_symmetry_cell_setting 'orthorhombic'
loop_
_space_group_symop_operation_xyz
x,y,z
1/2-x,-y,z
x,1/2-y,1/2-z
1/2-x,1/2+y,1/2-z
-x,-y,-z
1/2+x,y,-z
-x,1/2+y,1/2+z
1/2+x,1/2-y,1/2+z
loop_
_atom_site_type_symbol
_atom_site_label
_atom_site_fract_x
_atom_site_fract_y
_atom_site_fract_z
Si Si1 0.317418 0.853401 0.464404
Si Si2 0.534574 0.476108 0.644786
Si Si3 0.948806 0.741100 0.424948
Si Si4 0.069825 0.084856 0.264919
Si Si5 0.603423 0.841348 0.375307
O O1 0.153577 0.791671 0.429192
O O2 0.376894 0.747498 0.512426
O O3 0.480020 0.894394 0.424881
O O4 0.250000 0.000000 0.489918
O O5 0.750000 0.500000 0.641134
O O6 0.448075 0.591292 0.605215
O O7 0.492500 0.487377 0.709842
O O8 0.467487 0.321567 0.628334
O O9 0.811417 0.837250 0.390631
O O10 0.111742 0.250000 0.250000
O O11 0.942458 0.090244 0.317249
O O12 0.250000 0.000000 0.279496
#
# Coordination Sequence:
#
# PCOD9411431 Si02
#       5
#     8   8   8   8   8
#     4  12  26  45  69 103 146 192 239 293 366 436
#     4  10  21  44  74 101 143 185 241 296 371 431
#     4  12  25  44  73 106 143 188 240 301 357 439
#     4   9  20  42  76 101 141 193 238 303 365 430
#     4  11  23  43  73 102 143 186 242 296 361 435
#
# _framework density 23.295002
#
# number of rings (size 3 to 8) (size 9 to 14) (size 15 to 20)
#    0.000    1.200    4.000    1.800    0.000    0.800 
#    3.600    0.000   66.000    0.000    0.000    0.000 
#    0.000    0.000    0.000    0.000    0.000    0.000 
#
# Total GULP energy -223895.251450 kJ/mol
# GULP energy per Si atom -5597.381286 kJ/mol
# Density = 2.324198 g / cm^3
# Si number density = 23.295002 Si / 1000 Ang^3
#
#
#
# Elastic Constant Matrix: (Units=GPa)
#
#
# Indices 1 2 3 4 5 6 
#
# 1 131.6331 36.8568 63.9108 0.0000 0.0000 0.0000
# 2 36.8568 86.3439 71.0509 0.0000 0.0000 0.0000
# 3 63.9108 71.0509 152.3691 0.0000 0.0000 0.0000
# 4 0.0000 0.0000 0.0000 47.0990 0.0000 0.0000
# 5 0.0000 0.0000 0.0000 0.0000 59.3605 0.0000
# 6 0.0000 0.0000 0.0000 0.0000 0.0000 33.0404
#
#
#
# Elastic Compliance Matrix: (Units=1/GPa)
#
#
# Indices 1 2 3 4 5 6 
#
# 1 0.009626 -0.001276 -0.003442 0.000000 0.000000 0.000000
# 2 -0.001276 0.018962 -0.008307 0.000000 0.000000 0.000000
# 3 -0.003442 -0.008307 0.011880 0.000000 0.000000 0.000000
# 4 0.000000 0.000000 0.000000 0.021232 0.000000 0.000000
# 5 0.000000 0.000000 0.000000 0.000000 0.016846 0.000000
# 6 0.000000 0.000000 0.000000 0.000000 0.000000 0.030266
#
#
# Mechanical properties :
#
#
# Convention : Reuss Voigt Hill
#
# Bulk Modulus (GPa) = 69.36122 79.33145 74.34634
# Shear Modulus (GPa) = 35.79918 41.13516 38.46717
#
# Velocity S-wave (km/s) = 3.92443 4.20674 4.06803
# Velocity P-wave (km/s) = 7.09751 7.59768 7.35185
#
# Compressibility (1/GPa) = 0.01441728
#
# Stress axis : x y z
#
# Youngs Moduli (GPa) = 103.89061 52.73756 84.17222
#
# Poissons Ratio (x) = 0.06730 0.28975
# Poissons Ratio (y) = 0.13258 0.69920
# Poissons Ratio (z) = 0.35763 0.43808
#
# Static dielectric constant tensor:
#      x y z
#    x 1.875370 0.000000 0.000000 
#    y 0.000000 1.913800 0.000000 
#    z 0.000000 0.000000 1.855320 
# 
# From -- ./inp_files/39210.got.cif
#   From: 2010.05.17/outbox.cif.g08.bks.cpg/sg52_20_cif.got.tgz:39210.got - 2010.06.03 12:15:38.
