data_PCOD9411946
_publ_section_title
;
Structure prediction by ZEFSAII (Michael W. Deem and Ramdas Pophale) SiO2 
 PCOD9411946
Probable space group: P N N A
;
_chemical_formula_sum "Si O2"
_cell_formula_units_Z 32
_cell_length_a 5.344792
_cell_length_b 7.538164
_cell_length_c 34.501528
_cell_angle_alpha 90.000000
_cell_angle_beta 90.000000
_cell_angle_gamma 90.000000
_cell_volume 1390.063756
_symmetry_space_group_name_H-M "P N N A"
_symmetry_group_IT_number 52
_symmetry_cell_setting 'orthorhombic'
loop_
_space_group_symop_operation_xyz
x,y,z
1/2-x,-y,z
x,1/2-y,1/2-z
1/2-x,1/2+y,1/2-z
-x,-y,-z
1/2+x,y,-z
-x,1/2+y,1/2+z
1/2+x,1/2-y,1/2+z
loop_
_atom_site_type_symbol
_atom_site_label
_atom_site_fract_x
_atom_site_fract_y
_atom_site_fract_z
Si Si1 0.368659 0.750000 0.250000
Si Si2 0.493090 0.384816 0.090422
Si Si3 0.250000 0.500000 0.717466
Si Si4 0.107246 0.689615 0.329458
Si Si5 0.176440 0.706636 0.483223
O O1 0.532866 0.574586 0.256399
O O2 0.237766 0.769873 0.291488
O O3 0.750000 0.500000 0.090123
O O4 0.432818 0.301921 0.132386
O O5 0.466913 0.232933 0.057639
O O6 0.250000 0.500000 0.080890
O O7 0.335676 0.651316 0.688419
O O8 0.250000 0.500000 0.337321
O O9 0.250000 0.500000 0.489315
O O10 0.460063 0.783446 0.488001
#
# Coordination Sequence:
#
# PCOD9411946 Si02
#       5
#     4   8   4   8   8
#     4  10  22  42  66  96 124 174 228 284 348 398
#     4  12  28  44  67 106 142 182 226 289 350 403
#     4  10  22  42  68  92 124 180 222 294 340 414
#     4  10  24  45  65  94 132 181 233 283 346 419
#     4  10  22  45  74 103 136 183 230 274 339 423
#
# _framework density 23.020527000000001
#
# number of rings (size 3 to 8) (size 9 to 14) (size 15 to 20)
#    0.000    1.500    0.000    3.000    7.000    8.000 
#    9.000    0.000    0.000    0.000    0.000    0.000 
#    0.000    0.000    0.000    0.000    0.000    0.000 
#
# Total GULP energy -178330.293204 kJ/mol
# GULP energy per Si atom -5572.821663 kJ/mol
# Density = 2.296813 g / cm^3
# Si number density = 23.020527 Si / 1000 Ang^3
#
#
#
# Elastic Constant Matrix: (Units=GPa)
#
#
# Indices 1 2 3 4 5 6 
#
# 1 154.9266 34.7826 57.4147 0.0000 0.0000 0.0000
# 2 34.7826 54.5279 41.7836 0.0000 0.0000 0.0000
# 3 57.4147 41.7836 163.4458 0.0000 0.0000 0.0000
# 4 0.0000 0.0000 0.0000 38.5679 0.0000 0.0000
# 5 0.0000 0.0000 0.0000 0.0000 323.6700 0.0000
# 6 0.0000 0.0000 0.0000 0.0000 0.0000 22.7440
#
#
#
# Elastic Compliance Matrix: (Units=1/GPa)
#
#
# Indices 1 2 3 4 5 6 
#
# 1 0.007966 -0.003653 -0.001864 0.000000 0.000000 0.000000
# 2 -0.003653 0.024482 -0.004976 0.000000 0.000000 0.000000
# 3 -0.001864 -0.004976 0.008045 0.000000 0.000000 0.000000
# 4 0.000000 0.000000 0.000000 0.025928 0.000000 0.000000
# 5 0.000000 0.000000 0.000000 0.000000 0.003090 0.000000
# 6 0.000000 0.000000 0.000000 0.000000 0.000000 0.043968
#
#
# Mechanical properties :
#
#
# Convention : Reuss Voigt Hill
#
# Bulk Modulus (GPa) = 51.26197 71.20689 61.23443
# Shear Modulus (GPa) = 35.46970 92.92434 64.19702
#
# Velocity S-wave (km/s) = 3.92954 6.36031 5.28653
# Velocity P-wave (km/s) = 6.55017 9.21613 7.99505
#
# Compressibility (1/GPa) = 0.01950764
#
# Stress axis : x y z
#
# Youngs Moduli (GPa) = 125.53931 40.84670 124.29906
#
# Poissons Ratio (x) = 0.14919 0.23174
# Poissons Ratio (y) = 0.45853 0.61845
# Poissons Ratio (z) = 0.23406 0.20323
#
# Static dielectric constant tensor:
#      x y z
#    x 1.969810 0.000000 0.000000 
#    y 0.000000 1.973090 0.000000 
#    z 0.000000 0.000000 1.956990 
# 
# From -- ./inp_files/43508.got.cif
#   From: 2010.05.17/outbox.cif.g08.bks.cpg/sg52_22_cif.got.tgz:43508.got - 2010.06.03 12:15:38.
