data_PCOD9411116
_publ_section_title
;
Structure prediction by ZEFSAII (Michael W. Deem and Ramdas Pophale) SiO2 
 PCOD9411116
Probable space group: P N N A
;
_chemical_formula_sum "Si O2"
_cell_formula_units_Z 60
_cell_length_a 16.390004
_cell_length_b 25.487993
_cell_length_c 6.798087
_cell_angle_alpha 90.000000
_cell_angle_beta 90.000000
_cell_angle_gamma 90.000000
_cell_volume 2839.889337
_symmetry_space_group_name_H-M "P N N A"
_symmetry_group_IT_number 52
_symmetry_cell_setting 'orthorhombic'
loop_
_space_group_symop_operation_xyz
x,y,z
1/2-x,-y,z
x,1/2-y,1/2-z
1/2-x,1/2+y,1/2-z
-x,-y,-z
1/2+x,y,-z
-x,1/2+y,1/2+z
1/2+x,1/2-y,1/2+z
loop_
_atom_site_type_symbol
_atom_site_label
_atom_site_fract_x
_atom_site_fract_y
_atom_site_fract_z
Si Si1 0.580535 0.957196 0.706913
Si Si2 0.158469 0.118239 0.880556
Si Si3 0.732886 0.204540 0.380350
Si Si4 0.365313 0.750000 0.250000
Si Si5 0.129215 0.620274 0.890380
Si Si6 0.800968 0.053320 0.057045
Si Si7 0.405560 0.945914 0.542474
Si Si8 0.958008 0.859638 0.781225
O O1 0.597934 0.903417 0.593057
O O2 0.484316 0.965018 0.669504
O O3 0.621250 0.006463 0.594728
O O4 0.620552 0.953357 0.918374
O O5 0.171119 0.172978 0.765654
O O6 0.238339 0.100647 0.003967
O O7 0.154063 0.075751 0.706715
O O8 0.078460 0.116962 0.016018
O O9 0.771874 0.250000 0.250000
O O10 0.689764 0.231568 0.565637
O O11 0.801529 0.162524 0.431805
O O12 0.420452 0.801437 0.217196
O O13 0.165727 0.572044 0.766301
O O14 0.054503 0.641639 0.758059
O O15 0.750000 0.000000 0.051102
O O16 0.426123 0.897477 0.395452
#
# Coordination Sequence:
#
# PCOD9411116 Si02
#       8
#     8   8   8   4   8   8   8   8
#     4  10  22  39  62  92 130 172 214 266 332 396
#     4  11  22  38  64  92 128 167 217 270 330 391
#     4  11  24  42  63  94 127 168 215 279 329 391
#     4  12  24  42  72  92 124 170 228 272 338 394
#     4  10  25  42  65  94 134 170 219 271 333 390
#     4  11  23  37  61  96 130 173 216 263 327 398
#     4  10  21  40  63  93 130 168 218 272 329 396
#     4  11  23  41  67  95 124 176 218 278 331 405
#
# _framework density 21.127583999999999
#
# number of rings (size 3 to 8) (size 9 to 14) (size 15 to 20)
#    0.000    1.333    2.667    2.400    2.800    2.667 
#    0.000    5.333    1.467    0.000    0.000    0.000 
#    0.000    0.000    0.000    0.000    0.000    0.000 
#
# Total GULP energy -334909.451574 kJ/mol
# GULP energy per Si atom -5581.824193 kJ/mol
# Density = 2.107950 g / cm^3
# Si number density = 21.127584 Si / 1000 Ang^3
#
#
#
# Elastic Constant Matrix: (Units=GPa)
#
#
# Indices 1 2 3 4 5 6 
#
# 1 64.3798 12.1977 26.4718 0.0000 0.0000 0.0000
# 2 12.1977 87.7173 33.8842 0.0000 0.0000 0.0000
# 3 26.4718 33.8842 55.0914 0.0000 0.0000 0.0000
# 4 0.0000 0.0000 0.0000 17.7912 0.0000 0.0000
# 5 0.0000 0.0000 0.0000 0.0000 15.1889 0.0000
# 6 0.0000 0.0000 0.0000 0.0000 0.0000 42.3195
#
#
#
# Elastic Compliance Matrix: (Units=1/GPa)
#
#
# Indices 1 2 3 4 5 6 
#
# 1 0.019451 0.001188 -0.010077 0.000000 0.000000 0.000000
# 2 0.001188 0.015025 -0.009812 0.000000 0.000000 0.000000
# 3 -0.010077 -0.009812 0.029029 0.000000 0.000000 0.000000
# 4 0.000000 0.000000 0.000000 0.056208 0.000000 0.000000
# 5 0.000000 0.000000 0.000000 0.000000 0.065837 0.000000
# 6 0.000000 0.000000 0.000000 0.000000 0.000000 0.023630
#
#
# Mechanical properties :
#
#
# Convention : Reuss Voigt Hill
#
# Bulk Modulus (GPa) = 38.31033 39.14398 38.72716
# Shear Modulus (GPa) = 19.58604 24.03558 21.81081
#
# Velocity S-wave (km/s) = 3.04803 3.37655 3.21649
# Velocity P-wave (km/s) = 5.52807 5.81112 5.67136
#
# Compressibility (1/GPa) = 0.02610262
#
# Stress axis : x y z
#
# Youngs Moduli (GPa) = 51.41057 66.55388 34.44864
#
# Poissons Ratio (x) = -0.07905 0.34714
# Poissons Ratio (y) = -0.06106 0.33802
# Poissons Ratio (z) = 0.51806 0.65304
#
# Static dielectric constant tensor:
#      x y z
#    x 1.808260 0.000000 0.000000 
#    y 0.000000 1.772500 0.000000 
#    z 0.000000 0.000000 1.760410 
# 
# From -- ./inp_files/3618.got.cif
#   From: 2010.05.17/outbox.cif.g08.bks.cpg/sg52_2_cif.got.tgz:3618.got - 2010.06.03 12:15:38.
