data_PCOD9411079
_publ_section_title
;
Structure prediction by ZEFSAII (Michael W. Deem and Ramdas Pophale) SiO2 
 PCOD9411079
Probable space group: P N N A
;
_chemical_formula_sum "Si O2"
_cell_formula_units_Z 32
_cell_length_a 32.581540
_cell_length_b 7.081082
_cell_length_c 5.278101
_cell_angle_alpha 90.000000
_cell_angle_beta 90.000000
_cell_angle_gamma 90.000000
_cell_volume 1217.724175
_symmetry_space_group_name_H-M "P N N A"
_symmetry_group_IT_number 52
_symmetry_cell_setting 'orthorhombic'
loop_
_space_group_symop_operation_xyz
x,y,z
1/2-x,-y,z
x,1/2-y,1/2-z
1/2-x,1/2+y,1/2-z
-x,-y,-z
1/2+x,y,-z
-x,1/2+y,1/2+z
1/2+x,1/2-y,1/2+z
loop_
_atom_site_type_symbol
_atom_site_label
_atom_site_fract_x
_atom_site_fract_y
_atom_site_fract_z
Si Si1 0.668792 0.458438 0.518280
Si Si2 0.461149 0.027772 0.691860
Si Si3 0.577679 0.977688 0.796233
Si Si4 0.797142 0.970023 0.479599
O O1 0.621748 0.467788 0.597986
O O2 0.687919 0.247997 0.498832
O O3 0.694244 0.550234 0.744501
O O4 0.675415 0.547932 0.246021
O O5 0.457886 0.250000 0.750000
O O6 0.427066 0.952438 0.493714
O O7 0.500000 0.000000 0.500000
O O8 0.454635 0.954927 0.982368
O O9 0.574273 0.750000 0.750000
O O10 0.750000 0.000000 0.411099
#
# Coordination Sequence:
#
# PCOD9411079 Si02
#       4
#     8   8   8   8
#     4  10  21  40  61  90 121 167 218 260 330 397
#     4  10  21  40  63  94 129 169 215 268 337 404
#     4  10  21  40  63  88 130 169 212 271 328 398
#     4  10  21  40  61  85 128 161 205 279 327 393
#
# _framework density 26.278528999999999
#
# number of rings (size 3 to 8) (size 9 to 14) (size 15 to 20)
#    0.000    2.000    0.000    3.000    0.000    0.000 
#   27.000    0.000    0.000    0.000    0.000    0.000 
#    0.000    0.000    0.000    0.000    0.000    0.000 
#
# Total GULP energy -178567.230565 kJ/mol
# GULP energy per Si atom -5580.225955 kJ/mol
# Density = 2.621872 g / cm^3
# Si number density = 26.278529 Si / 1000 Ang^3
#
#
#
# Elastic Constant Matrix: (Units=GPa)
#
#
# Indices 1 2 3 4 5 6 
#
# 1 152.2949 11.7731 48.1048 0.0000 0.0000 0.0000
# 2 11.7731 147.2962 44.8181 0.0000 0.0000 0.0000
# 3 48.1048 44.8181 239.8891 0.0000 0.0000 0.0000
# 4 0.0000 0.0000 0.0000 -22.9734 0.0000 0.0000
# 5 0.0000 0.0000 0.0000 0.0000 50.2164 0.0000
# 6 0.0000 0.0000 0.0000 0.0000 0.0000 27.4781
#
#
#
# Elastic Compliance Matrix: (Units=1/GPa)
#
#
# Indices 1 2 3 4 5 6 
#
# 1 0.007013 -0.000141 -0.001380 0.000000 0.000000 0.000000
# 2 -0.000141 0.007201 -0.001317 0.000000 0.000000 0.000000
# 3 -0.001380 -0.001317 0.004691 0.000000 0.000000 0.000000
# 4 0.000000 0.000000 0.000000 -0.043529 0.000000 0.000000
# 5 0.000000 0.000000 0.000000 0.000000 0.019914 0.000000
# 6 0.000000 0.000000 0.000000 0.000000 0.000000 0.036393
#
#
# Mechanical properties :
#
#
# Convention : Reuss Voigt Hill
#
# Bulk Modulus (GPa) = 75.58692 83.20803 79.39748
# Shear Modulus (GPa) = 119.70622 39.92982 79.81802
#
# Velocity S-wave (km/s) = 6.75661 3.90229 5.51723
# Velocity P-wave (km/s) = 9.47076 7.21363 8.41818
#
# Compressibility (1/GPa) = 0.01322980
#
# Stress axis : x y z
#
# Youngs Moduli (GPa) = 142.59265 138.86847 213.15536
#
# Poissons Ratio (x) = 0.01953 0.29416
# Poissons Ratio (y) = 0.02005 0.28076
# Poissons Ratio (z) = 0.19678 0.18291
#
# Static dielectric constant tensor:
#      x y z
#    x 2.104130 0.000000 0.000000 
#    y 0.000000 1.948060 0.000000 
#    z 0.000000 0.000000 2.127050 
# 
# From -- ./inp_files/6124.got.cif
#   From: 2010.05.17/outbox.cif.g08.bks.cpg/sg52_4_cif.got.tgz:6124.got - 2010.06.03 12:15:38.
