data_PCOD9411449
_publ_section_title
;
Structure prediction by ZEFSAII (Michael W. Deem and Ramdas Pophale) SiO2 
 PCOD9411449
Probable space group: P N N A
;
_chemical_formula_sum "Si O2"
_cell_formula_units_Z 44
_cell_length_a 28.649474
_cell_length_b 13.887859
_cell_length_c 5.318062
_cell_angle_alpha 90.000000
_cell_angle_beta 90.000000
_cell_angle_gamma 90.000000
_cell_volume 2115.949739
_symmetry_space_group_name_H-M "P N N A"
_symmetry_group_IT_number 52
_symmetry_cell_setting 'orthorhombic'
loop_
_space_group_symop_operation_xyz
x,y,z
1/2-x,-y,z
x,1/2-y,1/2-z
1/2-x,1/2+y,1/2-z
-x,-y,-z
1/2+x,y,-z
-x,1/2+y,1/2+z
1/2+x,1/2-y,1/2+z
loop_
_atom_site_type_symbol
_atom_site_label
_atom_site_fract_x
_atom_site_fract_y
_atom_site_fract_z
Si Si1 0.381480 0.250000 0.250000
Si Si2 0.045235 0.578905 0.202668
Si Si3 0.945830 0.957902 0.202245
Si Si4 0.689902 0.250000 0.750000
Si Si5 0.148447 0.142166 0.636816
Si Si6 0.818441 0.250000 0.250000
Si Si7 0.241708 0.105522 0.890214
O O1 0.415782 0.341280 0.240976
O O2 0.349739 0.251736 0.499408
O O3 0.054032 0.498083 0.418455
O O4 0.991561 0.608622 0.258183
O O5 0.047698 0.540177 0.916740
O O6 0.897243 0.909504 0.272063
O O7 0.655194 0.166328 0.654152
O O8 0.724688 0.309116 0.572334
O O9 0.148994 0.250000 0.750000
O O10 0.196755 0.091816 0.711964
O O11 0.785908 0.154150 0.245663
O O12 0.250000 0.000000 0.005282
#
# Coordination Sequence:
#
# PCOD9411449 Si02
#       7
#     4   8   8   4   8   4   8
#     4  12  27  42  71  94 143 180 228 273 346 404
#     4  10  24  45  65 101 134 177 223 278 332 419
#     4  10  23  44  70  97 137 170 226 280 340 403
#     4  10  21  46  61 102 136 165 244 287 334 434
#     4  10  23  40  66  95 128 167 225 282 334 407
#     4  12  26  48  62 104 137 179 240 288 328 432
#     4  11  25  43  66  94 137 183 225 290 349 406
#
# _framework density 20.794443000000001
#
# number of rings (size 3 to 8) (size 9 to 14) (size 15 to 20)
#    0.000    1.455    2.727    1.636   11.455    0.727 
#    0.000    0.909    0.000    0.000    0.000    0.000 
#    0.000    0.000    0.000    0.000    0.000    0.000 
#
# Total GULP energy -245304.679048 kJ/mol
# GULP energy per Si atom -5575.106342 kJ/mol
# Density = 2.074711 g / cm^3
# Si number density = 20.794443 Si / 1000 Ang^3
#
#
#
# Elastic Constant Matrix: (Units=GPa)
#
#
# Indices 1 2 3 4 5 6 
#
# 1 163.5563 38.7720 32.5033 0.0000 0.0000 0.0000
# 2 38.7720 56.3971 4.2651 0.0000 0.0000 0.0000
# 3 32.5033 4.2651 79.0365 0.0000 0.0000 0.0000
# 4 0.0000 0.0000 0.0000 19.0463 0.0000 0.0000
# 5 0.0000 0.0000 0.0000 0.0000 32.0383 0.0000
# 6 0.0000 0.0000 0.0000 0.0000 0.0000 38.2996
#
#
#
# Elastic Compliance Matrix: (Units=1/GPa)
#
#
# Indices 1 2 3 4 5 6 
#
# 1 0.007950 -0.005239 -0.002987 0.000000 0.000000 0.000000
# 2 -0.005239 0.021257 0.001008 0.000000 0.000000 0.000000
# 3 -0.002987 0.001008 0.013826 0.000000 0.000000 0.000000
# 4 0.000000 0.000000 0.000000 0.052504 0.000000 0.000000
# 5 0.000000 0.000000 0.000000 0.000000 0.031213 0.000000
# 6 0.000000 0.000000 0.000000 0.000000 0.000000 0.026110
#
#
# Mechanical properties :
#
#
# Convention : Reuss Voigt Hill
#
# Bulk Modulus (GPa) = 34.96952 50.00788 42.48870
# Shear Modulus (GPa) = 28.27605 32.77347 30.52476
#
# Velocity S-wave (km/s) = 3.69153 3.97428 3.83551
# Velocity P-wave (km/s) = 5.91804 6.72017 6.33182
#
# Compressibility (1/GPa) = 0.02859633
#
# Stress axis : x y z
#
# Youngs Moduli (GPa) = 125.79206 47.04294 72.32650
#
# Poissons Ratio (x) = 0.24648 0.21600
# Poissons Ratio (y) = 0.65907 -0.07287
# Poissons Ratio (z) = 0.37568 -0.04740
#
# Static dielectric constant tensor:
#      x y z
#    x 1.778430 0.000000 0.000000 
#    y 0.000000 1.737660 0.000000 
#    z 0.000000 0.000000 1.855710 
# 
# From -- ./inp_files/5768.got.cif
#   From: 2010.05.17/outbox.cif.g08.bks.cpg/sg52_3_cif.got.tgz:5768.got - 2010.06.03 12:15:38.
