data_PCOD9411424
_publ_section_title
;
Structure prediction by ZEFSAII (Michael W. Deem and Ramdas Pophale) SiO2 
 PCOD9411424
Probable space group: P N N A
;
_chemical_formula_sum "Si O2"
_cell_formula_units_Z 40
_cell_length_a 9.175890
_cell_length_b 10.820772
_cell_length_c 16.320725
_cell_angle_alpha 90.000000
_cell_angle_beta 90.000000
_cell_angle_gamma 90.000000
_cell_volume 1620.488271
_symmetry_space_group_name_H-M "P N N A"
_symmetry_group_IT_number 52
_symmetry_cell_setting 'orthorhombic'
loop_
_space_group_symop_operation_xyz
x,y,z
1/2-x,-y,z
x,1/2-y,1/2-z
1/2-x,1/2+y,1/2-z
-x,-y,-z
1/2+x,y,-z
-x,1/2+y,1/2+z
1/2+x,1/2-y,1/2+z
loop_
_atom_site_type_symbol
_atom_site_label
_atom_site_fract_x
_atom_site_fract_y
_atom_site_fract_z
Si Si1 0.618173 0.757807 0.585361
Si Si2 0.081073 0.488965 0.867398
Si Si3 0.674065 0.869250 0.078560
Si Si4 0.575297 0.366109 0.302258
Si Si5 0.569853 0.241511 0.654129
O O1 0.509472 0.875751 0.591663
O O2 0.681945 0.723229 0.497040
O O3 0.530343 0.638467 0.619738
O O4 0.759257 0.773531 0.641040
O O5 0.750000 0.500000 0.107239
O O6 0.079774 0.468449 0.767822
O O7 0.002533 0.617939 0.881980
O O8 0.768531 0.833933 0.158702
O O9 0.506963 0.856511 0.107976
O O10 0.750000 0.000000 0.057173
O O11 0.523054 0.250000 0.250000
O O12 0.539937 0.250000 0.750000
#
# Coordination Sequence:
#
# PCOD9411424 Si02
#       5
#     8   8   8   8   8
#     4  11  26  43  66 104 144 180 227 293 361 417
#     4  11  23  44  73  99 134 184 237 288 345 429
#     4  12  26  45  69 100 139 185 232 284 354 434
#     4  10  21  44  70  97 135 181 233 281 342 425
#     4  12  24  42  71 104 136 179 237 296 357 417
#
# _framework density 24.683918999999999
#
# number of rings (size 3 to 8) (size 9 to 14) (size 15 to 20)
#    0.000    0.800    0.000    9.600    0.000    5.600 
#    0.000    4.000    0.000    0.000    0.000    0.000 
#    0.000    0.000    0.000    0.000    0.000    0.000 
#
# Total GULP energy -223562.598717 kJ/mol
# GULP energy per Si atom -5589.064968 kJ/mol
# Density = 2.462774 g / cm^3
# Si number density = 24.683919 Si / 1000 Ang^3
#
#
#
# Elastic Constant Matrix: (Units=GPa)
#
#
# Indices 1 2 3 4 5 6 
#
# 1 172.2710 76.4939 13.3812 0.0000 0.0000 0.0000
# 2 76.4939 153.9910 45.6195 0.0000 0.0000 0.0000
# 3 13.3812 45.6195 96.6493 0.0000 0.0000 0.0000
# 4 0.0000 0.0000 0.0000 24.7519 0.0000 0.0000
# 5 0.0000 0.0000 0.0000 0.0000 32.0519 0.0000
# 6 0.0000 0.0000 0.0000 0.0000 0.0000 35.5805
#
#
#
# Elastic Compliance Matrix: (Units=1/GPa)
#
#
# Indices 1 2 3 4 5 6 
#
# 1 0.007505 -0.003976 0.000838 0.000000 0.000000 0.000000
# 2 -0.003976 0.009656 -0.004007 0.000000 0.000000 0.000000
# 3 0.000838 -0.004007 0.012122 0.000000 0.000000 0.000000
# 4 0.000000 0.000000 0.000000 0.040401 0.000000 0.000000
# 5 0.000000 0.000000 0.000000 0.000000 0.031199 0.000000
# 6 0.000000 0.000000 0.000000 0.000000 0.000000 0.028105
#
#
# Mechanical properties :
#
#
# Convention : Reuss Voigt Hill
#
# Bulk Modulus (GPa) = 66.70255 77.10007 71.90131
# Shear Modulus (GPa) = 33.72023 37.63796 35.67910
#
# Velocity S-wave (km/s) = 3.70006 3.90910 3.80602
# Velocity P-wave (km/s) = 6.73315 7.18871 6.96465
#
# Compressibility (1/GPa) = 0.01499193
#
# Stress axis : x y z
#
# Youngs Moduli (GPa) = 133.23738 103.55909 82.49324
#
# Poissons Ratio (x) = 0.41180 -0.06911
# Poissons Ratio (y) = 0.52981 0.33058
# Poissons Ratio (z) = -0.11163 0.41500
#
# Static dielectric constant tensor:
#      x y z
#    x 1.939570 0.000000 0.000000 
#    y 0.000000 2.025720 0.000000 
#    z 0.000000 0.000000 2.015620 
# 
# From -- ./inp_files/30860.got.cif
#   From: 2010.05.17/outbox.cif.g08.bks.cpg/sg52_16_cif.got.tgz:30860.got - 2010.06.03 12:15:38.
