data_PCOD9411451
_publ_section_title
;
Structure prediction by ZEFSAII (Michael W. Deem and Ramdas Pophale) SiO2 
 PCOD9411451
Probable space group: P N N A
;
_chemical_formula_sum "Si O2"
_cell_formula_units_Z 56
_cell_length_a 14.632670
_cell_length_b 21.841211
_cell_length_c 8.268757
_cell_angle_alpha 90.000000
_cell_angle_beta 90.000000
_cell_angle_gamma 90.000000
_cell_volume 2642.655320
_symmetry_space_group_name_H-M "P N N A"
_symmetry_group_IT_number 52
_symmetry_cell_setting 'orthorhombic'
loop_
_space_group_symop_operation_xyz
x,y,z
1/2-x,-y,z
x,1/2-y,1/2-z
1/2-x,1/2+y,1/2-z
-x,-y,-z
1/2+x,y,-z
-x,1/2+y,1/2+z
1/2+x,1/2-y,1/2+z
loop_
_atom_site_type_symbol
_atom_site_label
_atom_site_fract_x
_atom_site_fract_y
_atom_site_fract_z
Si Si1 0.565732 0.270673 0.082945
Si Si2 0.982041 0.437289 0.205070
Si Si3 0.088578 0.362289 0.452975
Si Si4 0.144805 0.512642 0.244333
Si Si5 0.150271 0.474788 0.619723
Si Si6 0.401836 0.363105 0.090544
Si Si7 0.706806 0.183772 0.669873
O O1 0.612293 0.250000 0.250000
O O2 0.475249 0.309655 0.124200
O O3 0.553422 0.205377 0.994330
O O4 0.628153 0.310436 0.964201
O O5 0.920235 0.493305 0.262047
O O6 0.007266 0.397683 0.363205
O O7 0.077439 0.467229 0.148278
O O8 0.933498 0.395442 0.074281
O O9 0.129033 0.402430 0.600494
O O10 0.169367 0.356863 0.318579
O O11 0.250000 0.500000 0.197328
O O12 0.136529 0.497599 0.434431
O O13 0.108793 0.581129 0.216658
O O14 0.250000 0.500000 0.666057
O O15 0.300049 0.336648 0.088039
O O16 0.721429 0.250000 0.750000
#
# Coordination Sequence:
#
# PCOD9411451 Si02
#       7
#     8   8   8   8   8   8   8
#     4  11  26  42  66  99 130 174 220 285 329 387
#     4  11  23  40  64  99 128 170 219 278 325 390
#     4  10  21  46  68  88 140 175 219 273 330 410
#     4  10  22  41  66  93 129 178 216 265 338 400
#     4  10  22  40  66 100 129 178 218 271 339 391
#     4  12  24  41  68  99 133 170 226 267 336 408
#     4  10  22  46  67  92 129 178 221 265 339 401
#
# _framework density 21.190805999999998
#
# number of rings (size 3 to 8) (size 9 to 14) (size 15 to 20)
#    0.000    1.429    1.429    5.143    4.000    1.714 
#    7.714    0.000    0.000    0.000    0.000    0.000 
#    0.000    0.000    0.000    0.000    0.000    0.000 
#
# Total GULP energy -312814.223304 kJ/mol
# GULP energy per Si atom -5585.968273 kJ/mol
# Density = 2.114258 g / cm^3
# Si number density = 21.190806 Si / 1000 Ang^3
#
#
#
# Elastic Constant Matrix: (Units=GPa)
#
#
# Indices 1 2 3 4 5 6 
#
# 1 114.4533 53.0423 32.3856 0.0000 0.0000 0.0000
# 2 53.0423 106.2680 12.4139 0.0000 0.0000 0.0000
# 3 32.3856 12.4139 42.0992 0.0000 0.0000 0.0000
# 4 0.0000 0.0000 0.0000 29.7949 0.0000 0.0000
# 5 0.0000 0.0000 0.0000 0.0000 22.1135 0.0000
# 6 0.0000 0.0000 0.0000 0.0000 0.0000 29.6022
#
#
#
# Elastic Compliance Matrix: (Units=1/GPa)
#
#
# Indices 1 2 3 4 5 6 
#
# 1 0.014064 -0.005961 -0.009061 0.000000 0.000000 0.000000
# 2 -0.005961 0.012273 0.000967 0.000000 0.000000 0.000000
# 3 -0.009061 0.000967 0.030439 0.000000 0.000000 0.000000
# 4 0.000000 0.000000 0.000000 0.033563 0.000000 0.000000
# 5 0.000000 0.000000 0.000000 0.000000 0.045221 0.000000
# 6 0.000000 0.000000 0.000000 0.000000 0.000000 0.033781
#
#
# Mechanical properties :
#
#
# Convention : Reuss Voigt Hill
#
# Bulk Modulus (GPa) = 34.88643 50.94489 42.91566
# Shear Modulus (GPa) = 24.15389 27.30069 25.72729
#
# Velocity S-wave (km/s) = 3.37980 3.59322 3.48814
# Velocity P-wave (km/s) = 5.63289 6.42715 6.04308
#
# Compressibility (1/GPa) = 0.02866444
#
# Stress axis : x y z
#
# Youngs Moduli (GPa) = 71.10464 81.48155 32.85299
#
# Poissons Ratio (x) = 0.48573 0.29768
# Poissons Ratio (y) = 0.42387 -0.03177
# Poissons Ratio (z) = 0.64428 -0.07879
#
# Static dielectric constant tensor:
#      x y z
#    x 1.767110 0.000000 0.000000 
#    y 0.000000 1.828730 0.000000 
#    z 0.000000 0.000000 1.761110 
# 
# From -- ./inp_files/10797.got.cif
#   From: 2010.05.17/outbox.cif.g08.bks.cpg/sg52_6_cif.got.tgz:10797.got - 2010.06.03 12:15:38.
