data_PCOD9411258
_publ_section_title
;
Structure prediction by ZEFSAII (Michael W. Deem and Ramdas Pophale) SiO2 
 PCOD9411258
Probable space group: P N N A
;
_chemical_formula_sum "Si O2"
_cell_formula_units_Z 48
_cell_length_a 8.090622
_cell_length_b 16.397289
_cell_length_c 15.708585
_cell_angle_alpha 90.000000
_cell_angle_beta 90.000000
_cell_angle_gamma 90.000000
_cell_volume 2083.967917
_symmetry_space_group_name_H-M "P N N A"
_symmetry_group_IT_number 52
_symmetry_cell_setting 'orthorhombic'
loop_
_space_group_symop_operation_xyz
x,y,z
1/2-x,-y,z
x,1/2-y,1/2-z
1/2-x,1/2+y,1/2-z
-x,-y,-z
1/2+x,y,-z
-x,1/2+y,1/2+z
1/2+x,1/2-y,1/2+z
loop_
_atom_site_type_symbol
_atom_site_label
_atom_site_fract_x
_atom_site_fract_y
_atom_site_fract_z
Si Si1 0.501318 0.079005 0.226906
Si Si2 0.191211 0.592946 0.102827
Si Si3 0.867028 0.399544 0.237774
Si Si4 0.894727 0.172446 0.097091
Si Si5 0.438438 0.915308 0.956556
Si Si6 0.534490 0.650959 0.061537
O O1 0.370020 0.095707 0.300066
O O2 0.673196 0.120868 0.253336
O O3 0.455272 0.098262 0.129583
O O4 0.561784 0.984835 0.226624
O O5 0.250000 0.500000 0.087123
O O6 0.341368 0.654655 0.084615
O O7 0.055730 0.615362 0.032220
O O8 0.944982 0.336140 0.304430
O O9 0.901584 0.405526 0.138212
O O10 0.746907 0.106639 0.077258
O O11 0.863347 0.266125 0.075696
O O12 0.035373 0.148377 0.031239
O O13 0.500000 0.000000 0.000000
#
# Coordination Sequence:
#
# PCOD9411258 Si02
#       6
#     8   8   8   8   8   8
#     4  10  22  40  67  99 126 169 234 284 339 404
#     4  12  25  42  65  98 129 181 229 285 336 411
#     4  10  21  41  67  93 130 171 225 285 340 411
#     4  11  24  42  65  99 133 181 222 280 354 412
#     4  11  22  42  69  98 134 175 227 287 341 413
#     4  12  25  42  65  94 138 177 228 278 351 416
#
# _framework density 23.032983999999999
#
# number of rings (size 3 to 8) (size 9 to 14) (size 15 to 20)
#    0.000    1.000    3.333    3.500    2.333    2.667 
#    0.000    4.167    0.000    0.000    0.000    0.000 
#    0.000    0.000    0.000    0.000    0.000    0.000 
#
# Total GULP energy -267538.877144 kJ/mol
# GULP energy per Si atom -5573.726607 kJ/mol
# Density = 2.298056 g / cm^3
# Si number density = 23.032984 Si / 1000 Ang^3
#
#
#
# Elastic Constant Matrix: (Units=GPa)
#
#
# Indices 1 2 3 4 5 6 
#
# 1 63.0085 1.9415 36.8179 0.0000 0.0000 0.0000
# 2 1.9415 49.1136 18.7279 0.0000 0.0000 0.0000
# 3 36.8179 18.7279 143.9282 0.0000 0.0000 0.0000
# 4 0.0000 0.0000 0.0000 27.0009 0.0000 0.0000
# 5 0.0000 0.0000 0.0000 0.0000 35.0212 0.0000
# 6 0.0000 0.0000 0.0000 0.0000 0.0000 22.0991
#
#
#
# Elastic Compliance Matrix: (Units=1/GPa)
#
#
# Indices 1 2 3 4 5 6 
#
# 1 0.018721 0.001143 -0.004938 0.000000 0.000000 0.000000
# 2 0.001143 0.021494 -0.003089 0.000000 0.000000 0.000000
# 3 -0.004938 -0.003089 0.008613 0.000000 0.000000 0.000000
# 4 0.000000 0.000000 0.000000 0.037036 0.000000 0.000000
# 5 0.000000 0.000000 0.000000 0.000000 0.028554 0.000000
# 6 0.000000 0.000000 0.000000 0.000000 0.000000 0.045251
#
#
# Mechanical properties :
#
#
# Convention : Reuss Voigt Hill
#
# Bulk Modulus (GPa) = 28.52284 41.22497 34.87390
# Shear Modulus (GPa) = 27.00913 30.06178 28.53546
#
# Velocity S-wave (km/s) = 3.42808 3.61662 3.52361
# Velocity P-wave (km/s) = 5.29899 5.94786 5.63278
#
# Compressibility (1/GPa) = 0.03505963
#
# Stress axis : x y z
#
# Youngs Moduli (GPa) = 53.41633 46.52528 116.10437
#
# Poissons Ratio (x) = -0.05317 0.57328
# Poissons Ratio (y) = -0.06104 0.35866
# Poissons Ratio (z) = 0.26375 0.14372
#
# Static dielectric constant tensor:
#      x y z
#    x 1.891830 0.000000 0.000000 
#    y 0.000000 1.942850 0.000000 
#    z 0.000000 0.000000 1.911970 
# 
# From -- ./inp_files/24708.got.cif
#   From: 2010.05.17/outbox.cif.g08.bks.cpg/sg52_13_cif.got.tgz:24708.got - 2010.06.03 12:15:38.
