data_PCOD9411349
_publ_section_title
;
Structure prediction by ZEFSAII (Michael W. Deem and Ramdas Pophale) SiO2 
 PCOD9411349
Probable space group: P N N A
;
_chemical_formula_sum "Si O2"
_cell_formula_units_Z 56
_cell_length_a 14.320174
_cell_length_b 13.838934
_cell_length_c 11.456463
_cell_angle_alpha 90.000000
_cell_angle_beta 90.000000
_cell_angle_gamma 90.000000
_cell_volume 2270.395357
_symmetry_space_group_name_H-M "P N N A"
_symmetry_group_IT_number 52
_symmetry_cell_setting 'orthorhombic'
loop_
_space_group_symop_operation_xyz
x,y,z
1/2-x,-y,z
x,1/2-y,1/2-z
1/2-x,1/2+y,1/2-z
-x,-y,-z
1/2+x,y,-z
-x,1/2+y,1/2+z
1/2+x,1/2-y,1/2+z
loop_
_atom_site_type_symbol
_atom_site_label
_atom_site_fract_x
_atom_site_fract_y
_atom_site_fract_z
Si Si1 0.643652 0.964965 0.733710
Si Si2 0.421664 0.083868 0.509123
Si Si3 0.871264 0.077893 0.977671
Si Si4 0.769425 0.875759 0.391366
Si Si5 0.593008 0.342488 0.889203
Si Si6 0.208797 0.345082 0.635015
Si Si7 0.568697 0.358050 0.548109
O O1 0.616569 0.903249 0.620125
O O2 0.631377 0.892339 0.842593
O O3 0.750000 0.000000 0.733707
O O4 0.593065 0.070515 0.706165
O O5 0.328033 0.069839 0.584282
O O6 0.486601 0.165424 0.563541
O O7 0.500000 0.000000 0.500000
O O8 0.886776 0.964743 0.946501
O O9 0.780413 0.098003 0.052613
O O10 0.959299 0.119829 0.046928
O O11 0.837102 0.876976 0.505336
O O12 0.747133 0.761919 0.372873
O O13 0.805049 0.895107 0.260219
O O14 0.611039 0.227750 0.872333
O O15 0.106219 0.329424 0.580682
#
# Coordination Sequence:
#
# PCOD9411349 Si02
#       7
#     8   8   8   8   8   8   8
#     4  11  22  41  65  95 136 175 217 275 339 415
#     4  10  22  38  62  98 128 171 217 279 334 392
#     4  11  24  42  63  97 139 173 223 278 349 418
#     4  10  21  42  68  96 132 171 237 281 335 405
#     4  10  22  42  67  95 132 173 234 284 332 401
#     4  10  22  42  69  96 128 180 223 287 339 407
#     4  10  23  43  64  94 132 176 227 276 343 404
#
# _framework density 24.665310000000002
#
# number of rings (size 3 to 8) (size 9 to 14) (size 15 to 20)
#    0.000    1.714    1.429    2.143    2.000    5.143 
#    7.714    2.143    0.000    0.000    0.000    0.000 
#    0.000    0.000    0.000    0.000    0.000    0.000 
#
# Total GULP energy -311792.102941 kJ/mol
# GULP energy per Si atom -5567.716124 kJ/mol
# Density = 2.460917 g / cm^3
# Si number density = 24.665310 Si / 1000 Ang^3
#
#
#
# Elastic Constant Matrix: (Units=GPa)
#
#
# Indices 1 2 3 4 5 6 
#
# 1 115.1215 -13.9081 -0.0063 0.0000 0.0000 0.0000
# 2 -13.9081 81.4685 -1.9919 0.0000 0.0000 0.0000
# 3 -0.0063 -1.9919 82.0566 0.0000 0.0000 0.0000
# 4 0.0000 0.0000 0.0000 34.2023 0.0000 0.0000
# 5 0.0000 0.0000 0.0000 0.0000 -5.3556 0.0000
# 6 0.0000 0.0000 0.0000 0.0000 0.0000 15.3638
#
#
#
# Elastic Compliance Matrix: (Units=1/GPa)
#
#
# Indices 1 2 3 4 5 6 
#
# 1 0.008870 0.001515 0.000037 0.000000 0.000000 0.000000
# 2 0.001515 0.012541 0.000305 0.000000 0.000000 0.000000
# 3 0.000037 0.000305 0.012194 0.000000 0.000000 0.000000
# 4 0.000000 0.000000 0.000000 0.029238 0.000000 0.000000
# 5 0.000000 0.000000 0.000000 0.000000 -0.186720 0.000000
# 6 0.000000 0.000000 0.000000 0.000000 0.000000 0.065088
#
#
# Mechanical properties :
#
#
# Convention : Reuss Voigt Hill
#
# Bulk Modulus (GPa) = 26.79630 27.42602 27.11116
# Shear Modulus (GPa) = -99.87175 28.47894 -35.69640
#
# Velocity S-wave (km/s) = -6.37014 3.40165 -3.80838
# Velocity P-wave (km/s) = 6.57399 5.15477 2.88493
#
# Compressibility (1/GPa) = 0.03731858
#
# Stress axis : x y z
#
# Youngs Moduli (GPa) = 112.74570 79.73981 82.00685
#
# Poissons Ratio (x) = -0.12081 -0.00307
# Poissons Ratio (y) = -0.17082 -0.02497
# Poissons Ratio (z) = -0.00422 -0.02428
#
# Static dielectric constant tensor:
#      x y z
#    x 1.913060 0.000000 0.000000 
#    y 0.000000 2.242700 0.000000 
#    z 0.000000 0.000000 2.296900 
# 
# From -- ./inp_files/19651.got.cif
#   From: 2010.05.17/outbox.cif.g08.bks.cpg/sg52_10_cif.got.tgz:19651.got - 2010.06.03 12:15:38.
