data_PCOD9411490
_publ_section_title
;
Structure prediction by ZEFSAII (Michael W. Deem and Ramdas Pophale) SiO2 
 PCOD9411490
Probable space group: P N N A
;
_chemical_formula_sum "Si O2"
_cell_formula_units_Z 48
_cell_length_a 5.432832
_cell_length_b 15.781384
_cell_length_c 24.847435
_cell_angle_alpha 90.000000
_cell_angle_beta 90.000000
_cell_angle_gamma 90.000000
_cell_volume 2130.359642
_symmetry_space_group_name_H-M "P N N A"
_symmetry_group_IT_number 52
_symmetry_cell_setting 'orthorhombic'
loop_
_space_group_symop_operation_xyz
x,y,z
1/2-x,-y,z
x,1/2-y,1/2-z
1/2-x,1/2+y,1/2-z
-x,-y,-z
1/2+x,y,-z
-x,1/2+y,1/2+z
1/2+x,1/2-y,1/2+z
loop_
_atom_site_type_symbol
_atom_site_label
_atom_site_fract_x
_atom_site_fract_y
_atom_site_fract_z
Si Si1 0.164780 0.810578 0.198796
Si Si2 0.763029 0.405614 0.937575
Si Si3 0.262713 0.740075 0.513887
Si Si4 0.145735 0.588083 0.710629
Si Si5 0.122843 0.296025 0.878868
Si Si6 0.425373 0.078051 0.668448
O O1 0.220889 0.750000 0.250000
O O2 0.409997 0.864650 0.185498
O O3 0.099027 0.754867 0.146513
O O4 0.902075 0.857638 0.212061
O O5 0.750000 0.500000 0.962310
O O6 0.022900 0.374821 0.914169
O O7 0.608491 0.413624 0.881784
O O8 0.698021 0.329134 0.979151
O O9 0.526719 0.697096 0.510703
O O10 0.217668 0.748539 0.577292
O O11 0.250000 0.500000 0.687098
O O12 0.018534 0.564874 0.768970
O O13 0.280796 0.333657 0.831345
O O14 0.250000 0.000000 0.655785
#
# Coordination Sequence:
#
# PCOD9411490 Si02
#       6
#     8   8   8   8   8   8
#     4  12  24  41  64  93 122 161 207 265 322 373
#     4  11  22  35  56  81 127 174 215 250 293 365
#     4  10  22  36  54  78 119 163 207 251 292 354
#     4  11  26  43  65  88 125 163 213 261 319 380
#     4  11  23  37  55  85 119 163 210 258 301 357
#     4  11  21  36  56  83 119 168 211 252 299 362
#
# _framework density 22.531404999999999
#
# number of rings (size 3 to 8) (size 9 to 14) (size 15 to 20)
#    0.000    1.000    5.000    2.000    2.333    3.333 
#    0.000    0.000    0.000    0.000    0.000    0.000 
#    0.000   53.333    0.000    0.000    0.000    0.000 
#
# Total GULP energy -267292.852662 kJ/mol
# GULP energy per Si atom -5568.601097 kJ/mol
# Density = 2.248012 g / cm^3
# Si number density = 22.531405 Si / 1000 Ang^3
#
#
#
# Elastic Constant Matrix: (Units=GPa)
#
#
# Indices 1 2 3 4 5 6 
#
# 1 114.4832 32.1337 4.7888 0.0000 0.0000 0.0000
# 2 32.1337 56.6477 4.4846 0.0000 0.0000 0.0000
# 3 4.7888 4.4846 48.1026 0.0000 0.0000 0.0000
# 4 0.0000 0.0000 0.0000 14.0238 0.0000 0.0000
# 5 0.0000 0.0000 0.0000 0.0000 29.8074 0.0000
# 6 0.0000 0.0000 0.0000 0.0000 0.0000 42.2388
#
#
#
# Elastic Compliance Matrix: (Units=1/GPa)
#
#
# Indices 1 2 3 4 5 6 
#
# 1 0.010400 -0.005861 -0.000489 0.000000 0.000000 0.000000
# 2 -0.005861 0.021087 -0.001382 0.000000 0.000000 0.000000
# 3 -0.000489 -0.001382 0.020966 0.000000 0.000000 0.000000
# 4 0.000000 0.000000 0.000000 0.071307 0.000000 0.000000
# 5 0.000000 0.000000 0.000000 0.000000 0.033549 0.000000
# 6 0.000000 0.000000 0.000000 0.000000 0.000000 0.023675
#
#
# Mechanical properties :
#
#
# Convention : Reuss Voigt Hill
#
# Bulk Modulus (GPa) = 27.03499 33.56086 30.29793
# Shear Modulus (GPa) = 23.94868 29.06908 26.50888
#
# Velocity S-wave (km/s) = 3.26375 3.59577 3.43378
# Velocity P-wave (km/s) = 5.12129 5.67159 5.40345
#
# Compressibility (1/GPa) = 0.03698910
#
# Stress axis : x y z
#
# Youngs Moduli (GPa) = 96.14956 47.42232 47.69523
#
# Poissons Ratio (x) = 0.27794 0.02332
# Poissons Ratio (y) = 0.56353 0.06594
# Poissons Ratio (z) = 0.04702 0.06556
#
# Static dielectric constant tensor:
#      x y z
#    x 1.959830 0.000000 0.000000 
#    y 0.000000 1.915600 0.000000 
#    z 0.000000 0.000000 1.879830 
# 
# From -- ./inp_files/41690.got.cif
#   From: 2010.05.17/outbox.cif.g08.bks.cpg/sg52_21_cif.got.tgz:41690.got - 2010.06.03 12:15:38.
