data_PCOD9411725
_publ_section_title
;
Structure prediction by ZEFSAII (Michael W. Deem and Ramdas Pophale) SiO2 
 PCOD9411725
Probable space group: P N N A
;
_chemical_formula_sum "Si O2"
_cell_formula_units_Z 60
_cell_length_a 24.073015
_cell_length_b 10.285058
_cell_length_c 11.601222
_cell_angle_alpha 90.000000
_cell_angle_beta 90.000000
_cell_angle_gamma 90.000000
_cell_volume 2872.373882
_symmetry_space_group_name_H-M "P N N A"
_symmetry_group_IT_number 52
_symmetry_cell_setting 'orthorhombic'
loop_
_space_group_symop_operation_xyz
x,y,z
1/2-x,-y,z
x,1/2-y,1/2-z
1/2-x,1/2+y,1/2-z
-x,-y,-z
1/2+x,y,-z
-x,1/2+y,1/2+z
1/2+x,1/2-y,1/2+z
loop_
_atom_site_type_symbol
_atom_site_label
_atom_site_fract_x
_atom_site_fract_y
_atom_site_fract_z
Si Si1 0.530844 0.660679 0.923115
Si Si2 0.881278 0.976485 0.477004
Si Si3 0.056048 0.039368 0.740016
Si Si4 0.737466 0.855769 0.851247
Si Si5 0.915823 0.250000 0.250000
Si Si6 0.140905 0.751809 0.001809
Si Si7 0.357730 0.781012 0.115768
Si Si8 0.044243 0.115308 0.991868
O O1 0.558980 0.537870 0.985783
O O2 0.498005 0.610577 0.812064
O O3 0.488398 0.748204 0.995992
O O4 0.500000 0.000000 0.000000
O O5 0.891701 0.942063 0.344628
O O6 0.841143 0.098909 0.500271
O O7 0.868168 0.851572 0.548466
O O8 0.049068 0.882810 0.743322
O O9 0.068200 0.098193 0.863865
O O10 0.727573 0.750000 0.750000
O O11 0.687396 0.841818 0.942626
O O12 0.795644 0.824020 0.912376
O O13 0.750000 0.000000 0.802906
O O14 0.880282 0.269368 0.369013
O O15 0.085927 0.751813 0.083869
O O16 0.360475 0.750000 0.250000
O O17 0.405581 0.882124 0.080811
#
# Coordination Sequence:
#
# PCOD9411725 Si02
#       8
#     8   8   8   8   4   8   8   8
#     4  10  22  40  62  98 132 193 214 276 341 422
#     4   9  22  41  68  92 135 181 226 280 334 427
#     4  11  22  40  63  97 141 179 228 266 346 403
#     4  11  28  49  78  98 137 178 237 306 354 413
#     4  10  22  40  72 100 136 188 222 286 332 438
#     4   9  23  44  72  97 138 182 238 274 358 412
#     4  11  27  45  67 103 132 176 238 289 361 410
#     4  12  27  37  63  99 145 176 229 286 342 423
#
# _framework density 20.888645
#
# number of rings (size 3 to 8) (size 9 to 14) (size 15 to 20)
#    0.800    0.800    1.333    1.600    9.333    1.067 
#    1.200    1.333    0.000    0.000    0.000    0.000 
#    0.000    0.000    0.000    0.000    0.000    0.000 
#
# Total GULP energy -334608.257837 kJ/mol
# GULP energy per Si atom -5576.804297 kJ/mol
# Density = 2.084110 g / cm^3
# Si number density = 20.888645 Si / 1000 Ang^3
#
#
#
# Elastic Constant Matrix: (Units=GPa)
#
#
# Indices 1 2 3 4 5 6 
#
# 1 103.7428 28.2307 25.9370 0.0000 0.0000 0.0000
# 2 28.2307 106.2780 20.8388 0.0000 0.0000 0.0000
# 3 25.9370 20.8388 64.1703 0.0000 0.0000 0.0000
# 4 0.0000 0.0000 0.0000 30.5502 0.0000 0.0000
# 5 0.0000 0.0000 0.0000 0.0000 20.6772 0.0000
# 6 0.0000 0.0000 0.0000 0.0000 0.0000 27.1631
#
#
#
# Elastic Compliance Matrix: (Units=1/GPa)
#
#
# Indices 1 2 3 4 5 6 
#
# 1 0.011196 -0.002229 -0.003802 0.000000 0.000000 0.000000
# 2 -0.002229 0.010493 -0.002507 0.000000 0.000000 0.000000
# 3 -0.003802 -0.002507 0.017934 0.000000 0.000000 0.000000
# 4 0.000000 0.000000 0.000000 0.032733 0.000000 0.000000
# 5 0.000000 0.000000 0.000000 0.000000 0.048362 0.000000
# 6 0.000000 0.000000 0.000000 0.000000 0.000000 0.036815
#
#
# Mechanical properties :
#
#
# Convention : Reuss Voigt Hill
#
# Bulk Modulus (GPa) = 44.34746 47.13379 45.74062
# Shear Modulus (GPa) = 27.45391 28.95707 28.20549
#
# Velocity S-wave (km/s) = 3.62926 3.72729 3.67860
# Velocity P-wave (km/s) = 6.23206 6.41380 6.32358
#
# Compressibility (1/GPa) = 0.02254921
#
# Stress axis : x y z
#
# Youngs Moduli (GPa) = 89.31653 95.30363 55.75955
#
# Poissons Ratio (x) = 0.21240 0.21198
# Poissons Ratio (y) = 0.19905 0.13977
# Poissons Ratio (z) = 0.33955 0.23889
#
# Static dielectric constant tensor:
#      x y z
#    x 1.754100 0.000000 0.000000 
#    y 0.000000 1.829050 0.000000 
#    z 0.000000 0.000000 1.776830 
# 
# From -- ./inp_files/23148.got.cif
#   From: 2010.05.17/outbox.cif.g08.bks.cpg/sg52_12_cif.got.tgz:23148.got - 2010.06.03 12:15:38.
