data_PCOD9411093
_publ_section_title
;
Structure prediction by ZEFSAII (Michael W. Deem and Ramdas Pophale) SiO2 
 PCOD9411093
Probable space group: P N N A
;
_chemical_formula_sum "Si O2"
_cell_formula_units_Z 40
_cell_length_a 17.879885
_cell_length_b 8.509534
_cell_length_c 13.595631
_cell_angle_alpha 90.000000
_cell_angle_beta 90.000000
_cell_angle_gamma 90.000000
_cell_volume 2068.568314
_symmetry_space_group_name_H-M "P N N A"
_symmetry_group_IT_number 52
_symmetry_cell_setting 'orthorhombic'
loop_
_space_group_symop_operation_xyz
x,y,z
1/2-x,-y,z
x,1/2-y,1/2-z
1/2-x,1/2+y,1/2-z
-x,-y,-z
1/2+x,y,-z
-x,1/2+y,1/2+z
1/2+x,1/2-y,1/2+z
loop_
_atom_site_type_symbol
_atom_site_label
_atom_site_fract_x
_atom_site_fract_y
_atom_site_fract_z
Si Si1 0.412738 0.688201 0.639006
Si Si2 0.302501 0.146986 0.346559
Si Si3 0.952435 0.147057 0.537771
Si Si4 0.624340 0.678818 0.355666
Si Si5 0.235109 0.312464 0.950827
O O1 0.406946 0.750000 0.750000
O O2 0.493031 0.735014 0.595732
O O3 0.395474 0.503705 0.639114
O O4 0.349733 0.774009 0.573734
O O5 0.312744 0.250000 0.250000
O O6 0.382774 0.100119 0.392523
O O7 0.259695 0.230144 0.438110
O O8 0.250000 0.000000 0.321711
O O9 0.918570 0.231432 0.442397
O O10 0.000000 0.000000 0.500000
O O11 0.604567 0.750000 0.250000
O O12 0.711426 0.715981 0.377557
O O13 0.250000 0.500000 0.939758
#
# Coordination Sequence:
#
# PCOD9411093 Si02
#       5
#     8   8   8   8   8
#     4  12  23  39  62  90 122 159 202 256 315 374
#     4  10  22  40  62  88 120 160 206 254 311 376
#     4  11  23  42  63  88 125 162 206 261 318 381
#     4  11  23  39  60  89 120 159 203 249 308 377
#     4  10  21  40  62  87 120 160 205 256 308 370
#
# _framework density 19.337046999999998
#
# number of rings (size 3 to 8) (size 9 to 14) (size 15 to 20)
#    0.000    1.200    0.000    8.400    0.000    3.200 
#    0.000   10.000    0.000    0.000    0.000    0.000 
#    0.000    0.000    0.000    0.000    0.000    0.000 
#
# Total GULP energy -223633.153059 kJ/mol
# GULP energy per Si atom -5590.828826 kJ/mol
# Density = 1.929303 g / cm^3
# Si number density = 19.337047 Si / 1000 Ang^3
#
#
#
# Elastic Constant Matrix: (Units=GPa)
#
#
# Indices 1 2 3 4 5 6 
#
# 1 132.1507 38.6849 49.7182 0.0000 0.0000 0.0000
# 2 38.6849 110.3723 43.0997 0.0000 0.0000 0.0000
# 3 49.7182 43.0997 119.3630 0.0000 0.0000 0.0000
# 4 0.0000 0.0000 0.0000 25.3076 0.0000 0.0000
# 5 0.0000 0.0000 0.0000 0.0000 23.5495 0.0000
# 6 0.0000 0.0000 0.0000 0.0000 0.0000 34.6139
#
#
#
# Elastic Compliance Matrix: (Units=1/GPa)
#
#
# Indices 1 2 3 4 5 6 
#
# 1 0.009354 -0.002045 -0.003158 0.000000 0.000000 0.000000
# 2 -0.002045 0.010995 -0.003118 0.000000 0.000000 0.000000
# 3 -0.003158 -0.003118 0.010819 0.000000 0.000000 0.000000
# 4 0.000000 0.000000 0.000000 0.039514 0.000000 0.000000
# 5 0.000000 0.000000 0.000000 0.000000 0.042464 0.000000
# 6 0.000000 0.000000 0.000000 0.000000 0.000000 0.028890
#
#
# Mechanical properties :
#
#
# Convention : Reuss Voigt Hill
#
# Bulk Modulus (GPa) = 68.84492 69.43237 69.13864
# Shear Modulus (GPa) = 30.57752 32.05310 31.31531
#
# Velocity S-wave (km/s) = 3.98086 4.07578 4.02860
# Velocity P-wave (km/s) = 7.53721 7.62454 7.58100
#
# Compressibility (1/GPa) = 0.01452540
#
# Stress axis : x y z
#
# Youngs Moduli (GPa) = 106.90794 90.95272 92.43106
#
# Poissons Ratio (x) = 0.18604 0.29186
# Poissons Ratio (y) = 0.21868 0.28820
# Poissons Ratio (z) = 0.33757 0.28359
#
# Static dielectric constant tensor:
#      x y z
#    x 1.678550 0.000000 0.000000 
#    y 0.000000 1.661550 0.000000 
#    z 0.000000 0.000000 1.654230 
# 
# From -- ./inp_files/20278.got.cif
#   From: 2010.05.17/outbox.cif.g08.bks.cpg/sg52_11_cif.got.tgz:20278.got - 2010.06.03 12:15:38.
