data_PCOD9411659
_publ_section_title
;
Structure prediction by ZEFSAII (Michael W. Deem and Ramdas Pophale) SiO2 
 PCOD9411659
Probable space group: P N N A
;
_chemical_formula_sum "Si O2"
_cell_formula_units_Z 60
_cell_length_a 24.149074
_cell_length_b 8.461243
_cell_length_c 14.311476
_cell_angle_alpha 90.000000
_cell_angle_beta 90.000000
_cell_angle_gamma 90.000000
_cell_volume 2924.280826
_symmetry_space_group_name_H-M "P N N A"
_symmetry_group_IT_number 52
_symmetry_cell_setting 'orthorhombic'
loop_
_space_group_symop_operation_xyz
x,y,z
1/2-x,-y,z
x,1/2-y,1/2-z
1/2-x,1/2+y,1/2-z
-x,-y,-z
1/2+x,y,-z
-x,1/2+y,1/2+z
1/2+x,1/2-y,1/2+z
loop_
_atom_site_type_symbol
_atom_site_label
_atom_site_fract_x
_atom_site_fract_y
_atom_site_fract_z
Si Si1 0.796449 0.752481 0.353927
Si Si2 0.803450 0.074676 0.717201
Si Si3 0.064919 0.307051 0.441836
Si Si4 0.389208 0.961160 0.574491
Si Si5 0.451330 0.247755 0.856152
Si Si6 0.872538 0.750000 0.750000
Si Si7 0.639901 0.963737 0.060676
Si Si8 0.795195 0.183737 0.510173
O O1 0.771371 0.750000 0.250000
O O2 0.851251 0.862303 0.353914
O O3 0.819831 0.583239 0.385572
O O4 0.754410 0.812645 0.434371
O O5 0.824796 0.250000 0.750000
O O6 0.782158 0.128782 0.614172
O O7 0.750000 0.000000 0.770039
O O8 0.842097 0.917531 0.721057
O O9 0.081163 0.154080 0.502191
O O10 0.092784 0.294481 0.340972
O O11 0.094997 0.445665 0.498237
O O12 0.999519 0.314214 0.423974
O O13 0.434211 0.074469 0.619264
O O14 0.344487 0.069515 0.522306
O O15 0.470658 0.250000 0.750000
O O16 0.395778 0.144155 0.869102
O O17 0.678014 0.856896 0.994567
#
# Coordination Sequence:
#
# PCOD9411659 Si02
#       8
#     8   8   8   8   8   4   8   8
#     4  11  23  40  64  95 131 174 217 267 332 405
#     4  12  25  41  65  98 134 179 225 278 341 410
#     4  11  22  43  65  90 124 172 218 277 339 395
#     4  10  22  39  63  89 129 164 210 269 329 393
#     4  11  22  40  65  93 123 169 222 271 336 404
#     4  12  24  44  70  98 134 176 232 280 340 408
#     4  10  24  40  63  93 129 167 216 275 336 401
#     4  11  23  40  61  91 129 168 213 266 335 400
#
# _framework density 20.517865
#
# number of rings (size 3 to 8) (size 9 to 14) (size 15 to 20)
#    0.000    1.067    2.667    4.000    1.867    5.333 
#    0.000    0.000    0.000    0.000    0.000    0.000 
#    0.000    0.000    0.000    0.000    0.000    0.000 
#
# Total GULP energy -334656.042000 kJ/mol
# GULP energy per Si atom -5577.600700 kJ/mol
# Density = 2.047117 g / cm^3
# Si number density = 20.517865 Si / 1000 Ang^3
#
#
#
# Elastic Constant Matrix: (Units=GPa)
#
#
# Indices 1 2 3 4 5 6 
#
# 1 75.3936 28.3489 20.3371 0.0000 0.0000 0.0000
# 2 28.3489 125.3632 30.7174 0.0000 0.0000 0.0000
# 3 20.3371 30.7174 99.3775 0.0000 0.0000 0.0000
# 4 0.0000 0.0000 0.0000 10.6304 0.0000 0.0000
# 5 0.0000 0.0000 0.0000 0.0000 30.1595 0.0000
# 6 0.0000 0.0000 0.0000 0.0000 0.0000 11.5529
#
#
#
# Elastic Compliance Matrix: (Units=1/GPa)
#
#
# Indices 1 2 3 4 5 6 
#
# 1 0.014919 -0.002841 -0.002175 0.000000 0.000000 0.000000
# 2 -0.002841 0.009171 -0.002254 0.000000 0.000000 0.000000
# 3 -0.002175 -0.002254 0.011204 0.000000 0.000000 0.000000
# 4 0.000000 0.000000 0.000000 0.094070 0.000000 0.000000
# 5 0.000000 0.000000 0.000000 0.000000 0.033157 0.000000
# 6 0.000000 0.000000 0.000000 0.000000 0.000000 0.086558
#
#
# Mechanical properties :
#
#
# Convention : Reuss Voigt Hill
#
# Bulk Modulus (GPa) = 48.17910 50.99347 49.58629
# Shear Modulus (GPa) = 18.48179 25.18394 21.83287
#
# Velocity S-wave (km/s) = 3.00453 3.50725 3.26558
# Velocity P-wave (km/s) = 5.96396 6.42715 6.19988
#
# Compressibility (1/GPa) = 0.02075589
#
# Stress axis : x y z
#
# Youngs Moduli (GPa) = 67.03071 109.03491 89.25153
#
# Poissons Ratio (x) = 0.30973 0.19412
# Poissons Ratio (y) = 0.19041 0.20113
# Poissons Ratio (z) = 0.14579 0.24571
#
# Static dielectric constant tensor:
#      x y z
#    x 1.720030 0.000000 0.000000 
#    y 0.000000 1.772070 0.000000 
#    z 0.000000 0.000000 1.741940 
# 
# From -- ./inp_files/29195.got.cif
#   From: 2010.05.17/outbox.cif.g08.bks.cpg/sg52_15_cif.got.tgz:29195.got - 2010.06.03 12:15:38.
