data_PCOD9411238
_publ_section_title
;
Structure prediction by ZEFSAII (Michael W. Deem and Ramdas Pophale) SiO2 
 PCOD9411238
Probable space group: P N N A
;
_chemical_formula_sum "Si O2"
_cell_formula_units_Z 40
_cell_length_a 6.714688
_cell_length_b 17.698971
_cell_length_c 12.990456
_cell_angle_alpha 90.000000
_cell_angle_beta 90.000000
_cell_angle_gamma 90.000000
_cell_volume 1543.825648
_symmetry_space_group_name_H-M "P N N A"
_symmetry_group_IT_number 52
_symmetry_cell_setting 'orthorhombic'
loop_
_space_group_symop_operation_xyz
x,y,z
1/2-x,-y,z
x,1/2-y,1/2-z
1/2-x,1/2+y,1/2-z
-x,-y,-z
1/2+x,y,-z
-x,1/2+y,1/2+z
1/2+x,1/2-y,1/2+z
loop_
_atom_site_type_symbol
_atom_site_label
_atom_site_fract_x
_atom_site_fract_y
_atom_site_fract_z
Si Si1 0.127464 0.679237 0.347740
Si Si2 0.273812 0.351918 0.131718
Si Si3 0.877406 0.060504 0.026062
Si Si4 0.176360 0.416007 0.920075
Si Si5 0.668519 0.836577 0.225036
O O1 0.165798 0.764574 0.382372
O O2 0.154294 0.625572 0.442368
O O3 0.271037 0.651681 0.253801
O O4 0.900667 0.676139 0.308812
O O5 0.456942 0.410797 0.127306
O O6 0.818559 0.377155 0.164089
O O7 0.157303 0.373854 0.029025
O O8 0.901119 0.103733 0.136114
O O9 0.619489 0.036068 0.024032
O O10 0.250000 0.500000 0.936640
O O11 0.597471 0.750000 0.250000
#
# Coordination Sequence:
#
# PCOD9411238 Si02
#       5
#     8   8   8   8   8
#     4  10  21  41  65  87 128 175 213 259 329 395
#     4  10  22  41  63  87 124 170 211 263 321 391
#     4  12  25  41  68 101 133 172 223 280 337 393
#     4  11  22  38  64  91 124 162 213 265 323 384
#     4  11  21  43  67  91 125 179 218 257 330 415
#
# _framework density 25.909661
#
# number of rings (size 3 to 8) (size 9 to 14) (size 15 to 20)
#    0.000    1.200    6.000    2.400    2.800    0.800 
#    3.600    0.000    0.000    0.000    0.000    0.000 
#    0.000    0.000    0.000    0.000    0.000    0.000 
#
# Total GULP energy -223338.669298 kJ/mol
# GULP energy per Si atom -5583.466732 kJ/mol
# Density = 2.585069 g / cm^3
# Si number density = 25.909661 Si / 1000 Ang^3
#
#
#
# Elastic Constant Matrix: (Units=GPa)
#
#
# Indices 1 2 3 4 5 6 
#
# 1 75.4847 50.4084 55.9990 0.0000 0.0000 0.0000
# 2 50.4084 185.5739 120.4699 0.0000 0.0000 0.0000
# 3 55.9990 120.4699 177.3375 0.0000 0.0000 0.0000
# 4 0.0000 0.0000 0.0000 49.9393 0.0000 0.0000
# 5 0.0000 0.0000 0.0000 0.0000 40.3769 0.0000
# 6 0.0000 0.0000 0.0000 0.0000 0.0000 43.8537
#
#
#
# Elastic Compliance Matrix: (Units=1/GPa)
#
#
# Indices 1 2 3 4 5 6 
#
# 1 0.017753 -0.002116 -0.004168 0.000000 0.000000 0.000000
# 2 -0.002116 0.009892 -0.006052 0.000000 0.000000 0.000000
# 3 -0.004168 -0.006052 0.011066 0.000000 0.000000 0.000000
# 4 0.000000 0.000000 0.000000 0.020024 0.000000 0.000000
# 5 0.000000 0.000000 0.000000 0.000000 0.024767 0.000000
# 6 0.000000 0.000000 0.000000 0.000000 0.000000 0.022803
#
#
# Mechanical properties :
#
#
# Convention : Reuss Voigt Hill
#
# Bulk Modulus (GPa) = 71.23065 99.12787 85.17926
# Shear Modulus (GPa) = 36.85722 40.93523 38.89623
#
# Velocity S-wave (km/s) = 3.77573 3.97913 3.87877
# Velocity P-wave (km/s) = 6.82348 7.71061 7.28057
#
# Compressibility (1/GPa) = 0.01403890
#
# Stress axis : x y z
#
# Youngs Moduli (GPa) = 56.32726 101.08960 90.36434
#
# Poissons Ratio (x) = 0.21395 0.37667
# Poissons Ratio (y) = 0.11921 0.54686
# Poissons Ratio (z) = 0.23479 0.61176
#
# Static dielectric constant tensor:
#      x y z
#    x 2.477310 0.000000 0.000000 
#    y 0.000000 1.897620 0.000000 
#    z 0.000000 0.000000 1.808490 
# 
# From -- ./inp_files/22629.got.cif
#   From: 2010.05.17/outbox.cif.g08.bks.cpg/sg52_12_cif.got.tgz:22629.got - 2010.06.03 12:15:38.
