data_PCOD9411107
_publ_section_title
;
Structure prediction by ZEFSAII (Michael W. Deem and Ramdas Pophale) SiO2 
 PCOD9411107
Probable space group: P N N A
;
_chemical_formula_sum "Si O2"
_cell_formula_units_Z 44
_cell_length_a 7.923847
_cell_length_b 17.090028
_cell_length_c 12.739407
_cell_angle_alpha 90.000000
_cell_angle_beta 90.000000
_cell_angle_gamma 90.000000
_cell_volume 1725.154789
_symmetry_space_group_name_H-M "P N N A"
_symmetry_group_IT_number 52
_symmetry_cell_setting 'orthorhombic'
loop_
_space_group_symop_operation_xyz
x,y,z
1/2-x,-y,z
x,1/2-y,1/2-z
1/2-x,1/2+y,1/2-z
-x,-y,-z
1/2+x,y,-z
-x,1/2+y,1/2+z
1/2+x,1/2-y,1/2+z
loop_
_atom_site_type_symbol
_atom_site_label
_atom_site_fract_x
_atom_site_fract_y
_atom_site_fract_z
Si Si1 0.099361 0.443633 0.773055
Si Si2 0.458710 0.717520 0.859653
Si Si3 0.901423 0.840508 0.862676
Si Si4 0.250000 0.000000 0.373473
Si Si5 0.773100 0.627108 0.424391
Si Si6 0.312378 0.665464 0.120348
O O1 0.250000 0.500000 0.804212
O O2 0.113344 0.429062 0.647741
O O3 0.137965 0.360249 0.827680
O O4 0.914397 0.470080 0.809331
O O5 0.530731 0.750000 0.750000
O O6 0.347003 0.786169 0.903561
O O7 0.627543 0.693289 0.918455
O O8 0.915874 0.746648 0.885959
O O9 0.834903 0.852057 0.745211
O O10 0.085580 0.876158 0.879626
O O11 0.783641 0.880232 0.950699
O O12 0.325160 0.921429 0.429737
#
# Coordination Sequence:
#
# PCOD9411107 Si02
#       6
#     8   8   8   4   8   8
#     4  10  22  39  62  93 129 166 208 251 321 386
#     4   9  18  36  62  81 118 158 208 250 304 353
#     4  11  23  37  64  89 126 161 221 255 315 363
#     4  10  22  38  68  86 130 168 204 252 328 372
#     4  11  24  38  62  94 123 165 208 272 304 369
#     4  10  21  40  63  89 118 167 207 257 307 388
#
# _framework density 25.504957999999998
#
# number of rings (size 3 to 8) (size 9 to 14) (size 15 to 20)
#    0.000    1.818    1.818    2.182   15.273    0.000 
#    1.636    1.818    2.000    3.273    0.000    0.000 
#    0.000    0.000    0.000    0.000    0.000    0.000 
#
# Total GULP energy -245756.376023 kJ/mol
# GULP energy per Si atom -5585.372182 kJ/mol
# Density = 2.544691 g / cm^3
# Si number density = 25.504958 Si / 1000 Ang^3
#
#
#
# Elastic Constant Matrix: (Units=GPa)
#
#
# Indices 1 2 3 4 5 6 
#
# 1 96.9289 12.3039 10.2410 0.0000 0.0000 0.0000
# 2 12.3039 119.0953 -19.2013 0.0000 0.0000 0.0000
# 3 10.2410 -19.2013 65.9291 0.0000 0.0000 0.0000
# 4 0.0000 0.0000 0.0000 8.5240 0.0000 0.0000
# 5 0.0000 0.0000 0.0000 0.0000 23.7719 0.0000
# 6 0.0000 0.0000 0.0000 0.0000 0.0000 39.0924
#
#
#
# Elastic Compliance Matrix: (Units=1/GPa)
#
#
# Indices 1 2 3 4 5 6 
#
# 1 0.010720 -0.001444 -0.002086 0.000000 0.000000 0.000000
# 2 -0.001444 0.009005 0.002847 0.000000 0.000000 0.000000
# 3 -0.002086 0.002847 0.016321 0.000000 0.000000 0.000000
# 4 0.000000 0.000000 0.000000 0.117316 0.000000 0.000000
# 5 0.000000 0.000000 0.000000 0.000000 0.042067 0.000000
# 6 0.000000 0.000000 0.000000 0.000000 0.000000 0.025580
#
#
# Mechanical properties :
#
#
# Convention : Reuss Voigt Hill
#
# Bulk Modulus (GPa) = 28.83446 32.07116 30.45281
# Shear Modulus (GPa) = 21.37351 32.85163 27.11257
#
# Velocity S-wave (km/s) = 2.89799 3.59283 3.26395
# Velocity P-wave (km/s) = 4.74634 5.46013 5.11570
#
# Compressibility (1/GPa) = 0.03468072
#
# Stress axis : x y z
#
# Youngs Moduli (GPa) = 93.27935 111.05205 61.27104
#
# Poissons Ratio (x) = 0.16034 0.12780
# Poissons Ratio (y) = 0.13468 -0.17443
# Poissons Ratio (z) = 0.19456 -0.31615
#
# Static dielectric constant tensor:
#      x y z
#    x 1.929380 0.000000 0.000000 
#    y 0.000000 2.051440 0.000000 
#    z 0.000000 0.000000 2.084670 
# 
# From -- ./inp_files/24659.got.cif
#   From: 2010.05.17/outbox.cif.g08.bks.cpg/sg52_13_cif.got.tgz:24659.got - 2010.06.03 12:15:38.
