data_PCOD9411812
_publ_section_title
;
Structure prediction by ZEFSAII (Michael W. Deem and Ramdas Pophale) SiO2 
 PCOD9411812
Probable space group: P N N A
;
_chemical_formula_sum "Si O2"
_cell_formula_units_Z 28
_cell_length_a 8.474130
_cell_length_b 11.812029
_cell_length_c 11.522934
_cell_angle_alpha 90.000000
_cell_angle_beta 90.000000
_cell_angle_gamma 90.000000
_cell_volume 1153.407314
_symmetry_space_group_name_H-M "P N N A"
_symmetry_group_IT_number 52
_symmetry_cell_setting 'orthorhombic'
loop_
_space_group_symop_operation_xyz
x,y,z
1/2-x,-y,z
x,1/2-y,1/2-z
1/2-x,1/2+y,1/2-z
-x,-y,-z
1/2+x,y,-z
-x,1/2+y,1/2+z
1/2+x,1/2-y,1/2+z
loop_
_atom_site_type_symbol
_atom_site_label
_atom_site_fract_x
_atom_site_fract_y
_atom_site_fract_z
Si Si1 0.386355 0.085712 0.436765
Si Si2 0.359432 0.250000 0.250000
Si Si3 0.813559 0.287037 0.381603
Si Si4 0.354378 0.887972 0.073232
O O1 0.447859 0.154343 0.324561
O O2 0.343135 0.177019 0.536740
O O3 0.250000 0.000000 0.394516
O O4 0.500000 0.000000 0.500000
O O5 0.240783 0.196994 0.156032
O O6 0.798917 0.250000 0.250000
O O7 0.664283 0.347728 0.440111
O O8 0.962898 0.373092 0.394691
O O9 0.250000 0.000000 0.085697
#
# Coordination Sequence:
#
# PCOD9411812 Si02
#       4
#     8   4   8   8
#     4  11  24  45  70 104 140 190 240 298 372 435
#     4  10  22  40  72  98 134 186 234 288 352 444
#     4  11  25  45  67 103 144 177 244 300 355 454
#     4  11  23  44  70 100 138 187 233 295 367 432
#
# _framework density 24.275901000000001
#
# number of rings (size 3 to 8) (size 9 to 14) (size 15 to 20)
#    0.000    1.143    1.429    5.143    4.000    1.143 
#   23.143    0.000    0.000    0.000    0.000    0.000 
#    0.000    0.000    0.000    0.000    0.000    0.000 
#
# Total GULP energy -156549.025064 kJ/mol
# GULP energy per Si atom -5591.036609 kJ/mol
# Density = 2.422065 g / cm^3
# Si number density = 24.275901 Si / 1000 Ang^3
#
#
#
# Elastic Constant Matrix: (Units=GPa)
#
#
# Indices 1 2 3 4 5 6 
#
# 1 61.1203 20.2833 31.7856 0.0000 0.0000 0.0000
# 2 20.2833 108.8520 54.9870 0.0000 0.0000 0.0000
# 3 31.7856 54.9870 206.6777 0.0000 0.0000 0.0000
# 4 0.0000 0.0000 0.0000 41.9787 0.0000 0.0000
# 5 0.0000 0.0000 0.0000 0.0000 36.5378 0.0000
# 6 0.0000 0.0000 0.0000 0.0000 0.0000 36.9942
#
#
#
# Elastic Compliance Matrix: (Units=1/GPa)
#
#
# Indices 1 2 3 4 5 6 
#
# 1 0.018266 -0.002293 -0.002199 0.000000 0.000000 0.000000
# 2 -0.002293 0.010901 -0.002548 0.000000 0.000000 0.000000
# 3 -0.002199 -0.002548 0.005854 0.000000 0.000000 0.000000
# 4 0.000000 0.000000 0.000000 0.023822 0.000000 0.000000
# 5 0.000000 0.000000 0.000000 0.000000 0.027369 0.000000
# 6 0.000000 0.000000 0.000000 0.000000 0.000000 0.027031
#
#
# Mechanical properties :
#
#
# Convention : Reuss Voigt Hill
#
# Bulk Modulus (GPa) = 47.75054 65.64020 56.69537
# Shear Modulus (GPa) = 37.22937 41.07508 39.15222
#
# Velocity S-wave (km/s) = 3.92036 4.11787 4.02033
# Velocity P-wave (km/s) = 6.34074 7.05032 6.70492
#
# Compressibility (1/GPa) = 0.02094217
#
# Stress axis : x y z
#
# Youngs Moduli (GPa) = 54.74738 91.73524 170.80982
#
# Poissons Ratio (x) = 0.21032 0.37564
# Poissons Ratio (y) = 0.12552 0.43516
# Poissons Ratio (z) = 0.12040 0.23371
#
# Static dielectric constant tensor:
#      x y z
#    x 1.941690 0.000000 0.000000 
#    y 0.000000 1.993140 0.000000 
#    z 0.000000 0.000000 1.910790 
# 
# From -- ./inp_files/16372.got.cif
#   From: 2010.05.17/outbox.cif.g08.bks.cpg/sg52_9_cif.got.tgz:16372.got - 2010.06.03 12:15:38.
