data_PCOD9411270
_publ_section_title
;
Structure prediction by ZEFSAII (Michael W. Deem and Ramdas Pophale) SiO2 
 PCOD9411270
Probable space group: P N N A
;
_chemical_formula_sum "Si O2"
_cell_formula_units_Z 28
_cell_length_a 17.691479
_cell_length_b 15.090430
_cell_length_c 5.152692
_cell_angle_alpha 90.000000
_cell_angle_beta 90.000000
_cell_angle_gamma 90.000000
_cell_volume 1375.624620
_symmetry_space_group_name_H-M "P N N A"
_symmetry_group_IT_number 52
_symmetry_cell_setting 'orthorhombic'
loop_
_space_group_symop_operation_xyz
x,y,z
1/2-x,-y,z
x,1/2-y,1/2-z
1/2-x,1/2+y,1/2-z
-x,-y,-z
1/2+x,y,-z
-x,1/2+y,1/2+z
1/2+x,1/2-y,1/2+z
loop_
_atom_site_type_symbol
_atom_site_label
_atom_site_fract_x
_atom_site_fract_y
_atom_site_fract_z
Si Si1 0.721905 0.250000 0.250000
Si Si2 0.131370 0.801419 0.999629
Si Si3 0.409909 0.997282 0.987433
Si Si4 0.324975 0.933984 0.484565
O O1 0.778670 0.295278 0.456380
O O2 0.687218 0.166925 0.409286
O O3 0.106306 0.750000 0.250000
O O4 0.113352 0.902186 0.033023
O O5 0.098934 0.750000 0.750000
O O6 0.366956 0.939256 0.206495
O O7 0.500000 0.000000 0.000000
O O8 0.380430 0.973396 0.702619
O O9 0.250000 0.000000 0.478383
#
# Coordination Sequence:
#
# PCOD9411270 Si02
#       4
#     4   8   8   8
#     4  10  24  40  70 104 132 172 246 292 336 398
#     4  10  21  41  68  95 135 180 229 281 353 408
#     4  12  26  46  67 101 147 182 224 287 367 419
#     4  12  24  44  75 101 135 186 239 291 343 420
#
# _framework density 20.354392000000001
#
# number of rings (size 3 to 8) (size 9 to 14) (size 15 to 20)
#    0.857    0.000    2.857    5.143    4.000    0.000 
#    7.714    0.000    0.000    0.000    0.000    0.000 
#    0.000    0.000    0.000    0.000    0.000    0.000 
#
# Total GULP energy -156060.250491 kJ/mol
# GULP energy per Si atom -5573.580375 kJ/mol
# Density = 2.030806 g / cm^3
# Si number density = 20.354392 Si / 1000 Ang^3
#
#
#
# Elastic Constant Matrix: (Units=GPa)
#
#
# Indices 1 2 3 4 5 6 
#
# 1 97.4125 11.1604 5.2540 0.0000 0.0000 0.0000
# 2 11.1604 121.8097 -12.7151 0.0000 0.0000 0.0000
# 3 5.2540 -12.7151 99.0743 0.0000 0.0000 0.0000
# 4 0.0000 0.0000 0.0000 16.0425 0.0000 0.0000
# 5 0.0000 0.0000 0.0000 0.0000 22.7845 0.0000
# 6 0.0000 0.0000 0.0000 0.0000 0.0000 3.9096
#
#
#
# Elastic Compliance Matrix: (Units=1/GPa)
#
#
# Indices 1 2 3 4 5 6 
#
# 1 0.010420 -0.001026 -0.000684 0.000000 0.000000 0.000000
# 2 -0.001026 0.008422 0.001135 0.000000 0.000000 0.000000
# 3 -0.000684 0.001135 0.010275 0.000000 0.000000 0.000000
# 4 0.000000 0.000000 0.000000 0.062334 0.000000 0.000000
# 5 0.000000 0.000000 0.000000 0.000000 0.043890 0.000000
# 6 0.000000 0.000000 0.000000 0.000000 0.000000 0.255780
#
#
# Mechanical properties :
#
#
# Convention : Reuss Voigt Hill
#
# Bulk Modulus (GPa) = 35.75601 36.18835 35.97218
# Shear Modulus (GPa) = 12.45037 29.52047 20.98542
#
# Velocity S-wave (km/s) = 2.47590 3.81244 3.21441
# Velocity P-wave (km/s) = 5.07723 6.09896 5.61140
#
# Compressibility (1/GPa) = 0.02796732
#
# Stress axis : x y z
#
# Youngs Moduli (GPa) = 95.96847 118.73599 97.31962
#
# Poissons Ratio (x) = 0.12184 0.06659
# Poissons Ratio (y) = 0.09848 -0.11049
# Poissons Ratio (z) = 0.06567 -0.13480
#
# Static dielectric constant tensor:
#      x y z
#    x 1.887500 0.000000 0.000000 
#    y 0.000000 1.721700 0.000000 
#    z 0.000000 0.000000 1.603030 
# 
# From -- ./inp_files/1786.got.cif
#   From: 2010.05.17/outbox.cif.g08.bks.cpg/sg52_1_cif.got.tgz:1786.got - 2010.06.03 12:15:38.
