data_PCOD9411970
_publ_section_title
;
Structure prediction by ZEFSAII (Michael W. Deem and Ramdas Pophale) SiO2 
 PCOD9411970
Probable space group: P N N A
;
_chemical_formula_sum "Si O2"
_cell_formula_units_Z 48
_cell_length_a 13.240553
_cell_length_b 15.105627
_cell_length_c 10.458924
_cell_angle_alpha 90.000000
_cell_angle_beta 90.000000
_cell_angle_gamma 90.000000
_cell_volume 2091.856495
_symmetry_space_group_name_H-M "P N N A"
_symmetry_group_IT_number 52
_symmetry_cell_setting 'orthorhombic'
loop_
_space_group_symop_operation_xyz
x,y,z
1/2-x,-y,z
x,1/2-y,1/2-z
1/2-x,1/2+y,1/2-z
-x,-y,-z
1/2+x,y,-z
-x,1/2+y,1/2+z
1/2+x,1/2-y,1/2+z
loop_
_atom_site_type_symbol
_atom_site_label
_atom_site_fract_x
_atom_site_fract_y
_atom_site_fract_z
Si Si1 0.565252 0.592232 0.741920
Si Si2 0.237688 0.628744 0.447723
Si Si3 0.351971 0.975970 0.823155
Si Si4 0.864221 0.600471 0.809366
Si Si5 0.184960 0.669580 0.039218
Si Si6 0.917893 0.152139 0.283590
O O1 0.629096 0.595581 0.609300
O O2 0.444924 0.584837 0.722895
O O3 0.600584 0.500452 0.806222
O O4 0.606759 0.665122 0.840998
O O5 0.300499 0.575021 0.555666
O O6 0.307014 0.622953 0.321877
O O7 0.217586 0.729455 0.485392
O O8 0.401710 0.075403 0.822816
O O9 0.250000 0.000000 0.744806
O O10 0.785458 0.619193 0.919583
O O11 0.964222 0.657861 0.815213
O O12 0.134380 0.627679 0.916111
O O13 0.880684 0.250000 0.250000
#
# Coordination Sequence:
#
# PCOD9411970 Si02
#       6
#     8   8   8   8   8   8
#     4  10  23  42  68  97 130 186 232 270 347 425
#     4  11  22  42  69  98 135 178 230 283 345 428
#     4  11  25  42  66  99 136 172 222 288 346 401
#     4  10  22  42  68  94 129 183 232 279 347 419
#     4  11  23  42  67  96 137 181 231 283 341 430
#     4  11  25  42  63  97 136 178 229 289 352 406
#
# _framework density 22.946123
#
# number of rings (size 3 to 8) (size 9 to 14) (size 15 to 20)
#    0.000    1.333    0.000    7.000    0.000   14.000 
#    0.000    3.333    0.000    0.000    0.000    0.000 
#    0.000    0.000    0.000    0.000    0.000    0.000 
#
# Total GULP energy -267817.426480 kJ/mol
# GULP energy per Si atom -5579.529718 kJ/mol
# Density = 2.289390 g / cm^3
# Si number density = 22.946123 Si / 1000 Ang^3
#
#
#
# Elastic Constant Matrix: (Units=GPa)
#
#
# Indices 1 2 3 4 5 6 
#
# 1 183.2158 21.0332 64.5290 0.0000 0.0000 0.0000
# 2 21.0332 76.6660 39.3393 0.0000 0.0000 0.0000
# 3 64.5290 39.3393 113.2651 0.0000 0.0000 0.0000
# 4 0.0000 0.0000 0.0000 25.8618 0.0000 0.0000
# 5 0.0000 0.0000 0.0000 0.0000 -7.6271 0.0000
# 6 0.0000 0.0000 0.0000 0.0000 0.0000 34.9421
#
#
#
# Elastic Compliance Matrix: (Units=1/GPa)
#
#
# Indices 1 2 3 4 5 6 
#
# 1 0.006830 0.000149 -0.003943 0.000000 0.000000 0.000000
# 2 0.000149 0.015876 -0.005599 0.000000 0.000000 0.000000
# 3 -0.003943 -0.005599 0.013020 0.000000 0.000000 0.000000
# 4 0.000000 0.000000 0.000000 0.038667 0.000000 0.000000
# 5 0.000000 0.000000 0.000000 0.000000 -0.131111 0.000000
# 6 0.000000 0.000000 0.000000 0.000000 0.000000 0.028619
#
#
# Mechanical properties :
#
#
# Convention : Reuss Voigt Hill
#
# Bulk Modulus (GPa) = 59.03144 69.21666 64.12405
# Shear Modulus (GPa) = -1363.00260 27.18503 -667.90879
#
# Velocity S-wave (km/s) = -24.39858 3.44573 -17.07949
# Velocity P-wave (km/s) = 27.71171 6.78683 18.99839
#
# Compressibility (1/GPa) = 0.01694013
#
# Stress axis : x y z
#
# Youngs Moduli (GPa) = 146.42238 62.98964 76.80602
#
# Poissons Ratio (x) = -0.00942 0.30283
# Poissons Ratio (y) = -0.02189 0.43004
# Poissons Ratio (z) = 0.57732 0.35268
#
# Static dielectric constant tensor:
#      x y z
#    x 1.869220 0.000000 0.000000 
#    y 0.000000 1.922400 0.000000 
#    z 0.000000 0.000000 1.907150 
# 
# From -- ./inp_files/18202.got.cif
#   From: 2010.05.17/outbox.cif.g08.bks.cpg/sg52_10_cif.got.tgz:18202.got - 2010.06.03 12:15:38.
