data_PCOD9411975
_publ_section_title
;
Structure prediction by ZEFSAII (Michael W. Deem and Ramdas Pophale) SiO2 
 PCOD9411975
Probable space group: P N N A
;
_chemical_formula_sum "Si O2"
_cell_formula_units_Z 40
_cell_length_a 21.166729
_cell_length_b 10.149042
_cell_length_c 9.119977
_cell_angle_alpha 90.000000
_cell_angle_beta 90.000000
_cell_angle_gamma 90.000000
_cell_volume 1959.171896
_symmetry_space_group_name_H-M "P N N A"
_symmetry_group_IT_number 52
_symmetry_cell_setting 'orthorhombic'
loop_
_space_group_symop_operation_xyz
x,y,z
1/2-x,-y,z
x,1/2-y,1/2-z
1/2-x,1/2+y,1/2-z
-x,-y,-z
1/2+x,y,-z
-x,1/2+y,1/2+z
1/2+x,1/2-y,1/2+z
loop_
_atom_site_type_symbol
_atom_site_label
_atom_site_fract_x
_atom_site_fract_y
_atom_site_fract_z
Si Si1 0.835647 0.105649 0.703486
Si Si2 0.543497 0.877211 0.532226
Si Si3 0.160402 0.457586 0.708511
Si Si4 0.449748 0.750000 0.750000
Si Si5 0.250000 0.000000 0.038113
Si Si6 0.250000 0.000000 0.533986
Si Si7 0.111493 0.750000 0.750000
O O1 0.853019 0.250000 0.750000
O O2 0.900078 0.058882 0.629870
O O3 0.783707 0.101992 0.574619
O O4 0.803789 0.046012 0.847489
O O5 0.497560 0.778036 0.617473
O O6 0.572609 0.805200 0.389791
O O7 0.500000 0.000000 0.500000
O O8 0.096395 0.373646 0.715554
O O9 0.207508 0.416332 0.577020
O O10 0.197924 0.437649 0.860262
O O11 0.148725 0.616916 0.699137
#
# Coordination Sequence:
#
# PCOD9411975 Si02
#       7
#     8   8   8   4   4   4   4
#     4  11  22  42  67  99 137 182 225 298 358 412
#     4  12  25  46  70 104 143 192 235 293 351 422
#     4  11  25  43  70 105 131 188 228 291 358 422
#     4  12  26  45  70 100 145 176 244 290 338 428
#     4  10  26  40  68 102 136 172 242 286 354 428
#     4  10  22  42  68  96 142 172 236 294 358 418
#     4  12  24  45  74  96 143 186 234 276 368 418
#
# _framework density 20.416791
#
# number of rings (size 3 to 8) (size 9 to 14) (size 15 to 20)
#    0.000    0.800    5.000    1.200    2.800    4.000 
#    0.000    0.000    0.000    0.000    0.000    0.000 
#    0.000    0.000    0.000    0.000    0.000    0.000 
#
# Total GULP energy -222903.056483 kJ/mol
# GULP energy per Si atom -5572.576412 kJ/mol
# Density = 2.037032 g / cm^3
# Si number density = 20.416791 Si / 1000 Ang^3
#
#
#
# Elastic Constant Matrix: (Units=GPa)
#
#
# Indices 1 2 3 4 5 6 
#
# 1 124.7097 33.5733 54.5010 0.0000 0.0000 0.0000
# 2 33.5733 65.8578 17.3201 0.0000 0.0000 0.0000
# 3 54.5010 17.3201 135.0534 0.0000 0.0000 0.0000
# 4 0.0000 0.0000 0.0000 14.6035 0.0000 0.0000
# 5 0.0000 0.0000 0.0000 0.0000 36.7297 0.0000
# 6 0.0000 0.0000 0.0000 0.0000 0.0000 31.6768
#
#
#
# Elastic Compliance Matrix: (Units=1/GPa)
#
#
# Indices 1 2 3 4 5 6 
#
# 1 0.010916 -0.004560 -0.003820 0.000000 0.000000 0.000000
# 2 -0.004560 0.017619 -0.000419 0.000000 0.000000 0.000000
# 3 -0.003820 -0.000419 0.009000 0.000000 0.000000 0.000000
# 4 0.000000 0.000000 0.000000 0.068477 0.000000 0.000000
# 5 0.000000 0.000000 0.000000 0.000000 0.027226 0.000000
# 6 0.000000 0.000000 0.000000 0.000000 0.000000 0.031569
#
#
# Mechanical properties :
#
#
# Convention : Reuss Voigt Hill
#
# Bulk Modulus (GPa) = 50.16173 59.60111 54.88142
# Shear Modulus (GPa) = 26.44792 31.28378 28.86585
#
# Velocity S-wave (km/s) = 3.60307 3.91865 3.76417
# Velocity P-wave (km/s) = 6.47547 7.05195 6.76985
#
# Compressibility (1/GPa) = 0.01993552
#
# Stress axis : x y z
#
# Youngs Moduli (GPa) = 91.61054 56.75647 111.11180
#
# Poissons Ratio (x) = 0.25881 0.42448
# Poissons Ratio (y) = 0.41774 0.04660
# Poissons Ratio (z) = 0.34998 0.02380
#
# Static dielectric constant tensor:
#      x y z
#    x 1.726600 0.000000 0.000000 
#    y 0.000000 1.815460 0.000000 
#    z 0.000000 0.000000 4.701000 
# 
# From -- ./inp_files/11727.got.cif
#   From: 2010.05.17/outbox.cif.g08.bks.cpg/sg52_6_cif.got.tgz:11727.got - 2010.06.03 12:15:38.
