data_PCOD9411070
_publ_section_title
;
Structure prediction by ZEFSAII (Michael W. Deem and Ramdas Pophale) SiO2 
 PCOD9411070
Probable space group: P N N A
;
_chemical_formula_sum "Si O2"
_cell_formula_units_Z 48
_cell_length_a 19.350950
_cell_length_b 9.491529
_cell_length_c 12.859284
_cell_angle_alpha 90.000000
_cell_angle_beta 90.000000
_cell_angle_gamma 90.000000
_cell_volume 2361.866018
_symmetry_space_group_name_H-M "P N N A"
_symmetry_group_IT_number 52
_symmetry_cell_setting 'orthorhombic'
loop_
_space_group_symop_operation_xyz
x,y,z
1/2-x,-y,z
x,1/2-y,1/2-z
1/2-x,1/2+y,1/2-z
-x,-y,-z
1/2+x,y,-z
-x,1/2+y,1/2+z
1/2+x,1/2-y,1/2+z
loop_
_atom_site_type_symbol
_atom_site_label
_atom_site_fract_x
_atom_site_fract_y
_atom_site_fract_z
Si Si1 0.882495 0.194675 0.135234
Si Si2 0.341458 0.904992 0.366188
Si Si3 0.172043 0.505753 0.367576
Si Si4 0.482705 0.842646 0.464757
Si Si5 0.802587 0.210320 0.560151
Si Si6 0.932151 0.924155 0.043905
O O1 0.868661 0.250000 0.250000
O O2 0.820944 0.233302 0.054886
O O3 0.950339 0.273427 0.088733
O O4 0.900508 0.027303 0.131156
O O5 0.330624 0.564618 0.255368
O O6 0.417978 0.850294 0.386414
O O7 0.277858 0.811100 0.409133
O O8 0.334182 0.055871 0.423310
O O9 0.250000 0.500000 0.408256
O O10 0.160533 0.674517 0.365717
O O11 0.121395 0.436936 0.449201
O O12 0.455065 0.737843 0.556376
O O13 0.500000 0.000000 0.500000
O O14 0.000000 0.000000 0.000000
#
# Coordination Sequence:
#
# PCOD9411070 Si02
#       6
#     8   8   8   8   8   8
#     4  10  22  43  66  87 120 177 222 256 318 391
#     4  11  22  35  62  93 129 156 202 267 329 385
#     4  11  21  35  61  95 123 161 199 253 333 388
#     4  11  22  39  61  91 126 164 205 268 322 373
#     4  10  21  40  58  89 129 162 205 266 321 384
#     4   9  22  39  59  88 129 161 208 260 310 382
#
# _framework density 20.322913
#
# number of rings (size 3 to 8) (size 9 to 14) (size 15 to 20)
#    0.000    1.667    3.333    1.500    4.667    1.333 
#    0.000    0.833   22.000    0.000    0.000    0.000 
#    0.000    0.000    0.000    0.000    0.000    0.000 
#
# Total GULP energy -267808.818139 kJ/mol
# GULP energy per Si atom -5579.350378 kJ/mol
# Density = 2.027666 g / cm^3
# Si number density = 20.322913 Si / 1000 Ang^3
#
#
#
# Elastic Constant Matrix: (Units=GPa)
#
#
# Indices 1 2 3 4 5 6 
#
# 1 99.3859 19.4710 42.3331 0.0000 0.0000 0.0000
# 2 19.4710 152.5641 38.2719 0.0000 0.0000 0.0000
# 3 42.3331 38.2719 110.3208 0.0000 0.0000 0.0000
# 4 0.0000 0.0000 0.0000 17.9400 0.0000 0.0000
# 5 0.0000 0.0000 0.0000 0.0000 19.3396 0.0000
# 6 0.0000 0.0000 0.0000 0.0000 0.0000 26.5630
#
#
#
# Elastic Compliance Matrix: (Units=1/GPa)
#
#
# Indices 1 2 3 4 5 6 
#
# 1 0.012052 -0.000414 -0.004481 0.000000 0.000000 0.000000
# 2 -0.000414 0.007194 -0.002337 0.000000 0.000000 0.000000
# 3 -0.004481 -0.002337 0.011595 0.000000 0.000000 0.000000
# 4 0.000000 0.000000 0.000000 0.055741 0.000000 0.000000
# 5 0.000000 0.000000 0.000000 0.000000 0.051707 0.000000
# 6 0.000000 0.000000 0.000000 0.000000 0.000000 0.037646
#
#
# Mechanical properties :
#
#
# Convention : Reuss Voigt Hill
#
# Bulk Modulus (GPa) = 61.06306 62.49143 61.77724
# Shear Modulus (GPa) = 25.52884 30.24817 27.88851
#
# Velocity S-wave (km/s) = 3.54808 3.86214 3.70843
# Velocity P-wave (km/s) = 6.84812 7.12068 6.98573
#
# Compressibility (1/GPa) = 0.01637651
#
# Stress axis : x y z
#
# Youngs Moduli (GPa) = 82.97714 139.01163 86.24743
#
# Poissons Ratio (x) = 0.05755 0.38646
# Poissons Ratio (y) = 0.03435 0.20154
# Poissons Ratio (z) = 0.37181 0.32483
#
# Static dielectric constant tensor:
#      x y z
#    x 1.573330 0.000000 0.000000 
#    y 0.000000 1.846130 0.000000 
#    z 0.000000 0.000000 1.692930 
# 
# From -- ./inp_files/28627.got.cif
#   From: 2010.05.17/outbox.cif.g08.bks.cpg/sg52_15_cif.got.tgz:28627.got - 2010.06.03 12:15:38.
