data_PCOD9411385
_publ_section_title
;
Structure prediction by ZEFSAII (Michael W. Deem and Ramdas Pophale) SiO2 
 PCOD9411385
Probable space group: P N N A
;
_chemical_formula_sum "Si O2"
_cell_formula_units_Z 64
_cell_length_a 30.545623
_cell_length_b 8.125991
_cell_length_c 11.284695
_cell_angle_alpha 90.000000
_cell_angle_beta 90.000000
_cell_angle_gamma 90.000000
_cell_volume 2801.013164
_symmetry_space_group_name_H-M "P N N A"
_symmetry_group_IT_number 52
_symmetry_cell_setting 'orthorhombic'
loop_
_space_group_symop_operation_xyz
x,y,z
1/2-x,-y,z
x,1/2-y,1/2-z
1/2-x,1/2+y,1/2-z
-x,-y,-z
1/2+x,y,-z
-x,1/2+y,1/2+z
1/2+x,1/2-y,1/2+z
loop_
_atom_site_type_symbol
_atom_site_label
_atom_site_fract_x
_atom_site_fract_y
_atom_site_fract_z
Si Si1 0.610553 0.917703 0.011833
Si Si2 0.380608 0.599154 0.163056
Si Si3 0.045629 0.562252 0.292937
Si Si4 0.293953 0.427353 0.870753
Si Si5 0.207149 0.892826 0.004833
Si Si6 0.446152 0.555158 0.724516
Si Si7 0.206169 0.579111 0.146720
Si Si8 0.885505 0.036016 0.418546
O O1 0.616443 0.718578 0.023616
O O2 0.587241 0.993783 0.125351
O O3 0.577609 0.952253 0.904802
O O4 0.660215 0.980552 0.994886
O O5 0.371646 0.750000 0.250000
O O6 0.429174 0.539195 0.193605
O O7 0.341050 0.473311 0.193930
O O8 0.382075 0.602807 0.020064
O O9 0.044759 0.750000 0.250000
O O10 0.995632 0.510749 0.311198
O O11 0.250000 0.500000 0.815152
O O12 0.291397 0.231257 0.891533
O O13 0.294454 0.490059 0.009212
O O14 0.342862 0.474336 0.832330
O O15 0.250000 0.000000 0.002765
O O16 0.209122 0.772590 0.119697
O O17 0.443308 0.750000 0.750000
O O18 0.429916 0.473359 0.845928
O O19 0.250000 0.500000 0.199935
#
# Coordination Sequence:
#
# PCOD9411385 Si02
#       8
#     8   8   8   8   8   8   8   8
#     4  11  22  44  69  91 136 178 214 274 343 410
#     4  11  23  39  67 101 129 182 223 275 334 407
#     4  11  23  46  65  94 135 167 220 283 347 407
#     4   7  14  31  58  86 124 167 203 261 319 379
#     4   9  17  31  61  97 127 170 215 258 325 401
#     4  11  27  43  65  99 125 170 229 288 343 404
#     4   8  16  36  57  87 136 167 214 263 324 388
#     4  10  21  43  67  93 130 177 220 272 342 405
#
# _framework density 22.848873999999999
#
# number of rings (size 3 to 8) (size 9 to 14) (size 15 to 20)
#    0.750    1.500    2.500    0.750    1.750    3.500 
#    0.000    3.125    0.000    0.000    0.000    0.000 
#    0.000    0.000    0.000    0.000    0.000    0.000 
#
# Total GULP energy -357118.266502 kJ/mol
# GULP energy per Si atom -5579.972914 kJ/mol
# Density = 2.279687 g / cm^3
# Si number density = 22.848874 Si / 1000 Ang^3
#
#
#
# Elastic Constant Matrix: (Units=GPa)
#
#
# Indices 1 2 3 4 5 6 
#
# 1 222.9394 54.9494 57.4555 0.0000 0.0000 0.0000
# 2 54.9494 53.0537 17.1310 0.0000 0.0000 0.0000
# 3 57.4555 17.1310 66.5373 0.0000 0.0000 0.0000
# 4 0.0000 0.0000 0.0000 28.0909 0.0000 0.0000
# 5 0.0000 0.0000 0.0000 0.0000 27.8200 0.0000
# 6 0.0000 0.0000 0.0000 0.0000 0.0000 25.7740
#
#
#
# Elastic Compliance Matrix: (Units=1/GPa)
#
#
# Indices 1 2 3 4 5 6 
#
# 1 0.007134 -0.005889 -0.004644 0.000000 0.000000 0.000000
# 2 -0.005889 0.025420 -0.001459 0.000000 0.000000 0.000000
# 3 -0.004644 -0.001459 0.019415 0.000000 0.000000 0.000000
# 4 0.000000 0.000000 0.000000 0.035599 0.000000 0.000000
# 5 0.000000 0.000000 0.000000 0.000000 0.035945 0.000000
# 6 0.000000 0.000000 0.000000 0.000000 0.000000 0.038799
#
#
# Mechanical properties :
#
#
# Convention : Reuss Voigt Hill
#
# Bulk Modulus (GPa) = 35.73507 66.84467 51.28987
# Shear Modulus (GPa) = 25.55920 30.53661 28.04791
#
# Velocity S-wave (km/s) = 3.34821 3.65973 3.50743
# Velocity P-wave (km/s) = 5.53363 6.86854 6.23690
#
# Compressibility (1/GPa) = 0.02798371
#
# Stress axis : x y z
#
# Youngs Moduli (GPa) = 140.17537 39.33946 51.50684
#
# Poissons Ratio (x) = 0.23168 0.23919
# Poissons Ratio (y) = 0.82554 0.07516
# Poissons Ratio (z) = 0.65096 0.05740
#
# Static dielectric constant tensor:
#      x y z
#    x 1.852220 0.000000 0.000000 
#    y 0.000000 1.867730 0.000000 
#    z 0.000000 0.000000 1.977590 
# 
# From -- ./inp_files/23210.got.cif
#   From: 2010.05.17/outbox.cif.g08.bks.cpg/sg52_12_cif.got.tgz:23210.got - 2010.06.03 12:15:38.
