data_PCOD9411873
_publ_section_title
;
Structure prediction by ZEFSAII (Michael W. Deem and Ramdas Pophale) SiO2 
 PCOD9411873
Probable space group: P N N A
;
_chemical_formula_sum "Si O2"
_cell_formula_units_Z 40
_cell_length_a 5.442454
_cell_length_b 29.622337
_cell_length_c 11.158846
_cell_angle_alpha 90.000000
_cell_angle_beta 90.000000
_cell_angle_gamma 90.000000
_cell_volume 1799.009139
_symmetry_space_group_name_H-M "P N N A"
_symmetry_group_IT_number 52
_symmetry_cell_setting 'orthorhombic'
loop_
_space_group_symop_operation_xyz
x,y,z
1/2-x,-y,z
x,1/2-y,1/2-z
1/2-x,1/2+y,1/2-z
-x,-y,-z
1/2+x,y,-z
-x,1/2+y,1/2+z
1/2+x,1/2-y,1/2+z
loop_
_atom_site_type_symbol
_atom_site_label
_atom_site_fract_x
_atom_site_fract_y
_atom_site_fract_z
Si Si1 0.152402 0.617136 0.423589
Si Si2 0.487453 0.706873 0.692329
Si Si3 0.735745 0.286139 0.068040
Si Si4 0.986071 0.401485 0.021263
Si Si5 0.281136 0.052481 0.298296
O O1 0.408437 0.612208 0.494802
O O2 0.137249 0.666678 0.363725
O O3 0.141361 0.580485 0.316921
O O4 0.634570 0.750000 0.750000
O O5 0.329191 0.690063 0.805587
O O6 0.303553 0.732585 0.602756
O O7 0.009194 0.292791 0.022671
O O8 0.957004 0.438432 0.914194
O O9 0.234695 0.375479 0.992116
O O10 0.031594 0.425239 0.147486
O O11 0.250000 0.000000 0.274980
#
# Coordination Sequence:
#
# PCOD9411873 Si02
#       5
#     8   8   8   8   8
#     4  12  28  46  64  93 136 179 218 264 319 398
#     4   8  22  40  65  89 118 165 207 256 322 380
#     4   9  18  34  59  87 113 148 197 253 309 366
#     4   8  19  36  66  94 126 162 208 276 326 370
#     4  10  22  41  67  99 132 175 221 268 329 379
#
# _framework density 22.234461
#
# number of rings (size 3 to 8) (size 9 to 14) (size 15 to 20)
#    2.400    0.000    0.000    1.800    2.800    5.600 
#    3.600    0.000    0.000    0.000    0.000    0.000 
#    0.000    0.000    0.000    0.000    0.000    0.000 
#
# Total GULP energy -222807.317867 kJ/mol
# GULP energy per Si atom -5570.182947 kJ/mol
# Density = 2.218385 g / cm^3
# Si number density = 22.234461 Si / 1000 Ang^3
#
#
#
# Elastic Constant Matrix: (Units=GPa)
#
#
# Indices 1 2 3 4 5 6 
#
# 1 134.7712 42.1725 50.4083 0.0000 0.0000 0.0000
# 2 42.1725 110.3346 65.3708 0.0000 0.0000 0.0000
# 3 50.4083 65.3708 118.3504 0.0000 0.0000 0.0000
# 4 0.0000 0.0000 0.0000 28.6251 0.0000 0.0000
# 5 0.0000 0.0000 0.0000 0.0000 29.9861 0.0000
# 6 0.0000 0.0000 0.0000 0.0000 0.0000 20.8210
#
#
#
# Elastic Compliance Matrix: (Units=1/GPa)
#
#
# Indices 1 2 3 4 5 6 
#
# 1 0.009047 -0.001747 -0.002889 0.000000 0.000000 0.000000
# 2 -0.001747 0.013809 -0.006884 0.000000 0.000000 0.000000
# 3 -0.002889 -0.006884 0.013482 0.000000 0.000000 0.000000
# 4 0.000000 0.000000 0.000000 0.034934 0.000000 0.000000
# 5 0.000000 0.000000 0.000000 0.000000 0.033349 0.000000
# 6 0.000000 0.000000 0.000000 0.000000 0.000000 0.048028
#
#
# Mechanical properties :
#
#
# Convention : Reuss Voigt Hill
#
# Bulk Modulus (GPa) = 75.18440 75.48437 75.33438
# Shear Modulus (GPa) = 27.75910 29.58674 28.67292
#
# Velocity S-wave (km/s) = 3.53721 3.65179 3.59496
# Velocity P-wave (km/s) = 7.11127 7.19748 7.15451
#
# Compressibility (1/GPa) = 0.01330063
#
# Stress axis : x y z
#
# Youngs Moduli (GPa) = 110.53478 72.41479 74.17280
#
# Poissons Ratio (x) = 0.12647 0.21426
# Poissons Ratio (y) = 0.19305 0.51058
# Poissons Ratio (z) = 0.31929 0.49848
#
# Static dielectric constant tensor:
#      x y z
#    x 1.870270 0.000000 0.000000 
#    y 0.000000 1.851030 0.000000 
#    z 0.000000 0.000000 1.844630 
# 
# From -- ./inp_files/16086.got.cif
#   From: 2010.05.17/outbox.cif.g08.bks.cpg/sg52_9_cif.got.tgz:16086.got - 2010.06.03 12:15:38.
