data_PCOD9411283
_publ_section_title
;
Structure prediction by ZEFSAII (Michael W. Deem and Ramdas Pophale) SiO2 
 PCOD9411283
Probable space group: P N N A
;
_chemical_formula_sum "Si O2"
_cell_formula_units_Z 48
_cell_length_a 19.461048
_cell_length_b 10.699019
_cell_length_c 10.929769
_cell_angle_alpha 90.000000
_cell_angle_beta 90.000000
_cell_angle_gamma 90.000000
_cell_volume 2275.732259
_symmetry_space_group_name_H-M "P N N A"
_symmetry_group_IT_number 52
_symmetry_cell_setting 'orthorhombic'
loop_
_space_group_symop_operation_xyz
x,y,z
1/2-x,-y,z
x,1/2-y,1/2-z
1/2-x,1/2+y,1/2-z
-x,-y,-z
1/2+x,y,-z
-x,1/2+y,1/2+z
1/2+x,1/2-y,1/2+z
loop_
_atom_site_type_symbol
_atom_site_label
_atom_site_fract_x
_atom_site_fract_y
_atom_site_fract_z
Si Si1 0.082021 0.053019 0.746275
Si Si2 0.029142 0.133053 0.168216
Si Si3 0.369671 0.437342 0.240424
Si Si4 0.360616 0.816645 0.974168
Si Si5 0.522269 0.750000 0.750000
Si Si6 0.750000 0.000000 0.899653
Si Si7 0.830920 0.979263 0.479081
O O1 0.125780 0.987451 0.641825
O O2 0.027604 0.150847 0.684963
O O3 0.128732 0.134750 0.836317
O O4 0.035661 0.959387 0.826683
O O5 0.008802 0.250000 0.250000
O O6 0.064954 0.163961 0.039809
O O7 0.093770 0.069576 0.237340
O O8 0.422526 0.343516 0.307967
O O9 0.298600 0.421955 0.309302
O O10 0.357448 0.439862 0.095072
O O11 0.301043 0.907658 0.027827
O O12 0.341642 0.671335 0.992036
O O13 0.750000 0.000000 0.464748
#
# Coordination Sequence:
#
# PCOD9411283 Si02
#       7
#     8   8   8   8   4   4   8
#     4  11  24  45  64  98 136 180 219 272 343 405
#     4  10  21  41  69  98 127 170 222 278 335 391
#     4  10  22  39  66  99 125 169 220 275 338 384
#     4  11  23  45  68  91 139 177 221 283 335 407
#     4  10  22  40  68  94 134 168 218 274 330 404
#     4  10  24  40  64  96 126 172 222 278 324 408
#     4  12  25  42  69  97 139 179 221 282 346 410
#
# _framework density 21.092112
#
# number of rings (size 3 to 8) (size 9 to 14) (size 15 to 20)
#    0.000    1.333    4.167    0.500    3.500    4.000 
#    3.000    0.000    0.000    0.000    0.000    0.000 
#    0.000    0.000    0.000    0.000    0.000    0.000 
#
# Total GULP energy -267309.599157 kJ/mol
# GULP energy per Si atom -5568.949982 kJ/mol
# Density = 2.104411 g / cm^3
# Si number density = 21.092112 Si / 1000 Ang^3
#
#
#
# Elastic Constant Matrix: (Units=GPa)
#
#
# Indices 1 2 3 4 5 6 
#
# 1 96.3561 28.1370 39.3621 0.0000 0.0000 0.0000
# 2 28.1370 83.4726 16.5591 0.0000 0.0000 0.0000
# 3 39.3621 16.5591 91.0056 0.0000 0.0000 0.0000
# 4 0.0000 0.0000 0.0000 18.6411 0.0000 0.0000
# 5 0.0000 0.0000 0.0000 0.0000 6.6359 0.0000
# 6 0.0000 0.0000 0.0000 0.0000 0.0000 21.1550
#
#
#
# Elastic Compliance Matrix: (Units=1/GPa)
#
#
# Indices 1 2 3 4 5 6 
#
# 1 0.013539 -0.003529 -0.005214 0.000000 0.000000 0.000000
# 2 -0.003529 0.013349 -0.000902 0.000000 0.000000 0.000000
# 3 -0.005214 -0.000902 0.013408 0.000000 0.000000 0.000000
# 4 0.000000 0.000000 0.000000 0.053645 0.000000 0.000000
# 5 0.000000 0.000000 0.000000 0.000000 0.150695 0.000000
# 6 0.000000 0.000000 0.000000 0.000000 0.000000 0.047270
#
#
# Mechanical properties :
#
#
# Convention : Reuss Voigt Hill
#
# Bulk Modulus (GPa) = 47.60949 48.77230 48.19090
# Shear Modulus (GPa) = 15.71356 21.73814 18.72585
#
# Velocity S-wave (km/s) = 2.73242 3.21382 2.98285
# Velocity P-wave (km/s) = 5.70754 6.07826 5.89582
#
# Compressibility (1/GPa) = 0.02100421
#
# Stress axis : x y z
#
# Youngs Moduli (GPa) = 73.86320 74.91395 74.58508
#
# Poissons Ratio (x) = 0.26440 0.38885
# Poissons Ratio (y) = 0.26069 0.06730
# Poissons Ratio (z) = 0.38509 0.06760
#
# Static dielectric constant tensor:
#      x y z
#    x 1.750230 0.000000 0.000000 
#    y 0.000000 1.964130 0.000000 
#    z 0.000000 0.000000 1.798250 
# 
# From -- ./inp_files/20671.got.cif
#   From: 2010.05.17/outbox.cif.g08.bks.cpg/sg52_11_cif.got.tgz:20671.got - 2010.06.03 12:15:38.
