data_PCOD9411823
_publ_section_title
;
Structure prediction by ZEFSAII (Michael W. Deem and Ramdas Pophale) SiO2 
 PCOD9411823
Probable space group: P N N A
;
_chemical_formula_sum "Si O2"
_cell_formula_units_Z 40
_cell_length_a 25.208844
_cell_length_b 15.462925
_cell_length_c 5.165572
_cell_angle_alpha 90.000000
_cell_angle_beta 90.000000
_cell_angle_gamma 90.000000
_cell_volume 2013.552694
_symmetry_space_group_name_H-M "P N N A"
_symmetry_group_IT_number 52
_symmetry_cell_setting 'orthorhombic'
loop_
_space_group_symop_operation_xyz
x,y,z
1/2-x,-y,z
x,1/2-y,1/2-z
1/2-x,1/2+y,1/2-z
-x,-y,-z
1/2+x,y,-z
-x,1/2+y,1/2+z
1/2+x,1/2-y,1/2+z
loop_
_atom_site_type_symbol
_atom_site_label
_atom_site_fract_x
_atom_site_fract_y
_atom_site_fract_z
Si Si1 0.621755 0.465601 0.959979
Si Si2 0.213469 0.920928 0.248211
Si Si3 0.196380 0.307396 0.002305
Si Si4 0.372406 0.189174 0.999390
Si Si5 0.061591 0.981035 0.963010
O O1 0.668494 0.536208 0.927671
O O2 0.650243 0.377252 0.036695
O O3 0.593864 0.465322 0.680470
O O4 0.580787 0.492663 0.178768
O O5 0.251023 0.858886 0.412738
O O6 0.181719 0.866494 0.034177
O O7 0.250000 0.000000 0.144338
O O8 0.182004 0.250000 0.250000
O O9 0.204504 0.250000 0.750000
O O10 0.376477 0.250000 0.250000
O O11 0.372147 0.250000 0.750000
O O12 0.419703 0.118602 0.997202
O O13 0.000000 0.000000 0.000000
#
# Coordination Sequence:
#
# PCOD9411823 Si02
#       5
#     8   8   8   8   8
#     4  10  22  41  62  87 120 159 201 246 299 365
#     4   9  21  39  61  88 125 167 202 238 298 372
#     4  11  23  38  58  90 124 160 199 242 294 356
#     4  11  23  41  63  93 125 157 204 265 307 350
#     4  11  23  43  67  88 117 161 206 251 310 371
#
# _framework density 19.865386000000001
#
# number of rings (size 3 to 8) (size 9 to 14) (size 15 to 20)
#    0.000    1.600    0.000    4.800    0.000    8.000 
#    0.000   22.000    0.000    0.000    0.000    0.000 
#    0.000    0.000    0.000    0.000    0.000    0.000 
#
# Total GULP energy -223762.150417 kJ/mol
# GULP energy per Si atom -5594.053760 kJ/mol
# Density = 1.982017 g / cm^3
# Si number density = 19.865386 Si / 1000 Ang^3
#
#
#
# Elastic Constant Matrix: (Units=GPa)
#
#
# Indices 1 2 3 4 5 6 
#
# 1 113.2215 61.2009 22.4125 0.0000 0.0000 0.0000
# 2 61.2009 123.4015 44.7878 0.0000 0.0000 0.0000
# 3 22.4125 44.7878 98.5081 0.0000 0.0000 0.0000
# 4 0.0000 0.0000 0.0000 25.7046 0.0000 0.0000
# 5 0.0000 0.0000 0.0000 0.0000 22.9316 0.0000
# 6 0.0000 0.0000 0.0000 0.0000 0.0000 24.4265
#
#
#
# Elastic Compliance Matrix: (Units=1/GPa)
#
#
# Indices 1 2 3 4 5 6 
#
# 1 0.012067 -0.005974 -0.000029 0.000000 0.000000 0.000000
# 2 -0.005974 0.012663 -0.004398 0.000000 0.000000 0.000000
# 3 -0.000029 -0.004398 0.012158 0.000000 0.000000 0.000000
# 4 0.000000 0.000000 0.000000 0.038904 0.000000 0.000000
# 5 0.000000 0.000000 0.000000 0.000000 0.043608 0.000000
# 6 0.000000 0.000000 0.000000 0.000000 0.000000 0.040939
#
#
# Mechanical properties :
#
#
# Convention : Reuss Voigt Hill
#
# Bulk Modulus (GPa) = 62.17051 65.77039 63.97045
# Shear Modulus (GPa) = 26.80922 28.39454 27.60188
#
# Velocity S-wave (km/s) = 3.67760 3.78477 3.73157
# Velocity P-wave (km/s) = 7.02829 7.23044 7.13008
#
# Compressibility (1/GPa) = 0.01608480
#
# Stress axis : x y z
#
# Youngs Moduli (GPa) = 82.86847 78.97190 82.25217
#
# Poissons Ratio (x) = 0.47179 0.00241
# Poissons Ratio (y) = 0.49507 0.36175
# Poissons Ratio (z) = 0.00243 0.34732
#
# Static dielectric constant tensor:
#      x y z
#    x 1.676780 0.000000 0.000000 
#    y 0.000000 1.718100 0.000000 
#    z 0.000000 0.000000 1.668930 
# 
# From -- ./inp_files/5013.got.cif
#   From: 2010.05.17/outbox.cif.g08.bks.cpg/sg52_3_cif.got.tgz:5013.got - 2010.06.03 12:15:38.
