data_PCOD9411460
_publ_section_title
;
Structure prediction by ZEFSAII (Michael W. Deem and Ramdas Pophale) SiO2 
 PCOD9411460
Probable space group: P N N A
;
_chemical_formula_sum "Si O2"
_cell_formula_units_Z 32
_cell_length_a 5.359869
_cell_length_b 10.476260
_cell_length_c 22.701251
_cell_angle_alpha 90.000000
_cell_angle_beta 90.000000
_cell_angle_gamma 90.000000
_cell_volume 1274.706599
_symmetry_space_group_name_H-M "P N N A"
_symmetry_group_IT_number 52
_symmetry_cell_setting 'orthorhombic'
loop_
_space_group_symop_operation_xyz
x,y,z
1/2-x,-y,z
x,1/2-y,1/2-z
1/2-x,1/2+y,1/2-z
-x,-y,-z
1/2+x,y,-z
-x,1/2+y,1/2+z
1/2+x,1/2-y,1/2+z
loop_
_atom_site_type_symbol
_atom_site_label
_atom_site_fract_x
_atom_site_fract_y
_atom_site_fract_z
Si Si1 0.138422 0.119115 0.409341
Si Si2 0.927355 0.353121 0.463786
Si Si3 0.750000 0.000000 0.141830
Si Si4 0.750000 0.500000 0.177731
Si Si5 0.966774 0.252724 0.688385
O O1 0.325254 0.211494 0.372097
O O2 0.955280 0.205689 0.446877
O O3 0.250000 0.000000 0.444857
O O4 0.982677 0.045539 0.360219
O O5 0.661838 0.377195 0.494209
O O6 0.938225 0.428176 0.402453
O O7 0.898531 0.887899 0.175205
O O8 0.842614 0.635974 0.202910
O O9 0.809365 0.250000 0.750000
#
# Coordination Sequence:
#
# PCOD9411460 Si02
#       5
#     8   8   4   4   8
#     4  10  24  46  72 103 154 194 258 322 368 465
#     4  12  27  48  77 112 153 205 257 319 397 455
#     4  12  25  50  76 116 154 192 258 321 378 468
#     4  10  21  48  68  98 150 190 248 311 378 438
#     4  11  24  45  75 109 148 203 249 312 388 458
#
# _framework density 25.103816999999999
#
# number of rings (size 3 to 8) (size 9 to 14) (size 15 to 20)
#    0.000    1.000    2.500    3.000    3.500    5.000 
#   13.500    0.000    0.000    0.000    0.000    0.000 
#    0.000    0.000    0.000    0.000    0.000    0.000 
#
# Total GULP energy -178614.589130 kJ/mol
# GULP energy per Si atom -5581.705910 kJ/mol
# Density = 2.504668 g / cm^3
# Si number density = 25.103817 Si / 1000 Ang^3
#
#
#
# Elastic Constant Matrix: (Units=GPa)
#
#
# Indices 1 2 3 4 5 6 
#
# 1 97.2244 38.0992 29.9345 0.0000 0.0000 0.0000
# 2 38.0992 163.7993 39.3771 0.0000 0.0000 0.0000
# 3 29.9345 39.3771 75.4429 0.0000 0.0000 0.0000
# 4 0.0000 0.0000 0.0000 -75.1351 0.0000 0.0000
# 5 0.0000 0.0000 0.0000 0.0000 11.8029 0.0000
# 6 0.0000 0.0000 0.0000 0.0000 0.0000 48.8885
#
#
#
# Elastic Compliance Matrix: (Units=1/GPa)
#
#
# Indices 1 2 3 4 5 6 
#
# 1 0.012222 -0.001918 -0.003849 0.000000 0.000000 0.000000
# 2 -0.001918 0.007282 -0.003040 0.000000 0.000000 0.000000
# 3 -0.003849 -0.003040 0.016369 0.000000 0.000000 0.000000
# 4 0.000000 0.000000 0.000000 -0.013309 0.000000 0.000000
# 5 0.000000 0.000000 0.000000 0.000000 0.084725 0.000000
# 6 0.000000 0.000000 0.000000 0.000000 0.000000 0.020455
#
#
# Mechanical properties :
#
#
# Convention : Reuss Voigt Hill
#
# Bulk Modulus (GPa) = 54.76320 61.25425 58.00873
# Shear Modulus (GPa) = 33.01600 12.38162 22.69881
#
# Velocity S-wave (km/s) = 3.63047 2.22326 3.01025
# Velocity P-wave (km/s) = 6.27980 5.57170 5.93632
#
# Compressibility (1/GPa) = 0.01826044
#
# Stress axis : x y z
#
# Youngs Moduli (GPa) = 81.82056 137.32800 61.09199
#
# Poissons Ratio (x) = 0.26334 0.23512
# Poissons Ratio (y) = 0.15690 0.18571
# Poissons Ratio (z) = 0.31489 0.41746
#
# Static dielectric constant tensor:
#      x y z
#    x 1.965530 0.000000 0.000000 
#    y 0.000000 3.396240 0.000000 
#    z 0.000000 0.000000 2.020780 
# 
# From -- ./inp_files/34856.got.cif
#   From: 2010.05.17/outbox.cif.g08.bks.cpg/sg52_18_cif.got.tgz:34856.got - 2010.06.03 12:15:38.
