data_PCOD9411662
_publ_section_title
;
Structure prediction by ZEFSAII (Michael W. Deem and Ramdas Pophale) SiO2 
 PCOD9411662
Probable space group: P N N A
;
_chemical_formula_sum "Si O2"
_cell_formula_units_Z 48
_cell_length_a 16.750402
_cell_length_b 19.688205
_cell_length_c 7.637192
_cell_angle_alpha 90.000000
_cell_angle_beta 90.000000
_cell_angle_gamma 90.000000
_cell_volume 2518.634025
_symmetry_space_group_name_H-M "P N N A"
_symmetry_group_IT_number 52
_symmetry_cell_setting 'orthorhombic'
loop_
_space_group_symop_operation_xyz
x,y,z
1/2-x,-y,z
x,1/2-y,1/2-z
1/2-x,1/2+y,1/2-z
-x,-y,-z
1/2+x,y,-z
-x,1/2+y,1/2+z
1/2+x,1/2-y,1/2+z
loop_
_atom_site_type_symbol
_atom_site_label
_atom_site_fract_x
_atom_site_fract_y
_atom_site_fract_z
Si Si1 0.218815 0.924712 0.965787
Si Si2 0.473010 0.926078 0.567814
Si Si3 0.779432 0.673351 0.762251
Si Si4 0.779710 0.574701 0.073114
Si Si5 0.031724 0.575403 0.457830
Si Si6 0.470912 0.826957 0.256277
O O1 0.242807 0.912591 0.764339
O O2 0.250000 0.000000 0.011552
O O3 0.257410 0.869375 0.091652
O O4 0.124799 0.923433 0.997574
O O5 0.376358 0.926010 0.585559
O O6 0.512115 0.911662 0.755253
O O7 0.498287 0.870578 0.423741
O O8 0.500000 0.000000 0.500000
O O9 0.747763 0.750000 0.750000
O O10 0.875267 0.676843 0.772311
O O11 0.753465 0.630913 0.932826
O O12 0.750000 0.500000 0.015719
O O13 0.000000 0.500000 0.500000
O O14 0.990944 0.630602 0.583052
O O15 0.502514 0.750000 0.250000
#
# Coordination Sequence:
#
# PCOD9411662 Si02
#       6
#     8   8   8   8   8   8
#     4  11  24  39  62  93 123 165 209 262 309 368
#     4  11  23  38  67  96 120 167 213 261 313 372
#     4  10  22  41  63  88 124 167 205 250 313 376
#     4  10  22  39  63  92 124 159 206 259 309 365
#     4  12  23  40  65  93 126 164 214 265 314 376
#     4  10  23  43  64  92 129 165 208 263 315 375
#
# _framework density 19.057949000000001
#
# number of rings (size 3 to 8) (size 9 to 14) (size 15 to 20)
#    0.000    1.333    1.667    4.500    4.667    1.333 
#    6.000    5.000    0.000    0.000    0.000    0.000 
#    0.000    0.000    0.000    0.000    0.000    0.000 
#
# Total GULP energy -268306.659510 kJ/mol
# GULP energy per Si atom -5589.722073 kJ/mol
# Density = 1.901457 g / cm^3
# Si number density = 19.057949 Si / 1000 Ang^3
#
#
#
# Elastic Constant Matrix: (Units=GPa)
#
#
# Indices 1 2 3 4 5 6 
#
# 1 38.0109 17.3542 31.4552 0.0000 0.0000 0.0000
# 2 17.3542 190.9536 115.8118 0.0000 0.0000 0.0000
# 3 31.4552 115.8118 177.2231 0.0000 0.0000 0.0000
# 4 0.0000 0.0000 0.0000 -3.0418 0.0000 0.0000
# 5 0.0000 0.0000 0.0000 0.0000 38.9378 0.0000
# 6 0.0000 0.0000 0.0000 0.0000 0.0000 26.5967
#
#
#
# Elastic Compliance Matrix: (Units=1/GPa)
#
#
# Indices 1 2 3 4 5 6 
#
# 1 0.030922 0.000859 -0.006050 0.000000 0.000000 0.000000
# 2 0.000859 0.008699 -0.005837 0.000000 0.000000 0.000000
# 3 -0.006050 -0.005837 0.010531 0.000000 0.000000 0.000000
# 4 0.000000 0.000000 0.000000 -0.328750 0.000000 0.000000
# 5 0.000000 0.000000 0.000000 0.000000 0.025682 0.000000
# 6 0.000000 0.000000 0.000000 0.000000 0.000000 0.037599
#
#
# Mechanical properties :
#
#
# Convention : Reuss Voigt Hill
#
# Bulk Modulus (GPa) = 35.59183 81.71445 58.65314
# Shear Modulus (GPa) = -27.18919 28.60297 0.70689
#
# Velocity S-wave (km/s) = -3.78121 3.87827 0.60969
# Velocity P-wave (km/s) = 0.58931 7.93880 5.59809
#
# Compressibility (1/GPa) = 0.02809633
#
# Stress axis : x y z
#
# Youngs Moduli (GPa) = 32.33909 114.95681 94.96058
#
# Poissons Ratio (x) = -0.09871 0.57447
# Poissons Ratio (y) = -0.02777 0.55428
# Poissons Ratio (z) = 0.19564 0.67100
#
# Static dielectric constant tensor:
#      x y z
#    x 1.679550 0.000000 0.000000 
#    y 0.000000 1.679450 0.000000 
#    z 0.000000 0.000000 1.642430 
# 
# From -- ./inp_files/12293.got.cif
#   From: 2010.05.17/outbox.cif.g08.bks.cpg/sg52_7_cif.got.tgz:12293.got - 2010.06.03 12:15:38.
