data_PCOD9411852
_publ_section_title
;
Structure prediction by ZEFSAII (Michael W. Deem and Ramdas Pophale) SiO2 
 PCOD9411852
Probable space group: P N N A
;
_chemical_formula_sum "Si O2"
_cell_formula_units_Z 40
_cell_length_a 7.856658
_cell_length_b 25.805938
_cell_length_c 8.808642
_cell_angle_alpha 90.000000
_cell_angle_beta 90.000000
_cell_angle_gamma 90.000000
_cell_volume 1785.938329
_symmetry_space_group_name_H-M "P N N A"
_symmetry_group_IT_number 52
_symmetry_cell_setting 'orthorhombic'
loop_
_space_group_symop_operation_xyz
x,y,z
1/2-x,-y,z
x,1/2-y,1/2-z
1/2-x,1/2+y,1/2-z
-x,-y,-z
1/2+x,y,-z
-x,1/2+y,1/2+z
1/2+x,1/2-y,1/2+z
loop_
_atom_site_type_symbol
_atom_site_label
_atom_site_fract_x
_atom_site_fract_y
_atom_site_fract_z
Si Si1 0.180595 0.551954 0.111843
Si Si2 0.634250 0.070676 0.197805
Si Si3 0.032854 0.193079 0.289411
Si Si4 0.528265 0.083527 0.853363
Si Si5 0.274947 0.849960 0.578635
O O1 0.250000 0.500000 0.035393
O O2 0.497928 0.458535 0.195853
O O3 0.322128 0.564843 0.240819
O O4 0.175653 0.599509 0.992721
O O5 0.838615 0.062358 0.186362
O O6 0.619926 0.126801 0.281121
O O7 0.568780 0.069383 0.026173
O O8 0.094109 0.250000 0.250000
O O9 0.031500 0.146446 0.166809
O O10 0.841436 0.194005 0.350883
O O11 0.131781 0.172092 0.434775
#
# Coordination Sequence:
#
# PCOD9411852 Si02
#       5
#     8   8   8   8   8
#     4  11  24  43  66  95 132 180 223 268 333 387
#     4  11  21  43  66  89 137 168 213 278 322 385
#     4  10  22  41  65  94 127 167 218 264 337 392
#     4  10  23  41  64  95 132 174 217 275 333 386
#     4  10  22  44  64  95 131 168 221 275 318 401
#
# _framework density 22.397189999999998
#
# number of rings (size 3 to 8) (size 9 to 14) (size 15 to 20)
#    0.000    1.600    4.000    0.000    0.000    5.600 
#    0.000    1.000    0.000    0.000    0.000    0.000 
#    0.000    0.000    0.000    0.000    0.000    0.000 
#
# Total GULP energy -223173.200307 kJ/mol
# GULP energy per Si atom -5579.330008 kJ/mol
# Density = 2.234621 g / cm^3
# Si number density = 22.397190 Si / 1000 Ang^3
#
#
#
# Elastic Constant Matrix: (Units=GPa)
#
#
# Indices 1 2 3 4 5 6 
#
# 1 115.2843 36.7841 45.4202 0.0000 0.0000 0.0000
# 2 36.7841 83.5968 6.8743 0.0000 0.0000 0.0000
# 3 45.4202 6.8743 100.6589 0.0000 0.0000 0.0000
# 4 0.0000 0.0000 0.0000 10.9797 0.0000 0.0000
# 5 0.0000 0.0000 0.0000 0.0000 32.5891 0.0000
# 6 0.0000 0.0000 0.0000 0.0000 0.0000 25.9450
#
#
#
# Elastic Compliance Matrix: (Units=1/GPa)
#
#
# Indices 1 2 3 4 5 6 
#
# 1 0.012324 -0.004994 -0.005220 0.000000 0.000000 0.000000
# 2 -0.004994 0.014053 0.001294 0.000000 0.000000 0.000000
# 3 -0.005220 0.001294 0.012202 0.000000 0.000000 0.000000
# 4 0.000000 0.000000 0.000000 0.091077 0.000000 0.000000
# 5 0.000000 0.000000 0.000000 0.000000 0.030685 0.000000
# 6 0.000000 0.000000 0.000000 0.000000 0.000000 0.038543
#
#
# Mechanical properties :
#
#
# Convention : Reuss Voigt Hill
#
# Bulk Modulus (GPa) = 48.21896 53.07748 50.64822
# Shear Modulus (GPa) = 22.35764 27.93351 25.14558
#
# Velocity S-wave (km/s) = 3.16291 3.53539 3.35432
# Velocity P-wave (km/s) = 5.90884 6.35728 6.13716
#
# Compressibility (1/GPa) = 0.02073873
#
# Stress axis : x y z
#
# Youngs Moduli (GPa) = 81.14166 71.15875 81.95643
#
# Poissons Ratio (x) = 0.35534 0.42781
# Poissons Ratio (y) = 0.40519 -0.10601
# Poissons Ratio (z) = 0.42356 -0.09205
#
# Static dielectric constant tensor:
#      x y z
#    x 1.908890 0.000000 0.000000 
#    y 0.000000 1.844170 0.000000 
#    z 0.000000 0.000000 1.792000 
# 
# From -- ./inp_files/7389.got.cif
#   From: 2010.05.17/outbox.cif.g08.bks.cpg/sg52_4_cif.got.tgz:7389.got - 2010.06.03 12:15:38.
