data_PCOD9411603
_publ_section_title
;
Structure prediction by ZEFSAII (Michael W. Deem and Ramdas Pophale) SiO2 
 PCOD9411603
Probable space group: P N N A
;
_chemical_formula_sum "Si O2"
_cell_formula_units_Z 56
_cell_length_a 28.901894
_cell_length_b 14.082787
_cell_length_c 5.477479
_cell_angle_alpha 90.000000
_cell_angle_beta 90.000000
_cell_angle_gamma 90.000000
_cell_volume 2229.439214
_symmetry_space_group_name_H-M "P N N A"
_symmetry_group_IT_number 52
_symmetry_cell_setting 'orthorhombic'
loop_
_space_group_symop_operation_xyz
x,y,z
1/2-x,-y,z
x,1/2-y,1/2-z
1/2-x,1/2+y,1/2-z
-x,-y,-z
1/2+x,y,-z
-x,1/2+y,1/2+z
1/2+x,1/2-y,1/2+z
loop_
_atom_site_type_symbol
_atom_site_label
_atom_site_fract_x
_atom_site_fract_y
_atom_site_fract_z
Si Si1 0.547648 0.874875 0.630152
Si Si2 0.290117 0.850658 0.617756
Si Si3 0.725918 0.750000 0.750000
Si Si4 0.456351 0.553129 0.794751
Si Si5 0.416102 0.250000 0.750000
Si Si6 0.217876 0.569265 0.494288
Si Si7 0.887887 0.688285 0.998827
Si Si8 0.884128 0.058681 0.019258
O O1 0.502700 0.895478 0.796786
O O2 0.554346 0.775857 0.490582
O O3 0.536203 0.950240 0.415032
O O4 0.594952 0.905106 0.762963
O O5 0.298335 0.750000 0.750000
O O6 0.258745 0.820598 0.393436
O O7 0.255800 0.907753 0.795240
O O8 0.341275 0.876400 0.526854
O O9 0.700196 0.674490 0.585587
O O10 0.417693 0.527529 0.595600
O O11 0.432345 0.620852 0.994451
O O12 0.388779 0.152604 0.807562
O O13 0.250000 0.500000 0.329641
O O14 0.168224 0.522102 0.532681
O O15 0.884098 0.750000 0.750000
O O16 0.892766 0.750000 0.250000
#
# Coordination Sequence:
#
# PCOD9411603 Si02
#       8
#     8   8   4   8   4   8   8   8
#     4  10  23  44  68  96 141 184 239 303 379 450
#     4   9  20  41  61  91 135 178 229 293 362 431
#     4  10  22  38  65  92 136 188 231 298 362 440
#     4  10  24  43  67 100 138 186 239 310 373 458
#     4  10  24  40  65 104 130 186 233 300 366 466
#     4  11  25  40  66 101 138 188 248 304 374 454
#     4  11  24  41  71 106 144 190 249 308 377 456
#     4  11  24  42  70  98 144 186 244 307 379 462
#
# _framework density 25.118425999999999
#
# number of rings (size 3 to 8) (size 9 to 14) (size 15 to 20)
#    0.000    1.714    0.714    1.714    8.000    4.000 
#    0.000    0.000    0.000    0.000    0.000    0.000 
#    0.000    0.000    0.000    0.000    0.000    0.000 
#
# Total GULP energy -312279.408758 kJ/mol
# GULP energy per Si atom -5576.418014 kJ/mol
# Density = 2.506126 g / cm^3
# Si number density = 25.118426 Si / 1000 Ang^3
#
#
#
# Elastic Constant Matrix: (Units=GPa)
#
#
# Indices 1 2 3 4 5 6 
#
# 1 167.3036 41.0811 22.2070 0.0000 0.0000 0.0000
# 2 41.0811 84.1230 25.8467 0.0000 0.0000 0.0000
# 3 22.2070 25.8467 77.5248 0.0000 0.0000 0.0000
# 4 0.0000 0.0000 0.0000 41.4977 0.0000 0.0000
# 5 0.0000 0.0000 0.0000 0.0000 66.6884 0.0000
# 6 0.0000 0.0000 0.0000 0.0000 0.0000 48.6513
#
#
#
# Elastic Compliance Matrix: (Units=1/GPa)
#
#
# Indices 1 2 3 4 5 6 
#
# 1 0.006853 -0.003057 -0.000944 0.000000 0.000000 0.000000
# 2 -0.003057 0.014607 -0.003995 0.000000 0.000000 0.000000
# 3 -0.000944 -0.003995 0.014501 0.000000 0.000000 0.000000
# 4 0.000000 0.000000 0.000000 0.024098 0.000000 0.000000
# 5 0.000000 0.000000 0.000000 0.000000 0.014995 0.000000
# 6 0.000000 0.000000 0.000000 0.000000 0.000000 0.020554
#
#
# Mechanical properties :
#
#
# Convention : Reuss Voigt Hill
#
# Bulk Modulus (GPa) = 50.07154 56.35791 53.21473
# Shear Modulus (GPa) = 42.28107 47.35524 44.81815
#
# Velocity S-wave (km/s) = 4.10722 4.34669 4.22865
# Velocity P-wave (km/s) = 6.51688 6.90487 6.71368
#
# Compressibility (1/GPa) = 0.01997143
#
# Stress axis : x y z
#
# Youngs Moduli (GPa) = 145.92152 68.45871 68.95948
#
# Poissons Ratio (x) = 0.20925 0.06510
# Poissons Ratio (y) = 0.44602 0.27546
# Poissons Ratio (z) = 0.13775 0.27346
#
# Static dielectric constant tensor:
#      x y z
#    x 2.013090 0.000000 0.000000 
#    y 0.000000 1.722620 0.000000 
#    z 0.000000 0.000000 2.460820 
# 
# From -- ./inp_files/6477.got.cif
#   From: 2010.05.17/outbox.cif.g08.bks.cpg/sg52_4_cif.got.tgz:6477.got - 2010.06.03 12:15:38.
