data_PCOD9411318
_publ_section_title
;
Structure prediction by ZEFSAII (Michael W. Deem and Ramdas Pophale) SiO2 
 PCOD9411318
Probable space group: P N N A
;
_chemical_formula_sum "Si O2"
_cell_formula_units_Z 24
_cell_length_a 9.753433
_cell_length_b 12.930430
_cell_length_c 7.373641
_cell_angle_alpha 90.000000
_cell_angle_beta 90.000000
_cell_angle_gamma 90.000000
_cell_volume 929.934718
_symmetry_space_group_name_H-M "P N N A"
_symmetry_group_IT_number 52
_symmetry_cell_setting 'orthorhombic'
loop_
_space_group_symop_operation_xyz
x,y,z
1/2-x,-y,z
x,1/2-y,1/2-z
1/2-x,1/2+y,1/2-z
-x,-y,-z
1/2+x,y,-z
-x,1/2+y,1/2+z
1/2+x,1/2-y,1/2+z
loop_
_atom_site_type_symbol
_atom_site_label
_atom_site_fract_x
_atom_site_fract_y
_atom_site_fract_z
Si Si1 0.577166 0.895118 0.061701
Si Si2 0.725501 0.630165 0.773758
Si Si3 0.494800 0.152069 0.550069
O O1 0.507842 0.778982 0.029703
O O2 0.710333 0.899752 0.935122
O O3 0.596231 0.884180 0.277163
O O4 0.500000 0.000000 0.000000
O O5 0.743636 0.750000 0.750000
O O6 0.581042 0.612074 0.872090
O O7 0.856529 0.605814 0.897819
#
# Coordination Sequence:
#
# PCOD9411318 Si02
#       3
#     8   8   8
#     4  10  22  41  66  95 131 176 227 277 339 420
#     4  10  21  42  65  94 134 178 216 282 349 408
#     4  10  22  44  66  97 134 176 226 280 351 410
#
# _framework density 25.808264000000001
#
# number of rings (size 3 to 8) (size 9 to 14) (size 15 to 20)
#    0.000    2.000    3.333    0.000    0.000    5.333 
#   18.000    0.000    0.000    0.000    0.000    0.000 
#    0.000    0.000    0.000    0.000    0.000    0.000 
#
# Total GULP energy -133608.527194 kJ/mol
# GULP energy per Si atom -5567.021966 kJ/mol
# Density = 2.574952 g / cm^3
# Si number density = 25.808264 Si / 1000 Ang^3
#
#
#
# Elastic Constant Matrix: (Units=GPa)
#
#
# Indices 1 2 3 4 5 6 
#
# 1 130.6761 6.6648 54.6394 0.0000 0.0000 0.0000
# 2 6.6648 224.0517 20.9479 0.0000 0.0000 0.0000
# 3 54.6394 20.9479 119.6660 0.0000 0.0000 0.0000
# 4 0.0000 0.0000 0.0000 -62.8171 0.0000 0.0000
# 5 0.0000 0.0000 0.0000 0.0000 109.2658 0.0000
# 6 0.0000 0.0000 0.0000 0.0000 0.0000 15.2827
#
#
#
# Elastic Compliance Matrix: (Units=1/GPa)
#
#
# Indices 1 2 3 4 5 6 
#
# 1 0.009462 0.000125 -0.004342 0.000000 0.000000 0.000000
# 2 0.000125 0.004539 -0.000851 0.000000 0.000000 0.000000
# 3 -0.004342 -0.000851 0.010488 0.000000 0.000000 0.000000
# 4 0.000000 0.000000 0.000000 -0.015919 0.000000 0.000000
# 5 0.000000 0.000000 0.000000 0.000000 0.009152 0.000000
# 6 0.000000 0.000000 0.000000 0.000000 0.000000 0.065433
#
#
# Mechanical properties :
#
#
# Convention : Reuss Voigt Hill
#
# Bulk Modulus (GPa) = 69.68077 70.98869 70.33473
# Shear Modulus (GPa) = 50.98049 38.48907 44.73478
#
# Velocity S-wave (km/s) = 4.44932 3.86599 4.16787
# Velocity P-wave (km/s) = 7.31117 6.89157 7.10447
#
# Compressibility (1/GPa) = 0.01435116
#
# Stress axis : x y z
#
# Youngs Moduli (GPa) = 105.68965 220.30517 95.34538
#
# Poissons Ratio (x) = -0.02743 0.41399
# Poissons Ratio (y) = -0.01316 0.08118
# Poissons Ratio (z) = 0.45890 0.18758
#
# Static dielectric constant tensor:
#      x y z
#    x 2.079190 0.000000 0.000000 
#    y 0.000000 0.256440 0.000000 
#    z 0.000000 0.000000 1.980970 
# 
# From -- ./inp_files/7991.got.cif
#   From: 2010.05.17/outbox.cif.g08.bks.cpg/sg52_4_cif.got.tgz:7991.got - 2010.06.03 12:15:38.
