data_PCOD9411166
_publ_section_title
;
Structure prediction by ZEFSAII (Michael W. Deem and Ramdas Pophale) SiO2 
 PCOD9411166
Probable space group: P N N A
;
_chemical_formula_sum "Si O2"
_cell_formula_units_Z 60
_cell_length_a 8.097426
_cell_length_b 13.808209
_cell_length_c 25.378234
_cell_angle_alpha 90.000000
_cell_angle_beta 90.000000
_cell_angle_gamma 90.000000
_cell_volume 2837.564467
_symmetry_space_group_name_H-M "P N N A"
_symmetry_group_IT_number 52
_symmetry_cell_setting 'orthorhombic'
loop_
_space_group_symop_operation_xyz
x,y,z
1/2-x,-y,z
x,1/2-y,1/2-z
1/2-x,1/2+y,1/2-z
-x,-y,-z
1/2+x,y,-z
-x,1/2+y,1/2+z
1/2+x,1/2-y,1/2+z
loop_
_atom_site_type_symbol
_atom_site_label
_atom_site_fract_x
_atom_site_fract_y
_atom_site_fract_z
Si Si1 0.455052 0.166618 0.948906
Si Si2 0.563584 0.652947 0.845956
Si Si3 0.427336 0.459899 0.822638
Si Si4 0.301159 0.240248 0.651508
Si Si5 0.739400 0.250000 0.750000
Si Si6 0.522047 0.596414 0.292447
Si Si7 0.556082 0.515540 0.600885
Si Si8 0.841651 0.212222 0.934246
O O1 0.339157 0.216920 0.905834
O O2 0.645266 0.192272 0.935483
O O3 0.451155 0.049997 0.939749
O O4 0.405361 0.202719 0.006226
O O5 0.557581 0.536843 0.843601
O O6 0.377333 0.694390 0.841710
O O7 0.659255 0.697767 0.796277
O O8 0.632268 0.690906 0.901357
O O9 0.250000 0.500000 0.840648
O O10 0.431813 0.347164 0.838006
O O11 0.436285 0.462526 0.759469
O O12 0.334534 0.328561 0.691306
O O13 0.630579 0.333381 0.721847
O O14 0.484095 0.527816 0.341881
O O15 0.750000 0.500000 0.589516
O O16 0.548857 0.630443 0.596122
#
# Coordination Sequence:
#
# PCOD9411166 Si02
#       8
#     8   8   8   8   4   8   8   8
#     4  10  21  40  67  88 120 165 204 259 321 367
#     4  11  26  38  60  93 127 162 215 253 309 380
#     4  10  23  39  61  87 121 165 210 255 307 362
#     4  10  21  44  64  87 122 162 211 264 310 372
#     4  12  24  38  60  92 128 172 204 252 316 368
#     4  11  22  39  62  89 127 169 204 255 315 368
#     4   9  20  35  58  91 126 159 202 248 303 374
#     4  11  22  41  61  94 126 160 208 258 317 379
#
# _framework density 21.144894000000001
#
# number of rings (size 3 to 8) (size 9 to 14) (size 15 to 20)
#    0.000    1.600    1.333    3.600    7.467    0.000 
#    0.000    5.333    0.000    0.000    0.000    0.000 
#    0.000    0.000    0.000    0.000    0.000    0.000 
#
# Total GULP energy -335297.966511 kJ/mol
# GULP energy per Si atom -5588.299442 kJ/mol
# Density = 2.109677 g / cm^3
# Si number density = 21.144894 Si / 1000 Ang^3
#
#
#
# Elastic Constant Matrix: (Units=GPa)
#
#
# Indices 1 2 3 4 5 6 
#
# 1 63.7423 2.3884 -7.3970 0.0000 0.0000 0.0000
# 2 2.3884 45.1295 13.3957 0.0000 0.0000 0.0000
# 3 -7.3970 13.3957 53.9126 0.0000 0.0000 0.0000
# 4 0.0000 0.0000 0.0000 25.6858 0.0000 0.0000
# 5 0.0000 0.0000 0.0000 0.0000 40.3012 0.0000
# 6 0.0000 0.0000 0.0000 0.0000 0.0000 29.1819
#
#
#
# Elastic Compliance Matrix: (Units=1/GPa)
#
#
# Indices 1 2 3 4 5 6 
#
# 1 0.016051 -0.001623 0.002606 0.000000 0.000000 0.000000
# 2 -0.001623 0.024087 -0.006208 0.000000 0.000000 0.000000
# 3 0.002606 -0.006208 0.020448 0.000000 0.000000 0.000000
# 4 0.000000 0.000000 0.000000 0.038932 0.000000 0.000000
# 5 0.000000 0.000000 0.000000 0.000000 0.024813 0.000000
# 6 0.000000 0.000000 0.000000 0.000000 0.000000 0.034268
#
#
# Mechanical properties :
#
#
# Convention : Reuss Voigt Hill
#
# Bulk Modulus (GPa) = 19.94539 19.95095 19.94817
# Shear Modulus (GPa) = 26.91620 29.32694 28.12157
#
# Velocity S-wave (km/s) = 3.57170 3.72822 3.65080
# Velocity P-wave (km/s) = 5.14418 5.29043 5.21782
#
# Compressibility (1/GPa) = 0.05013689
#
# Stress axis : x y z
#
# Youngs Moduli (GPa) = 62.30012 41.51632 48.90354
#
# Poissons Ratio (x) = 0.06738 -0.12742
# Poissons Ratio (y) = 0.10111 0.30357
# Poissons Ratio (z) = -0.16233 0.25771
#
# Static dielectric constant tensor:
#      x y z
#    x 1.794060 0.000000 0.000000 
#    y 0.000000 1.797710 0.000000 
#    z 0.000000 0.000000 1.730060 
# 
# From -- ./inp_files/39634.got.cif
#   From: 2010.05.17/outbox.cif.g08.bks.cpg/sg52_20_cif.got.tgz:39634.got - 2010.06.03 12:15:38.
