data_PCOD9411440
_publ_section_title
;
Structure prediction by ZEFSAII (Michael W. Deem and Ramdas Pophale) SiO2 
 PCOD9411440
Probable space group: P N N A
;
_chemical_formula_sum "Si O2"
_cell_formula_units_Z 40
_cell_length_a 11.584263
_cell_length_b 8.218684
_cell_length_c 18.236409
_cell_angle_alpha 90.000000
_cell_angle_beta 90.000000
_cell_angle_gamma 90.000000
_cell_volume 1736.241031
_symmetry_space_group_name_H-M "P N N A"
_symmetry_group_IT_number 52
_symmetry_cell_setting 'orthorhombic'
loop_
_space_group_symop_operation_xyz
x,y,z
1/2-x,-y,z
x,1/2-y,1/2-z
1/2-x,1/2+y,1/2-z
-x,-y,-z
1/2+x,y,-z
-x,1/2+y,1/2+z
1/2+x,1/2-y,1/2+z
loop_
_atom_site_type_symbol
_atom_site_label
_atom_site_fract_x
_atom_site_fract_y
_atom_site_fract_z
Si Si1 0.322790 0.666935 0.571053
Si Si2 0.923165 0.081045 0.864185
Si Si3 0.555627 0.077535 0.709627
Si Si4 0.801819 0.747162 0.909665
Si Si5 0.159693 0.386118 0.804036
O O1 0.250000 0.500000 0.562609
O O2 0.451252 0.621027 0.601723
O O3 0.317983 0.770388 0.496281
O O4 0.275594 0.789528 0.632536
O O5 0.830075 0.214913 0.888200
O O6 0.914138 0.043250 0.776981
O O7 0.876045 0.912205 0.897014
O O8 0.527875 0.250000 0.750000
O O9 0.647581 0.118098 0.647305
O O10 0.445227 0.997259 0.671529
O O11 0.250000 0.500000 0.762480
O O12 0.114505 0.250000 0.750000
#
# Coordination Sequence:
#
# PCOD9411440 Si02
#       5
#     8   8   8   8   8
#     4  12  25  43  77 104 145 198 244 296 364 444
#     4  10  21  45  69 106 141 189 241 297 360 438
#     4  10  23  45  71 103 141 187 245 304 364 434
#     4  10  23  43  75 105 141 191 239 301 363 439
#     4  12  26  44  70 104 143 189 245 303 372 439
#
# _framework density 23.038274999999999
#
# number of rings (size 3 to 8) (size 9 to 14) (size 15 to 20)
#    0.000    1.200    4.000    1.800    5.600    0.800 
#   21.600    0.000    0.000    0.000    0.000    0.000 
#    0.000    0.000    0.000    0.000    0.000    0.000 
#
# Total GULP energy -223427.276067 kJ/mol
# GULP energy per Si atom -5585.681902 kJ/mol
# Density = 2.298584 g / cm^3
# Si number density = 23.038275 Si / 1000 Ang^3
#
#
#
# Elastic Constant Matrix: (Units=GPa)
#
#
# Indices 1 2 3 4 5 6 
#
# 1 136.7531 49.7373 35.8683 0.0000 0.0000 0.0000
# 2 49.7373 85.3802 36.6904 0.0000 0.0000 0.0000
# 3 35.8683 36.6904 154.2000 0.0000 0.0000 0.0000
# 4 0.0000 0.0000 0.0000 16.3318 0.0000 0.0000
# 5 0.0000 0.0000 0.0000 0.0000 22.1221 0.0000
# 6 0.0000 0.0000 0.0000 0.0000 0.0000 37.3797
#
#
#
# Elastic Compliance Matrix: (Units=1/GPa)
#
#
# Indices 1 2 3 4 5 6 
#
# 1 0.009411 -0.005059 -0.000985 0.000000 0.000000 0.000000
# 2 -0.005059 0.015766 -0.002575 0.000000 0.000000 0.000000
# 3 -0.000985 -0.002575 0.007327 0.000000 0.000000 0.000000
# 4 0.000000 0.000000 0.000000 0.061230 0.000000 0.000000
# 5 0.000000 0.000000 0.000000 0.000000 0.045204 0.000000
# 6 0.000000 0.000000 0.000000 0.000000 0.000000 0.026753
#
#
# Mechanical properties :
#
#
# Convention : Reuss Voigt Hill
#
# Bulk Modulus (GPa) = 65.50522 68.99172 67.24847
# Shear Modulus (GPa) = 26.59357 32.10253 29.34805
#
# Velocity S-wave (km/s) = 3.40122 3.73694 3.57302
# Velocity P-wave (km/s) = 6.62716 6.97360 6.80259
#
# Compressibility (1/GPa) = 0.01526596
#
# Stress axis : x y z
#
# Youngs Moduli (GPa) = 106.26144 63.42936 136.48375
#
# Poissons Ratio (x) = 0.32087 0.13449
# Poissons Ratio (y) = 0.53754 0.35139
# Poissons Ratio (z) = 0.10471 0.16330
#
# Static dielectric constant tensor:
#      x y z
#    x 1.877070 0.000000 0.000000 
#    y 0.000000 1.858700 0.000000 
#    z 0.000000 0.000000 1.883690 
# 
# From -- ./inp_files/31984.got.cif
#   From: 2010.05.17/outbox.cif.g08.bks.cpg/sg52_16_cif.got.tgz:31984.got - 2010.06.03 12:15:38.
