data_PCOD9411473
_publ_section_title
;
Structure prediction by ZEFSAII (Michael W. Deem and Ramdas Pophale) SiO2 
 PCOD9411473
Probable space group: P N N A
;
_chemical_formula_sum "Si O2"
_cell_formula_units_Z 44
_cell_length_a 4.924985
_cell_length_b 17.152267
_cell_length_c 27.854333
_cell_angle_alpha 90.000000
_cell_angle_beta 90.000000
_cell_angle_gamma 90.000000
_cell_volume 2352.985245
_symmetry_space_group_name_H-M "P N N A"
_symmetry_group_IT_number 52
_symmetry_cell_setting 'orthorhombic'
loop_
_space_group_symop_operation_xyz
x,y,z
1/2-x,-y,z
x,1/2-y,1/2-z
1/2-x,1/2+y,1/2-z
-x,-y,-z
1/2+x,y,-z
-x,1/2+y,1/2+z
1/2+x,1/2-y,1/2+z
loop_
_atom_site_type_symbol
_atom_site_label
_atom_site_fract_x
_atom_site_fract_y
_atom_site_fract_z
Si Si1 0.442325 0.602961 0.657050
Si Si2 0.869052 0.081413 0.737331
Si Si3 0.250000 0.500000 0.419122
Si Si4 0.939300 0.703567 0.636135
Si Si5 0.643241 0.681781 0.213590
Si Si6 0.377493 0.656837 0.468216
O O1 0.508504 0.569399 0.709305
O O2 0.539190 0.544875 0.615450
O O3 0.136281 0.631769 0.651242
O O4 0.635857 0.678752 0.650802
O O5 0.616728 0.140759 0.737763
O O6 0.113859 0.120619 0.708078
O O7 0.750000 0.000000 0.719127
O O8 0.389547 0.566769 0.450884
O O9 0.043418 0.777750 0.664959
O O10 0.947166 0.707008 0.578667
O O11 0.738745 0.750000 0.250000
O O12 0.577232 0.670407 0.512262
#
# Coordination Sequence:
#
# PCOD9411473 Si02
#       6
#     8   8   4   8   8   8
#     4  11  20  34  51  79 109 147 195 232 262 329
#     4  12  23  37  55  86 121 152 190 238 288 341
#     4  10  22  34  54  78 112 158 196 236 284 326
#     4  11  23  36  56  79 103 147 195 237 278 326
#     4  12  22  38  60  82 115 152 201 236 286 353
#     4  11  23  39  54  77 111 149 199 245 288 330
#
# _framework density 18.699652
#
# number of rings (size 3 to 8) (size 9 to 14) (size 15 to 20)
#    0.000    0.727    4.545    4.909    0.000    5.818 
#    0.000    0.000    0.000    0.000    0.000    0.000 
#    0.000   14.545    0.000    0.000    0.000    0.000 
#
# Total GULP energy -246232.161428 kJ/mol
# GULP energy per Si atom -5596.185487 kJ/mol
# Density = 1.865709 g / cm^3
# Si number density = 18.699652 Si / 1000 Ang^3
#
#
#
# Elastic Constant Matrix: (Units=GPa)
#
#
# Indices 1 2 3 4 5 6 
#
# 1 65.6189 12.2601 7.5983 0.0000 0.0000 0.0000
# 2 12.2601 49.4433 31.9621 0.0000 0.0000 0.0000
# 3 7.5983 31.9621 82.1208 0.0000 0.0000 0.0000
# 4 0.0000 0.0000 0.0000 28.5292 0.0000 0.0000
# 5 0.0000 0.0000 0.0000 0.0000 18.8480 0.0000
# 6 0.0000 0.0000 0.0000 0.0000 0.0000 33.7990
#
#
#
# Elastic Compliance Matrix: (Units=1/GPa)
#
#
# Indices 1 2 3 4 5 6 
#
# 1 0.015980 -0.004017 0.000085 0.000000 0.000000 0.000000
# 2 -0.004017 0.028035 -0.010540 0.000000 0.000000 0.000000
# 3 0.000085 -0.010540 0.016271 0.000000 0.000000 0.000000
# 4 0.000000 0.000000 0.000000 0.035052 0.000000 0.000000
# 5 0.000000 0.000000 0.000000 0.000000 0.053056 0.000000
# 6 0.000000 0.000000 0.000000 0.000000 0.000000 0.029587
#
#
# Mechanical properties :
#
#
# Convention : Reuss Voigt Hill
#
# Bulk Modulus (GPa) = 31.90582 33.42488 32.66535
# Shear Modulus (GPa) = 23.00202 25.92608 24.46405
#
# Velocity S-wave (km/s) = 3.51105 3.72754 3.62091
# Velocity P-wave (km/s) = 5.79102 6.03651 5.91504
#
# Compressibility (1/GPa) = 0.03134225
#
# Stress axis : x y z
#
# Youngs Moduli (GPa) = 62.57713 35.67020 61.45746
#
# Poissons Ratio (x) = 0.14330 -0.00523
# Poissons Ratio (y) = 0.25140 0.64774
# Poissons Ratio (z) = -0.00532 0.37595
#
# Static dielectric constant tensor:
#      x y z
#    x 1.666880 0.000000 0.000000 
#    y 0.000000 1.668070 0.000000 
#    z 0.000000 0.000000 1.649870 
# 
# From -- ./inp_files/41639.got.cif
#   From: 2010.05.17/outbox.cif.g08.bks.cpg/sg52_21_cif.got.tgz:41639.got - 2010.06.03 12:15:38.
