data_PCOD9411416
_publ_section_title
;
Structure prediction by ZEFSAII (Michael W. Deem and Ramdas Pophale) SiO2 
 PCOD9411416
Probable space group: P N N A
;
_chemical_formula_sum "Si O2"
_cell_formula_units_Z 32
_cell_length_a 11.412973
_cell_length_b 7.324611
_cell_length_c 17.063016
_cell_angle_alpha 90.000000
_cell_angle_beta 90.000000
_cell_angle_gamma 90.000000
_cell_volume 1426.392848
_symmetry_space_group_name_H-M "P N N A"
_symmetry_group_IT_number 52
_symmetry_cell_setting 'orthorhombic'
loop_
_space_group_symop_operation_xyz
x,y,z
1/2-x,-y,z
x,1/2-y,1/2-z
1/2-x,1/2+y,1/2-z
-x,-y,-z
1/2+x,y,-z
-x,1/2+y,1/2+z
1/2+x,1/2-y,1/2+z
loop_
_atom_site_type_symbol
_atom_site_label
_atom_site_fract_x
_atom_site_fract_y
_atom_site_fract_z
Si Si1 0.116341 0.982407 0.401126
Si Si2 0.878527 0.962079 0.775449
Si Si3 0.631084 0.607533 0.321066
Si Si4 0.033507 0.797891 0.972217
O O1 0.059222 0.825102 0.452592
O O2 0.250000 0.000000 0.424220
O O3 0.112161 0.938265 0.308874
O O4 0.059323 0.177404 0.422544
O O5 0.871830 0.750000 0.750000
O O6 0.003023 0.991898 0.818368
O O7 0.750000 0.000000 0.812904
O O8 0.750000 0.500000 0.306939
O O9 0.623436 0.750000 0.250000
O O10 0.638046 0.688539 0.408750
O O11 0.000000 0.000000 0.000000
#
# Coordination Sequence:
#
# PCOD9411416 Si02
#       4
#     8   8   8   8
#     4  10  23  44  71  98 141 182 233 300 347 409
#     4  10  21  44  68  99 133 179 233 289 348 416
#     4  11  25  45  66 101 142 180 234 286 349 432
#     4  11  25  44  69 104 139 184 238 287 354 426
#
# _framework density 22.434213
#
# number of rings (size 3 to 8) (size 9 to 14) (size 15 to 20)
#    0.000    1.500    5.000    0.000    3.500    8.000 
#    0.000    0.000    0.000    0.000    0.000    0.000 
#    0.000    0.000    0.000    0.000    0.000    0.000 
#
# Total GULP energy -178621.278398 kJ/mol
# GULP energy per Si atom -5581.914950 kJ/mol
# Density = 2.238315 g / cm^3
# Si number density = 22.434213 Si / 1000 Ang^3
#
#
#
# Elastic Constant Matrix: (Units=GPa)
#
#
# Indices 1 2 3 4 5 6 
#
# 1 154.6697 40.4960 6.9618 0.0000 0.0000 0.0000
# 2 40.4960 104.0606 28.8202 0.0000 0.0000 0.0000
# 3 6.9618 28.8202 101.2404 0.0000 0.0000 0.0000
# 4 0.0000 0.0000 0.0000 -119.3411 0.0000 0.0000
# 5 0.0000 0.0000 0.0000 0.0000 -26.1291 0.0000
# 6 0.0000 0.0000 0.0000 0.0000 0.0000 25.4737
#
#
#
# Elastic Compliance Matrix: (Units=1/GPa)
#
#
# Indices 1 2 3 4 5 6 
#
# 1 0.007209 -0.002896 0.000329 0.000000 0.000000 0.000000
# 2 -0.002896 0.011596 -0.003102 0.000000 0.000000 0.000000
# 3 0.000329 -0.003102 0.010738 0.000000 0.000000 0.000000
# 4 0.000000 0.000000 0.000000 -0.008379 0.000000 0.000000
# 5 0.000000 0.000000 0.000000 0.000000 -0.038272 0.000000
# 6 0.000000 0.000000 0.000000 0.000000 0.000000 0.039256
#
#
# Mechanical properties :
#
#
# Convention : Reuss Voigt Hill
#
# Bulk Modulus (GPa) = 54.93359 56.94741 55.94050
# Shear Modulus (GPa) = 126.40583 -5.08644 60.65969
#
# Velocity S-wave (km/s) = 7.51448 -1.50738 5.20554
# Velocity P-wave (km/s) = 9.99148 4.73389 7.81791
#
# Compressibility (1/GPa) = 0.01820380
#
# Stress axis : x y z
#
# Youngs Moduli (GPa) = 138.71640 86.23620 93.12825
#
# Poissons Ratio (x) = 0.24978 -0.03062
# Poissons Ratio (y) = 0.40179 0.28887
# Poissons Ratio (z) = -0.04561 0.26749
#
# Static dielectric constant tensor:
#      x y z
#    x 1.845870 0.000000 0.000000 
#    y 0.000000 1.865000 0.000000 
#    z 0.000000 0.000000 1.870030 
# 
# From -- ./inp_files/31846.got.cif
#   From: 2010.05.17/outbox.cif.g08.bks.cpg/sg52_16_cif.got.tgz:31846.got - 2010.06.03 12:15:38.
