data_PCOD9411495
_publ_section_title
;
Structure prediction by ZEFSAII (Michael W. Deem and Ramdas Pophale) SiO2 
 PCOD9411495
Probable space group: P N N A
;
_chemical_formula_sum "Si O2"
_cell_formula_units_Z 64
_cell_length_a 11.510222
_cell_length_b 12.176837
_cell_length_c 24.865911
_cell_angle_alpha 90.000000
_cell_angle_beta 90.000000
_cell_angle_gamma 90.000000
_cell_volume 3485.158769
_symmetry_space_group_name_H-M "P N N A"
_symmetry_group_IT_number 52
_symmetry_cell_setting 'orthorhombic'
loop_
_space_group_symop_operation_xyz
x,y,z
1/2-x,-y,z
x,1/2-y,1/2-z
1/2-x,1/2+y,1/2-z
-x,-y,-z
1/2+x,y,-z
-x,1/2+y,1/2+z
1/2+x,1/2-y,1/2+z
loop_
_atom_site_type_symbol
_atom_site_label
_atom_site_fract_x
_atom_site_fract_y
_atom_site_fract_z
Si Si1 0.203922 0.270079 0.188950
Si Si2 0.158739 0.900995 0.890948
Si Si3 0.685699 0.798312 0.308959
Si Si4 0.895721 0.168110 0.875220
Si Si5 0.124769 0.564778 0.490355
Si Si6 0.980330 0.957689 0.700478
Si Si7 0.452914 0.805813 0.692378
Si Si8 0.940301 0.951292 0.824252
O O1 0.248770 0.250000 0.250000
O O2 0.301513 0.256528 0.144277
O O3 0.118539 0.167438 0.177868
O O4 0.132144 0.382960 0.188946
O O5 0.184090 0.798718 0.852495
O O6 0.037353 0.947674 0.869754
O O7 0.250000 0.000000 0.885491
O O8 0.146964 0.872341 0.953607
O O9 0.654323 0.750000 0.250000
O O10 0.591261 0.891015 0.321135
O O11 0.817790 0.838301 0.305711
O O12 0.892172 0.137930 0.937373
O O13 0.016688 0.216611 0.853067
O O14 0.867355 0.058078 0.840729
O O15 0.250000 0.500000 0.481927
O O16 0.000000 0.500000 0.500000
O O17 0.992183 0.967688 0.765124
O O18 0.977580 0.082444 0.681772
O O19 0.479948 0.750000 0.750000
#
# Coordination Sequence:
#
# PCOD9411495 Si02
#       8
#     8   8   8   8   8   8   8   8
#     4  10  22  36  58  87 123 172 205 254 311 379
#     4  11  22  36  60  94 128 161 200 264 319 385
#     4  11  21  35  59  91 127 168 204 249 326 387
#     4  12  23  41  59  90 126 166 214 260 322 375
#     4  11  25  41  66  96 130 171 213 269 333 387
#     4  11  21  38  57  91 130 165 212 247 321 394
#     4  11  24  36  58  93 128 169 207 267 315 377
#     4  11  19  35  59  88 128 158 202 254 314 382
#
# _framework density 18.363582999999998
#
# number of rings (size 3 to 8) (size 9 to 14) (size 15 to 20)
#    0.000    1.000    5.000    3.000    3.500    0.500 
#    0.000    0.000    0.000    0.750    3.250    0.000 
#    0.000    0.000    0.000    0.000    0.000    0.000 
#
# Total GULP energy -357089.966201 kJ/mol
# GULP energy per Si atom -5579.530722 kJ/mol
# Density = 1.832179 g / cm^3
# Si number density = 18.363583 Si / 1000 Ang^3
#
#
#
# Elastic Constant Matrix: (Units=GPa)
#
#
# Indices 1 2 3 4 5 6 
#
# 1 80.4593 27.2137 32.7335 0.0000 0.0000 0.0000
# 2 27.2137 105.6915 51.9988 0.0000 0.0000 0.0000
# 3 32.7335 51.9988 134.6083 0.0000 0.0000 0.0000
# 4 0.0000 0.0000 0.0000 28.3513 0.0000 0.0000
# 5 0.0000 0.0000 0.0000 0.0000 16.0627 0.0000
# 6 0.0000 0.0000 0.0000 0.0000 0.0000 23.1698
#
#
#
# Elastic Compliance Matrix: (Units=1/GPa)
#
#
# Indices 1 2 3 4 5 6 
#
# 1 0.014282 -0.002431 -0.002534 0.000000 0.000000 0.000000
# 2 -0.002431 0.012095 -0.004081 0.000000 0.000000 0.000000
# 3 -0.002534 -0.004081 0.009622 0.000000 0.000000 0.000000
# 4 0.000000 0.000000 0.000000 0.035272 0.000000 0.000000
# 5 0.000000 0.000000 0.000000 0.000000 0.062256 0.000000
# 6 0.000000 0.000000 0.000000 0.000000 0.000000 0.043160
#
#
# Mechanical properties :
#
#
# Convention : Reuss Voigt Hill
#
# Bulk Modulus (GPa) = 55.84443 60.51677 58.18060
# Shear Modulus (GPa) = 24.90698 27.43763 26.17230
#
# Velocity S-wave (km/s) = 3.68683 3.86959 3.77932
# Velocity P-wave (km/s) = 6.97137 7.27951 7.12711
#
# Compressibility (1/GPa) = 0.01790689
#
# Stress axis : x y z
#
# Youngs Moduli (GPa) = 70.01989 82.67684 103.93085
#
# Poissons Ratio (x) = 0.20095 0.26336
# Poissons Ratio (y) = 0.17019 0.42418
# Poissons Ratio (z) = 0.17743 0.33743
#
# Static dielectric constant tensor:
#      x y z
#    x 1.744970 0.000000 0.000000 
#    y 0.000000 1.650820 0.000000 
#    z 0.000000 0.000000 1.602950 
# 
# From -- ./inp_files/40332.got.cif
#   From: 2010.05.17/outbox.cif.g08.bks.cpg/sg52_21_cif.got.tgz:40332.got - 2010.06.03 12:15:38.
