data_PCOD9411254
_publ_section_title
;
Structure prediction by ZEFSAII (Michael W. Deem and Ramdas Pophale) SiO2 
 PCOD9411254
Probable space group: P N N A
;
_chemical_formula_sum "Si O2"
_cell_formula_units_Z 60
_cell_length_a 5.491715
_cell_length_b 24.111712
_cell_length_c 18.676412
_cell_angle_alpha 90.000000
_cell_angle_beta 90.000000
_cell_angle_gamma 90.000000
_cell_volume 2473.030567
_symmetry_space_group_name_H-M "P N N A"
_symmetry_group_IT_number 52
_symmetry_cell_setting 'orthorhombic'
loop_
_space_group_symop_operation_xyz
x,y,z
1/2-x,-y,z
x,1/2-y,1/2-z
1/2-x,1/2+y,1/2-z
-x,-y,-z
1/2+x,y,-z
-x,1/2+y,1/2+z
1/2+x,1/2-y,1/2+z
loop_
_atom_site_type_symbol
_atom_site_label
_atom_site_fract_x
_atom_site_fract_y
_atom_site_fract_z
Si Si1 0.256578 0.067386 0.538701
Si Si2 0.420604 0.411352 0.801786
Si Si3 0.660351 0.202585 0.687951
Si Si4 0.361814 0.937964 0.828892
Si Si5 0.138938 0.582478 0.522918
Si Si6 0.470130 0.293639 0.469027
Si Si7 0.847852 0.759116 0.335593
Si Si8 0.250000 0.500000 0.268308
O O1 0.491081 0.084888 0.490760
O O2 0.315878 0.086906 0.618856
O O3 0.250000 0.000000 0.539311
O O4 0.590787 0.358690 0.787879
O O5 0.210532 0.407116 0.743017
O O6 0.561473 0.468512 0.783534
O O7 0.682106 0.250000 0.750000
O O8 0.926171 0.199422 0.653048
O O9 0.422132 0.221849 0.643496
O O10 0.235595 0.911663 0.896759
O O11 0.643875 0.952243 0.820125
O O12 0.250000 0.000000 0.829598
O O13 0.371928 0.555540 0.483401
O O14 0.079972 0.642879 0.490733
O O15 0.702984 0.269164 0.512221
O O16 0.555439 0.289997 0.386381
O O17 0.828345 0.750000 0.250000
#
# Coordination Sequence:
#
# PCOD9411254 Si02
#       8
#     8   8   8   8   8   8   8   4
#     4  10  23  41  68 104 142 181 229 289 367 446
#     4  11  25  44  74 104 147 190 250 302 377 449
#     4  10  24  43  69 104 138 182 235 301 355 426
#     4  10  24  43  67 103 143 187 242 302 361 430
#     4  10  24  40  64  98 135 185 237 294 355 423
#     4  10  21  41  66  97 134 180 235 289 350 419
#     4  10  22  42  67  97 136 182 238 297 353 415
#     4  10  24  44  72 106 144 190 248 310 374 434
#
# _framework density 24.261728999999999
#
# number of rings (size 3 to 8) (size 9 to 14) (size 15 to 20)
#    0.000    1.867    0.000    2.000   10.267    9.067 
#    2.400    4.000    0.000    0.000    0.000    0.000 
#    0.000    0.000    0.000    0.000    0.000    0.000 
#
# Total GULP energy -334647.626692 kJ/mol
# GULP energy per Si atom -5577.460445 kJ/mol
# Density = 2.420651 g / cm^3
# Si number density = 24.261729 Si / 1000 Ang^3
#
#
#
# Elastic Constant Matrix: (Units=GPa)
#
#
# Indices 1 2 3 4 5 6 
#
# 1 176.8039 8.1332 54.6474 0.0000 0.0000 0.0000
# 2 8.1332 50.2920 31.8459 0.0000 0.0000 0.0000
# 3 54.6474 31.8459 146.7831 0.0000 0.0000 0.0000
# 4 0.0000 0.0000 0.0000 34.4597 0.0000 0.0000
# 5 0.0000 0.0000 0.0000 0.0000 34.5779 0.0000
# 6 0.0000 0.0000 0.0000 0.0000 0.0000 29.4584
#
#
#
# Elastic Compliance Matrix: (Units=1/GPa)
#
#
# Indices 1 2 3 4 5 6 
#
# 1 0.006405 0.000550 -0.002504 0.000000 0.000000 0.000000
# 2 0.000550 0.023098 -0.005216 0.000000 0.000000 0.000000
# 3 -0.002504 -0.005216 0.008877 0.000000 0.000000 0.000000
# 4 0.000000 0.000000 0.000000 0.029019 0.000000 0.000000
# 5 0.000000 0.000000 0.000000 0.000000 0.028920 0.000000
# 6 0.000000 0.000000 0.000000 0.000000 0.000000 0.033946
#
#
# Mechanical properties :
#
#
# Convention : Reuss Voigt Hill
#
# Bulk Modulus (GPa) = 41.59904 62.57022 52.08463
# Shear Modulus (GPa) = 32.76165 38.31604 35.53885
#
# Velocity S-wave (km/s) = 3.67869 3.97833 3.83144
# Velocity P-wave (km/s) = 5.93522 6.85189 6.40996
#
# Compressibility (1/GPa) = 0.02403902
#
# Stress axis : x y z
#
# Youngs Moduli (GPa) = 156.13907 43.29412 112.65668
#
# Poissons Ratio (x) = -0.02380 0.28205
# Poissons Ratio (y) = -0.08582 0.58761
# Poissons Ratio (z) = 0.39092 0.22582
#
# Static dielectric constant tensor:
#      x y z
#    x 2.049840 0.000000 0.000000 
#    y 0.000000 1.736240 0.000000 
#    z 0.000000 0.000000 1.935000 
# 
# From -- ./inp_files/30355.got.cif
#   From: 2010.05.17/outbox.cif.g08.bks.cpg/sg52_16_cif.got.tgz:30355.got - 2010.06.03 12:15:38.
