data_PCOD9411920
_publ_section_title
;
Structure prediction by ZEFSAII (Michael W. Deem and Ramdas Pophale) SiO2 
 PCOD9411920
Probable space group: P N N A
;
_chemical_formula_sum "Si O2"
_cell_formula_units_Z 32
_cell_length_a 18.994761
_cell_length_b 9.183132
_cell_length_c 9.081556
_cell_angle_alpha 90.000000
_cell_angle_beta 90.000000
_cell_angle_gamma 90.000000
_cell_volume 1584.108505
_symmetry_space_group_name_H-M "P N N A"
_symmetry_group_IT_number 52
_symmetry_cell_setting 'orthorhombic'
loop_
_space_group_symop_operation_xyz
x,y,z
1/2-x,-y,z
x,1/2-y,1/2-z
1/2-x,1/2+y,1/2-z
-x,-y,-z
1/2+x,y,-z
-x,1/2+y,1/2+z
1/2+x,1/2-y,1/2+z
loop_
_atom_site_type_symbol
_atom_site_label
_atom_site_fract_x
_atom_site_fract_y
_atom_site_fract_z
Si Si1 0.703770 0.640523 0.116317
Si Si2 0.559644 0.578969 0.591889
Si Si3 0.790539 0.356798 0.613987
Si Si4 0.436461 0.416711 0.073173
O O1 0.750000 0.500000 0.158816
O O2 0.685922 0.750000 0.250000
O O3 0.745105 0.746459 0.000966
O O4 0.634435 0.585405 0.026192
O O5 0.500000 0.500000 0.500000
O O6 0.639707 0.580852 0.533650
O O7 0.569897 0.525106 0.759707
O O8 0.541104 0.748915 0.589218
O O9 0.750000 0.500000 0.664305
O O10 0.810246 0.250000 0.750000
O O11 0.500000 0.500000 0.000000
#
# Coordination Sequence:
#
# PCOD9411920 Si02
#       4
#     8   8   8   8
#     4  11  24  44  66  99 136 174 225 278 339 406
#     4  10  22  42  63  93 129 167 221 274 330 400
#     4  11  22  42  69  95 131 172 220 281 338 406
#     4  10  23  41  63  91 130 174 213 273 332 397
#
# _framework density 20.200637
#
# number of rings (size 3 to 8) (size 9 to 14) (size 15 to 20)
#    0.000    1.500    5.000    1.500    7.000    2.000 
#    4.500    0.000    0.000    0.000    0.000    0.000 
#    0.000    0.000    0.000    0.000    0.000    0.000 
#
# Total GULP energy -178176.947440 kJ/mol
# GULP energy per Si atom -5568.029608 kJ/mol
# Density = 2.015466 g / cm^3
# Si number density = 20.200637 Si / 1000 Ang^3
#
#
#
# Elastic Constant Matrix: (Units=GPa)
#
#
# Indices 1 2 3 4 5 6 
#
# 1 95.8430 68.2771 43.9332 0.0000 0.0000 0.0000
# 2 68.2771 89.9868 36.6498 0.0000 0.0000 0.0000
# 3 43.9332 36.6498 107.3773 0.0000 0.0000 0.0000
# 4 0.0000 0.0000 0.0000 40.4567 0.0000 0.0000
# 5 0.0000 0.0000 0.0000 0.0000 25.8387 0.0000
# 6 0.0000 0.0000 0.0000 0.0000 0.0000 45.5289
#
#
#
# Elastic Compliance Matrix: (Units=1/GPa)
#
#
# Indices 1 2 3 4 5 6 
#
# 1 0.024257 -0.016682 -0.004231 0.000000 0.000000 0.000000
# 2 -0.016682 0.024379 -0.001496 0.000000 0.000000 0.000000
# 3 -0.004231 -0.001496 0.011555 0.000000 0.000000 0.000000
# 4 0.000000 0.000000 0.000000 0.024718 0.000000 0.000000
# 5 0.000000 0.000000 0.000000 0.000000 0.038702 0.000000
# 6 0.000000 0.000000 0.000000 0.000000 0.000000 0.021964
#
#
# Mechanical properties :
#
#
# Convention : Reuss Voigt Hill
#
# Bulk Modulus (GPa) = 65.04537 65.65858 65.35197
# Shear Modulus (GPa) = 25.57347 31.98798 28.78073
#
# Velocity S-wave (km/s) = 3.56191 3.98366 3.77867
# Velocity P-wave (km/s) = 7.01326 7.33029 7.17353
#
# Compressibility (1/GPa) = 0.01537389
#
# Stress axis : x y z
#
# Youngs Moduli (GPa) = 41.22552 41.01887 86.54598
#
# Poissons Ratio (x) = 0.68426 0.36617
# Poissons Ratio (y) = 0.68771 0.12945
# Poissons Ratio (z) = 0.17442 0.06135
#
# Static dielectric constant tensor:
#      x y z
#    x 1.728170 0.000000 0.000000 
#    y 0.000000 1.731200 0.000000 
#    z 0.000000 0.000000 1.830630 
# 
# From -- ./inp_files/12787.got.cif
#   From: 2010.05.17/outbox.cif.g08.bks.cpg/sg52_7_cif.got.tgz:12787.got - 2010.06.03 12:15:38.
