data_PCOD9411635
_publ_section_title
;
Structure prediction by ZEFSAII (Michael W. Deem and Ramdas Pophale) SiO2 
 PCOD9411635
Probable space group: P N N A
;
_chemical_formula_sum "Si O2"
_cell_formula_units_Z 44
_cell_length_a 24.593512
_cell_length_b 10.198633
_cell_length_c 8.575566
_cell_angle_alpha 90.000000
_cell_angle_beta 90.000000
_cell_angle_gamma 90.000000
_cell_volume 2150.925206
_symmetry_space_group_name_H-M "P N N A"
_symmetry_group_IT_number 52
_symmetry_cell_setting 'orthorhombic'
loop_
_space_group_symop_operation_xyz
x,y,z
1/2-x,-y,z
x,1/2-y,1/2-z
1/2-x,1/2+y,1/2-z
-x,-y,-z
1/2+x,y,-z
-x,1/2+y,1/2+z
1/2+x,1/2-y,1/2+z
loop_
_atom_site_type_symbol
_atom_site_label
_atom_site_fract_x
_atom_site_fract_y
_atom_site_fract_z
Si Si1 0.437789 0.510531 0.048820
Si Si2 0.759662 0.767567 0.433524
Si Si3 0.750000 0.500000 0.627014
Si Si4 0.640718 0.794149 0.429539
Si Si5 0.371174 0.747650 0.436812
Si Si6 0.371558 0.034712 0.138384
O O1 0.420588 0.660420 0.018809
O O2 0.416969 0.477036 0.226288
O O3 0.500000 0.500000 0.000000
O O4 0.401947 0.409002 0.951027
O O5 0.764390 0.750000 0.250000
O O6 0.754125 0.627426 0.518544
O O7 0.702778 0.838263 0.466392
O O8 0.817197 0.814844 0.495606
O O9 0.690654 0.518429 0.705362
O O10 0.640901 0.750000 0.250000
O O11 0.626932 0.670603 0.542938
O O12 0.365966 0.750000 0.250000
O O13 0.377330 0.593412 0.473500
#
# Coordination Sequence:
#
# PCOD9411635 Si02
#       6
#     8   8   4   8   8   8
#     4  11  24  40  57  83 115 152 204 250 284 335
#     4   9  18  32  55  86 119 149 182 230 290 353
#     4   8  16  32  58  90 120 148 188 234 294 360
#     4  10  22  39  60  88 120 152 188 235 293 354
#     4   9  20  37  60  88 118 151 190 238 292 350
#     4   9  19  40  64  87 117 153 189 239 296 353
#
# _framework density 20.456313000000002
#
# number of rings (size 3 to 8) (size 9 to 14) (size 15 to 20)
#    0.000    2.545    0.000    0.545    0.000   14.545 
#    0.000    7.273    0.000    0.000    0.000    0.000 
#    0.000    0.000    0.000    0.000    0.000    0.000 
#
# Total GULP energy -245205.192960 kJ/mol
# GULP energy per Si atom -5572.845295 kJ/mol
# Density = 2.040975 g / cm^3
# Si number density = 20.456313 Si / 1000 Ang^3
#
#
#
# Elastic Constant Matrix: (Units=GPa)
#
#
# Indices 1 2 3 4 5 6 
#
# 1 189.2645 36.2345 50.6068 0.0000 0.0000 0.0000
# 2 36.2345 39.3641 21.6550 0.0000 0.0000 0.0000
# 3 50.6068 21.6550 61.0806 0.0000 0.0000 0.0000
# 4 0.0000 0.0000 0.0000 -33.7030 0.0000 0.0000
# 5 0.0000 0.0000 0.0000 0.0000 20.4889 0.0000
# 6 0.0000 0.0000 0.0000 0.0000 0.0000 29.9068
#
#
#
# Elastic Compliance Matrix: (Units=1/GPa)
#
#
# Indices 1 2 3 4 5 6 
#
# 1 0.007311 -0.004221 -0.004561 0.000000 0.000000 0.000000
# 2 -0.004221 0.033996 -0.008555 0.000000 0.000000 0.000000
# 3 -0.004561 -0.008555 0.023184 0.000000 0.000000 0.000000
# 4 0.000000 0.000000 0.000000 -0.029671 0.000000 0.000000
# 5 0.000000 0.000000 0.000000 0.000000 0.048807 0.000000
# 6 0.000000 0.000000 0.000000 0.000000 0.000000 0.033437
#
#
# Mechanical properties :
#
#
# Convention : Reuss Voigt Hill
#
# Bulk Modulus (GPa) = 33.53898 56.30020 44.91959
# Shear Modulus (GPa) = 30.92576 15.41942 23.17259
#
# Velocity S-wave (km/s) = 3.89240 2.74847 3.36934
# Velocity P-wave (km/s) = 6.05244 6.13629 6.09451
#
# Compressibility (1/GPa) = 0.02981605
#
# Stress axis : x y z
#
# Youngs Moduli (GPa) = 136.77511 29.41556 43.13323
#
# Poissons Ratio (x) = 0.12416 0.19674
# Poissons Ratio (y) = 0.57730 0.36902
# Poissons Ratio (z) = 0.62385 0.25166
#
# Static dielectric constant tensor:
#      x y z
#    x 1.763120 0.000000 0.000000 
#    y 0.000000 1.777670 0.000000 
#    z 0.000000 0.000000 1.746120 
# 
# From -- ./inp_files/14184.got.cif
#   From: 2010.05.17/outbox.cif.g08.bks.cpg/sg52_8_cif.got.tgz:14184.got - 2010.06.03 12:15:38.
