data_PCOD9411228
_publ_section_title
;
Structure prediction by ZEFSAII (Michael W. Deem and Ramdas Pophale) SiO2 
 PCOD9411228
Probable space group: P N N A
;
_chemical_formula_sum "Si O2"
_cell_formula_units_Z 40
_cell_length_a 13.643997
_cell_length_b 14.013991
_cell_length_c 11.109869
_cell_angle_alpha 90.000000
_cell_angle_beta 90.000000
_cell_angle_gamma 90.000000
_cell_volume 2124.283068
_symmetry_space_group_name_H-M "P N N A"
_symmetry_group_IT_number 52
_symmetry_cell_setting 'orthorhombic'
loop_
_space_group_symop_operation_xyz
x,y,z
1/2-x,-y,z
x,1/2-y,1/2-z
1/2-x,1/2+y,1/2-z
-x,-y,-z
1/2+x,y,-z
-x,1/2+y,1/2+z
1/2+x,1/2-y,1/2+z
loop_
_atom_site_type_symbol
_atom_site_label
_atom_site_fract_x
_atom_site_fract_y
_atom_site_fract_z
Si Si1 0.749309 0.893024 0.445297
Si Si2 0.750000 0.500000 0.678076
Si Si3 0.644800 0.162024 0.668932
Si Si4 0.927781 0.274375 0.120453
Si Si5 0.250000 0.000000 0.785198
Si Si6 0.904776 0.066547 0.018786
O O1 0.816253 0.832573 0.532954
O O2 0.643018 0.846650 0.446916
O O3 0.778446 0.914342 0.306956
O O4 0.750000 0.000000 0.496692
O O5 0.685235 0.429318 0.760045
O O6 0.828018 0.444435 0.592066
O O7 0.679137 0.250000 0.750000
O O8 0.528288 0.173049 0.655317
O O9 0.880563 0.250000 0.250000
O O10 0.937378 0.175251 0.047790
O O11 0.341105 0.029835 0.867172
O O12 0.000000 0.000000 0.000000
#
# Coordination Sequence:
#
# PCOD9411228 Si02
#       6
#     8   4   8   8   4   8
#     4  10  21  41  63  88 123 164 208 263 313 369
#     4  11  23  40  64  90 131 163 212 260 316 379
#     4  11  23  41  64  92 124 169 208 260 322 382
#     4  11  21  39  63  90 124 160 212 253 312 383
#     4   9  21  40  64  92 125 165 214 258 322 373
#     4  11  22  40  64  95 127 169 209 263 318 382
#
# _framework density 18.829882000000001
#
# number of rings (size 3 to 8) (size 9 to 14) (size 15 to 20)
#    0.600    0.800    3.000    3.600    0.000    2.400 
#    3.600    0.000    0.000    0.000    0.000    0.000 
#    0.000    0.000    0.000    0.000    0.000    0.000 
#
# Total GULP energy -222778.527037 kJ/mol
# GULP energy per Si atom -5569.463176 kJ/mol
# Density = 1.878702 g / cm^3
# Si number density = 18.829882 Si / 1000 Ang^3
#
#
#
# Elastic Constant Matrix: (Units=GPa)
#
#
# Indices 1 2 3 4 5 6 
#
# 1 63.1678 48.7927 35.1122 0.0000 0.0000 0.0000
# 2 48.7927 118.1613 34.6573 0.0000 0.0000 0.0000
# 3 35.1122 34.6573 100.6588 0.0000 0.0000 0.0000
# 4 0.0000 0.0000 0.0000 16.7406 0.0000 0.0000
# 5 0.0000 0.0000 0.0000 0.0000 -167.0246 0.0000
# 6 0.0000 0.0000 0.0000 0.0000 0.0000 32.8050
#
#
#
# Elastic Compliance Matrix: (Units=1/GPa)
#
#
# Indices 1 2 3 4 5 6 
#
# 1 0.026152 -0.009036 -0.006011 0.000000 0.000000 0.000000
# 2 -0.009036 0.012536 -0.001164 0.000000 0.000000 0.000000
# 3 -0.006011 -0.001164 0.012432 0.000000 0.000000 0.000000
# 4 0.000000 0.000000 0.000000 0.059735 0.000000 0.000000
# 5 0.000000 0.000000 0.000000 0.000000 -0.005987 0.000000
# 6 0.000000 0.000000 0.000000 0.000000 0.000000 0.030483
#
#
# Mechanical properties :
#
#
# Convention : Reuss Voigt Hill
#
# Bulk Modulus (GPa) = 53.48408 57.67915 55.58161
# Shear Modulus (GPa) = 28.73472 -12.60075 8.06698
#
# Velocity S-wave (km/s) = 3.91066 -2.58968 2.07206
# Velocity P-wave (km/s) = 6.98975 4.66437 5.94192
#
# Compressibility (1/GPa) = 0.01869715
#
# Stress axis : x y z
#
# Youngs Moduli (GPa) = 38.23829 79.77252 80.43584
#
# Poissons Ratio (x) = 0.72081 0.48352
# Poissons Ratio (y) = 0.34551 0.09364
# Poissons Ratio (z) = 0.22986 0.09287
#
# Static dielectric constant tensor:
#      x y z
#    x 1.642010 0.000000 0.000000 
#    y 0.000000 1.668210 0.000000 
#    z 0.000000 0.000000 1.675340 
# 
# From -- ./inp_files/18045.got.cif
#   From: 2010.05.17/outbox.cif.g08.bks.cpg/sg52_10_cif.got.tgz:18045.got - 2010.06.03 12:15:38.
