data_PCOD9411319
_publ_section_title
;
Structure prediction by ZEFSAII (Michael W. Deem and Ramdas Pophale) SiO2 
 PCOD9411319
Probable space group: P N N A
;
_chemical_formula_sum "Si O2"
_cell_formula_units_Z 48
_cell_length_a 17.709476
_cell_length_b 14.908825
_cell_length_c 9.150809
_cell_angle_alpha 90.000000
_cell_angle_beta 90.000000
_cell_angle_gamma 90.000000
_cell_volume 2416.065027
_symmetry_space_group_name_H-M "P N N A"
_symmetry_group_IT_number 52
_symmetry_cell_setting 'orthorhombic'
loop_
_space_group_symop_operation_xyz
x,y,z
1/2-x,-y,z
x,1/2-y,1/2-z
1/2-x,1/2+y,1/2-z
-x,-y,-z
1/2+x,y,-z
-x,1/2+y,1/2+z
1/2+x,1/2-y,1/2+z
loop_
_atom_site_type_symbol
_atom_site_label
_atom_site_fract_x
_atom_site_fract_y
_atom_site_fract_z
Si Si1 0.422124 0.851556 0.775252
Si Si2 0.677140 0.352378 0.778797
Si Si3 0.219970 0.750000 0.750000
Si Si4 0.292053 0.593326 0.546586
Si Si5 0.673959 0.648832 0.974721
Si Si6 0.414828 0.965301 0.485246
Si Si7 0.931712 0.250000 0.750000
O O1 0.392675 0.750000 0.750000
O O2 0.379756 0.902548 0.904321
O O3 0.403958 0.904150 0.627630
O O4 0.511083 0.830558 0.796086
O O5 0.654989 0.250000 0.750000
O O6 0.710270 0.389837 0.626856
O O7 0.743597 0.353578 0.899989
O O8 0.606967 0.407393 0.843327
O O9 0.258308 0.675925 0.641073
O O10 0.176076 0.811590 0.635872
O O11 0.250000 0.500000 0.581180
O O12 0.620765 0.712054 0.876620
O O13 0.640252 0.549846 0.980371
O O14 0.500000 0.000000 0.500000
#
# Coordination Sequence:
#
# PCOD9411319 Si02
#       7
#     8   8   4   8   8   8   4
#     4  10  21  42  65  94 139 183 221 284 361 413
#     4  12  25  45  75 100 136 184 240 294 354 426
#     4  12  23  42  66 103 140 170 232 302 346 417
#     4  12  23  42  69 104 135 178 240 294 350 427
#     4  12  23  44  71 100 138 183 234 295 356 418
#     4  12  24  45  68 103 139 184 232 282 359 435
#     4  10  21  42  66  91 142 188 220 294 354 417
#
# _framework density 19.867014999999999
#
# number of rings (size 3 to 8) (size 9 to 14) (size 15 to 20)
#    0.500    0.000    5.000    4.500    0.000    0.000 
#    4.500    0.833    0.000    0.000    0.000    0.000 
#    0.000    0.000    0.000    0.000    0.000    0.000 
#
# Total GULP energy -267897.748711 kJ/mol
# GULP energy per Si atom -5581.203098 kJ/mol
# Density = 1.982180 g / cm^3
# Si number density = 19.867015 Si / 1000 Ang^3
#
#
#
# Elastic Constant Matrix: (Units=GPa)
#
#
# Indices 1 2 3 4 5 6 
#
# 1 84.5448 37.6841 34.2466 0.0000 0.0000 0.0000
# 2 37.6841 122.7102 60.5508 0.0000 0.0000 0.0000
# 3 34.2466 60.5508 99.1227 0.0000 0.0000 0.0000
# 4 0.0000 0.0000 0.0000 41.7690 0.0000 0.0000
# 5 0.0000 0.0000 0.0000 0.0000 35.3895 0.0000
# 6 0.0000 0.0000 0.0000 0.0000 0.0000 -6.6739
#
#
#
# Elastic Compliance Matrix: (Units=1/GPa)
#
#
# Indices 1 2 3 4 5 6 
#
# 1 0.014402 -0.002817 -0.003255 0.000000 0.000000 0.000000
# 2 -0.002817 0.012216 -0.006490 0.000000 0.000000 0.000000
# 3 -0.003255 -0.006490 0.015177 0.000000 0.000000 0.000000
# 4 0.000000 0.000000 0.000000 0.023941 0.000000 0.000000
# 5 0.000000 0.000000 0.000000 0.000000 0.028257 0.000000
# 6 0.000000 0.000000 0.000000 0.000000 0.000000 -0.149838
#
#
# Mechanical properties :
#
#
# Convention : Reuss Voigt Hill
#
# Bulk Modulus (GPa) = 59.97650 63.48230 61.72940
# Shear Modulus (GPa) = -198.70618 25.68998 -86.50810
#
# Velocity S-wave (km/s) = -10.01176 3.59987 -6.60591
# Velocity P-wave (km/s) = 10.16821 7.02152 5.20052
#
# Compressibility (1/GPa) = 0.01667320
#
# Stress axis : x y z
#
# Youngs Moduli (GPa) = 69.43422 81.85682 65.88711
#
# Poissons Ratio (x) = 0.23055 0.21449
# Poissons Ratio (y) = 0.19556 0.42758
# Poissons Ratio (z) = 0.22603 0.53121
#
# Static dielectric constant tensor:
#      x y z
#    x 1.751770 0.000000 0.000000 
#    y 0.000000 1.699790 0.000000 
#    z 0.000000 0.000000 1.648130 
# 
# From -- ./inp_files/12146.got.cif
#   From: 2010.05.17/outbox.cif.g08.bks.cpg/sg52_7_cif.got.tgz:12146.got - 2010.06.03 12:15:38.
