data_PCOD9411631
_publ_section_title
;
Structure prediction by ZEFSAII (Michael W. Deem and Ramdas Pophale) SiO2 
 PCOD9411631
Probable space group: P N N A
;
_chemical_formula_sum "Si O2"
_cell_formula_units_Z 32
_cell_length_a 13.245635
_cell_length_b 4.918748
_cell_length_c 24.117296
_cell_angle_alpha 90.000000
_cell_angle_beta 90.000000
_cell_angle_gamma 90.000000
_cell_volume 1571.288638
_symmetry_space_group_name_H-M "P N N A"
_symmetry_group_IT_number 52
_symmetry_cell_setting 'orthorhombic'
loop_
_space_group_symop_operation_xyz
x,y,z
1/2-x,-y,z
x,1/2-y,1/2-z
1/2-x,1/2+y,1/2-z
-x,-y,-z
1/2+x,y,-z
-x,1/2+y,1/2+z
1/2+x,1/2-y,1/2+z
loop_
_atom_site_type_symbol
_atom_site_label
_atom_site_fract_x
_atom_site_fract_y
_atom_site_fract_z
Si Si1 0.681254 0.263967 0.422309
Si Si2 0.128688 0.994733 0.288635
Si Si3 0.651266 0.184103 0.551218
Si Si4 0.950215 0.229492 0.900838
O O1 0.750000 0.500000 0.399715
O O2 0.669102 0.287382 0.489164
O O3 0.569813 0.303127 0.397834
O O4 0.750000 0.000000 0.412693
O O5 0.098892 0.750000 0.250000
O O6 0.085324 0.909286 0.348102
O O7 0.250000 0.000000 0.295105
O O8 0.100141 0.250000 0.250000
O O9 0.612805 0.447771 0.587379
O O10 0.750000 0.000000 0.568745
O O11 0.569342 0.944324 0.550101
#
# Coordination Sequence:
#
# PCOD9411631 Si02
#       4
#     8   8   8   8
#     4  11  23  39  57  86 126 165 209 258 299 356
#     4  10  22  39  59  87 119 147 187 248 311 366
#     4  11  22  36  57  91 127 159 201 252 306 374
#     4  12  22  38  63  86 118 167 209 248 311 376
#
# _framework density 20.365449000000002
#
# number of rings (size 3 to 8) (size 9 to 14) (size 15 to 20)
#    0.000    1.000    0.000    9.000    0.000    4.000 
#    0.000    0.000    0.000    3.000    0.000    0.000 
#    0.000    0.000    0.000    0.000    0.000    0.000 
#
# Total GULP energy -178193.874560 kJ/mol
# GULP energy per Si atom -5568.558580 kJ/mol
# Density = 2.031910 g / cm^3
# Si number density = 20.365449 Si / 1000 Ang^3
#
#
#
# Elastic Constant Matrix: (Units=GPa)
#
#
# Indices 1 2 3 4 5 6 
#
# 1 126.8407 65.7140 41.7126 0.0000 0.0000 0.0000
# 2 65.7140 187.1673 45.1709 0.0000 0.0000 0.0000
# 3 41.7126 45.1709 69.4908 0.0000 0.0000 0.0000
# 4 0.0000 0.0000 0.0000 24.8776 0.0000 0.0000
# 5 0.0000 0.0000 0.0000 0.0000 10.8756 0.0000
# 6 0.0000 0.0000 0.0000 0.0000 0.0000 30.0712
#
#
#
# Elastic Compliance Matrix: (Units=1/GPa)
#
#
# Indices 1 2 3 4 5 6 
#
# 1 0.010827 -0.002648 -0.004778 0.000000 0.000000 0.000000
# 2 -0.002648 0.006985 -0.002951 0.000000 0.000000 0.000000
# 3 -0.004778 -0.002951 0.019176 0.000000 0.000000 0.000000
# 4 0.000000 0.000000 0.000000 0.040197 0.000000 0.000000
# 5 0.000000 0.000000 0.000000 0.000000 0.091949 0.000000
# 6 0.000000 0.000000 0.000000 0.000000 0.000000 0.033254
#
#
# Mechanical properties :
#
#
# Convention : Reuss Voigt Hill
#
# Bulk Modulus (GPa) = 61.59538 76.52152 69.05845
# Shear Modulus (GPa) = 21.87675 28.55831 25.21753
#
# Velocity S-wave (km/s) = 3.28107 3.74878 3.52270
# Velocity P-wave (km/s) = 6.68316 7.50957 7.10838
#
# Compressibility (1/GPa) = 0.01623498
#
# Stress axis : x y z
#
# Youngs Moduli (GPa) = 92.36062 143.16943 52.14812
#
# Poissons Ratio (x) = 0.37916 0.24914
# Poissons Ratio (y) = 0.24460 0.15387
# Poissons Ratio (z) = 0.44126 0.42243
#
# Static dielectric constant tensor:
#      x y z
#    x 1.724110 0.000000 0.000000 
#    y 0.000000 1.743740 0.000000 
#    z 0.000000 0.000000 1.673170 
# 
# From -- ./inp_files/39827.got.cif
#   From: 2010.05.17/outbox.cif.g08.bks.cpg/sg52_20_cif.got.tgz:39827.got - 2010.06.03 12:15:38.
