data_PCOD9411457
_publ_section_title
;
Structure prediction by ZEFSAII (Michael W. Deem and Ramdas Pophale) SiO2 
 PCOD9411457
Probable space group: P N N A
;
_chemical_formula_sum "Si O2"
_cell_formula_units_Z 56
_cell_length_a 10.019343
_cell_length_b 16.760040
_cell_length_c 14.476245
_cell_angle_alpha 90.000000
_cell_angle_beta 90.000000
_cell_angle_gamma 90.000000
_cell_volume 2430.917498
_symmetry_space_group_name_H-M "P N N A"
_symmetry_group_IT_number 52
_symmetry_cell_setting 'orthorhombic'
loop_
_space_group_symop_operation_xyz
x,y,z
1/2-x,-y,z
x,1/2-y,1/2-z
1/2-x,1/2+y,1/2-z
-x,-y,-z
1/2+x,y,-z
-x,1/2+y,1/2+z
1/2+x,1/2-y,1/2+z
loop_
_atom_site_type_symbol
_atom_site_label
_atom_site_fract_x
_atom_site_fract_y
_atom_site_fract_z
Si Si1 0.960630 0.038164 0.320151
Si Si2 0.108466 0.825560 0.816273
Si Si3 0.750000 0.500000 0.799718
Si Si4 0.677407 0.833916 0.795667
Si Si5 0.374203 0.626709 0.744609
Si Si6 0.000000 0.000000 0.500000
Si Si7 0.137676 0.332968 0.943501
Si Si8 0.877814 0.267282 0.516633
O O1 0.908214 0.053887 0.421924
O O2 0.965009 0.106904 0.244690
O O3 0.109422 0.005651 0.354383
O O4 0.892473 0.965986 0.266788
O O5 0.095012 0.750000 0.750000
O O6 0.261944 0.854566 0.828712
O O7 0.070281 0.805129 0.920623
O O8 0.738520 0.583164 0.743388
O O9 0.727813 0.750000 0.750000
O O10 0.520531 0.840673 0.772225
O O11 0.679256 0.827485 0.906163
O O12 0.316360 0.664308 0.837716
O O13 0.084637 0.080514 0.528378
O O14 0.256395 0.294337 0.001122
O O15 0.006031 0.277997 0.944179
#
# Coordination Sequence:
#
# PCOD9411457 Si02
#       8
#     8   8   4   8   8   4   8   8
#     4  10  24  43  65  98 133 181 227 291 360 418
#     4  12  23  42  67 101 140 173 234 298 344 431
#     4  10  26  46  64 100 138 176 226 298 358 414
#     4  11  23  45  72  95 137 189 235 290 359 442
#     4  10  21  47  69  88 136 188 239 277 360 434
#     4  10  24  40  68 100 142 180 240 300 362 440
#     4  11  24  43  66 106 136 188 239 297 364 440
#     4  12  26  41  71 104 137 185 240 287 365 440
#
# _framework density 23.036569
#
# number of rings (size 3 to 8) (size 9 to 14) (size 15 to 20)
#    0.000    1.143    2.857    2.571    4.000    1.143 
#    5.143    1.429    0.000    0.000    0.000    0.000 
#    0.000    0.000    0.000    0.000    0.000    0.000 
#
# Total GULP energy -311950.002228 kJ/mol
# GULP energy per Si atom -5570.535754 kJ/mol
# Density = 2.298414 g / cm^3
# Si number density = 23.036569 Si / 1000 Ang^3
#
#
#
# Elastic Constant Matrix: (Units=GPa)
#
#
# Indices 1 2 3 4 5 6 
#
# 1 73.4169 10.8620 -31.2884 0.0000 0.0000 0.0000
# 2 10.8620 85.3289 12.1917 0.0000 0.0000 0.0000
# 3 -31.2884 12.1917 74.8605 0.0000 0.0000 0.0000
# 4 0.0000 0.0000 0.0000 30.6167 0.0000 0.0000
# 5 0.0000 0.0000 0.0000 0.0000 -30.9025 0.0000
# 6 0.0000 0.0000 0.0000 0.0000 0.0000 34.4712
#
#
#
# Elastic Compliance Matrix: (Units=1/GPa)
#
#
# Indices 1 2 3 4 5 6 
#
# 1 0.017457 -0.003342 0.007840 0.000000 0.000000 0.000000
# 2 -0.003342 0.012639 -0.003455 0.000000 0.000000 0.000000
# 3 0.007840 -0.003455 0.017198 0.000000 0.000000 0.000000
# 4 0.000000 0.000000 0.000000 0.032662 0.000000 0.000000
# 5 0.000000 0.000000 0.000000 0.000000 -0.032360 0.000000
# 6 0.000000 0.000000 0.000000 0.000000 0.000000 0.029010
#
#
# Mechanical properties :
#
#
# Convention : Reuss Voigt Hill
#
# Bulk Modulus (GPa) = 20.25162 24.12634 22.18898
# Shear Modulus (GPa) = 54.95775 22.95981 38.95878
#
# Velocity S-wave (km/s) = 4.88964 3.16043 4.11685
# Velocity P-wave (km/s) = 6.37873 4.87991 5.67899
#
# Compressibility (1/GPa) = 0.04937877
#
# Stress axis : x y z
#
# Youngs Moduli (GPa) = 57.28439 79.12316 58.14666
#
# Poissons Ratio (x) = 0.26446 -0.45590
# Poissons Ratio (y) = 0.19147 0.20091
# Poissons Ratio (z) = -0.44914 0.27339
#
# Static dielectric constant tensor:
#      x y z
#    x 1.822680 0.000000 0.000000 
#    y 0.000000 1.877540 0.000000 
#    z 0.000000 0.000000 1.554110 
# 
# From -- ./inp_files/26211.got.cif
#   From: 2010.05.17/outbox.cif.g08.bks.cpg/sg52_14_cif.got.tgz:26211.got - 2010.06.03 12:15:38.
