data_PCOD9411312
_publ_section_title
;
Structure prediction by ZEFSAII (Michael W. Deem and Ramdas Pophale) SiO2 
 PCOD9411312
Probable space group: P N N A
;
_chemical_formula_sum "Si O2"
_cell_formula_units_Z 36
_cell_length_a 24.779174
_cell_length_b 5.450117
_cell_length_c 12.799141
_cell_angle_alpha 90.000000
_cell_angle_beta 90.000000
_cell_angle_gamma 90.000000
_cell_volume 1728.516280
_symmetry_space_group_name_H-M "P N N A"
_symmetry_group_IT_number 52
_symmetry_cell_setting 'orthorhombic'
loop_
_space_group_symop_operation_xyz
x,y,z
1/2-x,-y,z
x,1/2-y,1/2-z
1/2-x,1/2+y,1/2-z
-x,-y,-z
1/2+x,y,-z
-x,1/2+y,1/2+z
1/2+x,1/2-y,1/2+z
loop_
_atom_site_type_symbol
_atom_site_label
_atom_site_fract_x
_atom_site_fract_y
_atom_site_fract_z
Si Si1 0.715318 0.750298 0.037933
Si Si2 0.076795 0.250000 0.750000
Si Si3 0.983880 0.370222 0.894404
Si Si4 0.077206 0.250000 0.250000
Si Si5 0.146259 0.750000 0.750000
Si Si6 0.873061 0.366287 0.633859
O O1 0.750000 0.500000 0.026992
O O2 0.682734 0.741268 0.146451
O O3 0.750000 0.000000 0.039389
O O4 0.673512 0.783998 0.942576
O O5 0.111244 0.499631 0.750936
O O6 0.036677 0.241501 0.849017
O O7 0.962018 0.554334 0.804310
O O8 0.931266 0.206673 0.912434
O O9 0.000000 0.500000 0.000000
O O10 0.117163 0.349238 0.339799
O O11 0.866164 0.250000 0.750000
#
# Coordination Sequence:
#
# PCOD9411312 Si02
#       6
#     8   4   8   4   4   8
#     4  12  28  49  76 102 137 190 244 308 371 412
#     4  12  24  43  70 109 141 199 226 280 366 432
#     4  11  23  39  65 101 147 187 233 275 351 428
#     4  10  21  42  64  95 149 182 224 293 342 408
#     4  12  27  47  72 106 146 179 254 297 354 438
#     4  10  24  43  68  99 144 180 235 301 345 432
#
# _framework density 20.827110999999999
#
# number of rings (size 3 to 8) (size 9 to 14) (size 15 to 20)
#    0.000    0.889    3.333    4.000    9.333    1.778 
#    0.000    0.000    0.000    0.000    0.000    0.000 
#    0.000    0.000    0.000    0.000    0.000    0.000 
#
# Total GULP energy -201119.914179 kJ/mol
# GULP energy per Si atom -5586.664283 kJ/mol
# Density = 2.077971 g / cm^3
# Si number density = 20.827111 Si / 1000 Ang^3
#
#
#
# Elastic Constant Matrix: (Units=GPa)
#
#
# Indices 1 2 3 4 5 6 
#
# 1 157.8544 91.9741 92.7332 0.0000 0.0000 0.0000
# 2 91.9741 144.1751 43.4712 0.0000 0.0000 0.0000
# 3 92.7332 43.4712 147.7952 0.0000 0.0000 0.0000
# 4 0.0000 0.0000 0.0000 31.4688 0.0000 0.0000
# 5 0.0000 0.0000 0.0000 0.0000 -44.7355 0.0000
# 6 0.0000 0.0000 0.0000 0.0000 0.0000 40.9938
#
#
#
# Elastic Compliance Matrix: (Units=1/GPa)
#
#
# Indices 1 2 3 4 5 6 
#
# 1 0.014747 -0.007262 -0.007117 0.000000 0.000000 0.000000
# 2 -0.007262 0.011187 0.001266 0.000000 0.000000 0.000000
# 3 -0.007117 0.001266 0.010859 0.000000 0.000000 0.000000
# 4 0.000000 0.000000 0.000000 0.031778 0.000000 0.000000
# 5 0.000000 0.000000 0.000000 0.000000 -0.022354 0.000000
# 6 0.000000 0.000000 0.000000 0.000000 0.000000 0.024394
#
#
# Mechanical properties :
#
#
# Convention : Reuss Voigt Hill
#
# Bulk Modulus (GPa) = 94.62980 100.68686 97.65833
# Shear Modulus (GPa) = 49.82127 20.32183 35.07155
#
# Velocity S-wave (km/s) = 4.89625 3.12707 4.10803
# Velocity P-wave (km/s) = 8.80335 7.84138 8.33625
#
# Compressibility (1/GPa) = 0.01056750
#
# Stress axis : x y z
#
# Youngs Moduli (GPa) = 67.81081 89.39126 92.08716
#
# Poissons Ratio (x) = 0.64913 0.65538
# Poissons Ratio (y) = 0.49242 -0.11657
# Poissons Ratio (z) = 0.48261 -0.11316
#
# Static dielectric constant tensor:
#      x y z
#    x 1.733790 0.000000 0.000000 
#    y 0.000000 1.751770 0.000000 
#    z 0.000000 0.000000 1.724740 
# 
# From -- ./inp_files/22089.got.cif
#   From: 2010.05.17/outbox.cif.g08.bks.cpg/sg52_12_cif.got.tgz:22089.got - 2010.06.03 12:15:38.
