data_PCOD9411780
_publ_section_title
;
Structure prediction by ZEFSAII (Michael W. Deem and Ramdas Pophale) SiO2 
 PCOD9411780
Probable space group: P N N A
;
_chemical_formula_sum "Si O2"
_cell_formula_units_Z 24
_cell_length_a 8.307232
_cell_length_b 7.855928
_cell_length_c 13.398872
_cell_angle_alpha 90.000000
_cell_angle_beta 90.000000
_cell_angle_gamma 90.000000
_cell_volume 874.424006
_symmetry_space_group_name_H-M "P N N A"
_symmetry_group_IT_number 52
_symmetry_cell_setting 'orthorhombic'
loop_
_space_group_symop_operation_xyz
x,y,z
1/2-x,-y,z
x,1/2-y,1/2-z
1/2-x,1/2+y,1/2-z
-x,-y,-z
1/2+x,y,-z
-x,1/2+y,1/2+z
1/2+x,1/2-y,1/2+z
loop_
_atom_site_type_symbol
_atom_site_label
_atom_site_fract_x
_atom_site_fract_y
_atom_site_fract_z
Si Si1 0.522952 0.128866 0.131922
Si Si2 0.647147 0.768288 0.047881
Si Si3 0.421516 0.925427 0.315477
O O1 0.676112 0.237443 0.094955
O O2 0.569255 0.942119 0.089512
O O3 0.495075 0.075520 0.245912
O O4 0.369872 0.199244 0.070429
O O5 0.537703 0.620864 0.093548
O O6 0.406254 0.750000 0.250000
O O7 0.250000 0.000000 0.344898
#
# Coordination Sequence:
#
# PCOD9411780 Si02
#       3
#     8   8   8
#     4   9  19  36  69  97 139 187 237 295 360 429
#     4   9  19  37  67 101 137 186 242 292 360 431
#     4  10  22  40  68 109 146 187 247 301 365 440
#
# _framework density 27.446641
#
# number of rings (size 3 to 8) (size 9 to 14) (size 15 to 20)
#    0.000    2.667    0.000    0.000   14.000    0.000 
#    0.000   13.333    0.000    0.000    0.000    2.333 
#    0.000    0.000    0.000    0.000    0.000    0.000 
#
# Total GULP energy -134395.850131 kJ/mol
# GULP energy per Si atom -5599.827089 kJ/mol
# Density = 2.738417 g / cm^3
# Si number density = 27.446641 Si / 1000 Ang^3
#
#
#
# Elastic Constant Matrix: (Units=GPa)
#
#
# Indices 1 2 3 4 5 6 
#
# 1 118.8074 71.4765 52.6905 0.0000 0.0000 0.0000
# 2 71.4765 163.9679 48.3924 0.0000 0.0000 0.0000
# 3 52.6905 48.3924 110.5396 0.0000 0.0000 0.0000
# 4 0.0000 0.0000 0.0000 46.0117 0.0000 0.0000
# 5 0.0000 0.0000 0.0000 0.0000 41.3630 0.0000
# 6 0.0000 0.0000 0.0000 0.0000 0.0000 57.6637
#
#
#
# Elastic Compliance Matrix: (Units=1/GPa)
#
#
# Indices 1 2 3 4 5 6 
#
# 1 0.012940 -0.004387 -0.004247 0.000000 0.000000 0.000000
# 2 -0.004387 0.008491 -0.001626 0.000000 0.000000 0.000000
# 3 -0.004247 -0.001626 0.011783 0.000000 0.000000 0.000000
# 4 0.000000 0.000000 0.000000 0.021734 0.000000 0.000000
# 5 0.000000 0.000000 0.000000 0.000000 0.024176 0.000000
# 6 0.000000 0.000000 0.000000 0.000000 0.000000 0.017342
#
#
# Mechanical properties :
#
#
# Convention : Reuss Voigt Hill
#
# Bulk Modulus (GPa) = 78.78487 82.04820 80.41654
# Shear Modulus (GPa) = 41.24783 43.72472 42.48627
#
# Velocity S-wave (km/s) = 3.88085 3.99567 3.93868
# Velocity P-wave (km/s) = 6.98916 7.15862 7.07440
#
# Compressibility (1/GPa) = 0.01269279
#
# Stress axis : x y z
#
# Youngs Moduli (GPa) = 77.27868 117.76986 84.86803
#
# Poissons Ratio (x) = 0.51669 0.36047
# Poissons Ratio (y) = 0.33904 0.13800
# Poissons Ratio (z) = 0.32824 0.19149
#
# Static dielectric constant tensor:
#      x y z
#    x 2.092460 0.000000 0.000000 
#    y 0.000000 2.156030 0.000000 
#    z 0.000000 0.000000 2.217170 
# 
# From -- ./inp_files/23922.got.cif
#   From: 2010.05.17/outbox.cif.g08.bks.cpg/sg52_12_cif.got.tgz:23922.got - 2010.06.03 12:15:38.
