data_PCOD9411505
_publ_section_title
;
Structure prediction by ZEFSAII (Michael W. Deem and Ramdas Pophale) SiO2 
 PCOD9411505
Probable space group: P N N A
;
_chemical_formula_sum "Si O2"
_cell_formula_units_Z 40
_cell_length_a 10.605734
_cell_length_b 14.136138
_cell_length_c 12.766793
_cell_angle_alpha 90.000000
_cell_angle_beta 90.000000
_cell_angle_gamma 90.000000
_cell_volume 1914.050198
_symmetry_space_group_name_H-M "P N N A"
_symmetry_group_IT_number 52
_symmetry_cell_setting 'orthorhombic'
loop_
_space_group_symop_operation_xyz
x,y,z
1/2-x,-y,z
x,1/2-y,1/2-z
1/2-x,1/2+y,1/2-z
-x,-y,-z
1/2+x,y,-z
-x,1/2+y,1/2+z
1/2+x,1/2-y,1/2+z
loop_
_atom_site_type_symbol
_atom_site_label
_atom_site_fract_x
_atom_site_fract_y
_atom_site_fract_z
Si Si1 0.360025 0.576566 0.690678
Si Si2 0.109649 0.209103 0.994252
Si Si3 0.790252 0.838293 0.669345
Si Si4 0.519213 0.672572 0.841725
Si Si5 0.108751 0.458701 0.341157
O O1 0.250000 0.500000 0.690825
O O2 0.327571 0.659914 0.607946
O O3 0.396938 0.613613 0.806662
O O4 0.494114 0.532239 0.652337
O O5 0.180193 0.290097 0.059344
O O6 0.084198 0.124113 0.074514
O O7 0.992518 0.266425 0.946248
O O8 0.786212 0.750000 0.750000
O O9 0.650627 0.882027 0.662632
O O10 0.884442 0.910039 0.726280
O O11 0.526405 0.750000 0.750000
O O12 0.250000 0.500000 0.362348
#
# Coordination Sequence:
#
# PCOD9411505 Si02
#       5
#     8   8   8   8   8
#     4  11  23  39  59  92 128 154 196 262 312 344
#     4  10  22  36  63  92 115 158 205 254 295 365
#     4   9  19  38  60  86 120 162 203 241 299 372
#     4   9  19  39  59  84 123 162 197 246 306 365
#     4  11  21  39  63  91 121 160 206 249 298 363
#
# _framework density 20.898094
#
# number of rings (size 3 to 8) (size 9 to 14) (size 15 to 20)
#    0.000    2.000    2.000    1.200    5.600    0.000 
#    3.600    5.000    0.000    0.000    0.000    0.000 
#    0.000    0.000    0.000    0.000    0.000    0.000 
#
# Total GULP energy -222755.007572 kJ/mol
# GULP energy per Si atom -5568.875189 kJ/mol
# Density = 2.085053 g / cm^3
# Si number density = 20.898094 Si / 1000 Ang^3
#
#
#
# Elastic Constant Matrix: (Units=GPa)
#
#
# Indices 1 2 3 4 5 6 
#
# 1 71.4374 16.6926 37.9223 0.0000 0.0000 0.0000
# 2 16.6926 64.3826 41.9181 0.0000 0.0000 0.0000
# 3 37.9223 41.9181 82.6176 0.0000 0.0000 0.0000
# 4 0.0000 0.0000 0.0000 44.1484 0.0000 0.0000
# 5 0.0000 0.0000 0.0000 0.0000 4.3689 0.0000
# 6 0.0000 0.0000 0.0000 0.0000 0.0000 24.8286
#
#
#
# Elastic Compliance Matrix: (Units=1/GPa)
#
#
# Indices 1 2 3 4 5 6 
#
# 1 0.018560 0.001097 -0.009076 0.000000 0.000000 0.000000
# 2 0.001097 0.023259 -0.012305 0.000000 0.000000 0.000000
# 3 -0.009076 -0.012305 0.022513 0.000000 0.000000 0.000000
# 4 0.000000 0.000000 0.000000 0.022651 0.000000 0.000000
# 5 0.000000 0.000000 0.000000 0.000000 0.228889 0.000000
# 6 0.000000 0.000000 0.000000 0.000000 0.000000 0.040276
#
#
# Mechanical properties :
#
#
# Convention : Reuss Voigt Hill
#
# Bulk Modulus (GPa) = 42.07870 45.72263 43.90066
# Shear Modulus (GPa) = 12.35679 22.79615 17.57647
#
# Velocity S-wave (km/s) = 2.43428 3.30635 2.90324
# Velocity P-wave (km/s) = 5.29904 6.04171 5.68252
#
# Compressibility (1/GPa) = 0.02376499
#
# Stress axis : x y z
#
# Youngs Moduli (GPa) = 53.88001 42.99420 44.41919
#
# Poissons Ratio (x) = -0.04716 0.40313
# Poissons Ratio (y) = -0.05910 0.54656
# Poissons Ratio (z) = 0.48900 0.52902
#
# Static dielectric constant tensor:
#      x y z
#    x 1.785670 0.000000 0.000000 
#    y 0.000000 1.760450 0.000000 
#    z 0.000000 0.000000 1.787480 
# 
# From -- ./inp_files/18002.got.cif
#   From: 2010.05.17/outbox.cif.g08.bks.cpg/sg52_10_cif.got.tgz:18002.got - 2010.06.03 12:15:38.
