data_PCOD9411761
_publ_section_title
;
Structure prediction by ZEFSAII (Michael W. Deem and Ramdas Pophale) SiO2 
 PCOD9411761
Probable space group: P N N A
;
_chemical_formula_sum "Si O2"
_cell_formula_units_Z 48
_cell_length_a 18.988956
_cell_length_b 9.331720
_cell_length_c 14.004936
_cell_angle_alpha 90.000000
_cell_angle_beta 90.000000
_cell_angle_gamma 90.000000
_cell_volume 2481.669344
_symmetry_space_group_name_H-M "P N N A"
_symmetry_group_IT_number 52
_symmetry_cell_setting 'orthorhombic'
loop_
_space_group_symop_operation_xyz
x,y,z
1/2-x,-y,z
x,1/2-y,1/2-z
1/2-x,1/2+y,1/2-z
-x,-y,-z
1/2+x,y,-z
-x,1/2+y,1/2+z
1/2+x,1/2-y,1/2+z
loop_
_atom_site_type_symbol
_atom_site_label
_atom_site_fract_x
_atom_site_fract_y
_atom_site_fract_z
Si Si1 0.920155 0.786654 0.566986
Si Si2 0.750000 0.000000 0.858351
Si Si3 0.670578 0.457168 0.089044
Si Si4 0.750000 0.000000 0.137922
Si Si5 0.870683 0.009516 0.006694
Si Si6 0.226598 0.250000 0.750000
Si Si7 0.326895 0.750000 0.250000
Si Si8 0.574476 0.773911 0.364900
O O1 0.878241 0.878056 0.488271
O O2 0.917949 0.618300 0.534635
O O3 0.875892 0.801615 0.663930
O O4 0.999817 0.826743 0.591501
O O5 0.779647 0.874177 0.794012
O O6 0.684545 0.943197 0.923596
O O7 0.750000 0.500000 0.055827
O O8 0.681894 0.350555 0.179245
O O9 0.631799 0.602713 0.118391
O O10 0.685640 0.061196 0.078678
O O11 0.725167 0.864425 0.196593
O O12 0.905998 0.135303 0.068479
O O13 0.566100 0.750000 0.250000
#
# Coordination Sequence:
#
# PCOD9411761 Si02
#       8
#     8   4   8   4   8   4   4   8
#     4  11  24  47  66  93 136 176 220 271 328 396
#     4   9  22  38  67  96 128 166 215 282 319 380
#     4  12  27  41  70 100 134 172 221 283 332 396
#     4  11  20  36  61  96 134 160 215 266 331 388
#     4  10  22  40  66  93 130 171 217 267 333 387
#     4  12  22  38  59 103 138 168 210 280 336 394
#     4  10  22  42  65  95 130 166 224 266 320 386
#     4  12  26  44  67  97 133 180 217 268 337 407
#
# _framework density 19.341819000000001
#
# number of rings (size 3 to 8) (size 9 to 14) (size 15 to 20)
#    0.000    1.000    3.333    3.000    8.167    0.000 
#    0.000    0.000    0.000    0.000    0.000    0.000 
#    0.000    0.000    0.000    0.000    0.000    0.000 
#
# Total GULP energy -267709.945978 kJ/mol
# GULP energy per Si atom -5577.290541 kJ/mol
# Density = 1.929780 g / cm^3
# Si number density = 19.341819 Si / 1000 Ang^3
#
#
#
# Elastic Constant Matrix: (Units=GPa)
#
#
# Indices 1 2 3 4 5 6 
#
# 1 131.2477 43.1835 47.6912 0.0000 0.0000 0.0000
# 2 43.1835 84.1973 45.3888 0.0000 0.0000 0.0000
# 3 47.6912 45.3888 113.9444 0.0000 0.0000 0.0000
# 4 0.0000 0.0000 0.0000 21.4619 0.0000 0.0000
# 5 0.0000 0.0000 0.0000 0.0000 16.9950 0.0000
# 6 0.0000 0.0000 0.0000 0.0000 0.0000 23.3185
#
#
#
# Elastic Compliance Matrix: (Units=1/GPa)
#
#
# Indices 1 2 3 4 5 6 
#
# 1 0.009762 -0.003571 -0.002663 0.000000 0.000000 0.000000
# 2 -0.003571 0.016431 -0.005051 0.000000 0.000000 0.000000
# 3 -0.002663 -0.005051 0.011903 0.000000 0.000000 0.000000
# 4 0.000000 0.000000 0.000000 0.046594 0.000000 0.000000
# 5 0.000000 0.000000 0.000000 0.000000 0.058841 0.000000
# 6 0.000000 0.000000 0.000000 0.000000 0.000000 0.042884
#
#
# Mechanical properties :
#
#
# Convention : Reuss Voigt Hill
#
# Bulk Modulus (GPa) = 64.40822 66.87958 65.64390
# Shear Modulus (GPa) = 23.34704 25.23016 24.28860
#
# Velocity S-wave (km/s) = 3.47807 3.61562 3.54751
# Velocity P-wave (km/s) = 7.03573 7.21686 7.12687
#
# Compressibility (1/GPa) = 0.01552597
#
# Stress axis : x y z
#
# Youngs Moduli (GPa) = 102.43920 60.86062 84.01396
#
# Poissons Ratio (x) = 0.21733 0.22376
# Poissons Ratio (y) = 0.36581 0.42431
# Poissons Ratio (z) = 0.27283 0.30738
#
# Static dielectric constant tensor:
#      x y z
#    x 1.678760 0.000000 0.000000 
#    y 0.000000 1.666350 0.000000 
#    z 0.000000 0.000000 1.725970 
# 
# From -- ./inp_files/28151.got.cif
#   From: 2010.05.17/outbox.cif.g08.bks.cpg/sg52_15_cif.got.tgz:28151.got - 2010.06.03 12:15:38.
