data_PCOD9411653
_publ_section_title
;
Structure prediction by ZEFSAII (Michael W. Deem and Ramdas Pophale) SiO2 
 PCOD9411653
Probable space group: P N N A
;
_chemical_formula_sum "Si O2"
_cell_formula_units_Z 56
_cell_length_a 12.496271
_cell_length_b 14.579665
_cell_length_c 14.261669
_cell_angle_alpha 90.000000
_cell_angle_beta 90.000000
_cell_angle_gamma 90.000000
_cell_volume 2598.354082
_symmetry_space_group_name_H-M "P N N A"
_symmetry_group_IT_number 52
_symmetry_cell_setting 'orthorhombic'
loop_
_space_group_symop_operation_xyz
x,y,z
1/2-x,-y,z
x,1/2-y,1/2-z
1/2-x,1/2+y,1/2-z
-x,-y,-z
1/2+x,y,-z
-x,1/2+y,1/2+z
1/2+x,1/2-y,1/2+z
loop_
_atom_site_type_symbol
_atom_site_label
_atom_site_fract_x
_atom_site_fract_y
_atom_site_fract_z
Si Si1 0.421827 0.071858 0.382152
Si Si2 0.363030 0.271221 0.360411
Si Si3 0.983392 0.300233 0.158969
Si Si4 0.472969 0.566437 0.587487
Si Si5 0.412621 0.544044 0.277197
Si Si6 0.637003 0.532556 0.084470
Si Si7 0.852617 0.666277 0.558914
O O1 0.424854 0.179910 0.390020
O O2 0.366055 0.028570 0.472062
O O3 0.367388 0.036872 0.286843
O O4 0.541577 0.032473 0.381438
O O5 0.338900 0.250000 0.250000
O O6 0.436071 0.359447 0.383940
O O7 0.255557 0.279260 0.421693
O O8 0.936555 0.250000 0.250000
O O9 0.896676 0.364221 0.110296
O O10 0.067312 0.371583 0.206580
O O11 0.046855 0.229556 0.092365
O O12 0.500000 0.500000 0.500000
O O13 0.477651 0.496451 0.675395
O O14 0.374761 0.625168 0.544254
O O15 0.348024 0.583357 0.364902
O O16 0.750000 0.500000 0.121474
#
# Coordination Sequence:
#
# PCOD9411653 Si02
#       7
#     8   8   8   8   8   8   8
#     4  10  22  39  62  91 131 163 210 283 332 391
#     4  12  23  39  66 102 131 173 229 278 339 407
#     4   9  18  38  64  88 125 170 219 281 331 396
#     4  10  22  40  62  91 138 179 213 279 339 401
#     4   9  18  38  61  87 125 170 215 268 339 388
#     4  10  22  39  63  92 123 168 219 265 342 412
#     4  10  22  39  63  95 130 174 223 277 344 412
#
# _framework density 21.552105000000001
#
# number of rings (size 3 to 8) (size 9 to 14) (size 15 to 20)
#    0.000    2.000    1.429    2.143    0.000    8.000 
#    2.571    0.714   37.714    0.000    0.000    0.000 
#    0.000    0.000    0.000    0.000    0.000    0.000 
#
# Total GULP energy -312164.343745 kJ/mol
# GULP energy per Si atom -5574.363281 kJ/mol
# Density = 2.150305 g / cm^3
# Si number density = 21.552105 Si / 1000 Ang^3
#
#
#
# Elastic Constant Matrix: (Units=GPa)
#
#
# Indices 1 2 3 4 5 6 
#
# 1 69.2534 35.5691 2.1692 0.0000 0.0000 0.0000
# 2 35.5691 113.2445 23.4250 0.0000 0.0000 0.0000
# 3 2.1692 23.4250 72.3106 0.0000 0.0000 0.0000
# 4 0.0000 0.0000 0.0000 38.8025 0.0000 0.0000
# 5 0.0000 0.0000 0.0000 0.0000 11.9438 0.0000
# 6 0.0000 0.0000 0.0000 0.0000 0.0000 9.0789
#
#
#
# Elastic Compliance Matrix: (Units=1/GPa)
#
#
# Indices 1 2 3 4 5 6 
#
# 1 0.017336 -0.005721 0.001333 0.000000 0.000000 0.000000
# 2 -0.005721 0.011353 -0.003506 0.000000 0.000000 0.000000
# 3 0.001333 -0.003506 0.014925 0.000000 0.000000 0.000000
# 4 0.000000 0.000000 0.000000 0.025772 0.000000 0.000000
# 5 0.000000 0.000000 0.000000 0.000000 0.083725 0.000000
# 6 0.000000 0.000000 0.000000 0.000000 0.000000 0.110145
#
#
# Mechanical properties :
#
#
# Convention : Reuss Voigt Hill
#
# Bulk Modulus (GPa) = 35.93715 41.90390 38.92053
# Shear Modulus (GPa) = 17.34191 24.87474 21.10833
#
# Velocity S-wave (km/s) = 2.83971 3.40099 3.13295
# Velocity P-wave (km/s) = 5.24049 5.90826 5.58437
#
# Compressibility (1/GPa) = 0.02782636
#
# Stress axis : x y z
#
# Youngs Moduli (GPa) = 57.68251 88.08570 67.00165
#
# Poissons Ratio (x) = 0.50393 -0.08933
# Poissons Ratio (y) = 0.33000 0.23491
# Poissons Ratio (z) = -0.07690 0.30883
#
# Static dielectric constant tensor:
#      x y z
#    x 1.793780 0.000000 0.000000 
#    y 0.000000 1.849110 0.000000 
#    z 0.000000 0.000000 1.841620 
# 
# From -- ./inp_files/26141.got.cif
#   From: 2010.05.17/outbox.cif.g08.bks.cpg/sg52_14_cif.got.tgz:26141.got - 2010.06.03 12:15:38.
