data_PCOD9411747
_publ_section_title
;
Structure prediction by ZEFSAII (Michael W. Deem and Ramdas Pophale) SiO2 
 PCOD9411747
Probable space group: P N N A
;
_chemical_formula_sum "Si O2"
_cell_formula_units_Z 32
_cell_length_a 14.211864
_cell_length_b 9.071298
_cell_length_c 11.711113
_cell_angle_alpha 90.000000
_cell_angle_beta 90.000000
_cell_angle_gamma 90.000000
_cell_volume 1509.797314
_symmetry_space_group_name_H-M "P N N A"
_symmetry_group_IT_number 52
_symmetry_cell_setting 'orthorhombic'
loop_
_space_group_symop_operation_xyz
x,y,z
1/2-x,-y,z
x,1/2-y,1/2-z
1/2-x,1/2+y,1/2-z
-x,-y,-z
1/2+x,y,-z
-x,1/2+y,1/2+z
1/2+x,1/2-y,1/2+z
loop_
_atom_site_type_symbol
_atom_site_label
_atom_site_fract_x
_atom_site_fract_y
_atom_site_fract_z
Si Si1 0.736326 0.327316 0.127249
Si Si2 0.524018 0.951050 0.850064
Si Si3 0.345239 0.081795 0.976568
Si Si4 0.020411 0.126147 0.592320
O O1 0.750000 0.500000 0.141006
O O2 0.745596 0.250000 0.250000
O O3 0.810335 0.250002 0.042375
O O4 0.628680 0.321786 0.087187
O O5 0.508419 0.938419 0.716076
O O6 0.527387 0.786866 0.906663
O O7 0.434727 0.040968 0.897073
O O8 0.624220 0.996818 0.903107
O O9 0.250000 0.000000 0.936710
O O10 0.000000 0.000000 0.500000
#
# Coordination Sequence:
#
# PCOD9411747 Si02
#       4
#     8   8   8   8
#     4  12  22  37  66  99 127 169 230 276 333 416
#     4  10  22  40  65  95 135 168 223 282 336 403
#     4  11  21  41  66  94 128 174 217 278 341 403
#     4  11  21  40  61  93 133 174 220 278 332 399
#
# _framework density 21.194897999999998
#
# number of rings (size 3 to 8) (size 9 to 14) (size 15 to 20)
#    0.000    1.000    5.000    3.750    0.000    0.000 
#    0.000   10.000    0.000    0.000    0.000    0.000 
#    0.000    0.000    0.000    0.000    0.000    0.000 
#
# Total GULP energy -178255.208708 kJ/mol
# GULP energy per Si atom -5570.475272 kJ/mol
# Density = 2.114666 g / cm^3
# Si number density = 21.194898 Si / 1000 Ang^3
#
#
#
# Elastic Constant Matrix: (Units=GPa)
#
#
# Indices 1 2 3 4 5 6 
#
# 1 97.9131 4.7065 43.9345 0.0000 0.0000 0.0000
# 2 4.7065 85.9076 41.8406 0.0000 0.0000 0.0000
# 3 43.9345 41.8406 134.3555 0.0000 0.0000 0.0000
# 4 0.0000 0.0000 0.0000 26.2529 0.0000 0.0000
# 5 0.0000 0.0000 0.0000 0.0000 1.9782 0.0000
# 6 0.0000 0.0000 0.0000 0.0000 0.0000 27.7443
#
#
#
# Elastic Compliance Matrix: (Units=1/GPa)
#
#
# Indices 1 2 3 4 5 6 
#
# 1 0.012130 0.001494 -0.004432 0.000000 0.000000 0.000000
# 2 0.001494 0.013906 -0.004819 0.000000 0.000000 0.000000
# 3 -0.004432 -0.004819 0.010393 0.000000 0.000000 0.000000
# 4 0.000000 0.000000 0.000000 0.038091 0.000000 0.000000
# 5 0.000000 0.000000 0.000000 0.000000 0.505518 0.000000
# 6 0.000000 0.000000 0.000000 0.000000 0.000000 0.036043
#
#
# Mechanical properties :
#
#
# Convention : Reuss Voigt Hill
#
# Bulk Modulus (GPa) = 47.81312 55.45993 51.63653
# Shear Modulus (GPa) = 7.83005 26.37471 17.10238
#
# Velocity S-wave (km/s) = 1.92414 3.53142 2.84370
# Velocity P-wave (km/s) = 5.24826 6.54609 5.93277
#
# Compressibility (1/GPa) = 0.02091476
#
# Stress axis : x y z
#
# Youngs Moduli (GPa) = 82.44106 71.91343 96.22023
#
# Poissons Ratio (x) = -0.10743 0.42642
# Poissons Ratio (y) = -0.12316 0.46368
# Poissons Ratio (z) = 0.36536 0.34655
#
# Static dielectric constant tensor:
#      x y z
#    x 19.521440 0.000000 0.000000 
#    y 0.000000 1.521790 0.000000 
#    z 0.000000 0.000000 1.828170 
# 
# From -- ./inp_files/19014.got.cif
#   From: 2010.05.17/outbox.cif.g08.bks.cpg/sg52_10_cif.got.tgz:19014.got - 2010.06.03 12:15:38.
