data_PCOD9411945
_publ_section_title
;
Structure prediction by ZEFSAII (Michael W. Deem and Ramdas Pophale) SiO2 
 PCOD9411945
Probable space group: P N N A
;
_chemical_formula_sum "Si O2"
_cell_formula_units_Z 28
_cell_length_a 8.040383
_cell_length_b 15.940063
_cell_length_c 7.622660
_cell_angle_alpha 90.000000
_cell_angle_beta 90.000000
_cell_angle_gamma 90.000000
_cell_volume 976.952209
_symmetry_space_group_name_H-M "P N N A"
_symmetry_group_IT_number 52
_symmetry_cell_setting 'orthorhombic'
loop_
_space_group_symop_operation_xyz
x,y,z
1/2-x,-y,z
x,1/2-y,1/2-z
1/2-x,1/2+y,1/2-z
-x,-y,-z
1/2+x,y,-z
-x,1/2+y,1/2+z
1/2+x,1/2-y,1/2+z
loop_
_atom_site_type_symbol
_atom_site_label
_atom_site_fract_x
_atom_site_fract_y
_atom_site_fract_z
Si Si1 0.427110 0.583298 0.089957
Si Si2 0.089430 0.250000 0.250000
Si Si3 0.179312 0.351063 0.742798
Si Si4 0.305308 0.115452 0.105578
O O1 0.503619 0.675746 0.146573
O O2 0.326938 0.567929 0.270338
O O3 0.500000 0.500000 0.000000
O O4 0.302583 0.611135 0.935891
O O5 0.214779 0.206197 0.115419
O O6 0.184403 0.250000 0.750000
O O7 0.295029 0.399923 0.601117
O O8 0.989486 0.376296 0.680770
#
# Coordination Sequence:
#
# PCOD9411945 Si02
#       4
#     8   4   8   8
#     4  10  22  42  66  95 137 183 226 284 349 416
#     4   8  18  44  56 102 126 166 240 274 332 428
#     4  12  21  43  69  96 143 182 227 300 347 419
#     4  10  23  41  65 104 132 184 239 277 358 427
#
# _framework density 28.660564999999998
#
# number of rings (size 3 to 8) (size 9 to 14) (size 15 to 20)
#    1.714    0.000    4.286    0.000    0.000    4.571 
#    2.571    0.000    0.000    0.000    0.000    0.000 
#    0.000    0.000    0.000    0.000    0.000    0.000 
#
# Total GULP energy -156186.484433 kJ/mol
# GULP energy per Si atom -5578.088730 kJ/mol
# Density = 2.859533 g / cm^3
# Si number density = 28.660565 Si / 1000 Ang^3
#
#
#
# Elastic Constant Matrix: (Units=GPa)
#
#
# Indices 1 2 3 4 5 6 
#
# 1 109.6761 44.1050 -1.2337 0.0000 0.0000 0.0000
# 2 44.1050 182.9488 19.5157 0.0000 0.0000 0.0000
# 3 -1.2337 19.5157 147.9757 0.0000 0.0000 0.0000
# 4 0.0000 0.0000 0.0000 21.8595 0.0000 0.0000
# 5 0.0000 0.0000 0.0000 0.0000 1285.2368 0.0000
# 6 0.0000 0.0000 0.0000 0.0000 0.0000 61.2087
#
#
#
# Elastic Compliance Matrix: (Units=1/GPa)
#
#
# Indices 1 2 3 4 5 6 
#
# 1 0.010121 -0.002484 0.000412 0.000000 0.000000 0.000000
# 2 -0.002484 0.006154 -0.000832 0.000000 0.000000 0.000000
# 3 0.000412 -0.000832 0.006871 0.000000 0.000000 0.000000
# 4 0.000000 0.000000 0.000000 0.045747 0.000000 0.000000
# 5 0.000000 0.000000 0.000000 0.000000 0.000778 0.000000
# 6 0.000000 0.000000 0.000000 0.000000 0.000000 0.016338
#
#
# Mechanical properties :
#
#
# Convention : Reuss Voigt Hill
#
# Bulk Modulus (GPa) = 57.67864 62.81942 60.24903
# Shear Modulus (GPa) = 51.23166 298.87524 175.05345
#
# Velocity S-wave (km/s) = 4.23251 10.22289 7.82373
# Velocity P-wave (km/s) = 6.63731 12.70076 10.13319
#
# Compressibility (1/GPa) = 0.01733744
#
# Stress axis : x y z
#
# Youngs Moduli (GPa) = 98.80158 162.50589 145.53785
#
# Poissons Ratio (x) = 0.40366 -0.05996
# Poissons Ratio (y) = 0.24542 0.12113
# Poissons Ratio (z) = -0.04070 0.13525
#
# Static dielectric constant tensor:
#      x y z
#    x 2.392730 0.000000 0.000000 
#    y 0.000000 2.296290 0.000000 
#    z 0.000000 0.000000 2.672110 
# 
# From -- ./inp_files/7088.got.cif
#   From: 2010.05.17/outbox.cif.g08.bks.cpg/sg52_4_cif.got.tgz:7088.got - 2010.06.03 12:15:38.
