data_PCOD9411909
_publ_section_title
;
Structure prediction by ZEFSAII (Michael W. Deem and Ramdas Pophale) SiO2 
 PCOD9411909
Probable space group: P N N A
;
_chemical_formula_sum "Si O2"
_cell_formula_units_Z 40
_cell_length_a 19.342771
_cell_length_b 5.217044
_cell_length_c 18.144871
_cell_angle_alpha 90.000000
_cell_angle_beta 90.000000
_cell_angle_gamma 90.000000
_cell_volume 1831.036808
_symmetry_space_group_name_H-M "P N N A"
_symmetry_group_IT_number 52
_symmetry_cell_setting 'orthorhombic'
loop_
_space_group_symop_operation_xyz
x,y,z
1/2-x,-y,z
x,1/2-y,1/2-z
1/2-x,1/2+y,1/2-z
-x,-y,-z
1/2+x,y,-z
-x,1/2+y,1/2+z
1/2+x,1/2-y,1/2+z
loop_
_atom_site_type_symbol
_atom_site_label
_atom_site_fract_x
_atom_site_fract_y
_atom_site_fract_z
Si Si1 0.677766 0.648455 0.592615
Si Si2 0.876138 0.800793 0.402693
Si Si3 0.701640 0.750000 0.750000
Si Si4 0.059983 0.773350 0.835901
Si Si5 0.050217 0.308705 0.457316
Si Si6 0.250000 0.000000 0.522789
O O1 0.750000 0.500000 0.601505
O O2 0.659849 0.752135 0.673747
O O3 0.617818 0.462450 0.567525
O O4 0.696626 0.855224 0.531019
O O5 0.905421 0.541757 0.364356
O O6 0.922432 0.864829 0.475846
O O7 0.796551 0.804144 0.429591
O O8 0.886621 0.044313 0.351036
O O9 0.750000 0.500000 0.754471
O O10 0.042123 0.750000 0.750000
O O11 0.991780 0.720905 0.885821
O O12 0.000000 0.500000 0.500000
#
# Coordination Sequence:
#
# PCOD9411909 Si02
#       6
#     8   8   4   8   8   4
#     4  11  22  42  64  98 144 181 232 281 351 414
#     4  11  24  44  73 102 139 179 236 291 346 421
#     4  10  22  42  58  94 142 184 220 276 340 418
#     4  11  25  48  70 102 140 183 231 293 355 416
#     4  10  22  44  68 101 135 180 233 285 337 414
#     4  12  22  40  72 100 134 184 236 286 352 412
#
# _framework density 21.845547
#
# number of rings (size 3 to 8) (size 9 to 14) (size 15 to 20)
#    0.000    1.200    3.000    3.600    0.000    1.600 
#   18.000    2.000    0.000    0.000    0.000    0.000 
#    0.000    0.000    0.000    0.000    0.000    0.000 
#
# Total GULP energy -223314.355956 kJ/mol
# GULP energy per Si atom -5582.858899 kJ/mol
# Density = 2.179583 g / cm^3
# Si number density = 21.845547 Si / 1000 Ang^3
#
#
#
# Elastic Constant Matrix: (Units=GPa)
#
#
# Indices 1 2 3 4 5 6 
#
# 1 90.0042 16.5598 44.3622 0.0000 0.0000 0.0000
# 2 16.5598 94.0888 32.4107 0.0000 0.0000 0.0000
# 3 44.3622 32.4107 151.1964 0.0000 0.0000 0.0000
# 4 0.0000 0.0000 0.0000 48.4633 0.0000 0.0000
# 5 0.0000 0.0000 0.0000 0.0000 6.0950 0.0000
# 6 0.0000 0.0000 0.0000 0.0000 0.0000 37.3445
#
#
#
# Elastic Compliance Matrix: (Units=1/GPa)
#
#
# Indices 1 2 3 4 5 6 
#
# 1 0.013086 -0.001059 -0.003613 0.000000 0.000000 0.000000
# 2 -0.001059 0.011561 -0.002168 0.000000 0.000000 0.000000
# 3 -0.003613 -0.002168 0.008139 0.000000 0.000000 0.000000
# 4 0.000000 0.000000 0.000000 0.020634 0.000000 0.000000
# 5 0.000000 0.000000 0.000000 0.000000 0.164069 0.000000
# 6 0.000000 0.000000 0.000000 0.000000 0.000000 0.026778
#
#
# Mechanical properties :
#
#
# Convention : Reuss Voigt Hill
#
# Bulk Modulus (GPa) = 52.33442 57.99497 55.16470
# Shear Modulus (GPa) = 18.91690 34.51101 26.71396
#
# Velocity S-wave (km/s) = 2.94588 3.97895 3.50073
# Velocity P-wave (km/s) = 5.96485 6.90759 6.45346
#
# Compressibility (1/GPa) = 0.01910788
#
# Stress axis : x y z
#
# Youngs Moduli (GPa) = 76.41755 86.49552 122.87218
#
# Poissons Ratio (x) = 0.09158 0.44389
# Poissons Ratio (y) = 0.08091 0.26635
# Poissons Ratio (z) = 0.27606 0.18749
#
# Static dielectric constant tensor:
#      x y z
#    x 1.776760 0.000000 0.000000 
#    y 0.000000 1.824520 0.000000 
#    z 0.000000 0.000000 1.882200 
# 
# From -- ./inp_files/33486.got.cif
#   From: 2010.05.17/outbox.cif.g08.bks.cpg/sg52_17_cif.got.tgz:33486.got - 2010.06.03 12:15:38.
