data_PCOD9411476
_publ_section_title
;
Structure prediction by ZEFSAII (Michael W. Deem and Ramdas Pophale) SiO2 
 PCOD9411476
Probable space group: P N N A
;
_chemical_formula_sum "Si O2"
_cell_formula_units_Z 36
_cell_length_a 7.678124
_cell_length_b 10.178739
_cell_length_c 17.301009
_cell_angle_alpha 90.000000
_cell_angle_beta 90.000000
_cell_angle_gamma 90.000000
_cell_volume 1352.136487
_symmetry_space_group_name_H-M "P N N A"
_symmetry_group_IT_number 52
_symmetry_cell_setting 'orthorhombic'
loop_
_space_group_symop_operation_xyz
x,y,z
1/2-x,-y,z
x,1/2-y,1/2-z
1/2-x,1/2+y,1/2-z
-x,-y,-z
1/2+x,y,-z
-x,1/2+y,1/2+z
1/2+x,1/2-y,1/2+z
loop_
_atom_site_type_symbol
_atom_site_label
_atom_site_fract_x
_atom_site_fract_y
_atom_site_fract_z
Si Si1 0.095165 0.165762 0.620126
Si Si2 0.524108 0.860687 0.314355
Si Si3 0.447136 0.547678 0.687556
Si Si4 0.262744 0.700628 0.049199
Si Si5 0.250000 0.500000 0.423627
O O1 0.270601 0.135462 0.669359
O O2 0.044165 0.301783 0.663936
O O3 0.187727 0.158211 0.535855
O O4 0.901996 0.129093 0.587909
O O5 0.488239 0.750000 0.250000
O O6 0.417947 0.824940 0.390185
O O7 0.489669 0.001976 0.272796
O O8 0.250000 0.500000 0.675212
O O9 0.579839 0.479812 0.628784
O O10 0.225854 0.858649 0.036663
#
# Coordination Sequence:
#
# PCOD9411476 Si02
#       5
#     8   8   8   8   4
#     4  11  24  41  69 103 136 183 222 288 351 412
#     4  12  23  42  64 102 145 180 227 284 345 418
#     4  11  23  39  63  99 137 177 224 278 345 407
#     4  11  23  39  66  99 141 172 227 285 353 401
#     4  10  22  34  60  98 132 166 216 276 340 394
#
# _framework density 26.624531000000001
#
# number of rings (size 3 to 8) (size 9 to 14) (size 15 to 20)
#    0.000    0.889    6.667    0.000    1.556    4.444 
#    0.000    0.000    0.000    1.333    0.000    0.000 
#    0.000    0.000    0.000    0.000    0.000    0.000 
#
# Total GULP energy -201095.106008 kJ/mol
# GULP energy per Si atom -5585.975167 kJ/mol
# Density = 2.656393 g / cm^3
# Si number density = 26.624531 Si / 1000 Ang^3
#
#
#
# Elastic Constant Matrix: (Units=GPa)
#
#
# Indices 1 2 3 4 5 6 
#
# 1 116.6227 3.4319 1.7907 0.0000 0.0000 0.0000
# 2 3.4319 88.4917 11.0572 0.0000 0.0000 0.0000
# 3 1.7907 11.0572 55.4907 0.0000 0.0000 0.0000
# 4 0.0000 0.0000 0.0000 -112.1818 0.0000 0.0000
# 5 0.0000 0.0000 0.0000 0.0000 45.0177 0.0000
# 6 0.0000 0.0000 0.0000 0.0000 0.0000 282.1406
#
#
#
# Elastic Compliance Matrix: (Units=1/GPa)
#
#
# Indices 1 2 3 4 5 6 
#
# 1 0.008587 -0.000306 -0.000216 0.000000 0.000000 0.000000
# 2 -0.000306 0.011600 -0.002302 0.000000 0.000000 0.000000
# 3 -0.000216 -0.002302 0.018487 0.000000 0.000000 0.000000
# 4 0.000000 0.000000 0.000000 -0.008914 0.000000 0.000000
# 5 0.000000 0.000000 0.000000 0.000000 0.022213 0.000000
# 6 0.000000 0.000000 0.000000 0.000000 0.000000 0.003544
#
#
# Mechanical properties :
#
#
# Convention : Reuss Voigt Hill
#
# Bulk Modulus (GPa) = 30.27904 32.57386 31.42645
# Shear Modulus (GPa) = 69.27762 59.28366 64.28064
#
# Velocity S-wave (km/s) = 5.10654 4.72386 4.91892
# Velocity P-wave (km/s) = 6.79457 6.48184 6.64005
#
# Compressibility (1/GPa) = 0.03302615
#
# Stress axis : x y z
#
# Youngs Moduli (GPa) = 116.45528 86.20726 54.09317
#
# Poissons Ratio (x) = 0.02638 0.01169
# Poissons Ratio (y) = 0.03564 0.12450
# Poissons Ratio (z) = 0.02517 0.19841
#
# Static dielectric constant tensor:
#      x y z
#    x 1.931090 0.000000 0.000000 
#    y 0.000000 1.972540 0.000000 
#    z 0.000000 0.000000 2.088190 
# 
# From -- ./inp_files/24330.got.cif
#   From: 2010.05.17/outbox.cif.g08.bks.cpg/sg52_13_cif.got.tgz:24330.got - 2010.06.03 12:15:38.
