data_PCOD9411626
_publ_section_title
;
Structure prediction by ZEFSAII (Michael W. Deem and Ramdas Pophale) SiO2 
 PCOD9411626
Probable space group: P N N A
;
_chemical_formula_sum "Si O2"
_cell_formula_units_Z 64
_cell_length_a 13.851152
_cell_length_b 9.500884
_cell_length_c 27.311523
_cell_angle_alpha 90.000000
_cell_angle_beta 90.000000
_cell_angle_gamma 90.000000
_cell_volume 3594.146950
_symmetry_space_group_name_H-M "P N N A"
_symmetry_group_IT_number 52
_symmetry_cell_setting 'orthorhombic'
loop_
_space_group_symop_operation_xyz
x,y,z
1/2-x,-y,z
x,1/2-y,1/2-z
1/2-x,1/2+y,1/2-z
-x,-y,-z
1/2+x,y,-z
-x,1/2+y,1/2+z
1/2+x,1/2-y,1/2+z
loop_
_atom_site_type_symbol
_atom_site_label
_atom_site_fract_x
_atom_site_fract_y
_atom_site_fract_z
Si Si1 0.870552 0.720517 0.574458
Si Si2 0.155012 0.412870 0.928523
Si Si3 0.649354 0.084401 0.759005
Si Si4 0.642262 0.446982 0.845679
Si Si5 0.740818 0.666435 0.486117
Si Si6 0.132155 0.975219 0.136510
Si Si7 0.035348 0.688578 0.100922
Si Si8 0.446545 0.327345 0.983936
O O1 0.853387 0.800589 0.625513
O O2 0.774482 0.705553 0.541602
O O3 0.904634 0.566828 0.590781
O O4 0.954485 0.796987 0.544239
O O5 0.250000 0.500000 0.911236
O O6 0.192225 0.272171 0.955242
O O7 0.100648 0.524675 0.965408
O O8 0.076800 0.353602 0.890087
O O9 0.670093 0.250000 0.750000
O O10 0.595456 0.048638 0.708176
O O11 0.750000 0.000000 0.760429
O O12 0.602018 0.038956 0.810405
O O13 0.750000 0.500000 0.838812
O O14 0.592773 0.553565 0.881803
O O15 0.750000 0.500000 0.479512
O O16 0.633476 0.710696 0.471992
O O17 0.086544 0.821335 0.127360
O O18 0.250000 0.000000 0.134504
O O19 0.041945 0.692848 0.042034
#
# Coordination Sequence:
#
# PCOD9411626 Si02
#       8
#     8   8   8   8   8   8   8   8
#     4  12  21  37  55  84 117 159 199 238 291 349
#     4  10  22  40  55  77 116 156 202 248 291 340
#     4  10  22  39  57  82 122 159 194 243 294 353
#     4  11  22  35  60  83 117 160 198 236 296 353
#     4  11  23  35  53  77 114 159 200 241 293 339
#     4  11  24  37  57  86 127 159 200 244 298 357
#     4  12  22  37  57  86 116 156 205 243 288 356
#     4  11  22  37  56  80 118 156 199 247 288 345
#
# _framework density 17.806728
#
# number of rings (size 3 to 8) (size 9 to 14) (size 15 to 20)
#    0.000    1.000    3.750    4.500    7.000    2.000 
#    0.000    0.000    0.000    0.000    0.000    0.000 
#   18.750    0.000    0.000    0.000    0.000    0.000 
#
# Total GULP energy -356408.066683 kJ/mol
# GULP energy per Si atom -5568.876042 kJ/mol
# Density = 1.776620 g / cm^3
# Si number density = 17.806728 Si / 1000 Ang^3
#
#
#
# Elastic Constant Matrix: (Units=GPa)
#
#
# Indices 1 2 3 4 5 6 
#
# 1 73.4627 27.5469 19.0765 0.0000 0.0000 0.0000
# 2 27.5469 113.3084 17.7276 0.0000 0.0000 0.0000
# 3 19.0765 17.7276 70.3134 0.0000 0.0000 0.0000
# 4 0.0000 0.0000 0.0000 9.6390 0.0000 0.0000
# 5 0.0000 0.0000 0.0000 0.0000 12.5778 0.0000
# 6 0.0000 0.0000 0.0000 0.0000 0.0000 27.0290
#
#
#
# Elastic Compliance Matrix: (Units=1/GPa)
#
#
# Indices 1 2 3 4 5 6 
#
# 1 0.015739 -0.003288 -0.003441 0.000000 0.000000 0.000000
# 2 -0.003288 0.009875 -0.001598 0.000000 0.000000 0.000000
# 3 -0.003441 -0.001598 0.015558 0.000000 0.000000 0.000000
# 4 0.000000 0.000000 0.000000 0.103745 0.000000 0.000000
# 5 0.000000 0.000000 0.000000 0.000000 0.079505 0.000000
# 6 0.000000 0.000000 0.000000 0.000000 0.000000 0.036997
#
#
# Mechanical properties :
#
#
# Convention : Reuss Voigt Hill
#
# Bulk Modulus (GPa) = 40.78515 42.86515 41.82515
# Shear Modulus (GPa) = 17.46753 22.69808 20.08280
#
# Velocity S-wave (km/s) = 3.13541 3.57415 3.36195
# Velocity P-wave (km/s) = 6.00515 6.41541 6.21367
#
# Compressibility (1/GPa) = 0.02451873
#
# Stress axis : x y z
#
# Youngs Moduli (GPa) = 63.53715 101.26813 64.27390
#
# Poissons Ratio (x) = 0.33297 0.22117
# Poissons Ratio (y) = 0.20891 0.10268
# Poissons Ratio (z) = 0.21864 0.16179
#
# Static dielectric constant tensor:
#      x y z
#    x 1.595490 0.000000 0.000000 
#    y 0.000000 1.633580 0.000000 
#    z 0.000000 0.000000 1.649910 
# 
# From -- ./inp_files/40673.got.cif
#   From: 2010.05.17/outbox.cif.g08.bks.cpg/sg52_21_cif.got.tgz:40673.got - 2010.06.03 12:15:38.
