data_PCOD9411291
_publ_section_title
;
Structure prediction by ZEFSAII (Michael W. Deem and Ramdas Pophale) SiO2 
 PCOD9411291
Probable space group: P N N A
;
_chemical_formula_sum "Si O2"
_cell_formula_units_Z 36
_cell_length_a 9.771015
_cell_length_b 13.492299
_cell_length_c 13.267308
_cell_angle_alpha 90.000000
_cell_angle_beta 90.000000
_cell_angle_gamma 90.000000
_cell_volume 1749.075064
_symmetry_space_group_name_H-M "P N N A"
_symmetry_group_IT_number 52
_symmetry_cell_setting 'orthorhombic'
loop_
_space_group_symop_operation_xyz
x,y,z
1/2-x,-y,z
x,1/2-y,1/2-z
1/2-x,1/2+y,1/2-z
-x,-y,-z
1/2+x,y,-z
-x,1/2+y,1/2+z
1/2+x,1/2-y,1/2+z
loop_
_atom_site_type_symbol
_atom_site_label
_atom_site_fract_x
_atom_site_fract_y
_atom_site_fract_z
Si Si1 0.630476 0.801996 0.596163
Si Si2 0.750000 0.500000 0.841997
Si Si3 0.353879 0.319608 0.609681
Si Si4 0.889490 0.750000 0.250000
Si Si5 0.144709 0.356907 0.329759
Si Si6 0.750000 0.500000 0.502860
O O1 0.628210 0.757551 0.483237
O O2 0.494357 0.795146 0.666237
O O3 0.743480 0.729400 0.649102
O O4 0.669768 0.917840 0.594285
O O5 0.832472 0.572174 0.765976
O O6 0.218436 0.307757 0.678139
O O7 0.493784 0.315259 0.669663
O O8 0.342344 0.428613 0.562731
O O9 0.163249 0.428566 0.425716
#
# Coordination Sequence:
#
# PCOD9411291 Si02
#       6
#     8   4   8   4   8   4
#     4  11  23  46  68  98 140 182 232 292 351 413
#     4  11  22  38  77  94 134 192 229 274 357 430
#     4  11  25  42  70 105 138 178 232 294 350 418
#     4  12  26  44  68 100 146 182 226 292 350 414
#     4  10  21  41  70  96 132 180 229 288 345 409
#     4   9  20  38  71 102 130 164 237 300 343 396
#
# _framework density 20.582305999999999
#
# number of rings (size 3 to 8) (size 9 to 14) (size 15 to 20)
#    0.000    1.333    2.222    3.333    6.222    0.000 
#    0.000    5.556    0.000    0.000    0.000    0.000 
#    0.000    0.000    0.000    0.000    0.000    0.000 
#
# Total GULP energy -200600.342085 kJ/mol
# GULP energy per Si atom -5572.231725 kJ/mol
# Density = 2.053546 g / cm^3
# Si number density = 20.582306 Si / 1000 Ang^3
#
#
#
# Elastic Constant Matrix: (Units=GPa)
#
#
# Indices 1 2 3 4 5 6 
#
# 1 141.5777 62.3676 29.6198 0.0000 0.0000 0.0000
# 2 62.3676 141.3330 60.4145 0.0000 0.0000 0.0000
# 3 29.6198 60.4145 76.8609 0.0000 0.0000 0.0000
# 4 0.0000 0.0000 0.0000 352.8704 0.0000 0.0000
# 5 0.0000 0.0000 0.0000 0.0000 -304.1685 0.0000
# 6 0.0000 0.0000 0.0000 0.0000 0.0000 -9.4271
#
#
#
# Elastic Compliance Matrix: (Units=1/GPa)
#
#
# Indices 1 2 3 4 5 6 
#
# 1 0.008781 -0.003657 -0.000509 0.000000 0.000000 0.000000
# 2 -0.003657 0.012179 -0.008164 0.000000 0.000000 0.000000
# 3 -0.000509 -0.008164 0.019624 0.000000 0.000000 0.000000
# 4 0.000000 0.000000 0.000000 0.002834 0.000000 0.000000
# 5 0.000000 0.000000 0.000000 0.000000 -0.003288 0.000000
# 6 0.000000 0.000000 0.000000 0.000000 0.000000 -0.106077
#
#
# Mechanical properties :
#
#
# Convention : Reuss Voigt Hill
#
# Bulk Modulus (GPa) = 62.80087 73.84170 68.32129
# Shear Modulus (GPa) = -138.96773 21.67961 -58.64406
#
# Velocity S-wave (km/s) = -8.22585 3.24900 -5.34362
# Velocity P-wave (km/s) = 7.72277 7.07311 2.19230
#
# Compressibility (1/GPa) = 0.01592335
#
# Stress axis : x y z
#
# Youngs Moduli (GPa) = 113.88439 82.10898 50.95919
#
# Poissons Ratio (x) = 0.30028 0.02595
# Poissons Ratio (y) = 0.41649 0.41601
# Poissons Ratio (z) = 0.05800 0.67030
#
# Static dielectric constant tensor:
#      x y z
#    x 1.767590 0.000000 0.000000 
#    y 0.000000 1.740550 0.000000 
#    z 0.000000 0.000000 1.794030 
# 
# From -- ./inp_files/24349.got.cif
#   From: 2010.05.17/outbox.cif.g08.bks.cpg/sg52_13_cif.got.tgz:24349.got - 2010.06.03 12:15:38.
