data_PCOD9411199
_publ_section_title
;
Structure prediction by ZEFSAII (Michael W. Deem and Ramdas Pophale) SiO2 
 PCOD9411199
Probable space group: P N N A
;
_chemical_formula_sum "Si O2"
_cell_formula_units_Z 64
_cell_length_a 12.685188
_cell_length_b 16.292158
_cell_length_c 14.420516
_cell_angle_alpha 90.000000
_cell_angle_beta 90.000000
_cell_angle_gamma 90.000000
_cell_volume 2980.274878
_symmetry_space_group_name_H-M "P N N A"
_symmetry_group_IT_number 52
_symmetry_cell_setting 'orthorhombic'
loop_
_space_group_symop_operation_xyz
x,y,z
1/2-x,-y,z
x,1/2-y,1/2-z
1/2-x,1/2+y,1/2-z
-x,-y,-z
1/2+x,y,-z
-x,1/2+y,1/2+z
1/2+x,1/2-y,1/2+z
loop_
_atom_site_type_symbol
_atom_site_label
_atom_site_fract_x
_atom_site_fract_y
_atom_site_fract_z
Si Si1 0.425999 0.489515 0.216740
Si Si2 0.621728 0.325552 0.819897
Si Si3 0.047275 0.382788 0.521927
Si Si4 0.956914 0.801405 0.490427
Si Si5 0.653729 0.060165 0.213754
Si Si6 0.636196 0.529222 0.585152
Si Si7 0.275926 0.596912 0.898443
Si Si8 0.839698 0.141154 0.578151
O O1 0.394916 0.584319 0.220930
O O2 0.551836 0.477776 0.231502
O O3 0.369743 0.450484 0.306606
O O4 0.379539 0.443355 0.126687
O O5 0.613079 0.250000 0.750000
O O6 0.534664 0.320895 0.901172
O O7 0.737480 0.326216 0.868143
O O8 0.085463 0.291144 0.506575
O O9 0.103205 0.409327 0.618054
O O10 0.070642 0.447132 0.440141
O O11 0.921525 0.395609 0.534984
O O12 0.881749 0.871389 0.448566
O O13 0.059277 0.800740 0.425726
O O14 0.706544 0.120726 0.290579
O O15 0.750000 0.000000 0.189891
O O16 0.750000 0.500000 0.555225
O O17 0.250000 0.500000 0.895879
O O18 0.189685 0.630277 0.970130
#
# Coordination Sequence:
#
# PCOD9411199 Si02
#       8
#     8   8   8   8   8   8   8   8
#     4  11  22  41  67  97 125 167 225 269 327 398
#     4  11  25  42  63  94 132 168 212 274 332 399
#     4  10  23  41  63  97 133 173 223 276 334 402
#     4  11  24  40  64  95 132 172 215 277 336 394
#     4  10  22  41  67  92 125 173 218 273 328 400
#     4  10  21  40  69  95 127 172 222 279 329 392
#     4  10  22  40  62  91 126 170 217 264 327 396
#     4  11  23  41  65  95 128 172 217 270 337 394
#
# _framework density 21.474529
#
# number of rings (size 3 to 8) (size 9 to 14) (size 15 to 20)
#    0.000    1.500    1.250    3.750    3.500    6.500 
#    0.000    2.500    0.000    0.000    0.000    0.000 
#    0.000    0.000    0.000    0.000    0.000    0.000 
#
# Total GULP energy -356554.835114 kJ/mol
# GULP energy per Si atom -5571.169299 kJ/mol
# Density = 2.142565 g / cm^3
# Si number density = 21.474529 Si / 1000 Ang^3
#
#
#
# Elastic Constant Matrix: (Units=GPa)
#
#
# Indices 1 2 3 4 5 6 
#
# 1 87.8170 3.6786 10.0811 0.0000 0.0000 0.0000
# 2 3.6786 53.5767 -2.4245 0.0000 0.0000 0.0000
# 3 10.0811 -2.4245 65.4831 0.0000 0.0000 0.0000
# 4 0.0000 0.0000 0.0000 25.3831 0.0000 0.0000
# 5 0.0000 0.0000 0.0000 0.0000 12.3557 0.0000
# 6 0.0000 0.0000 0.0000 0.0000 0.0000 8.0461
#
#
#
# Elastic Compliance Matrix: (Units=1/GPa)
#
#
# Indices 1 2 3 4 5 6 
#
# 1 0.011634 -0.000881 -0.001824 0.000000 0.000000 0.000000
# 2 -0.000881 0.018763 0.000830 0.000000 0.000000 0.000000
# 3 -0.001824 0.000830 0.015583 0.000000 0.000000 0.000000
# 4 0.000000 0.000000 0.000000 0.039396 0.000000 0.000000
# 5 0.000000 0.000000 0.000000 0.000000 0.080934 0.000000
# 6 0.000000 0.000000 0.000000 0.000000 0.000000 0.124284
#
#
# Mechanical properties :
#
#
# Convention : Reuss Voigt Hill
#
# Bulk Modulus (GPa) = 23.67985 25.50526 24.59256
# Shear Modulus (GPa) = 16.21169 22.19308 19.20238
#
# Velocity S-wave (km/s) = 2.75057 3.21824 2.99355
# Velocity P-wave (km/s) = 4.59765 5.07072 4.83997
#
# Compressibility (1/GPa) = 0.04223000
#
# Stress axis : x y z
#
# Youngs Moduli (GPa) = 85.95808 53.29661 64.17416
#
# Poissons Ratio (x) = 0.04697 0.11703
# Poissons Ratio (y) = 0.07575 -0.05329
# Poissons Ratio (z) = 0.15675 -0.04426
#
# Static dielectric constant tensor:
#      x y z
#    x 1.851680 0.000000 0.000000 
#    y 0.000000 1.755200 0.000000 
#    z 0.000000 0.000000 1.815350 
# 
# From -- ./inp_files/26352.got.cif
#   From: 2010.05.17/outbox.cif.g08.bks.cpg/sg52_14_cif.got.tgz:26352.got - 2010.06.03 12:15:38.
