data_PCOD9411764
_publ_section_title
;
Structure prediction by ZEFSAII (Michael W. Deem and Ramdas Pophale) SiO2 
 PCOD9411764
Probable space group: P N N A
;
_chemical_formula_sum "Si O2"
_cell_formula_units_Z 28
_cell_length_a 8.326953
_cell_length_b 13.539739
_cell_length_c 11.899334
_cell_angle_alpha 90.000000
_cell_angle_beta 90.000000
_cell_angle_gamma 90.000000
_cell_volume 1341.587678
_symmetry_space_group_name_H-M "P N N A"
_symmetry_group_IT_number 52
_symmetry_cell_setting 'orthorhombic'
loop_
_space_group_symop_operation_xyz
x,y,z
1/2-x,-y,z
x,1/2-y,1/2-z
1/2-x,1/2+y,1/2-z
-x,-y,-z
1/2+x,y,-z
-x,1/2+y,1/2+z
1/2+x,1/2-y,1/2+z
loop_
_atom_site_type_symbol
_atom_site_label
_atom_site_fract_x
_atom_site_fract_y
_atom_site_fract_z
Si Si1 0.742297 0.240124 0.435950
Si Si2 0.250000 0.500000 0.259981
Si Si3 0.051046 0.174781 0.147302
Si Si4 0.468039 0.097384 0.423136
O O1 0.641595 0.293927 0.533220
O O2 0.619511 0.161724 0.380676
O O3 0.868718 0.168619 0.496360
O O4 0.858126 0.314403 0.368251
O O5 0.123655 0.431729 0.324804
O O6 0.356917 0.431726 0.179820
O O7 0.091248 0.250000 0.250000
O O8 0.500000 0.000000 0.500000
#
# Coordination Sequence:
#
# PCOD9411764 Si02
#       4
#     8   4   8   8
#     4  10  22  40  66  94 141 171 220 287 356 395
#     4  12  22  38  74  98 140 180 236 274 348 418
#     4  11  23  44  65  99 135 182 224 288 344 413
#     4  11  18  37  68 101 123 172 233 297 332 399
#
# _framework density 20.870794
#
# number of rings (size 3 to 8) (size 9 to 14) (size 15 to 20)
#    0.000    1.143    5.714    1.714    0.000    1.143 
#   10.286    0.000    0.000    0.000    0.000    0.000 
#    0.000    0.000    0.000    0.000    0.000    0.000 
#
# Total GULP energy -156168.412327 kJ/mol
# GULP energy per Si atom -5577.443297 kJ/mol
# Density = 2.082329 g / cm^3
# Si number density = 20.870794 Si / 1000 Ang^3
#
#
#
# Elastic Constant Matrix: (Units=GPa)
#
#
# Indices 1 2 3 4 5 6 
#
# 1 154.7647 50.5620 31.0806 0.0000 0.0000 0.0000
# 2 50.5620 50.7307 16.7809 0.0000 0.0000 0.0000
# 3 31.0806 16.7809 43.6677 0.0000 0.0000 0.0000
# 4 0.0000 0.0000 0.0000 -17.9830 0.0000 0.0000
# 5 0.0000 0.0000 0.0000 0.0000 53.0918 0.0000
# 6 0.0000 0.0000 0.0000 0.0000 0.0000 47.4459
#
#
#
# Elastic Compliance Matrix: (Units=1/GPa)
#
#
# Indices 1 2 3 4 5 6 
#
# 1 0.010105 -0.008812 -0.003806 0.000000 0.000000 0.000000
# 2 -0.008812 0.030268 -0.005359 0.000000 0.000000 0.000000
# 3 -0.003806 -0.005359 0.027668 0.000000 0.000000 0.000000
# 4 0.000000 0.000000 0.000000 -0.055608 0.000000 0.000000
# 5 0.000000 0.000000 0.000000 0.000000 0.018835 0.000000
# 6 0.000000 0.000000 0.000000 0.000000 0.000000 0.021077
#
#
# Mechanical properties :
#
#
# Convention : Reuss Voigt Hill
#
# Bulk Modulus (GPa) = 31.16588 49.55670 40.36129
# Shear Modulus (GPa) = 50.50783 26.56022 38.53403
#
# Velocity S-wave (km/s) = 4.92471 3.57123 4.30154
# Velocity P-wave (km/s) = 6.87766 6.38756 6.63714
#
# Compressibility (1/GPa) = 0.03208638
#
# Stress axis : x y z
#
# Youngs Moduli (GPa) = 98.96424 33.03854 36.14234
#
# Poissons Ratio (x) = 0.29114 0.13754
# Poissons Ratio (y) = 0.87210 0.19370
# Poissons Ratio (z) = 0.37662 0.17706
#
# Static dielectric constant tensor:
#      x y z
#    x 1.798480 0.000000 0.000000 
#    y 0.000000 1.771050 0.000000 
#    z 0.000000 0.000000 1.738110 
# 
# From -- ./inp_files/16338.got.cif
#   From: 2010.05.17/outbox.cif.g08.bks.cpg/sg52_9_cif.got.tgz:16338.got - 2010.06.03 12:15:38.
