data_PCOD9411474
_publ_section_title
;
Structure prediction by ZEFSAII (Michael W. Deem and Ramdas Pophale) SiO2 
 PCOD9411474
Probable space group: P N N A
;
_chemical_formula_sum "Si O2"
_cell_formula_units_Z 48
_cell_length_a 24.955772
_cell_length_b 9.877353
_cell_length_c 10.608749
_cell_angle_alpha 90.000000
_cell_angle_beta 90.000000
_cell_angle_gamma 90.000000
_cell_volume 2615.024478
_symmetry_space_group_name_H-M "P N N A"
_symmetry_group_IT_number 52
_symmetry_cell_setting 'orthorhombic'
loop_
_space_group_symop_operation_xyz
x,y,z
1/2-x,-y,z
x,1/2-y,1/2-z
1/2-x,1/2+y,1/2-z
-x,-y,-z
1/2+x,y,-z
-x,1/2+y,1/2+z
1/2+x,1/2-y,1/2+z
loop_
_atom_site_type_symbol
_atom_site_label
_atom_site_fract_x
_atom_site_fract_y
_atom_site_fract_z
Si Si1 0.447222 0.988603 0.582632
Si Si2 0.139922 0.776571 0.595296
Si Si3 0.371876 0.753823 0.901672
Si Si4 0.756821 0.842756 0.373759
Si Si5 0.005087 0.101038 0.185272
Si Si6 0.417095 0.031146 0.011199
O O1 0.402582 0.104960 0.568812
O O2 0.470673 0.006268 0.722499
O O3 0.500000 0.000000 0.500000
O O4 0.417628 0.849148 0.555034
O O5 0.136464 0.750000 0.750000
O O6 0.200558 0.813228 0.560534
O O7 0.125172 0.649668 0.508628
O O8 0.372050 0.750000 0.750000
O O9 0.312919 0.697238 0.939812
O O10 0.389266 0.901654 0.945825
O O11 0.756647 0.750000 0.250000
O O12 0.750000 0.000000 0.337502
O O13 0.010591 0.250000 0.250000
O O14 0.059696 0.027658 0.142245
O O15 0.968017 0.101052 0.060689
#
# Coordination Sequence:
#
# PCOD9411474 Si02
#       6
#     8   8   8   8   8   8
#     4  12  22  34  57  83 119 154 185 240 292 338
#     4  11  20  38  56  81 121 155 190 234 292 359
#     4  11  21  34  52  86 116 145 193 238 290 349
#     4  10  22  34  55  82 117 155 188 235 300 360
#     4  11  21  38  54  79 119 158 193 229 287 350
#     4  11  22  35  59  80 111 162 193 231 291 355
#
# _framework density 18.355467999999998
#
# number of rings (size 3 to 8) (size 9 to 14) (size 15 to 20)
#    0.000    1.000    6.667    1.000    9.333    0.000 
#    0.000    0.000    0.000    0.000    0.000   11.667 
#    0.000    0.000    0.000    0.000    0.000    0.000 
#
# Total GULP energy -267333.484497 kJ/mol
# GULP energy per Si atom -5569.447594 kJ/mol
# Density = 1.831369 g / cm^3
# Si number density = 18.355468 Si / 1000 Ang^3
#
#
#
# Elastic Constant Matrix: (Units=GPa)
#
#
# Indices 1 2 3 4 5 6 
#
# 1 144.5414 44.7276 23.8721 0.0000 0.0000 0.0000
# 2 44.7276 106.4645 16.3510 0.0000 0.0000 0.0000
# 3 23.8721 16.3510 18.0931 0.0000 0.0000 0.0000
# 4 0.0000 0.0000 0.0000 16.7280 0.0000 0.0000
# 5 0.0000 0.0000 0.0000 0.0000 71.2976 0.0000
# 6 0.0000 0.0000 0.0000 0.0000 0.0000 18.5104
#
#
#
# Elastic Compliance Matrix: (Units=1/GPa)
#
#
# Indices 1 2 3 4 5 6 
#
# 1 0.009329 -0.002356 -0.010179 0.000000 0.000000 0.000000
# 2 -0.002356 0.011501 -0.007286 0.000000 0.000000 0.000000
# 3 -0.010179 -0.007286 0.075284 0.000000 0.000000 0.000000
# 4 0.000000 0.000000 0.000000 0.059780 0.000000 0.000000
# 5 0.000000 0.000000 0.000000 0.000000 0.014026 0.000000
# 6 0.000000 0.000000 0.000000 0.000000 0.000000 0.054024
#
#
# Mechanical properties :
#
#
# Convention : Reuss Voigt Hill
#
# Bulk Modulus (GPa) = 17.70766 48.77784 33.24275
# Shear Modulus (GPa) = 17.70479 33.58376 25.64428
#
# Velocity S-wave (km/s) = 3.10909 4.28206 3.74182
# Velocity P-wave (km/s) = 4.74938 7.14701 6.06780
#
# Compressibility (1/GPa) = 0.05647274
#
# Stress axis : x y z
#
# Youngs Moduli (GPa) = 107.19738 86.94540 13.28298
#
# Poissons Ratio (x) = 0.20482 0.13521
# Poissons Ratio (y) = 0.25253 0.09678
# Poissons Ratio (z) = 1.09118 0.63347
#
# Static dielectric constant tensor:
#      x y z
#    x 1.709410 0.000000 0.000000 
#    y 0.000000 1.652660 0.000000 
#    z 0.000000 0.000000 1.658640 
# 
# From -- ./inp_files/22277.got.cif
#   From: 2010.05.17/outbox.cif.g08.bks.cpg/sg52_12_cif.got.tgz:22277.got - 2010.06.03 12:15:38.
