data_PCOD9411652
_publ_section_title
;
Structure prediction by ZEFSAII (Michael W. Deem and Ramdas Pophale) SiO2 
 PCOD9411652
Probable space group: P N N A
;
_chemical_formula_sum "Si O2"
_cell_formula_units_Z 48
_cell_length_a 8.158831
_cell_length_b 12.367529
_cell_length_c 23.093209
_cell_angle_alpha 90.000000
_cell_angle_beta 90.000000
_cell_angle_gamma 90.000000
_cell_volume 2330.210532
_symmetry_space_group_name_H-M "P N N A"
_symmetry_group_IT_number 52
_symmetry_cell_setting 'orthorhombic'
loop_
_space_group_symop_operation_xyz
x,y,z
1/2-x,-y,z
x,1/2-y,1/2-z
1/2-x,1/2+y,1/2-z
-x,-y,-z
1/2+x,y,-z
-x,1/2+y,1/2+z
1/2+x,1/2-y,1/2+z
loop_
_atom_site_type_symbol
_atom_site_label
_atom_site_fract_x
_atom_site_fract_y
_atom_site_fract_z
Si Si1 0.345790 0.099231 0.456754
Si Si2 0.073652 0.243553 0.026697
Si Si3 0.385557 0.840411 0.299706
Si Si4 0.233762 0.777130 0.681799
Si Si5 0.268273 0.127850 0.922855
Si Si6 0.458249 0.073452 0.331609
O O1 0.218531 0.194952 0.439756
O O2 0.467191 0.159310 0.499571
O O3 0.429298 0.049443 0.399645
O O4 0.250000 0.000000 0.485583
O O5 0.953253 0.163962 0.060672
O O6 0.155673 0.179668 0.973127
O O7 0.386996 0.750000 0.250000
O O8 0.547714 0.807645 0.336112
O O9 0.195664 0.848517 0.317802
O O10 0.433511 0.967608 0.291757
O O11 0.235405 0.750000 0.750000
O O12 0.280168 0.680242 0.638652
O O13 0.366471 0.871493 0.674290
O O14 0.250000 0.000000 0.921912
#
# Coordination Sequence:
#
# PCOD9411652 Si02
#       6
#     8   8   8   8   8   8
#     4  11  20  38  62  94 130 166 211 273 335 402
#     4  10  23  40  64  97 130 170 221 276 342 408
#     4  10  22  39  62  88 123 168 218 269 329 398
#     4  11  24  42  65  94 132 175 225 269 334 405
#     4  11  23  42  67  94 132 174 224 282 338 404
#     4  11  21  40  65  90 129 169 214 276 332 390
#
# _framework density 20.598997000000001
#
# number of rings (size 3 to 8) (size 9 to 14) (size 15 to 20)
#    0.000    1.333    3.333    3.000    0.000    2.667 
#    0.000    0.000    0.000    0.000    0.000    0.000 
#    0.000    0.000    0.000    0.000    0.000    0.000 
#
# Total GULP energy -267529.703843 kJ/mol
# GULP energy per Si atom -5573.535497 kJ/mol
# Density = 2.055211 g / cm^3
# Si number density = 20.598997 Si / 1000 Ang^3
#
#
#
# Elastic Constant Matrix: (Units=GPa)
#
#
# Indices 1 2 3 4 5 6 
#
# 1 82.1160 30.9351 19.1145 0.0000 0.0000 0.0000
# 2 30.9351 132.9739 51.3008 0.0000 0.0000 0.0000
# 3 19.1145 51.3008 79.2355 0.0000 0.0000 0.0000
# 4 0.0000 0.0000 0.0000 -12.8878 0.0000 0.0000
# 5 0.0000 0.0000 0.0000 0.0000 20.2170 0.0000
# 6 0.0000 0.0000 0.0000 0.0000 0.0000 34.5929
#
#
#
# Elastic Compliance Matrix: (Units=1/GPa)
#
#
# Indices 1 2 3 4 5 6 
#
# 1 0.013504 -0.002512 -0.001631 0.000000 0.000000 0.000000
# 2 -0.002512 0.010492 -0.006187 0.000000 0.000000 0.000000
# 3 -0.001631 -0.006187 0.017020 0.000000 0.000000 0.000000
# 4 0.000000 0.000000 0.000000 -0.077593 0.000000 0.000000
# 5 0.000000 0.000000 0.000000 0.000000 0.049463 0.000000
# 6 0.000000 0.000000 0.000000 0.000000 0.000000 0.028908
#
#
# Mechanical properties :
#
#
# Convention : Reuss Voigt Hill
#
# Bulk Modulus (GPa) = 49.12780 55.22514 52.17647
# Shear Modulus (GPa) = 72.21441 21.24942 46.73192
#
# Velocity S-wave (km/s) = 5.92734 3.21530 4.76820
# Velocity P-wave (km/s) = 8.41106 6.37589 7.46317
#
# Compressibility (1/GPa) = 0.02035507
#
# Stress axis : x y z
#
# Youngs Moduli (GPa) = 74.05203 95.31507 58.75581
#
# Poissons Ratio (x) = 0.23946 0.09584
# Poissons Ratio (y) = 0.18604 0.36350
# Poissons Ratio (z) = 0.12078 0.58968
#
# Static dielectric constant tensor:
#      x y z
#    x 1.787260 0.000000 0.000000 
#    y 0.000000 1.712100 0.000000 
#    z 0.000000 0.000000 1.755310 
# 
# From -- ./inp_files/39438.got.cif
#   From: 2010.05.17/outbox.cif.g08.bks.cpg/sg52_20_cif.got.tgz:39438.got - 2010.06.03 12:15:38.
