data_PCOD9411599
_publ_section_title
;
Structure prediction by ZEFSAII (Michael W. Deem and Ramdas Pophale) SiO2 
 PCOD9411599
Probable space group: P N N A
;
_chemical_formula_sum "Si O2"
_cell_formula_units_Z 56
_cell_length_a 9.155995
_cell_length_b 13.868264
_cell_length_c 20.471723
_cell_angle_alpha 90.000000
_cell_angle_beta 90.000000
_cell_angle_gamma 90.000000
_cell_volume 2599.453445
_symmetry_space_group_name_H-M "P N N A"
_symmetry_group_IT_number 52
_symmetry_cell_setting 'orthorhombic'
loop_
_space_group_symop_operation_xyz
x,y,z
1/2-x,-y,z
x,1/2-y,1/2-z
1/2-x,1/2+y,1/2-z
-x,-y,-z
1/2+x,y,-z
-x,1/2+y,1/2+z
1/2+x,1/2-y,1/2+z
loop_
_atom_site_type_symbol
_atom_site_label
_atom_site_fract_x
_atom_site_fract_y
_atom_site_fract_z
Si Si1 0.065868 0.154527 0.156290
Si Si2 0.008556 0.337693 0.850509
Si Si3 0.875733 0.575135 0.019876
Si Si4 0.662969 0.141222 0.625284
Si Si5 0.578135 0.985482 0.068294
Si Si6 0.096737 0.628053 0.337588
Si Si7 0.467954 0.996047 0.272755
O O1 0.074454 0.269525 0.157086
O O2 0.237001 0.135428 0.137034
O O3 0.016064 0.093083 0.220728
O O4 0.962005 0.117647 0.098932
O O5 0.834280 0.354140 0.859618
O O6 0.995799 0.226227 0.828382
O O7 0.076093 0.420504 0.802654
O O8 0.082165 0.354929 0.920795
O O9 0.750000 0.500000 0.039357
O O10 0.846586 0.633437 0.952932
O O11 0.000000 0.500000 0.000000
O O12 0.595836 0.050206 0.662152
O O13 0.501945 0.060975 0.117300
O O14 0.750000 0.000000 0.064109
O O15 0.500000 0.000000 0.000000
O O16 0.124510 0.571556 0.270330
#
# Coordination Sequence:
#
# PCOD9411599 Si02
#       7
#     8   8   8   8   8   8   8
#     4  10  22  38  64  96 125 166 213 259 316 377
#     4  11  22  38  63  96 131 167 210 265 316 374
#     4  12  23  42  62  92 128 171 214 261 320 376
#     4  11  21  37  64  96 130 165 214 265 312 376
#     4  11  23  43  64  87 125 166 210 264 319 379
#     4  10  22  39  64  96 125 164 215 259 316 379
#     4  11  19  37  66  96 130 164 210 264 315 371
#
# _framework density 21.542991000000001
#
# number of rings (size 3 to 8) (size 9 to 14) (size 15 to 20)
#    0.000    1.143    2.857    5.571    2.000    2.286 
#    2.571    2.857    0.000    6.857    0.000    0.000 
#    0.000    0.000    0.000    0.000    0.000    0.000 
#
# Total GULP energy -311770.359993 kJ/mol
# GULP energy per Si atom -5567.327857 kJ/mol
# Density = 2.149396 g / cm^3
# Si number density = 21.542991 Si / 1000 Ang^3
#
#
#
# Elastic Constant Matrix: (Units=GPa)
#
#
# Indices 1 2 3 4 5 6 
#
# 1 64.2455 13.3756 27.4626 0.0000 0.0000 0.0000
# 2 13.3756 144.2612 46.7351 0.0000 0.0000 0.0000
# 3 27.4626 46.7351 122.3663 0.0000 0.0000 0.0000
# 4 0.0000 0.0000 0.0000 19.5342 0.0000 0.0000
# 5 0.0000 0.0000 0.0000 0.0000 15.3122 0.0000
# 6 0.0000 0.0000 0.0000 0.0000 0.0000 26.2223
#
#
#
# Elastic Compliance Matrix: (Units=1/GPa)
#
#
# Indices 1 2 3 4 5 6 
#
# 1 0.017237 -0.000394 -0.003718 0.000000 0.000000 0.000000
# 2 -0.000394 0.007920 -0.002936 0.000000 0.000000 0.000000
# 3 -0.003718 -0.002936 0.010128 0.000000 0.000000 0.000000
# 4 0.000000 0.000000 0.000000 0.051192 0.000000 0.000000
# 5 0.000000 0.000000 0.000000 0.000000 0.065307 0.000000
# 6 0.000000 0.000000 0.000000 0.000000 0.000000 0.038135
#
#
# Mechanical properties :
#
#
# Convention : Reuss Voigt Hill
#
# Bulk Modulus (GPa) = 47.19613 56.22441 51.71027
# Shear Modulus (GPa) = 23.68788 28.43371 26.06079
#
# Velocity S-wave (km/s) = 3.31956 3.63693 3.48186
# Velocity P-wave (km/s) = 6.05377 6.61753 6.34192
#
# Compressibility (1/GPa) = 0.02118818
#
# Stress axis : x y z
#
# Youngs Moduli (GPa) = 58.01615 126.26820 98.73503
#
# Poissons Ratio (x) = 0.04970 0.36710
# Poissons Ratio (y) = 0.02284 0.28993
# Poissons Ratio (z) = 0.21571 0.37077
#
# Static dielectric constant tensor:
#      x y z
#    x 1.800700 0.000000 0.000000 
#    y 0.000000 1.839250 0.000000 
#    z 0.000000 0.000000 1.863460 
# 
# From -- ./inp_files/36049.got.cif
#   From: 2010.05.17/outbox.cif.g08.bks.cpg/sg52_19_cif.got.tgz:36049.got - 2010.06.03 12:15:38.
