data_PCOD9411931
_publ_section_title
;
Structure prediction by ZEFSAII (Michael W. Deem and Ramdas Pophale) SiO2 
 PCOD9411931
Probable space group: P N N A
;
_chemical_formula_sum "Si O2"
_cell_formula_units_Z 40
_cell_length_a 26.790040
_cell_length_b 5.485637
_cell_length_c 12.127187
_cell_angle_alpha 90.000000
_cell_angle_beta 90.000000
_cell_angle_gamma 90.000000
_cell_volume 1782.216673
_symmetry_space_group_name_H-M "P N N A"
_symmetry_group_IT_number 52
_symmetry_cell_setting 'orthorhombic'
loop_
_space_group_symop_operation_xyz
x,y,z
1/2-x,-y,z
x,1/2-y,1/2-z
1/2-x,1/2+y,1/2-z
-x,-y,-z
1/2+x,y,-z
-x,1/2+y,1/2+z
1/2+x,1/2-y,1/2+z
loop_
_atom_site_type_symbol
_atom_site_label
_atom_site_fract_x
_atom_site_fract_y
_atom_site_fract_z
Si Si1 0.809745 0.997429 0.187692
Si Si2 0.374184 0.119511 0.016479
Si Si3 0.046663 0.598963 0.863573
Si Si4 0.775672 0.253230 0.881161
Si Si5 0.957951 0.796929 0.982232
O O1 0.822871 0.250000 0.250000
O O2 0.838940 0.999209 0.074613
O O3 0.750000 0.000000 0.174643
O O4 0.823293 0.750000 0.250000
O O5 0.413884 0.284435 0.950253
O O6 0.334515 0.255593 0.092240
O O7 0.408693 0.912574 0.069758
O O8 0.053017 0.750000 0.750000
O O9 0.988294 0.622652 0.899797
O O10 0.054727 0.314841 0.896500
O O11 0.750000 0.500000 0.927096
O O12 0.769003 0.250000 0.750000
O O13 0.750000 0.000000 0.919922
O O14 0.000000 0.000000 0.000000
#
# Coordination Sequence:
#
# PCOD9411931 Si02
#       5
#     8   8   8   8   8
#     4  10  23  39  58  93 135 173 212 261 328 401
#     4  11  23  37  66  95 125 173 224 275 336 414
#     4  10  22  42  65  94 133 175 218 285 353 417
#     4  10  24  46  68  96 136 180 228 287 347 405
#     4   9  22  42  60  92 128 172 225 273 343 416
#
# _framework density 22.443959
#
# number of rings (size 3 to 8) (size 9 to 14) (size 15 to 20)
#    0.000    2.000    0.000    1.200    8.400    4.800 
#   10.800    0.000    0.000    0.000    0.000    0.000 
#    0.000    0.000    0.000    0.000    0.000    0.000 
#
# Total GULP energy -222866.499924 kJ/mol
# GULP energy per Si atom -5571.662498 kJ/mol
# Density = 2.239288 g / cm^3
# Si number density = 22.443959 Si / 1000 Ang^3
#
#
#
# Elastic Constant Matrix: (Units=GPa)
#
#
# Indices 1 2 3 4 5 6 
#
# 1 120.4291 41.5208 6.2596 0.0000 0.0000 0.0000
# 2 41.5208 125.3402 26.2042 0.0000 0.0000 0.0000
# 3 6.2596 26.2042 29.1403 0.0000 0.0000 0.0000
# 4 0.0000 0.0000 0.0000 17.2374 0.0000 0.0000
# 5 0.0000 0.0000 0.0000 0.0000 32.2575 0.0000
# 6 0.0000 0.0000 0.0000 0.0000 0.0000 -55.0549
#
#
#
# Elastic Compliance Matrix: (Units=1/GPa)
#
#
# Indices 1 2 3 4 5 6 
#
# 1 0.009396 -0.003314 0.000961 0.000000 0.000000 0.000000
# 2 -0.003314 0.010994 -0.009174 0.000000 0.000000 0.000000
# 3 0.000961 -0.009174 0.042360 0.000000 0.000000 0.000000
# 4 0.000000 0.000000 0.000000 0.058013 0.000000 0.000000
# 5 0.000000 0.000000 0.000000 0.000000 0.031001 0.000000
# 6 0.000000 0.000000 0.000000 0.000000 0.000000 -0.018164
#
#
# Mechanical properties :
#
#
# Convention : Reuss Voigt Hill
#
# Bulk Modulus (GPa) = 25.19086 46.98653 36.08870
# Shear Modulus (GPa) = 29.43141 12.28299 20.85720
#
# Velocity S-wave (km/s) = 3.62516 2.34193 3.05175
# Velocity P-wave (km/s) = 5.36382 5.31915 5.34153
#
# Compressibility (1/GPa) = 0.03969693
#
# Stress axis : x y z
#
# Youngs Moduli (GPa) = 106.42703 90.95856 23.60702
#
# Poissons Ratio (x) = 0.30140 -0.02269
# Poissons Ratio (y) = 0.35265 0.21658
# Poissons Ratio (z) = -0.10231 0.83450
#
# Static dielectric constant tensor:
#      x y z
#    x 1.830630 0.000000 0.000000 
#    y 0.000000 1.133300 0.000000 
#    z 0.000000 0.000000 1.860120 
# 
# From -- ./inp_files/22646.got.cif
#   From: 2010.05.17/outbox.cif.g08.bks.cpg/sg52_12_cif.got.tgz:22646.got - 2010.06.03 12:15:38.
