data_PCOD9411892
_publ_section_title
;
Structure prediction by ZEFSAII (Michael W. Deem and Ramdas Pophale) SiO2 
 PCOD9411892
Probable space group: P N N A
;
_chemical_formula_sum "Si O2"
_cell_formula_units_Z 24
_cell_length_a 8.446461
_cell_length_b 9.327091
_cell_length_c 11.075900
_cell_angle_alpha 90.000000
_cell_angle_beta 90.000000
_cell_angle_gamma 90.000000
_cell_volume 872.569485
_symmetry_space_group_name_H-M "P N N A"
_symmetry_group_IT_number 52
_symmetry_cell_setting 'orthorhombic'
loop_
_space_group_symop_operation_xyz
x,y,z
1/2-x,-y,z
x,1/2-y,1/2-z
1/2-x,1/2+y,1/2-z
-x,-y,-z
1/2+x,y,-z
-x,1/2+y,1/2+z
1/2+x,1/2-y,1/2+z
loop_
_atom_site_type_symbol
_atom_site_label
_atom_site_fract_x
_atom_site_fract_y
_atom_site_fract_z
Si Si1 0.250000 0.000000 0.433361
Si Si2 0.042487 0.911954 0.244146
Si Si3 0.729279 0.717326 0.131396
Si Si4 0.250000 0.500000 0.475505
O O1 0.388963 0.973767 0.338937
O O2 0.317101 0.122551 0.518400
O O3 0.117850 0.750000 0.250000
O O4 0.100951 0.970288 0.114498
O O5 0.871443 0.873322 0.302801
O O6 0.625469 0.750000 0.250000
O O7 0.775480 0.864405 0.063358
#
# Coordination Sequence:
#
# PCOD9411892 Si02
#       4
#     4   8   8   4
#     4  11  21  44  62  98 137 175 224 288 326 415
#     4  10  22  41  70  97 129 181 226 276 342 399
#     4  11  24  41  68  99 135 178 227 280 343 405
#     4  11  23  46  70  98 143 179 224 290 332 407
#
# _framework density 27.504971999999999
#
# number of rings (size 3 to 8) (size 9 to 14) (size 15 to 20)
#    0.000    1.333    3.333    2.000    0.000    5.333 
#    6.000    0.000    0.000    0.000    0.000    0.000 
#    0.000    0.000    0.000    0.000    0.000    0.000 
#
# Total GULP energy -133726.331971 kJ/mol
# GULP energy per Si atom -5571.930499 kJ/mol
# Density = 2.744237 g / cm^3
# Si number density = 27.504972 Si / 1000 Ang^3
#
#
#
# Elastic Constant Matrix: (Units=GPa)
#
#
# Indices 1 2 3 4 5 6 
#
# 1 73.7034 21.5773 47.5656 0.0000 0.0000 0.0000
# 2 21.5773 106.9768 79.5878 0.0000 0.0000 0.0000
# 3 47.5656 79.5878 293.1491 0.0000 0.0000 0.0000
# 4 0.0000 0.0000 0.0000 66.1024 0.0000 0.0000
# 5 0.0000 0.0000 0.0000 0.0000 -45.8498 0.0000
# 6 0.0000 0.0000 0.0000 0.0000 0.0000 35.5665
#
#
#
# Elastic Compliance Matrix: (Units=1/GPa)
#
#
# Indices 1 2 3 4 5 6 
#
# 1 0.015359 -0.001559 -0.002069 0.000000 0.000000 0.000000
# 2 -0.001559 0.011872 -0.002970 0.000000 0.000000 0.000000
# 3 -0.002069 -0.002970 0.004553 0.000000 0.000000 0.000000
# 4 0.000000 0.000000 0.000000 0.015128 0.000000 0.000000
# 5 0.000000 0.000000 0.000000 0.000000 -0.021810 0.000000
# 6 0.000000 0.000000 0.000000 0.000000 0.000000 0.028116
#
#
# Mechanical properties :
#
#
# Convention : Reuss Voigt Hill
#
# Bulk Modulus (GPa) = 53.79562 85.69895 69.74728
# Shear Modulus (GPa) = 68.85997 32.83706 50.84852
#
# Velocity S-wave (km/s) = 5.00897 3.45898 4.30432
# Velocity P-wave (km/s) = 7.28382 6.86862 7.07927
#
# Compressibility (1/GPa) = 0.01858887
#
# Stress axis : x y z
#
# Youngs Moduli (GPa) = 65.10630 84.23180 219.61885
#
# Poissons Ratio (x) = 0.13130 0.45439
# Poissons Ratio (y) = 0.10148 0.65232
# Poissons Ratio (z) = 0.13471 0.25019
#
# Static dielectric constant tensor:
#      x y z
#    x 2.392790 0.000000 0.000000 
#    y 0.000000 2.312740 0.000000 
#    z 0.000000 0.000000 2.110630 
# 
# From -- ./inp_files/17466.got.cif
#   From: 2010.05.17/outbox.cif.g08.bks.cpg/sg52_9_cif.got.tgz:17466.got - 2010.06.03 12:15:38.
