data_PCOD9411360
_publ_section_title
;
Structure prediction by ZEFSAII (Michael W. Deem and Ramdas Pophale) SiO2 
 PCOD9411360
Probable space group: P N N A
;
_chemical_formula_sum "Si O2"
_cell_formula_units_Z 40
_cell_length_a 8.504409
_cell_length_b 17.551899
_cell_length_c 12.090923
_cell_angle_alpha 90.000000
_cell_angle_beta 90.000000
_cell_angle_gamma 90.000000
_cell_volume 1804.794276
_symmetry_space_group_name_H-M "P N N A"
_symmetry_group_IT_number 52
_symmetry_cell_setting 'orthorhombic'
loop_
_space_group_symop_operation_xyz
x,y,z
1/2-x,-y,z
x,1/2-y,1/2-z
1/2-x,1/2+y,1/2-z
-x,-y,-z
1/2+x,y,-z
-x,1/2+y,1/2+z
1/2+x,1/2-y,1/2+z
loop_
_atom_site_type_symbol
_atom_site_label
_atom_site_fract_x
_atom_site_fract_y
_atom_site_fract_z
Si Si1 0.746463 0.261528 0.373486
Si Si2 0.343045 0.077666 0.400251
Si Si3 0.051405 0.172892 0.441140
Si Si4 0.643502 0.924515 0.055341
Si Si5 0.573581 0.528531 0.676959
O O1 0.685052 0.250000 0.250000
O O2 0.631299 0.222494 0.461646
O O3 0.771453 0.348989 0.407462
O O4 0.920034 0.222479 0.379256
O O5 0.201372 0.137963 0.377235
O O6 0.448915 0.106414 0.501101
O O7 0.456647 0.067675 0.293834
O O8 0.250000 0.000000 0.427000
O O9 0.750000 0.000000 0.046073
O O10 0.522298 0.952646 0.147942
O O11 0.568530 0.918805 0.932694
O O12 0.750000 0.500000 0.691098
#
# Coordination Sequence:
#
# PCOD9411360 Si02
#       5
#     8   8   8   8   8
#     4  11  27  43  67  94 140 174 219 272 344 385
#     4  10  21  42  69  95 131 175 222 267 326 393
#     4  10  25  44  62 100 132 177 218 274 327 400
#     4  10  23  41  64  95 125 164 222 269 315 397
#     4   9  21  38  68  92 117 160 221 263 330 367
#
# _framework density 22.163191000000001
#
# number of rings (size 3 to 8) (size 9 to 14) (size 15 to 20)
#    0.000    2.000    0.000    0.600   16.800    0.000 
#    0.000    4.000    0.000    0.000    0.000    0.000 
#    0.000    0.000    0.000    0.000    0.000    0.000 
#
# Total GULP energy -223359.739865 kJ/mol
# GULP energy per Si atom -5583.993497 kJ/mol
# Density = 2.211275 g / cm^3
# Si number density = 22.163191 Si / 1000 Ang^3
#
#
#
# Elastic Constant Matrix: (Units=GPa)
#
#
# Indices 1 2 3 4 5 6 
#
# 1 52.8229 7.2572 -4.8161 0.0000 0.0000 0.0000
# 2 7.2572 119.0769 37.4537 0.0000 0.0000 0.0000
# 3 -4.8161 37.4537 79.2738 0.0000 0.0000 0.0000
# 4 0.0000 0.0000 0.0000 -16.4936 0.0000 0.0000
# 5 0.0000 0.0000 0.0000 0.0000 -7.4978 0.0000
# 6 0.0000 0.0000 0.0000 0.0000 0.0000 44.7259
#
#
#
# Elastic Compliance Matrix: (Units=1/GPa)
#
#
# Indices 1 2 3 4 5 6 
#
# 1 0.019367 -0.001821 0.002037 0.000000 0.000000 0.000000
# 2 -0.001821 0.010035 -0.004852 0.000000 0.000000 0.000000
# 3 0.002037 -0.004852 0.015031 0.000000 0.000000 0.000000
# 4 0.000000 0.000000 0.000000 -0.060630 0.000000 0.000000
# 5 0.000000 0.000000 0.000000 0.000000 -0.133373 0.000000
# 6 0.000000 0.000000 0.000000 0.000000 0.000000 0.022358
#
#
# Mechanical properties :
#
#
# Convention : Reuss Voigt Hill
#
# Bulk Modulus (GPa) = 28.44066 36.77370 32.60718
# Shear Modulus (GPa) = -47.07222 18.23216 -14.42003
#
# Velocity S-wave (km/s) = -4.61357 2.87127 -2.55351
# Velocity P-wave (km/s) = 3.93952 5.25552 2.45975
#
# Compressibility (1/GPa) = 0.03516093
#
# Stress axis : x y z
#
# Youngs Moduli (GPa) = 51.63400 99.65166 66.53134
#
# Poissons Ratio (x) = 0.18147 -0.13552
# Poissons Ratio (y) = 0.09403 0.32279
# Poissons Ratio (z) = -0.10518 0.48348
#
# Static dielectric constant tensor:
#      x y z
#    x 1.871180 0.000000 0.000000 
#    y 0.000000 1.805000 0.000000 
#    z 0.000000 0.000000 1.901850 
# 
# From -- ./inp_files/16622.got.cif
#   From: 2010.05.17/outbox.cif.g08.bks.cpg/sg52_9_cif.got.tgz:16622.got - 2010.06.03 12:15:38.
