data_PCOD9411829
_publ_section_title
;
Structure prediction by ZEFSAII (Michael W. Deem and Ramdas Pophale) SiO2 
 PCOD9411829
Probable space group: P N N A
;
_chemical_formula_sum "Si O2"
_cell_formula_units_Z 40
_cell_length_a 9.862516
_cell_length_b 22.123234
_cell_length_c 7.473703
_cell_angle_alpha 90.000000
_cell_angle_beta 90.000000
_cell_angle_gamma 90.000000
_cell_volume 1630.692858
_symmetry_space_group_name_H-M "P N N A"
_symmetry_group_IT_number 52
_symmetry_cell_setting 'orthorhombic'
loop_
_space_group_symop_operation_xyz
x,y,z
1/2-x,-y,z
x,1/2-y,1/2-z
1/2-x,1/2+y,1/2-z
-x,-y,-z
1/2+x,y,-z
-x,1/2+y,1/2+z
1/2+x,1/2-y,1/2+z
loop_
_atom_site_type_symbol
_atom_site_label
_atom_site_fract_x
_atom_site_fract_y
_atom_site_fract_z
Si Si1 0.332309 0.736355 0.464996
Si Si2 0.084807 0.829899 0.856143
Si Si3 0.866194 0.038816 0.042675
Si Si4 0.781725 0.431372 0.854645
Si Si5 0.531282 0.147255 0.503672
O O1 0.303957 0.750000 0.250000
O O2 0.206598 0.703639 0.552182
O O3 0.451790 0.687401 0.465190
O O4 0.382057 0.796178 0.572563
O O5 0.054506 0.815139 0.650922
O O6 0.100940 0.901758 0.849255
O O7 0.798980 0.061740 0.858248
O O8 0.750000 0.000000 0.137123
O O9 0.000000 0.000000 0.000000
O O10 0.750000 0.500000 0.920286
O O11 0.650577 0.392988 0.910002
O O12 0.920705 0.396244 0.910811
#
# Coordination Sequence:
#
# PCOD9411829 Si02
#       5
#     8   8   8   8   8
#     4  10  22  41  63  94 131 168 213 269 326 391
#     4  11  22  41  66  94 128 170 217 269 325 393
#     4  11  23  41  64  94 129 171 222 275 330 400
#     4  11  24  44  66  97 136 175 221 281 341 402
#     4  11  24  43  67  99 135 174 223 278 336 404
#
# _framework density 24.529447999999999
#
# number of rings (size 3 to 8) (size 9 to 14) (size 15 to 20)
#    0.000    1.200    0.000    7.800    0.000    4.000 
#    0.000    5.000    0.000    0.000    0.000    0.000 
#    0.000    0.000    0.000    0.000    0.000    0.000 
#
# Total GULP energy -223750.277642 kJ/mol
# GULP energy per Si atom -5593.756941 kJ/mol
# Density = 2.447362 g / cm^3
# Si number density = 24.529448 Si / 1000 Ang^3
#
#
#
# Elastic Constant Matrix: (Units=GPa)
#
#
# Indices 1 2 3 4 5 6 
#
# 1 156.9841 54.6029 6.5386 0.0000 0.0000 0.0000
# 2 54.6029 134.3179 -2.6799 0.0000 0.0000 0.0000
# 3 6.5386 -2.6799 37.0199 0.0000 0.0000 0.0000
# 4 0.0000 0.0000 0.0000 34.6045 0.0000 0.0000
# 5 0.0000 0.0000 0.0000 0.0000 28.5587 0.0000
# 6 0.0000 0.0000 0.0000 0.0000 0.0000 29.9119
#
#
#
# Elastic Compliance Matrix: (Units=1/GPa)
#
#
# Indices 1 2 3 4 5 6 
#
# 1 0.007507 -0.003083 -0.001549 0.000000 0.000000 0.000000
# 2 -0.003083 0.008722 0.001176 0.000000 0.000000 0.000000
# 3 -0.001549 0.001176 0.027371 0.000000 0.000000 0.000000
# 4 0.000000 0.000000 0.000000 0.028898 0.000000 0.000000
# 5 0.000000 0.000000 0.000000 0.000000 0.035016 0.000000
# 6 0.000000 0.000000 0.000000 0.000000 0.000000 0.033431
#
#
# Mechanical properties :
#
#
# Convention : Reuss Voigt Hill
#
# Bulk Modulus (GPa) = 27.25681 49.47168 38.36424
# Shear Modulus (GPa) = 31.23329 36.60570 33.91950
#
# Velocity S-wave (km/s) = 3.57220 3.86724 3.72265
# Velocity P-wave (km/s) = 5.30567 6.33662 5.84393
#
# Compressibility (1/GPa) = 0.03668808
#
# Stress axis : x y z
#
# Youngs Moduli (GPa) = 133.21288 114.65780 36.53470
#
# Poissons Ratio (x) = 0.35344 0.05659
# Poissons Ratio (y) = 0.41064 -0.04296
# Poissons Ratio (z) = 0.20635 -0.13482
#
# Static dielectric constant tensor:
#      x y z
#    x 1.971460 0.000000 0.000000 
#    y 0.000000 2.492770 0.000000 
#    z 0.000000 0.000000 2.062310 
# 
# From -- ./inp_files/7420.got.cif
#   From: 2010.05.17/outbox.cif.g08.bks.cpg/sg52_4_cif.got.tgz:7420.got - 2010.06.03 12:15:38.
