data_PCOD9411798
_publ_section_title
;
Structure prediction by ZEFSAII (Michael W. Deem and Ramdas Pophale) SiO2 
 PCOD9411798
Probable space group: P N N A
;
_chemical_formula_sum "Si O2"
_cell_formula_units_Z 32
_cell_length_a 17.718329
_cell_length_b 7.708910
_cell_length_c 8.206128
_cell_angle_alpha 90.000000
_cell_angle_beta 90.000000
_cell_angle_gamma 90.000000
_cell_volume 1120.866847
_symmetry_space_group_name_H-M "P N N A"
_symmetry_group_IT_number 52
_symmetry_cell_setting 'orthorhombic'
loop_
_space_group_symop_operation_xyz
x,y,z
1/2-x,-y,z
x,1/2-y,1/2-z
1/2-x,1/2+y,1/2-z
-x,-y,-z
1/2+x,y,-z
-x,1/2+y,1/2+z
1/2+x,1/2-y,1/2+z
loop_
_atom_site_type_symbol
_atom_site_label
_atom_site_fract_x
_atom_site_fract_y
_atom_site_fract_z
Si Si1 0.750000 0.000000 0.313369
Si Si2 0.901452 0.423443 0.357366
Si Si3 0.679798 0.798319 0.587968
Si Si4 0.067408 0.110398 0.402295
Si Si5 0.432846 0.750000 0.750000
O O1 0.825399 0.983729 0.208686
O O2 0.768837 0.158972 0.433663
O O3 0.911230 0.250000 0.250000
O O4 0.879687 0.348357 0.531271
O O5 0.966078 0.560109 0.309259
O O6 0.723592 0.750000 0.750000
O O7 0.631011 0.967186 0.628362
O O8 0.061418 0.250000 0.250000
O O9 0.095586 0.211409 0.565419
O O10 0.000000 0.000000 0.500000
#
# Coordination Sequence:
#
# PCOD9411798 Si02
#       5
#     4   8   8   8   4
#     4  10  22  40  70 108 142 198 236 296 372 442
#     4  10  22  42  71 105 147 188 249 298 372 448
#     4  11  25  47  70 107 157 191 250 321 370 455
#     4  12  30  48  78 114 148 202 260 315 391 459
#     4  12  24  48  82 102 156 202 246 316 384 462
#
# _framework density 28.549332
#
# number of rings (size 3 to 8) (size 9 to 14) (size 15 to 20)
#    0.000    1.000    5.000    1.500   10.500    3.000 
#    0.000    0.000    0.000    0.000    0.000    0.000 
#    0.000    0.000    0.000    0.000    0.000    0.000 
#
# Total GULP energy -178184.930096 kJ/mol
# GULP energy per Si atom -5568.279065 kJ/mol
# Density = 2.848435 g / cm^3
# Si number density = 28.549332 Si / 1000 Ang^3
#
#
#
# Elastic Constant Matrix: (Units=GPa)
#
#
# Indices 1 2 3 4 5 6 
#
# 1 127.2063 37.6262 29.2243 0.0000 0.0000 0.0000
# 2 37.6262 201.2018 86.5095 0.0000 0.0000 0.0000
# 3 29.2243 86.5095 224.6741 0.0000 0.0000 0.0000
# 4 0.0000 0.0000 0.0000 62.8433 0.0000 0.0000
# 5 0.0000 0.0000 0.0000 0.0000 9.6054 0.0000
# 6 0.0000 0.0000 0.0000 0.0000 0.0000 37.2786
#
#
#
# Elastic Compliance Matrix: (Units=1/GPa)
#
#
# Indices 1 2 3 4 5 6 
#
# 1 0.008385 -0.001317 -0.000583 0.000000 0.000000 0.000000
# 2 -0.001317 0.006163 -0.002202 0.000000 0.000000 0.000000
# 3 -0.000583 -0.002202 0.005375 0.000000 0.000000 0.000000
# 4 0.000000 0.000000 0.000000 0.015913 0.000000 0.000000
# 5 0.000000 0.000000 0.000000 0.000000 0.104108 0.000000
# 6 0.000000 0.000000 0.000000 0.000000 0.000000 0.026825
#
#
# Mechanical properties :
#
#
# Convention : Reuss Voigt Hill
#
# Bulk Modulus (GPa) = 85.34038 95.53358 90.43698
# Shear Modulus (GPa) = 27.95192 48.59361 38.27276
#
# Velocity S-wave (km/s) = 3.13241 4.13012 3.66537
# Velocity P-wave (km/s) = 6.56047 7.50194 7.04695
#
# Compressibility (1/GPa) = 0.01171778
#
# Stress axis : x y z
#
# Youngs Moduli (GPa) = 119.26206 162.25536 186.06170
#
# Poissons Ratio (x) = 0.21372 0.10857
# Poissons Ratio (y) = 0.15709 0.40966
# Poissons Ratio (z) = 0.06959 0.35725
#
# Static dielectric constant tensor:
#      x y z
#    x 2.490000 0.000000 0.000000 
#    y 0.000000 2.576820 0.000000 
#    z 0.000000 0.000000 2.317880 
# 
# From -- ./inp_files/12847.got.cif
#   From: 2010.05.17/outbox.cif.g08.bks.cpg/sg52_7_cif.got.tgz:12847.got - 2010.06.03 12:15:38.
