data_PCOD9411005
_publ_section_title
;
Structure prediction by ZEFSAII (Michael W. Deem and Ramdas Pophale) SiO2 
 PCOD9411005
Probable space group: P N N A
;
_chemical_formula_sum "Si O2"
_cell_formula_units_Z 40
_cell_length_a 4.984562
_cell_length_b 11.670992
_cell_length_c 30.320908
_cell_angle_alpha 90.000000
_cell_angle_beta 90.000000
_cell_angle_gamma 90.000000
_cell_volume 1763.912250
_symmetry_space_group_name_H-M "P N N A"
_symmetry_group_IT_number 52
_symmetry_cell_setting 'orthorhombic'
loop_
_space_group_symop_operation_xyz
x,y,z
1/2-x,-y,z
x,1/2-y,1/2-z
1/2-x,1/2+y,1/2-z
-x,-y,-z
1/2+x,y,-z
-x,1/2+y,1/2+z
1/2+x,1/2-y,1/2+z
loop_
_atom_site_type_symbol
_atom_site_label
_atom_site_fract_x
_atom_site_fract_y
_atom_site_fract_z
Si Si1 0.250000 0.000000 0.580970
Si Si2 0.342737 0.611142 0.586717
Si Si3 0.750000 0.500000 0.656524
Si Si4 0.075344 0.684884 0.028889
Si Si5 0.646124 0.702316 0.144717
Si Si6 0.822177 0.237957 0.800959
O O1 0.030601 0.070173 0.552844
O O2 0.373979 0.094943 0.612830
O O3 0.250000 0.500000 0.559060
O O4 0.520926 0.548590 0.624029
O O5 0.502458 0.705463 0.558768
O O6 0.118960 0.686749 0.612492
O O7 0.719679 0.390784 0.688469
O O8 0.883141 0.688954 0.985709
O O9 0.429710 0.689118 0.182781
O O10 0.931482 0.723654 0.168098
O O11 0.890491 0.250000 0.750000
#
# Coordination Sequence:
#
# PCOD9411005 Si02
#       6
#     4   8   4   8   8   8
#     4  10  24  44  70  86 133 170 215 260 310 382
#     4  10  21  39  65  86 123 166 207 254 308 385
#     4  10  22  40  64  88 127 168 203 254 318 374
#     4  11  26  42  63  96 126 162 210 265 324 364
#     4  10  23  40  63  95 119 172 214 245 312 384
#     4  11  23  40  63  96 129 160 210 264 314 364
#
# _framework density 22.676866
#
# number of rings (size 3 to 8) (size 9 to 14) (size 15 to 20)
#    0.000    1.600    2.000    1.200    2.800    9.600 
#    0.000    0.000    0.000    0.000    0.000    0.000 
#    0.000    0.000    0.000    0.000    0.000    0.000 
#
# Total GULP energy -223457.663872 kJ/mol
# GULP energy per Si atom -5586.441597 kJ/mol
# Density = 2.262525 g / cm^3
# Si number density = 22.676866 Si / 1000 Ang^3
#
#
#
# Elastic Constant Matrix: (Units=GPa)
#
#
# Indices 1 2 3 4 5 6 
#
# 1 61.5511 5.2241 -1.0829 0.0000 0.0000 0.0000
# 2 5.2241 153.8417 52.7677 0.0000 0.0000 0.0000
# 3 -1.0829 52.7677 86.6335 0.0000 0.0000 0.0000
# 4 0.0000 0.0000 0.0000 34.2370 0.0000 0.0000
# 5 0.0000 0.0000 0.0000 0.0000 18.4699 0.0000
# 6 0.0000 0.0000 0.0000 0.0000 0.0000 10.0604
#
#
#
# Elastic Compliance Matrix: (Units=1/GPa)
#
#
# Indices 1 2 3 4 5 6 
#
# 1 0.016326 -0.000789 0.000685 0.000000 0.000000 0.000000
# 2 -0.000789 0.008255 -0.005038 0.000000 0.000000 0.000000
# 3 0.000685 -0.005038 0.014620 0.000000 0.000000 0.000000
# 4 0.000000 0.000000 0.000000 0.029208 0.000000 0.000000
# 5 0.000000 0.000000 0.000000 0.000000 0.054142 0.000000
# 6 0.000000 0.000000 0.000000 0.000000 0.000000 0.099400
#
#
# Mechanical properties :
#
#
# Convention : Reuss Voigt Hill
#
# Bulk Modulus (GPa) = 34.58301 46.20491 40.39396
# Shear Modulus (GPa) = 20.67191 28.89461 24.78326
#
# Velocity S-wave (km/s) = 3.02252 3.57345 3.30947
# Velocity P-wave (km/s) = 5.24064 6.11929 5.69693
#
# Compressibility (1/GPa) = 0.02891593
#
# Stress axis : x y z
#
# Youngs Moduli (GPa) = 61.25308 121.13886 68.39951
#
# Poissons Ratio (x) = 0.09561 -0.04684
# Poissons Ratio (y) = 0.04835 0.34459
# Poissons Ratio (z) = -0.04195 0.61029
#
# Static dielectric constant tensor:
#      x y z
#    x 1.881580 0.000000 0.000000 
#    y 0.000000 2.408020 0.000000 
#    z 0.000000 0.000000 1.839050 
# 
# From -- ./inp_files/43676.got.cif
#   From: 2010.05.17/outbox.cif.g08.bks.cpg/sg52_22_cif.got.tgz:43676.got - 2010.06.03 12:15:38.
