data_PCOD9411267
_publ_section_title
;
Structure prediction by ZEFSAII (Michael W. Deem and Ramdas Pophale) SiO2 
 PCOD9411267
Probable space group: P N N A
;
_chemical_formula_sum "Si O2"
_cell_formula_units_Z 36
_cell_length_a 9.181923
_cell_length_b 16.921233
_cell_length_c 9.690251
_cell_angle_alpha 90.000000
_cell_angle_beta 90.000000
_cell_angle_gamma 90.000000
_cell_volume 1505.569050
_symmetry_space_group_name_H-M "P N N A"
_symmetry_group_IT_number 52
_symmetry_cell_setting 'orthorhombic'
loop_
_space_group_symop_operation_xyz
x,y,z
1/2-x,-y,z
x,1/2-y,1/2-z
1/2-x,1/2+y,1/2-z
-x,-y,-z
1/2+x,y,-z
-x,1/2+y,1/2+z
1/2+x,1/2-y,1/2+z
loop_
_atom_site_type_symbol
_atom_site_label
_atom_site_fract_x
_atom_site_fract_y
_atom_site_fract_z
Si Si1 0.179571 0.842038 0.955459
Si Si2 0.750000 0.000000 0.890273
Si Si3 0.361486 0.750000 0.750000
Si Si4 0.250000 0.500000 0.934755
Si Si5 0.043304 0.423253 0.164263
Si Si6 0.586105 0.258632 0.951834
O O1 0.251456 0.775646 0.056720
O O2 0.267208 0.820675 0.816727
O O3 0.197152 0.927949 0.015694
O O4 0.015036 0.817458 0.938068
O O5 0.621883 0.034623 0.792874
O O6 0.436911 0.716052 0.886874
O O7 0.952237 0.828527 0.649873
O O8 0.377366 0.453693 0.852839
O O9 0.149578 0.446945 0.035922
#
# Coordination Sequence:
#
# PCOD9411267 Si02
#       6
#     8   4   4   4   8   8
#     4  10  24  48  73 108 144 200 245 305 378 430
#     4  11  26  46  73 112 157 186 243 318 380 445
#     4   8  24  46  68 104 144 192 256 296 346 454
#     4   9  20  38  63 104 159 188 239 300 380 413
#     4  10  21  41  68 114 147 196 246 305 367 448
#     4  10  22  45  76 102 143 199 253 297 364 442
#
# _framework density 23.911225000000002
#
# number of rings (size 3 to 8) (size 9 to 14) (size 15 to 20)
#    1.333    0.889    0.000    1.333    0.000   10.667 
#    0.000    2.222    0.000    0.000    0.000    0.000 
#    0.000    0.000    0.000    0.000    0.000    0.000 
#
# Total GULP energy -200930.360617 kJ/mol
# GULP energy per Si atom -5581.398906 kJ/mol
# Density = 2.385680 g / cm^3
# Si number density = 23.911225 Si / 1000 Ang^3
#
#
#
# Elastic Constant Matrix: (Units=GPa)
#
#
# Indices 1 2 3 4 5 6 
#
# 1 140.9945 49.1170 54.4461 0.0000 0.0000 0.0000
# 2 49.1170 161.8214 81.1379 0.0000 0.0000 0.0000
# 3 54.4461 81.1379 147.3917 0.0000 0.0000 0.0000
# 4 0.0000 0.0000 0.0000 41.0008 0.0000 0.0000
# 5 0.0000 0.0000 0.0000 0.0000 17.6989 0.0000
# 6 0.0000 0.0000 0.0000 0.0000 0.0000 35.2538
#
#
#
# Elastic Compliance Matrix: (Units=1/GPa)
#
#
# Indices 1 2 3 4 5 6 
#
# 1 0.008492 -0.001388 -0.002373 0.000000 0.000000 0.000000
# 2 -0.001388 0.008762 -0.004311 0.000000 0.000000 0.000000
# 3 -0.002373 -0.004311 0.010034 0.000000 0.000000 0.000000
# 4 0.000000 0.000000 0.000000 0.024390 0.000000 0.000000
# 5 0.000000 0.000000 0.000000 0.000000 0.056501 0.000000
# 6 0.000000 0.000000 0.000000 0.000000 0.000000 0.028366
#
#
# Mechanical properties :
#
#
# Convention : Reuss Voigt Hill
#
# Bulk Modulus (GPa) = 89.72267 91.06771 90.39519
# Shear Modulus (GPa) = 31.96843 36.49113 34.22978
#
# Velocity S-wave (km/s) = 3.66042 3.91078 3.78767
# Velocity P-wave (km/s) = 7.44779 7.65250 7.55084
#
# Compressibility (1/GPa) = 0.01114546
#
# Stress axis : x y z
#
# Youngs Moduli (GPa) = 117.75378 114.12359 99.65693
#
# Poissons Ratio (x) = 0.15838 0.23649
# Poissons Ratio (y) = 0.16341 0.42962
# Poissons Ratio (z) = 0.27944 0.49199
#
# Static dielectric constant tensor:
#      x y z
#    x 1.868010 0.000000 0.000000 
#    y 0.000000 1.906190 0.000000 
#    z 0.000000 0.000000 1.979410 
# 
# From -- ./inp_files/7523.got.cif
#   From: 2010.05.17/outbox.cif.g08.bks.cpg/sg52_4_cif.got.tgz:7523.got - 2010.06.03 12:15:38.
