data_PCOD9411855
_publ_section_title
;
Structure prediction by ZEFSAII (Michael W. Deem and Ramdas Pophale) SiO2 
 PCOD9411855
Probable space group: P N N A
;
_chemical_formula_sum "Si O2"
_cell_formula_units_Z 36
_cell_length_a 21.290587
_cell_length_b 7.786308
_cell_length_c 9.733847
_cell_angle_alpha 90.000000
_cell_angle_beta 90.000000
_cell_angle_gamma 90.000000
_cell_volume 1613.629147
_symmetry_space_group_name_H-M "P N N A"
_symmetry_group_IT_number 52
_symmetry_cell_setting 'orthorhombic'
loop_
_space_group_symop_operation_xyz
x,y,z
1/2-x,-y,z
x,1/2-y,1/2-z
1/2-x,1/2+y,1/2-z
-x,-y,-z
1/2+x,y,-z
-x,1/2+y,1/2+z
1/2+x,1/2-y,1/2+z
loop_
_atom_site_type_symbol
_atom_site_label
_atom_site_fract_x
_atom_site_fract_y
_atom_site_fract_z
Si Si1 0.513864 0.548406 0.770648
Si Si2 0.880448 0.632426 0.616704
Si Si3 0.250000 0.000000 0.037472
Si Si4 0.292149 0.335181 0.886321
Si Si5 0.094059 0.043496 0.538947
O O1 0.518441 0.750000 0.750000
O O2 0.552214 0.456968 0.648071
O O3 0.442314 0.511239 0.817582
O O4 0.551032 0.496035 0.908066
O O5 0.868283 0.750000 0.750000
O O6 0.818820 0.513016 0.608266
O O7 0.887358 0.757256 0.484870
O O8 0.245133 0.818845 0.957971
O O9 0.250000 0.500000 0.849352
O O10 0.319325 0.250000 0.750000
O O11 0.347305 0.417678 0.974186
#
# Coordination Sequence:
#
# PCOD9411855 Si02
#       5
#     8   8   4   8   8
#     4  10  22  41  65  96 134 180 232 276 343 407
#     4  10  23  41  65 100 135 179 231 277 348 407
#     4  12  24  42  74  98 140 182 216 286 346 406
#     4  12  25  43  67  99 133 176 227 276 342 407
#     4  10  23  42  65  94 140 175 226 289 331 410
#
# _framework density 22.309961000000001
#
# number of rings (size 3 to 8) (size 9 to 14) (size 15 to 20)
#    0.000    1.333    3.333    1.333    0.000   12.444 
#    0.000    0.000    0.000    0.000    0.000    0.000 
#    0.000    0.000    0.000    0.000    0.000    0.000 
#
# Total GULP energy -200700.679729 kJ/mol
# GULP energy per Si atom -5575.018881 kJ/mol
# Density = 2.225918 g / cm^3
# Si number density = 22.309961 Si / 1000 Ang^3
#
#
#
# Elastic Constant Matrix: (Units=GPa)
#
#
# Indices 1 2 3 4 5 6 
#
# 1 98.9404 41.8924 27.3796 0.0000 0.0000 0.0000
# 2 41.8924 126.9960 21.3254 0.0000 0.0000 0.0000
# 3 27.3796 21.3254 26.3043 0.0000 0.0000 0.0000
# 4 0.0000 0.0000 0.0000 18.3339 0.0000 0.0000
# 5 0.0000 0.0000 0.0000 0.0000 30.6236 0.0000
# 6 0.0000 0.0000 0.0000 0.0000 0.0000 38.3115
#
#
#
# Elastic Compliance Matrix: (Units=1/GPa)
#
#
# Indices 1 2 3 4 5 6 
#
# 1 0.014946 -0.002683 -0.013382 0.000000 0.000000 0.000000
# 2 -0.002683 0.009597 -0.004987 0.000000 0.000000 0.000000
# 3 -0.013382 -0.004987 0.055989 0.000000 0.000000 0.000000
# 4 0.000000 0.000000 0.000000 0.054544 0.000000 0.000000
# 5 0.000000 0.000000 0.000000 0.000000 0.032655 0.000000
# 6 0.000000 0.000000 0.000000 0.000000 0.000000 0.026102
#
#
# Mechanical properties :
#
#
# Convention : Reuss Voigt Hill
#
# Bulk Modulus (GPa) = 26.02340 48.15950 37.09145
# Shear Modulus (GPa) = 20.10073 28.23002 24.16538
#
# Velocity S-wave (km/s) = 3.00488 3.56104 3.29472
# Velocity P-wave (km/s) = 4.87123 6.20817 5.57989
#
# Compressibility (1/GPa) = 0.03842695
#
# Stress axis : x y z
#
# Youngs Moduli (GPa) = 66.90562 104.20037 17.86060
#
# Poissons Ratio (x) = 0.27960 0.23901
# Poissons Ratio (y) = 0.17953 0.08908
# Poissons Ratio (z) = 0.89534 0.51969
#
# Static dielectric constant tensor:
#      x y z
#    x 1.882080 0.000000 0.000000 
#    y 0.000000 1.842900 0.000000 
#    z 0.000000 0.000000 1.848320 
# 
# From -- ./inp_files/12952.got.cif
#   From: 2010.05.17/outbox.cif.g08.bks.cpg/sg52_7_cif.got.tgz:12952.got - 2010.06.03 12:15:38.
