data_PCOD9411637
_publ_section_title
;
Structure prediction by ZEFSAII (Michael W. Deem and Ramdas Pophale) SiO2 
 PCOD9411637
Probable space group: P N N A
;
_chemical_formula_sum "Si O2"
_cell_formula_units_Z 48
_cell_length_a 14.620779
_cell_length_b 8.555676
_cell_length_c 18.543840
_cell_angle_alpha 90.000000
_cell_angle_beta 90.000000
_cell_angle_gamma 90.000000
_cell_volume 2319.660962
_symmetry_space_group_name_H-M "P N N A"
_symmetry_group_IT_number 52
_symmetry_cell_setting 'orthorhombic'
loop_
_space_group_symop_operation_xyz
x,y,z
1/2-x,-y,z
x,1/2-y,1/2-z
1/2-x,1/2+y,1/2-z
-x,-y,-z
1/2+x,y,-z
-x,1/2+y,1/2+z
1/2+x,1/2-y,1/2+z
loop_
_atom_site_type_symbol
_atom_site_label
_atom_site_fract_x
_atom_site_fract_y
_atom_site_fract_z
Si Si1 0.358135 0.750000 0.750000
Si Si2 0.492016 0.763709 0.527258
Si Si3 0.435896 0.421459 0.714638
Si Si4 0.250000 0.500000 0.485022
Si Si5 0.439225 0.960852 0.097402
Si Si6 0.216196 0.788373 0.880369
Si Si7 0.149777 0.529163 0.973621
O O1 0.414230 0.586154 0.753618
O O2 0.292622 0.761928 0.820130
O O3 0.478703 0.682285 0.449586
O O4 0.505161 0.619082 0.579891
O O5 0.582648 0.869104 0.523550
O O6 0.406279 0.872995 0.542508
O O7 0.425810 0.250000 0.750000
O O8 0.536744 0.428006 0.679626
O O9 0.358244 0.407342 0.652176
O O10 0.338600 0.512085 0.434429
O O11 0.245089 0.643296 0.541649
O O12 0.168396 0.625454 0.900722
O O13 0.250000 0.500000 0.005917
#
# Coordination Sequence:
#
# PCOD9411637 Si02
#       7
#     4   8   8   4   8   8   8
#     4  12  28  44  70 100 150 198 224 290 360 454
#     4  10  22  39  61 100 139 180 226 293 372 421
#     4  12  27  46  67 103 143 195 238 285 358 447
#     4  12  22  44  76 104 132 190 246 304 362 424
#     4  11  23  45  68  97 136 188 242 302 359 420
#     4  12  23  41  65 105 146 180 235 279 369 446
#     4  11  23  36  62 100 141 181 222 294 359 441
#
# _framework density 20.692678999999998
#
# number of rings (size 3 to 8) (size 9 to 14) (size 15 to 20)
#    0.000    0.667    5.833    2.000    4.667    0.000 
#    0.000    0.000    1.833    0.000    0.000    0.000 
#    0.000    0.000    0.000    0.000    0.000    0.000 
#
# Total GULP energy -268137.503753 kJ/mol
# GULP energy per Si atom -5586.197995 kJ/mol
# Density = 2.064558 g / cm^3
# Si number density = 20.692679 Si / 1000 Ang^3
#
#
#
# Elastic Constant Matrix: (Units=GPa)
#
#
# Indices 1 2 3 4 5 6 
#
# 1 136.6804 72.0363 48.1812 0.0000 0.0000 0.0000
# 2 72.0363 161.0077 38.3594 0.0000 0.0000 0.0000
# 3 48.1812 38.3594 53.1907 0.0000 0.0000 0.0000
# 4 0.0000 0.0000 0.0000 10.0998 0.0000 0.0000
# 5 0.0000 0.0000 0.0000 0.0000 36.5977 0.0000
# 6 0.0000 0.0000 0.0000 0.0000 0.0000 25.5903
#
#
#
# Elastic Compliance Matrix: (Units=1/GPa)
#
#
# Indices 1 2 3 4 5 6 
#
# 1 0.012105 -0.003385 -0.008524 0.000000 0.000000 0.000000
# 2 -0.003385 0.008446 -0.003025 0.000000 0.000000 0.000000
# 3 -0.008524 -0.003025 0.028703 0.000000 0.000000 0.000000
# 4 0.000000 0.000000 0.000000 0.099012 0.000000 0.000000
# 5 0.000000 0.000000 0.000000 0.000000 0.027324 0.000000
# 6 0.000000 0.000000 0.000000 0.000000 0.000000 0.039077
#
#
# Mechanical properties :
#
#
# Convention : Reuss Voigt Hill
#
# Bulk Modulus (GPa) = 51.58225 74.22586 62.90406
# Shear Modulus (GPa) = 19.92056 27.27767 23.59912
#
# Velocity S-wave (km/s) = 3.10608 3.63468 3.38073
# Velocity P-wave (km/s) = 6.15188 7.31867 6.76049
#
# Compressibility (1/GPa) = 0.01938652
#
# Stress axis : x y z
#
# Youngs Moduli (GPa) = 82.60884 118.39830 34.84000
#
# Poissons Ratio (x) = 0.40080 0.29697
# Poissons Ratio (y) = 0.27965 0.10538
# Poissons Ratio (z) = 0.70415 0.35811
#
# Static dielectric constant tensor:
#      x y z
#    x 1.791380 0.000000 0.000000 
#    y 0.000000 1.815530 0.000000 
#    z 0.000000 0.000000 1.765280 
# 
# From -- ./inp_files/33104.got.cif
#   From: 2010.05.17/outbox.cif.g08.bks.cpg/sg52_17_cif.got.tgz:33104.got - 2010.06.03 12:15:38.
