data_PCOD9411987
_publ_section_title
;
Structure prediction by ZEFSAII (Michael W. Deem and Ramdas Pophale) SiO2 
 PCOD9411987
Probable space group: P N N A
;
_chemical_formula_sum "Si O2"
_cell_formula_units_Z 32
_cell_length_a 11.877081
_cell_length_b 5.614912
_cell_length_c 19.803324
_cell_angle_alpha 90.000000
_cell_angle_beta 90.000000
_cell_angle_gamma 90.000000
_cell_volume 1320.659213
_symmetry_space_group_name_H-M "P N N A"
_symmetry_group_IT_number 52
_symmetry_cell_setting 'orthorhombic'
loop_
_space_group_symop_operation_xyz
x,y,z
1/2-x,-y,z
x,1/2-y,1/2-z
1/2-x,1/2+y,1/2-z
-x,-y,-z
1/2+x,y,-z
-x,1/2+y,1/2+z
1/2+x,1/2-y,1/2+z
loop_
_atom_site_type_symbol
_atom_site_label
_atom_site_fract_x
_atom_site_fract_y
_atom_site_fract_z
Si Si1 0.250000 0.500000 0.045510
Si Si2 0.158849 0.688874 0.565596
Si Si3 0.562692 0.750000 0.250000
Si Si4 0.076131 0.159399 0.121884
Si Si5 0.250000 0.000000 0.209552
Si Si6 0.250000 0.500000 0.810995
O O1 0.170896 0.322965 0.088023
O O2 0.161315 0.620880 0.994005
O O3 0.250000 0.500000 0.541885
O O4 0.213851 0.796228 0.634746
O O5 0.032543 0.595829 0.577261
O O6 0.484831 0.718489 0.185293
O O7 0.645844 0.523127 0.241189
O O8 0.143999 0.953321 0.159823
O O9 0.262821 0.750000 0.250000
#
# Coordination Sequence:
#
# PCOD9411987 Si02
#       6
#     4   8   4   8   4   4
#     4  11  25  50  72 104 156 196 264 308 382 467
#     4  10  24  48  74 108 141 196 256 320 384 446
#     4  10  22  42  70 110 144 194 238 306 392 456
#     4  11  25  45  74 107 150 197 248 314 383 462
#     4  12  27  52  73 113 162 203 252 306 394 478
#     4   9  22  40  67 105 150 177 234 310 376 461
#
# _framework density 24.230325000000001
#
# number of rings (size 3 to 8) (size 9 to 14) (size 15 to 20)
#    0.000    1.500    1.250    1.500    8.750    3.000 
#   13.500    0.000    0.000    0.000    0.000    0.000 
#    0.000    0.000    0.000    0.000    0.000    0.000 
#
# Total GULP energy -178183.083206 kJ/mol
# GULP energy per Si atom -5568.221350 kJ/mol
# Density = 2.417518 g / cm^3
# Si number density = 24.230325 Si / 1000 Ang^3
#
#
#
# Elastic Constant Matrix: (Units=GPa)
#
#
# Indices 1 2 3 4 5 6 
#
# 1 180.7455 30.2503 46.6239 0.0000 0.0000 0.0000
# 2 30.2503 63.4988 33.0557 0.0000 0.0000 0.0000
# 3 46.6239 33.0557 126.0783 0.0000 0.0000 0.0000
# 4 0.0000 0.0000 0.0000 69.1039 0.0000 0.0000
# 5 0.0000 0.0000 0.0000 0.0000 60.8334 0.0000
# 6 0.0000 0.0000 0.0000 0.0000 0.0000 36.8914
#
#
#
# Elastic Compliance Matrix: (Units=1/GPa)
#
#
# Indices 1 2 3 4 5 6 
#
# 1 0.006346 -0.002086 -0.001800 0.000000 0.000000 0.000000
# 2 -0.002086 0.018923 -0.004190 0.000000 0.000000 0.000000
# 3 -0.001800 -0.004190 0.009696 0.000000 0.000000 0.000000
# 4 0.000000 0.000000 0.000000 0.014471 0.000000 0.000000
# 5 0.000000 0.000000 0.000000 0.000000 0.016438 0.000000
# 6 0.000000 0.000000 0.000000 0.000000 0.000000 0.027107
#
#
# Mechanical properties :
#
#
# Convention : Reuss Voigt Hill
#
# Bulk Modulus (GPa) = 53.15428 65.57581 59.36505
# Shear Modulus (GPa) = 43.32606 50.72525 47.02566
#
# Velocity S-wave (km/s) = 4.23317 4.58040 4.41020
# Velocity P-wave (km/s) = 6.77331 7.42265 7.10540
#
# Compressibility (1/GPa) = 0.01881316
#
# Stress axis : x y z
#
# Youngs Moduli (GPa) = 157.57775 52.84470 103.13886
#
# Poissons Ratio (x) = 0.11025 0.18563
# Poissons Ratio (y) = 0.32875 0.43214
# Poissons Ratio (z) = 0.28361 0.22141
#
# Static dielectric constant tensor:
#      x y z
#    x 1.978680 0.000000 0.000000 
#    y 0.000000 2.197460 0.000000 
#    z 0.000000 0.000000 2.007710 
# 
# From -- ./inp_files/36517.got.cif
#   From: 2010.05.17/outbox.cif.g08.bks.cpg/sg52_19_cif.got.tgz:36517.got - 2010.06.03 12:15:38.
