data_PCOD9411596
_publ_section_title
;
Structure prediction by ZEFSAII (Michael W. Deem and Ramdas Pophale) SiO2 
 PCOD9411596
Probable space group: P N N A
;
_chemical_formula_sum "Si O2"
_cell_formula_units_Z 56
_cell_length_a 20.422266
_cell_length_b 25.657759
_cell_length_c 5.242819
_cell_angle_alpha 90.000000
_cell_angle_beta 90.000000
_cell_angle_gamma 90.000000
_cell_volume 2747.182522
_symmetry_space_group_name_H-M "P N N A"
_symmetry_group_IT_number 52
_symmetry_cell_setting 'orthorhombic'
loop_
_space_group_symop_operation_xyz
x,y,z
1/2-x,-y,z
x,1/2-y,1/2-z
1/2-x,1/2+y,1/2-z
-x,-y,-z
1/2+x,y,-z
-x,1/2+y,1/2+z
1/2+x,1/2-y,1/2+z
loop_
_atom_site_type_symbol
_atom_site_label
_atom_site_fract_x
_atom_site_fract_y
_atom_site_fract_z
Si Si1 0.307261 0.698469 0.876856
Si Si2 0.443484 0.698150 0.128674
Si Si3 0.624657 0.382892 0.496155
Si Si4 0.746470 0.561586 0.548830
Si Si5 0.300204 0.119033 0.528935
Si Si6 0.949435 0.118201 0.459189
Si Si7 0.503921 0.939169 0.939344
O O1 0.277864 0.750000 0.750000
O O2 0.336117 0.654990 0.689007
O O3 0.250598 0.666801 0.023147
O O4 0.375453 0.717133 0.002545
O O5 0.473632 0.750000 0.250000
O O6 0.414486 0.655310 0.319892
O O7 0.499460 0.665528 0.983195
O O8 0.680267 0.418650 0.617176
O O9 0.569593 0.419334 0.376210
O O10 0.750000 0.500000 0.513888
O O11 0.721070 0.589011 0.288768
O O12 0.704222 0.580124 0.789401
O O13 0.374860 0.137208 0.558795
O O14 0.955480 0.077122 0.690374
O O15 0.968989 0.090451 0.191701
O O16 0.500000 0.000000 0.000000
#
# Coordination Sequence:
#
# PCOD9411596 Si02
#       7
#     8   8   8   8   8   8   8
#     4  11  21  40  67  93 128 169 219 273 330 382
#     4  11  21  40  67  94 126 170 219 272 331 382
#     4  10  22  38  64  94 126 165 223 271 309 391
#     4  11  24  42  65  93 131 176 218 265 325 384
#     4  11  25  43  64  96 135 169 215 271 324 397
#     4  11  25  43  64  96 135 169 215 272 325 398
#     4  11  24  42  65  93 131 176 218 265 326 386
#
# _framework density 20.384522
#
# number of rings (size 3 to 8) (size 9 to 14) (size 15 to 20)
#    0.000    1.143    4.286    1.714    4.000    0.571 
#    0.000    0.000    0.000    6.000    0.000    0.000 
#    0.000    0.000    0.000    0.000    0.000    0.000 
#
# Total GULP energy -312265.170971 kJ/mol
# GULP energy per Si atom -5576.163767 kJ/mol
# Density = 2.033813 g / cm^3
# Si number density = 20.384522 Si / 1000 Ang^3
#
#
#
# Elastic Constant Matrix: (Units=GPa)
#
#
# Indices 1 2 3 4 5 6 
#
# 1 113.3201 32.6032 9.5454 0.0000 0.0000 0.0000
# 2 32.6032 102.4619 10.2591 0.0000 0.0000 0.0000
# 3 9.5454 10.2591 78.9974 0.0000 0.0000 0.0000
# 4 0.0000 0.0000 0.0000 26.9290 0.0000 0.0000
# 5 0.0000 0.0000 0.0000 0.0000 10.1277 0.0000
# 6 0.0000 0.0000 0.0000 0.0000 0.0000 19.7871
#
#
#
# Elastic Compliance Matrix: (Units=1/GPa)
#
#
# Indices 1 2 3 4 5 6 
#
# 1 0.009762 -0.003027 -0.000786 0.000000 0.000000 0.000000
# 2 -0.003027 0.010827 -0.001040 0.000000 0.000000 0.000000
# 3 -0.000786 -0.001040 0.012889 0.000000 0.000000 0.000000
# 4 0.000000 0.000000 0.000000 0.037135 0.000000 0.000000
# 5 0.000000 0.000000 0.000000 0.000000 0.098739 0.000000
# 6 0.000000 0.000000 0.000000 0.000000 0.000000 0.050538
#
#
# Mechanical properties :
#
#
# Convention : Reuss Voigt Hill
#
# Bulk Modulus (GPa) = 42.07059 44.39943 43.23501
# Shear Modulus (GPa) = 21.05079 27.52688 24.28884
#
# Velocity S-wave (km/s) = 3.21703 3.67874 3.45560
# Velocity P-wave (km/s) = 5.87217 6.31446 6.09732
#
# Compressibility (1/GPa) = 0.02376957
#
# Stress axis : x y z
#
# Youngs Moduli (GPa) = 102.43986 92.35988 77.58701
#
# Poissons Ratio (x) = 0.27962 0.06101
# Poissons Ratio (y) = 0.31013 0.08071
# Poissons Ratio (z) = 0.08056 0.09608
#
# Static dielectric constant tensor:
#      x y z
#    x 1.769320 0.000000 0.000000 
#    y 0.000000 1.612750 0.000000 
#    z 0.000000 0.000000 1.759930 
# 
# From -- ./inp_files/4520.got.cif
#   From: 2010.05.17/outbox.cif.g08.bks.cpg/sg52_3_cif.got.tgz:4520.got - 2010.06.03 12:15:38.
