data_PCOD9411159
_publ_section_title
;
Structure prediction by ZEFSAII (Michael W. Deem and Ramdas Pophale) SiO2 
 PCOD9411159
Probable space group: P N N A
;
_chemical_formula_sum "Si O2"
_cell_formula_units_Z 44
_cell_length_a 14.601888
_cell_length_b 15.530722
_cell_length_c 9.497546
_cell_angle_alpha 90.000000
_cell_angle_beta 90.000000
_cell_angle_gamma 90.000000
_cell_volume 2153.833188
_symmetry_space_group_name_H-M "P N N A"
_symmetry_group_IT_number 52
_symmetry_cell_setting 'orthorhombic'
loop_
_space_group_symop_operation_xyz
x,y,z
1/2-x,-y,z
x,1/2-y,1/2-z
1/2-x,1/2+y,1/2-z
-x,-y,-z
1/2+x,y,-z
-x,1/2+y,1/2+z
1/2+x,1/2-y,1/2+z
loop_
_atom_site_type_symbol
_atom_site_label
_atom_site_fract_x
_atom_site_fract_y
_atom_site_fract_z
Si Si1 0.857961 0.013832 0.759824
Si Si2 0.423652 0.305996 0.387201
Si Si3 0.607071 0.385900 0.487019
Si Si4 0.500000 0.000000 0.500000
Si Si5 0.353352 0.025024 0.747221
Si Si6 0.710607 0.698024 0.390804
O O1 0.919929 0.007954 0.622420
O O2 0.750000 0.000000 0.733194
O O3 0.875179 0.106251 0.834271
O O4 0.888930 0.940899 0.871413
O O5 0.444474 0.250000 0.250000
O O6 0.516265 0.330845 0.466946
O O7 0.356599 0.258384 0.496594
O O8 0.613195 0.452400 0.356769
O O9 0.696807 0.327548 0.469902
O O10 0.424480 0.028105 0.621745
O O11 0.340873 0.112451 0.835559
O O12 0.250000 0.000000 0.700118
O O13 0.732053 0.750000 0.250000
#
# Coordination Sequence:
#
# PCOD9411159 Si02
#       6
#     8   8   8   4   8   8
#     4  12  23  45  73  99 134 189 240 280 347 425
#     4  12  25  43  66 103 142 181 227 295 356 409
#     4  11  21  47  73  94 128 192 243 269 340 440
#     4  12  24  36  64 104 130 164 226 306 322 394
#     4  10  21  40  66  94 127 175 235 280 331 409
#     4  11  24  42  67 100 138 181 227 293 353 412
#
# _framework density 20.428695000000001
#
# number of rings (size 3 to 8) (size 9 to 14) (size 15 to 20)
#    0.000    0.727    5.455    3.273    2.545    0.000 
#    0.000    0.909    0.000    0.000    0.000    0.000 
#    0.000    0.000    0.000    0.000    0.000    0.000 
#
# Total GULP energy -245041.238125 kJ/mol
# GULP energy per Si atom -5569.119048 kJ/mol
# Density = 2.038220 g / cm^3
# Si number density = 20.428695 Si / 1000 Ang^3
#
#
#
# Elastic Constant Matrix: (Units=GPa)
#
#
# Indices 1 2 3 4 5 6 
#
# 1 114.7375 10.5387 70.4183 0.0000 0.0000 0.0000
# 2 10.5387 26.2746 8.7163 0.0000 0.0000 0.0000
# 3 70.4183 8.7163 117.5206 0.0000 0.0000 0.0000
# 4 0.0000 0.0000 0.0000 8.8824 0.0000 0.0000
# 5 0.0000 0.0000 0.0000 0.0000 48.1659 0.0000
# 6 0.0000 0.0000 0.0000 0.0000 0.0000 9.0393
#
#
#
# Elastic Compliance Matrix: (Units=1/GPa)
#
#
# Indices 1 2 3 4 5 6 
#
# 1 0.013998 -0.002903 -0.008172 0.000000 0.000000 0.000000
# 2 -0.002903 0.039622 -0.001199 0.000000 0.000000 0.000000
# 3 -0.008172 -0.001199 0.013495 0.000000 0.000000 0.000000
# 4 0.000000 0.000000 0.000000 0.112582 0.000000 0.000000
# 5 0.000000 0.000000 0.000000 0.000000 0.020762 0.000000
# 6 0.000000 0.000000 0.000000 0.000000 0.000000 0.110629
#
#
# Mechanical properties :
#
#
# Convention : Reuss Voigt Hill
#
# Bulk Modulus (GPa) = 23.49324 48.65325 36.07324
# Shear Modulus (GPa) = 14.29292 24.47482 19.38387
#
# Velocity S-wave (km/s) = 2.64796 3.46506 3.08369
# Velocity P-wave (km/s) = 4.56881 6.31480 5.51138
#
# Compressibility (1/GPa) = 0.04256544
#
# Stress axis : x y z
#
# Youngs Moduli (GPa) = 71.44022 25.23858 74.10273
#
# Poissons Ratio (x) = 0.07328 0.60557
# Poissons Ratio (y) = 0.20742 0.08884
# Poissons Ratio (z) = 0.58382 0.03026
#
# Static dielectric constant tensor:
#      x y z
#    x 1.719400 0.000000 0.000000 
#    y 0.000000 1.739860 0.000000 
#    z 0.000000 0.000000 1.680120 
# 
# From -- ./inp_files/10370.got.cif
#   From: 2010.05.17/outbox.cif.g08.bks.cpg/sg52_6_cif.got.tgz:10370.got - 2010.06.03 12:15:38.
