data_PCOD9411295
_publ_section_title
;
Structure prediction by ZEFSAII (Michael W. Deem and Ramdas Pophale) SiO2 
 PCOD9411295
Probable space group: P N N A
;
_chemical_formula_sum "Si O2"
_cell_formula_units_Z 64
_cell_length_a 14.914460
_cell_length_b 17.034449
_cell_length_c 12.307656
_cell_angle_alpha 90.000000
_cell_angle_beta 90.000000
_cell_angle_gamma 90.000000
_cell_volume 3126.878262
_symmetry_space_group_name_H-M "P N N A"
_symmetry_group_IT_number 52
_symmetry_cell_setting 'orthorhombic'
loop_
_space_group_symop_operation_xyz
x,y,z
1/2-x,-y,z
x,1/2-y,1/2-z
1/2-x,1/2+y,1/2-z
-x,-y,-z
1/2+x,y,-z
-x,1/2+y,1/2+z
1/2+x,1/2-y,1/2+z
loop_
_atom_site_type_symbol
_atom_site_label
_atom_site_fract_x
_atom_site_fract_y
_atom_site_fract_z
Si Si1 0.639639 0.824223 0.091979
Si Si2 0.697383 0.921505 0.687399
Si Si3 0.732070 0.407442 0.580526
Si Si4 0.387419 0.797004 0.642673
Si Si5 0.004660 0.067305 0.762138
Si Si6 0.296306 0.346247 0.960904
Si Si7 0.337443 0.052732 0.726609
Si Si8 0.043768 0.148197 0.987300
O O1 0.655059 0.731827 0.081788
O O2 0.669032 0.869027 0.200564
O O3 0.699553 0.861082 0.995967
O O4 0.536388 0.843353 0.071141
O O5 0.747987 0.888757 0.793857
O O6 0.597388 0.944899 0.726123
O O7 0.695111 0.860433 0.588753
O O8 0.750000 0.000000 0.652108
O O9 0.750000 0.500000 0.567317
O O10 0.632651 0.386476 0.541594
O O11 0.353586 0.750000 0.750000
O O12 0.454747 0.862329 0.688479
O O13 0.306158 0.836409 0.578291
O O14 0.433085 0.732449 0.565977
O O15 0.010862 0.094737 0.887020
O O16 0.072408 0.994890 0.750233
O O17 0.335108 0.421056 0.897997
O O18 0.250000 0.000000 0.751421
#
# Coordination Sequence:
#
# PCOD9411295 Si02
#       8
#     8   8   8   8   8   8   8   8
#     4  12  24  42  72 102 137 170 229 292 349 400
#     4  11  27  47  66  98 143 190 226 277 344 423
#     4  11  24  43  67 101 138 173 227 282 343 403
#     4  10  21  41  71  99 136 176 235 280 339 413
#     4  11  23  44  73 101 136 182 235 278 341 424
#     4  12  25  47  66  99 143 183 227 281 344 415
#     4  12  25  42  71 105 132 174 229 294 349 397
#     4  11  23  43  69 106 133 182 225 288 349 414
#
# _framework density 20.467697999999999
#
# number of rings (size 3 to 8) (size 9 to 14) (size 15 to 20)
#    0.000    0.750    3.750    4.125    3.500    2.000 
#    2.250    1.250    0.000    0.000    0.000    0.000 
#    0.000    0.000    0.000    0.000    0.000    0.000 
#
# Total GULP energy -358138.649240 kJ/mol
# GULP energy per Si atom -5595.916394 kJ/mol
# Density = 2.042111 g / cm^3
# Si number density = 20.467698 Si / 1000 Ang^3
#
#
#
# Elastic Constant Matrix: (Units=GPa)
#
#
# Indices 1 2 3 4 5 6 
#
# 1 126.4837 40.0590 29.9931 0.0000 0.0000 0.0000
# 2 40.0590 78.9634 35.6874 0.0000 0.0000 0.0000
# 3 29.9931 35.6874 88.6116 0.0000 0.0000 0.0000
# 4 0.0000 0.0000 0.0000 203.9991 0.0000 0.0000
# 5 0.0000 0.0000 0.0000 0.0000 36.4371 0.0000
# 6 0.0000 0.0000 0.0000 0.0000 0.0000 6.4488
#
#
#
# Elastic Compliance Matrix: (Units=1/GPa)
#
#
# Indices 1 2 3 4 5 6 
#
# 1 0.009596 -0.004157 -0.001574 0.000000 0.000000 0.000000
# 2 -0.004157 0.017283 -0.005553 0.000000 0.000000 0.000000
# 3 -0.001574 -0.005553 0.014055 0.000000 0.000000 0.000000
# 4 0.000000 0.000000 0.000000 0.004902 0.000000 0.000000
# 5 0.000000 0.000000 0.000000 0.000000 0.027445 0.000000
# 6 0.000000 0.000000 0.000000 0.000000 0.000000 0.155069
#
#
# Mechanical properties :
#
#
# Convention : Reuss Voigt Hill
#
# Bulk Modulus (GPa) = 54.45174 56.17084 55.31129
# Shear Modulus (GPa) = 19.45236 61.93161 40.69198
#
# Velocity S-wave (km/s) = 3.08619 5.50671 4.46366
# Velocity P-wave (km/s) = 6.27383 8.24228 7.32448
#
# Compressibility (1/GPa) = 0.01836489
#
# Stress axis : x y z
#
# Youngs Moduli (GPa) = 104.21138 57.86110 71.15141
#
# Poissons Ratio (x) = 0.24052 0.11198
# Poissons Ratio (y) = 0.43318 0.39514
# Poissons Ratio (z) = 0.16402 0.32133
#
# Static dielectric constant tensor:
#      x y z
#    x 1.694860 0.000000 0.000000 
#    y 0.000000 1.734540 0.000000 
#    z 0.000000 0.000000 1.715880 
# 
# From -- ./inp_files/19862.got.cif
#   From: 2010.05.17/outbox.cif.g08.bks.cpg/sg52_10_cif.got.tgz:19862.got - 2010.06.03 12:15:38.
