data_PCOD9411305
_publ_section_title
;
Structure prediction by ZEFSAII (Michael W. Deem and Ramdas Pophale) SiO2 
 PCOD9411305
Probable space group: P N N A
;
_chemical_formula_sum "Si O2"
_cell_formula_units_Z 60
_cell_length_a 26.360434
_cell_length_b 5.384905
_cell_length_c 20.894690
_cell_angle_alpha 90.000000
_cell_angle_beta 90.000000
_cell_angle_gamma 90.000000
_cell_volume 2965.968500
_symmetry_space_group_name_H-M "P N N A"
_symmetry_group_IT_number 52
_symmetry_cell_setting 'orthorhombic'
loop_
_space_group_symop_operation_xyz
x,y,z
1/2-x,-y,z
x,1/2-y,1/2-z
1/2-x,1/2+y,1/2-z
-x,-y,-z
1/2+x,y,-z
-x,1/2+y,1/2+z
1/2+x,1/2-y,1/2+z
loop_
_atom_site_type_symbol
_atom_site_label
_atom_site_fract_x
_atom_site_fract_y
_atom_site_fract_z
Si Si1 0.300669 0.830249 0.323012
Si Si2 0.250000 0.500000 0.423512
Si Si3 0.601027 0.748232 0.086456
Si Si4 0.510387 0.764564 0.325766
Si Si5 0.939189 0.743664 0.480139
Si Si6 0.620613 0.028567 0.581011
Si Si7 0.199021 0.626569 0.977959
Si Si8 0.469777 0.269915 0.393847
O O1 0.305618 0.750000 0.250000
O O2 0.289727 0.614644 0.373745
O O3 0.351972 0.943112 0.351241
O O4 0.250000 0.000000 0.327759
O O5 0.219673 0.674896 0.471362
O O6 0.569664 0.751311 0.152389
O O7 0.579374 0.499958 0.052725
O O8 0.586589 0.003443 0.050918
O O9 0.661513 0.721164 0.077282
O O10 0.504952 0.750000 0.250000
O O11 0.484391 0.517868 0.355757
O O12 0.487775 0.025094 0.353245
O O13 0.921052 0.779764 0.552827
O O14 0.997862 0.729045 0.459921
O O15 0.664420 0.036265 0.526640
O O16 0.588423 0.776454 0.587679
O O17 0.250000 0.500000 0.952567
#
# Coordination Sequence:
#
# PCOD9411305 Si02
#       8
#     8   4   8   8   8   8   8   8
#     4  12  24  40  55  77 110 160 212 254 294 350
#     4  12  20  38  62  76 114 152 196 256 308 352
#     4   9  20  35  60  91 117 153 199 239 302 369
#     4  10  21  42  62  87 121 164 198 245 298 366
#     4   9  19  37  58  89 122 151 188 251 310 366
#     4  11  21  39  57  87 116 158 201 246 314 364
#     4  11  22  37  59  89 116 151 193 253 305 358
#     4  10  22  37  62  92 124 151 202 251 302 367
#
# _framework density 20.229479999999999
#
# number of rings (size 3 to 8) (size 9 to 14) (size 15 to 20)
#    0.000    1.600    3.333    1.600    1.867    3.733 
#    0.000   10.667    0.000    0.000    1.733    0.000 
#    0.000    0.000    0.000    0.000    0.000    0.000 
#
# Total GULP energy -334673.006821 kJ/mol
# GULP energy per Si atom -5577.883447 kJ/mol
# Density = 2.018344 g / cm^3
# Si number density = 20.229480 Si / 1000 Ang^3
#
#
#
# Elastic Constant Matrix: (Units=GPa)
#
#
# Indices 1 2 3 4 5 6 
#
# 1 118.0853 30.9290 39.6282 0.0000 0.0000 0.0000
# 2 30.9290 109.4791 35.7017 0.0000 0.0000 0.0000
# 3 39.6282 35.7017 74.3528 0.0000 0.0000 0.0000
# 4 0.0000 0.0000 0.0000 23.1151 0.0000 0.0000
# 5 0.0000 0.0000 0.0000 0.0000 22.3556 0.0000
# 6 0.0000 0.0000 0.0000 0.0000 0.0000 24.7139
#
#
#
# Elastic Compliance Matrix: (Units=1/GPa)
#
#
# Indices 1 2 3 4 5 6 
#
# 1 0.010479 -0.001351 -0.004936 0.000000 0.000000 0.000000
# 2 -0.001351 0.011004 -0.004564 0.000000 0.000000 0.000000
# 3 -0.004936 -0.004564 0.018272 0.000000 0.000000 0.000000
# 4 0.000000 0.000000 0.000000 0.043262 0.000000 0.000000
# 5 0.000000 0.000000 0.000000 0.000000 0.044732 0.000000
# 6 0.000000 0.000000 0.000000 0.000000 0.000000 0.040463
#
#
# Mechanical properties :
#
#
# Convention : Reuss Voigt Hill
#
# Bulk Modulus (GPa) = 55.39319 57.15946 56.27632
# Shear Modulus (GPa) = 25.51923 27.08080 26.30001
#
# Velocity S-wave (km/s) = 3.55560 3.66277 3.60958
# Velocity P-wave (km/s) = 6.65569 6.79740 6.72692
#
# Compressibility (1/GPa) = 0.01805276
#
# Stress axis : x y z
#
# Youngs Moduli (GPa) = 95.43061 90.87569 54.72901
#
# Poissons Ratio (x) = 0.12273 0.27017
# Poissons Ratio (y) = 0.12889 0.24978
# Poissons Ratio (z) = 0.47109 0.41475
#
# Static dielectric constant tensor:
#      x y z
#    x 1.864990 0.000000 0.000000 
#    y 0.000000 1.519280 0.000000 
#    z 0.000000 0.000000 1.700790 
# 
# From -- ./inp_files/38183.got.cif
#   From: 2010.05.17/outbox.cif.g08.bks.cpg/sg52_20_cif.got.tgz:38183.got - 2010.06.03 12:15:38.
