data_PCOD9411683
_publ_section_title
;
Structure prediction by ZEFSAII (Michael W. Deem and Ramdas Pophale) SiO2 
 PCOD9411683
Probable space group: P N N A
;
_chemical_formula_sum "Si O2"
_cell_formula_units_Z 60
_cell_length_a 9.093674
_cell_length_b 29.320048
_cell_length_c 10.187747
_cell_angle_alpha 90.000000
_cell_angle_beta 90.000000
_cell_angle_gamma 90.000000
_cell_volume 2716.327993
_symmetry_space_group_name_H-M "P N N A"
_symmetry_group_IT_number 52
_symmetry_cell_setting 'orthorhombic'
loop_
_space_group_symop_operation_xyz
x,y,z
1/2-x,-y,z
x,1/2-y,1/2-z
1/2-x,1/2+y,1/2-z
-x,-y,-z
1/2+x,y,-z
-x,1/2+y,1/2+z
1/2+x,1/2-y,1/2+z
loop_
_atom_site_type_symbol
_atom_site_label
_atom_site_fract_x
_atom_site_fract_y
_atom_site_fract_z
Si Si1 0.602762 0.469851 0.908335
Si Si2 0.316781 0.631760 0.057553
Si Si3 0.950137 0.593039 0.341433
Si Si4 0.111930 0.330878 0.346415
Si Si5 0.164828 0.624517 0.555909
Si Si6 0.075543 0.999290 0.142504
Si Si7 0.212138 0.750000 0.250000
Si Si8 0.527471 0.832009 0.633567
O O1 0.750000 0.500000 0.895756
O O2 0.636424 0.420081 0.966851
O O3 0.547743 0.463474 0.756759
O O4 0.500000 0.500000 0.000000
O O5 0.359223 0.645917 0.205569
O O6 0.142735 0.637628 0.051854
O O7 0.385472 0.667903 0.956829
O O8 0.044089 0.596255 0.475770
O O9 0.015485 0.546527 0.285669
O O10 0.990966 0.638555 0.262366
O O11 0.774300 0.593987 0.356850
O O12 0.939574 0.337614 0.377445
O O13 0.217630 0.354342 0.454139
O O14 0.177961 0.280258 0.337376
O O15 0.250000 0.000000 0.116419
O O16 0.000000 0.000000 0.000000
O O17 0.106368 0.785121 0.327525
#
# Coordination Sequence:
#
# PCOD9411683 Si02
#       8
#     8   8   8   8   8   8   4   8
#     4  11  24  42  63  92 131 182 230 276 323 395
#     4  11  23  43  65  95 134 176 224 273 342 390
#     4  11  21  42  62  94 130 177 222 269 345 388
#     4  10  23  41  67  96 126 171 213 279 333 408
#     4  10  22  39  69  89 127 175 216 267 334 408
#     4  11  24  38  62  96 133 175 226 287 327 386
#     4  10  22  46  68 100 128 162 222 274 344 400
#     4  11  24  43  68  94 133 176 216 277 330 415
#
# _framework density 22.088642
#
# number of rings (size 3 to 8) (size 9 to 14) (size 15 to 20)
#    0.000    1.333    2.667    4.000    5.600    2.667 
#    2.400    0.667    0.000    0.000    0.000    0.000 
#    0.000    0.000    0.000    0.000    0.000    0.000 
#
# Total GULP energy -334840.926200 kJ/mol
# GULP energy per Si atom -5580.682103 kJ/mol
# Density = 2.203837 g / cm^3
# Si number density = 22.088642 Si / 1000 Ang^3
#
#
#
# Elastic Constant Matrix: (Units=GPa)
#
#
# Indices 1 2 3 4 5 6 
#
# 1 129.3651 14.6287 29.4540 0.0000 0.0000 0.0000
# 2 14.6287 90.3400 2.8564 0.0000 0.0000 0.0000
# 3 29.4540 2.8564 49.4802 0.0000 0.0000 0.0000
# 4 0.0000 0.0000 0.0000 21.0031 0.0000 0.0000
# 5 0.0000 0.0000 0.0000 0.0000 32.3658 0.0000
# 6 0.0000 0.0000 0.0000 0.0000 0.0000 35.4812
#
#
#
# Elastic Compliance Matrix: (Units=1/GPa)
#
#
# Indices 1 2 3 4 5 6 
#
# 1 0.009093 -0.001304 -0.005337 0.000000 0.000000 0.000000
# 2 -0.001304 0.011276 0.000125 0.000000 0.000000 0.000000
# 3 -0.005337 0.000125 0.023380 0.000000 0.000000 0.000000
# 4 0.000000 0.000000 0.000000 0.047612 0.000000 0.000000
# 5 0.000000 0.000000 0.000000 0.000000 0.030897 0.000000
# 6 0.000000 0.000000 0.000000 0.000000 0.000000 0.028184
#
#
# Mechanical properties :
#
#
# Convention : Reuss Voigt Hill
#
# Bulk Modulus (GPa) = 32.55490 40.34038 36.44764
# Shear Modulus (GPa) = 28.78315 32.58645 30.68480
#
# Velocity S-wave (km/s) = 3.61373 3.84508 3.73120
# Velocity P-wave (km/s) = 5.67295 6.16566 5.92443
#
# Compressibility (1/GPa) = 0.03071734
#
# Stress axis : x y z
#
# Youngs Moduli (GPa) = 109.97847 88.68051 42.77152
#
# Poissons Ratio (x) = 0.11561 0.22829
# Poissons Ratio (y) = 0.14337 -0.00535
# Poissons Ratio (z) = 0.58699 -0.01109
#
# Static dielectric constant tensor:
#      x y z
#    x 1.800620 0.000000 0.000000 
#    y 0.000000 1.934490 0.000000 
#    z 0.000000 0.000000 1.891340 
# 
# From -- ./inp_files/17146.got.cif
#   From: 2010.05.17/outbox.cif.g08.bks.cpg/sg52_9_cif.got.tgz:17146.got - 2010.06.03 12:15:38.
