data_PCOD9411401
_publ_section_title
;
Structure prediction by ZEFSAII (Michael W. Deem and Ramdas Pophale) SiO2 
 PCOD9411401
Probable space group: P N N A
;
_chemical_formula_sum "Si O2"
_cell_formula_units_Z 48
_cell_length_a 14.418927
_cell_length_b 11.448146
_cell_length_c 12.881572
_cell_angle_alpha 90.000000
_cell_angle_beta 90.000000
_cell_angle_gamma 90.000000
_cell_volume 2126.360851
_symmetry_space_group_name_H-M "P N N A"
_symmetry_group_IT_number 52
_symmetry_cell_setting 'orthorhombic'
loop_
_space_group_symop_operation_xyz
x,y,z
1/2-x,-y,z
x,1/2-y,1/2-z
1/2-x,1/2+y,1/2-z
-x,-y,-z
1/2+x,y,-z
-x,1/2+y,1/2+z
1/2+x,1/2-y,1/2+z
loop_
_atom_site_type_symbol
_atom_site_label
_atom_site_fract_x
_atom_site_fract_y
_atom_site_fract_z
Si Si1 0.691716 0.285312 0.532439
Si Si2 0.397936 0.216823 0.960361
Si Si3 0.961902 0.896319 0.572500
Si Si4 0.650543 0.475340 0.354111
Si Si5 0.654172 0.053943 0.775546
Si Si6 0.029680 0.850858 0.170628
O O1 0.798212 0.251633 0.509241
O O2 0.621734 0.177836 0.519468
O O3 0.673269 0.391784 0.452637
O O4 0.674713 0.337925 0.648007
O O5 0.448538 0.318256 0.898190
O O6 0.388433 0.098214 0.895508
O O7 0.468985 0.199821 0.055511
O O8 0.914280 0.931033 0.680108
O O9 0.000000 0.000000 0.500000
O O10 0.750000 0.500000 0.301049
O O11 0.568810 0.405977 0.296826
O O12 0.750000 0.000000 0.736286
O O13 0.604913 0.952664 0.840948
O O14 0.057526 0.750000 0.250000
#
# Coordination Sequence:
#
# PCOD9411401 Si02
#       6
#     8   8   8   8   8   8
#     4  11  22  43  75 104 135 185 247 299 350 427
#     4  11  22  44  72  99 138 184 232 294 364 421
#     4  12  28  42  62 105 154 189 216 291 384 443
#     4  10  21  43  71  99 127 182 245 290 349 432
#     4  12  25  43  71 111 141 176 247 308 357 417
#     4  12  23  39  68 100 140 178 228 300 359 422
#
# _framework density 22.573779999999999
#
# number of rings (size 3 to 8) (size 9 to 14) (size 15 to 20)
#    0.000    0.667    5.000    3.500    4.667    0.000 
#    0.000    3.333    0.000    0.000    0.000    0.000 
#    0.000    0.000    0.000    0.000    0.000    0.000 
#
# Total GULP energy -268279.439238 kJ/mol
# GULP energy per Si atom -5589.154984 kJ/mol
# Density = 2.252240 g / cm^3
# Si number density = 22.573780 Si / 1000 Ang^3
#
#
#
# Elastic Constant Matrix: (Units=GPa)
#
#
# Indices 1 2 3 4 5 6 
#
# 1 145.7739 48.7953 26.0570 0.0000 0.0000 0.0000
# 2 48.7953 80.1104 11.7494 0.0000 0.0000 0.0000
# 3 26.0570 11.7494 28.1370 0.0000 0.0000 0.0000
# 4 0.0000 0.0000 0.0000 12.8042 0.0000 0.0000
# 5 0.0000 0.0000 0.0000 0.0000 19.2590 0.0000
# 6 0.0000 0.0000 0.0000 0.0000 0.0000 15.5348
#
#
#
# Elastic Compliance Matrix: (Units=1/GPa)
#
#
# Indices 1 2 3 4 5 6 
#
# 1 0.009753 -0.004917 -0.006979 0.000000 0.000000 0.000000
# 2 -0.004917 0.015776 -0.002034 0.000000 0.000000 0.000000
# 3 -0.006979 -0.002034 0.042853 0.000000 0.000000 0.000000
# 4 0.000000 0.000000 0.000000 0.078099 0.000000 0.000000
# 5 0.000000 0.000000 0.000000 0.000000 0.051924 0.000000
# 6 0.000000 0.000000 0.000000 0.000000 0.000000 0.064372
#
#
# Mechanical properties :
#
#
# Convention : Reuss Voigt Hill
#
# Bulk Modulus (GPa) = 24.67805 47.46940 36.07372
# Shear Modulus (GPa) = 16.43950 20.68090 18.56020
#
# Velocity S-wave (km/s) = 2.70155 3.03008 2.87052
# Velocity P-wave (km/s) = 4.54830 5.77200 5.19630
#
# Compressibility (1/GPa) = 0.04052184
#
# Stress axis : x y z
#
# Youngs Moduli (GPa) = 102.52833 63.38671 23.33559
#
# Poissons Ratio (x) = 0.31169 0.16286
# Poissons Ratio (y) = 0.50415 0.04747
# Poissons Ratio (z) = 0.71555 0.12893
#
# Static dielectric constant tensor:
#      x y z
#    x 1.869020 0.000000 0.000000 
#    y 0.000000 1.731000 0.000000 
#    z 0.000000 0.000000 1.830490 
# 
# From -- ./inp_files/27187.got.cif
#   From: 2010.05.17/outbox.cif.g08.bks.cpg/sg52_14_cif.got.tgz:27187.got - 2010.06.03 12:15:38.
