data_PCOD9411805
_publ_section_title
;
Structure prediction by ZEFSAII (Michael W. Deem and Ramdas Pophale) SiO2 
 PCOD9411805
Probable space group: P N N A
;
_chemical_formula_sum "Si O2"
_cell_formula_units_Z 48
_cell_length_a 8.492038
_cell_length_b 8.842359
_cell_length_c 28.769497
_cell_angle_alpha 90.000000
_cell_angle_beta 90.000000
_cell_angle_gamma 90.000000
_cell_volume 2160.291421
_symmetry_space_group_name_H-M "P N N A"
_symmetry_group_IT_number 52
_symmetry_cell_setting 'orthorhombic'
loop_
_space_group_symop_operation_xyz
x,y,z
1/2-x,-y,z
x,1/2-y,1/2-z
1/2-x,1/2+y,1/2-z
-x,-y,-z
1/2+x,y,-z
-x,1/2+y,1/2+z
1/2+x,1/2-y,1/2+z
loop_
_atom_site_type_symbol
_atom_site_label
_atom_site_fract_x
_atom_site_fract_y
_atom_site_fract_z
Si Si1 0.867163 0.121968 0.625045
Si Si2 0.122593 0.896519 0.625489
Si Si3 0.317604 0.336619 0.552522
Si Si4 0.457882 0.672423 0.700649
Si Si5 0.075039 0.674271 0.701147
Si Si6 0.305279 0.832709 0.051472
O O1 0.774398 0.214236 0.585952
O O2 0.952617 0.234175 0.660936
O O3 0.750000 0.000000 0.648517
O O4 0.000580 0.012763 0.603238
O O5 0.216761 0.795276 0.588871
O O6 0.029779 0.783033 0.658968
O O7 0.250000 0.000000 0.652657
O O8 0.250000 0.500000 0.567834
O O9 0.251365 0.306557 0.501375
O O10 0.506464 0.337412 0.551308
O O11 0.496273 0.750000 0.750000
O O12 0.266625 0.674001 0.696888
O O13 0.493669 0.493635 0.698339
O O14 0.034386 0.750000 0.750000
O O15 0.250000 0.000000 0.065290
#
# Coordination Sequence:
#
# PCOD9411805 Si02
#       6
#     8   8   8   8   8   8
#     4  12  26  46  66 103 149 178 231 286 354 412
#     4  12  26  41  69 105 139 184 230 293 343 413
#     4  11  26  46  71 101 137 182 234 285 348 419
#     4  10  22  42  72 103 142 187 230 291 346 412
#     4  10  22  40  71 108 139 179 241 291 343 406
#     4  11  26  46  71  99 138 185 229 287 346 420
#
# _framework density 22.219225000000002
#
# number of rings (size 3 to 8) (size 9 to 14) (size 15 to 20)
#    0.000    1.000    3.333    3.000   11.667    1.333 
#    0.000    3.333    0.000    0.000    0.000    0.000 
#    0.000    0.000    0.000    0.000    0.000    0.000 
#
# Total GULP energy -268422.288012 kJ/mol
# GULP energy per Si atom -5592.131000 kJ/mol
# Density = 2.216865 g / cm^3
# Si number density = 22.219225 Si / 1000 Ang^3
#
#
#
# Elastic Constant Matrix: (Units=GPa)
#
#
# Indices 1 2 3 4 5 6 
#
# 1 74.1527 61.4416 45.0009 0.0000 0.0000 0.0000
# 2 61.4416 206.3394 98.8890 0.0000 0.0000 0.0000
# 3 45.0009 98.8890 89.5162 0.0000 0.0000 0.0000
# 4 0.0000 0.0000 0.0000 37.5056 0.0000 0.0000
# 5 0.0000 0.0000 0.0000 0.0000 22.8527 0.0000
# 6 0.0000 0.0000 0.0000 0.0000 0.0000 43.5064
#
#
#
# Elastic Compliance Matrix: (Units=1/GPa)
#
#
# Indices 1 2 3 4 5 6 
#
# 1 0.019955 -0.002410 -0.007369 0.000000 0.000000 0.000000
# 2 -0.002410 0.010590 -0.010487 0.000000 0.000000 0.000000
# 3 -0.007369 -0.010487 0.026461 0.000000 0.000000 0.000000
# 4 0.000000 0.000000 0.000000 0.026663 0.000000 0.000000
# 5 0.000000 0.000000 0.000000 0.000000 0.043759 0.000000
# 6 0.000000 0.000000 0.000000 0.000000 0.000000 0.022985
#
#
# Mechanical properties :
#
#
# Convention : Reuss Voigt Hill
#
# Bulk Modulus (GPa) = 60.70544 86.74125 73.72335
# Shear Modulus (GPa) = 25.45357 31.75140 28.60248
#
# Velocity S-wave (km/s) = 3.38829 3.78432 3.59177
# Velocity P-wave (km/s) = 6.53359 7.63009 7.10303
#
# Compressibility (1/GPa) = 0.01647299
#
# Stress axis : x y z
#
# Youngs Moduli (GPa) = 50.11344 94.42657 37.79162
#
# Poissons Ratio (x) = 0.22761 0.27847
# Poissons Ratio (y) = 0.12080 0.39633
# Poissons Ratio (z) = 0.36927 0.99028
#
# Static dielectric constant tensor:
#      x y z
#    x 1.878580 0.000000 0.000000 
#    y 0.000000 1.830420 0.000000 
#    z 0.000000 0.000000 1.791280 
# 
# From -- ./inp_files/44391.got.cif
#   From: 2010.05.17/outbox.cif.g08.bks.cpg/sg52_23_cif.got.tgz:44391.got - 2010.06.03 12:15:38.
