data_PCOD9411444
_publ_section_title
;
Structure prediction by ZEFSAII (Michael W. Deem and Ramdas Pophale) SiO2 
 PCOD9411444
Probable space group: P N N A
;
_chemical_formula_sum "Si O2"
_cell_formula_units_Z 60
_cell_length_a 11.039568
_cell_length_b 15.990560
_cell_length_c 14.468480
_cell_angle_alpha 90.000000
_cell_angle_beta 90.000000
_cell_angle_gamma 90.000000
_cell_volume 2554.104490
_symmetry_space_group_name_H-M "P N N A"
_symmetry_group_IT_number 52
_symmetry_cell_setting 'orthorhombic'
loop_
_space_group_symop_operation_xyz
x,y,z
1/2-x,-y,z
x,1/2-y,1/2-z
1/2-x,1/2+y,1/2-z
-x,-y,-z
1/2+x,y,-z
-x,1/2+y,1/2+z
1/2+x,1/2-y,1/2+z
loop_
_atom_site_type_symbol
_atom_site_label
_atom_site_fract_x
_atom_site_fract_y
_atom_site_fract_z
Si Si1 0.770654 0.381953 0.342811
Si Si2 0.620083 0.109123 0.680387
Si Si3 0.547079 0.750000 0.250000
Si Si4 0.702885 0.401501 0.541086
Si Si5 0.873609 0.552013 0.023041
Si Si6 0.500571 0.527244 0.340660
Si Si7 0.588854 0.162141 0.298556
Si Si8 0.644522 0.870576 0.803799
O O1 0.866002 0.310048 0.310038
O O2 0.702491 0.365539 0.438585
O O3 0.677406 0.397142 0.260515
O O4 0.862422 0.457245 0.363307
O O5 0.544675 0.194454 0.689350
O O6 0.653874 0.090364 0.576958
O O7 0.528743 0.045559 0.732749
O O8 0.740352 0.102187 0.742787
O O9 0.750000 0.500000 0.544267
O O10 0.575145 0.410693 0.592994
O O11 0.785472 0.339809 0.604755
O O12 0.750000 0.500000 0.049301
O O13 0.897171 0.625738 0.098397
O O14 0.000000 0.500000 0.000000
O O15 0.444327 0.437137 0.352586
O O16 0.629652 0.250000 0.250000
O O17 0.447619 0.164505 0.271560
#
# Coordination Sequence:
#
# PCOD9411444 Si02
#       8
#     8   8   4   8   8   8   8   8
#     4  11  24  41  63  97 144 192 239 290 373 455
#     4  10  21  45  71 100 139 184 249 309 369 447
#     4  10  24  44  68  92 142 200 240 286 380 456
#     4   9  21  38  66 102 131 170 228 290 357 427
#     4  12  28  48  81 113 144 200 266 323 382 461
#     4   9  20  39  70 101 133 178 237 307 357 436
#     4  12  29  46  66 107 155 193 239 316 388 450
#     4  10  22  43  69 103 137 178 240 299 373 435
#
# _framework density 23.491599999999998
#
# number of rings (size 3 to 8) (size 9 to 14) (size 15 to 20)
#    0.000    1.600    0.667    3.600   10.267    2.133 
#    4.800    0.000    0.000    0.000    0.000    0.000 
#    0.000    0.000    0.000    0.000    0.000    0.000 
#
# Total GULP energy -334085.342738 kJ/mol
# GULP energy per Si atom -5568.089046 kJ/mol
# Density = 2.343813 g / cm^3
# Si number density = 23.491600 Si / 1000 Ang^3
#
#
#
# Elastic Constant Matrix: (Units=GPa)
#
#
# Indices 1 2 3 4 5 6 
#
# 1 145.5974 24.3778 37.7001 0.0000 0.0000 0.0000
# 2 24.3778 47.6107 12.8128 0.0000 0.0000 0.0000
# 3 37.7001 12.8128 161.1350 0.0000 0.0000 0.0000
# 4 0.0000 0.0000 0.0000 17.0972 0.0000 0.0000
# 5 0.0000 0.0000 0.0000 0.0000 13.7488 0.0000
# 6 0.0000 0.0000 0.0000 0.0000 0.0000 20.9566
#
#
#
# Elastic Compliance Matrix: (Units=1/GPa)
#
#
# Indices 1 2 3 4 5 6 
#
# 1 0.007876 -0.003614 -0.001555 0.000000 0.000000 0.000000
# 2 -0.003614 0.023121 -0.000993 0.000000 0.000000 0.000000
# 3 -0.001555 -0.000993 0.006649 0.000000 0.000000 0.000000
# 4 0.000000 0.000000 0.000000 0.058489 0.000000 0.000000
# 5 0.000000 0.000000 0.000000 0.000000 0.072734 0.000000
# 6 0.000000 0.000000 0.000000 0.000000 0.000000 0.047718
#
#
# Mechanical properties :
#
#
# Convention : Reuss Voigt Hill
#
# Bulk Modulus (GPa) = 39.49223 56.01384 47.75304
# Shear Modulus (GPa) = 21.06571 28.99066 25.02819
#
# Velocity S-wave (km/s) = 2.99780 3.51677 3.26760
# Velocity P-wave (km/s) = 5.36937 6.35501 5.88287
#
# Compressibility (1/GPa) = 0.02532144
#
# Stress axis : x y z
#
# Youngs Moduli (GPa) = 126.96605 43.24994 150.40235
#
# Poissons Ratio (x) = 0.15631 0.23393
# Poissons Ratio (y) = 0.45888 0.14934
# Poissons Ratio (z) = 0.19748 0.04294
#
# Static dielectric constant tensor:
#      x y z
#    x 1.909580 0.000000 0.000000 
#    y 0.000000 2.274230 0.000000 
#    z 0.000000 0.000000 1.865990 
# 
# From -- ./inp_files/26313.got.cif
#   From: 2010.05.17/outbox.cif.g08.bks.cpg/sg52_14_cif.got.tgz:26313.got - 2010.06.03 12:15:38.
