data_PCOD9411743
_publ_section_title
;
Structure prediction by ZEFSAII (Michael W. Deem and Ramdas Pophale) SiO2 
 PCOD9411743
Probable space group: P N N A
;
_chemical_formula_sum "Si O2"
_cell_formula_units_Z 60
_cell_length_a 20.837040
_cell_length_b 9.344079
_cell_length_c 16.806756
_cell_angle_alpha 90.000000
_cell_angle_beta 90.000000
_cell_angle_gamma 90.000000
_cell_volume 3272.324938
_symmetry_space_group_name_H-M "P N N A"
_symmetry_group_IT_number 52
_symmetry_cell_setting 'orthorhombic'
loop_
_space_group_symop_operation_xyz
x,y,z
1/2-x,-y,z
x,1/2-y,1/2-z
1/2-x,1/2+y,1/2-z
-x,-y,-z
1/2+x,y,-z
-x,1/2+y,1/2+z
1/2+x,1/2-y,1/2+z
loop_
_atom_site_type_symbol
_atom_site_label
_atom_site_fract_x
_atom_site_fract_y
_atom_site_fract_z
Si Si1 0.105841 0.266374 0.619578
Si Si2 0.254011 0.330223 0.594073
Si Si3 0.066960 0.401360 0.207101
Si Si4 0.833454 0.250000 0.250000
Si Si5 0.065098 0.083701 0.482143
Si Si6 0.809442 0.102814 0.518307
Si Si7 0.688836 0.902589 0.708324
Si Si8 0.573732 0.481135 0.246493
O O1 0.180975 0.276205 0.599914
O O2 0.070407 0.222488 0.538326
O O3 0.084145 0.408830 0.666802
O O4 0.091510 0.138369 0.681371
O O5 0.250000 0.500000 0.582796
O O6 0.288917 0.290001 0.676000
O O7 0.294670 0.250140 0.526204
O O8 0.076208 0.250000 0.250000
O O9 0.068249 0.381746 0.111427
O O10 0.124300 0.510108 0.227644
O O11 0.998829 0.467633 0.232791
O O12 0.878924 0.385727 0.234763
O O13 0.124788 0.978606 0.502901
O O14 0.000000 0.000000 0.500000
O O15 0.809447 0.121229 0.613235
O O16 0.750000 0.000000 0.496853
O O17 0.690816 0.750000 0.750000
O O18 0.750000 0.000000 0.729824
#
# Coordination Sequence:
#
# PCOD9411743 Si02
#       8
#     8   8   8   4   8   8   8   8
#     4  11  23  41  64  95 128 172 217 274 313 398
#     4  12  25  40  63  97 135 169 216 266 327 381
#     4  11  24  42  66  94 129 175 217 273 330 391
#     4  12  24  38  60  96 132 176 218 252 328 396
#     4  11  22  41  69  94 125 176 224 263 330 400
#     4  10  22  40  65  88 123 166 210 261 324 393
#     4  10  23  43  66  93 120 161 217 272 336 392
#     4  11  23  39  66  92 134 170 221 266 325 385
#
# _framework density 18.335585999999999
#
# number of rings (size 3 to 8) (size 9 to 14) (size 15 to 20)
#    0.000    1.067    4.667    2.000    1.867    0.533 
#    2.400    0.667    0.000    0.000    0.000    0.000 
#    0.000    0.000    0.000    0.000    0.000    0.000 
#
# Total GULP energy -335275.224608 kJ/mol
# GULP energy per Si atom -5587.920410 kJ/mol
# Density = 1.829385 g / cm^3
# Si number density = 18.335586 Si / 1000 Ang^3
#
#
#
# Elastic Constant Matrix: (Units=GPa)
#
#
# Indices 1 2 3 4 5 6 
#
# 1 123.7605 42.6757 39.9460 0.0000 0.0000 0.0000
# 2 42.6757 130.7243 54.9597 0.0000 0.0000 0.0000
# 3 39.9460 54.9597 68.1165 0.0000 0.0000 0.0000
# 4 0.0000 0.0000 0.0000 42.4407 0.0000 0.0000
# 5 0.0000 0.0000 0.0000 0.0000 18.6933 0.0000
# 6 0.0000 0.0000 0.0000 0.0000 0.0000 22.4818
#
#
#
# Elastic Compliance Matrix: (Units=1/GPa)
#
#
# Indices 1 2 3 4 5 6 
#
# 1 0.010094 -0.001221 -0.004935 0.000000 0.000000 0.000000
# 2 -0.001221 0.011724 -0.008744 0.000000 0.000000 0.000000
# 3 -0.004935 -0.008744 0.024630 0.000000 0.000000 0.000000
# 4 0.000000 0.000000 0.000000 0.023562 0.000000 0.000000
# 5 0.000000 0.000000 0.000000 0.000000 0.053495 0.000000
# 6 0.000000 0.000000 0.000000 0.000000 0.000000 0.044481
#
#
# Mechanical properties :
#
#
# Convention : Reuss Voigt Hill
#
# Bulk Modulus (GPa) = 60.06180 66.41825 63.24002
# Shear Modulus (GPa) = 24.59013 29.05781 26.82397
#
# Velocity S-wave (km/s) = 3.66610 3.98524 3.82900
# Velocity P-wave (km/s) = 7.12379 7.58146 7.35619
#
# Compressibility (1/GPa) = 0.01664952
#
# Stress axis : x y z
#
# Youngs Moduli (GPa) = 99.07161 85.29265 40.60153
#
# Poissons Ratio (x) = 0.10410 0.20035
# Poissons Ratio (y) = 0.12092 0.35502
# Poissons Ratio (z) = 0.48887 0.74580
#
# Static dielectric constant tensor:
#      x y z
#    x 1.611290 0.000000 0.000000 
#    y 0.000000 1.613760 0.000000 
#    z 0.000000 0.000000 1.633580 
# 
# From -- ./inp_files/33767.got.cif
#   From: 2010.05.17/outbox.cif.g08.bks.cpg/sg52_17_cif.got.tgz:33767.got - 2010.06.03 12:15:38.
