data_PCOD9411863
_publ_section_title
;
Structure prediction by ZEFSAII (Michael W. Deem and Ramdas Pophale) SiO2 
 PCOD9411863
Probable space group: P N N A
;
_chemical_formula_sum "Si O2"
_cell_formula_units_Z 32
_cell_length_a 10.211605
_cell_length_b 11.860513
_cell_length_c 12.201838
_cell_angle_alpha 90.000000
_cell_angle_beta 90.000000
_cell_angle_gamma 90.000000
_cell_volume 1477.824070
_symmetry_space_group_name_H-M "P N N A"
_symmetry_group_IT_number 52
_symmetry_cell_setting 'orthorhombic'
loop_
_space_group_symop_operation_xyz
x,y,z
1/2-x,-y,z
x,1/2-y,1/2-z
1/2-x,1/2+y,1/2-z
-x,-y,-z
1/2+x,y,-z
-x,1/2+y,1/2+z
1/2+x,1/2-y,1/2+z
loop_
_atom_site_type_symbol
_atom_site_label
_atom_site_fract_x
_atom_site_fract_y
_atom_site_fract_z
Si Si1 0.520063 0.354619 0.533405
Si Si2 0.521619 0.031007 0.185669
Si Si3 0.644843 0.750000 0.750000
Si Si4 0.236700 0.715961 0.011698
Si Si5 0.250000 0.500000 0.860814
O O1 0.571879 0.438093 0.436663
O O2 0.546703 0.412868 0.651528
O O3 0.370011 0.310561 0.526826
O O4 0.611637 0.249394 0.505363
O O5 0.436499 0.139809 0.213847
O O6 0.628193 0.018991 0.279241
O O7 0.715390 0.706688 0.858651
O O8 0.218830 0.605996 0.938165
#
# Coordination Sequence:
#
# PCOD9411863 Si02
#       5
#     8   8   4   8   4
#     4  10  23  43  66  94 129 177 221 265 339 422
#     4  10  22  41  66  93 131 173 219 277 337 401
#     4  10  24  42  60  92 136 174 218 276 342 420
#     4  11  25  42  64  96 133 173 225 278 344 406
#     4  12  24  40  68 102 134 170 228 300 342 382
#
# _framework density 21.653457
#
# number of rings (size 3 to 8) (size 9 to 14) (size 15 to 20)
#    0.000    1.500    0.000    4.500    0.000   19.000 
#    0.000    0.000    0.000    0.000    0.000    0.000 
#    0.000    0.000    0.000    0.000    0.000    0.000 
#
# Total GULP energy -178245.999075 kJ/mol
# GULP energy per Si atom -5570.187471 kJ/mol
# Density = 2.160417 g / cm^3
# Si number density = 21.653457 Si / 1000 Ang^3
#
#
#
# Elastic Constant Matrix: (Units=GPa)
#
#
# Indices 1 2 3 4 5 6 
#
# 1 47.7155 9.1793 18.1332 0.0000 0.0000 0.0000
# 2 9.1793 83.1904 49.4917 0.0000 0.0000 0.0000
# 3 18.1332 49.4917 145.0779 0.0000 0.0000 0.0000
# 4 0.0000 0.0000 0.0000 43.2891 0.0000 0.0000
# 5 0.0000 0.0000 0.0000 0.0000 36.5679 0.0000
# 6 0.0000 0.0000 0.0000 0.0000 0.0000 10.8667
#
#
#
# Elastic Compliance Matrix: (Units=1/GPa)
#
#
# Indices 1 2 3 4 5 6 
#
# 1 0.022068 -0.000996 -0.002418 0.000000 0.000000 0.000000
# 2 -0.000996 0.015126 -0.005036 0.000000 0.000000 0.000000
# 3 -0.002418 -0.005036 0.008913 0.000000 0.000000 0.000000
# 4 0.000000 0.000000 0.000000 0.023100 0.000000 0.000000
# 5 0.000000 0.000000 0.000000 0.000000 0.027346 0.000000
# 6 0.000000 0.000000 0.000000 0.000000 0.000000 0.092024
#
#
# Mechanical properties :
#
#
# Convention : Reuss Voigt Hill
#
# Bulk Modulus (GPa) = 34.23846 47.73248 40.98547
# Shear Modulus (GPa) = 23.23261 31.42339 27.32800
#
# Velocity S-wave (km/s) = 3.27911 3.81359 3.55640
# Velocity P-wave (km/s) = 5.49392 6.44073 5.98607
#
# Compressibility (1/GPa) = 0.02920692
#
# Stress axis : x y z
#
# Youngs Moduli (GPa) = 45.31390 66.10969 112.19575
#
# Poissons Ratio (x) = 0.06586 0.27134
# Poissons Ratio (y) = 0.04514 0.56498
# Poissons Ratio (z) = 0.10959 0.33291
#
# Static dielectric constant tensor:
#      x y z
#    x 1.836950 0.000000 0.000000 
#    y 0.000000 2.056770 0.000000 
#    z 0.000000 0.000000 1.791220 
# 
# From -- ./inp_files/17586.got.cif
#   From: 2010.05.17/outbox.cif.g08.bks.cpg/sg52_9_cif.got.tgz:17586.got - 2010.06.03 12:15:38.
