data_PCOD9411084
_publ_section_title
;
Structure prediction by ZEFSAII (Michael W. Deem and Ramdas Pophale) SiO2 
 PCOD9411084
Probable space group: P N N A
;
_chemical_formula_sum "Si O2"
_cell_formula_units_Z 32
_cell_length_a 5.575402
_cell_length_b 13.103596
_cell_length_c 16.534609
_cell_angle_alpha 90.000000
_cell_angle_beta 90.000000
_cell_angle_gamma 90.000000
_cell_volume 1207.982411
_symmetry_space_group_name_H-M "P N N A"
_symmetry_group_IT_number 52
_symmetry_cell_setting 'orthorhombic'
loop_
_space_group_symop_operation_xyz
x,y,z
1/2-x,-y,z
x,1/2-y,1/2-z
1/2-x,1/2+y,1/2-z
-x,-y,-z
1/2+x,y,-z
-x,1/2+y,1/2+z
1/2+x,1/2-y,1/2+z
loop_
_atom_site_type_symbol
_atom_site_label
_atom_site_fract_x
_atom_site_fract_y
_atom_site_fract_z
Si Si1 0.880372 0.631707 0.278645
Si Si2 0.280997 0.621388 0.030348
Si Si3 0.016135 0.117259 0.968268
Si Si4 0.621241 0.135186 0.715007
O O1 0.867435 0.750000 0.250000
O O2 0.923368 0.622019 0.374024
O O3 0.618551 0.591374 0.255180
O O4 0.118322 0.590577 0.235450
O O5 0.250000 0.500000 0.015264
O O6 0.394307 0.636755 0.118778
O O7 0.501200 0.657327 0.972531
O O8 0.249253 0.160066 0.015148
O O9 0.000000 0.000000 0.000000
O O10 0.634742 0.250000 0.750000
#
# Coordination Sequence:
#
# PCOD9411084 Si02
#       4
#     8   8   8   8
#     4  10  21  40  61  88 130 163 211 255 313 377
#     4  10  21  40  64  91 123 160 210 261 311 365
#     4  10  21  40  62  88 126 168 209 260 311 378
#     4  10  21  40  61  93 126 164 209 256 313 378
#
# _framework density 26.490451
#
# number of rings (size 3 to 8) (size 9 to 14) (size 15 to 20)
#    0.000    2.000    0.000    3.000    0.000    0.000 
#   13.500   30.000    0.000    0.000    0.000    0.000 
#    0.000    0.000    0.000    0.000    0.000    0.000 
#
# Total GULP energy -179181.038278 kJ/mol
# GULP energy per Si atom -5599.407446 kJ/mol
# Density = 2.643016 g / cm^3
# Si number density = 26.490451 Si / 1000 Ang^3
#
#
#
# Elastic Constant Matrix: (Units=GPa)
#
#
# Indices 1 2 3 4 5 6 
#
# 1 251.1483 31.6116 31.5436 0.0000 0.0000 0.0000
# 2 31.6116 82.6015 -24.3013 0.0000 0.0000 0.0000
# 3 31.5436 -24.3013 154.3320 0.0000 0.0000 0.0000
# 4 0.0000 0.0000 0.0000 191.5036 0.0000 0.0000
# 5 0.0000 0.0000 0.0000 0.0000 66.5380 0.0000
# 6 0.0000 0.0000 0.0000 0.0000 0.0000 234.7607
#
#
#
# Elastic Compliance Matrix: (Units=1/GPa)
#
#
# Indices 1 2 3 4 5 6 
#
# 1 0.004391 -0.002039 -0.001219 0.000000 0.000000 0.000000
# 2 -0.002039 0.013641 0.002565 0.000000 0.000000 0.000000
# 3 -0.001219 0.002565 0.007132 0.000000 0.000000 0.000000
# 4 0.000000 0.000000 0.000000 0.005222 0.000000 0.000000
# 5 0.000000 0.000000 0.000000 0.000000 0.015029 0.000000
# 6 0.000000 0.000000 0.000000 0.000000 0.000000 0.004260
#
#
# Mechanical properties :
#
#
# Convention : Reuss Voigt Hill
#
# Bulk Modulus (GPa) = 42.05379 62.86553 52.45966
# Shear Modulus (GPa) = 84.76296 128.50900 106.63598
#
# Velocity S-wave (km/s) = 5.66277 6.97257 6.35153
# Velocity P-wave (km/s) = 7.65934 9.41304 8.58111
#
# Compressibility (1/GPa) = 0.02377907
#
# Stress axis : x y z
#
# Youngs Moduli (GPa) = 227.71628 73.30714 140.20414
#
# Poissons Ratio (x) = 0.14948 0.17086
# Poissons Ratio (y) = 0.46434 -0.35959
# Poissons Ratio (z) = 0.27750 -0.18801
#
# Static dielectric constant tensor:
#      x y z
#    x 1.998130 0.000000 0.000000 
#    y 0.000000 1.796740 0.000000 
#    z 0.000000 0.000000 1.914820 
# 
# From -- ./inp_files/15959.got.cif
#   From: 2010.05.17/outbox.cif.g08.bks.cpg/sg52_8_cif.got.tgz:15959.got - 2010.06.03 12:15:38.
