data_PCOD9411098
_publ_section_title
;
Structure prediction by ZEFSAII (Michael W. Deem and Ramdas Pophale) SiO2 
 PCOD9411098
Probable space group: P N N A
;
_chemical_formula_sum "Si O2"
_cell_formula_units_Z 40
_cell_length_a 11.408085
_cell_length_b 8.669601
_cell_length_c 18.366691
_cell_angle_alpha 90.000000
_cell_angle_beta 90.000000
_cell_angle_gamma 90.000000
_cell_volume 1816.530852
_symmetry_space_group_name_H-M "P N N A"
_symmetry_group_IT_number 52
_symmetry_cell_setting 'orthorhombic'
loop_
_space_group_symop_operation_xyz
x,y,z
1/2-x,-y,z
x,1/2-y,1/2-z
1/2-x,1/2+y,1/2-z
-x,-y,-z
1/2+x,y,-z
-x,1/2+y,1/2+z
1/2+x,1/2-y,1/2+z
loop_
_atom_site_type_symbol
_atom_site_label
_atom_site_fract_x
_atom_site_fract_y
_atom_site_fract_z
Si Si1 0.623551 0.032351 0.545144
Si Si2 0.132781 0.931054 0.749819
Si Si3 0.446307 0.349216 0.181997
Si Si4 0.145491 0.109962 0.054733
Si Si5 0.581111 0.419610 0.396296
O O1 0.627387 0.209886 0.573023
O O2 0.750000 0.000000 0.505827
O O3 0.500000 0.000000 0.500000
O O4 0.626300 0.917314 0.614802
O O5 0.131752 0.750000 0.750000
O O6 0.250000 0.000000 0.713939
O O7 0.018531 0.009105 0.715648
O O8 0.134586 0.978870 0.833636
O O9 0.393024 0.250000 0.250000
O O10 0.538260 0.234614 0.143574
O O11 0.250000 0.000000 0.083517
O O12 0.031006 0.015131 0.076335
O O13 0.156090 0.116887 0.967044
#
# Coordination Sequence:
#
# PCOD9411098 Si02
#       5
#     8   8   8   8   8
#     4  12  26  47  73 112 150 196 251 313 379 455
#     4  11  22  39  62  93 135 186 243 304 369 443
#     4  10  22  44  68  99 142 190 244 308 370 457
#     4  11  23  39  68  98 143 185 238 303 370 448
#     4  10  21  40  62  94 135 178 238 290 374 432
#
# _framework density 22.019995999999999
#
# number of rings (size 3 to 8) (size 9 to 14) (size 15 to 20)
#    0.000    1.200    2.000    4.800    2.800    0.800 
#    3.600    9.000    0.000    0.000    0.000    0.000 
#    0.000    0.000    0.000    0.000    0.000    0.000 
#
# Total GULP energy -223082.991041 kJ/mol
# GULP energy per Si atom -5577.074776 kJ/mol
# Density = 2.196988 g / cm^3
# Si number density = 22.019996 Si / 1000 Ang^3
#
#
#
# Elastic Constant Matrix: (Units=GPa)
#
#
# Indices 1 2 3 4 5 6 
#
# 1 96.8710 29.4738 20.8185 0.0000 0.0000 0.0000
# 2 29.4738 175.2251 21.1763 0.0000 0.0000 0.0000
# 3 20.8185 21.1763 75.2294 0.0000 0.0000 0.0000
# 4 0.0000 0.0000 0.0000 27.1196 0.0000 0.0000
# 5 0.0000 0.0000 0.0000 0.0000 21.9467 0.0000
# 6 0.0000 0.0000 0.0000 0.0000 0.0000 -30.7654
#
#
#
# Elastic Compliance Matrix: (Units=1/GPa)
#
#
# Indices 1 2 3 4 5 6 
#
# 1 0.011388 -0.001589 -0.002704 0.000000 0.000000 0.000000
# 2 -0.001589 0.006130 -0.001286 0.000000 0.000000 0.000000
# 3 -0.002704 -0.001286 0.014403 0.000000 0.000000 0.000000
# 4 0.000000 0.000000 0.000000 0.036874 0.000000 0.000000
# 5 0.000000 0.000000 0.000000 0.000000 0.045565 0.000000
# 6 0.000000 0.000000 0.000000 0.000000 0.000000 -0.032504
#
#
# Mechanical properties :
#
#
# Convention : Reuss Voigt Hill
#
# Bulk Modulus (GPa) = 48.16279 54.47363 51.31821
# Shear Modulus (GPa) = 50.03371 22.05064 36.04218
#
# Velocity S-wave (km/s) = 4.77193 3.16791 4.05012
# Velocity P-wave (km/s) = 7.23059 6.17842 6.72511
#
# Compressibility (1/GPa) = 0.02076292
#
# Stress axis : x y z
#
# Youngs Moduli (GPa) = 87.81557 163.14409 69.43027
#
# Poissons Ratio (x) = 0.25918 0.18775
# Poissons Ratio (y) = 0.13951 0.08927
# Poissons Ratio (z) = 0.23746 0.20977
#
# Static dielectric constant tensor:
#      x y z
#    x 1.576620 0.000000 0.000000 
#    y 0.000000 1.788730 0.000000 
#    z 0.000000 0.000000 1.840370 
# 
# From -- ./inp_files/31945.got.cif
#   From: 2010.05.17/outbox.cif.g08.bks.cpg/sg52_16_cif.got.tgz:31945.got - 2010.06.03 12:15:38.
