data_PCOD9411485
_publ_section_title
;
Structure prediction by ZEFSAII (Michael W. Deem and Ramdas Pophale) SiO2 
 PCOD9411485
Probable space group: P N N A
;
_chemical_formula_sum "Si O2"
_cell_formula_units_Z 40
_cell_length_a 12.736723
_cell_length_b 6.068934
_cell_length_c 24.344429
_cell_angle_alpha 90.000000
_cell_angle_beta 90.000000
_cell_angle_gamma 90.000000
_cell_volume 1881.783737
_symmetry_space_group_name_H-M "P N N A"
_symmetry_group_IT_number 52
_symmetry_cell_setting 'orthorhombic'
loop_
_space_group_symop_operation_xyz
x,y,z
1/2-x,-y,z
x,1/2-y,1/2-z
1/2-x,1/2+y,1/2-z
-x,-y,-z
1/2+x,y,-z
-x,1/2+y,1/2+z
1/2+x,1/2-y,1/2+z
loop_
_atom_site_type_symbol
_atom_site_label
_atom_site_fract_x
_atom_site_fract_y
_atom_site_fract_z
Si Si1 0.302464 0.750000 0.250000
Si Si2 0.532708 0.119049 0.428925
Si Si3 0.364021 0.245611 0.510549
Si Si4 0.366640 0.000273 0.874941
Si Si5 0.927804 0.756436 0.860325
Si Si6 0.750000 0.000000 0.925626
O O1 0.250000 0.500000 0.260178
O O2 0.369388 0.699793 0.195519
O O3 0.470346 0.259642 0.474163
O O4 0.585606 0.259048 0.381506
O O5 0.623686 0.990131 0.461065
O O6 0.451873 0.945625 0.401624
O O7 0.358794 0.408358 0.562273
O O8 0.275987 0.299108 0.466383
O O9 0.250000 0.000000 0.851226
O O10 0.457283 0.145063 0.847763
O O11 0.851478 0.932189 0.890522
#
# Coordination Sequence:
#
# PCOD9411485 Si02
#       6
#     4   8   8   8   8   4
#     4  12  30  54  84 112 138 182 234 318 388 438
#     4  10  23  38  63  94 137 189 233 282 345 428
#     4  10  22  35  60  95 143 188 228 279 343 424
#     4  11  23  42  64  97 144 189 235 282 342 432
#     4  11  27  44  70 102 137 178 241 300 366 431
#     4  12  22  40  62 100 144 178 234 290 356 428
#
# _framework density 21.256426999999999
#
# number of rings (size 3 to 8) (size 9 to 14) (size 15 to 20)
#    0.000    1.200    4.000    0.600   11.200    4.800 
#    0.000    0.000    4.400    0.000    0.000    0.000 
#    0.000    0.000    0.000    0.000    0.000    0.000 
#
# Total GULP energy -223106.735267 kJ/mol
# GULP energy per Si atom -5577.668382 kJ/mol
# Density = 2.120805 g / cm^3
# Si number density = 21.256427 Si / 1000 Ang^3
#
#
#
# Elastic Constant Matrix: (Units=GPa)
#
#
# Indices 1 2 3 4 5 6 
#
# 1 106.2338 33.0559 20.1100 0.0000 0.0000 0.0000
# 2 33.0559 67.8362 11.5553 0.0000 0.0000 0.0000
# 3 20.1100 11.5553 66.8458 0.0000 0.0000 0.0000
# 4 0.0000 0.0000 0.0000 17.8264 0.0000 0.0000
# 5 0.0000 0.0000 0.0000 0.0000 25.7694 0.0000
# 6 0.0000 0.0000 0.0000 0.0000 0.0000 29.6698
#
#
#
# Elastic Compliance Matrix: (Units=1/GPa)
#
#
# Indices 1 2 3 4 5 6 
#
# 1 0.011508 -0.005170 -0.002568 0.000000 0.000000 0.000000
# 2 -0.005170 0.017512 -0.001472 0.000000 0.000000 0.000000
# 3 -0.002568 -0.001472 0.015987 0.000000 0.000000 0.000000
# 4 0.000000 0.000000 0.000000 0.056097 0.000000 0.000000
# 5 0.000000 0.000000 0.000000 0.000000 0.038806 0.000000
# 6 0.000000 0.000000 0.000000 0.000000 0.000000 0.033704
#
#
# Mechanical properties :
#
#
# Convention : Reuss Voigt Hill
#
# Bulk Modulus (GPa) = 37.61404 41.15094 39.38249
# Shear Modulus (GPa) = 24.88850 26.39942 25.64396
#
# Velocity S-wave (km/s) = 3.42551 3.52795 3.47711
# Velocity P-wave (km/s) = 5.77748 5.99972 5.88965
#
# Compressibility (1/GPa) = 0.02658582
#
# Stress axis : x y z
#
# Youngs Moduli (GPa) = 86.89457 57.10524 62.55131
#
# Poissons Ratio (x) = 0.29525 0.16066
# Poissons Ratio (y) = 0.44927 0.09206
# Poissons Ratio (z) = 0.22318 0.08404
#
# Static dielectric constant tensor:
#      x y z
#    x 1.808970 0.000000 0.000000 
#    y 0.000000 1.859060 0.000000 
#    z 0.000000 0.000000 1.707730 
# 
# From -- ./inp_files/42590.got.cif
#   From: 2010.05.17/outbox.cif.g08.bks.cpg/sg52_22_cif.got.tgz:42590.got - 2010.06.03 12:15:38.
