data_PCOD9411734
_publ_section_title
;
Structure prediction by ZEFSAII (Michael W. Deem and Ramdas Pophale) SiO2 
 PCOD9411734
Probable space group: P N N A
;
_chemical_formula_sum "Si O2"
_cell_formula_units_Z 40
_cell_length_a 11.270536
_cell_length_b 27.624028
_cell_length_c 5.128610
_cell_angle_alpha 90.000000
_cell_angle_beta 90.000000
_cell_angle_gamma 90.000000
_cell_volume 1596.729139
_symmetry_space_group_name_H-M "P N N A"
_symmetry_group_IT_number 52
_symmetry_cell_setting 'orthorhombic'
loop_
_space_group_symop_operation_xyz
x,y,z
1/2-x,-y,z
x,1/2-y,1/2-z
1/2-x,1/2+y,1/2-z
-x,-y,-z
1/2+x,y,-z
-x,1/2+y,1/2+z
1/2+x,1/2-y,1/2+z
loop_
_atom_site_type_symbol
_atom_site_label
_atom_site_fract_x
_atom_site_fract_y
_atom_site_fract_z
Si Si1 0.366126 0.197607 0.159469
Si Si2 0.748471 0.335834 0.136357
Si Si3 0.058362 0.552972 0.509549
Si Si4 0.750000 0.500000 0.207412
Si Si5 0.073177 0.423013 0.987545
Si Si6 0.914355 0.750000 0.250000
O O1 0.316562 0.250000 0.250000
O O2 0.352729 0.167405 0.423704
O O3 0.497958 0.215305 0.082802
O O4 0.301684 0.170561 0.925361
O O5 0.013298 0.418424 0.268335
O O6 0.665714 0.381302 0.081585
O O7 0.664787 0.288844 0.104832
O O8 0.190036 0.541099 0.609877
O O9 0.000000 0.500000 0.500000
O O10 0.030062 0.574713 0.229895
O O11 0.850773 0.526748 0.037788
#
# Coordination Sequence:
#
# PCOD9411734 Si02
#       6
#     8   8   8   4   8   4
#     4  10  23  39  63  90 120 163 213 248 321 385
#     4  12  23  43  62  95 129 163 212 272 310 386
#     4  10  22  42  62  94 121 167 210 253 317 377
#     4  10  22  42  66  86 132 170 202 274 312 376
#     4  11  25  39  65  95 128 164 218 261 323 387
#     4  10  22  40  64  84 124 168 204 266 322 378
#
# _framework density 25.051213000000001
#
# number of rings (size 3 to 8) (size 9 to 14) (size 15 to 20)
#    0.600    0.800    2.000    3.600    0.000   13.600 
#    0.000    0.000    0.000    0.000    0.000    0.000 
#    0.000    0.000    0.000    0.000    0.000    0.000 
#
# Total GULP energy -223633.593855 kJ/mol
# GULP energy per Si atom -5590.839846 kJ/mol
# Density = 2.499420 g / cm^3
# Si number density = 25.051213 Si / 1000 Ang^3
#
#
#
# Elastic Constant Matrix: (Units=GPa)
#
#
# Indices 1 2 3 4 5 6 
#
# 1 66.7974 21.1728 9.2676 0.0000 0.0000 0.0000
# 2 21.1728 109.6178 26.2464 0.0000 0.0000 0.0000
# 3 9.2676 26.2464 103.6107 0.0000 0.0000 0.0000
# 4 0.0000 0.0000 0.0000 31.9508 0.0000 0.0000
# 5 0.0000 0.0000 0.0000 0.0000 192.6781 0.0000
# 6 0.0000 0.0000 0.0000 0.0000 0.0000 56.3479
#
#
#
# Elastic Compliance Matrix: (Units=1/GPa)
#
#
# Indices 1 2 3 4 5 6 
#
# 1 0.015993 -0.002924 -0.000690 0.000000 0.000000 0.000000
# 2 -0.002924 0.010246 -0.002334 0.000000 0.000000 0.000000
# 3 -0.000690 -0.002334 0.010304 0.000000 0.000000 0.000000
# 4 0.000000 0.000000 0.000000 0.031298 0.000000 0.000000
# 5 0.000000 0.000000 0.000000 0.000000 0.005190 0.000000
# 6 0.000000 0.000000 0.000000 0.000000 0.000000 0.017747
#
#
# Mechanical properties :
#
#
# Convention : Reuss Voigt Hill
#
# Bulk Modulus (GPa) = 40.57082 43.71107 42.14095
# Shear Modulus (GPa) = 45.08954 71.08464 58.08709
#
# Velocity S-wave (km/s) = 4.24712 5.33267 4.82055
# Velocity P-wave (km/s) = 6.34673 7.44332 6.91679
#
# Compressibility (1/GPa) = 0.02464826
#
# Stress axis : x y z
#
# Youngs Moduli (GPa) = 62.52681 97.59708 97.04538
#
# Poissons Ratio (x) = 0.28537 0.06695
# Poissons Ratio (y) = 0.18282 0.22650
# Poissons Ratio (z) = 0.04313 0.22779
#
# Static dielectric constant tensor:
#      x y z
#    x 2.036690 0.000000 0.000000 
#    y 0.000000 1.988420 0.000000 
#    z 0.000000 0.000000 1.936670 
# 
# From -- ./inp_files/1438.got.cif
#   From: 2010.05.17/outbox.cif.g08.bks.cpg/sg52_1_cif.got.tgz:1438.got - 2010.06.03 12:15:38.
