data_PCOD9411630
_publ_section_title
;
Structure prediction by ZEFSAII (Michael W. Deem and Ramdas Pophale) SiO2 
 PCOD9411630
Probable space group: P N N A
;
_chemical_formula_sum "Si O2"
_cell_formula_units_Z 48
_cell_length_a 27.202463
_cell_length_b 14.724620
_cell_length_c 6.259686
_cell_angle_alpha 90.000000
_cell_angle_beta 90.000000
_cell_angle_gamma 90.000000
_cell_volume 2507.291755
_symmetry_space_group_name_H-M "P N N A"
_symmetry_group_IT_number 52
_symmetry_cell_setting 'orthorhombic'
loop_
_space_group_symop_operation_xyz
x,y,z
1/2-x,-y,z
x,1/2-y,1/2-z
1/2-x,1/2+y,1/2-z
-x,-y,-z
1/2+x,y,-z
-x,1/2+y,1/2+z
1/2+x,1/2-y,1/2+z
loop_
_atom_site_type_symbol
_atom_site_label
_atom_site_fract_x
_atom_site_fract_y
_atom_site_fract_z
Si Si1 0.816531 0.342872 0.132630
Si Si2 0.785484 0.840875 0.132015
Si Si3 0.101324 0.337633 0.134462
Si Si4 0.768712 0.250000 0.750000
Si Si5 0.961008 0.921149 0.023257
Si Si6 0.461568 0.750000 0.750000
Si Si7 0.134692 0.468630 0.795142
O O1 0.833274 0.250000 0.250000
O O2 0.763654 0.367073 0.237683
O O3 0.851890 0.427510 0.162411
O O4 0.803047 0.314385 0.893002
O O5 0.805830 0.750000 0.250000
O O6 0.825194 0.919303 0.145088
O O7 0.765295 0.809907 0.904239
O O8 0.125324 0.250000 0.250000
O O9 0.065022 0.386240 0.304811
O O10 0.071273 0.292180 0.939508
O O11 0.134604 0.412337 0.018099
O O12 0.987096 0.834874 0.137499
O O13 0.917235 0.955414 0.177866
O O14 0.000000 0.000000 0.000000
#
# Coordination Sequence:
#
# PCOD9411630 Si02
#       7
#     8   8   8   4   8   4   8
#     4   9  20  40  56  82 121 159 201 244 283 353
#     4   9  20  35  57  87 119 151 193 244 295 352
#     4   9  20  37  58  85 114 149 190 243 301 356
#     4   8  18  40  62  79 122 160 198 243 290 352
#     4  10  22  39  59  86 116 152 198 245 304 357
#     4   8  18  38  58  79 114 148 182 245 294 352
#     4  11  22  36  61  88 121 156 198 248 303 361
#
# _framework density 19.144164
#
# number of rings (size 3 to 8) (size 9 to 14) (size 15 to 20)
#    0.000    3.000    0.000    0.500    7.000    8.000 
#    1.500   10.833    0.000    1.000    0.000    0.000 
#    0.000    0.000    0.000    0.000    0.000    0.000 
#
# Total GULP energy -267646.883160 kJ/mol
# GULP energy per Si atom -5575.976732 kJ/mol
# Density = 1.910059 g / cm^3
# Si number density = 19.144164 Si / 1000 Ang^3
#
#
#
# Elastic Constant Matrix: (Units=GPa)
#
#
# Indices 1 2 3 4 5 6 
#
# 1 49.5253 59.5993 32.5613 0.0000 0.0000 0.0000
# 2 59.5993 164.9408 51.1445 0.0000 0.0000 0.0000
# 3 32.5613 51.1445 105.5562 0.0000 0.0000 0.0000
# 4 0.0000 0.0000 0.0000 19.6504 0.0000 0.0000
# 5 0.0000 0.0000 0.0000 0.0000 9.4952 0.0000
# 6 0.0000 0.0000 0.0000 0.0000 0.0000 32.8603
#
#
#
# Elastic Compliance Matrix: (Units=1/GPa)
#
#
# Indices 1 2 3 4 5 6 
#
# 1 0.038791 -0.012128 -0.006089 0.000000 0.000000 0.000000
# 2 -0.012128 0.010927 -0.001553 0.000000 0.000000 0.000000
# 3 -0.006089 -0.001553 0.012105 0.000000 0.000000 0.000000
# 4 0.000000 0.000000 0.000000 0.050890 0.000000 0.000000
# 5 0.000000 0.000000 0.000000 0.000000 0.105316 0.000000
# 6 0.000000 0.000000 0.000000 0.000000 0.000000 0.030432
#
#
# Mechanical properties :
#
#
# Convention : Reuss Voigt Hill
#
# Bulk Modulus (GPa) = 44.88248 67.40361 56.14304
# Shear Modulus (GPa) = 16.92462 24.18234 20.55348
#
# Velocity S-wave (km/s) = 2.97654 3.55797 3.28016
# Velocity P-wave (km/s) = 5.94209 7.22244 6.61333
#
# Compressibility (1/GPa) = 0.02228041
#
# Stress axis : x y z
#
# Youngs Moduli (GPa) = 25.77943 91.51857 82.61378
#
# Poissons Ratio (x) = 1.10996 0.50307
# Poissons Ratio (y) = 0.31266 0.12830
# Poissons Ratio (z) = 0.15698 0.14213
#
# Static dielectric constant tensor:
#      x y z
#    x 1.643290 0.000000 0.000000 
#    y 0.000000 1.686140 0.000000 
#    z 0.000000 0.000000 1.711230 
# 
# From -- ./inp_files/5833.got.cif
#   From: 2010.05.17/outbox.cif.g08.bks.cpg/sg52_3_cif.got.tgz:5833.got - 2010.06.03 12:15:38.
