data_PCOD9411380
_publ_section_title
;
Structure prediction by ZEFSAII (Michael W. Deem and Ramdas Pophale) SiO2 
 PCOD9411380
Probable space group: P N N A
;
_chemical_formula_sum "Si O2"
_cell_formula_units_Z 56
_cell_length_a 12.364571
_cell_length_b 15.033798
_cell_length_c 14.483679
_cell_angle_alpha 90.000000
_cell_angle_beta 90.000000
_cell_angle_gamma 90.000000
_cell_volume 2692.319857
_symmetry_space_group_name_H-M "P N N A"
_symmetry_group_IT_number 52
_symmetry_cell_setting 'orthorhombic'
loop_
_space_group_symop_operation_xyz
x,y,z
1/2-x,-y,z
x,1/2-y,1/2-z
1/2-x,1/2+y,1/2-z
-x,-y,-z
1/2+x,y,-z
-x,1/2+y,1/2+z
1/2+x,1/2-y,1/2+z
loop_
_atom_site_type_symbol
_atom_site_label
_atom_site_fract_x
_atom_site_fract_y
_atom_site_fract_z
Si Si1 0.836217 0.298390 0.121602
Si Si2 0.058761 0.910378 0.459929
Si Si3 0.916903 0.395036 0.424936
Si Si4 0.035287 0.157636 0.246816
Si Si5 0.367021 0.479649 0.225172
Si Si6 0.593746 0.272010 0.147490
Si Si7 0.969884 0.919501 0.117013
O O1 0.848680 0.194821 0.089712
O O2 0.714325 0.310556 0.155209
O O3 0.921404 0.324057 0.201788
O O4 0.871768 0.361649 0.038128
O O5 0.135219 0.930956 0.372418
O O6 0.973396 0.839046 0.416951
O O7 0.000000 0.000000 0.500000
O O8 0.891488 0.494268 0.387605
O O9 0.019227 0.370537 0.359069
O O10 0.949651 0.412983 0.529683
O O11 0.098048 0.250000 0.250000
O O12 0.088053 0.076983 0.298301
O O13 0.250000 0.500000 0.267732
O O14 0.453158 0.433323 0.293570
O O15 0.548977 0.250000 0.250000
O O16 0.594531 0.172050 0.108801
#
# Coordination Sequence:
#
# PCOD9411380 Si02
#       7
#     8   8   8   8   8   8   8
#     4  11  23  41  70 100 131 181 234 279 359 421
#     4  12  26  45  67  98 142 183 238 295 339 428
#     4   9  19  40  65  91 131 170 218 279 337 403
#     4   9  19  41  65  92 131 171 228 283 325 418
#     4  11  24  44  67  95 134 180 227 277 356 416
#     4  12  25  45  70 102 142 184 229 298 360 415
#     4  10  21  43  65  95 137 171 221 289 343 416
#
# _framework density 20.799904999999999
#
# number of rings (size 3 to 8) (size 9 to 14) (size 15 to 20)
#    0.000    1.429    4.286    1.286    2.000    0.571 
#   10.286    1.429    0.000    0.000    0.000    0.000 
#    0.000    0.000    0.000    0.000    0.000    0.000 
#
# Total GULP energy -311828.402562 kJ/mol
# GULP energy per Si atom -5568.364331 kJ/mol
# Density = 2.075256 g / cm^3
# Si number density = 20.799905 Si / 1000 Ang^3
#
#
#
# Elastic Constant Matrix: (Units=GPa)
#
#
# Indices 1 2 3 4 5 6 
#
# 1 53.1187 25.5503 -4.4489 0.0000 0.0000 0.0000
# 2 25.5503 140.8314 21.8770 0.0000 0.0000 0.0000
# 3 -4.4489 21.8770 99.8379 0.0000 0.0000 0.0000
# 4 0.0000 0.0000 0.0000 34.2519 0.0000 0.0000
# 5 0.0000 0.0000 0.0000 0.0000 3.6906 0.0000
# 6 0.0000 0.0000 0.0000 0.0000 0.0000 11.7760
#
#
#
# Elastic Compliance Matrix: (Units=1/GPa)
#
#
# Indices 1 2 3 4 5 6 
#
# 1 0.020943 -0.004084 0.001828 0.000000 0.000000 0.000000
# 2 -0.004084 0.008147 -0.001967 0.000000 0.000000 0.000000
# 3 0.001828 -0.001967 0.010529 0.000000 0.000000 0.000000
# 4 0.000000 0.000000 0.000000 0.029195 0.000000 0.000000
# 5 0.000000 0.000000 0.000000 0.000000 0.270960 0.000000
# 6 0.000000 0.000000 0.000000 0.000000 0.000000 0.084919
#
#
# Mechanical properties :
#
#
# Convention : Reuss Voigt Hill
#
# Bulk Modulus (GPa) = 32.07849 42.19387 37.13618
# Shear Modulus (GPa) = 11.27321 26.66434 18.96878
#
# Velocity S-wave (km/s) = 2.33058 3.58431 3.02315
# Velocity P-wave (km/s) = 4.76425 6.12040 5.48441
#
# Compressibility (1/GPa) = 0.03117354
#
# Stress axis : x y z
#
# Youngs Moduli (GPa) = 47.74849 122.74252 94.97796
#
# Poissons Ratio (x) = 0.50123 -0.17363
# Poissons Ratio (y) = 0.19498 0.18684
# Poissons Ratio (z) = -0.08729 0.24146
#
# Static dielectric constant tensor:
#      x y z
#    x 1.747490 0.000000 0.000000 
#    y 0.000000 1.831520 0.000000 
#    z 0.000000 0.000000 1.773770 
# 
# From -- ./inp_files/26153.got.cif
#   From: 2010.05.17/outbox.cif.g08.bks.cpg/sg52_14_cif.got.tgz:26153.got - 2010.06.03 12:15:38.
