data_PCOD9411960
_publ_section_title
;
Structure prediction by ZEFSAII (Michael W. Deem and Ramdas Pophale) SiO2 
 PCOD9411960
Probable space group: P N N A
;
_chemical_formula_sum "Si O2"
_cell_formula_units_Z 56
_cell_length_a 5.130250
_cell_length_b 14.324342
_cell_length_c 34.852144
_cell_angle_alpha 90.000000
_cell_angle_beta 90.000000
_cell_angle_gamma 90.000000
_cell_volume 2561.195383
_symmetry_space_group_name_H-M "P N N A"
_symmetry_group_IT_number 52
_symmetry_cell_setting 'orthorhombic'
loop_
_space_group_symop_operation_xyz
x,y,z
1/2-x,-y,z
x,1/2-y,1/2-z
1/2-x,1/2+y,1/2-z
-x,-y,-z
1/2+x,y,-z
-x,1/2+y,1/2+z
1/2+x,1/2-y,1/2+z
loop_
_atom_site_type_symbol
_atom_site_label
_atom_site_fract_x
_atom_site_fract_y
_atom_site_fract_z
Si Si1 0.904141 0.402507 0.649501
Si Si2 0.328474 0.309437 0.929194
Si Si3 0.750000 0.000000 0.473478
Si Si4 0.999716 0.373030 0.473958
Si Si5 0.002569 0.433486 0.732773
Si Si6 0.322555 0.211946 0.381184
Si Si7 0.750000 0.500000 0.411045
Si Si8 0.000136 0.432671 0.817487
O O1 0.750000 0.500000 0.651629
O O2 0.748059 0.313320 0.635154
O O3 0.997455 0.379109 0.692640
O O4 0.121574 0.425507 0.617798
O O5 0.261231 0.406398 0.949025
O O6 0.448365 0.230496 0.957113
O O7 0.558500 0.328823 0.898737
O O8 0.054914 0.274676 0.911804
O O9 0.500000 0.000000 0.500000
O O10 0.780911 0.385497 0.506957
O O11 0.945538 0.445204 0.439365
O O12 0.250000 0.500000 0.730000
O O13 0.750000 0.500000 0.733710
O O14 0.019028 0.387478 0.774743
O O15 0.449630 0.145273 0.349252
O O16 0.750000 0.500000 0.817911
O O17 0.250000 0.500000 0.823709
#
# Coordination Sequence:
#
# PCOD9411960 Si02
#       8
#     8   8   4   8   8   8   4   8
#     4  11  24  42  69  96 142 182 232 287 338 404
#     4  12  26  46  70 101 136 173 224 278 342 413
#     4  12  26  48  74  99 130 176 226 279 346 414
#     4  12  26  45  67  95 133 172 219 280 343 410
#     4   9  19  38  64  96 131 184 226 278 338 393
#     4  12  26  42  68 105 135 182 224 281 343 404
#     4  12  24  42  66  97 130 178 232 279 336 416
#     4  10  22  42  67  98 141 178 228 281 340 405
#
# _framework density 21.864788999999998
#
# number of rings (size 3 to 8) (size 9 to 14) (size 15 to 20)
#    0.000    0.857    2.143    4.714    5.000    0.571 
#    0.000    0.000    0.000    6.857    0.000    0.000 
#    0.000    0.000    0.000    0.000    0.000    0.000 
#
# Total GULP energy -313197.669251 kJ/mol
# GULP energy per Si atom -5592.815522 kJ/mol
# Density = 2.181502 g / cm^3
# Si number density = 21.864789 Si / 1000 Ang^3
#
#
#
# Elastic Constant Matrix: (Units=GPa)
#
#
# Indices 1 2 3 4 5 6 
#
# 1 116.8415 15.1063 22.7768 0.0000 0.0000 0.0000
# 2 15.1063 110.5044 44.9820 0.0000 0.0000 0.0000
# 3 22.7768 44.9820 85.8328 0.0000 0.0000 0.0000
# 4 0.0000 0.0000 0.0000 260.1394 0.0000 0.0000
# 5 0.0000 0.0000 0.0000 0.0000 28.4292 0.0000
# 6 0.0000 0.0000 0.0000 0.0000 0.0000 26.6706
#
#
#
# Elastic Compliance Matrix: (Units=1/GPa)
#
#
# Indices 1 2 3 4 5 6 
#
# 1 0.009035 -0.000329 -0.002225 0.000000 0.000000 0.000000
# 2 -0.000329 0.011515 -0.005947 0.000000 0.000000 0.000000
# 3 -0.002225 -0.005947 0.015358 0.000000 0.000000 0.000000
# 4 0.000000 0.000000 0.000000 0.003844 0.000000 0.000000
# 5 0.000000 0.000000 0.000000 0.000000 0.035175 0.000000
# 6 0.000000 0.000000 0.000000 0.000000 0.000000 0.037495
#
#
# Mechanical properties :
#
#
# Convention : Reuss Voigt Hill
#
# Bulk Modulus (GPa) = 52.89701 53.21209 53.05455
# Shear Modulus (GPa) = 36.83871 78.40208 57.62040
#
# Velocity S-wave (km/s) = 4.10914 5.99463 5.13909
# Velocity P-wave (km/s) = 6.83803 8.50316 7.71565
#
# Compressibility (1/GPa) = 0.01890466
#
# Stress axis : x y z
#
# Youngs Moduli (GPa) = 110.68181 86.84026 65.11358
#
# Poissons Ratio (x) = 0.02861 0.14487
# Poissons Ratio (y) = 0.03646 0.38726
# Poissons Ratio (z) = 0.24625 0.51647
#
# Static dielectric constant tensor:
#      x y z
#    x 1.776930 0.000000 0.000000 
#    y 0.000000 1.777100 0.000000 
#    z 0.000000 0.000000 1.927310 
# 
# From -- ./inp_files/43815.got.cif
#   From: 2010.05.17/outbox.cif.g08.bks.cpg/sg52_22_cif.got.tgz:43815.got - 2010.06.03 12:15:38.
