data_PCOD9411595
_publ_section_title
;
Structure prediction by ZEFSAII (Michael W. Deem and Ramdas Pophale) SiO2 
 PCOD9411595
Probable space group: P N N A
;
_chemical_formula_sum "Si O2"
_cell_formula_units_Z 40
_cell_length_a 13.013794
_cell_length_b 4.978932
_cell_length_c 29.752199
_cell_angle_alpha 90.000000
_cell_angle_beta 90.000000
_cell_angle_gamma 90.000000
_cell_volume 1927.787647
_symmetry_space_group_name_H-M "P N N A"
_symmetry_group_IT_number 52
_symmetry_cell_setting 'orthorhombic'
loop_
_space_group_symop_operation_xyz
x,y,z
1/2-x,-y,z
x,1/2-y,1/2-z
1/2-x,1/2+y,1/2-z
-x,-y,-z
1/2+x,y,-z
-x,1/2+y,1/2+z
1/2+x,1/2-y,1/2+z
loop_
_atom_site_type_symbol
_atom_site_label
_atom_site_fract_x
_atom_site_fract_y
_atom_site_fract_z
Si Si1 0.750000 0.500000 0.220511
Si Si2 0.957648 0.252802 0.027821
Si Si3 0.123823 0.217709 0.857461
Si Si4 0.674731 0.251915 0.700818
Si Si5 0.499844 0.713759 0.129839
Si Si6 0.750000 0.500000 0.064770
O O1 0.794277 0.250000 0.250000
O O2 0.825994 0.661716 0.187295
O O3 0.836641 0.329723 0.037507
O O4 0.007949 0.232167 0.077126
O O5 0.000000 0.500000 0.000000
O O6 0.000000 0.000000 0.000000
O O7 0.190667 0.296506 0.901336
O O8 0.023065 0.399333 0.864168
O O9 0.095098 0.905825 0.855162
O O10 0.750000 0.500000 0.701547
O O11 0.621344 0.250000 0.750000
O O12 0.595223 0.278959 0.660833
O O13 0.750000 0.000000 0.695620
#
# Coordination Sequence:
#
# PCOD9411595 Si02
#       6
#     4   8   8   8   8   4
#     4  11  22  36  54  92 136 158 208 264 310 373
#     4  11  24  42  65  98 132 169 227 276 342 411
#     4  10  22  38  64  88 120 180 210 253 330 394
#     4  10  22  41  64  90 125 169 216 272 343 402
#     4  11  22  41  65  90 126 163 226 272 321 412
#     4   9  22  44  66  88 134 176 212 268 338 409
#
# _framework density 20.749175000000001
#
# number of rings (size 3 to 8) (size 9 to 14) (size 15 to 20)
#    0.000    1.600    0.000    4.800    0.000   12.800 
#    5.400    0.000    0.000    0.000    0.000    0.000 
#    0.000    0.000    0.000    0.000    0.000    0.000 
#
# Total GULP energy -223249.980292 kJ/mol
# GULP energy per Si atom -5581.249507 kJ/mol
# Density = 2.070195 g / cm^3
# Si number density = 20.749175 Si / 1000 Ang^3
#
#
#
# Elastic Constant Matrix: (Units=GPa)
#
#
# Indices 1 2 3 4 5 6 
#
# 1 83.9269 26.4662 66.3542 0.0000 0.0000 0.0000
# 2 26.4662 131.6232 41.1126 0.0000 0.0000 0.0000
# 3 66.3542 41.1126 165.0994 0.0000 0.0000 0.0000
# 4 0.0000 0.0000 0.0000 26.0203 0.0000 0.0000
# 5 0.0000 0.0000 0.0000 0.0000 22.8028 0.0000
# 6 0.0000 0.0000 0.0000 0.0000 0.0000 27.4270
#
#
#
# Elastic Compliance Matrix: (Units=1/GPa)
#
#
# Indices 1 2 3 4 5 6 
#
# 1 0.017717 -0.001451 -0.006759 0.000000 0.000000 0.000000
# 2 -0.001451 0.008357 -0.001498 0.000000 0.000000 0.000000
# 3 -0.006759 -0.001498 0.009146 0.000000 0.000000 0.000000
# 4 0.000000 0.000000 0.000000 0.038432 0.000000 0.000000
# 5 0.000000 0.000000 0.000000 0.000000 0.043854 0.000000
# 6 0.000000 0.000000 0.000000 0.000000 0.000000 0.036460
#
#
# Mechanical properties :
#
#
# Convention : Reuss Voigt Hill
#
# Bulk Modulus (GPa) = 63.27493 72.05727 67.66610
# Shear Modulus (GPa) = 27.98763 31.69778 29.84271
#
# Velocity S-wave (km/s) = 3.67666 3.91278 3.79655
# Velocity P-wave (km/s) = 6.97030 7.43076 7.20421
#
# Compressibility (1/GPa) = 0.01580405
#
# Stress axis : x y z
#
# Youngs Moduli (GPa) = 56.44438 119.65894 109.33254
#
# Poissons Ratio (x) = 0.17365 0.73898
# Poissons Ratio (y) = 0.08191 0.16376
# Poissons Ratio (z) = 0.38151 0.17923
#
# Static dielectric constant tensor:
#      x y z
#    x 1.744760 0.000000 0.000000 
#    y 0.000000 1.750470 0.000000 
#    z 0.000000 0.000000 1.748000 
# 
# From -- ./inp_files/42559.got.cif
#   From: 2010.05.17/outbox.cif.g08.bks.cpg/sg52_22_cif.got.tgz:42559.got - 2010.06.03 12:15:38.
