data_PCOD9411239
_publ_section_title
;
Structure prediction by ZEFSAII (Michael W. Deem and Ramdas Pophale) SiO2 
 PCOD9411239
Probable space group: P N N A
;
_chemical_formula_sum "Si O2"
_cell_formula_units_Z 48
_cell_length_a 15.144598
_cell_length_b 7.900475
_cell_length_c 18.924352
_cell_angle_alpha 90.000000
_cell_angle_beta 90.000000
_cell_angle_gamma 90.000000
_cell_volume 2264.289593
_symmetry_space_group_name_H-M "P N N A"
_symmetry_group_IT_number 52
_symmetry_cell_setting 'orthorhombic'
loop_
_space_group_symop_operation_xyz
x,y,z
1/2-x,-y,z
x,1/2-y,1/2-z
1/2-x,1/2+y,1/2-z
-x,-y,-z
1/2+x,y,-z
-x,1/2+y,1/2+z
1/2+x,1/2-y,1/2+z
loop_
_atom_site_type_symbol
_atom_site_label
_atom_site_fract_x
_atom_site_fract_y
_atom_site_fract_z
Si Si1 0.613892 0.172109 0.966223
Si Si2 0.002654 0.874985 0.187035
Si Si3 0.664748 0.885894 0.187839
Si Si4 0.665654 0.381838 0.688077
Si Si5 0.063972 0.775418 0.036817
Si Si6 0.221783 0.684154 0.950280
O O1 0.639873 0.207188 0.885494
O O2 0.596608 0.970386 0.972227
O O3 0.521859 0.255591 0.988995
O O4 0.693598 0.224209 0.016432
O O5 0.981001 0.750000 0.250000
O O6 0.032617 0.770842 0.117740
O O7 0.083943 0.996699 0.207106
O O8 0.918577 0.993239 0.173462
O O9 0.647117 0.750000 0.250000
O O10 0.685090 0.788830 0.115301
O O11 0.750000 0.000000 0.206702
O O12 0.750000 0.500000 0.674848
O O13 0.683476 0.250000 0.750000
O O14 0.146313 0.667059 0.010370
O O15 0.250000 0.500000 0.925196
#
# Coordination Sequence:
#
# PCOD9411239 Si02
#       6
#     8   8   8   8   8   8
#     4  10  21  41  65  88 119 166 213 257 315 374
#     4  11  24  42  67  94 125 167 213 265 322 382
#     4  12  25  44  67  93 129 169 212 261 320 385
#     4  11  23  39  62  91 128 169 211 261 318 381
#     4  10  21  41  66  90 122 166 211 259 318 374
#     4  12  25  40  64  98 131 166 213 265 313 375
#
# _framework density 21.198702999999998
#
# number of rings (size 3 to 8) (size 9 to 14) (size 15 to 20)
#    0.000    1.000    0.000    9.500    0.000    4.000 
#    0.000    0.000    0.000    0.000    0.000    0.000 
#    0.000    0.000    0.000    0.000    0.000    0.000 
#
# Total GULP energy -268760.987259 kJ/mol
# GULP energy per Si atom -5599.187235 kJ/mol
# Density = 2.115045 g / cm^3
# Si number density = 21.198703 Si / 1000 Ang^3
#
#
#
# Elastic Constant Matrix: (Units=GPa)
#
#
# Indices 1 2 3 4 5 6 
#
# 1 133.6062 24.7804 32.5753 0.0000 0.0000 0.0000
# 2 24.7804 44.3587 42.8507 0.0000 0.0000 0.0000
# 3 32.5753 42.8507 120.9184 0.0000 0.0000 0.0000
# 4 0.0000 0.0000 0.0000 15.2240 0.0000 0.0000
# 5 0.0000 0.0000 0.0000 0.0000 21.3079 0.0000
# 6 0.0000 0.0000 0.0000 0.0000 0.0000 17.5308
#
#
#
# Elastic Compliance Matrix: (Units=1/GPa)
#
#
# Indices 1 2 3 4 5 6 
#
# 1 0.008416 -0.003818 -0.000914 0.000000 0.000000 0.000000
# 2 -0.003818 0.036010 -0.011733 0.000000 0.000000 0.000000
# 3 -0.000914 -0.011733 0.012674 0.000000 0.000000 0.000000
# 4 0.000000 0.000000 0.000000 0.065686 0.000000 0.000000
# 5 0.000000 0.000000 0.000000 0.000000 0.046931 0.000000
# 6 0.000000 0.000000 0.000000 0.000000 0.000000 0.057043
#
#
# Mechanical properties :
#
#
# Convention : Reuss Voigt Hill
#
# Bulk Modulus (GPa) = 41.37342 55.47735 48.42538
# Shear Modulus (GPa) = 18.67445 24.05768 21.36606
#
# Velocity S-wave (km/s) = 2.97126 3.37243 3.17818
# Velocity P-wave (km/s) = 5.59736 6.43361 6.03000
#
# Compressibility (1/GPa) = 0.02417010
#
# Stress axis : x y z
#
# Youngs Moduli (GPa) = 118.82485 27.76990 78.90154
#
# Poissons Ratio (x) = 0.10604 0.07212
# Poissons Ratio (y) = 0.45371 0.92571
# Poissons Ratio (z) = 0.10861 0.32581
#
# Static dielectric constant tensor:
#      x y z
#    x 1.742860 0.000000 0.000000 
#    y 0.000000 1.763590 0.000000 
#    z 0.000000 0.000000 1.755940 
# 
# From -- ./inp_files/33059.got.cif
#   From: 2010.05.17/outbox.cif.g08.bks.cpg/sg52_17_cif.got.tgz:33059.got - 2010.06.03 12:15:38.
