data_PCOD9411155
_publ_section_title
;
Structure prediction by ZEFSAII (Michael W. Deem and Ramdas Pophale) SiO2 
 PCOD9411155
Probable space group: P N N A
;
_chemical_formula_sum "Si O2"
_cell_formula_units_Z 48
_cell_length_a 18.649755
_cell_length_b 15.680219
_cell_length_c 8.786859
_cell_angle_alpha 90.000000
_cell_angle_beta 90.000000
_cell_angle_gamma 90.000000
_cell_volume 2569.560884
_symmetry_space_group_name_H-M "P N N A"
_symmetry_group_IT_number 52
_symmetry_cell_setting 'orthorhombic'
loop_
_space_group_symop_operation_xyz
x,y,z
1/2-x,-y,z
x,1/2-y,1/2-z
1/2-x,1/2+y,1/2-z
-x,-y,-z
1/2+x,y,-z
-x,1/2+y,1/2+z
1/2+x,1/2-y,1/2+z
loop_
_atom_site_type_symbol
_atom_site_label
_atom_site_fract_x
_atom_site_fract_y
_atom_site_fract_z
Si Si1 0.015543 0.750000 0.750000
Si Si2 0.821044 0.250000 0.750000
Si Si3 0.330716 0.988390 0.002150
Si Si4 0.070895 0.361815 0.660700
Si Si5 0.905365 0.811644 0.495513
Si Si6 0.215444 0.091347 0.317250
Si Si7 0.914888 0.339200 0.518109
O O1 0.964096 0.797006 0.627686
O O2 0.064836 0.686864 0.652577
O O3 0.772488 0.166258 0.720444
O O4 0.873160 0.264788 0.606411
O O5 0.323623 0.935068 0.159152
O O6 0.250000 0.000000 0.943151
O O7 0.364379 0.079820 0.032267
O O8 0.383949 0.942544 0.888087
O O9 0.110789 0.282466 0.574775
O O10 0.066625 0.355459 0.842042
O O11 0.990542 0.359167 0.597707
O O12 0.840205 0.864928 0.566661
O O13 0.250000 0.000000 0.368489
#
# Coordination Sequence:
#
# PCOD9411155 Si02
#       7
#     4   4   8   8   8   8   8
#     4  10  21  42  64  93 118 166 222 266 332 387
#     4  12  21  42  66  89 134 166 224 268 316 393
#     4  11  22  42  62  96 130 176 214 260 328 392
#     4  10  22  41  66  93 128 170 218 271 326 382
#     4  10  21  40  66  90 126 167 216 268 327 383
#     4  11  22  40  65  97 127 179 216 264 322 394
#     4  11  22  41  67  92 126 168 217 270 324 385
#
# _framework density 18.680235
#
# number of rings (size 3 to 8) (size 9 to 14) (size 15 to 20)
#    0.000    1.333    3.333    6.000    0.000    0.667 
#    6.000    1.667    0.000    0.000    0.000    0.000 
#    0.000    0.000    0.000    0.000    0.000    0.000 
#
# Total GULP energy -267702.950334 kJ/mol
# GULP energy per Si atom -5577.144799 kJ/mol
# Density = 1.863772 g / cm^3
# Si number density = 18.680235 Si / 1000 Ang^3
#
#
#
# Elastic Constant Matrix: (Units=GPa)
#
#
# Indices 1 2 3 4 5 6 
#
# 1 105.0654 60.3179 55.9616 0.0000 0.0000 0.0000
# 2 60.3179 96.1475 42.6024 0.0000 0.0000 0.0000
# 3 55.9616 42.6024 121.7256 0.0000 0.0000 0.0000
# 4 0.0000 0.0000 0.0000 31.2656 0.0000 0.0000
# 5 0.0000 0.0000 0.0000 0.0000 19.9597 0.0000
# 6 0.0000 0.0000 0.0000 0.0000 0.0000 -9.0407
#
#
#
# Elastic Compliance Matrix: (Units=1/GPa)
#
#
# Indices 1 2 3 4 5 6 
#
# 1 0.016974 -0.008511 -0.004825 0.000000 0.000000 0.000000
# 2 -0.008511 0.016577 -0.001889 0.000000 0.000000 0.000000
# 3 -0.004825 -0.001889 0.011094 0.000000 0.000000 0.000000
# 4 0.000000 0.000000 0.000000 0.031984 0.000000 0.000000
# 5 0.000000 0.000000 0.000000 0.000000 0.050101 0.000000
# 6 0.000000 0.000000 0.000000 0.000000 0.000000 -0.110611
#
#
# Mechanical properties :
#
#
# Convention : Reuss Voigt Hill
#
# Bulk Modulus (GPa) = 70.44193 71.18915 70.81554
# Shear Modulus (GPa) = 97.46621 19.37403 58.42012
#
# Velocity S-wave (km/s) = 7.23114 3.22396 5.59836
# Velocity P-wave (km/s) = 10.36872 7.21461 8.93199
#
# Compressibility (1/GPa) = 0.01419609
#
# Stress axis : x y z
#
# Youngs Moduli (GPa) = 58.91489 60.32533 90.13485
#
# Poissons Ratio (x) = 0.51340 0.43488
# Poissons Ratio (y) = 0.50140 0.17027
# Poissons Ratio (z) = 0.28425 0.11396
#
# Static dielectric constant tensor:
#      x y z
#    x 1.636860 0.000000 0.000000 
#    y 0.000000 1.581390 0.000000 
#    z 0.000000 0.000000 1.659620 
# 
# From -- ./inp_files/12175.got.cif
#   From: 2010.05.17/outbox.cif.g08.bks.cpg/sg52_7_cif.got.tgz:12175.got - 2010.06.03 12:15:38.
