data_PCOD9411483
_publ_section_title
;
Structure prediction by ZEFSAII (Michael W. Deem and Ramdas Pophale) SiO2 
 PCOD9411483
Probable space group: P N N A
;
_chemical_formula_sum "Si O2"
_cell_formula_units_Z 56
_cell_length_a 10.292390
_cell_length_b 17.570919
_cell_length_c 15.564895
_cell_angle_alpha 90.000000
_cell_angle_beta 90.000000
_cell_angle_gamma 90.000000
_cell_volume 2814.860691
_symmetry_space_group_name_H-M "P N N A"
_symmetry_group_IT_number 52
_symmetry_cell_setting 'orthorhombic'
loop_
_space_group_symop_operation_xyz
x,y,z
1/2-x,-y,z
x,1/2-y,1/2-z
1/2-x,1/2+y,1/2-z
-x,-y,-z
1/2+x,y,-z
-x,1/2+y,1/2+z
1/2+x,1/2-y,1/2+z
loop_
_atom_site_type_symbol
_atom_site_label
_atom_site_fract_x
_atom_site_fract_y
_atom_site_fract_z
Si Si1 0.030862 0.325511 0.897412
Si Si2 0.716534 0.739270 0.149431
Si Si3 0.896041 0.980967 0.316969
Si Si4 0.112324 0.602654 0.953556
Si Si5 0.449749 0.790025 0.154891
Si Si6 0.240300 0.161391 0.391899
Si Si7 0.859606 0.940101 0.766402
O O1 0.142984 0.262429 0.895360
O O2 0.079392 0.392380 0.834012
O O3 0.004505 0.363102 0.990712
O O4 0.884254 0.304749 0.869489
O O5 0.739636 0.750000 0.250000
O O6 0.649850 0.658511 0.124593
O O7 0.598467 0.794315 0.121904
O O8 0.750000 0.000000 0.287199
O O9 0.909057 0.022390 0.410120
O O10 0.008142 0.016321 0.258494
O O11 0.226933 0.612280 0.022971
O O12 0.458997 0.750000 0.250000
O O13 0.355793 0.732893 0.104385
O O14 0.389882 0.872789 0.167407
O O15 0.191236 0.103370 0.319452
O O16 0.750000 0.000000 0.792866
#
# Coordination Sequence:
#
# PCOD9411483 Si02
#       7
#     8   8   8   8   8   8   8
#     4  10  23  35  53  85 119 162 198 245 286 370
#     4  11  22  37  55  81 116 158 203 247 293 348
#     4  12  22  33  52  82 125 164 198 235 298 364
#     4  10  22  35  55  80 124 156 198 237 296 362
#     4   9  20  36  59  78 115 161 201 251 297 355
#     4   9  21  36  56  85 117 160 206 243 293 371
#     4  11  21  39  58  85 121 163 207 252 308 366
#
# _framework density 19.894413
#
# number of rings (size 3 to 8) (size 9 to 14) (size 15 to 20)
#    0.857    0.857    2.857    3.000    4.000    3.429 
#    0.000    0.000    0.000    0.000    0.000    1.000 
#    4.286    0.000    0.000    0.000    0.000    0.000 
#
# Total GULP energy -312129.253507 kJ/mol
# GULP energy per Si atom -5573.736670 kJ/mol
# Density = 1.984913 g / cm^3
# Si number density = 19.894413 Si / 1000 Ang^3
#
#
#
# Elastic Constant Matrix: (Units=GPa)
#
#
# Indices 1 2 3 4 5 6 
#
# 1 177.4731 33.0238 9.0908 0.0000 0.0000 0.0000
# 2 33.0238 60.5636 6.7349 0.0000 0.0000 0.0000
# 3 9.0908 6.7349 19.7826 0.0000 0.0000 0.0000
# 4 0.0000 0.0000 0.0000 23.4347 0.0000 0.0000
# 5 0.0000 0.0000 0.0000 0.0000 19.9389 0.0000
# 6 0.0000 0.0000 0.0000 0.0000 0.0000 24.9918
#
#
#
# Elastic Compliance Matrix: (Units=1/GPa)
#
#
# Indices 1 2 3 4 5 6 
#
# 1 0.006332 -0.003252 -0.001803 0.000000 0.000000 0.000000
# 2 -0.003252 0.018832 -0.004917 0.000000 0.000000 0.000000
# 3 -0.001803 -0.004917 0.053052 0.000000 0.000000 0.000000
# 4 0.000000 0.000000 0.000000 0.042672 0.000000 0.000000
# 5 0.000000 0.000000 0.000000 0.000000 0.050153 0.000000
# 6 0.000000 0.000000 0.000000 0.000000 0.000000 0.040013
#
#
# Mechanical properties :
#
#
# Convention : Reuss Voigt Hill
#
# Bulk Modulus (GPa) = 17.16076 39.50205 28.33140
# Shear Modulus (GPa) = 19.96636 27.60438 23.78537
#
# Velocity S-wave (km/s) = 3.17143 3.72902 3.46147
# Velocity P-wave (km/s) = 4.69630 6.19998 5.49977
#
# Compressibility (1/GPa) = 0.05827248
#
# Stress axis : x y z
#
# Youngs Moduli (GPa) = 157.92351 53.10191 18.84952
#
# Poissons Ratio (x) = 0.17270 0.03398
# Poissons Ratio (y) = 0.51362 0.09268
# Poissons Ratio (z) = 0.28468 0.26108
#
# Static dielectric constant tensor:
#      x y z
#    x 1.814450 0.000000 0.000000 
#    y 0.000000 1.693000 0.000000 
#    z 0.000000 0.000000 1.726830 
# 
# From -- ./inp_files/26162.got.cif
#   From: 2010.05.17/outbox.cif.g08.bks.cpg/sg52_14_cif.got.tgz:26162.got - 2010.06.03 12:15:38.
