data_PCOD9411701
_publ_section_title
;
Structure prediction by ZEFSAII (Michael W. Deem and Ramdas Pophale) SiO2 
 PCOD9411701
Probable space group: P N N A
;
_chemical_formula_sum "Si O2"
_cell_formula_units_Z 32
_cell_length_a 9.232959
_cell_length_b 7.794191
_cell_length_c 18.966100
_cell_angle_alpha 90.000000
_cell_angle_beta 90.000000
_cell_angle_gamma 90.000000
_cell_volume 1364.865912
_symmetry_space_group_name_H-M "P N N A"
_symmetry_group_IT_number 52
_symmetry_cell_setting 'orthorhombic'
loop_
_space_group_symop_operation_xyz
x,y,z
1/2-x,-y,z
x,1/2-y,1/2-z
1/2-x,1/2+y,1/2-z
-x,-y,-z
1/2+x,y,-z
-x,1/2+y,1/2+z
1/2+x,1/2-y,1/2+z
loop_
_atom_site_type_symbol
_atom_site_label
_atom_site_fract_x
_atom_site_fract_y
_atom_site_fract_z
Si Si1 0.686905 0.308962 0.556803
Si Si2 0.590729 0.073607 0.205417
Si Si3 0.995000 0.213225 0.575944
Si Si4 0.414091 0.922899 0.327876
O O1 0.750000 0.500000 0.554846
O O2 0.589199 0.263147 0.490552
O O3 0.611446 0.252887 0.629827
O O4 0.830911 0.196261 0.550936
O O5 0.605823 0.250000 0.250000
O O6 0.514613 0.135982 0.133677
O O7 0.750000 0.000000 0.190998
O O8 0.496403 0.946389 0.254171
O O9 0.013518 0.037024 0.618793
O O10 0.250000 0.000000 0.317580
#
# Coordination Sequence:
#
# PCOD9411701 Si02
#       4
#     8   8   8   8
#     4  11  22  37  61  92 126 164 213 274 332 394
#     4  10  22  40  61  89 127 171 223 280 336 398
#     4  10  22  40  60  90 130 171 215 271 335 403
#     4   9  21  41  63  89 126 174 221 271 336 405
#
# _framework density 23.445526000000001
#
# number of rings (size 3 to 8) (size 9 to 14) (size 15 to 20)
#    0.000    2.000    0.000    2.250    0.000    7.000 
#    0.000    7.500    0.000    0.000    0.000    0.000 
#    0.000    0.000    0.000    0.000    0.000    0.250 
#
# Total GULP energy -178806.633562 kJ/mol
# GULP energy per Si atom -5587.707299 kJ/mol
# Density = 2.339216 g / cm^3
# Si number density = 23.445526 Si / 1000 Ang^3
#
#
#
# Elastic Constant Matrix: (Units=GPa)
#
#
# Indices 1 2 3 4 5 6 
#
# 1 93.2858 42.7715 64.6119 0.0000 0.0000 0.0000
# 2 42.7715 82.4153 62.3446 0.0000 0.0000 0.0000
# 3 64.6119 62.3446 131.1229 0.0000 0.0000 0.0000
# 4 0.0000 0.0000 0.0000 23.1122 0.0000 0.0000
# 5 0.0000 0.0000 0.0000 0.0000 -50.3878 0.0000
# 6 0.0000 0.0000 0.0000 0.0000 0.0000 35.6103
#
#
#
# Elastic Compliance Matrix: (Units=1/GPa)
#
#
# Indices 1 2 3 4 5 6 
#
# 1 0.017037 -0.003890 -0.006545 0.000000 0.000000 0.000000
# 2 -0.003890 0.019838 -0.007515 0.000000 0.000000 0.000000
# 3 -0.006545 -0.007515 0.014425 0.000000 0.000000 0.000000
# 4 0.000000 0.000000 0.000000 0.043267 0.000000 0.000000
# 5 0.000000 0.000000 0.000000 0.000000 -0.019846 0.000000
# 6 0.000000 0.000000 0.000000 0.000000 0.000000 0.028082
#
#
# Mechanical properties :
#
#
# Convention : Reuss Voigt Hill
#
# Bulk Modulus (GPa) = 64.94448 71.80889 68.37668
# Shear Modulus (GPa) = 34.76166 10.80668 22.78417
#
# Velocity S-wave (km/s) = 3.85471 2.14925 3.12074
# Velocity P-wave (km/s) = 6.89724 6.07071 6.49713
#
# Compressibility (1/GPa) = 0.01539777
#
# Stress axis : x y z
#
# Youngs Moduli (GPa) = 58.69592 50.40925 69.32454
#
# Poissons Ratio (x) = 0.19611 0.45375
# Poissons Ratio (y) = 0.22835 0.52098
# Poissons Ratio (z) = 0.38419 0.37883
#
# Static dielectric constant tensor:
#      x y z
#    x 1.854010 0.000000 0.000000 
#    y 0.000000 1.945910 0.000000 
#    z 0.000000 0.000000 1.852650 
# 
# From -- ./inp_files/35442.got.cif
#   From: 2010.05.17/outbox.cif.g08.bks.cpg/sg52_18_cif.got.tgz:35442.got - 2010.06.03 12:15:38.
