data_PCOD9411389
_publ_section_title
;
Structure prediction by ZEFSAII (Michael W. Deem and Ramdas Pophale) SiO2 
 PCOD9411389
Probable space group: P N N A
;
_chemical_formula_sum "Si O2"
_cell_formula_units_Z 48
_cell_length_a 15.063545
_cell_length_b 9.800229
_cell_length_c 15.095532
_cell_angle_alpha 90.000000
_cell_angle_beta 90.000000
_cell_angle_gamma 90.000000
_cell_volume 2228.495884
_symmetry_space_group_name_H-M "P N N A"
_symmetry_group_IT_number 52
_symmetry_cell_setting 'orthorhombic'
loop_
_space_group_symop_operation_xyz
x,y,z
1/2-x,-y,z
x,1/2-y,1/2-z
1/2-x,1/2+y,1/2-z
-x,-y,-z
1/2+x,y,-z
-x,1/2+y,1/2+z
1/2+x,1/2-y,1/2+z
loop_
_atom_site_type_symbol
_atom_site_label
_atom_site_fract_x
_atom_site_fract_y
_atom_site_fract_z
Si Si1 0.197991 0.250000 0.250000
Si Si2 0.489481 0.820460 0.918394
Si Si3 0.947265 0.021375 0.589757
Si Si4 0.180001 0.389855 0.704575
Si Si5 0.068066 0.098608 0.110201
Si Si6 0.750000 0.500000 0.863147
Si Si7 0.566006 0.604386 0.233845
O O1 0.141798 0.167768 0.173564
O O2 0.251722 0.366244 0.198757
O O3 0.531230 0.678338 0.886173
O O4 0.400803 0.849942 0.860856
O O5 0.567408 0.936610 0.914142
O O6 0.453485 0.822193 0.019675
O O7 0.842191 0.997677 0.583738
O O8 0.000000 0.000000 0.500000
O O9 0.989423 0.918730 0.661865
O O10 0.250000 0.500000 0.663752
O O11 0.209808 0.250000 0.750000
O O12 0.135648 0.485303 0.779990
O O13 0.982708 0.094890 0.172612
O O14 0.608743 0.750000 0.250000
#
# Coordination Sequence:
#
# PCOD9411389 Si02
#       7
#     4   8   8   8   8   4   8
#     4  12  24  44  66 102 148 176 244 304 366 436
#     4  10  23  43  72 101 139 198 242 303 380 438
#     4  12  25  46  70 104 151 189 249 302 374 451
#     4  11  23  42  64 101 139 190 252 296 355 440
#     4  10  21  43  69 101 137 182 238 296 370 439
#     4  12  28  42  74 110 140 196 248 304 378 448
#     4  11  20  40  69  93 136 190 225 295 363 422
#
# _framework density 21.539192
#
# number of rings (size 3 to 8) (size 9 to 14) (size 15 to 20)
#    0.000    1.000    4.167    2.500    2.333    0.000 
#    3.000    8.333    0.000    0.000    0.000    0.000 
#    0.000    0.000    0.000    0.000    0.000    0.000 
#
# Total GULP energy -267357.134213 kJ/mol
# GULP energy per Si atom -5569.940296 kJ/mol
# Density = 2.149017 g / cm^3
# Si number density = 21.539192 Si / 1000 Ang^3
#
#
#
# Elastic Constant Matrix: (Units=GPa)
#
#
# Indices 1 2 3 4 5 6 
#
# 1 124.3367 47.2811 39.5733 0.0000 0.0000 0.0000
# 2 47.2811 146.1091 33.9191 0.0000 0.0000 0.0000
# 3 39.5733 33.9191 88.7481 0.0000 0.0000 0.0000
# 4 0.0000 0.0000 0.0000 26.3395 0.0000 0.0000
# 5 0.0000 0.0000 0.0000 0.0000 20.9174 0.0000
# 6 0.0000 0.0000 0.0000 0.0000 0.0000 19.2412
#
#
#
# Elastic Compliance Matrix: (Units=1/GPa)
#
#
# Indices 1 2 3 4 5 6 
#
# 1 0.010109 -0.002441 -0.003574 0.000000 0.000000 0.000000
# 2 -0.002441 0.008100 -0.002007 0.000000 0.000000 0.000000
# 3 -0.003574 -0.002007 0.013629 0.000000 0.000000 0.000000
# 4 0.000000 0.000000 0.000000 0.037966 0.000000 0.000000
# 5 0.000000 0.000000 0.000000 0.000000 0.047807 0.000000
# 6 0.000000 0.000000 0.000000 0.000000 0.000000 0.051972
#
#
# Mechanical properties :
#
#
# Convention : Reuss Voigt Hill
#
# Bulk Modulus (GPa) = 63.32456 66.74899 65.03678
# Shear Modulus (GPa) = 26.19277 29.19432 27.69354
#
# Velocity S-wave (km/s) = 3.49098 3.68558 3.58960
# Velocity P-wave (km/s) = 6.76112 7.01200 6.88770
#
# Compressibility (1/GPa) = 0.01579166
#
# Stress axis : x y z
#
# Youngs Moduli (GPa) = 98.92455 123.45358 73.37362
#
# Poissons Ratio (x) = 0.30140 0.26227
# Poissons Ratio (y) = 0.24151 0.14728
# Poissons Ratio (z) = 0.35360 0.24780
#
# Static dielectric constant tensor:
#      x y z
#    x 1.800070 0.000000 0.000000 
#    y 0.000000 1.914490 0.000000 
#    z 0.000000 0.000000 1.778080 
# 
# From -- ./inp_files/33111.got.cif
#   From: 2010.05.17/outbox.cif.g08.bks.cpg/sg52_17_cif.got.tgz:33111.got - 2010.06.03 12:15:38.
