data_PCOD9411334
_publ_section_title
;
Structure prediction by ZEFSAII (Michael W. Deem and Ramdas Pophale) SiO2 
 PCOD9411334
Probable space group: P N N A
;
_chemical_formula_sum "Si O2"
_cell_formula_units_Z 56
_cell_length_a 27.004574
_cell_length_b 5.239626
_cell_length_c 19.392092
_cell_angle_alpha 90.000000
_cell_angle_beta 90.000000
_cell_angle_gamma 90.000000
_cell_volume 2743.862107
_symmetry_space_group_name_H-M "P N N A"
_symmetry_group_IT_number 52
_symmetry_cell_setting 'orthorhombic'
loop_
_space_group_symop_operation_xyz
x,y,z
1/2-x,-y,z
x,1/2-y,1/2-z
1/2-x,1/2+y,1/2-z
-x,-y,-z
1/2+x,y,-z
-x,1/2+y,1/2+z
1/2+x,1/2-y,1/2+z
loop_
_atom_site_type_symbol
_atom_site_label
_atom_site_fract_x
_atom_site_fract_y
_atom_site_fract_z
Si Si1 0.942919 0.429033 0.499855
Si Si2 0.692517 0.019845 0.539839
Si Si3 0.120320 0.702515 0.381954
Si Si4 0.895401 0.916447 0.440003
Si Si5 0.803214 0.872724 0.824778
Si Si6 0.450997 0.996179 0.297152
Si Si7 0.436121 0.002460 0.703147
O O1 0.919800 0.460858 0.576347
O O2 0.918724 0.638148 0.450293
O O3 0.000000 0.500000 0.500000
O O4 0.927501 0.141323 0.477791
O O5 0.657946 0.101643 0.476614
O O6 0.689462 0.189471 0.609424
O O7 0.750000 0.000000 0.521879
O O8 0.664893 0.763405 0.565034
O O9 0.149953 0.560472 0.322711
O O10 0.090567 0.946480 0.353916
O O11 0.898413 0.985603 0.359977
O O12 0.800119 0.750000 0.750000
O O13 0.750000 0.000000 0.836294
O O14 0.450882 0.250000 0.250000
O O15 0.507183 0.976756 0.325776
O O16 0.442052 0.750000 0.250000
O O17 0.433637 0.750000 0.750000
O O18 0.428214 0.250000 0.750000
#
# Coordination Sequence:
#
# PCOD9411334 Si02
#       7
#     8   8   8   8   8   8   8
#     4  11  23  40  64  95 132 171 217 272 327 396
#     4  11  24  44  64  90 126 169 224 281 332 390
#     4  11  25  40  59  88 128 170 221 278 325 390
#     4  11  23  41  68  97 127 174 219 267 337 400
#     4  12  26  43  63  87 125 175 231 282 336 380
#     4  10  24  38  57  88 128 173 214 262 322 387
#     4  10  21  42  66  96 135 171 212 263 326 405
#
# _framework density 20.409189000000001
#
# number of rings (size 3 to 8) (size 9 to 14) (size 15 to 20)
#    0.000    1.143    2.857    2.571    4.000    3.429 
#    0.000    0.000    0.000    0.857    0.000    0.000 
#    0.000    0.000    0.000    0.000    0.000    0.000 
#
# Total GULP energy -313014.999951 kJ/mol
# GULP energy per Si atom -5589.553571 kJ/mol
# Density = 2.036274 g / cm^3
# Si number density = 20.409189 Si / 1000 Ang^3
#
#
#
# Elastic Constant Matrix: (Units=GPa)
#
#
# Indices 1 2 3 4 5 6 
#
# 1 153.4984 25.9820 73.2110 0.0000 0.0000 0.0000
# 2 25.9820 78.4532 20.8924 0.0000 0.0000 0.0000
# 3 73.2110 20.8924 90.3734 0.0000 0.0000 0.0000
# 4 0.0000 0.0000 0.0000 27.3995 0.0000 0.0000
# 5 0.0000 0.0000 0.0000 0.0000 86.1869 0.0000
# 6 0.0000 0.0000 0.0000 0.0000 0.0000 86.4020
#
#
#
# Elastic Compliance Matrix: (Units=1/GPa)
#
#
# Indices 1 2 3 4 5 6 
#
# 1 0.010744 -0.001322 -0.008398 0.000000 0.000000 0.000000
# 2 -0.001322 0.013745 -0.002107 0.000000 0.000000 0.000000
# 3 -0.008398 -0.002107 0.018355 0.000000 0.000000 0.000000
# 4 0.000000 0.000000 0.000000 0.036497 0.000000 0.000000
# 5 0.000000 0.000000 0.000000 0.000000 0.011603 0.000000
# 6 0.000000 0.000000 0.000000 0.000000 0.000000 0.011574
#
#
# Mechanical properties :
#
#
# Convention : Reuss Voigt Hill
#
# Bulk Modulus (GPa) = 52.10682 62.49953 57.30318
# Shear Modulus (GPa) = 37.71640 53.48032 45.59836
#
# Velocity S-wave (km/s) = 4.30351 5.12454 4.73187
# Velocity P-wave (km/s) = 7.09085 8.10582 7.61526
#
# Compressibility (1/GPa) = 0.01919135
#
# Stress axis : x y z
#
# Youngs Moduli (GPa) = 93.07642 72.75243 54.47983
#
# Poissons Ratio (x) = 0.09616 0.45752
# Poissons Ratio (y) = 0.12302 0.11478
# Poissons Ratio (z) = 0.78165 0.15328
#
# Static dielectric constant tensor:
#      x y z
#    x 1.729550 0.000000 0.000000 
#    y 0.000000 1.801540 0.000000 
#    z 0.000000 0.000000 1.788310 
# 
# From -- ./inp_files/38152.got.cif
#   From: 2010.05.17/outbox.cif.g08.bks.cpg/sg52_20_cif.got.tgz:38152.got - 2010.06.03 12:15:38.
