data_PCOD9411400
_publ_section_title
;
Structure prediction by ZEFSAII (Michael W. Deem and Ramdas Pophale) SiO2 
 PCOD9411400
Probable space group: P N N A
;
_chemical_formula_sum "Si O2"
_cell_formula_units_Z 48
_cell_length_a 18.998340
_cell_length_b 13.705960
_cell_length_c 8.357510
_cell_angle_alpha 90.000000
_cell_angle_beta 90.000000
_cell_angle_gamma 90.000000
_cell_volume 2176.216108
_symmetry_space_group_name_H-M "P N N A"
_symmetry_group_IT_number 52
_symmetry_cell_setting 'orthorhombic'
loop_
_space_group_symop_operation_xyz
x,y,z
1/2-x,-y,z
x,1/2-y,1/2-z
1/2-x,1/2+y,1/2-z
-x,-y,-z
1/2+x,y,-z
-x,1/2+y,1/2+z
1/2+x,1/2-y,1/2+z
loop_
_atom_site_type_symbol
_atom_site_label
_atom_site_fract_x
_atom_site_fract_y
_atom_site_fract_z
Si Si1 0.936287 0.453383 0.277124
Si Si2 0.302886 0.657868 0.357848
Si Si3 0.185795 0.685936 0.610011
Si Si4 0.750000 0.000000 0.632188
Si Si5 0.456613 0.250000 0.250000
Si Si6 0.880087 0.123272 0.533237
Si Si7 0.048026 0.143424 0.989232
O O1 0.863961 0.400578 0.331555
O O2 0.939173 0.560991 0.352407
O O3 0.000335 0.398687 0.366404
O O4 0.931572 0.435736 0.085981
O O5 0.283309 0.750000 0.250000
O O6 0.243061 0.646943 0.489684
O O7 0.300200 0.565242 0.243100
O O8 0.377726 0.673562 0.438603
O O9 0.221520 0.750000 0.750000
O O10 0.135504 0.768277 0.533436
O O11 0.805033 0.068474 0.539671
O O12 0.411733 0.152565 0.293511
O O13 0.505968 0.228609 0.098844
#
# Coordination Sequence:
#
# PCOD9411400 Si02
#       7
#     8   8   8   4   4   8   8
#     4  10  24  46  71  98 139 185 236 289 353 438
#     4  12  26  42  69 101 146 177 239 297 355 410
#     4  10  21  43  71  97 133 184 234 290 355 417
#     4  12  26  44  72 106 140 188 238 298 348 428
#     4  12  26  44  74  98 142 186 234 284 366 442
#     4  11  24  44  72 101 136 185 235 284 356 425
#     4  11  27  43  67 105 140 186 234 288 364 423
#
# _framework density 22.056630999999999
#
# number of rings (size 3 to 8) (size 9 to 14) (size 15 to 20)
#    0.000    1.000    3.333    2.000    8.167    4.667 
#    0.000    0.000    0.000    0.000    0.000    0.000 
#    0.000    0.000    0.000    0.000    0.000    0.000 
#
# Total GULP energy -268257.026701 kJ/mol
# GULP energy per Si atom -5588.688056 kJ/mol
# Density = 2.200643 g / cm^3
# Si number density = 22.056631 Si / 1000 Ang^3
#
#
#
# Elastic Constant Matrix: (Units=GPa)
#
#
# Indices 1 2 3 4 5 6 
#
# 1 90.3492 15.6334 32.3205 0.0000 0.0000 0.0000
# 2 15.6334 51.9491 7.2498 0.0000 0.0000 0.0000
# 3 32.3205 7.2498 67.7554 0.0000 0.0000 0.0000
# 4 0.0000 0.0000 0.0000 28.3482 0.0000 0.0000
# 5 0.0000 0.0000 0.0000 0.0000 -33.6379 0.0000
# 6 0.0000 0.0000 0.0000 0.0000 0.0000 31.8529
#
#
#
# Elastic Compliance Matrix: (Units=1/GPa)
#
#
# Indices 1 2 3 4 5 6 
#
# 1 0.013882 -0.003303 -0.006269 0.000000 0.000000 0.000000
# 2 -0.003303 0.020327 -0.000600 0.000000 0.000000 0.000000
# 3 -0.006269 -0.000600 0.017813 0.000000 0.000000 0.000000
# 4 0.000000 0.000000 0.000000 0.035276 0.000000 0.000000
# 5 0.000000 0.000000 0.000000 0.000000 -0.029728 0.000000
# 6 0.000000 0.000000 0.000000 0.000000 0.000000 0.031394
#
#
# Mechanical properties :
#
#
# Convention : Reuss Voigt Hill
#
# Bulk Modulus (GPa) = 31.56485 35.60681 33.58583
# Shear Modulus (GPa) = 41.71309 15.63597 28.67453
#
# Velocity S-wave (km/s) = 4.35349 2.66541 3.60952
# Velocity P-wave (km/s) = 6.29384 5.06468 5.71241
#
# Compressibility (1/GPa) = 0.03168081
#
# Stress axis : x y z
#
# Youngs Moduli (GPa) = 72.03502 49.19511 56.13763
#
# Poissons Ratio (x) = 0.16248 0.35191
# Poissons Ratio (y) = 0.23792 0.03365
# Poissons Ratio (z) = 0.45156 0.02949
#
# Static dielectric constant tensor:
#      x y z
#    x 1.792470 0.000000 0.000000 
#    y 0.000000 1.836980 0.000000 
#    z 0.000000 0.000000 1.927850 
# 
# From -- ./inp_files/12158.got.cif
#   From: 2010.05.17/outbox.cif.g08.bks.cpg/sg52_7_cif.got.tgz:12158.got - 2010.06.03 12:15:38.
