data_PCOD9411745
_publ_section_title
;
Structure prediction by ZEFSAII (Michael W. Deem and Ramdas Pophale) SiO2 
 PCOD9411745
Probable space group: P N N A
;
_chemical_formula_sum "Si O2"
_cell_formula_units_Z 56
_cell_length_a 16.370561
_cell_length_b 14.657021
_cell_length_c 11.245798
_cell_angle_alpha 90.000000
_cell_angle_beta 90.000000
_cell_angle_gamma 90.000000
_cell_volume 2698.357891
_symmetry_space_group_name_H-M "P N N A"
_symmetry_group_IT_number 52
_symmetry_cell_setting 'orthorhombic'
loop_
_space_group_symop_operation_xyz
x,y,z
1/2-x,-y,z
x,1/2-y,1/2-z
1/2-x,1/2+y,1/2-z
-x,-y,-z
1/2+x,y,-z
-x,1/2+y,1/2+z
1/2+x,1/2-y,1/2+z
loop_
_atom_site_type_symbol
_atom_site_label
_atom_site_fract_x
_atom_site_fract_y
_atom_site_fract_z
Si Si1 0.938860 0.926574 0.555206
Si Si2 0.081960 0.346286 0.695296
Si Si3 0.710594 0.098653 0.998177
Si Si4 0.688548 0.425578 0.116465
Si Si5 0.186373 0.740790 0.891129
Si Si6 0.586613 0.350228 0.695845
Si Si7 0.983692 0.264974 0.502356
O O1 0.848726 0.952323 0.510106
O O2 0.940424 0.915833 0.697237
O O3 0.957865 0.824080 0.505234
O O4 0.000000 0.000000 0.500000
O O5 0.111904 0.250000 0.750000
O O6 0.136483 0.385023 0.589333
O O7 0.108109 0.413972 0.800869
O O8 0.997894 0.316355 0.628654
O O9 0.776624 0.169634 0.047688
O O10 0.750000 0.000000 0.000425
O O11 0.668229 0.118953 0.871917
O O12 0.750000 0.500000 0.168293
O O13 0.744496 0.336624 0.101373
O O14 0.167607 0.750000 0.750000
O O15 0.103598 0.725325 0.964817
O O16 0.601828 0.250000 0.750000
O O17 0.514110 0.334021 0.600499
#
# Coordination Sequence:
#
# PCOD9411745 Si02
#       7
#     8   8   8   8   8   8   8
#     4  11  22  41  63  93 134 173 222 276 346 415
#     4  11  19  43  64  89 128 178 217 271 347 407
#     4  11  22  40  64  94 130 173 224 279 342 405
#     4  12  23  38  69  98 128 173 232 287 336 402
#     4  12  22  39  65 100 131 171 230 286 332 415
#     4   9  20  42  65  85 130 186 215 273 348 414
#     4  10  22  40  65  94 130 175 225 274 346 413
#
# _framework density 20.753363
#
# number of rings (size 3 to 8) (size 9 to 14) (size 15 to 20)
#    0.000    1.143    4.286    4.286    0.000    0.571 
#    2.571    5.000    0.000    0.000    0.000    0.000 
#    0.000    0.000    0.000    0.000    0.000    0.000 
#
# Total GULP energy -312063.445614 kJ/mol
# GULP energy per Si atom -5572.561529 kJ/mol
# Density = 2.070613 g / cm^3
# Si number density = 20.753363 Si / 1000 Ang^3
#
#
#
# Elastic Constant Matrix: (Units=GPa)
#
#
# Indices 1 2 3 4 5 6 
#
# 1 77.9721 14.6606 46.7023 0.0000 0.0000 0.0000
# 2 14.6606 73.2347 44.9426 0.0000 0.0000 0.0000
# 3 46.7023 44.9426 117.3829 0.0000 0.0000 0.0000
# 4 0.0000 0.0000 0.0000 22.5388 0.0000 0.0000
# 5 0.0000 0.0000 0.0000 0.0000 33.0294 0.0000
# 6 0.0000 0.0000 0.0000 0.0000 0.0000 170.6226
#
#
#
# Elastic Compliance Matrix: (Units=1/GPa)
#
#
# Indices 1 2 3 4 5 6 
#
# 1 0.016890 0.000971 -0.007092 0.000000 0.000000 0.000000
# 2 0.000971 0.017904 -0.007241 0.000000 0.000000 0.000000
# 3 -0.007092 -0.007241 0.014113 0.000000 0.000000 0.000000
# 4 0.000000 0.000000 0.000000 0.044368 0.000000 0.000000
# 5 0.000000 0.000000 0.000000 0.000000 0.030276 0.000000
# 6 0.000000 0.000000 0.000000 0.000000 0.000000 0.005861
#
#
# Mechanical properties :
#
#
# Convention : Reuss Voigt Hill
#
# Bulk Modulus (GPa) = 45.07903 53.46674 49.27289
# Shear Modulus (GPa) = 30.57524 56.05711 43.31618
#
# Velocity S-wave (km/s) = 3.84248 5.20286 4.57353
# Velocity P-wave (km/s) = 6.43853 7.86841 7.18911
#
# Compressibility (1/GPa) = 0.02218326
#
# Stress axis : x y z
#
# Youngs Moduli (GPa) = 59.20591 55.85285 70.85607
#
# Poissons Ratio (x) = -0.05422 0.50249
# Poissons Ratio (y) = -0.05748 0.51309
# Poissons Ratio (z) = 0.41987 0.40444
#
# Static dielectric constant tensor:
#      x y z
#    x 1.780850 0.000000 0.000000 
#    y 0.000000 0.543680 0.000000 
#    z 0.000000 0.000000 1.803750 
# 
# From -- ./inp_files/19653.got.cif
#   From: 2010.05.17/outbox.cif.g08.bks.cpg/sg52_10_cif.got.tgz:19653.got - 2010.06.03 12:15:38.
