data_PCOD9411549
_publ_section_title
;
Structure prediction by ZEFSAII (Michael W. Deem and Ramdas Pophale) SiO2 
 PCOD9411549
Probable space group: P N N A
;
_chemical_formula_sum "Si O2"
_cell_formula_units_Z 40
_cell_length_a 11.716785
_cell_length_b 31.070816
_cell_length_c 4.926148
_cell_angle_alpha 90.000000
_cell_angle_beta 90.000000
_cell_angle_gamma 90.000000
_cell_volume 1793.364528
_symmetry_space_group_name_H-M "P N N A"
_symmetry_group_IT_number 52
_symmetry_cell_setting 'orthorhombic'
loop_
_space_group_symop_operation_xyz
x,y,z
1/2-x,-y,z
x,1/2-y,1/2-z
1/2-x,1/2+y,1/2-z
-x,-y,-z
1/2+x,y,-z
-x,1/2+y,1/2+z
1/2+x,1/2-y,1/2+z
loop_
_atom_site_type_symbol
_atom_site_label
_atom_site_fract_x
_atom_site_fract_y
_atom_site_fract_z
Si Si1 0.124315 0.499831 0.132007
Si Si2 0.749547 0.573982 0.623191
Si Si3 0.064057 0.796596 0.668522
Si Si4 0.919100 0.796374 0.174386
Si Si5 0.252555 0.132346 0.631330
O O1 0.250000 0.500000 0.971812
O O2 0.142711 0.456610 0.307985
O O3 0.142679 0.542836 0.310226
O O4 0.000000 0.500000 0.000000
O O5 0.749900 0.590802 0.320982
O O6 0.748274 0.614776 0.825760
O O7 0.113479 0.750000 0.750000
O O8 0.034251 0.795728 0.352136
O O9 0.139889 0.838243 0.708068
O O10 0.951726 0.799530 0.859685
O O11 0.865718 0.750000 0.250000
O O12 0.850684 0.836617 0.286762
#
# Coordination Sequence:
#
# PCOD9411549 Si02
#       5
#     8   8   8   8   8
#     4   8  20  44  66  94 131 171 210 260 324 388
#     4   9  24  36  65  92 124 164 213 258 324 381
#     4  10  22  38  58  87 124 168 209 255 313 372
#     4  10  22  38  58  87 124 168 209 255 313 372
#     4  12  21  41  60  96 120 164 208 265 313 370
#
# _framework density 22.304447
#
# number of rings (size 3 to 8) (size 9 to 14) (size 15 to 20)
#    1.200    0.800    0.000    3.000    0.000    8.000 
#    0.000   10.000    0.000    0.000    0.000    0.000 
#    0.000    0.000    0.000    0.000    0.000    0.000 
#
# Total GULP energy -222959.964444 kJ/mol
# GULP energy per Si atom -5573.999111 kJ/mol
# Density = 2.225368 g / cm^3
# Si number density = 22.304447 Si / 1000 Ang^3
#
#
#
# Elastic Constant Matrix: (Units=GPa)
#
#
# Indices 1 2 3 4 5 6 
#
# 1 80.3592 17.8294 2.4594 0.0000 0.0000 0.0000
# 2 17.8294 114.4185 2.4785 0.0000 0.0000 0.0000
# 3 2.4594 2.4785 60.5210 0.0000 0.0000 0.0000
# 4 0.0000 0.0000 0.0000 33.2394 0.0000 0.0000
# 5 0.0000 0.0000 0.0000 0.0000 -0.3533 0.0000
# 6 0.0000 0.0000 0.0000 0.0000 0.0000 30.2028
#
#
#
# Elastic Compliance Matrix: (Units=1/GPa)
#
#
# Indices 1 2 3 4 5 6 
#
# 1 0.012902 -0.002001 -0.000442 0.000000 0.000000 0.000000
# 2 -0.002001 0.009058 -0.000290 0.000000 0.000000 0.000000
# 3 -0.000442 -0.000290 0.016553 0.000000 0.000000 0.000000
# 4 0.000000 0.000000 0.000000 0.030085 0.000000 0.000000
# 5 0.000000 0.000000 0.000000 0.000000 -2.830148 0.000000
# 6 0.000000 0.000000 0.000000 0.000000 0.000000 0.033110
#
#
# Mechanical properties :
#
#
# Convention : Reuss Voigt Hill
#
# Bulk Modulus (GPa) = 30.26002 33.42592 31.84297
# Shear Modulus (GPa) = -1.84369 28.11986 13.13809
#
# Velocity S-wave (km/s) = -0.91016 3.55453 2.42964
# Velocity P-wave (km/s) = 3.53436 5.64491 4.70939
#
# Compressibility (1/GPa) = 0.03304691
#
# Stress axis : x y z
#
# Youngs Moduli (GPa) = 77.50979 110.40084 60.41188
#
# Poissons Ratio (x) = 0.22089 0.02672
# Poissons Ratio (y) = 0.15508 0.01750
# Poissons Ratio (z) = 0.03429 0.03198
#
# Static dielectric constant tensor:
#      x y z
#    x 1.875040 0.000000 0.000000 
#    y 0.000000 1.826560 0.000000 
#    z 0.000000 0.000000 1.795740 
# 
# From -- ./inp_files/1385.got.cif
#   From: 2010.05.17/outbox.cif.g08.bks.cpg/sg52_1_cif.got.tgz:1385.got - 2010.06.03 12:15:38.
