data_PCOD9411127
_publ_section_title
;
Structure prediction by ZEFSAII (Michael W. Deem and Ramdas Pophale) SiO2 
 PCOD9411127
Probable space group: P N N A
;
_chemical_formula_sum "Si O2"
_cell_formula_units_Z 60
_cell_length_a 11.923169
_cell_length_b 8.818080
_cell_length_c 28.439034
_cell_angle_alpha 90.000000
_cell_angle_beta 90.000000
_cell_angle_gamma 90.000000
_cell_volume 2990.064624
_symmetry_space_group_name_H-M "P N N A"
_symmetry_group_IT_number 52
_symmetry_cell_setting 'orthorhombic'
loop_
_space_group_symop_operation_xyz
x,y,z
1/2-x,-y,z
x,1/2-y,1/2-z
1/2-x,1/2+y,1/2-z
-x,-y,-z
1/2+x,y,-z
-x,1/2+y,1/2+z
1/2+x,1/2-y,1/2+z
loop_
_atom_site_type_symbol
_atom_site_label
_atom_site_fract_x
_atom_site_fract_y
_atom_site_fract_z
Si Si1 0.173566 0.856004 0.530786
Si Si2 0.311511 0.657610 0.797398
Si Si3 0.573590 0.706329 0.802215
Si Si4 0.473286 0.637130 0.461912
Si Si5 0.250000 0.000000 0.357567
Si Si6 0.957465 0.097051 0.888278
Si Si7 0.293531 0.831134 0.892726
Si Si8 0.247225 0.734258 0.064634
O O1 0.232749 0.724754 0.560805
O O2 0.185085 0.862159 0.474866
O O3 0.045288 0.792378 0.535087
O O4 0.250000 0.000000 0.547831
O O5 0.250000 0.500000 0.793980
O O6 0.287015 0.750000 0.750000
O O7 0.446785 0.643456 0.799907
O O8 0.271086 0.738106 0.845206
O O9 0.611266 0.750000 0.750000
O O10 0.655469 0.584912 0.826943
O O11 0.565174 0.858907 0.834305
O O12 0.500000 0.500000 0.500000
O O13 0.483541 0.567585 0.409159
O O14 0.343752 0.681343 0.463863
O O15 0.293558 0.868810 0.393040
O O16 0.846941 0.154987 0.914644
O O17 0.072699 0.182906 0.900751
O O18 0.250000 0.000000 0.883681
#
# Coordination Sequence:
#
# PCOD9411127 Si02
#       8
#     8   8   8   8   4   8   8   8
#     4  12  26  39  59  95 133 172 224 279 337 391
#     4  10  21  40  67  94 129 172 217 274 340 407
#     4   9  21  43  69  93 132 172 219 283 346 402
#     4  12  24  40  65  93 130 176 228 276 329 407
#     4  10  22  46  64  96 134 174 222 278 342 406
#     4  10  21  40  64  92 124 170 219 276 330 398
#     4  11  22  39  63  91 131 170 219 273 334 403
#     4  11  24  40  65  90 129 174 223 268 335 401
#
# _framework density 20.066455000000001
#
# number of rings (size 3 to 8) (size 9 to 14) (size 15 to 20)
#    0.000    1.333    3.333    2.000    0.000    4.800 
#    4.800    0.667    0.000    0.000    0.000    0.000 
#    0.000    0.000    0.000    0.000    0.000    0.000 
#
# Total GULP energy -334019.968547 kJ/mol
# GULP energy per Si atom -5566.999476 kJ/mol
# Density = 2.002078 g / cm^3
# Si number density = 20.066455 Si / 1000 Ang^3
#
#
#
# Elastic Constant Matrix: (Units=GPa)
#
#
# Indices 1 2 3 4 5 6 
#
# 1 87.3691 41.9829 43.6138 0.0000 0.0000 0.0000
# 2 41.9829 102.4659 41.2523 0.0000 0.0000 0.0000
# 3 43.6138 41.2523 115.3336 0.0000 0.0000 0.0000
# 4 0.0000 0.0000 0.0000 26.4582 0.0000 0.0000
# 5 0.0000 0.0000 0.0000 0.0000 -1.8079 0.0000
# 6 0.0000 0.0000 0.0000 0.0000 0.0000 20.5252
#
#
#
# Elastic Compliance Matrix: (Units=1/GPa)
#
#
# Indices 1 2 3 4 5 6 
#
# 1 0.015888 -0.004779 -0.004299 0.000000 0.000000 0.000000
# 2 -0.004779 0.012839 -0.002785 0.000000 0.000000 0.000000
# 3 -0.004299 -0.002785 0.011292 0.000000 0.000000 0.000000
# 4 0.000000 0.000000 0.000000 0.037796 0.000000 0.000000
# 5 0.000000 0.000000 0.000000 0.000000 -0.553113 0.000000
# 6 0.000000 0.000000 0.000000 0.000000 0.000000 0.048721
#
#
# Mechanical properties :
#
#
# Convention : Reuss Voigt Hill
#
# Bulk Modulus (GPa) = 61.37434 62.09627 61.73531
# Shear Modulus (GPa) = -12.58109 20.92305 4.17098
#
# Velocity S-wave (km/s) = -2.50666 3.23257 1.44329
# Velocity P-wave (km/s) = 4.71955 6.70412 5.79739
#
# Compressibility (1/GPa) = 0.01629345
#
# Stress axis : x y z
#
# Youngs Moduli (GPa) = 62.94044 77.88987 88.55695
#
# Poissons Ratio (x) = 0.37224 0.38068
# Poissons Ratio (y) = 0.30080 0.24662
# Poissons Ratio (z) = 0.27056 0.21691
#
# Static dielectric constant tensor:
#      x y z
#    x 1.815620 0.000000 0.000000 
#    y 0.000000 1.764110 0.000000 
#    z 0.000000 0.000000 1.715710 
# 
# From -- ./inp_files/42797.got.cif
#   From: 2010.05.17/outbox.cif.g08.bks.cpg/sg52_22_cif.got.tgz:42797.got - 2010.06.03 12:15:38.
