data_PCOD9411911
_publ_section_title
;
Structure prediction by ZEFSAII (Michael W. Deem and Ramdas Pophale) SiO2 
 PCOD9411911
Probable space group: P N N A
;
_chemical_formula_sum "Si O2"
_cell_formula_units_Z 60
_cell_length_a 17.935027
_cell_length_b 17.513461
_cell_length_c 8.833852
_cell_angle_alpha 90.000000
_cell_angle_beta 90.000000
_cell_angle_gamma 90.000000
_cell_volume 2774.751746
_symmetry_space_group_name_H-M "P N N A"
_symmetry_group_IT_number 52
_symmetry_cell_setting 'orthorhombic'
loop_
_space_group_symop_operation_xyz
x,y,z
1/2-x,-y,z
x,1/2-y,1/2-z
1/2-x,1/2+y,1/2-z
-x,-y,-z
1/2+x,y,-z
-x,1/2+y,1/2+z
1/2+x,1/2-y,1/2+z
loop_
_atom_site_type_symbol
_atom_site_label
_atom_site_fract_x
_atom_site_fract_y
_atom_site_fract_z
Si Si1 0.540512 0.767383 0.574672
Si Si2 0.280149 0.632894 0.527062
Si Si3 0.190019 0.334569 0.826726
Si Si4 0.750000 0.000000 0.794451
Si Si5 0.537630 0.411951 0.108420
Si Si6 0.915738 0.517019 0.809802
Si Si7 0.214334 0.725854 0.082003
Si Si8 0.431698 0.821228 0.133316
O O1 0.519753 0.750000 0.750000
O O2 0.506331 0.846799 0.518539
O O3 0.627447 0.789556 0.583626
O O4 0.504605 0.702207 0.466794
O O5 0.276140 0.609010 0.700897
O O6 0.262759 0.570929 0.403605
O O7 0.217878 0.696413 0.510891
O O8 0.359833 0.670748 0.478569
O O9 0.193071 0.250000 0.750000
O O10 0.106261 0.363338 0.831087
O O11 0.232007 0.331035 0.988360
O O12 0.830056 0.008678 0.713026
O O13 0.480341 0.453919 0.221980
O O14 0.572989 0.469438 0.988263
O O15 0.931708 0.596315 0.718896
O O16 0.240637 0.750000 0.250000
O O17 0.420404 0.750000 0.250000
#
# Coordination Sequence:
#
# PCOD9411911 Si02
#       8
#     8   8   8   4   8   8   8   8
#     4  11  23  39  67 101 135 172 227 290 338 406
#     4  10  22  42  61  95 128 175 219 272 337 398
#     4  10  22  42  68  92 132 178 218 280 336 403
#     4  10  24  44  66  92 142 178 230 274 346 418
#     4  11  22  43  64  99 137 172 227 275 346 409
#     4  10  25  41  68 100 134 179 223 284 340 414
#     4  10  23  38  68 103 126 167 230 278 335 395
#     4  11  21  41  68  95 126 179 226 277 339 409
#
# _framework density 21.623555
#
# number of rings (size 3 to 8) (size 9 to 14) (size 15 to 20)
#    0.000    1.600    1.333    3.200    7.467    1.600 
#    2.400    4.000    0.000    0.000    0.000    0.000 
#    0.000    0.000    0.000    0.000    0.000    0.000 
#
# Total GULP energy -334087.625872 kJ/mol
# GULP energy per Si atom -5568.127098 kJ/mol
# Density = 2.157434 g / cm^3
# Si number density = 21.623555 Si / 1000 Ang^3
#
#
#
# Elastic Constant Matrix: (Units=GPa)
#
#
# Indices 1 2 3 4 5 6 
#
# 1 121.4904 44.5722 71.8618 0.0000 0.0000 0.0000
# 2 44.5722 52.8950 19.2210 0.0000 0.0000 0.0000
# 3 71.8618 19.2210 106.9571 0.0000 0.0000 0.0000
# 4 0.0000 0.0000 0.0000 23.1654 0.0000 0.0000
# 5 0.0000 0.0000 0.0000 0.0000 -48.1298 0.0000
# 6 0.0000 0.0000 0.0000 0.0000 0.0000 26.6102
#
#
#
# Elastic Compliance Matrix: (Units=1/GPa)
#
#
# Indices 1 2 3 4 5 6 
#
# 1 0.018890 -0.012096 -0.010518 0.000000 0.000000 0.000000
# 2 -0.012096 0.027972 0.003100 0.000000 0.000000 0.000000
# 3 -0.010518 0.003100 0.015859 0.000000 0.000000 0.000000
# 4 0.000000 0.000000 0.000000 0.043168 0.000000 0.000000
# 5 0.000000 0.000000 0.000000 0.000000 -0.020777 0.000000
# 6 0.000000 0.000000 0.000000 0.000000 0.000000 0.037580
#
#
# Mechanical properties :
#
#
# Convention : Reuss Voigt Hill
#
# Bulk Modulus (GPa) = 42.20580 61.40582 51.80581
# Shear Modulus (GPa) = 29.47811 10.04166 19.75989
#
# Velocity S-wave (km/s) = 3.69621 2.15730 3.02621
# Velocity P-wave (km/s) = 6.14628 5.88766 6.01836
#
# Compressibility (1/GPa) = 0.02369342
#
# Stress axis : x y z
#
# Youngs Moduli (GPa) = 52.93679 35.75062 63.05417
#
# Poissons Ratio (x) = 0.43244 0.66322
# Poissons Ratio (y) = 0.64032 -0.19549
# Poissons Ratio (z) = 0.55680 -0.11084
#
# Static dielectric constant tensor:
#      x y z
#    x 2.065530 0.000000 0.000000 
#    y 0.000000 1.934900 0.000000 
#    z 0.000000 0.000000 1.944190 
# 
# From -- ./inp_files/12446.got.cif
#   From: 2010.05.17/outbox.cif.g08.bks.cpg/sg52_7_cif.got.tgz:12446.got - 2010.06.03 12:15:38.
