data_PCOD9411377
_publ_section_title
;
Structure prediction by ZEFSAII (Michael W. Deem and Ramdas Pophale) SiO2 
 PCOD9411377
Probable space group: P N N A
;
_chemical_formula_sum "Si O2"
_cell_formula_units_Z 64
_cell_length_a 14.097074
_cell_length_b 17.033775
_cell_length_c 10.540918
_cell_angle_alpha 90.000000
_cell_angle_beta 90.000000
_cell_angle_gamma 90.000000
_cell_volume 2531.152552
_symmetry_space_group_name_H-M "P N N A"
_symmetry_group_IT_number 52
_symmetry_cell_setting 'orthorhombic'
loop_
_space_group_symop_operation_xyz
x,y,z
1/2-x,-y,z
x,1/2-y,1/2-z
1/2-x,1/2+y,1/2-z
-x,-y,-z
1/2+x,y,-z
-x,1/2+y,1/2+z
1/2+x,1/2-y,1/2+z
loop_
_atom_site_type_symbol
_atom_site_label
_atom_site_fract_x
_atom_site_fract_y
_atom_site_fract_z
Si Si1 0.604450 0.004272 0.938691
Si Si2 0.890521 0.669875 0.466838
Si Si3 0.537421 0.879723 0.768690
Si Si4 0.189402 0.639756 0.572928
Si Si5 0.089078 0.862214 0.671532
Si Si6 0.127493 0.338395 0.094534
Si Si7 0.669912 0.713296 0.913904
Si Si8 0.410474 0.529702 0.916930
O O1 0.598384 0.956687 0.807593
O O2 0.667806 0.948796 0.028776
O O3 0.500000 0.000000 0.000000
O O4 0.624079 0.097010 0.934600
O O5 0.796368 0.657356 0.382488
O O6 0.892697 0.757307 0.519064
O O7 0.987075 0.655919 0.391726
O O8 0.591805 0.820063 0.679954
O O9 0.450635 0.912439 0.687611
O O10 0.120167 0.661881 0.687904
O O11 0.178460 0.695047 0.448660
O O12 0.140410 0.820182 0.553111
O O13 0.974034 0.854251 0.662233
O O14 0.124039 0.952037 0.652319
O O15 0.231257 0.317116 0.146588
O O16 0.148600 0.415769 0.010393
O O17 0.500000 0.500000 0.000000
#
# Coordination Sequence:
#
# PCOD9411377 Si02
#       8
#     8   8   8   8   8   8   8   8
#     4  10  23  42  73 106 141 188 242 295 364 433
#     4  10  24  46  74 107 143 193 246 300 369 441
#     4  11  23  45  74 103 142 190 237 299 365 434
#     4  11  25  46  71 108 144 189 252 298 363 441
#     4  11  23  45  72 100 147 189 241 302 361 428
#     4  10  24  45  71 107 148 184 248 298 374 442
#     4  11  25  44  71 109 142 190 239 304 368 441
#     4  10  21  43  64 102 140 185 236 285 361 434
#
# _framework density 25.284924
#
# number of rings (size 3 to 8) (size 9 to 14) (size 15 to 20)
#    0.000    1.500    2.500    2.250    5.250    2.500 
#    2.250    8.750    2.750    1.500    0.000    0.000 
#    0.000    0.000    0.000    0.000    0.000    0.000 
#
# Total GULP energy -357786.365228 kJ/mol
# GULP energy per Si atom -5590.411957 kJ/mol
# Density = 2.522737 g / cm^3
# Si number density = 25.284924 Si / 1000 Ang^3
#
#
#
# Elastic Constant Matrix: (Units=GPa)
#
#
# Indices 1 2 3 4 5 6 
#
# 1 122.4496 43.2778 24.7932 0.0000 0.0000 0.0000
# 2 43.2778 157.3258 32.7525 0.0000 0.0000 0.0000
# 3 24.7932 32.7525 83.2570 0.0000 0.0000 0.0000
# 4 0.0000 0.0000 0.0000 30.9242 0.0000 0.0000
# 5 0.0000 0.0000 0.0000 0.0000 15.4004 0.0000
# 6 0.0000 0.0000 0.0000 0.0000 0.0000 36.1216
#
#
#
# Elastic Compliance Matrix: (Units=1/GPa)
#
#
# Indices 1 2 3 4 5 6 
#
# 1 0.009321 -0.002163 -0.001925 0.000000 0.000000 0.000000
# 2 -0.002163 0.007425 -0.002277 0.000000 0.000000 0.000000
# 3 -0.001925 -0.002277 0.013480 0.000000 0.000000 0.000000
# 4 0.000000 0.000000 0.000000 0.032337 0.000000 0.000000
# 5 0.000000 0.000000 0.000000 0.000000 0.064933 0.000000
# 6 0.000000 0.000000 0.000000 0.000000 0.000000 0.027684
#
#
# Mechanical properties :
#
#
# Convention : Reuss Voigt Hill
#
# Bulk Modulus (GPa) = 57.15454 62.74216 59.94835
# Shear Modulus (GPa) = 28.77820 33.96983 31.37401
#
# Velocity S-wave (km/s) = 3.37732 3.66933 3.52635
# Velocity P-wave (km/s) = 6.15318 6.54369 6.35144
#
# Compressibility (1/GPa) = 0.01749642
#
# Stress axis : x y z
#
# Youngs Moduli (GPa) = 107.28546 134.67398 74.18496
#
# Poissons Ratio (x) = 0.29135 0.14278
# Poissons Ratio (y) = 0.23210 0.16891
# Poissons Ratio (z) = 0.20649 0.30663
#
# Static dielectric constant tensor:
#      x y z
#    x 2.053620 0.000000 0.000000 
#    y 0.000000 2.052730 0.000000 
#    z 0.000000 0.000000 2.016090 
# 
# From -- ./inp_files/19869.got.cif
#   From: 2010.05.17/outbox.cif.g08.bks.cpg/sg52_10_cif.got.tgz:19869.got - 2010.06.03 12:15:38.
