data_PCOD9411979
_publ_section_title
;
Structure prediction by ZEFSAII (Michael W. Deem and Ramdas Pophale) SiO2 
 PCOD9411979
Probable space group: P N N A
;
_chemical_formula_sum "Si O2"
_cell_formula_units_Z 28
_cell_length_a 15.045754
_cell_length_b 12.429543
_cell_length_c 5.207219
_cell_angle_alpha 90.000000
_cell_angle_beta 90.000000
_cell_angle_gamma 90.000000
_cell_volume 973.811639
_symmetry_space_group_name_H-M "P N N A"
_symmetry_group_IT_number 52
_symmetry_cell_setting 'orthorhombic'
loop_
_space_group_symop_operation_xyz
x,y,z
1/2-x,-y,z
x,1/2-y,1/2-z
1/2-x,1/2+y,1/2-z
-x,-y,-z
1/2+x,y,-z
-x,1/2+y,1/2+z
1/2+x,1/2-y,1/2+z
loop_
_atom_site_type_symbol
_atom_site_label
_atom_site_fract_x
_atom_site_fract_y
_atom_site_fract_z
Si Si1 0.409492 0.122077 0.783775
Si Si2 0.683552 0.620229 0.779176
Si Si3 0.000000 0.500000 0.000000
Si Si4 0.136430 0.179165 0.504957
O O1 0.408986 0.250000 0.750000
O O2 0.389165 0.079410 0.487413
O O3 0.502386 0.064724 0.783965
O O4 0.340038 0.084150 0.994005
O O5 0.671968 0.750000 0.750000
O O6 0.779777 0.608544 0.901926
O O7 0.057107 0.390888 0.882487
O O8 0.170028 0.250000 0.750000
O O9 0.116981 0.250000 0.250000
#
# Coordination Sequence:
#
# PCOD9411979 Si02
#       4
#     8   8   4   8
#     4  10  22  42  68  99 138 183 237 297 360 432
#     4   9  19  42  70  94 131 185 238 293 352 424
#     4  12  28  44  72 112 152 194 240 312 396 456
#     4  11  25  47  74 106 147 195 251 312 376 452
#
# _framework density 28.752994999999999
#
# number of rings (size 3 to 8) (size 9 to 14) (size 15 to 20)
#    0.000    1.714    0.000    5.143    0.000   11.429 
#    0.000    8.571    0.000    3.429    0.000    0.000 
#    0.000    0.000    0.000    0.000    0.000    0.000 
#
# Total GULP energy -155905.049190 kJ/mol
# GULP energy per Si atom -5568.037471 kJ/mol
# Density = 2.868755 g / cm^3
# Si number density = 28.752995 Si / 1000 Ang^3
#
#
#
# Elastic Constant Matrix: (Units=GPa)
#
#
# Indices 1 2 3 4 5 6 
#
# 1 155.9840 42.8070 71.2347 0.0000 0.0000 0.0000
# 2 42.8070 137.6016 60.8004 0.0000 0.0000 0.0000
# 3 71.2347 60.8004 212.4680 0.0000 0.0000 0.0000
# 4 0.0000 0.0000 0.0000 31.2609 0.0000 0.0000
# 5 0.0000 0.0000 0.0000 0.0000 31.6436 0.0000
# 6 0.0000 0.0000 0.0000 0.0000 0.0000 60.9007
#
#
#
# Elastic Compliance Matrix: (Units=1/GPa)
#
#
# Indices 1 2 3 4 5 6 
#
# 1 0.007817 -0.001458 -0.002204 0.000000 0.000000 0.000000
# 2 -0.001458 0.008591 -0.001970 0.000000 0.000000 0.000000
# 3 -0.002204 -0.001970 0.006009 0.000000 0.000000 0.000000
# 4 0.000000 0.000000 0.000000 0.031989 0.000000 0.000000
# 5 0.000000 0.000000 0.000000 0.000000 0.031602 0.000000
# 6 0.000000 0.000000 0.000000 0.000000 0.000000 0.016420
#
#
# Mechanical properties :
#
#
# Convention : Reuss Voigt Hill
#
# Bulk Modulus (GPa) = 89.64789 95.08199 92.36494
# Shear Modulus (GPa) = 42.58577 46.84180 44.71378
#
# Velocity S-wave (km/s) = 3.85267 4.04060 3.94775
# Velocity P-wave (km/s) = 7.14402 7.41006 7.27826
#
# Compressibility (1/GPa) = 0.01115475
#
# Stress axis : x y z
#
# Youngs Moduli (GPa) = 127.91831 116.39692 166.41551
#
# Poissons Ratio (x) = 0.16974 0.36673
# Poissons Ratio (y) = 0.18654 0.32777
# Poissons Ratio (z) = 0.28189 0.22926
#
# Static dielectric constant tensor:
#      x y z
#    x 2.677150 0.000000 0.000000 
#    y 0.000000 2.516490 0.000000 
#    z 0.000000 0.000000 2.245330 
# 
# From -- ./inp_files/2945.got.cif
#   From: 2010.05.17/outbox.cif.g08.bks.cpg/sg52_2_cif.got.tgz:2945.got - 2010.06.03 12:15:38.
