data_PCOD9411774
_publ_section_title
;
Structure prediction by ZEFSAII (Michael W. Deem and Ramdas Pophale) SiO2 
 PCOD9411774
Probable space group: P N N A
;
_chemical_formula_sum "Si O2"
_cell_formula_units_Z 40
_cell_length_a 9.756145
_cell_length_b 11.367222
_cell_length_c 15.046519
_cell_angle_alpha 90.000000
_cell_angle_beta 90.000000
_cell_angle_gamma 90.000000
_cell_volume 1668.662961
_symmetry_space_group_name_H-M "P N N A"
_symmetry_group_IT_number 52
_symmetry_cell_setting 'orthorhombic'
loop_
_space_group_symop_operation_xyz
x,y,z
1/2-x,-y,z
x,1/2-y,1/2-z
1/2-x,1/2+y,1/2-z
-x,-y,-z
1/2+x,y,-z
-x,1/2+y,1/2+z
1/2+x,1/2-y,1/2+z
loop_
_atom_site_type_symbol
_atom_site_label
_atom_site_fract_x
_atom_site_fract_y
_atom_site_fract_z
Si Si1 0.581448 0.905041 0.810157
Si Si2 0.144434 0.842614 0.388111
Si Si3 0.105697 0.189940 0.496956
Si Si4 0.277481 0.627142 0.633936
Si Si5 0.021833 0.167351 0.170896
O O1 0.634304 0.891219 0.710657
O O2 0.640327 0.801216 0.872844
O O3 0.416888 0.881203 0.809786
O O4 0.594603 0.041044 0.836849
O O5 0.281796 0.876500 0.438993
O O6 0.009478 0.873477 0.444821
O O7 0.192130 0.272067 0.563460
O O8 0.029626 0.269363 0.423644
O O9 0.250000 0.500000 0.588888
O O10 0.139572 0.647052 0.689005
O O11 0.077136 0.250000 0.250000
#
# Coordination Sequence:
#
# PCOD9411774 Si02
#       5
#     8   8   8   8   8
#     4   9  22  41  64  91 130 167 205 261 331 376
#     4  10  22  40  67  93 127 165 208 267 325 374
#     4  11  22  38  63  96 125 160 212 270 313 374
#     4   9  20  37  63  91 118 161 210 267 315 365
#     4  11  24  39  63  93 126 169 217 260 311 391
#
# _framework density 23.971288999999999
#
# number of rings (size 3 to 8) (size 9 to 14) (size 15 to 20)
#    0.000    2.000    2.000    0.000   11.200    2.400 
#    0.000    1.000    4.400    0.000    0.000    0.000 
#    0.000    0.000    0.000    0.000    0.000    0.000 
#
# Total GULP energy -223812.387749 kJ/mol
# GULP energy per Si atom -5595.309694 kJ/mol
# Density = 2.391673 g / cm^3
# Si number density = 23.971289 Si / 1000 Ang^3
#
#
#
# Elastic Constant Matrix: (Units=GPa)
#
#
# Indices 1 2 3 4 5 6 
#
# 1 123.1018 9.4908 25.9722 0.0000 0.0000 0.0000
# 2 9.4908 75.9129 4.8799 0.0000 0.0000 0.0000
# 3 25.9722 4.8799 84.2253 0.0000 0.0000 0.0000
# 4 0.0000 0.0000 0.0000 15.5422 0.0000 0.0000
# 5 0.0000 0.0000 0.0000 0.0000 46.3269 0.0000
# 6 0.0000 0.0000 0.0000 0.0000 0.0000 13.9405
#
#
#
# Elastic Compliance Matrix: (Units=1/GPa)
#
#
# Indices 1 2 3 4 5 6 
#
# 1 0.008753 -0.000924 -0.002646 0.000000 0.000000 0.000000
# 2 -0.000924 0.013320 -0.000487 0.000000 0.000000 0.000000
# 3 -0.002646 -0.000487 0.012717 0.000000 0.000000 0.000000
# 4 0.000000 0.000000 0.000000 0.064341 0.000000 0.000000
# 5 0.000000 0.000000 0.000000 0.000000 0.021586 0.000000
# 6 0.000000 0.000000 0.000000 0.000000 0.000000 0.071733
#
#
# Mechanical properties :
#
#
# Convention : Reuss Voigt Hill
#
# Bulk Modulus (GPa) = 37.48609 40.43621 38.96115
# Shear Modulus (GPa) = 23.87148 31.35503 27.61326
#
# Velocity S-wave (km/s) = 3.15911 3.62059 3.39769
# Velocity P-wave (km/s) = 5.38317 5.86374 5.62858
#
# Compressibility (1/GPa) = 0.02667656
#
# Stress axis : x y z
#
# Youngs Moduli (GPa) = 114.24952 75.07599 78.63554
#
# Poissons Ratio (x) = 0.06939 0.20803
# Poissons Ratio (y) = 0.10559 0.03827
# Poissons Ratio (z) = 0.30225 0.03654
#
# Static dielectric constant tensor:
#      x y z
#    x 1.971690 0.000000 0.000000 
#    y 0.000000 1.983700 0.000000 
#    z 0.000000 0.000000 1.818180 
# 
# From -- ./inp_files/25840.got.cif
#   From: 2010.05.17/outbox.cif.g08.bks.cpg/sg52_13_cif.got.tgz:25840.got - 2010.06.03 12:15:38.
