data_PCOD9411372
_publ_section_title
;
Structure prediction by ZEFSAII (Michael W. Deem and Ramdas Pophale) SiO2 
 PCOD9411372
Probable space group: P N N A
;
_chemical_formula_sum "Si O2"
_cell_formula_units_Z 40
_cell_length_a 8.176585
_cell_length_b 16.833890
_cell_length_c 11.282101
_cell_angle_alpha 90.000000
_cell_angle_beta 90.000000
_cell_angle_gamma 90.000000
_cell_volume 1552.910492
_symmetry_space_group_name_H-M "P N N A"
_symmetry_group_IT_number 52
_symmetry_cell_setting 'orthorhombic'
loop_
_space_group_symop_operation_xyz
x,y,z
1/2-x,-y,z
x,1/2-y,1/2-z
1/2-x,1/2+y,1/2-z
-x,-y,-z
1/2+x,y,-z
-x,1/2+y,1/2+z
1/2+x,1/2-y,1/2+z
loop_
_atom_site_type_symbol
_atom_site_label
_atom_site_fract_x
_atom_site_fract_y
_atom_site_fract_z
Si Si1 0.402649 0.555665 0.091628
Si Si2 0.915880 0.349575 0.652824
Si Si3 0.710531 0.409172 0.476966
Si Si4 0.406975 0.163028 0.760550
Si Si5 0.428276 0.678490 0.887256
O O1 0.250000 0.500000 0.122327
O O2 0.500072 0.588195 0.203911
O O3 0.500000 0.500000 0.000000
O O4 0.390115 0.635470 0.010221
O O5 0.036190 0.409058 0.586007
O O6 0.945011 0.360661 0.792452
O O7 0.992974 0.265688 0.609939
O O8 0.736470 0.362794 0.600775
O O9 0.750000 0.500000 0.495702
O O10 0.832845 0.363325 0.386463
O O11 0.491547 0.250000 0.750000
O O12 0.244929 0.176701 0.679133
#
# Coordination Sequence:
#
# PCOD9411372 Si02
#       5
#     8   8   8   8   8
#     4  12  26  43  72 108 144 180 234 297 353 417
#     4  10  22  42  68  97 133 183 230 282 344 430
#     4  11  23  41  68  97 136 180 229 287 352 413
#     4  11  22  45  71  99 142 194 233 284 361 436
#     4  10  21  42  71  96 138 187 231 278 362 420
#
# _framework density 25.758084
#
# number of rings (size 3 to 8) (size 9 to 14) (size 15 to 20)
#    0.000    1.200    6.000    1.800    5.600    0.000 
#    3.600    0.000    0.000    0.000    0.000    0.000 
#    0.000    0.000    0.000    0.000    0.000    0.000 
#
# Total GULP energy -223720.011448 kJ/mol
# GULP energy per Si atom -5593.000286 kJ/mol
# Density = 2.569946 g / cm^3
# Si number density = 25.758084 Si / 1000 Ang^3
#
#
#
# Elastic Constant Matrix: (Units=GPa)
#
#
# Indices 1 2 3 4 5 6 
#
# 1 37.5954 33.4387 23.8007 0.0000 0.0000 0.0000
# 2 33.4387 123.7952 17.9272 0.0000 0.0000 0.0000
# 3 23.8007 17.9272 88.3740 0.0000 0.0000 0.0000
# 4 0.0000 0.0000 0.0000 44.8744 0.0000 0.0000
# 5 0.0000 0.0000 0.0000 0.0000 39.2829 0.0000
# 6 0.0000 0.0000 0.0000 0.0000 0.0000 48.6101
#
#
#
# Elastic Compliance Matrix: (Units=1/GPa)
#
#
# Indices 1 2 3 4 5 6 
#
# 1 0.041029 -0.009769 -0.009068 0.000000 0.000000 0.000000
# 2 -0.009769 0.010648 0.000471 0.000000 0.000000 0.000000
# 3 -0.009068 0.000471 0.013662 0.000000 0.000000 0.000000
# 4 0.000000 0.000000 0.000000 0.022284 0.000000 0.000000
# 5 0.000000 0.000000 0.000000 0.000000 0.025456 0.000000
# 6 0.000000 0.000000 0.000000 0.000000 0.000000 0.020572
#
#
# Mechanical properties :
#
#
# Convention : Reuss Voigt Hill
#
# Bulk Modulus (GPa) = 34.95678 44.45532 39.70605
# Shear Modulus (GPa) = 27.79005 38.19335 32.99170
#
# Velocity S-wave (km/s) = 3.28820 3.85485 3.58275
# Velocity P-wave (km/s) = 5.29311 6.09175 5.70642
#
# Compressibility (1/GPa) = 0.02860675
#
# Stress axis : x y z
#
# Youngs Moduli (GPa) = 24.37309 93.91032 73.19460
#
# Poissons Ratio (x) = 0.91743 0.66373
# Poissons Ratio (y) = 0.23811 -0.03447
# Poissons Ratio (z) = 0.22102 -0.04423
#
# Static dielectric constant tensor:
#      x y z
#    x 2.153000 0.000000 0.000000 
#    y 0.000000 2.070010 0.000000 
#    z 0.000000 0.000000 2.029930 
# 
# From -- ./inp_files/16683.got.cif
#   From: 2010.05.17/outbox.cif.g08.bks.cpg/sg52_9_cif.got.tgz:16683.got - 2010.06.03 12:15:38.
