data_PCOD9411104
_publ_section_title
;
Structure prediction by ZEFSAII (Michael W. Deem and Ramdas Pophale) SiO2 
 PCOD9411104
Probable space group: P N N A
;
_chemical_formula_sum "Si O2"
_cell_formula_units_Z 56
_cell_length_a 13.965605
_cell_length_b 8.216704
_cell_length_c 22.342556
_cell_angle_alpha 90.000000
_cell_angle_beta 90.000000
_cell_angle_gamma 90.000000
_cell_volume 2563.836061
_symmetry_space_group_name_H-M "P N N A"
_symmetry_group_IT_number 52
_symmetry_cell_setting 'orthorhombic'
loop_
_space_group_symop_operation_xyz
x,y,z
1/2-x,-y,z
x,1/2-y,1/2-z
1/2-x,1/2+y,1/2-z
-x,-y,-z
1/2+x,y,-z
-x,1/2+y,1/2+z
1/2+x,1/2-y,1/2+z
loop_
_atom_site_type_symbol
_atom_site_label
_atom_site_fract_x
_atom_site_fract_y
_atom_site_fract_z
Si Si1 0.641679 0.557477 0.258585
Si Si2 0.021261 0.724833 0.954606
Si Si3 0.864006 0.513508 0.395467
Si Si4 0.531434 0.772126 0.913103
Si Si5 0.007304 0.484639 0.160829
Si Si6 0.799672 0.675185 0.813412
Si Si7 0.338913 0.911903 0.078649
O O1 0.750000 0.500000 0.250461
O O2 0.637184 0.750000 0.250000
O O3 0.611293 0.519081 0.326024
O O4 0.574078 0.481294 0.208691
O O5 0.087126 0.877227 0.936335
O O6 0.031606 0.596849 0.900691
O O7 0.910524 0.786104 0.953596
O O8 0.049422 0.687471 0.022651
O O9 0.750000 0.500000 0.400561
O O10 0.919049 0.679893 0.410441
O O11 0.555489 0.650902 0.860200
O O12 0.590611 0.938302 0.905848
O O13 0.086746 0.366311 0.188360
O O14 0.750000 0.500000 0.825097
O O15 0.768159 0.750000 0.750000
O O16 0.793840 0.810268 0.866004
O O17 0.250000 0.000000 0.045943
#
# Coordination Sequence:
#
# PCOD9411104 Si02
#       7
#     8   8   8   8   8   8   8
#     4  11  24  42  65  94 130 167 212 268 323 392
#     4  10  22  41  62  90 127 167 215 265 311 379
#     4  10  22  40  64  92 127 164 215 264 325 387
#     4  11  24  39  62  96 124 168 219 258 314 388
#     4  11  24  40  65  90 131 169 206 264 328 373
#     4  11  24  42  63  92 124 161 205 258 317 383
#     4  10  21  40  63  88 121 162 207 260 310 371
#
# _framework density 21.842269000000002
#
# number of rings (size 3 to 8) (size 9 to 14) (size 15 to 20)
#    0.000    1.429    1.429    3.857    8.000    2.286 
#    0.000    0.000    0.000    5.143    0.000    0.000 
#    0.000    0.000    0.000    0.000    0.000    0.000 
#
# Total GULP energy -312815.480627 kJ/mol
# GULP energy per Si atom -5585.990725 kJ/mol
# Density = 2.179255 g / cm^3
# Si number density = 21.842269 Si / 1000 Ang^3
#
#
#
# Elastic Constant Matrix: (Units=GPa)
#
#
# Indices 1 2 3 4 5 6 
#
# 1 71.3917 -6.1463 25.4668 0.0000 0.0000 0.0000
# 2 -6.1463 37.2745 20.3448 0.0000 0.0000 0.0000
# 3 25.4668 20.3448 127.7190 0.0000 0.0000 0.0000
# 4 0.0000 0.0000 0.0000 29.2786 0.0000 0.0000
# 5 0.0000 0.0000 0.0000 0.0000 1.0901 0.0000
# 6 0.0000 0.0000 0.0000 0.0000 0.0000 6.1982
#
#
#
# Elastic Compliance Matrix: (Units=1/GPa)
#
#
# Indices 1 2 3 4 5 6 
#
# 1 0.015809 0.004739 -0.003907 0.000000 0.000000 0.000000
# 2 0.004739 0.030803 -0.005852 0.000000 0.000000 0.000000
# 3 -0.003907 -0.005852 0.009541 0.000000 0.000000 0.000000
# 4 0.000000 0.000000 0.000000 0.034155 0.000000 0.000000
# 5 0.000000 0.000000 0.000000 0.000000 0.917369 0.000000
# 6 0.000000 0.000000 0.000000 0.000000 0.000000 0.161338
#
#
# Mechanical properties :
#
#
# Convention : Reuss Voigt Hill
#
# Bulk Modulus (GPa) = 21.68530 35.07952 28.38241
# Shear Modulus (GPa) = 4.18611 20.42804 12.30708
#
# Velocity S-wave (km/s) = 1.38589 3.06151 2.37629
# Velocity P-wave (km/s) = 3.53703 5.34718 4.53337
#
# Compressibility (1/GPa) = 0.04611418
#
# Stress axis : x y z
#
# Youngs Moduli (GPa) = 63.25497 32.46386 104.81165
#
# Poissons Ratio (x) = -0.15386 0.40952
# Poissons Ratio (y) = -0.29979 0.61334
# Poissons Ratio (z) = 0.24715 0.18997
#
# Static dielectric constant tensor:
#      x y z
#    x 1.442130 0.000000 0.000000 
#    y 0.000000 1.814750 0.000000 
#    z 0.000000 0.000000 1.790770 
# 
# From -- ./inp_files/37322.got.cif
#   From: 2010.05.17/outbox.cif.g08.bks.cpg/sg52_19_cif.got.tgz:37322.got - 2010.06.03 12:15:38.
