data_PCOD9411047
_publ_section_title
;
Structure prediction by ZEFSAII (Michael W. Deem and Ramdas Pophale) SiO2 
 PCOD9411047
Probable space group: P N N A
;
_chemical_formula_sum "Si O2"
_cell_formula_units_Z 56
_cell_length_a 8.880403
_cell_length_b 21.409679
_cell_length_c 12.277111
_cell_angle_alpha 90.000000
_cell_angle_beta 90.000000
_cell_angle_gamma 90.000000
_cell_volume 2334.205097
_symmetry_space_group_name_H-M "P N N A"
_symmetry_group_IT_number 52
_symmetry_cell_setting 'orthorhombic'
loop_
_space_group_symop_operation_xyz
x,y,z
1/2-x,-y,z
x,1/2-y,1/2-z
1/2-x,1/2+y,1/2-z
-x,-y,-z
1/2+x,y,-z
-x,1/2+y,1/2+z
1/2+x,1/2-y,1/2+z
loop_
_atom_site_type_symbol
_atom_site_label
_atom_site_fract_x
_atom_site_fract_y
_atom_site_fract_z
Si Si1 0.723873 0.775639 0.476891
Si Si2 0.925738 0.063585 0.039159
Si Si3 0.571478 0.421586 0.139032
Si Si4 0.434601 0.652811 0.063494
Si Si5 0.085593 0.938067 0.706039
Si Si6 0.850273 0.181257 0.719628
Si Si7 0.198898 0.145242 0.061293
O O1 0.573752 0.797425 0.422167
O O2 0.874296 0.809644 0.445446
O O3 0.744436 0.812827 0.601564
O O4 0.749028 0.703368 0.487291
O O5 0.032144 0.124696 0.034288
O O6 0.883504 0.058618 0.165003
O O7 0.789045 0.082399 0.962878
O O8 0.000000 0.000000 0.000000
O O9 0.752982 0.418634 0.154586
O O10 0.536652 0.492824 0.171229
O O11 0.467161 0.375035 0.211125
O O12 0.528813 0.408316 0.013990
O O13 0.458409 0.612476 0.176052
O O14 0.914323 0.250000 0.750000
O O15 0.738685 0.169803 0.819578
#
# Coordination Sequence:
#
# PCOD9411047 Si02
#       7
#     8   8   8   8   8   8   8
#     4  10  21  39  67  91 132 162 212 272 328 401
#     4  12  27  43  67  93 133 177 226 272 315 386
#     4  10  22  39  65  96 128 168 207 274 333 391
#     4  11  20  42  64 100 125 165 209 265 340 393
#     4  11  24  41  65  95 133 171 218 269 325 394
#     4   9  20  40  65  91 125 168 219 271 330 385
#     4  11  24  43  63  94 124 176 217 271 327 375
#
# _framework density 23.991036999999999
#
# number of rings (size 3 to 8) (size 9 to 14) (size 15 to 20)
#    0.000    1.429    1.429    3.429    6.000    0.000 
#    0.000    5.000    0.000    0.000    0.000    0.000 
#    0.000    0.000    0.000    0.000    0.000    0.000 
#
# Total GULP energy -311842.001477 kJ/mol
# GULP energy per Si atom -5568.607169 kJ/mol
# Density = 2.393643 g / cm^3
# Si number density = 23.991037 Si / 1000 Ang^3
#
#
#
# Elastic Constant Matrix: (Units=GPa)
#
#
# Indices 1 2 3 4 5 6 
#
# 1 69.6439 56.3126 -19.7753 0.0000 0.0000 0.0000
# 2 56.3126 160.1586 10.2570 0.0000 0.0000 0.0000
# 3 -19.7753 10.2570 42.0746 0.0000 0.0000 0.0000
# 4 0.0000 0.0000 0.0000 24.6761 0.0000 0.0000
# 5 0.0000 0.0000 0.0000 0.0000 19.6709 0.0000
# 6 0.0000 0.0000 0.0000 0.0000 0.0000 37.3997
#
#
#
# Elastic Compliance Matrix: (Units=1/GPa)
#
#
# Indices 1 2 3 4 5 6 
#
# 1 0.027289 -0.010582 0.015406 0.000000 0.000000 0.000000
# 2 -0.010582 0.010446 -0.007520 0.000000 0.000000 0.000000
# 3 0.015406 -0.007520 0.032841 0.000000 0.000000 0.000000
# 4 0.000000 0.000000 0.000000 0.040525 0.000000 0.000000
# 5 0.000000 0.000000 0.000000 0.000000 0.050836 0.000000
# 6 0.000000 0.000000 0.000000 0.000000 0.000000 0.026738
#
#
# Mechanical properties :
#
#
# Convention : Reuss Voigt Hill
#
# Bulk Modulus (GPa) = 15.34097 40.60729 27.97413
# Shear Modulus (GPa) = 23.16996 31.35486 27.26241
#
# Velocity S-wave (km/s) = 3.11106 3.61909 3.37465
# Velocity P-wave (km/s) = 4.39469 5.86741 5.18362
#
# Compressibility (1/GPa) = 0.06518494
#
# Stress axis : x y z
#
# Youngs Moduli (GPa) = 36.64425 95.73034 30.44938
#
# Poissons Ratio (x) = 1.01299 -0.46910
# Poissons Ratio (y) = 0.38776 0.22898
# Poissons Ratio (z) = -0.56453 0.71989
#
# Static dielectric constant tensor:
#      x y z
#    x 2.022240 0.000000 0.000000 
#    y 0.000000 2.049690 0.000000 
#    z 0.000000 0.000000 2.073370 
# 
# From -- ./inp_files/24960.got.cif
#   From: 2010.05.17/outbox.cif.g08.bks.cpg/sg52_13_cif.got.tgz:24960.got - 2010.06.03 12:15:38.
