data_PCOD9411679
_publ_section_title
;
Structure prediction by ZEFSAII (Michael W. Deem and Ramdas Pophale) SiO2 
 PCOD9411679
Probable space group: P N N A
;
_chemical_formula_sum "Si O2"
_cell_formula_units_Z 40
_cell_length_a 13.966456
_cell_length_b 8.361901
_cell_length_c 15.305728
_cell_angle_alpha 90.000000
_cell_angle_beta 90.000000
_cell_angle_gamma 90.000000
_cell_volume 1787.496624
_symmetry_space_group_name_H-M "P N N A"
_symmetry_group_IT_number 52
_symmetry_cell_setting 'orthorhombic'
loop_
_space_group_symop_operation_xyz
x,y,z
1/2-x,-y,z
x,1/2-y,1/2-z
1/2-x,1/2+y,1/2-z
-x,-y,-z
1/2+x,y,-z
-x,1/2+y,1/2+z
1/2+x,1/2-y,1/2+z
loop_
_atom_site_type_symbol
_atom_site_label
_atom_site_fract_x
_atom_site_fract_y
_atom_site_fract_z
Si Si1 0.620501 0.196401 0.350329
Si Si2 0.748427 0.804664 0.501291
Si Si3 0.962576 0.319726 0.513845
Si Si4 0.832430 0.629951 0.827854
Si Si5 0.956664 0.136005 0.331200
O O1 0.618814 0.250000 0.250000
O O2 0.710504 0.254237 0.408649
O O3 0.528467 0.247990 0.408795
O O4 0.617819 0.004345 0.345349
O O5 0.650033 0.720070 0.530646
O O6 0.822734 0.777845 0.580148
O O7 0.750000 0.000000 0.496186
O O8 0.969465 0.232541 0.420221
O O9 0.000000 0.500000 0.500000
O O10 0.750000 0.500000 0.825549
O O11 0.816722 0.750000 0.750000
O O12 0.938355 0.560230 0.815149
O O13 0.933532 0.250000 0.250000
#
# Coordination Sequence:
#
# PCOD9411679 Si02
#       5
#     8   8   8   8   8
#     4  12  25  47  74 107 148 199 253 313 391 470
#     4  11  23  45  74 102 145 195 247 311 384 462
#     4  12  26  45  71 106 147 193 250 315 387 465
#     4  10  22  39  68  99 137 183 236 303 370 452
#     4  11  23  44  71 102 142 189 246 312 388 461
#
# _framework density 22.377665
#
# number of rings (size 3 to 8) (size 9 to 14) (size 15 to 20)
#    0.000    0.800    4.000    4.200    0.000    8.000 
#    3.600    0.000    0.000    0.000    0.000    0.000 
#    0.000    0.000    0.000    0.000    0.000    0.000 
#
# Total GULP energy -223348.875274 kJ/mol
# GULP energy per Si atom -5583.721882 kJ/mol
# Density = 2.232673 g / cm^3
# Si number density = 22.377665 Si / 1000 Ang^3
#
#
#
# Elastic Constant Matrix: (Units=GPa)
#
#
# Indices 1 2 3 4 5 6 
#
# 1 78.3767 11.2068 17.1735 0.0000 0.0000 0.0000
# 2 11.2068 81.6963 29.2652 0.0000 0.0000 0.0000
# 3 17.1735 29.2652 183.0888 0.0000 0.0000 0.0000
# 4 0.0000 0.0000 0.0000 31.7330 0.0000 0.0000
# 5 0.0000 0.0000 0.0000 0.0000 29.8885 0.0000
# 6 0.0000 0.0000 0.0000 0.0000 0.0000 28.6790
#
#
#
# Elastic Compliance Matrix: (Units=1/GPa)
#
#
# Indices 1 2 3 4 5 6 
#
# 1 0.013186 -0.001449 -0.001005 0.000000 0.000000 0.000000
# 2 -0.001449 0.013143 -0.001965 0.000000 0.000000 0.000000
# 3 -0.001005 -0.001965 0.005870 0.000000 0.000000 0.000000
# 4 0.000000 0.000000 0.000000 0.031513 0.000000 0.000000
# 5 0.000000 0.000000 0.000000 0.000000 0.033458 0.000000
# 6 0.000000 0.000000 0.000000 0.000000 0.000000 0.034869
#
#
# Mechanical properties :
#
#
# Convention : Reuss Voigt Hill
#
# Bulk Modulus (GPa) = 42.80515 50.93921 46.87218
# Shear Modulus (GPa) = 33.63290 37.09454 35.36372
#
# Velocity S-wave (km/s) = 3.88102 4.07585 3.97963
# Velocity P-wave (km/s) = 6.26523 6.70544 6.48907
#
# Compressibility (1/GPa) = 0.02336168
#
# Stress axis : x y z
#
# Youngs Moduli (GPa) = 75.83621 76.08582 170.35194
#
# Poissons Ratio (x) = 0.11023 0.17125
# Poissons Ratio (y) = 0.10987 0.33473
# Poissons Ratio (z) = 0.07624 0.14950
#
# Static dielectric constant tensor:
#      x y z
#    x 2.284720 0.000000 0.000000 
#    y 0.000000 1.800990 0.000000 
#    z 0.000000 0.000000 1.980760 
# 
# From -- ./inp_files/26858.got.cif
#   From: 2010.05.17/outbox.cif.g08.bks.cpg/sg52_14_cif.got.tgz:26858.got - 2010.06.03 12:15:38.
