data_PCOD9411810
_publ_section_title
;
Structure prediction by ZEFSAII (Michael W. Deem and Ramdas Pophale) SiO2 
 PCOD9411810
Probable space group: P N N A
;
_chemical_formula_sum "Si O2"
_cell_formula_units_Z 20
_cell_length_a 11.737901
_cell_length_b 7.134508
_cell_length_c 9.801735
_cell_angle_alpha 90.000000
_cell_angle_beta 90.000000
_cell_angle_gamma 90.000000
_cell_volume 820.837952
_symmetry_space_group_name_H-M "P N N A"
_symmetry_group_IT_number 52
_symmetry_cell_setting 'orthorhombic'
loop_
_space_group_symop_operation_xyz
x,y,z
1/2-x,-y,z
x,1/2-y,1/2-z
1/2-x,1/2+y,1/2-z
-x,-y,-z
1/2+x,y,-z
-x,1/2+y,1/2+z
1/2+x,1/2-y,1/2+z
loop_
_atom_site_type_symbol
_atom_site_label
_atom_site_fract_x
_atom_site_fract_y
_atom_site_fract_z
Si Si1 0.123617 0.250000 0.250000
Si Si2 0.232446 0.218837 0.548667
Si Si3 0.564921 0.988371 0.139886
O O1 0.032971 0.075217 0.246484
O O2 0.201063 0.246456 0.386920
O O3 0.341249 0.328581 0.607414
O O4 0.130166 0.315520 0.629650
O O5 0.250000 0.000000 0.574503
O O6 0.500000 0.000000 0.000000
#
# Coordination Sequence:
#
# PCOD9411810 Si02
#       3
#     4   8   8
#     4  10  22  40  72  96 140 196 214 284 362 388
#     4  10  22  41  67 100 136 178 234 279 332 420
#     4   9  21  42  62 101 139 171 233 282 333 417
#
# _framework density 24.365345000000001
#
# number of rings (size 3 to 8) (size 9 to 14) (size 15 to 20)
#    0.000    2.400    0.000    0.000   11.200    6.400 
#    7.200   12.000    0.000    0.000    0.000    0.000 
#    0.000    0.000    0.000    0.000    0.000    0.000 
#
# Total GULP energy -111498.162196 kJ/mol
# GULP energy per Si atom -5574.908110 kJ/mol
# Density = 2.430989 g / cm^3
# Si number density = 24.365345 Si / 1000 Ang^3
#
#
#
# Elastic Constant Matrix: (Units=GPa)
#
#
# Indices 1 2 3 4 5 6 
#
# 1 81.3803 8.1687 53.3384 0.0000 0.0000 0.0000
# 2 8.1687 131.9238 51.4417 0.0000 0.0000 0.0000
# 3 53.3384 51.4417 163.5422 0.0000 0.0000 0.0000
# 4 0.0000 0.0000 0.0000 27.4719 0.0000 0.0000
# 5 0.0000 0.0000 0.0000 0.0000 14.6094 0.0000
# 6 0.0000 0.0000 0.0000 0.0000 0.0000 -4.9235
#
#
#
# Elastic Compliance Matrix: (Units=1/GPa)
#
#
# Indices 1 2 3 4 5 6 
#
# 1 0.015787 0.001174 -0.005518 0.000000 0.000000 0.000000
# 2 0.001174 0.008727 -0.003128 0.000000 0.000000 0.000000
# 3 -0.005518 -0.003128 0.008898 0.000000 0.000000 0.000000
# 4 0.000000 0.000000 0.000000 0.036401 0.000000 0.000000
# 5 0.000000 0.000000 0.000000 0.000000 0.068449 0.000000
# 6 0.000000 0.000000 0.000000 0.000000 0.000000 -0.203106
#
#
# Mechanical properties :
#
#
# Convention : Reuss Voigt Hill
#
# Bulk Modulus (GPa) = 54.14694 66.97156 60.55925
# Shear Modulus (GPa) = -114.30250 25.02472 -44.63889
#
# Velocity S-wave (km/s) = -6.85666 3.20826 -4.28491
# Velocity P-wave (km/s) = 6.35719 6.42417 0.65427
#
# Compressibility (1/GPa) = 0.01846826
#
# Stress axis : x y z
#
# Youngs Moduli (GPa) = 63.34391 114.58472 112.38152
#
# Poissons Ratio (x) = -0.13454 0.62014
# Poissons Ratio (y) = -0.07438 0.35154
# Poissons Ratio (z) = 0.34954 0.35843
#
# Static dielectric constant tensor:
#      x y z
#    x 2.493920 0.000000 0.000000 
#    y 0.000000 2.801040 0.000000 
#    z 0.000000 0.000000 1.950910 
# 
# From -- ./inp_files/18598.got.cif
#   From: 2010.05.17/outbox.cif.g08.bks.cpg/sg52_10_cif.got.tgz:18598.got - 2010.06.03 12:15:38.
