data_PCOD9411112
_publ_section_title
;
Structure prediction by ZEFSAII (Michael W. Deem and Ramdas Pophale) SiO2 
 PCOD9411112
Probable space group: P N N A
;
_chemical_formula_sum "Si O2"
_cell_formula_units_Z 64
_cell_length_a 17.734857
_cell_length_b 14.824019
_cell_length_c 12.349406
_cell_angle_alpha 90.000000
_cell_angle_beta 90.000000
_cell_angle_gamma 90.000000
_cell_volume 3246.681772
_symmetry_space_group_name_H-M "P N N A"
_symmetry_group_IT_number 52
_symmetry_cell_setting 'orthorhombic'
loop_
_space_group_symop_operation_xyz
x,y,z
1/2-x,-y,z
x,1/2-y,1/2-z
1/2-x,1/2+y,1/2-z
-x,-y,-z
1/2+x,y,-z
-x,1/2+y,1/2+z
1/2+x,1/2-y,1/2+z
loop_
_atom_site_type_symbol
_atom_site_label
_atom_site_fract_x
_atom_site_fract_y
_atom_site_fract_z
Si Si1 0.613398 0.955293 0.195005
Si Si2 0.447155 0.489669 0.270278
Si Si3 0.704220 0.816077 0.337002
Si Si4 0.832197 0.463832 0.905515
Si Si5 0.827801 0.055481 0.949024
Si Si6 0.484828 0.812771 0.658616
Si Si7 0.862307 0.241192 0.556366
Si Si8 0.349604 0.577009 0.887783
O O1 0.649651 0.875177 0.263183
O O2 0.522758 0.955343 0.203813
O O3 0.641027 0.041854 0.264905
O O4 0.644697 0.953238 0.073532
O O5 0.393173 0.513905 0.169878
O O6 0.393384 0.484057 0.373348
O O7 0.476149 0.392227 0.228212
O O8 0.742241 0.750000 0.250000
O O9 0.654884 0.769114 0.429334
O O10 0.770489 0.872366 0.393976
O O11 0.750000 0.500000 0.877919
O O12 0.833775 0.354899 0.894581
O O13 0.851237 0.494467 0.028057
O O14 0.824926 0.162255 0.915568
O O15 0.750000 0.000000 0.935533
O O16 0.449247 0.750000 0.750000
O O17 0.549709 0.761632 0.591047
O O18 0.419892 0.858193 0.588119
#
# Coordination Sequence:
#
# PCOD9411112 Si02
#       8
#     8   8   8   8   8   8   8   8
#     4  11  23  39  63  88 125 164 210 264 327 385
#     4  10  24  40  64  89 120 170 219 261 326 389
#     4  12  22  38  61  95 133 166 209 264 329 385
#     4  11  21  40  66  95 132 161 206 271 324 385
#     4  12  24  44  65  88 125 175 225 268 322 391
#     4  10  21  40  63  91 128 166 214 263 319 392
#     4  11  23  38  63  91 124 170 211 262 328 383
#     4  11  22  38  63 100 129 163 211 262 325 385
#
# _framework density 19.712433999999998
#
# number of rings (size 3 to 8) (size 9 to 14) (size 15 to 20)
#    0.000    1.000    5.000    2.250    1.750    1.500 
#    0.000    0.000    2.750    0.000    0.000    0.000 
#    0.000    0.000    0.000    0.000    0.000    0.000 
#
# Total GULP energy -356875.535894 kJ/mol
# GULP energy per Si atom -5576.180248 kJ/mol
# Density = 1.966757 g / cm^3
# Si number density = 19.712434 Si / 1000 Ang^3
#
#
#
# Elastic Constant Matrix: (Units=GPa)
#
#
# Indices 1 2 3 4 5 6 
#
# 1 139.3793 57.7307 32.4723 0.0000 0.0000 0.0000
# 2 57.7307 81.0486 10.6659 0.0000 0.0000 0.0000
# 3 32.4723 10.6659 60.1126 0.0000 0.0000 0.0000
# 4 0.0000 0.0000 0.0000 12.0353 0.0000 0.0000
# 5 0.0000 0.0000 0.0000 0.0000 19.0520 0.0000
# 6 0.0000 0.0000 0.0000 0.0000 0.0000 16.7989
#
#
#
# Elastic Compliance Matrix: (Units=1/GPa)
#
#
# Indices 1 2 3 4 5 6 
#
# 1 0.011400 -0.007485 -0.004830 0.000000 0.000000 0.000000
# 2 -0.007485 0.017547 0.000930 0.000000 0.000000 0.000000
# 3 -0.004830 0.000930 0.019080 0.000000 0.000000 0.000000
# 4 0.000000 0.000000 0.000000 0.083089 0.000000 0.000000
# 5 0.000000 0.000000 0.000000 0.000000 0.052488 0.000000
# 6 0.000000 0.000000 0.000000 0.000000 0.000000 0.059528
#
#
# Mechanical properties :
#
#
# Convention : Reuss Voigt Hill
#
# Bulk Modulus (GPa) = 39.59338 53.58646 46.58992
# Shear Modulus (GPa) = 18.22684 21.55535 19.89109
#
# Velocity S-wave (km/s) = 3.04408 3.31038 3.18002
# Velocity P-wave (km/s) = 5.69950 6.46951 6.09668
#
# Compressibility (1/GPa) = 0.02525675
#
# Stress axis : x y z
#
# Youngs Moduli (GPa) = 87.71829 56.98906 52.41166
#
# Poissons Ratio (x) = 0.42654 0.25316
# Poissons Ratio (y) = 0.65654 -0.04873
# Poissons Ratio (z) = 0.42370 -0.05298
#
# Static dielectric constant tensor:
#      x y z
#    x 1.684160 0.000000 0.000000 
#    y 0.000000 1.752000 0.000000 
#    z 0.000000 0.000000 1.707770 
# 
# From -- ./inp_files/20872.got.cif
#   From: 2010.05.17/outbox.cif.g08.bks.cpg/sg52_11_cif.got.tgz:20872.got - 2010.06.03 12:15:38.
