data_PCOD9411388
_publ_section_title
;
Structure prediction by ZEFSAII (Michael W. Deem and Ramdas Pophale) SiO2 
 PCOD9411388
Probable space group: P N N A
;
_chemical_formula_sum "Si O2"
_cell_formula_units_Z 40
_cell_length_a 15.023441
_cell_length_b 7.627040
_cell_length_c 17.498218
_cell_angle_alpha 90.000000
_cell_angle_beta 90.000000
_cell_angle_gamma 90.000000
_cell_volume 2005.022556
_symmetry_space_group_name_H-M "P N N A"
_symmetry_group_IT_number 52
_symmetry_cell_setting 'orthorhombic'
loop_
_space_group_symop_operation_xyz
x,y,z
1/2-x,-y,z
x,1/2-y,1/2-z
1/2-x,1/2+y,1/2-z
-x,-y,-z
1/2+x,y,-z
-x,1/2+y,1/2+z
1/2+x,1/2-y,1/2+z
loop_
_atom_site_type_symbol
_atom_site_label
_atom_site_fract_x
_atom_site_fract_y
_atom_site_fract_z
Si Si1 0.933574 0.180168 0.579702
Si Si2 0.467189 0.250000 0.250000
Si Si3 0.555070 0.263134 0.943047
Si Si4 0.560722 0.908941 0.191464
Si Si5 0.250000 0.500000 0.623882
Si Si6 0.246686 0.291432 0.001508
O O1 0.842588 0.237537 0.538950
O O2 0.920844 0.225789 0.668255
O O3 0.012534 0.263235 0.527885
O O4 0.953091 0.971210 0.575477
O O5 0.522811 0.424094 0.264741
O O6 0.500579 0.149971 0.881116
O O7 0.661691 0.240216 0.946496
O O8 0.560829 0.750000 0.250000
O O9 0.660359 0.958657 0.168496
O O10 0.236016 0.328839 0.571849
O O11 0.250000 0.500000 0.984332
#
# Coordination Sequence:
#
# PCOD9411388 Si02
#       6
#     8   4   8   8   4   8
#     4  10  21  43  69 101 134 179 233 282 344 414
#     4  12  26  42  68 100 138 184 224 294 352 408
#     4  10  21  45  71  92 140 182 228 285 344 416
#     4  12  27  46  66 102 143 185 233 287 356 415
#     4  12  26  42  70 100 134 180 234 284 348 430
#     4  10  23  42  70 103 131 178 231 287 343 411
#
# _framework density 19.949901000000001
#
# number of rings (size 3 to 8) (size 9 to 14) (size 15 to 20)
#    0.000    1.200    4.000    1.200    4.200    3.200 
#    1.800    0.000    0.000    0.000    0.000    0.000 
#    0.000    0.000    0.000    0.000    0.000    0.000 
#
# Total GULP energy -223241.287416 kJ/mol
# GULP energy per Si atom -5581.032185 kJ/mol
# Density = 1.990449 g / cm^3
# Si number density = 19.949901 Si / 1000 Ang^3
#
#
#
# Elastic Constant Matrix: (Units=GPa)
#
#
# Indices 1 2 3 4 5 6 
#
# 1 92.3676 20.9929 0.1164 0.0000 0.0000 0.0000
# 2 20.9929 65.0710 9.8944 0.0000 0.0000 0.0000
# 3 0.1164 9.8944 63.9929 0.0000 0.0000 0.0000
# 4 0.0000 0.0000 0.0000 37.2916 0.0000 0.0000
# 5 0.0000 0.0000 0.0000 0.0000 70.0230 0.0000
# 6 0.0000 0.0000 0.0000 0.0000 0.0000 25.9933
#
#
#
# Elastic Compliance Matrix: (Units=1/GPa)
#
#
# Indices 1 2 3 4 5 6 
#
# 1 0.011704 -0.003863 0.000576 0.000000 0.000000 0.000000
# 2 -0.003863 0.017013 -0.002623 0.000000 0.000000 0.000000
# 3 0.000576 -0.002623 0.016031 0.000000 0.000000 0.000000
# 4 0.000000 0.000000 0.000000 0.026816 0.000000 0.000000
# 5 0.000000 0.000000 0.000000 0.000000 0.014281 0.000000
# 6 0.000000 0.000000 0.000000 0.000000 0.000000 0.038472
#
#
# Mechanical properties :
#
#
# Convention : Reuss Voigt Hill
#
# Bulk Modulus (GPa) = 30.37068 31.49319 30.93194
# Shear Modulus (GPa) = 33.98739 39.35676 36.67207
#
# Velocity S-wave (km/s) = 4.13199 4.44642 4.29208
# Velocity P-wave (km/s) = 6.16612 6.49471 6.33254
#
# Compressibility (1/GPa) = 0.03292649
#
# Stress axis : x y z
#
# Youngs Moduli (GPa) = 85.44364 58.77815 62.37787
#
# Poissons Ratio (x) = 0.22708 -0.03593
# Poissons Ratio (y) = 0.33010 0.16365
# Poissons Ratio (z) = -0.04922 0.15420
#
# Static dielectric constant tensor:
#      x y z
#    x 1.699400 0.000000 0.000000 
#    y 0.000000 1.716130 0.000000 
#    z 0.000000 0.000000 1.454050 
# 
# From -- ./inp_files/26969.got.cif
#   From: 2010.05.17/outbox.cif.g08.bks.cpg/sg52_14_cif.got.tgz:26969.got - 2010.06.03 12:15:38.
