data_PCOD9411694
_publ_section_title
;
Structure prediction by ZEFSAII (Michael W. Deem and Ramdas Pophale) SiO2 
 PCOD9411694
Probable space group: P N N A
;
_chemical_formula_sum "Si O2"
_cell_formula_units_Z 36
_cell_length_a 12.329533
_cell_length_b 5.006118
_cell_length_c 24.626160
_cell_angle_alpha 90.000000
_cell_angle_beta 90.000000
_cell_angle_gamma 90.000000
_cell_volume 1520.002864
_symmetry_space_group_name_H-M "P N N A"
_symmetry_group_IT_number 52
_symmetry_cell_setting 'orthorhombic'
loop_
_space_group_symop_operation_xyz
x,y,z
1/2-x,-y,z
x,1/2-y,1/2-z
1/2-x,1/2+y,1/2-z
-x,-y,-z
1/2+x,y,-z
-x,1/2+y,1/2+z
1/2+x,1/2-y,1/2+z
loop_
_atom_site_type_symbol
_atom_site_label
_atom_site_fract_x
_atom_site_fract_y
_atom_site_fract_z
Si Si1 0.250000 0.000000 0.716936
Si Si2 0.880164 0.567365 0.420374
Si Si3 0.323002 0.761199 0.471452
Si Si4 0.552503 0.587760 0.142970
Si Si5 0.676256 0.266873 0.844907
O O1 0.202972 0.250000 0.750000
O O2 0.156374 0.871854 0.680764
O O3 0.750000 0.500000 0.415550
O O4 0.903295 0.684425 0.480209
O O5 0.931559 0.784160 0.378729
O O6 0.933763 0.285952 0.407895
O O7 0.250000 0.500000 0.465315
O O8 0.346784 0.832427 0.409220
O O9 0.250000 0.000000 0.494453
O O10 0.445981 0.687137 0.175285
O O11 0.750000 0.500000 0.821368
O O12 0.750000 0.000000 0.840635
#
# Coordination Sequence:
#
# PCOD9411694 Si02
#       5
#     4   8   8   8   8
#     4  12  26  46  68  98 130 150 202 276 348 408
#     4  11  19  34  56  90 130 161 217 259 307 379
#     4   9  18  32  52  82 128 176 209 260 298 346
#     4  12  23  39  66  92 120 170 208 260 332 382
#     4  10  22  40  59  89 131 173 221 250 297 374
#
# _framework density 23.684165
#
# number of rings (size 3 to 8) (size 9 to 14) (size 15 to 20)
#    0.000    1.333    2.222    5.333    0.000    1.778 
#    0.000    0.000    0.000    2.667    0.000    0.000 
#    0.000    0.000    0.000    0.000    0.000    0.000 
#
# Total GULP energy -200700.257817 kJ/mol
# GULP energy per Si atom -5575.007162 kJ/mol
# Density = 2.363026 g / cm^3
# Si number density = 23.684165 Si / 1000 Ang^3
#
#
#
# Elastic Constant Matrix: (Units=GPa)
#
#
# Indices 1 2 3 4 5 6 
#
# 1 149.9391 29.2568 -12.3773 0.0000 0.0000 0.0000
# 2 29.2568 131.9430 -3.3928 0.0000 0.0000 0.0000
# 3 -12.3773 -3.3928 20.7432 0.0000 0.0000 0.0000
# 4 0.0000 0.0000 0.0000 -7.7938 0.0000 0.0000
# 5 0.0000 0.0000 0.0000 0.0000 -8.6505 0.0000
# 6 0.0000 0.0000 0.0000 0.0000 0.0000 25.1989
#
#
#
# Elastic Compliance Matrix: (Units=1/GPa)
#
#
# Indices 1 2 3 4 5 6 
#
# 1 0.007304 -0.001514 0.004111 0.000000 0.000000 0.000000
# 2 -0.001514 0.007925 0.000393 0.000000 0.000000 0.000000
# 3 0.004111 0.000393 0.050726 0.000000 0.000000 0.000000
# 4 0.000000 0.000000 0.000000 -0.128307 0.000000 0.000000
# 5 0.000000 0.000000 0.000000 0.000000 -0.115600 0.000000
# 6 0.000000 0.000000 0.000000 0.000000 0.000000 0.039684
#
#
# Mechanical properties :
#
#
# Convention : Reuss Voigt Hill
#
# Bulk Modulus (GPa) = 13.90165 36.62207 25.26186
# Shear Modulus (GPa) = -41.57313 21.02682 -10.27316
#
# Velocity S-wave (km/s) = -4.19419 2.98283 -2.08494
# Velocity P-wave (km/s) = 4.19197 5.23061 2.21209
#
# Compressibility (1/GPa) = 0.07193392
#
# Stress axis : x y z
#
# Youngs Moduli (GPa) = 136.90938 126.18579 19.71388
#
# Poissons Ratio (x) = 0.19103 -0.08104
# Poissons Ratio (y) = 0.20727 -0.00775
# Poissons Ratio (z) = -0.56279 -0.04958
#
# Static dielectric constant tensor:
#      x y z
#    x 2.062910 0.000000 0.000000 
#    y 0.000000 1.855960 0.000000 
#    z 0.000000 0.000000 1.983600 
# 
# From -- ./inp_files/39925.got.cif
#   From: 2010.05.17/outbox.cif.g08.bks.cpg/sg52_20_cif.got.tgz:39925.got - 2010.06.03 12:15:38.
