data_PCOD9411493
_publ_section_title
;
Structure prediction by ZEFSAII (Michael W. Deem and Ramdas Pophale) SiO2 
 PCOD9411493
Probable space group: P N N A
;
_chemical_formula_sum "Si O2"
_cell_formula_units_Z 40
_cell_length_a 8.826655
_cell_length_b 20.809781
_cell_length_c 11.318598
_cell_angle_alpha 90.000000
_cell_angle_beta 90.000000
_cell_angle_gamma 90.000000
_cell_volume 2079.008655
_symmetry_space_group_name_H-M "P N N A"
_symmetry_group_IT_number 52
_symmetry_cell_setting 'orthorhombic'
loop_
_space_group_symop_operation_xyz
x,y,z
1/2-x,-y,z
x,1/2-y,1/2-z
1/2-x,1/2+y,1/2-z
-x,-y,-z
1/2+x,y,-z
-x,1/2+y,1/2+z
1/2+x,1/2-y,1/2+z
loop_
_atom_site_type_symbol
_atom_site_label
_atom_site_fract_x
_atom_site_fract_y
_atom_site_fract_z
Si Si1 0.281173 0.296120 0.145875
Si Si2 0.724005 0.314176 0.329486
Si Si3 0.688376 0.432996 0.153604
Si Si4 0.833558 0.065518 0.602687
Si Si5 0.999643 0.730684 0.529062
O O1 0.334900 0.250000 0.250000
O O2 0.282959 0.371097 0.173811
O O3 0.117985 0.270329 0.107617
O O4 0.395394 0.281879 0.038891
O O5 0.713785 0.250000 0.250000
O O6 0.703147 0.374626 0.244284
O O7 0.597944 0.308405 0.432504
O O8 0.887491 0.312192 0.393332
O O9 0.750000 0.500000 0.205080
O O10 0.513419 0.440736 0.115731
O O11 0.783278 0.422183 0.033078
O O12 0.750000 0.000000 0.639293
#
# Coordination Sequence:
#
# PCOD9411493 Si02
#       5
#     8   8   8   8   8
#     4  11  21  36  58  85 115 151 188 235 292 347
#     4  11  22  39  61  86 118 155 195 244 296 353
#     4  11  23  39  60  87 121 158 196 246 306 358
#     4  11  22  36  58  89 123 153 194 248 301 361
#     4  10  22  36  57  87 115 147 198 241 283 349
#
# _framework density 19.239939
#
# number of rings (size 3 to 8) (size 9 to 14) (size 15 to 20)
#    0.000    1.200    0.000    9.600    0.000    4.800 
#    0.000    1.000    0.000    4.800    0.000    0.000 
#    0.000    0.000    0.000    0.000    0.000    0.000 
#
# Total GULP energy -223667.427657 kJ/mol
# GULP energy per Si atom -5591.685691 kJ/mol
# Density = 1.919615 g / cm^3
# Si number density = 19.239939 Si / 1000 Ang^3
#
#
#
# Elastic Constant Matrix: (Units=GPa)
#
#
# Indices 1 2 3 4 5 6 
#
# 1 166.4868 60.4074 52.7073 0.0000 0.0000 0.0000
# 2 60.4074 178.7705 58.0966 0.0000 0.0000 0.0000
# 3 52.7073 58.0966 65.1057 0.0000 0.0000 0.0000
# 4 0.0000 0.0000 0.0000 36.0333 0.0000 0.0000
# 5 0.0000 0.0000 0.0000 0.0000 -12.1238 0.0000
# 6 0.0000 0.0000 0.0000 0.0000 0.0000 15.3476
#
#
#
# Elastic Compliance Matrix: (Units=1/GPa)
#
#
# Indices 1 2 3 4 5 6 
#
# 1 0.008169 -0.000861 -0.005846 0.000000 0.000000 0.000000
# 2 -0.000861 0.007969 -0.006414 0.000000 0.000000 0.000000
# 3 -0.005846 -0.006414 0.025816 0.000000 0.000000 0.000000
# 4 0.000000 0.000000 0.000000 0.027752 0.000000 0.000000
# 5 0.000000 0.000000 0.000000 0.000000 -0.082482 0.000000
# 6 0.000000 0.000000 0.000000 0.000000 0.000000 0.065157
#
#
# Mechanical properties :
#
#
# Convention : Reuss Voigt Hill
#
# Bulk Modulus (GPa) = 63.64168 83.64285 73.64226
# Shear Modulus (GPa) = 59.62305 23.79486 41.70896
#
# Velocity S-wave (km/s) = 5.57283 3.52055 4.66105
# Velocity P-wave (km/s) = 8.63472 7.75201 8.20524
#
# Compressibility (1/GPa) = 0.01571297
#
# Stress axis : x y z
#
# Youngs Moduli (GPa) = 122.40766 125.48372 38.73601
#
# Poissons Ratio (x) = 0.10802 0.22643
# Poissons Ratio (y) = 0.10537 0.24847
# Poissons Ratio (z) = 0.71554 0.80490
#
# Static dielectric constant tensor:
#      x y z
#    x 1.690110 0.000000 0.000000 
#    y 0.000000 1.673030 0.000000 
#    z 0.000000 0.000000 1.686480 
# 
# From -- ./inp_files/16623.got.cif
#   From: 2010.05.17/outbox.cif.g08.bks.cpg/sg52_9_cif.got.tgz:16623.got - 2010.06.03 12:15:38.
