data_PCOD9411322
_publ_section_title
;
Structure prediction by ZEFSAII (Michael W. Deem and Ramdas Pophale) SiO2 
 PCOD9411322
Probable space group: P N N A
;
_chemical_formula_sum "Si O2"
_cell_formula_units_Z 20
_cell_length_a 18.125893
_cell_length_b 5.395742
_cell_length_c 7.033598
_cell_angle_alpha 90.000000
_cell_angle_beta 90.000000
_cell_angle_gamma 90.000000
_cell_volume 687.904468
_symmetry_space_group_name_H-M "P N N A"
_symmetry_group_IT_number 52
_symmetry_cell_setting 'orthorhombic'
loop_
_space_group_symop_operation_xyz
x,y,z
1/2-x,-y,z
x,1/2-y,1/2-z
1/2-x,1/2+y,1/2-z
-x,-y,-z
1/2+x,y,-z
-x,1/2+y,1/2+z
1/2+x,1/2-y,1/2+z
loop_
_atom_site_type_symbol
_atom_site_label
_atom_site_fract_x
_atom_site_fract_y
_atom_site_fract_z
Si Si1 0.480248 0.498189 0.780805
Si Si2 0.645907 0.005690 0.863971
Si Si3 0.210672 0.250000 0.750000
O O1 0.439295 0.750000 0.750000
O O2 0.555083 0.497501 0.655292
O O3 0.436183 0.250000 0.750000
O O4 0.500000 0.500000 0.000000
O O5 0.665521 0.750000 0.750000
O O6 0.667029 0.250000 0.750000
O O7 0.676089 0.085363 0.070359
O O8 0.250000 0.500000 0.844966
#
# Coordination Sequence:
#
# PCOD9411322 Si02
#       3
#     8   8   4
#     4  10  21  42  66 103 146 195 239 295 367 449
#     4  10  23  46  70 105 151 193 243 321 376 451
#     4  12  26  46  78 110 140 198 268 318 398 470
#
# _framework density 29.073803000000002
#
# number of rings (size 3 to 8) (size 9 to 14) (size 15 to 20)
#    0.000    1.600    0.000    3.600    0.000    3.200 
#   43.200    0.000    0.000    0.000    0.000    0.000 
#    0.000    0.000    0.000    0.000    0.000    0.000 
#
# Total GULP energy -111454.216224 kJ/mol
# GULP energy per Si atom -5572.710811 kJ/mol
# Density = 2.900763 g / cm^3
# Si number density = 29.073803 Si / 1000 Ang^3
#
#
#
# Elastic Constant Matrix: (Units=GPa)
#
#
# Indices 1 2 3 4 5 6 
#
# 1 121.2284 50.5642 61.5113 0.0000 0.0000 0.0000
# 2 50.5642 416.5184 120.0037 0.0000 0.0000 0.0000
# 3 61.5113 120.0037 187.2931 0.0000 0.0000 0.0000
# 4 0.0000 0.0000 0.0000 64.2793 0.0000 0.0000
# 5 0.0000 0.0000 0.0000 0.0000 14.7106 0.0000
# 6 0.0000 0.0000 0.0000 0.0000 0.0000 21.4955
#
#
#
# Elastic Compliance Matrix: (Units=1/GPa)
#
#
# Indices 1 2 3 4 5 6 
#
# 1 0.009934 -0.000326 -0.003054 0.000000 0.000000 0.000000
# 2 -0.000326 0.002955 -0.001786 0.000000 0.000000 0.000000
# 3 -0.003054 -0.001786 0.007487 0.000000 0.000000 0.000000
# 4 0.000000 0.000000 0.000000 0.015557 0.000000 0.000000
# 5 0.000000 0.000000 0.000000 0.000000 0.067978 0.000000
# 6 0.000000 0.000000 0.000000 0.000000 0.000000 0.046521
#
#
# Mechanical properties :
#
#
# Convention : Reuss Voigt Hill
#
# Bulk Modulus (GPa) = 99.56380 132.13316 115.84848
# Shear Modulus (GPa) = 30.46681 52.96112 41.71396
#
# Velocity S-wave (km/s) = 3.24066 4.27266 3.79193
# Velocity P-wave (km/s) = 6.95141 8.35985 7.68795
#
# Compressibility (1/GPa) = 0.01004381
#
# Stress axis : x y z
#
# Youngs Moduli (GPa) = 100.66046 338.39774 133.57133
#
# Poissons Ratio (x) = 0.11039 0.40788
# Poissons Ratio (y) = 0.03284 0.23860
# Poissons Ratio (z) = 0.30738 0.60447
#
# Static dielectric constant tensor:
#      x y z
#    x 2.592570 0.000000 0.000000 
#    y 0.000000 2.247500 0.000000 
#    z 0.000000 0.000000 2.525090 
# 
# From -- ./inp_files/4666.got.cif
#   From: 2010.05.17/outbox.cif.g08.bks.cpg/sg52_3_cif.got.tgz:4666.got - 2010.06.03 12:15:38.
