data_PCOD9411182
_publ_section_title
;
Structure prediction by ZEFSAII (Michael W. Deem and Ramdas Pophale) SiO2 
 PCOD9411182
Probable space group: P N N A
;
_chemical_formula_sum "Si O2"
_cell_formula_units_Z 32
_cell_length_a 5.692398
_cell_length_b 10.160434
_cell_length_c 26.883772
_cell_angle_alpha 90.000000
_cell_angle_beta 90.000000
_cell_angle_gamma 90.000000
_cell_volume 1554.883017
_symmetry_space_group_name_H-M "P N N A"
_symmetry_group_IT_number 52
_symmetry_cell_setting 'orthorhombic'
loop_
_space_group_symop_operation_xyz
x,y,z
1/2-x,-y,z
x,1/2-y,1/2-z
1/2-x,1/2+y,1/2-z
-x,-y,-z
1/2+x,y,-z
-x,1/2+y,1/2+z
1/2+x,1/2-y,1/2+z
loop_
_atom_site_type_symbol
_atom_site_label
_atom_site_fract_x
_atom_site_fract_y
_atom_site_fract_z
Si Si1 0.638906 0.640522 0.208036
Si Si2 0.503397 0.149294 0.018893
Si Si3 0.250000 0.000000 0.354804
Si Si4 0.609059 0.200567 0.392488
Si Si5 0.750000 0.500000 0.030400
O O1 0.750000 0.500000 0.225341
O O2 0.609312 0.750000 0.250000
O O3 0.405470 0.591004 0.181006
O O4 0.790494 0.703792 0.162906
O O5 0.545919 0.167976 0.077798
O O6 0.241545 0.204534 0.007539
O O7 0.500000 0.000000 0.000000
O O8 0.108833 0.898021 0.388042
O O9 0.774318 0.121148 0.430461
O O10 0.500000 0.500000 0.000000
#
# Coordination Sequence:
#
# PCOD9411182 Si02
#       5
#     8   8   4   8   4
#     4  10  23  45  71  99 136 177 236 299 368 432
#     4  10  23  42  63  92 139 185 226 275 339 416
#     4  10  21  40  68 100 132 174 234 289 362 412
#     4  11  22  40  65  96 136 172 229 288 342 417
#     4  12  23  34  64 100 130 174 222 277 338 400
#
# _framework density 20.580325999999999
#
# number of rings (size 3 to 8) (size 9 to 14) (size 15 to 20)
#    0.000    1.500    3.750    2.250    3.500    4.000 
#    4.500    0.000    0.000    0.000    0.000    0.000 
#    0.000    0.000    0.000    0.000    0.000    0.000 
#
# Total GULP energy -178143.582381 kJ/mol
# GULP energy per Si atom -5566.986949 kJ/mol
# Density = 2.053348 g / cm^3
# Si number density = 20.580326 Si / 1000 Ang^3
#
#
#
# Elastic Constant Matrix: (Units=GPa)
#
#
# Indices 1 2 3 4 5 6 
#
# 1 114.0392 13.0086 10.4956 0.0000 0.0000 0.0000
# 2 13.0086 99.2666 62.9424 0.0000 0.0000 0.0000
# 3 10.4956 62.9424 70.3397 0.0000 0.0000 0.0000
# 4 0.0000 0.0000 0.0000 62.2651 0.0000 0.0000
# 5 0.0000 0.0000 0.0000 0.0000 13.6277 0.0000
# 6 0.0000 0.0000 0.0000 0.0000 0.0000 4.9300
#
#
#
# Elastic Compliance Matrix: (Units=1/GPa)
#
#
# Indices 1 2 3 4 5 6 
#
# 1 0.008915 -0.000751 -0.000658 0.000000 0.000000 0.000000
# 2 -0.000751 0.023350 -0.020782 0.000000 0.000000 0.000000
# 3 -0.000658 -0.020782 0.032911 0.000000 0.000000 0.000000
# 4 0.000000 0.000000 0.000000 0.016060 0.000000 0.000000
# 5 0.000000 0.000000 0.000000 0.000000 0.073380 0.000000
# 6 0.000000 0.000000 0.000000 0.000000 0.000000 0.202840
#
#
# Mechanical properties :
#
#
# Convention : Reuss Voigt Hill
#
# Bulk Modulus (GPa) = 48.09140 50.72651 49.40896
# Shear Modulus (GPa) = 12.23182 29.31115 20.77148
#
# Velocity S-wave (km/s) = 2.44056 3.77799 3.18038
# Velocity P-wave (km/s) = 5.60002 6.61306 6.12751
#
# Compressibility (1/GPa) = 0.02079374
#
# Stress axis : x y z
#
# Youngs Moduli (GPa) = 112.16850 42.82729 30.38462
#
# Poissons Ratio (x) = 0.03216 0.02000
# Poissons Ratio (y) = 0.08422 0.63145
# Poissons Ratio (z) = 0.07385 0.89004
#
# Static dielectric constant tensor:
#      x y z
#    x 1.823100 0.000000 0.000000 
#    y 0.000000 1.658460 0.000000 
#    z 0.000000 0.000000 1.703390 
# 
# From -- ./inp_files/34828.got.cif
#   From: 2010.05.17/outbox.cif.g08.bks.cpg/sg52_18_cif.got.tgz:34828.got - 2010.06.03 12:15:38.
