data_PCOD9411594
_publ_section_title
;
Structure prediction by ZEFSAII (Michael W. Deem and Ramdas Pophale) SiO2 
 PCOD9411594
Probable space group: P N N A
;
_chemical_formula_sum "Si O2"
_cell_formula_units_Z 60
_cell_length_a 28.641769
_cell_length_b 8.543283
_cell_length_c 11.709851
_cell_angle_alpha 90.000000
_cell_angle_beta 90.000000
_cell_angle_gamma 90.000000
_cell_volume 2865.338925
_symmetry_space_group_name_H-M "P N N A"
_symmetry_group_IT_number 52
_symmetry_cell_setting 'orthorhombic'
loop_
_space_group_symop_operation_xyz
x,y,z
1/2-x,-y,z
x,1/2-y,1/2-z
1/2-x,1/2+y,1/2-z
-x,-y,-z
1/2+x,y,-z
-x,1/2+y,1/2+z
1/2+x,1/2-y,1/2+z
loop_
_atom_site_type_symbol
_atom_site_label
_atom_site_fract_x
_atom_site_fract_y
_atom_site_fract_z
Si Si1 0.144716 0.061260 0.257532
Si Si2 0.161917 0.487694 0.992001
Si Si3 0.219634 0.714554 0.879324
Si Si4 0.672697 0.192615 0.125400
Si Si5 0.072470 0.806751 0.524414
Si Si6 0.015162 0.750000 0.750000
Si Si7 0.040843 0.926592 0.297535
Si Si8 0.347861 0.085840 0.020974
O O1 0.141145 0.250000 0.250000
O O2 0.171148 0.004942 0.372563
O O3 0.094168 0.979307 0.272571
O O4 0.164874 0.998257 0.138451
O O5 0.204040 0.536497 0.907432
O O6 0.151922 0.307249 0.968603
O O7 0.115655 0.577348 0.951707
O O8 0.203110 0.750000 0.750000
O O9 0.271073 0.789703 0.883157
O O10 0.190649 0.788085 0.984626
O O11 0.658790 0.250000 0.250000
O O12 0.654639 0.025208 0.089219
O O13 0.046226 0.751176 0.636112
O O14 0.039732 0.893453 0.433520
O O15 0.101047 0.662129 0.468642
O O16 0.987774 0.581689 0.758061
O O17 0.030151 0.750000 0.250000
#
# Coordination Sequence:
#
# PCOD9411594 Si02
#       8
#     8   8   8   8   8   4   8   8
#     4  11  21  43  66  92 125 172 226 274 325 400
#     4  10  22  38  64  86 127 169 216 268 327 384
#     4  10  22  39  60  89 133 173 213 267 335 395
#     4  11  22  37  61  95 128 171 217 270 333 397
#     4  10  25  42  64  96 130 166 214 270 332 390
#     4  12  26  44  68 100 140 168 214 286 332 398
#     4  11  23  46  70  95 130 181 218 261 344 413
#     4  11  22  40  66  91 127 171 224 270 327 402
#
# _framework density 20.939931000000001
#
# number of rings (size 3 to 8) (size 9 to 14) (size 15 to 20)
#    0.000    1.333    3.333    2.000    5.600    2.667 
#    2.400    4.000    0.000    0.000    0.000    0.000 
#    0.000    0.000    0.000    0.000    0.000    0.000 
#
# Total GULP energy -334154.500870 kJ/mol
# GULP energy per Si atom -5569.241681 kJ/mol
# Density = 2.089227 g / cm^3
# Si number density = 20.939931 Si / 1000 Ang^3
#
#
#
# Elastic Constant Matrix: (Units=GPa)
#
#
# Indices 1 2 3 4 5 6 
#
# 1 40.5502 23.3513 34.9827 0.0000 0.0000 0.0000
# 2 23.3513 93.3066 25.9023 0.0000 0.0000 0.0000
# 3 34.9827 25.9023 134.3322 0.0000 0.0000 0.0000
# 4 0.0000 0.0000 0.0000 43.3953 0.0000 0.0000
# 5 0.0000 0.0000 0.0000 0.0000 35.5618 0.0000
# 6 0.0000 0.0000 0.0000 0.0000 0.0000 2.0316
#
#
#
# Elastic Compliance Matrix: (Units=1/GPa)
#
#
# Indices 1 2 3 4 5 6 
#
# 1 0.035314 -0.006640 -0.007916 0.000000 0.000000 0.000000
# 2 -0.006640 0.012572 -0.000695 0.000000 0.000000 0.000000
# 3 -0.007916 -0.000695 0.009640 0.000000 0.000000 0.000000
# 4 0.000000 0.000000 0.000000 0.023044 0.000000 0.000000
# 5 0.000000 0.000000 0.000000 0.000000 0.028120 0.000000
# 6 0.000000 0.000000 0.000000 0.000000 0.000000 0.492213
#
#
# Mechanical properties :
#
#
# Convention : Reuss Voigt Hill
#
# Bulk Modulus (GPa) = 37.00526 48.51795 42.76161
# Shear Modulus (GPa) = 7.80747 28.46127 18.13437
#
# Velocity S-wave (km/s) = 1.93303 3.69071 2.94601
# Velocity P-wave (km/s) = 4.76368 6.43290 5.66016
#
# Compressibility (1/GPa) = 0.02702319
#
# Stress axis : x y z
#
# Youngs Moduli (GPa) = 28.31757 79.54124 103.73759
#
# Poissons Ratio (x) = 0.52818 0.82119
# Poissons Ratio (y) = 0.18804 0.07209
# Poissons Ratio (z) = 0.22416 0.05528
#
# Static dielectric constant tensor:
#      x y z
#    x 1.750840 0.000000 0.000000 
#    y 0.000000 1.870590 0.000000 
#    z 0.000000 0.000000 1.807820 
# 
# From -- ./inp_files/22915.got.cif
#   From: 2010.05.17/outbox.cif.g08.bks.cpg/sg52_12_cif.got.tgz:22915.got - 2010.06.03 12:15:38.
