data_PCOD9411947
_publ_section_title
;
Structure prediction by ZEFSAII (Michael W. Deem and Ramdas Pophale) SiO2 
 PCOD9411947
Probable space group: P N N A
;
_chemical_formula_sum "Si O2"
_cell_formula_units_Z 32
_cell_length_a 38.193485
_cell_length_b 5.250053
_cell_length_c 7.497937
_cell_angle_alpha 90.000000
_cell_angle_beta 90.000000
_cell_angle_gamma 90.000000
_cell_volume 1503.469986
_symmetry_space_group_name_H-M "P N N A"
_symmetry_group_IT_number 52
_symmetry_cell_setting 'orthorhombic'
loop_
_space_group_symop_operation_xyz
x,y,z
1/2-x,-y,z
x,1/2-y,1/2-z
1/2-x,1/2+y,1/2-z
-x,-y,-z
1/2+x,y,-z
-x,1/2+y,1/2+z
1/2+x,1/2-y,1/2+z
loop_
_atom_site_type_symbol
_atom_site_label
_atom_site_fract_x
_atom_site_fract_y
_atom_site_fract_z
Si Si1 0.621184 0.739798 0.036027
Si Si2 0.834283 0.759474 0.036012
Si Si3 0.991306 0.750000 0.750000
Si Si4 0.457130 0.164065 0.063092
Si Si5 0.273883 0.750000 0.250000
O O1 0.616025 0.750000 0.250000
O O2 0.640629 0.478237 0.991042
O O3 0.645746 0.978953 0.990592
O O4 0.583073 0.765935 0.951192
O O5 0.827874 0.750000 0.250000
O O6 0.799133 0.741437 0.922156
O O7 0.021408 0.786731 0.595855
O O8 0.963425 0.633227 0.602689
O O9 0.474609 0.250000 0.250000
O O10 0.250000 0.500000 0.255959
#
# Coordination Sequence:
#
# PCOD9411947 Si02
#       5
#     8   8   4   8   4
#     4  10  22  42  66  96 128 174 224 274 323 390
#     4  10  24  44  67  97 136 170 214 266 319 384
#     4  10  24  43  54  90 128 166 232 278 348 412
#     4  11  23  39  62  87 124 175 221 282 345 391
#     4  12  26  43  70 106 134 170 210 258 312 396
#
# _framework density 21.284098
#
# number of rings (size 3 to 8) (size 9 to 14) (size 15 to 20)
#    0.000    1.500    1.250    2.250    7.000    1.000 
#    0.000    0.000    0.000    0.000    0.000    0.000 
#    0.000    0.000    0.000    0.000    0.000    0.000 
#
# Total GULP energy -178150.162507 kJ/mol
# GULP energy per Si atom -5567.192578 kJ/mol
# Density = 2.123565 g / cm^3
# Si number density = 21.284098 Si / 1000 Ang^3
#
#
#
# Elastic Constant Matrix: (Units=GPa)
#
#
# Indices 1 2 3 4 5 6 
#
# 1 174.8205 73.3550 70.9160 0.0000 0.0000 0.0000
# 2 73.3550 111.7724 41.3280 0.0000 0.0000 0.0000
# 3 70.9160 41.3280 125.3024 0.0000 0.0000 0.0000
# 4 0.0000 0.0000 0.0000 -12.9259 0.0000 0.0000
# 5 0.0000 0.0000 0.0000 0.0000 36.8611 0.0000
# 6 0.0000 0.0000 0.0000 0.0000 0.0000 25.8409
#
#
#
# Elastic Compliance Matrix: (Units=1/GPa)
#
#
# Indices 1 2 3 4 5 6 
#
# 1 0.009154 -0.004660 -0.003643 0.000000 0.000000 0.000000
# 2 -0.004660 0.012562 -0.001506 0.000000 0.000000 0.000000
# 3 -0.003643 -0.001506 0.010539 0.000000 0.000000 0.000000
# 4 0.000000 0.000000 0.000000 -0.077364 0.000000 0.000000
# 5 0.000000 0.000000 0.000000 0.000000 0.027129 0.000000
# 6 0.000000 0.000000 0.000000 0.000000 0.000000 0.038698
#
#
# Mechanical properties :
#
#
# Convention : Reuss Voigt Hill
#
# Bulk Modulus (GPa) = 79.13903 87.01038 83.07471
# Shear Modulus (GPa) = 112.23542 25.04162 68.63852
#
# Velocity S-wave (km/s) = 7.26956 3.43380 5.68496
# Velocity P-wave (km/s) = 10.37907 7.52931 9.06685
#
# Compressibility (1/GPa) = 0.01263599
#
# Stress axis : x y z
#
# Youngs Moduli (GPa) = 109.24711 79.60538 94.88210
#
# Poissons Ratio (x) = 0.37098 0.34570
# Poissons Ratio (y) = 0.50911 0.14287
# Poissons Ratio (z) = 0.39804 0.11987
#
# Static dielectric constant tensor:
#      x y z
#    x 1.699640 0.000000 0.000000 
#    y 0.000000 1.561590 0.000000 
#    z 0.000000 0.000000 1.784900 
# 
# From -- ./inp_files/15313.got.cif
#   From: 2010.05.17/outbox.cif.g08.bks.cpg/sg52_8_cif.got.tgz:15313.got - 2010.06.03 12:15:38.
