data_PCOD9411672
_publ_section_title
;
Structure prediction by ZEFSAII (Michael W. Deem and Ramdas Pophale) SiO2 
 PCOD9411672
Probable space group: P N N A
;
_chemical_formula_sum "Si O2"
_cell_formula_units_Z 28
_cell_length_a 9.699141
_cell_length_b 12.520404
_cell_length_c 9.523244
_cell_angle_alpha 90.000000
_cell_angle_beta 90.000000
_cell_angle_gamma 90.000000
_cell_volume 1156.475741
_symmetry_space_group_name_H-M "P N N A"
_symmetry_group_IT_number 52
_symmetry_cell_setting 'orthorhombic'
loop_
_space_group_symop_operation_xyz
x,y,z
1/2-x,-y,z
x,1/2-y,1/2-z
1/2-x,1/2+y,1/2-z
-x,-y,-z
1/2+x,y,-z
-x,1/2+y,1/2+z
1/2+x,1/2-y,1/2+z
loop_
_atom_site_type_symbol
_atom_site_label
_atom_site_fract_x
_atom_site_fract_y
_atom_site_fract_z
Si Si1 0.122098 0.425924 0.819622
Si Si2 0.802192 0.250000 0.750000
Si Si3 0.123190 0.430331 0.289775
Si Si4 0.552238 0.203065 0.058592
O O1 0.250000 0.500000 0.857608
O O2 0.096022 0.326327 0.922485
O O3 0.141752 0.367521 0.668239
O O4 0.987167 0.499620 0.793915
O O5 0.706219 0.344735 0.801789
O O6 0.899732 0.207405 0.873228
O O7 0.250000 0.500000 0.349817
O O8 0.054804 0.359090 0.412541
#
# Coordination Sequence:
#
# PCOD9411672 Si02
#       4
#     8   4   8   8
#     4  10  22  41  66 103 140 173 235 301 343 423
#     4  10  24  42  62 112 138 168 256 284 328 466
#     4  12  22  43  73  95 138 198 224 292 368 405
#     4  10  22  39  67 103 136 173 247 283 344 439
#
# _framework density 24.211490999999999
#
# number of rings (size 3 to 8) (size 9 to 14) (size 15 to 20)
#    0.000    1.714    5.714    1.714    4.000    2.286 
#    0.000    2.857    0.000    0.000    0.000    0.000 
#    0.000    0.000    0.000    0.000    0.000    0.000 
#
# Total GULP energy -156427.700669 kJ/mol
# GULP energy per Si atom -5586.703595 kJ/mol
# Density = 2.415638 g / cm^3
# Si number density = 24.211491 Si / 1000 Ang^3
#
#
#
# Elastic Constant Matrix: (Units=GPa)
#
#
# Indices 1 2 3 4 5 6 
#
# 1 137.3238 93.5389 27.3586 0.0000 0.0000 0.0000
# 2 93.5389 187.7737 17.1586 0.0000 0.0000 0.0000
# 3 27.3586 17.1586 66.6376 0.0000 0.0000 0.0000
# 4 0.0000 0.0000 0.0000 16.9652 0.0000 0.0000
# 5 0.0000 0.0000 0.0000 0.0000 -12.4310 0.0000
# 6 0.0000 0.0000 0.0000 0.0000 0.0000 36.0192
#
#
#
# Elastic Compliance Matrix: (Units=1/GPa)
#
#
# Indices 1 2 3 4 5 6 
#
# 1 0.011725 -0.005531 -0.003390 0.000000 0.000000 0.000000
# 2 -0.005531 0.008063 0.000195 0.000000 0.000000 0.000000
# 3 -0.003390 0.000195 0.016348 0.000000 0.000000 0.000000
# 4 0.000000 0.000000 0.000000 0.058944 0.000000 0.000000
# 5 0.000000 0.000000 0.000000 0.000000 -0.080444 0.000000
# 6 0.000000 0.000000 0.000000 0.000000 0.000000 0.027763
#
#
# Mechanical properties :
#
#
# Convention : Reuss Voigt Hill
#
# Bulk Modulus (GPa) = 53.52141 74.20525 63.86333
# Shear Modulus (GPa) = 75.66745 25.02260 50.34503
#
# Velocity S-wave (km/s) = 5.59648 3.21830 4.56498
# Velocity P-wave (km/s) = 7.99465 6.67272 7.36341
#
# Compressibility (1/GPa) = 0.01868411
#
# Stress axis : x y z
#
# Youngs Moduli (GPa) = 85.28954 124.02348 61.16942
#
# Poissons Ratio (x) = 0.68596 0.20734
# Poissons Ratio (y) = 0.47173 -0.01190
# Poissons Ratio (z) = 0.28909 -0.02414
#
# Static dielectric constant tensor:
#      x y z
#    x 1.921100 0.000000 0.000000 
#    y 0.000000 1.984340 0.000000 
#    z 0.000000 0.000000 1.958270 
# 
# From -- ./inp_files/24033.got.cif
#   From: 2010.05.17/outbox.cif.g08.bks.cpg/sg52_13_cif.got.tgz:24033.got - 2010.06.03 12:15:38.
