data_PCOD9411629
_publ_section_title
;
Structure prediction by ZEFSAII (Michael W. Deem and Ramdas Pophale) SiO2 
 PCOD9411629
Probable space group: P N N A
;
_chemical_formula_sum "Si O2"
_cell_formula_units_Z 40
_cell_length_a 17.810402
_cell_length_b 9.545486
_cell_length_c 11.009225
_cell_angle_alpha 90.000000
_cell_angle_beta 90.000000
_cell_angle_gamma 90.000000
_cell_volume 1871.666705
_symmetry_space_group_name_H-M "P N N A"
_symmetry_group_IT_number 52
_symmetry_cell_setting 'orthorhombic'
loop_
_space_group_symop_operation_xyz
x,y,z
1/2-x,-y,z
x,1/2-y,1/2-z
1/2-x,1/2+y,1/2-z
-x,-y,-z
1/2+x,y,-z
-x,1/2+y,1/2+z
1/2+x,1/2-y,1/2+z
loop_
_atom_site_type_symbol
_atom_site_label
_atom_site_fract_x
_atom_site_fract_y
_atom_site_fract_z
Si Si1 0.764683 0.157936 0.850930
Si Si2 0.965796 0.200146 0.388283
Si Si3 0.161950 0.482194 0.833257
Si Si4 0.873128 0.049008 0.051920
Si Si5 0.877892 0.737320 0.979494
O O1 0.807097 0.250000 0.750000
O O2 0.750000 0.000000 0.802097
O O3 0.806715 0.122602 0.976474
O O4 0.692992 0.253675 0.888401
O O5 0.972795 0.250000 0.250000
O O6 0.939089 0.339297 0.456319
O O7 0.048511 0.158530 0.430660
O O8 0.897462 0.089956 0.394338
O O9 0.250000 0.500000 0.861093
O O10 0.150647 0.513565 0.690159
O O11 0.142375 0.332235 0.891605
O O12 0.894140 0.901563 0.994362
#
# Coordination Sequence:
#
# PCOD9411629 Si02
#       5
#     8   8   8   8   8
#     4  10  22  39  61  89 123 164 210 258 310 374
#     4  10  22  39  58  86 124 160 199 254 314 374
#     4  11  22  38  63  92 122 159 206 258 310 370
#     4  10  22  40  62  89 121 159 207 260 312 369
#     4  11  21  38  61  88 122 160 202 252 312 375
#
# _framework density 21.371326
#
# number of rings (size 3 to 8) (size 9 to 14) (size 15 to 20)
#    0.000    1.600    0.000    5.400    0.000    5.600 
#    0.000   10.000    0.000    0.000    0.000    0.000 
#    0.000    0.000    0.000    0.000    0.000    0.000 
#
# Total GULP energy -222990.215699 kJ/mol
# GULP energy per Si atom -5574.755392 kJ/mol
# Density = 2.132268 g / cm^3
# Si number density = 21.371326 Si / 1000 Ang^3
#
#
#
# Elastic Constant Matrix: (Units=GPa)
#
#
# Indices 1 2 3 4 5 6 
#
# 1 130.3353 15.6562 22.4463 0.0000 0.0000 0.0000
# 2 15.6562 50.6723 31.0776 0.0000 0.0000 0.0000
# 3 22.4463 31.0776 59.4327 0.0000 0.0000 0.0000
# 4 0.0000 0.0000 0.0000 34.5600 0.0000 0.0000
# 5 0.0000 0.0000 0.0000 0.0000 14.4301 0.0000
# 6 0.0000 0.0000 0.0000 0.0000 0.0000 22.2904
#
#
#
# Elastic Compliance Matrix: (Units=1/GPa)
#
#
# Indices 1 2 3 4 5 6 
#
# 1 0.008236 -0.000938 -0.002620 0.000000 0.000000 0.000000
# 2 -0.000938 0.029158 -0.014893 0.000000 0.000000 0.000000
# 3 -0.002620 -0.014893 0.025603 0.000000 0.000000 0.000000
# 4 0.000000 0.000000 0.000000 0.028935 0.000000 0.000000
# 5 0.000000 0.000000 0.000000 0.000000 0.069300 0.000000
# 6 0.000000 0.000000 0.000000 0.000000 0.000000 0.044862
#
#
# Mechanical properties :
#
#
# Convention : Reuss Voigt Hill
#
# Bulk Modulus (GPa) = 38.32036 42.08896 40.20466
# Shear Modulus (GPa) = 19.86532 25.67346 22.76939
#
# Velocity S-wave (km/s) = 3.05213 3.46974 3.26761
# Velocity P-wave (km/s) = 5.51274 5.98239 5.75236
#
# Compressibility (1/GPa) = 0.02609579
#
# Stress axis : x y z
#
# Youngs Moduli (GPa) = 121.41170 34.29564 39.05804
#
# Poissons Ratio (x) = 0.03216 0.10235
# Poissons Ratio (y) = 0.11385 0.58168
# Poissons Ratio (z) = 0.31814 0.51076
#
# Static dielectric constant tensor:
#      x y z
#    x 1.823330 0.000000 0.000000 
#    y 0.000000 1.779850 0.000000 
#    z 0.000000 0.000000 1.789380 
# 
# From -- ./inp_files/20283.got.cif
#   From: 2010.05.17/outbox.cif.g08.bks.cpg/sg52_11_cif.got.tgz:20283.got - 2010.06.03 12:15:38.
