data_PCOD9411405
_publ_section_title
;
Structure prediction by ZEFSAII (Michael W. Deem and Ramdas Pophale) SiO2 
 PCOD9411405
Probable space group: P N N A
;
_chemical_formula_sum "Si O2"
_cell_formula_units_Z 60
_cell_length_a 26.834448
_cell_length_b 9.297735
_cell_length_c 11.384115
_cell_angle_alpha 90.000000
_cell_angle_beta 90.000000
_cell_angle_gamma 90.000000
_cell_volume 2840.331984
_symmetry_space_group_name_H-M "P N N A"
_symmetry_group_IT_number 52
_symmetry_cell_setting 'orthorhombic'
loop_
_space_group_symop_operation_xyz
x,y,z
1/2-x,-y,z
x,1/2-y,1/2-z
1/2-x,1/2+y,1/2-z
-x,-y,-z
1/2+x,y,-z
-x,1/2+y,1/2+z
1/2+x,1/2-y,1/2+z
loop_
_atom_site_type_symbol
_atom_site_label
_atom_site_fract_x
_atom_site_fract_y
_atom_site_fract_z
Si Si1 0.190868 0.009132 0.302378
Si Si2 0.876048 0.416044 0.218291
Si Si3 0.114704 0.070292 0.114422
Si Si4 0.390877 0.265222 0.123409
Si Si5 0.864295 0.675524 0.365891
Si Si6 0.034595 0.892558 0.570292
Si Si7 0.802621 0.576291 0.057786
Si Si8 0.036288 0.250000 0.250000
O O1 0.158195 0.864310 0.341306
O O2 0.250000 0.000000 0.278840
O O3 0.164578 0.081928 0.192095
O O4 0.187623 0.099351 0.421185
O O5 0.874524 0.250000 0.250000
O O6 0.857283 0.512996 0.325026
O O7 0.931480 0.455322 0.175496
O O8 0.841214 0.462693 0.111302
O O9 0.071748 0.120329 0.205358
O O10 0.116400 0.900174 0.084659
O O11 0.111087 0.163342 0.994673
O O12 0.417644 0.250000 0.250000
O O13 0.425938 0.332321 0.024214
O O14 0.889353 0.750000 0.250000
O O15 0.814907 0.772309 0.381927
O O16 0.998414 0.784400 0.638725
O O17 0.000000 0.000000 0.500000
O O18 0.750000 0.500000 0.073428
#
# Coordination Sequence:
#
# PCOD9411405 Si02
#       8
#     8   8   8   8   8   8   8   4
#     4  10  21  43  75 106 143 184 231 294 380 430
#     4  11  23  44  70  96 138 186 236 298 353 428
#     4  11  24  46  68 101 148 179 238 305 350 438
#     4  10  22  45  71 102 143 180 232 297 358 433
#     4  10  24  43  68 100 138 186 240 285 353 421
#     4  12  25  44  70  97 138 187 231 293 370 417
#     4  10  22  43  69  99 140 183 234 293 356 430
#     4  12  28  44  70 102 140 192 242 290 370 422
#
# _framework density 21.124289999999998
#
# number of rings (size 3 to 8) (size 9 to 14) (size 15 to 20)
#    0.000    1.333    2.000    3.200    3.733    2.133 
#   20.400    2.667    0.000    0.000    0.000    0.000 
#    0.000    0.000    0.000    0.000    0.000    0.000 
#
# Total GULP energy -334115.053236 kJ/mol
# GULP energy per Si atom -5568.584221 kJ/mol
# Density = 2.107621 g / cm^3
# Si number density = 21.124290 Si / 1000 Ang^3
#
#
#
# Elastic Constant Matrix: (Units=GPa)
#
#
# Indices 1 2 3 4 5 6 
#
# 1 94.4651 66.4539 58.1963 0.0000 0.0000 0.0000
# 2 66.4539 119.0569 30.9929 0.0000 0.0000 0.0000
# 3 58.1963 30.9929 120.0936 0.0000 0.0000 0.0000
# 4 0.0000 0.0000 0.0000 39.1878 0.0000 0.0000
# 5 0.0000 0.0000 0.0000 0.0000 15.9088 0.0000
# 6 0.0000 0.0000 0.0000 0.0000 0.0000 1.4345
#
#
#
# Elastic Compliance Matrix: (Units=1/GPa)
#
#
# Indices 1 2 3 4 5 6 
#
# 1 0.023561 -0.010912 -0.008602 0.000000 0.000000 0.000000
# 2 -0.010912 0.014058 0.001660 0.000000 0.000000 0.000000
# 3 -0.008602 0.001660 0.012067 0.000000 0.000000 0.000000
# 4 0.000000 0.000000 0.000000 0.025518 0.000000 0.000000
# 5 0.000000 0.000000 0.000000 0.000000 0.062858 0.000000
# 6 0.000000 0.000000 0.000000 0.000000 0.000000 0.697116
#
#
# Mechanical properties :
#
#
# Convention : Reuss Voigt Hill
#
# Bulk Modulus (GPa) = 71.53747 71.65573 71.59660
# Shear Modulus (GPa) = 5.71073 23.17106 14.44090
#
# Velocity S-wave (km/s) = 1.64598 3.31553 2.61744
# Velocity P-wave (km/s) = 6.12788 6.97507 6.56516
#
# Compressibility (1/GPa) = 0.01397869
#
# Stress axis : x y z
#
# Youngs Moduli (GPa) = 42.44236 71.13371 82.87290
#
# Poissons Ratio (x) = 0.77622 0.71283
# Poissons Ratio (y) = 0.46313 -0.13756
# Poissons Ratio (z) = 0.36507 -0.11808
#
# Static dielectric constant tensor:
#      x y z
#    x 1.786200 0.000000 0.000000 
#    y 0.000000 1.792940 0.000000 
#    z 0.000000 0.000000 1.682110 
# 
# From -- ./inp_files/22883.got.cif
#   From: 2010.05.17/outbox.cif.g08.bks.cpg/sg52_12_cif.got.tgz:22883.got - 2010.06.03 12:15:38.
