data_PCOD9411712
_publ_section_title
;
Structure prediction by ZEFSAII (Michael W. Deem and Ramdas Pophale) SiO2 
 PCOD9411712
Probable space group: P N N A
;
_chemical_formula_sum "Si O2"
_cell_formula_units_Z 36
_cell_length_a 5.534539
_cell_length_b 13.621140
_cell_length_c 19.910097
_cell_angle_alpha 90.000000
_cell_angle_beta 90.000000
_cell_angle_gamma 90.000000
_cell_volume 1500.957118
_symmetry_space_group_name_H-M "P N N A"
_symmetry_group_IT_number 52
_symmetry_cell_setting 'orthorhombic'
loop_
_space_group_symop_operation_xyz
x,y,z
1/2-x,-y,z
x,1/2-y,1/2-z
1/2-x,1/2+y,1/2-z
-x,-y,-z
1/2+x,y,-z
-x,1/2+y,1/2+z
1/2+x,1/2-y,1/2+z
loop_
_atom_site_type_symbol
_atom_site_label
_atom_site_fract_x
_atom_site_fract_y
_atom_site_fract_z
Si Si1 0.432730 0.928985 0.560638
Si Si2 0.478101 0.133060 0.768478
Si Si3 0.750000 0.000000 0.664572
Si Si4 0.520612 0.672058 0.687036
Si Si5 0.139066 0.211403 0.965768
O O1 0.642346 0.917578 0.614566
O O2 0.336005 0.829582 0.530280
O O3 0.250000 0.000000 0.599810
O O4 0.500000 0.000000 0.500000
O O5 0.458284 0.250000 0.750000
O O6 0.206988 0.107044 0.789872
O O7 0.708189 0.129729 0.819029
O O8 0.570232 0.062081 0.710255
O O9 0.542767 0.750000 0.750000
O O10 0.429505 0.700810 0.612776
O O11 0.403648 0.175827 0.991369
#
# Coordination Sequence:
#
# PCOD9411712 Si02
#       5
#     8   8   4   8   8
#     4  12  23  35  53  89 135 175 208 244 303 406
#     4  10  23  40  60  89 120 164 213 264 310 371
#     4  12  26  38  64  88 130 180 212 262 328 376
#     4  10  22  40  62  86 126 164 213 267 310 362
#     4  12  24  40  63  93 130 174 214 257 322 394
#
# _framework density 23.984694000000001
#
# number of rings (size 3 to 8) (size 9 to 14) (size 15 to 20)
#    0.000    0.889    3.333    4.000    9.333    0.000 
#    0.000    0.000    0.000    0.000    0.000   15.556 
#    0.000    0.000    0.000    0.000    0.000    0.000 
#
# Total GULP energy -200549.570793 kJ/mol
# GULP energy per Si atom -5570.821411 kJ/mol
# Density = 2.393010 g / cm^3
# Si number density = 23.984694 Si / 1000 Ang^3
#
#
#
# Elastic Constant Matrix: (Units=GPa)
#
#
# Indices 1 2 3 4 5 6 
#
# 1 109.2405 -20.9211 -8.3003 0.0000 0.0000 0.0000
# 2 -20.9211 27.4480 1.3481 0.0000 0.0000 0.0000
# 3 -8.3003 1.3481 103.5497 0.0000 0.0000 0.0000
# 4 0.0000 0.0000 0.0000 19.0680 0.0000 0.0000
# 5 0.0000 0.0000 0.0000 0.0000 36.5423 0.0000
# 6 0.0000 0.0000 0.0000 0.0000 0.0000 19.9061
#
#
#
# Elastic Compliance Matrix: (Units=1/GPa)
#
#
# Indices 1 2 3 4 5 6 
#
# 1 0.010778 0.008178 0.000757 0.000000 0.000000 0.000000
# 2 0.008178 0.042661 0.000100 0.000000 0.000000 0.000000
# 3 0.000757 0.000100 0.009717 0.000000 0.000000 0.000000
# 4 0.000000 0.000000 0.000000 0.052444 0.000000 0.000000
# 5 0.000000 0.000000 0.000000 0.000000 0.027366 0.000000
# 6 0.000000 0.000000 0.000000 0.000000 0.000000 0.050236
#
#
# Mechanical properties :
#
#
# Convention : Reuss Voigt Hill
#
# Bulk Modulus (GPa) = 12.31132 20.49905 16.40519
# Shear Modulus (GPa) = 24.72737 32.97740 28.85239
#
# Velocity S-wave (km/s) = 3.21435 3.71203 3.47212
# Velocity P-wave (km/s) = 4.34973 5.19014 4.78841
#
# Compressibility (1/GPa) = 0.08122603
#
# Stress axis : x y z
#
# Youngs Moduli (GPa) = 92.78304 23.44068 102.91657
#
# Poissons Ratio (x) = -0.19169 -0.07796
# Poissons Ratio (y) = -0.75876 -0.01030
# Poissons Ratio (z) = -0.07028 -0.00235
#
# Static dielectric constant tensor:
#      x y z
#    x -0.588090 0.000000 0.000000 
#    y 0.000000 1.909260 0.000000 
#    z 0.000000 0.000000 1.952410 
# 
# From -- ./inp_files/34954.got.cif
#   From: 2010.05.17/outbox.cif.g08.bks.cpg/sg52_18_cif.got.tgz:34954.got - 2010.06.03 12:15:38.
