data_PCOD9411122
_publ_section_title
;
Structure prediction by ZEFSAII (Michael W. Deem and Ramdas Pophale) SiO2 
 PCOD9411122
Probable space group: P N N A
;
_chemical_formula_sum "Si O2"
_cell_formula_units_Z 32
_cell_length_a 10.430747
_cell_length_b 8.982734
_cell_length_c 17.466215
_cell_angle_alpha 90.000000
_cell_angle_beta 90.000000
_cell_angle_gamma 90.000000
_cell_volume 1636.525410
_symmetry_space_group_name_H-M "P N N A"
_symmetry_group_IT_number 52
_symmetry_cell_setting 'orthorhombic'
loop_
_space_group_symop_operation_xyz
x,y,z
1/2-x,-y,z
x,1/2-y,1/2-z
1/2-x,1/2+y,1/2-z
-x,-y,-z
1/2+x,y,-z
-x,1/2+y,1/2+z
1/2+x,1/2-y,1/2+z
loop_
_atom_site_type_symbol
_atom_site_label
_atom_site_fract_x
_atom_site_fract_y
_atom_site_fract_z
Si Si1 0.111274 0.076531 0.225201
Si Si2 0.002457 0.747966 0.497031
Si Si3 0.610095 0.517391 0.399430
Si Si4 0.901131 0.508307 0.889411
O O1 0.131539 0.250000 0.250000
O O2 0.008631 0.049553 0.157800
O O3 0.250000 0.000000 0.207887
O O4 0.050217 0.007848 0.302641
O O5 0.920609 0.627628 0.450413
O O6 0.111243 0.654447 0.540767
O O7 0.051858 0.868110 0.437034
O O8 0.933333 0.843597 0.562935
O O9 0.750000 0.500000 0.362325
O O10 0.750000 0.500000 0.881771
#
# Coordination Sequence:
#
# PCOD9411122 Si02
#       4
#     8   8   8   8
#     4  11  25  44  67  93 127 171 216 262 315 386
#     4  10  22  40  64  93 126 167 211 261 319 378
#     4  11  24  42  65  96 130 167 211 266 320 375
#     4  10  21  40  64  90 123 166 216 260 311 380
#
# _framework density 19.553622000000001
#
# number of rings (size 3 to 8) (size 9 to 14) (size 15 to 20)
#    0.000    1.500    2.500    1.500    7.000    4.000 
#    4.500    1.250    0.000    0.000    0.000    0.000 
#    0.000    0.000    0.000    0.000    0.000    0.000 
#
# Total GULP energy -178491.433824 kJ/mol
# GULP energy per Si atom -5577.857307 kJ/mol
# Density = 1.950912 g / cm^3
# Si number density = 19.553622 Si / 1000 Ang^3
#
#
#
# Elastic Constant Matrix: (Units=GPa)
#
#
# Indices 1 2 3 4 5 6 
#
# 1 100.4906 43.1190 41.0233 0.0000 0.0000 0.0000
# 2 43.1190 122.2281 41.2687 0.0000 0.0000 0.0000
# 3 41.0233 41.2687 104.1930 0.0000 0.0000 0.0000
# 4 0.0000 0.0000 0.0000 17.4864 0.0000 0.0000
# 5 0.0000 0.0000 0.0000 0.0000 30.1883 0.0000
# 6 0.0000 0.0000 0.0000 0.0000 0.0000 3.0513
#
#
#
# Elastic Compliance Matrix: (Units=1/GPa)
#
#
# Indices 1 2 3 4 5 6 
#
# 1 0.012900 -0.003274 -0.003782 0.000000 0.000000 0.000000
# 2 -0.003274 0.010275 -0.002781 0.000000 0.000000 0.000000
# 3 -0.003782 -0.002781 0.012188 0.000000 0.000000 0.000000
# 4 0.000000 0.000000 0.000000 0.057187 0.000000 0.000000
# 5 0.000000 0.000000 0.000000 0.000000 0.033125 0.000000
# 6 0.000000 0.000000 0.000000 0.000000 0.000000 0.327732
#
#
# Mechanical properties :
#
#
# Convention : Reuss Voigt Hill
#
# Bulk Modulus (GPa) = 63.73685 64.19263 63.96474
# Shear Modulus (GPa) = 10.45342 23.57856 17.01599
#
# Velocity S-wave (km/s) = 2.31466 3.47629 2.95315
# Velocity P-wave (km/s) = 6.30953 7.00093 6.66421
#
# Compressibility (1/GPa) = 0.01568951
#
# Stress axis : x y z
#
# Youngs Moduli (GPa) = 77.51955 97.32146 82.04635
#
# Poissons Ratio (x) = 0.31860 0.31033
# Poissons Ratio (y) = 0.25378 0.22816
# Poissons Ratio (z) = 0.29321 0.27064
#
# Static dielectric constant tensor:
#      x y z
#    x 1.670580 0.000000 0.000000 
#    y 0.000000 1.717110 0.000000 
#    z 0.000000 0.000000 1.706550 
# 
# From -- ./inp_files/25461.got.cif
#   From: 2010.05.17/outbox.cif.g08.bks.cpg/sg52_13_cif.got.tgz:25461.got - 2010.06.03 12:15:38.
