data_PCOD9411875
_publ_section_title
;
Structure prediction by ZEFSAII (Michael W. Deem and Ramdas Pophale) SiO2 
 PCOD9411875
Probable space group: P N N A
;
_chemical_formula_sum "Si O2"
_cell_formula_units_Z 32
_cell_length_a 28.379035
_cell_length_b 9.491104
_cell_length_c 5.104758
_cell_angle_alpha 90.000000
_cell_angle_beta 90.000000
_cell_angle_gamma 90.000000
_cell_volume 1374.958260
_symmetry_space_group_name_H-M "P N N A"
_symmetry_group_IT_number 52
_symmetry_cell_setting 'orthorhombic'
loop_
_space_group_symop_operation_xyz
x,y,z
1/2-x,-y,z
x,1/2-y,1/2-z
1/2-x,1/2+y,1/2-z
-x,-y,-z
1/2+x,y,-z
-x,1/2+y,1/2+z
1/2+x,1/2-y,1/2+z
loop_
_atom_site_type_symbol
_atom_site_label
_atom_site_fract_x
_atom_site_fract_y
_atom_site_fract_z
Si Si1 0.210963 0.898441 0.128300
Si Si2 0.646048 0.396598 0.887815
Si Si3 0.014938 0.909719 0.750287
Si Si4 0.882877 0.472769 0.394444
O O1 0.226131 0.750000 0.250000
O O2 0.250000 0.000000 0.999338
O O3 0.190376 0.999109 0.357327
O O4 0.164444 0.882057 0.946617
O O5 0.657819 0.250000 0.750000
O O6 0.629915 0.406248 0.184518
O O7 0.608066 0.036437 0.815961
O O8 0.995867 0.750000 0.750000
O O9 0.071626 0.900622 0.777508
O O10 0.000000 0.000000 0.500000
O O11 0.000000 0.000000 0.000000
#
# Coordination Sequence:
#
# PCOD9411875 Si02
#       4
#     8   8   8   8
#     4  10  24  43  71 106 147 193 252 301 365 436
#     4  10  22  41  68 103 137 186 239 298 362 428
#     4  12  28  48  77 113 152 195 253 314 388 458
#     4  10  25  42  74 100 147 190 237 300 369 445
#
# _framework density 23.273432
#
# number of rings (size 3 to 8) (size 9 to 14) (size 15 to 20)
#    1.500    0.000    0.000    3.750    3.500    7.000 
#    0.000    0.000    0.000    0.000    0.000    0.000 
#    0.000    0.000    0.000    0.000    0.000    0.000 
#
# Total GULP energy -178359.229940 kJ/mol
# GULP energy per Si atom -5573.725936 kJ/mol
# Density = 2.322046 g / cm^3
# Si number density = 23.273432 Si / 1000 Ang^3
#
#
#
# Elastic Constant Matrix: (Units=GPa)
#
#
# Indices 1 2 3 4 5 6 
#
# 1 113.5434 41.8455 25.5775 0.0000 0.0000 0.0000
# 2 41.8455 185.3376 42.8870 0.0000 0.0000 0.0000
# 3 25.5775 42.8870 137.6912 0.0000 0.0000 0.0000
# 4 0.0000 0.0000 0.0000 22.6333 0.0000 0.0000
# 5 0.0000 0.0000 0.0000 0.0000 14.1847 0.0000
# 6 0.0000 0.0000 0.0000 0.0000 0.0000 15.5089
#
#
#
# Elastic Compliance Matrix: (Units=1/GPa)
#
#
# Indices 1 2 3 4 5 6 
#
# 1 0.009793 -0.001929 -0.001218 0.000000 0.000000 0.000000
# 2 -0.001929 0.006195 -0.001571 0.000000 0.000000 0.000000
# 3 -0.001218 -0.001571 0.007978 0.000000 0.000000 0.000000
# 4 0.000000 0.000000 0.000000 0.044183 0.000000 0.000000
# 5 0.000000 0.000000 0.000000 0.000000 0.070498 0.000000
# 6 0.000000 0.000000 0.000000 0.000000 0.000000 0.064479
#
#
# Mechanical properties :
#
#
# Convention : Reuss Voigt Hill
#
# Bulk Modulus (GPa) = 68.82926 73.02134 70.92530
# Shear Modulus (GPa) = 22.99848 32.21618 27.60733
#
# Velocity S-wave (km/s) = 3.14695 3.72458 3.44789
# Velocity P-wave (km/s) = 6.54544 7.06684 6.81113
#
# Compressibility (1/GPa) = 0.01452871
#
# Stress axis : x y z
#
# Youngs Moduli (GPa) = 102.11820 161.42942 125.34018
#
# Poissons Ratio (x) = 0.31141 0.15269
# Poissons Ratio (y) = 0.19699 0.19692
# Poissons Ratio (z) = 0.12440 0.25362
#
# Static dielectric constant tensor:
#      x y z
#    x 1.999160 0.000000 0.000000 
#    y 0.000000 1.903530 0.000000 
#    z 0.000000 0.000000 1.720850 
# 
# From -- ./inp_files/6226.got.cif
#   From: 2010.05.17/outbox.cif.g08.bks.cpg/sg52_4_cif.got.tgz:6226.got - 2010.06.03 12:15:38.
