data_PCOD9411118
_publ_section_title
;
Structure prediction by ZEFSAII (Michael W. Deem and Ramdas Pophale) SiO2 
 PCOD9411118
Probable space group: P N N A
;
_chemical_formula_sum "Si O2"
_cell_formula_units_Z 24
_cell_length_a 9.819559
_cell_length_b 13.530518
_cell_length_c 6.968341
_cell_angle_alpha 90.000000
_cell_angle_beta 90.000000
_cell_angle_gamma 90.000000
_cell_volume 925.839706
_symmetry_space_group_name_H-M "P N N A"
_symmetry_group_IT_number 52
_symmetry_cell_setting 'orthorhombic'
loop_
_space_group_symop_operation_xyz
x,y,z
1/2-x,-y,z
x,1/2-y,1/2-z
1/2-x,1/2+y,1/2-z
-x,-y,-z
1/2+x,y,-z
-x,1/2+y,1/2+z
1/2+x,1/2-y,1/2+z
loop_
_atom_site_type_symbol
_atom_site_label
_atom_site_fract_x
_atom_site_fract_y
_atom_site_fract_z
Si Si1 0.224018 0.388968 0.392184
Si Si2 0.020921 0.767210 0.981456
Si Si3 0.370737 0.929867 0.533353
O O1 0.250000 0.500000 0.453927
O O2 0.338351 0.309668 0.442016
O O3 0.200717 0.395445 0.164463
O O4 0.086307 0.355348 0.490829
O O5 0.038858 0.750000 0.750000
O O6 0.950011 0.672987 0.084284
O O7 0.250000 0.000000 0.624749
O O8 0.500000 0.000000 0.500000
#
# Coordination Sequence:
#
# PCOD9411118 Si02
#       3
#     8   8   8
#     4  10  21  40  64  95 134 180 231 289 352 418
#     4  10  21  40  63  94 134 180 232 287 350 420
#     4  10  21  40  67 101 139 182 233 292 355 422
#
# _framework density 25.922412999999999
#
# number of rings (size 3 to 8) (size 9 to 14) (size 15 to 20)
#    0.000    2.000    0.000    3.000    0.000    2.667 
#    0.000   38.333    0.000    0.000    0.000    0.000 
#    0.000    0.000    0.000    0.000    0.000    0.000 
#
# Total GULP energy -134160.969845 kJ/mol
# GULP energy per Si atom -5590.040410 kJ/mol
# Density = 2.586341 g / cm^3
# Si number density = 25.922413 Si / 1000 Ang^3
#
#
#
# Elastic Constant Matrix: (Units=GPa)
#
#
# Indices 1 2 3 4 5 6 
#
# 1 161.2430 39.3957 36.3463 0.0000 0.0000 0.0000
# 2 39.3957 164.1720 34.9963 0.0000 0.0000 0.0000
# 3 36.3463 34.9963 126.3010 0.0000 0.0000 0.0000
# 4 0.0000 0.0000 0.0000 13.9479 0.0000 0.0000
# 5 0.0000 0.0000 0.0000 0.0000 26.7908 0.0000
# 6 0.0000 0.0000 0.0000 0.0000 0.0000 56.2693
#
#
#
# Elastic Compliance Matrix: (Units=1/GPa)
#
#
# Indices 1 2 3 4 5 6 
#
# 1 0.006886 -0.001307 -0.001619 0.000000 0.000000 0.000000
# 2 -0.001307 0.006722 -0.001486 0.000000 0.000000 0.000000
# 3 -0.001619 -0.001486 0.008795 0.000000 0.000000 0.000000
# 4 0.000000 0.000000 0.000000 0.071695 0.000000 0.000000
# 5 0.000000 0.000000 0.000000 0.000000 0.037326 0.000000
# 6 0.000000 0.000000 0.000000 0.000000 0.000000 0.017772
#
#
# Mechanical properties :
#
#
# Convention : Reuss Voigt Hill
#
# Bulk Modulus (GPa) = 73.65182 74.79915 74.22549
# Shear Modulus (GPa) = 30.76002 42.13345 36.44674
#
# Velocity S-wave (km/s) = 3.44847 4.03596 3.75373
# Velocity P-wave (km/s) = 6.65808 7.11592 6.89080
#
# Compressibility (1/GPa) = 0.01357740
#
# Stress axis : x y z
#
# Youngs Moduli (GPa) = 145.21661 148.77195 113.69485
#
# Poissons Ratio (x) = 0.19448 0.18413
# Poissons Ratio (y) = 0.18983 0.16898
# Poissons Ratio (z) = 0.23517 0.22112
#
# Static dielectric constant tensor:
#      x y z
#    x 1.968680 0.000000 0.000000 
#    y 0.000000 2.062110 0.000000 
#    z 0.000000 0.000000 2.124960 
# 
# From -- ./inp_files/6963.got.cif
#   From: 2010.05.17/outbox.cif.g08.bks.cpg/sg52_4_cif.got.tgz:6963.got - 2010.06.03 12:15:38.
