data_PCOD9411819
_publ_section_title
;
Structure prediction by ZEFSAII (Michael W. Deem and Ramdas Pophale) SiO2 
 PCOD9411819
Probable space group: P N N A
;
_chemical_formula_sum "Si O2"
_cell_formula_units_Z 36
_cell_length_a 12.358291
_cell_length_b 10.979478
_cell_length_c 11.903655
_cell_angle_alpha 90.000000
_cell_angle_beta 90.000000
_cell_angle_gamma 90.000000
_cell_volume 1615.178190
_symmetry_space_group_name_H-M "P N N A"
_symmetry_group_IT_number 52
_symmetry_cell_setting 'orthorhombic'
loop_
_space_group_symop_operation_xyz
x,y,z
1/2-x,-y,z
x,1/2-y,1/2-z
1/2-x,1/2+y,1/2-z
-x,-y,-z
1/2+x,y,-z
-x,1/2+y,1/2+z
1/2+x,1/2-y,1/2+z
loop_
_atom_site_type_symbol
_atom_site_label
_atom_site_fract_x
_atom_site_fract_y
_atom_site_fract_z
Si Si1 0.958657 0.538165 0.876398
Si Si2 0.371220 0.695662 0.400672
Si Si3 0.750000 0.500000 0.746766
Si Si4 0.417548 0.059568 0.840652
Si Si5 0.700490 0.188289 0.135506
O O1 0.922411 0.678555 0.856875
O O2 0.853003 0.468908 0.826316
O O3 0.055229 0.525975 0.787702
O O4 0.000000 0.500000 0.000000
O O5 0.282597 0.615543 0.332362
O O6 0.474023 0.604157 0.400842
O O7 0.321827 0.748278 0.516566
O O8 0.326763 0.162056 0.850220
O O9 0.361689 0.938329 0.885038
O O10 0.660922 0.250000 0.250000
#
# Coordination Sequence:
#
# PCOD9411819 Si02
#       5
#     8   8   4   8   8
#     4  11  24  43  67  96 132 173 226 286 344 410
#     4  11  23  43  64  91 131 174 220 276 343 422
#     4  10  22  42  66  94 130 180 224 270 348 428
#     4  10  22  41  61  89 127 167 211 269 340 408
#     4  11  22  38  64  94 124 164 219 277 337 406
#
# _framework density 22.288561999999999
#
# number of rings (size 3 to 8) (size 9 to 14) (size 15 to 20)
#    0.000    1.333    0.000    7.333    0.000    7.111 
#    0.000   15.556    0.000    0.000    0.000    0.000 
#    0.000    0.000    0.000    0.000    0.000    0.000 
#
# Total GULP energy -200684.904272 kJ/mol
# GULP energy per Si atom -5574.580674 kJ/mol
# Density = 2.223783 g / cm^3
# Si number density = 22.288562 Si / 1000 Ang^3
#
#
#
# Elastic Constant Matrix: (Units=GPa)
#
#
# Indices 1 2 3 4 5 6 
#
# 1 107.6775 25.1750 51.7448 0.0000 0.0000 0.0000
# 2 25.1750 60.4130 5.2439 0.0000 0.0000 0.0000
# 3 51.7448 5.2439 132.6539 0.0000 0.0000 0.0000
# 4 0.0000 0.0000 0.0000 31.5761 0.0000 0.0000
# 5 0.0000 0.0000 0.0000 0.0000 6.4110 0.0000
# 6 0.0000 0.0000 0.0000 0.0000 0.0000 12.6835
#
#
#
# Elastic Compliance Matrix: (Units=1/GPa)
#
#
# Indices 1 2 3 4 5 6 
#
# 1 0.012721 -0.004887 -0.004769 0.000000 0.000000 0.000000
# 2 -0.004887 0.018487 0.001176 0.000000 0.000000 0.000000
# 3 -0.004769 0.001176 0.009352 0.000000 0.000000 0.000000
# 4 0.000000 0.000000 0.000000 0.031670 0.000000 0.000000
# 5 0.000000 0.000000 0.000000 0.000000 0.155982 0.000000
# 6 0.000000 0.000000 0.000000 0.000000 0.000000 0.078843
#
#
# Mechanical properties :
#
#
# Convention : Reuss Voigt Hill
#
# Bulk Modulus (GPa) = 42.37396 51.67466 47.02431
# Shear Modulus (GPa) = 15.06554 24.70615 19.88584
#
# Velocity S-wave (km/s) = 2.60269 3.33298 2.99021
# Velocity P-wave (km/s) = 5.29951 6.16817 5.75027
#
# Compressibility (1/GPa) = 0.02359940
#
# Stress axis : x y z
#
# Youngs Moduli (GPa) = 78.60744 54.09124 106.92616
#
# Poissons Ratio (x) = 0.26436 0.50994
# Poissons Ratio (y) = 0.38417 -0.12570
# Poissons Ratio (z) = 0.37489 -0.06359
#
# Static dielectric constant tensor:
#      x y z
#    x 1.796240 0.000000 0.000000 
#    y 0.000000 2.423600 0.000000 
#    z 0.000000 0.000000 2.019490 
# 
# From -- ./inp_files/17758.got.cif
#   From: 2010.05.17/outbox.cif.g08.bks.cpg/sg52_9_cif.got.tgz:17758.got - 2010.06.03 12:15:38.
