data_PCOD9411290
_publ_section_title
;
Structure prediction by ZEFSAII (Michael W. Deem and Ramdas Pophale) SiO2 
 PCOD9411290
Probable space group: P N N A
;
_chemical_formula_sum "Si O2"
_cell_formula_units_Z 48
_cell_length_a 9.704715
_cell_length_b 16.288209
_cell_length_c 13.566302
_cell_angle_alpha 90.000000
_cell_angle_beta 90.000000
_cell_angle_gamma 90.000000
_cell_volume 2144.458272
_symmetry_space_group_name_H-M "P N N A"
_symmetry_group_IT_number 52
_symmetry_cell_setting 'orthorhombic'
loop_
_space_group_symop_operation_xyz
x,y,z
1/2-x,-y,z
x,1/2-y,1/2-z
1/2-x,1/2+y,1/2-z
-x,-y,-z
1/2+x,y,-z
-x,1/2+y,1/2+z
1/2+x,1/2-y,1/2+z
loop_
_atom_site_type_symbol
_atom_site_label
_atom_site_fract_x
_atom_site_fract_y
_atom_site_fract_z
Si Si1 0.549546 0.764559 0.450098
Si Si2 0.180323 0.151362 0.947457
Si Si3 0.621928 0.250000 0.750000
Si Si4 0.250657 0.393873 0.345760
Si Si5 0.118068 0.558370 0.038466
Si Si6 0.750000 0.500000 0.304197
Si Si7 0.455102 0.014206 0.250547
O O1 0.444774 0.715665 0.525747
O O2 0.682686 0.706907 0.439043
O O3 0.476643 0.776852 0.342313
O O4 0.602807 0.852389 0.490189
O O5 0.189322 0.097110 0.046778
O O6 0.202767 0.081788 0.863506
O O7 0.730845 0.302700 0.687304
O O8 0.404441 0.427681 0.339234
O O9 0.147185 0.438651 0.269169
O O10 0.250000 0.500000 0.023665
O O11 0.089107 0.565160 0.154709
O O12 0.000000 0.500000 0.000000
O O13 0.610102 0.516646 0.244666
#
# Coordination Sequence:
#
# PCOD9411290 Si02
#       7
#     8   8   4   8   8   4   8
#     4  11  25  45  70 106 138 188 235 299 363 428
#     4  11  24  43  70 104 140 183 234 293 358 428
#     4  10  22  42  72  94 144 176 230 292 364 424
#     4  10  21  41  70  95 130 186 231 275 349 429
#     4  12  26  46  73 100 141 186 238 294 357 432
#     4  12  24  44  66 104 148 178 228 300 360 420
#     4  11  24  42  67 100 133 181 231 278 348 423
#
# _framework density 22.383274
#
# number of rings (size 3 to 8) (size 9 to 14) (size 15 to 20)
#    0.000    1.000    1.667    6.000    5.833    2.000 
#    6.000    0.000    0.000    0.000    0.000    0.000 
#    0.000    0.000    0.000    0.000    0.000    0.000 
#
# Total GULP energy -267232.341935 kJ/mol
# GULP energy per Si atom -5567.340457 kJ/mol
# Density = 2.233233 g / cm^3
# Si number density = 22.383274 Si / 1000 Ang^3
#
#
#
# Elastic Constant Matrix: (Units=GPa)
#
#
# Indices 1 2 3 4 5 6 
#
# 1 161.0259 38.9497 6.4471 0.0000 0.0000 0.0000
# 2 38.9497 86.8637 12.3482 0.0000 0.0000 0.0000
# 3 6.4471 12.3482 37.3893 0.0000 0.0000 0.0000
# 4 0.0000 0.0000 0.0000 32.0775 0.0000 0.0000
# 5 0.0000 0.0000 0.0000 0.0000 24.1697 0.0000
# 6 0.0000 0.0000 0.0000 0.0000 0.0000 28.8848
#
#
#
# Elastic Compliance Matrix: (Units=1/GPa)
#
#
# Indices 1 2 3 4 5 6 
#
# 1 0.006967 -0.003099 -0.000178 0.000000 0.000000 0.000000
# 2 -0.003099 0.013458 -0.003910 0.000000 0.000000 0.000000
# 3 -0.000178 -0.003910 0.028068 0.000000 0.000000 0.000000
# 4 0.000000 0.000000 0.000000 0.031175 0.000000 0.000000
# 5 0.000000 0.000000 0.000000 0.000000 0.041374 0.000000
# 6 0.000000 0.000000 0.000000 0.000000 0.000000 0.034620
#
#
# Mechanical properties :
#
#
# Convention : Reuss Voigt Hill
#
# Bulk Modulus (GPa) = 29.30959 44.52988 36.91973
# Shear Modulus (GPa) = 27.56228 32.19533 29.87881
#
# Velocity S-wave (km/s) = 3.51291 3.79669 3.65755
# Velocity P-wave (km/s) = 5.43846 6.25758 5.86234
#
# Compressibility (1/GPa) = 0.03411853
#
# Stress axis : x y z
#
# Youngs Moduli (GPa) = 143.53759 74.30762 35.62818
#
# Poissons Ratio (x) = 0.23025 0.00634
# Poissons Ratio (y) = 0.44477 0.13931
# Poissons Ratio (z) = 0.02554 0.29056
#
# Static dielectric constant tensor:
#      x y z
#    x 1.925990 0.000000 0.000000 
#    y 0.000000 1.907050 0.000000 
#    z 0.000000 0.000000 2.582740 
# 
# From -- ./inp_files/24754.got.cif
#   From: 2010.05.17/outbox.cif.g08.bks.cpg/sg52_13_cif.got.tgz:24754.got - 2010.06.03 12:15:38.
