data_PCOD9411578
_publ_section_title
;
Structure prediction by ZEFSAII (Michael W. Deem and Ramdas Pophale) SiO2 
 PCOD9411578
Probable space group: P N N A
;
_chemical_formula_sum "Si O2"
_cell_formula_units_Z 20
_cell_length_a 5.387793
_cell_length_b 13.069444
_cell_length_c 11.399100
_cell_angle_alpha 90.000000
_cell_angle_beta 90.000000
_cell_angle_gamma 90.000000
_cell_volume 802.672858
_symmetry_space_group_name_H-M "P N N A"
_symmetry_group_IT_number 52
_symmetry_cell_setting 'orthorhombic'
loop_
_space_group_symop_operation_xyz
x,y,z
1/2-x,-y,z
x,1/2-y,1/2-z
1/2-x,1/2+y,1/2-z
-x,-y,-z
1/2+x,y,-z
-x,1/2+y,1/2+z
1/2+x,1/2-y,1/2+z
loop_
_atom_site_type_symbol
_atom_site_label
_atom_site_fract_x
_atom_site_fract_y
_atom_site_fract_z
Si Si1 0.504848 0.032574 0.798766
Si Si2 0.782715 0.750000 0.750000
Si Si3 0.973915 0.122487 0.576053
O O1 0.543317 0.151392 0.768526
O O2 0.750000 0.000000 0.867057
O O3 0.514523 0.961759 0.680034
O O4 0.250000 0.000000 0.855439
O O5 0.596477 0.772781 0.642667
O O6 0.733570 0.114163 0.491393
#
# Coordination Sequence:
#
# PCOD9411578 Si02
#       3
#     8   4   8
#     4  10  22  38  61  91 128 163 206 260 315 368
#     4  10  24  40  64  96 132 166 208 268 324 372
#     4  11  24  42  67  97 126 164 216 267 315 375
#
# _framework density 24.916753
#
# number of rings (size 3 to 8) (size 9 to 14) (size 15 to 20)
#    0.000    1.600    0.000    4.800    0.000   35.200 
#    0.000    0.000    0.000   31.200    0.000    0.000 
#    0.000    0.000    0.000    0.000    0.000    0.000 
#
# Total GULP energy -111757.917153 kJ/mol
# GULP energy per Si atom -5587.895858 kJ/mol
# Density = 2.486004 g / cm^3
# Si number density = 24.916753 Si / 1000 Ang^3
#
#
#
# Elastic Constant Matrix: (Units=GPa)
#
#
# Indices 1 2 3 4 5 6 
#
# 1 233.1454 44.6747 40.9180 0.0000 0.0000 0.0000
# 2 44.6747 141.1129 19.7010 0.0000 0.0000 0.0000
# 3 40.9180 19.7010 106.8682 0.0000 0.0000 0.0000
# 4 0.0000 0.0000 0.0000 45.9994 0.0000 0.0000
# 5 0.0000 0.0000 0.0000 0.0000 7.9390 0.0000
# 6 0.0000 0.0000 0.0000 0.0000 0.0000 35.0791
#
#
#
# Elastic Compliance Matrix: (Units=1/GPa)
#
#
# Indices 1 2 3 4 5 6 
#
# 1 0.004820 -0.001302 -0.001606 0.000000 0.000000 0.000000
# 2 -0.001302 0.007625 -0.000907 0.000000 0.000000 0.000000
# 3 -0.001606 -0.000907 0.010139 0.000000 0.000000 0.000000
# 4 0.000000 0.000000 0.000000 0.021739 0.000000 0.000000
# 5 0.000000 0.000000 0.000000 0.000000 0.125961 0.000000
# 6 0.000000 0.000000 0.000000 0.000000 0.000000 0.028507
#
#
# Mechanical properties :
#
#
# Convention : Reuss Voigt Hill
#
# Bulk Modulus (GPa) = 66.86499 76.85708 71.86103
# Shear Modulus (GPa) = 23.65106 42.85903 33.25504
#
# Velocity S-wave (km/s) = 3.08426 4.15189 3.65724
# Velocity P-wave (km/s) = 6.29104 7.34144 6.83644
#
# Compressibility (1/GPa) = 0.01495551
#
# Stress axis : x y z
#
# Youngs Moduli (GPa) = 207.44991 131.14131 98.62569
#
# Poissons Ratio (x) = 0.17074 0.15836
# Poissons Ratio (y) = 0.27008 0.08948
# Poissons Ratio (z) = 0.33309 0.11898
#
# Static dielectric constant tensor:
#      x y z
#    x 2.082640 0.000000 0.000000 
#    y 0.000000 2.004580 0.000000 
#    z 0.000000 0.000000 1.991510 
# 
# From -- ./inp_files/23278.got.cif
#   From: 2010.05.17/outbox.cif.g08.bks.cpg/sg52_12_cif.got.tgz:23278.got - 2010.06.03 12:15:38.
