data_PCOD9411491
_publ_section_title
;
Structure prediction by ZEFSAII (Michael W. Deem and Ramdas Pophale) SiO2 
 PCOD9411491
Probable space group: P N N A
;
_chemical_formula_sum "Si O2"
_cell_formula_units_Z 64
_cell_length_a 25.470054
_cell_length_b 5.296169
_cell_length_c 22.019327
_cell_angle_alpha 90.000000
_cell_angle_beta 90.000000
_cell_angle_gamma 90.000000
_cell_volume 2970.268720
_symmetry_space_group_name_H-M "P N N A"
_symmetry_group_IT_number 52
_symmetry_cell_setting 'orthorhombic'
loop_
_space_group_symop_operation_xyz
x,y,z
1/2-x,-y,z
x,1/2-y,1/2-z
1/2-x,1/2+y,1/2-z
-x,-y,-z
1/2+x,y,-z
-x,1/2+y,1/2+z
1/2+x,1/2-y,1/2+z
loop_
_atom_site_type_symbol
_atom_site_label
_atom_site_fract_x
_atom_site_fract_y
_atom_site_fract_z
Si Si1 0.042919 0.740607 0.321650
Si Si2 0.110464 0.732886 0.066898
Si Si3 0.442368 0.107494 0.812877
Si Si4 0.188037 0.777896 0.527969
Si Si5 0.327536 0.516047 0.711354
Si Si6 0.694454 0.208698 0.079857
Si Si7 0.470772 0.049775 0.594315
Si Si8 0.944441 0.729417 0.514067
O O1 0.053988 0.750000 0.250000
O O2 0.095024 0.718840 0.362943
O O3 0.996286 0.534586 0.327870
O O4 0.012993 0.974137 0.353835
O O5 0.086787 0.467481 0.043355
O O6 0.080466 0.967434 0.034879
O O7 0.170084 0.705367 0.041945
O O8 0.451242 0.250000 0.750000
O O9 0.389838 0.948807 0.801418
O O10 0.428672 0.299683 0.866847
O O11 0.249172 0.745976 0.546055
O O12 0.163457 0.510350 0.546169
O O13 0.170085 0.016315 0.568393
O O14 0.321250 0.250000 0.750000
O O15 0.302152 0.586513 0.646342
O O16 0.307510 0.750000 0.750000
O O17 0.498737 0.233592 0.546005
O O18 0.451773 0.807820 0.556296
#
# Coordination Sequence:
#
# PCOD9411491 Si02
#       8
#     8   8   8   8   8   8   8   8
#     4  11  22  37  59  85 128 175 217 259 312 379
#     4  11  23  40  60  93 125 160 211 271 322 385
#     4  11  22  37  57  83 125 177 224 258 307 371
#     4  10  22  41  66  96 117 155 204 263 336 396
#     4  11  25  42  63  94 127 166 220 272 313 373
#     4  10  22  44  69  92 122 159 208 263 339 393
#     4  10  22  36  55  82 122 171 220 259 306 371
#     4  10  23  37  56  89 122 164 211 266 318 360
#
# _framework density 21.546872
#
# number of rings (size 3 to 8) (size 9 to 14) (size 15 to 20)
#    0.000    1.500    2.500    1.875    5.250    2.500 
#    0.000    5.000    0.000    0.000    0.000    3.500 
#    0.000    0.000    0.000    0.000    0.000    0.000 
#
# Total GULP energy -356469.709347 kJ/mol
# GULP energy per Si atom -5569.839209 kJ/mol
# Density = 2.149783 g / cm^3
# Si number density = 21.546872 Si / 1000 Ang^3
#
#
#
# Elastic Constant Matrix: (Units=GPa)
#
#
# Indices 1 2 3 4 5 6 
#
# 1 60.6243 12.3968 55.0705 0.0000 0.0000 0.0000
# 2 12.3968 123.3595 24.4702 0.0000 0.0000 0.0000
# 3 55.0705 24.4702 167.4308 0.0000 0.0000 0.0000
# 4 0.0000 0.0000 0.0000 22.2770 0.0000 0.0000
# 5 0.0000 0.0000 0.0000 0.0000 36.2303 0.0000
# 6 0.0000 0.0000 0.0000 0.0000 0.0000 -8.2141
#
#
#
# Elastic Compliance Matrix: (Units=1/GPa)
#
#
# Indices 1 2 3 4 5 6 
#
# 1 0.023611 -0.000857 -0.007641 0.000000 0.000000 0.000000
# 2 -0.000857 0.008380 -0.000943 0.000000 0.000000 0.000000
# 3 -0.007641 -0.000943 0.008624 0.000000 0.000000 0.000000
# 4 0.000000 0.000000 0.000000 0.044889 0.000000 0.000000
# 5 0.000000 0.000000 0.000000 0.000000 0.027601 0.000000
# 6 0.000000 0.000000 0.000000 0.000000 0.000000 -0.121742
#
#
# Mechanical properties :
#
#
# Convention : Reuss Voigt Hill
#
# Bulk Modulus (GPa) = 46.01312 59.47661 52.74487
# Shear Modulus (GPa) = 285.91355 27.35713 156.63534
#
# Velocity S-wave (km/s) = 11.53177 3.56709 8.53540
# Velocity P-wave (km/s) = 14.09647 6.68048 11.03039
#
# Compressibility (1/GPa) = 0.02173293
#
# Stress axis : x y z
#
# Youngs Moduli (GPa) = 42.35293 119.33838 115.96122
#
# Poissons Ratio (x) = 0.10228 0.88603
# Poissons Ratio (y) = 0.03630 0.10932
# Poissons Ratio (z) = 0.32361 0.11251
#
# Static dielectric constant tensor:
#      x y z
#    x 2.069270 0.000000 0.000000 
#    y 0.000000 1.980850 0.000000 
#    z 0.000000 0.000000 1.884900 
# 
# From -- ./inp_files/38274.got.cif
#   From: 2010.05.17/outbox.cif.g08.bks.cpg/sg52_20_cif.got.tgz:38274.got - 2010.06.03 12:15:38.
