data_PCOD9411744
_publ_section_title
;
Structure prediction by ZEFSAII (Michael W. Deem and Ramdas Pophale) SiO2 
 PCOD9411744
Probable space group: P N N A
;
_chemical_formula_sum "Si O2"
_cell_formula_units_Z 44
_cell_length_a 9.589349
_cell_length_b 13.096133
_cell_length_c 17.349989
_cell_angle_alpha 90.000000
_cell_angle_beta 90.000000
_cell_angle_gamma 90.000000
_cell_volume 2178.870433
_symmetry_space_group_name_H-M "P N N A"
_symmetry_group_IT_number 52
_symmetry_cell_setting 'orthorhombic'
loop_
_space_group_symop_operation_xyz
x,y,z
1/2-x,-y,z
x,1/2-y,1/2-z
1/2-x,1/2+y,1/2-z
-x,-y,-z
1/2+x,y,-z
-x,1/2+y,1/2+z
1/2+x,1/2-y,1/2+z
loop_
_atom_site_type_symbol
_atom_site_label
_atom_site_fract_x
_atom_site_fract_y
_atom_site_fract_z
Si Si1 0.090116 0.472652 0.219690
Si Si2 0.063136 0.688271 0.584421
Si Si3 0.405135 0.531779 0.640479
Si Si4 0.142834 0.234010 0.960318
Si Si5 0.410645 0.963142 0.573348
Si Si6 0.502238 0.750000 0.250000
O O1 0.250000 0.500000 0.205614
O O2 0.083968 0.352691 0.238873
O O3 0.018797 0.530977 0.291939
O O4 0.990533 0.493841 0.147460
O O5 0.061199 0.565671 0.586796
O O6 0.190854 0.729003 0.534658
O O7 0.923180 0.725491 0.544746
O O8 0.085532 0.729304 0.671104
O O9 0.250000 0.500000 0.671513
O O10 0.397941 0.636285 0.592526
O O11 0.094434 0.340348 0.924439
O O12 0.250000 0.000000 0.569229
O O13 0.500000 0.000000 0.500000
#
# Coordination Sequence:
#
# PCOD9411744 Si02
#       6
#     8   8   8   8   8   4
#     4  11  24  40  62  91 120 157 205 253 304 365
#     4  10  22  40  65  92 122 162 205 248 305 366
#     4   9  21  40  62  91 123 159 199 245 304 370
#     4  11  22  38  64  92 123 158 199 255 307 357
#     4  12  25  41  60  87 121 161 208 253 304 370
#     4  10  22  44  64  84 126 168 198 248 310 362
#
# _framework density 20.193950999999998
#
# number of rings (size 3 to 8) (size 9 to 14) (size 15 to 20)
#    0.000    1.455    0.000    4.909    0.000    9.455 
#    0.000    0.909    0.000    1.091    0.000    0.000 
#    0.000    0.000    0.000    0.000    0.000    0.000 
#
# Total GULP energy -245783.290073 kJ/mol
# GULP energy per Si atom -5585.983865 kJ/mol
# Density = 2.014799 g / cm^3
# Si number density = 20.193951 Si / 1000 Ang^3
#
#
#
# Elastic Constant Matrix: (Units=GPa)
#
#
# Indices 1 2 3 4 5 6 
#
# 1 123.1514 9.5008 49.5813 0.0000 0.0000 0.0000
# 2 9.5008 101.7467 18.0257 0.0000 0.0000 0.0000
# 3 49.5813 18.0257 76.2933 0.0000 0.0000 0.0000
# 4 0.0000 0.0000 0.0000 26.3916 0.0000 0.0000
# 5 0.0000 0.0000 0.0000 0.0000 31.1782 0.0000
# 6 0.0000 0.0000 0.0000 0.0000 0.0000 16.8018
#
#
#
# Elastic Compliance Matrix: (Units=1/GPa)
#
#
# Indices 1 2 3 4 5 6 
#
# 1 0.011004 0.000250 -0.007210 0.000000 0.000000 0.000000
# 2 0.000250 0.010263 -0.002587 0.000000 0.000000 0.000000
# 3 -0.007210 -0.002587 0.018404 0.000000 0.000000 0.000000
# 4 0.000000 0.000000 0.000000 0.037891 0.000000 0.000000
# 5 0.000000 0.000000 0.000000 0.000000 0.032074 0.000000
# 6 0.000000 0.000000 0.000000 0.000000 0.000000 0.059518
#
#
# Mechanical properties :
#
#
# Convention : Reuss Voigt Hill
#
# Bulk Modulus (GPa) = 48.59961 50.60079 49.60020
# Shear Modulus (GPa) = 25.62696 29.81322 27.72009
#
# Velocity S-wave (km/s) = 3.56623 3.84649 3.70901
# Velocity P-wave (km/s) = 6.40905 6.69620 6.55420
#
# Compressibility (1/GPa) = 0.02057630
#
# Stress axis : x y z
#
# Youngs Moduli (GPa) = 90.87931 97.43389 54.33528
#
# Poissons Ratio (x) = -0.02435 0.39176
# Poissons Ratio (y) = -0.02271 0.14058
# Poissons Ratio (z) = 0.65524 0.25209
#
# Static dielectric constant tensor:
#      x y z
#    x 1.700410 0.000000 0.000000 
#    y 0.000000 1.725180 0.000000 
#    z 0.000000 0.000000 1.720720 
# 
# From -- ./inp_files/31176.got.cif
#   From: 2010.05.17/outbox.cif.g08.bks.cpg/sg52_16_cif.got.tgz:31176.got - 2010.06.03 12:15:38.
