data_PCOD9411708
_publ_section_title
;
Structure prediction by ZEFSAII (Michael W. Deem and Ramdas Pophale) SiO2 
 PCOD9411708
Probable space group: P N N A
;
_chemical_formula_sum "Si O2"
_cell_formula_units_Z 52
_cell_length_a 20.044511
_cell_length_b 5.553649
_cell_length_c 22.270411
_cell_angle_alpha 90.000000
_cell_angle_beta 90.000000
_cell_angle_gamma 90.000000
_cell_volume 2479.146127
_symmetry_space_group_name_H-M "P N N A"
_symmetry_group_IT_number 52
_symmetry_cell_setting 'orthorhombic'
loop_
_space_group_symop_operation_xyz
x,y,z
1/2-x,-y,z
x,1/2-y,1/2-z
1/2-x,1/2+y,1/2-z
-x,-y,-z
1/2+x,y,-z
-x,1/2+y,1/2+z
1/2+x,1/2-y,1/2+z
loop_
_atom_site_type_symbol
_atom_site_label
_atom_site_fract_x
_atom_site_fract_y
_atom_site_fract_z
Si Si1 0.049942 0.750000 0.750000
Si Si2 0.913742 0.529594 0.568025
Si Si3 0.544748 0.800238 0.466924
Si Si4 0.956360 0.137944 0.812192
Si Si5 0.582487 0.070894 0.352031
Si Si6 0.285584 0.747839 0.027929
Si Si7 0.285000 0.745937 0.617132
O O1 0.093278 0.586673 0.793290
O O2 0.001544 0.586438 0.709065
O O3 0.908833 0.330871 0.515422
O O4 0.906061 0.434209 0.635427
O O5 0.860658 0.734191 0.552944
O O6 0.990239 0.618567 0.561277
O O7 0.500000 0.000000 0.500000
O O8 0.584755 0.916190 0.412599
O O9 0.929423 0.250000 0.750000
O O10 0.008661 0.322713 0.842739
O O11 0.639773 0.264496 0.358583
O O12 0.250000 0.500000 0.046814
O O13 0.250000 0.000000 0.046668
O O14 0.287466 0.750419 0.955525
O O15 0.250000 0.500000 0.635962
O O16 0.250000 0.000000 0.635118
#
# Coordination Sequence:
#
# PCOD9411708 Si02
#       7
#     4   8   8   8   8   8   8
#     4  10  22  40  62  86 128 174 214 268 336 394
#     4  11  23  37  63  98 136 166 223 268 345 403
#     4  11  22  34  61 102 130 168 205 283 340 402
#     4  10  22  40  61  95 127 170 214 274 341 401
#     4  11  22  38  66  89 133 168 223 271 340 390
#     4  10  24  41  61  95 138 178 216 267 334 405
#     4  10  24  40  63  90 127 177 220 266 325 390
#
# _framework density 20.974964
#
# number of rings (size 3 to 8) (size 9 to 14) (size 15 to 20)
#    0.000    1.538    3.077    0.923   12.923    0.000 
#    0.000    0.000    5.077    0.000    2.000    0.000 
#    0.000    0.000    0.000    0.000    0.000    0.000 
#
# Total GULP energy -290698.118289 kJ/mol
# GULP energy per Si atom -5590.348429 kJ/mol
# Density = 2.092722 g / cm^3
# Si number density = 20.974964 Si / 1000 Ang^3
#
#
#
# Elastic Constant Matrix: (Units=GPa)
#
#
# Indices 1 2 3 4 5 6 
#
# 1 54.3149 27.4597 21.6658 0.0000 0.0000 0.0000
# 2 27.4597 101.7051 45.6456 0.0000 0.0000 0.0000
# 3 21.6658 45.6456 93.7224 0.0000 0.0000 0.0000
# 4 0.0000 0.0000 0.0000 21.8141 0.0000 0.0000
# 5 0.0000 0.0000 0.0000 0.0000 5.4330 0.0000
# 6 0.0000 0.0000 0.0000 0.0000 0.0000 40.7862
#
#
#
# Elastic Compliance Matrix: (Units=1/GPa)
#
#
# Indices 1 2 3 4 5 6 
#
# 1 0.021877 -0.004654 -0.002791 0.000000 0.000000 0.000000
# 2 -0.004654 0.013573 -0.005534 0.000000 0.000000 0.000000
# 3 -0.002791 -0.005534 0.014010 0.000000 0.000000 0.000000
# 4 0.000000 0.000000 0.000000 0.045842 0.000000 0.000000
# 5 0.000000 0.000000 0.000000 0.000000 0.184061 0.000000
# 6 0.000000 0.000000 0.000000 0.000000 0.000000 0.024518
#
#
# Mechanical properties :
#
#
# Convention : Reuss Voigt Hill
#
# Bulk Modulus (GPa) = 42.54983 48.80941 45.67962
# Shear Modulus (GPa) = 14.80718 23.93808 19.37263
#
# Velocity S-wave (km/s) = 2.65985 3.38193 3.04239
# Velocity P-wave (km/s) = 5.45556 6.21054 5.84525
#
# Compressibility (1/GPa) = 0.02350186
#
# Stress axis : x y z
#
# Youngs Moduli (GPa) = 45.70931 73.67636 71.37579
#
# Poissons Ratio (x) = 0.34291 0.19918
# Poissons Ratio (y) = 0.21275 0.39503
# Poissons Ratio (z) = 0.12756 0.40776
#
# Static dielectric constant tensor:
#      x y z
#    x 1.755340 0.000000 0.000000 
#    y 0.000000 1.832180 0.000000 
#    z 0.000000 0.000000 1.732130 
# 
# From -- ./inp_files/37884.got.cif
#   From: 2010.05.17/outbox.cif.g08.bks.cpg/sg52_19_cif.got.tgz:37884.got - 2010.06.03 12:15:38.
