data_PCOD9411412
_publ_section_title
;
Structure prediction by ZEFSAII (Michael W. Deem and Ramdas Pophale) SiO2 
 PCOD9411412
Probable space group: P N N A
;
_chemical_formula_sum "Si O2"
_cell_formula_units_Z 48
_cell_length_a 14.521164
_cell_length_b 27.209381
_cell_length_c 5.817335
_cell_angle_alpha 90.000000
_cell_angle_beta 90.000000
_cell_angle_gamma 90.000000
_cell_volume 2298.498191
_symmetry_space_group_name_H-M "P N N A"
_symmetry_group_IT_number 52
_symmetry_cell_setting 'orthorhombic'
loop_
_space_group_symop_operation_xyz
x,y,z
1/2-x,-y,z
x,1/2-y,1/2-z
1/2-x,1/2+y,1/2-z
-x,-y,-z
1/2+x,y,-z
-x,1/2+y,1/2+z
1/2+x,1/2-y,1/2+z
loop_
_atom_site_type_symbol
_atom_site_label
_atom_site_fract_x
_atom_site_fract_y
_atom_site_fract_z
Si Si1 0.131684 0.371667 0.265841
Si Si2 0.632653 0.194968 0.161295
Si Si3 0.979098 0.524718 0.246950
Si Si4 0.714604 0.449576 0.387701
Si Si5 0.518583 0.627022 0.915322
Si Si6 0.787561 0.364476 0.115997
O O1 0.120412 0.319554 0.395039
O O2 0.163891 0.412632 0.442571
O O3 0.037984 0.386774 0.144025
O O4 0.212946 0.369377 0.084040
O O5 0.625333 0.250000 0.250000
O O6 0.551309 0.163899 0.286330
O O7 0.735367 0.174849 0.222673
O O8 0.869314 0.533878 0.227313
O O9 0.029241 0.578012 0.236735
O O10 0.000000 0.500000 0.500000
O O11 0.000000 0.500000 0.000000
O O12 0.750000 0.500000 0.496755
O O13 0.788857 0.416455 0.252708
O O14 0.615466 0.647734 0.001757
#
# Coordination Sequence:
#
# PCOD9411412 Si02
#       6
#     8   8   8   8   8   8
#     4  10  21  44  68  87 142 175 224 295 349 418
#     4  10  23  46  69  99 134 174 230 297 366 427
#     4  12  25  40  65  98 137 186 239 289 349 423
#     4  11  23  39  61  94 133 184 233 281 343 414
#     4  11  23  44  66 100 139 180 234 292 361 427
#     4  10  23  42  65  95 133 179 228 284 346 434
#
# _framework density 20.883201
#
# number of rings (size 3 to 8) (size 9 to 14) (size 15 to 20)
#    0.000    1.333    5.000    2.000    2.333    6.000 
#    6.000    0.000    0.000    0.000    0.000    0.000 
#    0.000    0.000    0.000    0.000    0.000    0.000 
#
# Total GULP energy -267640.334733 kJ/mol
# GULP energy per Si atom -5575.840307 kJ/mol
# Density = 2.083567 g / cm^3
# Si number density = 20.883201 Si / 1000 Ang^3
#
#
#
# Elastic Constant Matrix: (Units=GPa)
#
#
# Indices 1 2 3 4 5 6 
#
# 1 90.2898 -7.1898 6.4443 0.0000 0.0000 0.0000
# 2 -7.1898 112.4730 34.8177 0.0000 0.0000 0.0000
# 3 6.4443 34.8177 82.0646 0.0000 0.0000 0.0000
# 4 0.0000 0.0000 0.0000 15.2894 0.0000 0.0000
# 5 0.0000 0.0000 0.0000 0.0000 19.0826 0.0000
# 6 0.0000 0.0000 0.0000 0.0000 0.0000 19.7504
#
#
#
# Elastic Compliance Matrix: (Units=1/GPa)
#
#
# Indices 1 2 3 4 5 6 
#
# 1 0.011264 0.001144 -0.001370 0.000000 0.000000 0.000000
# 2 0.001144 0.010352 -0.004482 0.000000 0.000000 0.000000
# 3 -0.001370 -0.004482 0.014195 0.000000 0.000000 0.000000
# 4 0.000000 0.000000 0.000000 0.065405 0.000000 0.000000
# 5 0.000000 0.000000 0.000000 0.000000 0.052404 0.000000
# 6 0.000000 0.000000 0.000000 0.000000 0.000000 0.050632
#
#
# Mechanical properties :
#
#
# Convention : Reuss Voigt Hill
#
# Bulk Modulus (GPa) = 37.88542 39.21909 38.55225
# Shear Modulus (GPa) = 22.47552 27.54150 25.00851
#
# Velocity S-wave (km/s) = 3.28418 3.63552 3.46431
# Velocity P-wave (km/s) = 5.70632 6.03686 5.87391
#
# Compressibility (1/GPa) = 0.02639538
#
# Stress axis : x y z
#
# Youngs Moduli (GPa) = 88.77569 96.60394 70.44950
#
# Poissons Ratio (x) = -0.11053 0.09652
# Poissons Ratio (y) = -0.10157 0.31573
# Poissons Ratio (z) = 0.12162 0.43295
#
# Static dielectric constant tensor:
#      x y z
#    x 1.747570 0.000000 0.000000 
#    y 0.000000 1.824620 0.000000 
#    z 0.000000 0.000000 1.833530 
# 
# From -- ./inp_files/2449.got.cif
#   From: 2010.05.17/outbox.cif.g08.bks.cpg/sg52_2_cif.got.tgz:2449.got - 2010.06.03 12:15:38.
