data_PCOD9411954
_publ_section_title
;
Structure prediction by ZEFSAII (Michael W. Deem and Ramdas Pophale) SiO2 
 PCOD9411954
Probable space group: P N N A
;
_chemical_formula_sum "Si O2"
_cell_formula_units_Z 32
_cell_length_a 8.462114
_cell_length_b 14.809968
_cell_length_c 11.193606
_cell_angle_alpha 90.000000
_cell_angle_beta 90.000000
_cell_angle_gamma 90.000000
_cell_volume 1402.823421
_symmetry_space_group_name_H-M "P N N A"
_symmetry_group_IT_number 52
_symmetry_cell_setting 'orthorhombic'
loop_
_space_group_symop_operation_xyz
x,y,z
1/2-x,-y,z
x,1/2-y,1/2-z
1/2-x,1/2+y,1/2-z
-x,-y,-z
1/2+x,y,-z
-x,1/2+y,1/2+z
1/2+x,1/2-y,1/2+z
loop_
_atom_site_type_symbol
_atom_site_label
_atom_site_fract_x
_atom_site_fract_y
_atom_site_fract_z
Si Si1 0.440934 0.496705 0.636599
Si Si2 0.068727 0.303618 0.357687
Si Si3 0.776888 0.206079 0.473284
Si Si4 0.493450 0.153732 0.317344
O O1 0.250000 0.500000 0.641577
O O2 0.500000 0.500000 0.500000
O O3 0.513239 0.401744 0.679343
O O4 0.509765 0.576710 0.717822
O O5 0.147114 0.250000 0.250000
O O6 0.184076 0.292543 0.470595
O O7 0.915518 0.246207 0.393881
O O8 0.655110 0.149681 0.394596
O O9 0.856011 0.152584 0.583015
O O10 0.497808 0.250000 0.250000
#
# Coordination Sequence:
#
# PCOD9411954 Si02
#       4
#     8   8   8   8
#     4  12  25  42  69 102 135 177 230 288 344 411
#     4  11  22  41  64  92 127 170 218 270 332 403
#     4  10  22  42  67  94 135 177 218 282 349 403
#     4  11  23  43  68 100 137 178 229 286 346 411
#
# _framework density 22.811140000000002
#
# number of rings (size 3 to 8) (size 9 to 14) (size 15 to 20)
#    0.000    1.000    0.000    9.000    0.000    2.000 
#    0.000   13.750    0.000    0.000    0.000    0.000 
#    0.000    0.000    0.000    0.000    0.000    0.000 
#
# Total GULP energy -179160.708758 kJ/mol
# GULP energy per Si atom -5598.772149 kJ/mol
# Density = 2.275922 g / cm^3
# Si number density = 22.811140 Si / 1000 Ang^3
#
#
#
# Elastic Constant Matrix: (Units=GPa)
#
#
# Indices 1 2 3 4 5 6 
#
# 1 85.2751 5.0345 39.8269 0.0000 0.0000 0.0000
# 2 5.0345 125.1242 73.1688 0.0000 0.0000 0.0000
# 3 39.8269 73.1688 146.1734 0.0000 0.0000 0.0000
# 4 0.0000 0.0000 0.0000 50.7762 0.0000 0.0000
# 5 0.0000 0.0000 0.0000 0.0000 137.5866 0.0000
# 6 0.0000 0.0000 0.0000 0.0000 0.0000 8.4018
#
#
#
# Elastic Compliance Matrix: (Units=1/GPa)
#
#
# Indices 1 2 3 4 5 6 
#
# 1 0.013905 0.002341 -0.004961 0.000000 0.000000 0.000000
# 2 0.002341 0.011694 -0.006491 0.000000 0.000000 0.000000
# 3 -0.004961 -0.006491 0.011442 0.000000 0.000000 0.000000
# 4 0.000000 0.000000 0.000000 0.019694 0.000000 0.000000
# 5 0.000000 0.000000 0.000000 0.000000 0.007268 0.000000
# 6 0.000000 0.000000 0.000000 0.000000 0.000000 0.119022
#
#
# Mechanical properties :
#
#
# Convention : Reuss Voigt Hill
#
# Bulk Modulus (GPa) = 53.13536 65.84810 59.49173
# Shear Modulus (GPa) = 24.09395 55.25575 39.67485
#
# Velocity S-wave (km/s) = 3.25350 4.92704 4.17499
# Velocity P-wave (km/s) = 6.12029 7.82924 7.02691
#
# Compressibility (1/GPa) = 0.01881986
#
# Stress axis : x y z
#
# Youngs Moduli (GPa) = 71.91467 85.51505 87.39609
#
# Poissons Ratio (x) = -0.20022 0.43355
# Poissons Ratio (y) = -0.16838 0.56733
# Poissons Ratio (z) = 0.35675 0.55512
#
# Static dielectric constant tensor:
#      x y z
#    x 1.853110 0.000000 0.000000 
#    y 0.000000 1.839170 0.000000 
#    z 0.000000 0.000000 2.633920 
# 
# From -- ./inp_files/16402.got.cif
#   From: 2010.05.17/outbox.cif.g08.bks.cpg/sg52_9_cif.got.tgz:16402.got - 2010.06.03 12:15:38.
