data_PCOD9411859
_publ_section_title
;
Structure prediction by ZEFSAII (Michael W. Deem and Ramdas Pophale) SiO2 
 PCOD9411859
Probable space group: P N N A
;
_chemical_formula_sum "Si O2"
_cell_formula_units_Z 48
_cell_length_a 19.292598
_cell_length_b 21.378891
_cell_length_c 5.000739
_cell_angle_alpha 90.000000
_cell_angle_beta 90.000000
_cell_angle_gamma 90.000000
_cell_volume 2062.576553
_symmetry_space_group_name_H-M "P N N A"
_symmetry_group_IT_number 52
_symmetry_cell_setting 'orthorhombic'
loop_
_space_group_symop_operation_xyz
x,y,z
1/2-x,-y,z
x,1/2-y,1/2-z
1/2-x,1/2+y,1/2-z
-x,-y,-z
1/2+x,y,-z
-x,1/2+y,1/2+z
1/2+x,1/2-y,1/2+z
loop_
_atom_site_type_symbol
_atom_site_label
_atom_site_fract_x
_atom_site_fract_y
_atom_site_fract_z
Si Si1 0.034116 0.750000 0.250000
Si Si2 0.625460 0.750000 0.250000
Si Si3 0.170600 0.506963 0.246359
Si Si4 0.981668 0.432760 0.367230
Si Si5 0.822700 0.924414 0.226749
Si Si6 0.545430 0.133420 0.364234
Si Si7 0.665212 0.610773 0.142670
O O1 0.082942 0.726817 0.490462
O O2 0.986054 0.798871 0.409471
O O3 0.661783 0.685982 0.147622
O O4 0.250000 0.500000 0.327573
O O5 0.165138 0.473586 0.962204
O O6 0.157607 0.578563 0.153458
O O7 0.143426 0.458297 0.468235
O O8 0.900707 0.418563 0.301490
O O9 0.000000 0.500000 0.500000
O O10 0.008269 0.386160 0.591557
O O11 0.872729 0.867737 0.310312
O O12 0.741087 0.907737 0.239598
O O13 0.521182 0.084322 0.591401
#
# Coordination Sequence:
#
# PCOD9411859 Si02
#       7
#     4   4   8   8   8   8   8
#     4  12  24  49  72  97 146 198 236 304 380 439
#     4  12  26  47  76 105 146 196 254 308 364 441
#     4  10  22  41  66 101 144 185 223 295 371 425
#     4  12  26  44  72 107 145 190 247 306 361 444
#     4  11  25  42  71 105 145 186 239 303 375 436
#     4  12  25  46  69 103 142 190 239 297 374 446
#     4  11  25  47  75 109 148 196 252 306 368 446
#
# _framework density 23.271864000000001
#
# number of rings (size 3 to 8) (size 9 to 14) (size 15 to 20)
#    0.000    0.667    3.333    4.000    0.000   12.667 
#    0.000    0.000    0.000    6.000    0.000    0.000 
#    0.000    0.000    0.000    0.000    0.000    0.000 
#
# Total GULP energy -267667.221633 kJ/mol
# GULP energy per Si atom -5576.400451 kJ/mol
# Density = 2.321890 g / cm^3
# Si number density = 23.271864 Si / 1000 Ang^3
#
#
#
# Elastic Constant Matrix: (Units=GPa)
#
#
# Indices 1 2 3 4 5 6 
#
# 1 163.1642 38.0758 59.0857 0.0000 0.0000 0.0000
# 2 38.0758 128.1071 26.4918 0.0000 0.0000 0.0000
# 3 59.0857 26.4918 88.4744 0.0000 0.0000 0.0000
# 4 0.0000 0.0000 0.0000 29.8202 0.0000 0.0000
# 5 0.0000 0.0000 0.0000 0.0000 26.4947 0.0000
# 6 0.0000 0.0000 0.0000 0.0000 0.0000 188.2838
#
#
#
# Elastic Compliance Matrix: (Units=1/GPa)
#
#
# Indices 1 2 3 4 5 6 
#
# 1 0.008316 -0.001411 -0.005131 0.000000 0.000000 0.000000
# 2 -0.001411 0.008560 -0.001621 0.000000 0.000000 0.000000
# 3 -0.005131 -0.001621 0.015215 0.000000 0.000000 0.000000
# 4 0.000000 0.000000 0.000000 0.033534 0.000000 0.000000
# 5 0.000000 0.000000 0.000000 0.000000 0.037743 0.000000
# 6 0.000000 0.000000 0.000000 0.000000 0.000000 0.005311
#
#
# Mechanical properties :
#
#
# Convention : Reuss Voigt Hill
#
# Bulk Modulus (GPa) = 63.43059 69.67249 66.55154
# Shear Modulus (GPa) = 38.38415 65.99256 52.18835
#
# Velocity S-wave (km/s) = 4.06566 5.33093 4.74070
# Velocity P-wave (km/s) = 7.02531 8.23986 7.65670
#
# Compressibility (1/GPa) = 0.01576526
#
# Stress axis : x y z
#
# Youngs Moduli (GPa) = 120.24759 116.81585 65.72438
#
# Poissons Ratio (x) = 0.16478 0.33726
# Poissons Ratio (y) = 0.16962 0.10655
# Poissons Ratio (z) = 0.61704 0.18939
#
# Static dielectric constant tensor:
#      x y z
#    x 2.009380 0.000000 0.000000 
#    y 0.000000 1.954040 0.000000 
#    z 0.000000 0.000000 1.390370 
# 
# From -- ./inp_files/3493.got.cif
#   From: 2010.05.17/outbox.cif.g08.bks.cpg/sg52_2_cif.got.tgz:3493.got - 2010.06.03 12:15:38.
