data_PCOD9411222
_publ_section_title
;
Structure prediction by ZEFSAII (Michael W. Deem and Ramdas Pophale) SiO2 
 PCOD9411222
Probable space group: P N N A
;
_chemical_formula_sum "Si O2"
_cell_formula_units_Z 48
_cell_length_a 9.882420
_cell_length_b 12.710708
_cell_length_c 15.932892
_cell_angle_alpha 90.000000
_cell_angle_beta 90.000000
_cell_angle_gamma 90.000000
_cell_volume 2001.371272
_symmetry_space_group_name_H-M "P N N A"
_symmetry_group_IT_number 52
_symmetry_cell_setting 'orthorhombic'
loop_
_space_group_symop_operation_xyz
x,y,z
1/2-x,-y,z
x,1/2-y,1/2-z
1/2-x,1/2+y,1/2-z
-x,-y,-z
1/2+x,y,-z
-x,1/2+y,1/2+z
1/2+x,1/2-y,1/2+z
loop_
_atom_site_type_symbol
_atom_site_label
_atom_site_fract_x
_atom_site_fract_y
_atom_site_fract_z
Si Si1 0.416190 0.094271 0.881990
Si Si2 0.355585 0.913202 0.242533
Si Si3 0.618784 0.778224 0.841110
Si Si4 0.642376 0.121070 0.078314
Si Si5 0.249285 0.676425 0.009559
Si Si6 0.493348 0.166417 0.593370
O O1 0.525197 0.047096 0.818092
O O2 0.262380 0.117178 0.850967
O O3 0.476072 0.206159 0.909343
O O4 0.386588 0.999564 0.946622
O O5 0.254643 0.841347 0.186240
O O6 0.442831 0.860506 0.316708
O O7 0.250000 0.000000 0.274780
O O8 0.560696 0.750000 0.750000
O O9 0.498589 0.832503 0.891421
O O10 0.668714 0.685427 0.902684
O O11 0.712766 0.202033 0.014337
O O12 0.394170 0.626840 0.027637
O O13 0.154223 0.630239 0.937280
#
# Coordination Sequence:
#
# PCOD9411222 Si02
#       6
#     8   8   8   8   8   8
#     4  10  21  41  61  95 137 163 209 268 336 400
#     4  12  23  41  67  92 126 173 225 274 323 389
#     4  12  22  39  65  93 127 171 222 268 321 400
#     4  10  23  39  60  98 131 172 208 266 340 398
#     4  11  22  40  62  94 136 170 216 269 334 407
#     4  11  23  41  63  92 130 173 214 274 334 388
#
# _framework density 23.983556
#
# number of rings (size 3 to 8) (size 9 to 14) (size 15 to 20)
#    0.000    1.000    6.667    0.500    0.000    3.333 
#   12.000    0.833    0.000    0.000    0.000    0.000 
#    0.000    0.000    0.000    0.000    0.000    0.000 
#
# Total GULP energy -267373.950357 kJ/mol
# GULP energy per Si atom -5570.290632 kJ/mol
# Density = 2.392897 g / cm^3
# Si number density = 23.983556 Si / 1000 Ang^3
#
#
#
# Elastic Constant Matrix: (Units=GPa)
#
#
# Indices 1 2 3 4 5 6 
#
# 1 182.3570 22.8306 49.0033 0.0000 0.0000 0.0000
# 2 22.8306 18.5345 10.3474 0.0000 0.0000 0.0000
# 3 49.0033 10.3474 78.2727 0.0000 0.0000 0.0000
# 4 0.0000 0.0000 0.0000 5.0003 0.0000 0.0000
# 5 0.0000 0.0000 0.0000 0.0000 19.6260 0.0000
# 6 0.0000 0.0000 0.0000 0.0000 0.0000 25.2849
#
#
#
# Elastic Compliance Matrix: (Units=1/GPa)
#
#
# Indices 1 2 3 4 5 6 
#
# 1 0.007347 -0.006999 -0.003675 0.000000 0.000000 0.000000
# 2 -0.006999 0.064920 -0.004200 0.000000 0.000000 0.000000
# 3 -0.003675 -0.004200 0.015632 0.000000 0.000000 0.000000
# 4 0.000000 0.000000 0.000000 0.199987 0.000000 0.000000
# 5 0.000000 0.000000 0.000000 0.000000 0.050953 0.000000
# 6 0.000000 0.000000 0.000000 0.000000 0.000000 0.039549
#
#
# Mechanical properties :
#
#
# Convention : Reuss Voigt Hill
#
# Bulk Modulus (GPa) = 17.19669 49.28074 33.23871
# Shear Modulus (GPa) = 11.69535 23.11443 17.40489
#
# Velocity S-wave (km/s) = 2.21065 3.10782 2.69681
# Velocity P-wave (km/s) = 3.70159 5.78536 4.85655
#
# Compressibility (1/GPa) = 0.05815074
#
# Stress axis : x y z
#
# Youngs Moduli (GPa) = 136.10105 15.40361 63.97254
#
# Poissons Ratio (x) = 0.10781 0.23508
# Poissons Ratio (y) = 0.95258 0.26871
# Poissons Ratio (z) = 0.50013 0.06470
#
# Static dielectric constant tensor:
#      x y z
#    x 1.925590 0.000000 0.000000 
#    y 0.000000 2.024040 0.000000 
#    z 0.000000 0.000000 1.921470 
# 
# From -- ./inp_files/31210.got.cif
#   From: 2010.05.17/outbox.cif.g08.bks.cpg/sg52_16_cif.got.tgz:31210.got - 2010.06.03 12:15:38.
