data_PCOD9411502
_publ_section_title
;
Structure prediction by ZEFSAII (Michael W. Deem and Ramdas Pophale) SiO2 
 PCOD9411502
Probable space group: P N N A
;
_chemical_formula_sum "Si O2"
_cell_formula_units_Z 32
_cell_length_a 13.616662
_cell_length_b 7.721390
_cell_length_c 11.739921
_cell_angle_alpha 90.000000
_cell_angle_beta 90.000000
_cell_angle_gamma 90.000000
_cell_volume 1234.330103
_symmetry_space_group_name_H-M "P N N A"
_symmetry_group_IT_number 52
_symmetry_cell_setting 'orthorhombic'
loop_
_space_group_symop_operation_xyz
x,y,z
1/2-x,-y,z
x,1/2-y,1/2-z
1/2-x,1/2+y,1/2-z
-x,-y,-z
1/2+x,y,-z
-x,1/2+y,1/2+z
1/2+x,1/2-y,1/2+z
loop_
_atom_site_type_symbol
_atom_site_label
_atom_site_fract_x
_atom_site_fract_y
_atom_site_fract_z
Si Si1 0.081020 0.046676 0.835848
Si Si2 0.821773 0.752910 0.883775
Si Si3 0.884743 0.359775 0.550646
Si Si4 0.650307 0.105135 0.395599
O O1 0.080579 0.023438 0.700979
O O2 0.164840 0.191056 0.861468
O O3 0.986004 0.152189 0.881305
O O4 0.094345 0.879149 0.915457
O O5 0.839739 0.750000 0.750000
O O6 0.704616 0.740229 0.910050
O O7 0.852611 0.945329 0.918225
O O8 0.875240 0.621267 0.970290
O O9 0.750000 0.000000 0.384920
#
# Coordination Sequence:
#
# PCOD9411502 Si02
#       4
#     8   8   8   8
#     4   9  20  39  63  89 127 161 214 264 332 384
#     4  10  22  38  63  86 130 171 221 255 331 387
#     4   9  20  40  63  87 122 179 207 263 329 404
#     4  10  22  36  61  97 126 159 215 271 319 384
#
# _framework density 25.924990999999999
#
# number of rings (size 3 to 8) (size 9 to 14) (size 15 to 20)
#    0.000    2.500    0.000    0.000   17.500    0.000 
#    0.000   10.000    0.000    0.000    0.000    0.000 
#    0.000    0.000    0.000    0.000    0.000    0.000 
#
# Total GULP energy -178581.825148 kJ/mol
# GULP energy per Si atom -5580.682036 kJ/mol
# Density = 2.586598 g / cm^3
# Si number density = 25.924991 Si / 1000 Ang^3
#
#
#
# Elastic Constant Matrix: (Units=GPa)
#
#
# Indices 1 2 3 4 5 6 
#
# 1 75.2895 -0.1720 49.7058 0.0000 0.0000 0.0000
# 2 -0.1720 45.2285 25.3834 0.0000 0.0000 0.0000
# 3 49.7058 25.3834 286.4241 0.0000 0.0000 0.0000
# 4 0.0000 0.0000 0.0000 13.6701 0.0000 0.0000
# 5 0.0000 0.0000 0.0000 0.0000 20.9469 0.0000
# 6 0.0000 0.0000 0.0000 0.0000 0.0000 23.6709
#
#
#
# Elastic Compliance Matrix: (Units=1/GPa)
#
#
# Indices 1 2 3 4 5 6 
#
# 1 0.015111 0.001609 -0.002765 0.000000 0.000000 0.000000
# 2 0.001609 0.023439 -0.002356 0.000000 0.000000 0.000000
# 3 -0.002765 -0.002356 0.004180 0.000000 0.000000 0.000000
# 4 0.000000 0.000000 0.000000 0.073152 0.000000 0.000000
# 5 0.000000 0.000000 0.000000 0.000000 0.047740 0.000000
# 6 0.000000 0.000000 0.000000 0.000000 0.000000 0.042246
#
#
# Mechanical properties :
#
#
# Convention : Reuss Voigt Hill
#
# Bulk Modulus (GPa) = 28.00695 61.86405 44.93550
# Shear Modulus (GPa) = 22.24260 33.79257 28.01759
#
# Velocity S-wave (km/s) = 2.93227 3.61428 3.29099
# Velocity P-wave (km/s) = 4.72132 6.42899 5.64016
#
# Compressibility (1/GPa) = 0.03570543
#
# Stress axis : x y z
#
# Youngs Moduli (GPa) = 66.17611 42.66469 239.23476
#
# Poissons Ratio (x) = -0.06866 0.66148
# Poissons Ratio (y) = -0.10650 0.56374
# Poissons Ratio (z) = 0.18298 0.10054
#
# Static dielectric constant tensor:
#      x y z
#    x 2.192600 0.000000 0.000000 
#    y 0.000000 2.047770 0.000000 
#    z 0.000000 0.000000 2.182700 
# 
# From -- ./inp_files/19002.got.cif
#   From: 2010.05.17/outbox.cif.g08.bks.cpg/sg52_10_cif.got.tgz:19002.got - 2010.06.03 12:15:38.
