data_PCOD9411480
_publ_section_title
;
Structure prediction by ZEFSAII (Michael W. Deem and Ramdas Pophale) SiO2 
 PCOD9411480
Probable space group: P N N A
;
_chemical_formula_sum "Si O2"
_cell_formula_units_Z 40
_cell_length_a 5.561569
_cell_length_b 17.274143
_cell_length_c 18.434829
_cell_angle_alpha 90.000000
_cell_angle_beta 90.000000
_cell_angle_gamma 90.000000
_cell_volume 1771.058692
_symmetry_space_group_name_H-M "P N N A"
_symmetry_group_IT_number 52
_symmetry_cell_setting 'orthorhombic'
loop_
_space_group_symop_operation_xyz
x,y,z
1/2-x,-y,z
x,1/2-y,1/2-z
1/2-x,1/2+y,1/2-z
-x,-y,-z
1/2+x,y,-z
-x,1/2+y,1/2+z
1/2+x,1/2-y,1/2+z
loop_
_atom_site_type_symbol
_atom_site_label
_atom_site_fract_x
_atom_site_fract_y
_atom_site_fract_z
Si Si1 0.034377 0.868214 0.678829
Si Si2 0.250000 0.000000 0.263051
Si Si3 0.408632 0.611832 0.692894
Si Si4 0.244539 0.750000 0.250000
Si Si5 0.045933 0.410248 0.525931
Si Si6 0.441596 0.410535 0.976210
O O1 0.192853 0.877890 0.750790
O O2 0.823654 0.930210 0.686492
O O3 0.914549 0.785095 0.687303
O O4 0.157711 0.893884 0.604843
O O5 0.459932 0.032107 0.213528
O O6 0.583714 0.683407 0.713471
O O7 0.363304 0.603575 0.607934
O O8 0.272602 0.377945 0.479957
O O9 0.000000 0.500000 0.500000
O O10 0.500000 0.500000 0.000000
O O11 0.215524 0.377787 0.021974
#
# Coordination Sequence:
#
# PCOD9411480 Si02
#       6
#     8   4   8   4   8   8
#     4  11  24  42  71 101 141 190 241 295 354 428
#     4  10  22  34  68 104 132 170 244 298 354 410
#     4  11  24  42  71 101 141 190 241 295 354 428
#     4  10  26  46  68  96 144 190 264 282 338 422
#     4  10  23  40  66 102 146 176 222 296 370 429
#     4  10  23  40  66 102 146 176 222 296 370 429
#
# _framework density 22.585360999999999
#
# number of rings (size 3 to 8) (size 9 to 14) (size 15 to 20)
#    0.000    1.600    0.000    3.600   22.400    0.000 
#    0.000    2.000    0.000    0.000    0.000    0.000 
#    0.000    0.000    0.000    0.000    0.000    0.000 
#
# Total GULP energy -222796.223555 kJ/mol
# GULP energy per Si atom -5569.905589 kJ/mol
# Density = 2.253396 g / cm^3
# Si number density = 22.585361 Si / 1000 Ang^3
#
#
#
# Elastic Constant Matrix: (Units=GPa)
#
#
# Indices 1 2 3 4 5 6 
#
# 1 121.0126 8.4214 16.0690 0.0000 0.0000 0.0000
# 2 8.4214 69.7362 20.3954 0.0000 0.0000 0.0000
# 3 16.0690 20.3954 138.4371 0.0000 0.0000 0.0000
# 4 0.0000 0.0000 0.0000 -21.4027 0.0000 0.0000
# 5 0.0000 0.0000 0.0000 0.0000 31.0147 0.0000
# 6 0.0000 0.0000 0.0000 0.0000 0.0000 31.4749
#
#
#
# Elastic Compliance Matrix: (Units=1/GPa)
#
#
# Indices 1 2 3 4 5 6 
#
# 1 0.008432 -0.000765 -0.000866 0.000000 0.000000 0.000000
# 2 -0.000765 0.015055 -0.002129 0.000000 0.000000 0.000000
# 3 -0.000866 -0.002129 0.007638 0.000000 0.000000 0.000000
# 4 0.000000 0.000000 0.000000 -0.046723 0.000000 0.000000
# 5 0.000000 0.000000 0.000000 0.000000 0.032243 0.000000
# 6 0.000000 0.000000 0.000000 0.000000 0.000000 0.031771
#
#
# Mechanical properties :
#
#
# Convention : Reuss Voigt Hill
#
# Bulk Modulus (GPa) = 42.36558 46.55083 44.45821
# Shear Modulus (GPa) = 78.36515 27.17071 52.76793
#
# Velocity S-wave (km/s) = 5.89683 3.47223 4.83885
# Velocity P-wave (km/s) = 8.07231 6.06061 7.13769
#
# Compressibility (1/GPa) = 0.02360407
#
# Stress axis : x y z
#
# Youngs Moduli (GPa) = 118.59818 66.42385 130.92939
#
# Poissons Ratio (x) = 0.05081 0.11339
# Poissons Ratio (y) = 0.09072 0.27877
# Poissons Ratio (z) = 0.10271 0.14143
#
# Static dielectric constant tensor:
#      x y z
#    x 2.246870 0.000000 0.000000 
#    y 0.000000 2.642550 0.000000 
#    z 0.000000 0.000000 2.020860 
# 
# From -- ./inp_files/3248.got.cif
#   From: 2010.05.17/outbox.cif.g08.bks.cpg/sg52_2_cif.got.tgz:3248.got - 2010.06.03 12:15:38.
