data_PCOD9411223
_publ_section_title
;
Structure prediction by ZEFSAII (Michael W. Deem and Ramdas Pophale) SiO2 
 PCOD9411223
Probable space group: P N N A
;
_chemical_formula_sum "Si O2"
_cell_formula_units_Z 32
_cell_length_a 21.941555
_cell_length_b 8.271943
_cell_length_c 8.869614
_cell_angle_alpha 90.000000
_cell_angle_beta 90.000000
_cell_angle_gamma 90.000000
_cell_volume 1609.828664
_symmetry_space_group_name_H-M "P N N A"
_symmetry_group_IT_number 52
_symmetry_cell_setting 'orthorhombic'
loop_
_space_group_symop_operation_xyz
x,y,z
1/2-x,-y,z
x,1/2-y,1/2-z
1/2-x,1/2+y,1/2-z
-x,-y,-z
1/2+x,y,-z
-x,1/2+y,1/2+z
1/2+x,1/2-y,1/2+z
loop_
_atom_site_type_symbol
_atom_site_label
_atom_site_fract_x
_atom_site_fract_y
_atom_site_fract_z
Si Si1 0.000500 0.688727 0.428083
Si Si2 0.366563 0.308466 0.421804
Si Si3 0.254986 0.690540 0.918837
Si Si4 0.623434 0.305300 0.580289
O O1 0.000027 0.750000 0.250000
O O2 0.936719 0.752510 0.491900
O O3 0.000000 0.500000 0.500000
O O4 0.067132 0.752477 0.479520
O O5 0.358135 0.250000 0.250000
O O6 0.308138 0.259121 0.516711
O O7 0.371590 0.501429 0.422865
O O8 0.250000 0.500000 0.920637
O O9 0.264359 0.750000 0.750000
O O10 0.313581 0.740057 0.014800
O O11 0.616085 0.250000 0.750000
#
# Coordination Sequence:
#
# PCOD9411223 Si02
#       4
#     8   8   8   8
#     4   9  20  39  63  90 125 165 209 259 315 378
#     4  10  21  41  62  88 123 161 202 251 307 369
#     4  12  25  41  61  88 119 159 205 256 311 372
#     4  11  22  39  63  92 124 163 205 254 309 373
#
# _framework density 19.877893
#
# number of rings (size 3 to 8) (size 9 to 14) (size 15 to 20)
#    0.000    1.500    0.000    5.250    0.000    3.000 
#    0.000   20.000    0.000    0.000    0.000    0.000 
#    0.000    0.000    0.000    0.000    0.000    0.000 
#
# Total GULP energy -178281.454007 kJ/mol
# GULP energy per Si atom -5571.295438 kJ/mol
# Density = 1.983265 g / cm^3
# Si number density = 19.877893 Si / 1000 Ang^3
#
#
#
# Elastic Constant Matrix: (Units=GPa)
#
#
# Indices 1 2 3 4 5 6 
#
# 1 168.2396 26.6318 55.1959 0.0000 0.0000 0.0000
# 2 26.6318 80.0346 18.8746 0.0000 0.0000 0.0000
# 3 55.1959 18.8746 92.2604 0.0000 0.0000 0.0000
# 4 0.0000 0.0000 0.0000 28.5487 0.0000 0.0000
# 5 0.0000 0.0000 0.0000 0.0000 47.7241 0.0000
# 6 0.0000 0.0000 0.0000 0.0000 0.0000 -78.0577
#
#
#
# Elastic Compliance Matrix: (Units=1/GPa)
#
#
# Indices 1 2 3 4 5 6 
#
# 1 0.007568 -0.001524 -0.004216 0.000000 0.000000 0.000000
# 2 -0.001524 0.013435 -0.001837 0.000000 0.000000 0.000000
# 3 -0.004216 -0.001837 0.013737 0.000000 0.000000 0.000000
# 4 0.000000 0.000000 0.000000 0.035028 0.000000 0.000000
# 5 0.000000 0.000000 0.000000 0.000000 0.020954 0.000000
# 6 0.000000 0.000000 0.000000 0.000000 0.000000 -0.012811
#
#
# Mechanical properties :
#
#
# Convention : Reuss Voigt Hill
#
# Bulk Modulus (GPa) = 51.05563 60.21546 55.63555
# Shear Modulus (GPa) = 50.20414 15.63184 32.91799
#
# Velocity S-wave (km/s) = 5.03101 2.80731 4.07382
# Velocity P-wave (km/s) = 7.71288 6.39269 7.08361
#
# Compressibility (1/GPa) = 0.01958648
#
# Stress axis : x y z
#
# Youngs Moduli (GPa) = 132.12886 74.43295 72.79637
#
# Poissons Ratio (x) = 0.11345 0.30691
# Poissons Ratio (y) = 0.20138 0.13370
# Poissons Ratio (z) = 0.55706 0.13671
#
# Static dielectric constant tensor:
#      x y z
#    x 1.732180 0.000000 0.000000 
#    y 0.000000 1.722530 0.000000 
#    z 0.000000 0.000000 1.679780 
# 
# From -- ./inp_files/12802.got.cif
#   From: 2010.05.17/outbox.cif.g08.bks.cpg/sg52_7_cif.got.tgz:12802.got - 2010.06.03 12:15:38.
