data_PCOD9411196
_publ_section_title
;
Structure prediction by ZEFSAII (Michael W. Deem and Ramdas Pophale) SiO2 
 PCOD9411196
Probable space group: P N N A
;
_chemical_formula_sum "Si O2"
_cell_formula_units_Z 44
_cell_length_a 14.621509
_cell_length_b 10.359819
_cell_length_c 13.953871
_cell_angle_alpha 90.000000
_cell_angle_beta 90.000000
_cell_angle_gamma 90.000000
_cell_volume 2113.679169
_symmetry_space_group_name_H-M "P N N A"
_symmetry_group_IT_number 52
_symmetry_cell_setting 'orthorhombic'
loop_
_space_group_symop_operation_xyz
x,y,z
1/2-x,-y,z
x,1/2-y,1/2-z
1/2-x,1/2+y,1/2-z
-x,-y,-z
1/2+x,y,-z
-x,1/2+y,1/2+z
1/2+x,1/2-y,1/2+z
loop_
_atom_site_type_symbol
_atom_site_label
_atom_site_fract_x
_atom_site_fract_y
_atom_site_fract_z
Si Si1 0.176102 0.750000 0.750000
Si Si2 0.589556 0.159207 0.908193
Si Si3 0.269192 0.750000 0.250000
Si Si4 0.750000 0.500000 0.861872
Si Si5 0.551057 0.055696 0.589762
Si Si6 0.809501 0.867875 0.110995
Si Si7 0.543219 0.992733 0.217931
O O1 0.241869 0.761027 0.843762
O O2 0.111440 0.874615 0.755728
O O3 0.665791 0.179577 0.826790
O O4 0.532472 0.291655 0.905414
O O5 0.522171 0.047438 0.871206
O O6 0.641903 0.150205 0.008705
O O7 0.222410 0.628489 0.198507
O O8 0.660039 0.460580 0.919334
O O9 0.517781 0.990536 0.688006
O O10 0.500000 0.000000 0.500000
O O11 0.750000 0.000000 0.104381
O O12 0.891422 0.892596 0.185785
#
# Coordination Sequence:
#
# PCOD9411196 Si02
#       7
#     4   8   4   4   8   8   8
#     4  10  21  44  61  92 128 172 206 267 337 394
#     4  11  20  43  64  87 126 174 213 271 336 395
#     4  10  21  40  69  90 130 170 220 271 335 394
#     4  10  22  46  64  98 130 176 220 278 336 396
#     4  11  24  41  65  96 129 173 218 266 342 401
#     4  10  25  37  64  98 122 167 224 274 322 402
#     4  11  20  44  65  87 134 171 213 269 337 398
#
# _framework density 20.816783000000001
#
# number of rings (size 3 to 8) (size 9 to 14) (size 15 to 20)
#    0.000    1.455    5.455    0.545    3.818    2.909 
#    4.909    0.000    0.000    0.000    0.000    0.000 
#    0.000    0.000    0.000    0.000    0.000    0.000 
#
# Total GULP energy -245487.000632 kJ/mol
# GULP energy per Si atom -5579.250014 kJ/mol
# Density = 2.076940 g / cm^3
# Si number density = 20.816783 Si / 1000 Ang^3
#
#
#
# Elastic Constant Matrix: (Units=GPa)
#
#
# Indices 1 2 3 4 5 6 
#
# 1 98.4648 11.8859 54.0336 0.0000 0.0000 0.0000
# 2 11.8859 28.8492 -0.1263 0.0000 0.0000 0.0000
# 3 54.0336 -0.1263 110.2977 0.0000 0.0000 0.0000
# 4 0.0000 0.0000 0.0000 22.2300 0.0000 0.0000
# 5 0.0000 0.0000 0.0000 0.0000 51.5727 0.0000
# 6 0.0000 0.0000 0.0000 0.0000 0.0000 -23.3748
#
#
#
# Elastic Compliance Matrix: (Units=1/GPa)
#
#
# Indices 1 2 3 4 5 6 
#
# 1 0.014915 -0.006177 -0.007314 0.000000 0.000000 0.000000
# 2 -0.006177 0.037221 0.003069 0.000000 0.000000 0.000000
# 3 -0.007314 0.003069 0.012653 0.000000 0.000000 0.000000
# 4 0.000000 0.000000 0.000000 0.044984 0.000000 0.000000
# 5 0.000000 0.000000 0.000000 0.000000 0.019390 0.000000
# 6 0.000000 0.000000 0.000000 0.000000 0.000000 -0.042781
#
#
# Mechanical properties :
#
#
# Convention : Reuss Voigt Hill
#
# Bulk Modulus (GPa) = 22.75572 41.02200 31.88886
# Shear Modulus (GPa) = 41.02552 21.54013 31.28283
#
# Velocity S-wave (km/s) = 4.44418 3.22024 3.88076
# Velocity P-wave (km/s) = 6.10651 5.79445 5.95252
#
# Compressibility (1/GPa) = 0.04394500
#
# Stress axis : x y z
#
# Youngs Moduli (GPa) = 67.04620 26.86625 79.03368
#
# Poissons Ratio (x) = 0.16595 0.57804
# Poissons Ratio (y) = 0.41415 -0.24253
# Poissons Ratio (z) = 0.49036 -0.08244
#
# Static dielectric constant tensor:
#      x y z
#    x 1.749720 0.000000 0.000000 
#    y 0.000000 1.818910 0.000000 
#    z 0.000000 0.000000 1.754160 
# 
# From -- ./inp_files/27132.got.cif
#   From: 2010.05.17/outbox.cif.g08.bks.cpg/sg52_14_cif.got.tgz:27132.got - 2010.06.03 12:15:38.
