data_PCOD9411394
_publ_section_title
;
Structure prediction by ZEFSAII (Michael W. Deem and Ramdas Pophale) SiO2 
 PCOD9411394
Probable space group: P N N A
;
_chemical_formula_sum "Si O2"
_cell_formula_units_Z 60
_cell_length_a 11.169658
_cell_length_b 19.956120
_cell_length_c 12.216978
_cell_angle_alpha 90.000000
_cell_angle_beta 90.000000
_cell_angle_gamma 90.000000
_cell_volume 2723.201480
_symmetry_space_group_name_H-M "P N N A"
_symmetry_group_IT_number 52
_symmetry_cell_setting 'orthorhombic'
loop_
_space_group_symop_operation_xyz
x,y,z
1/2-x,-y,z
x,1/2-y,1/2-z
1/2-x,1/2+y,1/2-z
-x,-y,-z
1/2+x,y,-z
-x,1/2+y,1/2+z
1/2+x,1/2-y,1/2+z
loop_
_atom_site_type_symbol
_atom_site_label
_atom_site_fract_x
_atom_site_fract_y
_atom_site_fract_z
Si Si1 0.702421 0.905782 0.840010
Si Si2 0.044107 0.825647 0.794171
Si Si3 0.880139 0.534380 0.050681
Si Si4 0.250000 0.500000 0.535559
Si Si5 0.362340 0.871642 0.356787
Si Si6 0.063773 0.057766 0.804412
Si Si7 0.187783 0.220737 0.089741
Si Si8 0.804172 0.693345 0.342374
O O1 0.779636 0.911820 0.728608
O O2 0.577611 0.942370 0.821182
O O3 0.705397 0.826116 0.866168
O O4 0.753170 0.938093 0.951074
O O5 0.057960 0.750000 0.750000
O O6 0.994510 0.871203 0.696565
O O7 0.934797 0.819346 0.879290
O O8 0.174734 0.843296 0.833724
O O9 0.750000 0.500000 0.036622
O O10 0.902626 0.544237 0.178909
O O11 0.866044 0.601315 0.978424
O O12 0.000000 0.500000 0.000000
O O13 0.135311 0.491533 0.614354
O O14 0.319971 0.794246 0.358263
O O15 0.102160 0.133899 0.831203
O O16 0.193349 0.227393 0.960307
O O17 0.818896 0.750000 0.250000
#
# Coordination Sequence:
#
# PCOD9411394 Si02
#       8
#     8   8   8   4   8   8   8   8
#     4  11  25  45  75 104 139 186 241 293 373 444
#     4   8  19  39  64  93 129 180 226 271 350 431
#     4  12  28  49  74 105 152 199 254 313 375 449
#     4  12  26  48  72  98 148 192 240 300 362 442
#     4  10  23  46  74 101 141 191 242 298 368 444
#     4  12  27  47  68 109 141 186 246 303 368 435
#     4  10  21  43  70 103 139 182 233 298 366 448
#     4  11  23  39  65 100 142 178 228 292 369 432
#
# _framework density 22.032889999999998
#
# number of rings (size 3 to 8) (size 9 to 14) (size 15 to 20)
#    0.000    1.333    2.000    3.200    6.533    1.067 
#   12.000    0.000    0.000    0.000    0.000    0.000 
#    0.000    0.000    0.000    0.000    0.000    0.000 
#
# Total GULP energy -335251.400601 kJ/mol
# GULP energy per Si atom -5587.523343 kJ/mol
# Density = 2.198274 g / cm^3
# Si number density = 22.032890 Si / 1000 Ang^3
#
#
#
# Elastic Constant Matrix: (Units=GPa)
#
#
# Indices 1 2 3 4 5 6 
#
# 1 61.0730 6.1448 12.4789 0.0000 0.0000 0.0000
# 2 6.1448 73.7972 23.5220 0.0000 0.0000 0.0000
# 3 12.4789 23.5220 139.4255 0.0000 0.0000 0.0000
# 4 0.0000 0.0000 0.0000 34.2266 0.0000 0.0000
# 5 0.0000 0.0000 0.0000 0.0000 27.8865 0.0000
# 6 0.0000 0.0000 0.0000 0.0000 0.0000 25.3048
#
#
#
# Elastic Compliance Matrix: (Units=1/GPa)
#
#
# Indices 1 2 3 4 5 6 
#
# 1 0.016744 -0.000969 -0.001335 0.000000 0.000000 0.000000
# 2 -0.000969 0.014377 -0.002339 0.000000 0.000000 0.000000
# 3 -0.001335 -0.002339 0.007686 0.000000 0.000000 0.000000
# 4 0.000000 0.000000 0.000000 0.029217 0.000000 0.000000
# 5 0.000000 0.000000 0.000000 0.000000 0.035860 0.000000
# 6 0.000000 0.000000 0.000000 0.000000 0.000000 0.039518
#
#
# Mechanical properties :
#
#
# Convention : Reuss Voigt Hill
#
# Bulk Modulus (GPa) = 33.87303 39.84302 36.85802
# Shear Modulus (GPa) = 30.76393 32.96025 31.86209
#
# Velocity S-wave (km/s) = 3.74073 3.87196 3.80691
# Velocity P-wave (km/s) = 5.83649 6.17350 6.00736
#
# Compressibility (1/GPa) = 0.02952202
#
# Stress axis : x y z
#
# Youngs Moduli (GPa) = 59.72247 69.55675 130.10063
#
# Poissons Ratio (x) = 0.06737 0.17371
# Poissons Ratio (y) = 0.05785 0.30427
# Poissons Ratio (z) = 0.07974 0.16268
#
# Static dielectric constant tensor:
#      x y z
#    x 1.826200 0.000000 0.000000 
#    y 0.000000 1.824820 0.000000 
#    z 0.000000 0.000000 1.787860 
# 
# From -- ./inp_files/18392.got.cif
#   From: 2010.05.17/outbox.cif.g08.bks.cpg/sg52_10_cif.got.tgz:18392.got - 2010.06.03 12:15:38.
