data_PCOD9411633
_publ_section_title
;
Structure prediction by ZEFSAII (Michael W. Deem and Ramdas Pophale) SiO2 
 PCOD9411633
Probable space group: P N N A
;
_chemical_formula_sum "Si O2"
_cell_formula_units_Z 48
_cell_length_a 15.547505
_cell_length_b 27.773421
_cell_length_c 5.223173
_cell_angle_alpha 90.000000
_cell_angle_beta 90.000000
_cell_angle_gamma 90.000000
_cell_volume 2255.404763
_symmetry_space_group_name_H-M "P N N A"
_symmetry_group_IT_number 52
_symmetry_cell_setting 'orthorhombic'
loop_
_space_group_symop_operation_xyz
x,y,z
1/2-x,-y,z
x,1/2-y,1/2-z
1/2-x,1/2+y,1/2-z
-x,-y,-z
1/2+x,y,-z
-x,1/2+y,1/2+z
1/2+x,1/2-y,1/2+z
loop_
_atom_site_type_symbol
_atom_site_label
_atom_site_fract_x
_atom_site_fract_y
_atom_site_fract_z
Si Si1 0.276986 0.137284 0.328064
Si Si2 0.134833 0.451739 0.591322
Si Si3 0.424620 0.150334 0.712925
Si Si4 0.679579 0.718856 0.493186
Si Si5 0.166602 0.939176 0.971528
Si Si6 0.096607 0.394112 0.070379
O O1 0.352978 0.158540 0.496916
O O2 0.267079 0.171012 0.076821
O O3 0.186429 0.133675 0.466303
O O4 0.310236 0.084224 0.246178
O O5 0.125313 0.508376 0.537118
O O6 0.237233 0.443808 0.645649
O O7 0.109009 0.422589 0.337585
O O8 0.085136 0.430937 0.835712
O O9 0.394544 0.100176 0.842509
O O10 0.517658 0.141941 0.599183
O O11 0.410882 0.194587 0.906548
O O12 0.676133 0.750000 0.750000
O O13 0.711232 0.750000 0.250000
#
# Coordination Sequence:
#
# PCOD9411633 Si02
#       6
#     8   8   8   8   8   8
#     4  10  22  44  65  92 129 166 210 263 323 374
#     4  10  22  39  59  91 131 170 224 255 300 366
#     4  11  23  41  67  92 129 166 208 258 323 373
#     4  11  23  43  72  94 118 163 205 259 328 394
#     4   9  21  37  63  88 128 179 210 264 309 355
#     4  11  25  39  62  95 128 170 211 259 306 374
#
# _framework density 21.282212000000001
#
# number of rings (size 3 to 8) (size 9 to 14) (size 15 to 20)
#    0.000    1.667    3.333    0.000    7.000    2.667 
#    0.000    1.667    0.000    0.000    0.000    0.000 
#    0.000    0.000    0.000    0.000    0.000    0.000 
#
# Total GULP energy -267819.010445 kJ/mol
# GULP energy per Si atom -5579.562718 kJ/mol
# Density = 2.123377 g / cm^3
# Si number density = 21.282212 Si / 1000 Ang^3
#
#
#
# Elastic Constant Matrix: (Units=GPa)
#
#
# Indices 1 2 3 4 5 6 
#
# 1 43.5052 3.4201 18.9084 0.0000 0.0000 0.0000
# 2 3.4201 71.9652 27.4221 0.0000 0.0000 0.0000
# 3 18.9084 27.4221 104.0991 0.0000 0.0000 0.0000
# 4 0.0000 0.0000 0.0000 32.2185 0.0000 0.0000
# 5 0.0000 0.0000 0.0000 0.0000 13.0283 0.0000
# 6 0.0000 0.0000 0.0000 0.0000 0.0000 3.9783
#
#
#
# Elastic Compliance Matrix: (Units=1/GPa)
#
#
# Indices 1 2 3 4 5 6 
#
# 1 0.024979 0.000602 -0.004696 0.000000 0.000000 0.000000
# 2 0.000602 0.015461 -0.004182 0.000000 0.000000 0.000000
# 3 -0.004696 -0.004182 0.011561 0.000000 0.000000 0.000000
# 4 0.000000 0.000000 0.000000 0.031038 0.000000 0.000000
# 5 0.000000 0.000000 0.000000 0.000000 0.076756 0.000000
# 6 0.000000 0.000000 0.000000 0.000000 0.000000 0.251362
#
#
# Mechanical properties :
#
#
# Convention : Reuss Voigt Hill
#
# Bulk Modulus (GPa) = 28.20926 35.45229 31.83078
# Shear Modulus (GPa) = 11.37592 21.16628 16.27110
#
# Velocity S-wave (km/s) = 2.31449 3.15707 2.76803
# Velocity P-wave (km/s) = 4.51953 5.47575 5.02046
#
# Compressibility (1/GPa) = 0.03544935
#
# Stress axis : x y z
#
# Youngs Moduli (GPa) = 40.03304 64.68077 86.49906
#
# Poissons Ratio (x) = -0.03895 0.40619
# Poissons Ratio (y) = -0.02411 0.36174
# Poissons Ratio (z) = 0.18799 0.27050
#
# Static dielectric constant tensor:
#      x y z
#    x 1.772680 0.000000 0.000000 
#    y 0.000000 1.827350 0.000000 
#    z 0.000000 0.000000 1.842540 
# 
# From -- ./inp_files/2580.got.cif
#   From: 2010.05.17/outbox.cif.g08.bks.cpg/sg52_2_cif.got.tgz:2580.got - 2010.06.03 12:15:38.
