data_PCOD9411864
_publ_section_title
;
Structure prediction by ZEFSAII (Michael W. Deem and Ramdas Pophale) SiO2 
 PCOD9411864
Probable space group: P N N A
;
_chemical_formula_sum "Si O2"
_cell_formula_units_Z 28
_cell_length_a 7.284050
_cell_length_b 9.878337
_cell_length_c 18.249919
_cell_angle_alpha 90.000000
_cell_angle_beta 90.000000
_cell_angle_gamma 90.000000
_cell_volume 1313.160158
_symmetry_space_group_name_H-M "P N N A"
_symmetry_group_IT_number 52
_symmetry_cell_setting 'orthorhombic'
loop_
_space_group_symop_operation_xyz
x,y,z
1/2-x,-y,z
x,1/2-y,1/2-z
1/2-x,1/2+y,1/2-z
-x,-y,-z
1/2+x,y,-z
-x,1/2+y,1/2+z
1/2+x,1/2-y,1/2+z
loop_
_atom_site_type_symbol
_atom_site_label
_atom_site_fract_x
_atom_site_fract_y
_atom_site_fract_z
Si Si1 0.212914 0.209037 0.439994
Si Si2 0.992617 0.793238 0.167278
Si Si3 0.250000 0.000000 0.100194
Si Si4 0.816523 0.357669 0.103972
O O1 0.389600 0.197550 0.387967
O O2 0.184268 0.371923 0.446845
O O3 0.249879 0.151031 0.519524
O O4 0.034567 0.151987 0.400580
O O5 0.025115 0.750000 0.250000
O O6 0.782598 0.765265 0.146064
O O7 0.083939 0.938206 0.148631
O O8 0.750000 0.500000 0.136502
#
# Coordination Sequence:
#
# PCOD9411864 Si02
#       4
#     8   8   4   8
#     4  10  22  41  66  94 126 164 214 264 321 367
#     4  10  24  44  63  97 127 172 213 266 326 377
#     4   8  22  44  64  92 124 172 208 266 324 366
#     4  12  24  40  67 100 127 172 213 265 322 380
#
# _framework density 21.322607999999999
#
# number of rings (size 3 to 8) (size 9 to 14) (size 15 to 20)
#    1.714    0.000    2.857    0.857    0.000    9.143 
#    5.143    0.000    0.000    0.000    0.000    0.000 
#    0.000    0.000    0.000    0.000    0.000    0.000 
#
# Total GULP energy -156119.069931 kJ/mol
# GULP energy per Si atom -5575.681069 kJ/mol
# Density = 2.127408 g / cm^3
# Si number density = 21.322608 Si / 1000 Ang^3
#
#
#
# Elastic Constant Matrix: (Units=GPa)
#
#
# Indices 1 2 3 4 5 6 
#
# 1 44.8843 -31.3857 -4.8306 0.0000 0.0000 0.0000
# 2 -31.3857 71.6346 0.2507 0.0000 0.0000 0.0000
# 3 -4.8306 0.2507 56.7096 0.0000 0.0000 0.0000
# 4 0.0000 0.0000 0.0000 -14.9276 0.0000 0.0000
# 5 0.0000 0.0000 0.0000 0.0000 -146.1167 0.0000
# 6 0.0000 0.0000 0.0000 0.0000 0.0000 27.6872
#
#
#
# Elastic Compliance Matrix: (Units=1/GPa)
#
#
# Indices 1 2 3 4 5 6 
#
# 1 0.032531 0.014243 0.002708 0.000000 0.000000 0.000000
# 2 0.014243 0.020196 0.001124 0.000000 0.000000 0.000000
# 3 0.002708 0.001124 0.017859 0.000000 0.000000 0.000000
# 4 0.000000 0.000000 0.000000 -0.066990 0.000000 0.000000
# 5 0.000000 0.000000 0.000000 0.000000 -0.006844 0.000000
# 6 0.000000 0.000000 0.000000 0.000000 0.000000 0.036118
#
#
# Mechanical properties :
#
#
# Convention : Reuss Voigt Hill
#
# Bulk Modulus (GPa) = 9.36876 11.25525 10.31201
# Shear Modulus (GPa) = 154.80378 -12.72516 71.03931
#
# Velocity S-wave (km/s) = 8.52985 -2.44558 5.77830
# Velocity P-wave (km/s) = 10.07048 1.63844 7.02602
#
# Compressibility (1/GPa) = 0.10673767
#
# Stress axis : x y z
#
# Youngs Moduli (GPa) = 30.74006 49.51379 55.99294
#
# Poissons Ratio (x) = -0.70525 -0.15163
# Poissons Ratio (y) = -0.43785 -0.06294
# Poissons Ratio (z) = -0.08325 -0.05565
#
# Static dielectric constant tensor:
#      x y z
#    x 1.776300 0.000000 0.000000 
#    y 0.000000 1.816130 0.000000 
#    z 0.000000 0.000000 1.709880 
# 
# From -- ./inp_files/24020.got.cif
#   From: 2010.05.17/outbox.cif.g08.bks.cpg/sg52_13_cif.got.tgz:24020.got - 2010.06.03 12:15:38.
