data_PCOD9411693
_publ_section_title
;
Structure prediction by ZEFSAII (Michael W. Deem and Ramdas Pophale) SiO2 
 PCOD9411693
Probable space group: P N N A
;
_chemical_formula_sum "Si O2"
_cell_formula_units_Z 64
_cell_length_a 9.543898
_cell_length_b 14.090363
_cell_length_c 24.301708
_cell_angle_alpha 90.000000
_cell_angle_beta 90.000000
_cell_angle_gamma 90.000000
_cell_volume 3268.020477
_symmetry_space_group_name_H-M "P N N A"
_symmetry_group_IT_number 52
_symmetry_cell_setting 'orthorhombic'
loop_
_space_group_symop_operation_xyz
x,y,z
1/2-x,-y,z
x,1/2-y,1/2-z
1/2-x,1/2+y,1/2-z
-x,-y,-z
1/2+x,y,-z
-x,1/2+y,1/2+z
1/2+x,1/2-y,1/2+z
loop_
_atom_site_type_symbol
_atom_site_label
_atom_site_fract_x
_atom_site_fract_y
_atom_site_fract_z
Si Si1 0.385113 0.675454 0.300793
Si Si2 0.248215 0.793202 0.615603
Si Si3 0.683109 0.603102 0.328441
Si Si4 0.661962 0.406151 0.218254
Si Si5 0.757231 0.308872 0.879507
Si Si6 0.502751 0.079368 0.577211
Si Si7 0.006777 0.362021 0.950130
Si Si8 0.158751 0.588050 0.226016
O O1 0.420646 0.750000 0.250000
O O2 0.518784 0.609109 0.312323
O O3 0.343680 0.725034 0.358395
O O4 0.246134 0.623469 0.278490
O O5 0.208474 0.684642 0.626548
O O6 0.330595 0.832647 0.668696
O O7 0.114149 0.861725 0.609783
O O8 0.348946 0.809562 0.563742
O O9 0.750000 0.500000 0.342384
O O10 0.764387 0.632626 0.272845
O O11 0.750000 0.500000 0.202966
O O12 0.503336 0.433170 0.233039
O O13 0.653705 0.390715 0.900668
O O14 0.878043 0.302333 0.925025
O O15 0.831300 0.335506 0.822297
O O16 0.490245 0.113575 0.514014
O O17 0.486108 0.965916 0.579312
O O18 0.250000 0.500000 0.205810
#
# Coordination Sequence:
#
# PCOD9411693 Si02
#       8
#     8   8   8   8   8   8   8   8
#     4  10  22  40  59  86 123 165 204 249 307 366
#     4  12  23  38  64  89 122 163 204 250 306 366
#     4  11  24  41  61  86 121 162 211 257 301 356
#     4  11  23  36  60  94 128 161 202 247 302 369
#     4  11  22  37  60  85 124 163 196 238 302 366
#     4  11  23  40  61  90 127 160 195 246 306 371
#     4  11  23  39  61  95 124 155 200 248 301 376
#     4  11  22  35  58  88 125 162 199 242 295 364
#
# _framework density 19.58372
#
# number of rings (size 3 to 8) (size 9 to 14) (size 15 to 20)
#    0.000    1.000    2.500    5.625    5.250    3.000 
#    0.000    0.000    0.000    0.750    0.000    0.000 
#    0.000    0.000    0.000    0.000    0.000    0.000 
#
# Total GULP energy -357345.483013 kJ/mol
# GULP energy per Si atom -5583.523172 kJ/mol
# Density = 1.953915 g / cm^3
# Si number density = 19.583720 Si / 1000 Ang^3
#
#
#
# Elastic Constant Matrix: (Units=GPa)
#
#
# Indices 1 2 3 4 5 6 
#
# 1 128.8559 42.8309 23.3918 0.0000 0.0000 0.0000
# 2 42.8309 73.9649 14.7153 0.0000 0.0000 0.0000
# 3 23.3918 14.7153 41.8851 0.0000 0.0000 0.0000
# 4 0.0000 0.0000 0.0000 22.3461 0.0000 0.0000
# 5 0.0000 0.0000 0.0000 0.0000 -353.0680 0.0000
# 6 0.0000 0.0000 0.0000 0.0000 0.0000 29.3577
#
#
#
# Elastic Compliance Matrix: (Units=1/GPa)
#
#
# Indices 1 2 3 4 5 6 
#
# 1 0.010165 -0.005114 -0.003880 0.000000 0.000000 0.000000
# 2 -0.005114 0.017109 -0.003155 0.000000 0.000000 0.000000
# 3 -0.003880 -0.003155 0.027150 0.000000 0.000000 0.000000
# 4 0.000000 0.000000 0.000000 0.044751 0.000000 0.000000
# 5 0.000000 0.000000 0.000000 0.000000 -0.002832 0.000000
# 6 0.000000 0.000000 0.000000 0.000000 0.000000 0.034063
#
#
# Mechanical properties :
#
#
# Convention : Reuss Voigt Hill
#
# Bulk Modulus (GPa) = 33.19385 45.17578 39.18482
# Shear Modulus (GPa) = 30.34992 -49.35499 -9.50253
#
# Velocity S-wave (km/s) = 3.94096 -5.02561 -2.20517
# Velocity P-wave (km/s) = 6.13960 3.24924 3.68356
#
# Compressibility (1/GPa) = 0.03012606
#
# Stress axis : x y z
#
# Youngs Moduli (GPa) = 98.37744 58.44856 36.83226
#
# Poissons Ratio (x) = 0.29892 0.14291
# Poissons Ratio (y) = 0.50313 0.11619
# Poissons Ratio (z) = 0.38171 0.18439
#
# Static dielectric constant tensor:
#      x y z
#    x 1.708880 0.000000 0.000000 
#    y 0.000000 1.745120 0.000000 
#    z 0.000000 0.000000 1.691260 
# 
# From -- ./inp_files/39655.got.cif
#   From: 2010.05.17/outbox.cif.g08.bks.cpg/sg52_20_cif.got.tgz:39655.got - 2010.06.03 12:15:38.
