data_PCOD9411185
_publ_section_title
;
Structure prediction by ZEFSAII (Michael W. Deem and Ramdas Pophale) SiO2 
 PCOD9411185
Probable space group: P N N A
;
_chemical_formula_sum "Si O2"
_cell_formula_units_Z 32
_cell_length_a 16.522304
_cell_length_b 5.674073
_cell_length_c 15.561146
_cell_angle_alpha 90.000000
_cell_angle_beta 90.000000
_cell_angle_gamma 90.000000
_cell_volume 1458.838126
_symmetry_space_group_name_H-M "P N N A"
_symmetry_group_IT_number 52
_symmetry_cell_setting 'orthorhombic'
loop_
_space_group_symop_operation_xyz
x,y,z
1/2-x,-y,z
x,1/2-y,1/2-z
1/2-x,1/2+y,1/2-z
-x,-y,-z
1/2+x,y,-z
-x,1/2+y,1/2+z
1/2+x,1/2-y,1/2+z
loop_
_atom_site_type_symbol
_atom_site_label
_atom_site_fract_x
_atom_site_fract_y
_atom_site_fract_z
Si Si1 0.750000 0.500000 0.388113
Si Si2 0.443481 0.876364 0.158686
Si Si3 0.327160 0.852358 0.477495
Si Si4 0.469091 0.750000 0.750000
Si Si5 0.611496 0.641868 0.131765
O O1 0.698674 0.335198 0.450693
O O2 0.687397 0.686706 0.345350
O O3 0.427497 0.750000 0.250000
O O4 0.375525 0.791154 0.093818
O O5 0.529635 0.786343 0.125928
O O6 0.467865 0.143838 0.180295
O O7 0.250000 0.000000 0.442949
O O8 0.374536 0.037374 0.537084
O O9 0.411382 0.560634 0.798138
#
# Coordination Sequence:
#
# PCOD9411185 Si02
#       5
#     4   8   8   4   8
#     4  10  22  38  64  94 134 166 222 276 336 392
#     4  10  22  41  66  95 129 174 224 271 328 404
#     4  10  22  41  66  95 130 171 223 275 335 393
#     4  10  22  38  66  96 136 172 232 272 334 402
#     4  10  21  40  68  91 129 175 226 273 329 399
#
# _framework density 21.935265000000001
#
# number of rings (size 3 to 8) (size 9 to 14) (size 15 to 20)
#    0.000    2.000    0.000    2.250    0.000   12.000 
#    2.250    0.000  198.000    0.000    0.000    0.000 
#    0.000    0.000    0.000    0.000    0.000    0.000 
#
# Total GULP energy -178466.678685 kJ/mol
# GULP energy per Si atom -5577.083709 kJ/mol
# Density = 2.188534 g / cm^3
# Si number density = 21.935265 Si / 1000 Ang^3
#
#
#
# Elastic Constant Matrix: (Units=GPa)
#
#
# Indices 1 2 3 4 5 6 
#
# 1 117.4601 59.4022 82.0828 0.0000 0.0000 0.0000
# 2 59.4022 108.6582 41.7652 0.0000 0.0000 0.0000
# 3 82.0828 41.7652 101.5995 0.0000 0.0000 0.0000
# 4 0.0000 0.0000 0.0000 -145.9976 0.0000 0.0000
# 5 0.0000 0.0000 0.0000 0.0000 547.5296 0.0000
# 6 0.0000 0.0000 0.0000 0.0000 0.0000 20.6552
#
#
#
# Elastic Compliance Matrix: (Units=1/GPa)
#
#
# Indices 1 2 3 4 5 6 
#
# 1 0.022754 -0.006382 -0.015760 0.000000 0.000000 0.000000
# 2 -0.006382 0.012720 -0.000073 0.000000 0.000000 0.000000
# 3 -0.015760 -0.000073 0.022605 0.000000 0.000000 0.000000
# 4 0.000000 0.000000 0.000000 -0.006849 0.000000 0.000000
# 5 0.000000 0.000000 0.000000 0.000000 0.001826 0.000000
# 6 0.000000 0.000000 0.000000 0.000000 0.000000 0.048414
#
#
# Mechanical properties :
#
#
# Convention : Reuss Voigt Hill
#
# Bulk Modulus (GPa) = 73.26012 77.13536 75.19774
# Shear Modulus (GPa) = 33.23378 94.06861 63.65120
#
# Velocity S-wave (km/s) = 3.89663 6.55574 5.39266
# Velocity P-wave (km/s) = 7.32911 9.62003 8.55163
#
# Compressibility (1/GPa) = 0.01364999
#
# Stress axis : x y z
#
# Youngs Moduli (GPa) = 43.94814 78.61570 44.23805
#
# Poissons Ratio (x) = 0.50171 0.69718
# Poissons Ratio (y) = 0.28047 0.00323
# Poissons Ratio (z) = 0.69261 0.00574
#
# Static dielectric constant tensor:
#      x y z
#    x 1.805150 0.000000 0.000000 
#    y 0.000000 1.544450 0.000000 
#    z 0.000000 0.000000 1.797120 
# 
# From -- ./inp_files/32625.got.cif
#   From: 2010.05.17/outbox.cif.g08.bks.cpg/sg52_17_cif.got.tgz:32625.got - 2010.06.03 12:15:38.
