data_PCOD9411922
_publ_section_title
;
Structure prediction by ZEFSAII (Michael W. Deem and Ramdas Pophale) SiO2 
 PCOD9411922
Probable space group: P N N A
;
_chemical_formula_sum "Si O2"
_cell_formula_units_Z 40
_cell_length_a 9.061795
_cell_length_b 21.004814
_cell_length_c 9.231096
_cell_angle_alpha 90.000000
_cell_angle_beta 90.000000
_cell_angle_gamma 90.000000
_cell_volume 1757.058984
_symmetry_space_group_name_H-M "P N N A"
_symmetry_group_IT_number 52
_symmetry_cell_setting 'orthorhombic'
loop_
_space_group_symop_operation_xyz
x,y,z
1/2-x,-y,z
x,1/2-y,1/2-z
1/2-x,1/2+y,1/2-z
-x,-y,-z
1/2+x,y,-z
-x,1/2+y,1/2+z
1/2+x,1/2-y,1/2+z
loop_
_atom_site_type_symbol
_atom_site_label
_atom_site_fract_x
_atom_site_fract_y
_atom_site_fract_z
Si Si1 0.710727 0.821626 0.932125
Si Si2 0.237203 0.923984 0.296344
Si Si3 0.965425 0.750000 0.250000
Si Si4 0.454839 0.750000 0.250000
Si Si5 0.534203 0.926787 0.455963
Si Si6 0.791944 0.340934 0.223742
O O1 0.723537 0.889844 0.855102
O O2 0.569926 0.784556 0.866855
O O3 0.850027 0.782946 0.868074
O O4 0.707259 0.834933 0.102207
O O5 0.383756 0.903923 0.383065
O O6 0.099972 0.901436 0.393889
O O7 0.250000 0.000000 0.281998
O O8 0.855514 0.696848 0.181206
O O9 0.568184 0.701228 0.174962
O O10 0.667048 0.909806 0.342315
O O11 0.500000 0.000000 0.500000
#
# Coordination Sequence:
#
# PCOD9411922 Si02
#       6
#     8   8   4   4   8   8
#     4  11  23  43  69 103 139 181 237 292 361 428
#     4  10  23  44  67  97 136 188 237 294 349 420
#     4  10  26  38  64 110 140 180 226 298 374 426
#     4  10  22  42  64 102 146 180 226 302 368 426
#     4  10  23  44  68  96 139 186 239 291 357 423
#     4  11  23  43  69 102 139 183 233 291 355 438
#
# _framework density 22.765312999999999
#
# number of rings (size 3 to 8) (size 9 to 14) (size 15 to 20)
#    0.000    1.600    2.000    1.200    2.800    9.600 
#    0.000    7.000    0.000    0.000    0.000    0.000 
#    0.000    0.000    0.000    0.000    0.000    0.000 
#
# Total GULP energy -223373.235579 kJ/mol
# GULP energy per Si atom -5584.330889 kJ/mol
# Density = 2.271350 g / cm^3
# Si number density = 22.765313 Si / 1000 Ang^3
#
#
#
# Elastic Constant Matrix: (Units=GPa)
#
#
# Indices 1 2 3 4 5 6 
#
# 1 129.2407 55.9544 19.8681 0.0000 0.0000 0.0000
# 2 55.9544 90.6786 59.8645 0.0000 0.0000 0.0000
# 3 19.8681 59.8645 117.2327 0.0000 0.0000 0.0000
# 4 0.0000 0.0000 0.0000 39.9737 0.0000 0.0000
# 5 0.0000 0.0000 0.0000 0.0000 28.1097 0.0000
# 6 0.0000 0.0000 0.0000 0.0000 0.0000 37.7032
#
#
#
# Elastic Compliance Matrix: (Units=1/GPa)
#
#
# Indices 1 2 3 4 5 6 
#
# 1 0.010994 -0.008378 0.002415 0.000000 0.000000 0.000000
# 2 -0.008378 0.023021 -0.010336 0.000000 0.000000 0.000000
# 3 0.002415 -0.010336 0.013399 0.000000 0.000000 0.000000
# 4 0.000000 0.000000 0.000000 0.025016 0.000000 0.000000
# 5 0.000000 0.000000 0.000000 0.000000 0.035575 0.000000
# 6 0.000000 0.000000 0.000000 0.000000 0.000000 0.026523
#
#
# Mechanical properties :
#
#
# Convention : Reuss Voigt Hill
#
# Bulk Modulus (GPa) = 67.49539 67.61402 67.55471
# Shear Modulus (GPa) = 29.05889 34.58831 31.82360
#
# Velocity S-wave (km/s) = 3.57663 3.90210 3.74290
# Velocity P-wave (km/s) = 6.83879 7.07579 6.95830
#
# Compressibility (1/GPa) = 0.01481583
#
# Stress axis : x y z
#
# Youngs Moduli (GPa) = 90.96281 43.43786 74.63388
#
# Poissons Ratio (x) = 0.36393 -0.18025
# Poissons Ratio (y) = 0.76210 0.77141
# Poissons Ratio (z) = -0.21969 0.44897
#
# Static dielectric constant tensor:
#      x y z
#    x 1.893280 0.000000 0.000000 
#    y 0.000000 1.980070 0.000000 
#    z 0.000000 0.000000 1.841320 
# 
# From -- ./inp_files/7455.got.cif
#   From: 2010.05.17/outbox.cif.g08.bks.cpg/sg52_4_cif.got.tgz:7455.got - 2010.06.03 12:15:38.
