data_PCOD9411365
_publ_section_title
;
Structure prediction by ZEFSAII (Michael W. Deem and Ramdas Pophale) SiO2 
 PCOD9411365
Probable space group: P N N A
;
_chemical_formula_sum "Si O2"
_cell_formula_units_Z 48
_cell_length_a 17.254303
_cell_length_b 7.581914
_cell_length_c 14.557123
_cell_angle_alpha 90.000000
_cell_angle_beta 90.000000
_cell_angle_gamma 90.000000
_cell_volume 1904.372169
_symmetry_space_group_name_H-M "P N N A"
_symmetry_group_IT_number 52
_symmetry_cell_setting 'orthorhombic'
loop_
_space_group_symop_operation_xyz
x,y,z
1/2-x,-y,z
x,1/2-y,1/2-z
1/2-x,1/2+y,1/2-z
-x,-y,-z
1/2+x,y,-z
-x,1/2+y,1/2+z
1/2+x,1/2-y,1/2+z
loop_
_atom_site_type_symbol
_atom_site_label
_atom_site_fract_x
_atom_site_fract_y
_atom_site_fract_z
Si Si1 0.112339 0.494088 0.455138
Si Si2 0.961494 0.476715 0.874375
Si Si3 0.451293 0.344413 0.621634
Si Si4 0.662855 0.457311 0.239458
Si Si5 0.389097 0.634626 0.947687
Si Si6 0.334163 0.960473 0.238991
O O1 0.100773 0.645843 0.529548
O O2 0.139077 0.322593 0.514484
O O3 0.164897 0.520161 0.366711
O O4 0.029140 0.448910 0.408109
O O5 0.903796 0.445225 0.791968
O O6 0.012341 0.654053 0.857273
O O7 0.026513 0.335396 0.899500
O O8 0.909520 0.523288 0.962328
O O9 0.398663 0.432601 0.700538
O O10 0.750000 0.500000 0.270326
O O11 0.647309 0.250000 0.250000
O O12 0.658390 0.471712 0.128557
O O13 0.348330 0.750000 0.250000
O O14 0.250000 0.000000 0.279785
#
# Coordination Sequence:
#
# PCOD9411365 Si02
#       6
#     8   8   8   8   8   8
#     4  10  21  44  71  97 128 174 234 287 334 405
#     4  10  23  43  75 101 128 177 232 289 344 400
#     4  10  21  43  73  95 132 175 232 284 339 403
#     4  12  27  42  62 102 142 182 223 278 350 418
#     4  10  21  42  70 100 130 170 234 283 331 402
#     4  12  25  48  65 101 145 185 225 284 357 424
#
# _framework density 25.205155999999999
#
# number of rings (size 3 to 8) (size 9 to 14) (size 15 to 20)
#    0.000    1.333    5.000    1.000    2.333    1.333 
#   12.000    0.000    0.000    0.000    0.000    0.000 
#    0.000    0.000    0.000    0.000    0.000    0.000 
#
# Total GULP energy -268567.961585 kJ/mol
# GULP energy per Si atom -5595.165866 kJ/mol
# Density = 2.514779 g / cm^3
# Si number density = 25.205156 Si / 1000 Ang^3
#
#
#
# Elastic Constant Matrix: (Units=GPa)
#
#
# Indices 1 2 3 4 5 6 
#
# 1 70.0880 7.9486 57.7814 0.0000 0.0000 0.0000
# 2 7.9486 87.8917 25.5025 0.0000 0.0000 0.0000
# 3 57.7814 25.5025 160.3680 0.0000 0.0000 0.0000
# 4 0.0000 0.0000 0.0000 32.8925 0.0000 0.0000
# 5 0.0000 0.0000 0.0000 0.0000 29.1059 0.0000
# 6 0.0000 0.0000 0.0000 0.0000 0.0000 17.6851
#
#
#
# Elastic Compliance Matrix: (Units=1/GPa)
#
#
# Indices 1 2 3 4 5 6 
#
# 1 0.020304 0.000300 -0.007363 0.000000 0.000000 0.000000
# 2 0.000300 0.011932 -0.002006 0.000000 0.000000 0.000000
# 3 -0.007363 -0.002006 0.009208 0.000000 0.000000 0.000000
# 4 0.000000 0.000000 0.000000 0.030402 0.000000 0.000000
# 5 0.000000 0.000000 0.000000 0.000000 0.034357 0.000000
# 6 0.000000 0.000000 0.000000 0.000000 0.000000 0.056545
#
#
# Mechanical properties :
#
#
# Convention : Reuss Voigt Hill
#
# Bulk Modulus (GPa) = 42.90630 55.64586 49.27608
# Shear Modulus (GPa) = 26.50336 31.07771 28.79054
#
# Velocity S-wave (km/s) = 3.24621 3.51521 3.38338
# Velocity P-wave (km/s) = 5.57766 6.21294 5.90385
#
# Compressibility (1/GPa) = 0.02330660
#
# Stress axis : x y z
#
# Youngs Moduli (GPa) = 49.25074 83.80495 108.60446
#
# Poissons Ratio (x) = -0.02517 0.79971
# Poissons Ratio (y) = -0.01479 0.21784
# Poissons Ratio (z) = 0.36266 0.16809
#
# Static dielectric constant tensor:
#      x y z
#    x 1.968250 0.000000 0.000000 
#    y 0.000000 2.086400 0.000000 
#    z 0.000000 0.000000 2.074310 
# 
# From -- ./inp_files/20623.got.cif
#   From: 2010.05.17/outbox.cif.g08.bks.cpg/sg52_11_cif.got.tgz:20623.got - 2010.06.03 12:15:38.
