data_PCOD9411284
_publ_section_title
;
Structure prediction by ZEFSAII (Michael W. Deem and Ramdas Pophale) SiO2 
 PCOD9411284
Probable space group: P N N A
;
_chemical_formula_sum "Si O2"
_cell_formula_units_Z 64
_cell_length_a 9.126458
_cell_length_b 11.929856
_cell_length_c 28.707272
_cell_angle_alpha 90.000000
_cell_angle_beta 90.000000
_cell_angle_gamma 90.000000
_cell_volume 3125.571119
_symmetry_space_group_name_H-M "P N N A"
_symmetry_group_IT_number 52
_symmetry_cell_setting 'orthorhombic'
loop_
_space_group_symop_operation_xyz
x,y,z
1/2-x,-y,z
x,1/2-y,1/2-z
1/2-x,1/2+y,1/2-z
-x,-y,-z
1/2+x,y,-z
-x,1/2+y,1/2+z
1/2+x,1/2-y,1/2+z
loop_
_atom_site_type_symbol
_atom_site_label
_atom_site_fract_x
_atom_site_fract_y
_atom_site_fract_z
Si Si1 0.098838 0.942425 0.377188
Si Si2 0.256449 0.365960 0.466273
Si Si3 0.423866 0.015197 0.211818
Si Si4 0.591108 0.942589 0.302820
Si Si5 0.825005 0.200131 0.861931
Si Si6 0.432737 0.277295 0.555863
Si Si7 0.080820 0.982945 0.547072
Si Si8 0.477370 0.297245 0.659459
O O1 0.116602 0.823824 0.353733
O O2 0.250000 0.000000 0.392739
O O3 0.016754 0.027797 0.344537
O O4 0.990110 0.926299 0.419593
O O5 0.250000 0.500000 0.471706
O O6 0.335941 0.337070 0.416507
O O7 0.326368 0.311088 0.512915
O O8 0.091063 0.323697 0.459048
O O9 0.404545 0.115136 0.173801
O O10 0.250000 0.000000 0.224412
O O11 0.515394 0.008856 0.259626
O O12 0.509179 0.914337 0.186097
O O13 0.586624 0.805218 0.308501
O O14 0.750000 0.000000 0.309665
O O15 0.651318 0.215943 0.851996
O O16 0.445793 0.144099 0.561856
O O17 0.398100 0.313420 0.609284
O O18 0.250000 0.000000 0.542686
O O19 0.000000 0.000000 0.500000
#
# Coordination Sequence:
#
# PCOD9411284 Si02
#       8
#     8   8   8   8   8   8   8   8
#     4  12  22  41  67  94 131 172 220 278 335 405
#     4  11  22  40  64  96 131 172 219 273 328 395
#     4  10  23  44  72  97 124 173 232 285 341 409
#     4  12  25  45  66  96 135 175 219 281 351 409
#     4  10  21  41  69  99 128 167 226 281 330 404
#     4  11  22  40  64  93 129 174 217 265 328 393
#     4  12  24  40  61  93 131 172 220 273 334 398
#     4  10  21  44  69  92 133 175 221 280 340 401
#
# _framework density 20.476255999999999
#
# number of rings (size 3 to 8) (size 9 to 14) (size 15 to 20)
#    0.000    1.000    2.500    6.000    0.000    0.500 
#    4.500    0.625    0.000    0.000    0.000    0.000 
#    0.000    0.000    0.000    0.000    0.000    0.000 
#
# Total GULP energy -356461.328887 kJ/mol
# GULP energy per Si atom -5569.708264 kJ/mol
# Density = 2.042965 g / cm^3
# Si number density = 20.476256 Si / 1000 Ang^3
#
#
#
# Elastic Constant Matrix: (Units=GPa)
#
#
# Indices 1 2 3 4 5 6 
#
# 1 68.2279 15.5363 24.3452 0.0000 0.0000 0.0000
# 2 15.5363 89.7645 1.9441 0.0000 0.0000 0.0000
# 3 24.3452 1.9441 80.6597 0.0000 0.0000 0.0000
# 4 0.0000 0.0000 0.0000 55.1937 0.0000 0.0000
# 5 0.0000 0.0000 0.0000 0.0000 15.1743 0.0000
# 6 0.0000 0.0000 0.0000 0.0000 0.0000 21.5353
#
#
#
# Elastic Compliance Matrix: (Units=1/GPa)
#
#
# Indices 1 2 3 4 5 6 
#
# 1 0.017127 -0.002854 -0.005100 0.000000 0.000000 0.000000
# 2 -0.002854 0.011622 0.000581 0.000000 0.000000 0.000000
# 3 -0.005100 0.000581 0.013923 0.000000 0.000000 0.000000
# 4 0.000000 0.000000 0.000000 0.018118 0.000000 0.000000
# 5 0.000000 0.000000 0.000000 0.000000 0.065901 0.000000
# 6 0.000000 0.000000 0.000000 0.000000 0.000000 0.046435
#
#
# Mechanical properties :
#
#
# Convention : Reuss Voigt Hill
#
# Bulk Modulus (GPa) = 35.80973 35.81147 35.81060
# Shear Modulus (GPa) = 25.35751 31.50243 28.42997
#
# Velocity S-wave (km/s) = 3.52289 3.92661 3.73021
# Velocity P-wave (km/s) = 5.83730 6.17130 6.00662
#
# Compressibility (1/GPa) = 0.02792537
#
# Stress axis : x y z
#
# Youngs Moduli (GPa) = 58.38881 86.04668 71.82253
#
# Poissons Ratio (x) = 0.24556 0.36633
# Poissons Ratio (y) = 0.16663 -0.04175
# Poissons Ratio (z) = 0.29781 -0.05001
#
# Static dielectric constant tensor:
#      x y z
#    x 1.676360 0.000000 0.000000 
#    y 0.000000 1.720380 0.000000 
#    z 0.000000 0.000000 1.780080 
# 
# From -- ./inp_files/44613.got.cif
#   From: 2010.05.17/outbox.cif.g08.bks.cpg/sg52_23_cif.got.tgz:44613.got - 2010.06.03 12:15:38.
