data_PCOD9411714
_publ_section_title
;
Structure prediction by ZEFSAII (Michael W. Deem and Ramdas Pophale) SiO2 
 PCOD9411714
Probable space group: P N N A
;
_chemical_formula_sum "Si O2"
_cell_formula_units_Z 40
_cell_length_a 8.642083
_cell_length_b 8.267381
_cell_length_c 27.473429
_cell_angle_alpha 90.000000
_cell_angle_beta 90.000000
_cell_angle_gamma 90.000000
_cell_volume 1962.904873
_symmetry_space_group_name_H-M "P N N A"
_symmetry_group_IT_number 52
_symmetry_cell_setting 'orthorhombic'
loop_
_space_group_symop_operation_xyz
x,y,z
1/2-x,-y,z
x,1/2-y,1/2-z
1/2-x,1/2+y,1/2-z
-x,-y,-z
1/2+x,y,-z
-x,1/2+y,1/2+z
1/2+x,1/2-y,1/2+z
loop_
_atom_site_type_symbol
_atom_site_label
_atom_site_fract_x
_atom_site_fract_y
_atom_site_fract_z
Si Si1 0.573867 0.941430 0.843023
Si Si2 0.921089 0.444301 0.851856
Si Si3 0.579180 0.560043 0.244868
Si Si4 0.432429 0.437488 0.449484
Si Si5 0.926433 0.565934 0.049394
O O1 0.574498 0.748401 0.846611
O O2 0.516405 0.003414 0.896077
O O3 0.750000 0.000000 0.835944
O O4 0.475725 0.989643 0.796359
O O5 0.750000 0.500000 0.863556
O O6 0.971319 0.513772 0.800092
O O7 0.021878 0.499559 0.897791
O O8 0.750000 0.500000 0.233083
O O9 0.580078 0.750000 0.250000
O O10 0.250000 0.500000 0.450693
O O11 0.500000 0.500000 0.500000
O O12 0.501397 0.251381 0.449023
O O13 0.750000 0.500000 0.045477
O O14 0.000000 0.500000 0.000000
#
# Coordination Sequence:
#
# PCOD9411714 Si02
#       5
#     8   8   8   8   8
#     4  10  22  41  62  90 123 162 210 257 312 381
#     4  11  23  41  64  90 125 168 211 261 318 382
#     4  12  25  41  63  91 123 161 205 261 320 381
#     4  10  22  40  62  89 124 165 210 261 319 383
#     4  11  23  39  63  94 128 166 214 270 324 381
#
# _framework density 20.377962
#
# number of rings (size 3 to 8) (size 9 to 14) (size 15 to 20)
#    0.000    1.200    0.000    6.000    0.000    7.200 
#    0.000    0.000    0.000    0.000    0.000    0.000 
#    0.000    0.000    0.000    0.000    0.000    0.000 
#
# Total GULP energy -222755.218606 kJ/mol
# GULP energy per Si atom -5568.880465 kJ/mol
# Density = 2.033158 g / cm^3
# Si number density = 20.377962 Si / 1000 Ang^3
#
#
#
# Elastic Constant Matrix: (Units=GPa)
#
#
# Indices 1 2 3 4 5 6 
#
# 1 118.3097 28.2018 40.3400 0.0000 0.0000 0.0000
# 2 28.2018 91.1123 28.5347 0.0000 0.0000 0.0000
# 3 40.3400 28.5347 125.9143 0.0000 0.0000 0.0000
# 4 0.0000 0.0000 0.0000 32.1255 0.0000 0.0000
# 5 0.0000 0.0000 0.0000 0.0000 50.5413 0.0000
# 6 0.0000 0.0000 0.0000 0.0000 0.0000 31.9872
#
#
#
# Elastic Compliance Matrix: (Units=1/GPa)
#
#
# Indices 1 2 3 4 5 6 
#
# 1 0.009892 -0.002227 -0.002664 0.000000 0.000000 0.000000
# 2 -0.002227 0.012315 -0.002077 0.000000 0.000000 0.000000
# 3 -0.002664 -0.002077 0.009266 0.000000 0.000000 0.000000
# 4 0.000000 0.000000 0.000000 0.031128 0.000000 0.000000
# 5 0.000000 0.000000 0.000000 0.000000 0.019786 0.000000
# 6 0.000000 0.000000 0.000000 0.000000 0.000000 0.031262
#
#
# Mechanical properties :
#
#
# Convention : Reuss Voigt Hill
#
# Bulk Modulus (GPa) = 57.02731 58.83217 57.92974
# Shear Modulus (GPa) = 37.47200 38.81479 38.14339
#
# Velocity S-wave (km/s) = 4.29283 4.36907 4.33112
# Velocity P-wave (km/s) = 7.25374 7.37461 7.31443
#
# Compressibility (1/GPa) = 0.01753546
#
# Stress axis : x y z
#
# Youngs Moduli (GPa) = 101.09389 81.19864 107.91836
#
# Poissons Ratio (x) = 0.18086 0.28753
# Poissons Ratio (y) = 0.22517 0.22418
# Poissons Ratio (z) = 0.26935 0.16868
#
# Static dielectric constant tensor:
#      x y z
#    x 1.741770 0.000000 0.000000 
#    y 0.000000 1.760060 0.000000 
#    z 0.000000 0.000000 1.734480 
# 
# From -- ./inp_files/39165.got.cif
#   From: 2010.05.17/outbox.cif.g08.bks.cpg/sg52_20_cif.got.tgz:39165.got - 2010.06.03 12:15:38.
