data_PCOD9411379
_publ_section_title
;
Structure prediction by ZEFSAII (Michael W. Deem and Ramdas Pophale) SiO2 
 PCOD9411379
Probable space group: P N N A
;
_chemical_formula_sum "Si O2"
_cell_formula_units_Z 60
_cell_length_a 16.758284
_cell_length_b 18.774532
_cell_length_c 9.592794
_cell_angle_alpha 90.000000
_cell_angle_beta 90.000000
_cell_angle_gamma 90.000000
_cell_volume 3018.170600
_symmetry_space_group_name_H-M "P N N A"
_symmetry_group_IT_number 52
_symmetry_cell_setting 'orthorhombic'
loop_
_space_group_symop_operation_xyz
x,y,z
1/2-x,-y,z
x,1/2-y,1/2-z
1/2-x,1/2+y,1/2-z
-x,-y,-z
1/2+x,y,-z
-x,1/2+y,1/2+z
1/2+x,1/2-y,1/2+z
loop_
_atom_site_type_symbol
_atom_site_label
_atom_site_fract_x
_atom_site_fract_y
_atom_site_fract_z
Si Si1 0.138511 0.823362 0.815705
Si Si2 0.400021 0.059906 0.588700
Si Si3 0.514854 0.939488 0.699696
Si Si4 0.137692 0.051323 0.197699
Si Si5 0.957695 0.810920 0.859516
Si Si6 0.907861 0.676580 0.329654
Si Si7 0.727803 0.077361 0.094834
Si Si8 0.750000 0.500000 0.927158
O O1 0.172185 0.750000 0.750000
O O2 0.116888 0.874073 0.686614
O O3 0.196312 0.870078 0.913316
O O4 0.052689 0.807813 0.883728
O O5 0.455156 0.078639 0.455801
O O6 0.444760 0.997657 0.674671
O O7 0.317239 0.034705 0.522003
O O8 0.482391 0.870691 0.778449
O O9 0.586563 0.979029 0.782091
O O10 0.073289 0.114537 0.203190
O O11 0.201805 0.052423 0.322462
O O12 0.184349 0.059242 0.051861
O O13 0.936744 0.750000 0.750000
O O14 0.915801 0.804578 0.007957
O O15 0.899550 0.750000 0.250000
O O16 0.833450 0.623129 0.313618
O O17 0.750000 0.000000 0.154907
#
# Coordination Sequence:
#
# PCOD9411379 Si02
#       8
#     8   8   8   8   8   8   8   4
#     4  11  24  41  62  93 131 168 216 263 334 393
#     4  10  22  40  64  96 127 172 212 272 334 390
#     4  10  22  40  66  96 129 164 222 276 323 393
#     4  10  21  43  65  94 127 170 225 265 331 392
#     4  10  24  43  69  92 130 181 216 274 333 403
#     4  11  26  41  67  99 133 172 221 275 332 400
#     4  11  24  41  67  92 130 167 217 276 325 388
#     4  10  22  38  64  94 128 168 212 282 320 398
#
# _framework density 19.879591999999999
#
# number of rings (size 3 to 8) (size 9 to 14) (size 15 to 20)
#    0.000    1.600    2.000    1.200    8.400    1.067 
#    4.800    0.000    0.000    0.000    0.000    0.000 
#    0.000    0.000    0.000    0.000    0.000    0.000 
#
# Total GULP energy -335062.349660 kJ/mol
# GULP energy per Si atom -5584.372494 kJ/mol
# Density = 1.983434 g / cm^3
# Si number density = 19.879592 Si / 1000 Ang^3
#
#
#
# Elastic Constant Matrix: (Units=GPa)
#
#
# Indices 1 2 3 4 5 6 
#
# 1 79.5551 39.1841 21.1375 0.0000 0.0000 0.0000
# 2 39.1841 111.0582 55.9876 0.0000 0.0000 0.0000
# 3 21.1375 55.9876 72.9164 0.0000 0.0000 0.0000
# 4 0.0000 0.0000 0.0000 28.7114 0.0000 0.0000
# 5 0.0000 0.0000 0.0000 0.0000 20.6992 0.0000
# 6 0.0000 0.0000 0.0000 0.0000 0.0000 30.2317
#
#
#
# Elastic Compliance Matrix: (Units=1/GPa)
#
#
# Indices 1 2 3 4 5 6 
#
# 1 0.015224 -0.005134 -0.000471 0.000000 0.000000 0.000000
# 2 -0.005134 0.016422 -0.011121 0.000000 0.000000 0.000000
# 3 -0.000471 -0.011121 0.022390 0.000000 0.000000 0.000000
# 4 0.000000 0.000000 0.000000 0.034829 0.000000 0.000000
# 5 0.000000 0.000000 0.000000 0.000000 0.048311 0.000000
# 6 0.000000 0.000000 0.000000 0.000000 0.000000 0.033078
#
#
# Mechanical properties :
#
#
# Convention : Reuss Voigt Hill
#
# Bulk Modulus (GPa) = 48.58260 55.12756 51.85508
# Shear Modulus (GPa) = 23.74529 25.74316 24.74422
#
# Velocity S-wave (km/s) = 3.45984 3.60245 3.53186
# Velocity P-wave (km/s) = 6.36020 6.71524 6.54013
#
# Compressibility (1/GPa) = 0.02058350
#
# Stress axis : x y z
#
# Youngs Moduli (GPa) = 65.68707 60.89345 44.66236
#
# Poissons Ratio (x) = 0.31261 0.02105
# Poissons Ratio (y) = 0.33722 0.49670
# Poissons Ratio (z) = 0.03096 0.67721
#
# Static dielectric constant tensor:
#      x y z
#    x 1.743040 0.000000 0.000000 
#    y 0.000000 1.704620 0.000000 
#    z 0.000000 0.000000 1.697320 
# 
# From -- ./inp_files/12437.got.cif
#   From: 2010.05.17/outbox.cif.g08.bks.cpg/sg52_7_cif.got.tgz:12437.got - 2010.06.03 12:15:38.
