data_PCOD9411636
_publ_section_title
;
Structure prediction by ZEFSAII (Michael W. Deem and Ramdas Pophale) SiO2 
 PCOD9411636
Probable space group: P N N A
;
_chemical_formula_sum "Si O2"
_cell_formula_units_Z 64
_cell_length_a 5.032893
_cell_length_b 25.653212
_cell_length_c 20.917485
_cell_angle_alpha 90.000000
_cell_angle_beta 90.000000
_cell_angle_gamma 90.000000
_cell_volume 2700.653792
_symmetry_space_group_name_H-M "P N N A"
_symmetry_group_IT_number 52
_symmetry_cell_setting 'orthorhombic'
loop_
_space_group_symop_operation_xyz
x,y,z
1/2-x,-y,z
x,1/2-y,1/2-z
1/2-x,1/2+y,1/2-z
-x,-y,-z
1/2+x,y,-z
-x,1/2+y,1/2+z
1/2+x,1/2-y,1/2+z
loop_
_atom_site_type_symbol
_atom_site_label
_atom_site_fract_x
_atom_site_fract_y
_atom_site_fract_z
Si Si1 0.416370 0.310834 0.754755
Si Si2 0.492089 0.534527 0.145195
Si Si3 0.798327 0.407588 0.753776
Si Si4 0.295025 0.321019 0.040564
Si Si5 0.292528 0.299537 0.456541
Si Si6 0.080417 0.131351 0.855256
Si Si7 0.172700 0.557845 0.544310
Si Si8 0.323997 0.872879 0.638289
O O1 0.477974 0.250000 0.750000
O O2 0.663653 0.350364 0.753988
O O3 0.231649 0.331969 0.696477
O O4 0.285030 0.322721 0.823903
O O5 0.750000 0.500000 0.141818
O O6 0.405001 0.551195 0.217049
O O7 0.587201 0.589444 0.114752
O O8 0.250000 0.500000 0.117566
O O9 0.919347 0.412354 0.684361
O O10 0.033133 0.405463 0.805244
O O11 0.321386 0.261075 0.062388
O O12 0.444341 0.357838 0.090115
O O13 0.987187 0.326830 0.021729
O O14 0.001797 0.308065 0.485560
O O15 0.381482 0.334769 0.398029
O O16 0.274725 0.100685 0.902237
O O17 0.250000 0.500000 0.568790
O O18 0.380337 0.563557 0.485193
#
# Coordination Sequence:
#
# PCOD9411636 Si02
#       8
#     8   8   8   8   8   8   8   8
#     4  10  23  39  61  95 136 177 214 271 335 396
#     4  11  22  43  69  95 127 169 210 266 327 396
#     4  10  24  41  64 100 129 177 217 266 335 392
#     4  10  23  39  65  97 129 170 219 262 314 384
#     4  10  22  39  60  92 127 175 220 268 322 377
#     4  11  23  40  63  94 130 173 227 276 326 398
#     4  10  23  44  67  92 128 174 220 279 343 388
#     4  10  22  43  65  95 132 171 216 261 335 391
#
# _framework density 23.697963999999999
#
# number of rings (size 3 to 8) (size 9 to 14) (size 15 to 20)
#    0.000    1.750    1.250    1.500    7.000    3.000 
#    6.750    0.000    0.000    2.250    0.000    0.000 
#    0.000    0.000    0.000    0.000    0.000    0.000 
#
# Total GULP energy -357884.934962 kJ/mol
# GULP energy per Si atom -5591.952109 kJ/mol
# Density = 2.364403 g / cm^3
# Si number density = 23.697964 Si / 1000 Ang^3
#
#
#
# Elastic Constant Matrix: (Units=GPa)
#
#
# Indices 1 2 3 4 5 6 
#
# 1 87.9303 6.7841 -17.9801 0.0000 0.0000 0.0000
# 2 6.7841 79.3044 11.3778 0.0000 0.0000 0.0000
# 3 -17.9801 11.3778 36.1169 0.0000 0.0000 0.0000
# 4 0.0000 0.0000 0.0000 11.4946 0.0000 0.0000
# 5 0.0000 0.0000 0.0000 0.0000 22.8473 0.0000
# 6 0.0000 0.0000 0.0000 0.0000 0.0000 38.2227
#
#
#
# Elastic Compliance Matrix: (Units=1/GPa)
#
#
# Indices 1 2 3 4 5 6 
#
# 1 0.012998 -0.002137 0.007144 0.000000 0.000000 0.000000
# 2 -0.002137 0.013558 -0.005335 0.000000 0.000000 0.000000
# 3 0.007144 -0.005335 0.032925 0.000000 0.000000 0.000000
# 4 0.000000 0.000000 0.000000 0.086998 0.000000 0.000000
# 5 0.000000 0.000000 0.000000 0.000000 0.043769 0.000000
# 6 0.000000 0.000000 0.000000 0.000000 0.000000 0.026162
#
#
# Mechanical properties :
#
#
# Convention : Reuss Voigt Hill
#
# Bulk Modulus (GPa) = 16.99930 22.63504 19.81717
# Shear Modulus (GPa) = 21.12609 28.05757 24.59183
#
# Velocity S-wave (km/s) = 2.98899 3.44461 3.22486
# Velocity P-wave (km/s) = 4.37047 5.03912 4.71666
#
# Compressibility (1/GPa) = 0.05882597
#
# Stress axis : x y z
#
# Youngs Moduli (GPa) = 76.93276 73.75802 30.37194
#
# Poissons Ratio (x) = 0.15762 -0.21698
# Poissons Ratio (y) = 0.16440 0.16203
# Poissons Ratio (z) = -0.54962 0.39349
#
# Static dielectric constant tensor:
#      x y z
#    x 1.939020 0.000000 0.000000 
#    y 0.000000 1.934590 0.000000 
#    z 0.000000 0.000000 1.930900 
# 
# From -- ./inp_files/35326.got.cif
#   From: 2010.05.17/outbox.cif.g08.bks.cpg/sg52_18_cif.got.tgz:35326.got - 2010.06.03 12:15:38.
