data_PCOD9411128
_publ_section_title
;
Structure prediction by ZEFSAII (Michael W. Deem and Ramdas Pophale) SiO2 
 PCOD9411128
Probable space group: P N N A
;
_chemical_formula_sum "Si O2"
_cell_formula_units_Z 36
_cell_length_a 15.797766
_cell_length_b 5.119139
_cell_length_c 20.959003
_cell_angle_alpha 90.000000
_cell_angle_beta 90.000000
_cell_angle_gamma 90.000000
_cell_volume 1694.974694
_symmetry_space_group_name_H-M "P N N A"
_symmetry_group_IT_number 52
_symmetry_cell_setting 'orthorhombic'
loop_
_space_group_symop_operation_xyz
x,y,z
1/2-x,-y,z
x,1/2-y,1/2-z
1/2-x,1/2+y,1/2-z
-x,-y,-z
1/2+x,y,-z
-x,1/2+y,1/2+z
1/2+x,1/2-y,1/2+z
loop_
_atom_site_type_symbol
_atom_site_label
_atom_site_fract_x
_atom_site_fract_y
_atom_site_fract_z
Si Si1 0.192029 0.753441 0.490035
Si Si2 0.692563 0.752616 0.359477
Si Si3 0.250000 0.500000 0.207853
Si Si4 0.496707 0.176140 0.821461
Si Si5 0.585513 0.662489 0.872579
O O1 0.250000 0.500000 0.480070
O O2 0.171646 0.776510 0.564867
O O3 0.112184 0.753516 0.443500
O O4 0.250000 0.000000 0.472975
O O5 0.750000 0.500000 0.351026
O O6 0.604083 0.708209 0.325051
O O7 0.750000 0.000000 0.340421
O O8 0.277292 0.750000 0.250000
O O9 0.327564 0.390610 0.165981
O O10 0.523984 0.250000 0.750000
O O11 0.535883 0.390876 0.868935
O O12 0.530580 0.890652 0.839955
#
# Coordination Sequence:
#
# PCOD9411128 Si02
#       5
#     8   8   4   8   8
#     4  10  21  40  64  93 123 160 212 254 300 371
#     4  10  23  44  69  91 120 162 207 263 321 370
#     4  12  24  38  60  88 126 178 218 236 298 376
#     4  12  26  42  61  95 130 160 210 262 304 368
#     4  12  24  40  63  91 130 168 204 257 304 361
#
# _framework density 21.239256000000001
#
# number of rings (size 3 to 8) (size 9 to 14) (size 15 to 20)
#    0.000    0.889    1.111    6.667    1.556    2.667 
#    0.000    0.000    0.000    0.000    0.000    0.000 
#    0.000    0.000    0.000    0.000    0.000    0.000 
#
# Total GULP energy -201478.025963 kJ/mol
# GULP energy per Si atom -5596.611832 kJ/mol
# Density = 2.119091 g / cm^3
# Si number density = 21.239256 Si / 1000 Ang^3
#
#
#
# Elastic Constant Matrix: (Units=GPa)
#
#
# Indices 1 2 3 4 5 6 
#
# 1 121.4218 24.6956 24.6141 0.0000 0.0000 0.0000
# 2 24.6956 117.0867 16.1921 0.0000 0.0000 0.0000
# 3 24.6141 16.1921 36.9536 0.0000 0.0000 0.0000
# 4 0.0000 0.0000 0.0000 51.3257 0.0000 0.0000
# 5 0.0000 0.0000 0.0000 0.0000 948.9694 0.0000
# 6 0.0000 0.0000 0.0000 0.0000 0.0000 22.5161
#
#
#
# Elastic Compliance Matrix: (Units=1/GPa)
#
#
# Indices 1 2 3 4 5 6 
#
# 1 0.009684 -0.001225 -0.005913 0.000000 0.000000 0.000000
# 2 -0.001225 0.009246 -0.003236 0.000000 0.000000 0.000000
# 3 -0.005913 -0.003236 0.032418 0.000000 0.000000 0.000000
# 4 0.000000 0.000000 0.000000 0.019483 0.000000 0.000000
# 5 0.000000 0.000000 0.000000 0.000000 0.001054 0.000000
# 6 0.000000 0.000000 0.000000 0.000000 0.000000 0.044413
#
#
# Mechanical properties :
#
#
# Convention : Reuss Voigt Hill
#
# Bulk Modulus (GPa) = 32.67990 45.16287 38.92138
# Shear Modulus (GPa) = 33.95690 218.55958 126.25824
#
# Velocity S-wave (km/s) = 4.00281 10.15515 7.71847
# Velocity P-wave (km/s) = 6.06492 12.60209 9.88929
#
# Compressibility (1/GPa) = 0.03059985
#
# Stress axis : x y z
#
# Youngs Moduli (GPa) = 103.26752 108.14937 30.84732
#
# Poissons Ratio (x) = 0.13245 0.18241
# Poissons Ratio (y) = 0.12647 0.09982
# Poissons Ratio (z) = 0.61067 0.34995
#
# Static dielectric constant tensor:
#      x y z
#    x 2.061720 0.000000 0.000000 
#    y 0.000000 1.580200 0.000000 
#    z 0.000000 0.000000 1.816720 
# 
# From -- ./inp_files/37054.got.cif
#   From: 2010.05.17/outbox.cif.g08.bks.cpg/sg52_19_cif.got.tgz:37054.got - 2010.06.03 12:15:38.
