data_PCOD9411468
_publ_section_title
;
Structure prediction by ZEFSAII (Michael W. Deem and Ramdas Pophale) SiO2 
 PCOD9411468
Probable space group: P N N A
;
_chemical_formula_sum "Si O2"
_cell_formula_units_Z 60
_cell_length_a 22.095394
_cell_length_b 9.373250
_cell_length_c 14.194281
_cell_angle_alpha 90.000000
_cell_angle_beta 90.000000
_cell_angle_gamma 90.000000
_cell_volume 2939.715818
_symmetry_space_group_name_H-M "P N N A"
_symmetry_group_IT_number 52
_symmetry_cell_setting 'orthorhombic'
loop_
_space_group_symop_operation_xyz
x,y,z
1/2-x,-y,z
x,1/2-y,1/2-z
1/2-x,1/2+y,1/2-z
-x,-y,-z
1/2+x,y,-z
-x,1/2+y,1/2+z
1/2+x,1/2-y,1/2+z
loop_
_atom_site_type_symbol
_atom_site_label
_atom_site_fract_x
_atom_site_fract_y
_atom_site_fract_z
Si Si1 0.277715 0.153089 0.067864
Si Si2 0.986481 0.600299 0.411609
Si Si3 0.290343 0.750000 0.250000
Si Si4 0.119993 0.080070 0.356265
Si Si5 0.894447 0.255581 0.863029
Si Si6 0.794837 0.633034 0.026094
Si Si7 0.516003 0.589835 0.222066
Si Si8 0.597180 0.333725 0.150884
O O1 0.252607 0.233519 0.160773
O O2 0.348882 0.154078 0.081631
O O3 0.250000 0.000000 0.070371
O O4 0.250848 0.234745 0.978856
O O5 0.039527 0.713686 0.394569
O O6 0.988439 0.498075 0.319875
O O7 0.000000 0.500000 0.500000
O O8 0.929250 0.706885 0.416098
O O9 0.336182 0.881803 0.268192
O O10 0.154700 0.153953 0.443091
O O11 0.050505 0.109912 0.326717
O O12 0.121980 0.916514 0.386256
O O13 0.891029 0.250000 0.750000
O O14 0.750000 0.500000 0.009087
O O15 0.835928 0.623428 0.118105
O O16 0.538212 0.750000 0.250000
O O17 0.557000 0.479706 0.159582
O O18 0.596544 0.250000 0.250000
#
# Coordination Sequence:
#
# PCOD9411468 Si02
#       8
#     8   8   4   8   8   8   8   8
#     4  11  24  36  57  92 130 171 212 257 312 389
#     4  11  25  39  64  97 131 170 213 262 320 385
#     4  10  22  32  54  90 134 178 202 238 312 388
#     4  11  21  36  61  95 131 165 205 255 318 386
#     4  12  20  38  63  88 133 175 211 252 320 391
#     4  11  25  44  65  93 126 165 220 269 323 391
#     4  11  23  42  65  99 130 167 214 259 327 399
#     4  10  24  49  68  88 127 171 212 277 332 376
#
# _framework density 20.410136000000001
#
# number of rings (size 3 to 8) (size 9 to 14) (size 15 to 20)
#    0.000    1.067    5.333    1.200    3.733    1.600 
#    0.000    1.333    0.000    0.000    0.000    0.000 
#    0.000    0.000    0.000    0.000    0.000    0.000 
#
# Total GULP energy -334521.130322 kJ/mol
# GULP energy per Si atom -5575.352172 kJ/mol
# Density = 2.036368 g / cm^3
# Si number density = 20.410136 Si / 1000 Ang^3
#
#
#
# Elastic Constant Matrix: (Units=GPa)
#
#
# Indices 1 2 3 4 5 6 
#
# 1 72.2543 8.0827 19.1890 0.0000 0.0000 0.0000
# 2 8.0827 50.0025 8.7647 0.0000 0.0000 0.0000
# 3 19.1890 8.7647 33.5615 0.0000 0.0000 0.0000
# 4 0.0000 0.0000 0.0000 16.2595 0.0000 0.0000
# 5 0.0000 0.0000 0.0000 0.0000 76.3925 0.0000
# 6 0.0000 0.0000 0.0000 0.0000 0.0000 2.6708
#
#
#
# Elastic Compliance Matrix: (Units=1/GPa)
#
#
# Indices 1 2 3 4 5 6 
#
# 1 0.016371 -0.001054 -0.009085 0.000000 0.000000 0.000000
# 2 -0.001054 0.021026 -0.004889 0.000000 0.000000 0.000000
# 3 -0.009085 -0.004889 0.036267 0.000000 0.000000 0.000000
# 4 0.000000 0.000000 0.000000 0.061503 0.000000 0.000000
# 5 0.000000 0.000000 0.000000 0.000000 0.013090 0.000000
# 6 0.000000 0.000000 0.000000 0.000000 0.000000 0.374422
#
#
# Mechanical properties :
#
#
# Convention : Reuss Voigt Hill
#
# Bulk Modulus (GPa) = 22.93075 25.32120 24.12598
# Shear Modulus (GPa) = 8.81416 27.05001 17.93209
#
# Velocity S-wave (km/s) = 2.08036 3.64445 2.96731
# Velocity P-wave (km/s) = 4.12673 5.49021 4.85656
#
# Compressibility (1/GPa) = 0.04360956
#
# Stress axis : x y z
#
# Youngs Moduli (GPa) = 61.08516 47.55961 27.57330
#
# Poissons Ratio (x) = 0.05012 0.25050
# Poissons Ratio (y) = 0.06437 0.13479
# Poissons Ratio (z) = 0.55494 0.23250
#
# Static dielectric constant tensor:
#      x y z
#    x 1.770290 0.000000 0.000000 
#    y 0.000000 1.714530 0.000000 
#    z 0.000000 0.000000 1.764960 
# 
# From -- ./inp_files/29196.got.cif
#   From: 2010.05.17/outbox.cif.g08.bks.cpg/sg52_15_cif.got.tgz:29196.got - 2010.06.03 12:15:38.
