data_PCOD9411152
_publ_section_title
;
Structure prediction by ZEFSAII (Michael W. Deem and Ramdas Pophale) SiO2 
 PCOD9411152
Probable space group: P N N A
;
_chemical_formula_sum "Si O2"
_cell_formula_units_Z 56
_cell_length_a 13.587158
_cell_length_b 28.091762
_cell_length_c 5.631576
_cell_angle_alpha 90.000000
_cell_angle_beta 90.000000
_cell_angle_gamma 90.000000
_cell_volume 2149.500525
_symmetry_space_group_name_H-M "P N N A"
_symmetry_group_IT_number 52
_symmetry_cell_setting 'orthorhombic'
loop_
_space_group_symop_operation_xyz
x,y,z
1/2-x,-y,z
x,1/2-y,1/2-z
1/2-x,1/2+y,1/2-z
-x,-y,-z
1/2+x,y,-z
-x,1/2+y,1/2+z
1/2+x,1/2-y,1/2+z
loop_
_atom_site_type_symbol
_atom_site_label
_atom_site_fract_x
_atom_site_fract_y
_atom_site_fract_z
Si Si1 0.479832 0.683171 0.635879
Si Si2 0.169421 0.423183 0.002264
Si Si3 0.704980 0.800079 0.843596
Si Si4 0.491513 0.932732 0.856045
Si Si5 0.047692 0.332838 0.145482
Si Si6 0.156031 0.003892 0.125096
Si Si7 0.688070 0.850532 0.337693
O O1 0.587063 0.705573 0.619861
O O2 0.490102 0.624736 0.635046
O O3 0.427300 0.693979 0.388288
O O4 0.438593 0.694240 0.896068
O O5 0.207923 0.461555 0.182374
O O6 0.115011 0.378993 0.128752
O O7 0.255060 0.400755 0.838621
O O8 0.079232 0.446367 0.860640
O O9 0.744624 0.750000 0.750000
O O10 0.711104 0.831420 0.603308
O O11 0.729099 0.822292 0.104706
O O12 0.599295 0.954484 0.836161
O O13 0.434743 0.960523 0.062382
O O14 0.931623 0.348342 0.165730
O O15 0.250000 0.000000 0.947499
#
# Coordination Sequence:
#
# PCOD9411152 Si02
#       7
#     8   8   8   8   8   8   8
#     4   9  18  36  64  87 124 173 216 271 349 409
#     4  11  23  39  62  89 132 178 233 282 350 410
#     4  10  21  40  66 103 135 169 220 285 350 424
#     4  10  23  43  58  94 136 180 233 303 344 411
#     4   9  19  36  59  91 122 164 222 280 324 404
#     4  11  25  39  64  93 134 183 239 293 356 412
#     4  10  23  37  69  97 131 179 222 273 348 425
#
# _framework density 26.052562999999999
#
# number of rings (size 3 to 8) (size 9 to 14) (size 15 to 20)
#    0.000    2.000    1.429    0.857    8.000    1.714 
#    0.000    0.000    0.000   25.714    0.000    0.000 
#    0.000    0.000    0.000    0.000    0.000    0.000 
#
# Total GULP energy -312370.795573 kJ/mol
# GULP energy per Si atom -5578.049921 kJ/mol
# Density = 2.599327 g / cm^3
# Si number density = 26.052563 Si / 1000 Ang^3
#
#
#
# Elastic Constant Matrix: (Units=GPa)
#
#
# Indices 1 2 3 4 5 6 
#
# 1 89.2094 16.0307 -14.5419 0.0000 0.0000 0.0000
# 2 16.0307 57.7029 13.5284 0.0000 0.0000 0.0000
# 3 -14.5419 13.5284 161.4276 0.0000 0.0000 0.0000
# 4 0.0000 0.0000 0.0000 23.4247 0.0000 0.0000
# 5 0.0000 0.0000 0.0000 0.0000 2.3600 0.0000
# 6 0.0000 0.0000 0.0000 0.0000 0.0000 18.5210
#
#
#
# Elastic Compliance Matrix: (Units=1/GPa)
#
#
# Indices 1 2 3 4 5 6 
#
# 1 0.012101 -0.003690 0.001399 0.000000 0.000000 0.000000
# 2 -0.003690 0.018803 -0.001908 0.000000 0.000000 0.000000
# 3 0.001399 -0.001908 0.006481 0.000000 0.000000 0.000000
# 4 0.000000 0.000000 0.000000 0.042690 0.000000 0.000000
# 5 0.000000 0.000000 0.000000 0.000000 0.423736 0.000000
# 6 0.000000 0.000000 0.000000 0.000000 0.000000 0.053993
#
#
# Mechanical properties :
#
#
# Convention : Reuss Voigt Hill
#
# Bulk Modulus (GPa) = 34.49859 37.59714 36.04786
# Shear Modulus (GPa) = 8.68264 28.41599 18.54931
#
# Velocity S-wave (km/s) = 1.82756 3.30618 2.67122
# Velocity P-wave (km/s) = 4.20998 5.38861 4.83534
#
# Compressibility (1/GPa) = 0.02898669
#
# Stress axis : x y z
#
# Youngs Moduli (GPa) = 82.63959 53.18411 154.30457
#
# Poissons Ratio (x) = 0.19624 -0.21592
# Poissons Ratio (y) = 0.30493 0.29443
# Poissons Ratio (z) = -0.11564 0.10148
#
# Static dielectric constant tensor:
#      x y z
#    x 2.416570 0.000000 0.000000 
#    y 0.000000 2.134510 0.000000 
#    z 0.000000 0.000000 2.244980 
# 
# From -- ./inp_files/2610.got.cif
#   From: 2010.05.17/outbox.cif.g08.bks.cpg/sg52_2_cif.got.tgz:2610.got - 2010.06.03 12:15:38.
