data_PCOD9411489
_publ_section_title
;
Structure prediction by ZEFSAII (Michael W. Deem and Ramdas Pophale) SiO2 
 PCOD9411489
Probable space group: P N N A
;
_chemical_formula_sum "Si O2"
_cell_formula_units_Z 48
_cell_length_a 10.079879
_cell_length_b 15.201485
_cell_length_c 14.825365
_cell_angle_alpha 90.000000
_cell_angle_beta 90.000000
_cell_angle_gamma 90.000000
_cell_volume 2271.677772
_symmetry_space_group_name_H-M "P N N A"
_symmetry_group_IT_number 52
_symmetry_cell_setting 'orthorhombic'
loop_
_space_group_symop_operation_xyz
x,y,z
1/2-x,-y,z
x,1/2-y,1/2-z
1/2-x,1/2+y,1/2-z
-x,-y,-z
1/2+x,y,-z
-x,1/2+y,1/2+z
1/2+x,1/2-y,1/2+z
loop_
_atom_site_type_symbol
_atom_site_label
_atom_site_fract_x
_atom_site_fract_y
_atom_site_fract_z
Si Si1 0.992121 0.128043 0.597186
Si Si2 0.215076 0.603112 0.419606
Si Si3 0.120166 0.960299 0.580320
Si Si4 0.956001 0.804118 0.014051
Si Si5 0.460686 0.197758 0.660576
Si Si6 0.761775 0.894004 0.709769
O O1 0.965751 0.085819 0.497807
O O2 0.062464 0.220412 0.580316
O O3 0.855728 0.144929 0.648821
O O4 0.062349 0.041651 0.637606
O O5 0.250000 0.500000 0.427308
O O6 0.064601 0.629100 0.444971
O O7 0.317806 0.653749 0.484322
O O8 0.242461 0.628449 0.315118
O O9 0.147861 0.877149 0.642684
O O10 0.250000 0.000000 0.534236
O O11 0.020130 0.763163 0.922992
O O12 0.431238 0.250000 0.750000
O O13 0.598617 0.144013 0.676016
O O14 0.750000 0.000000 0.700859
#
# Coordination Sequence:
#
# PCOD9411489 Si02
#       6
#     8   8   8   8   8   8
#     4  10  22  35  64  98 134 163 211 266 332 401
#     4  11  25  45  70  92 131 175 230 272 325 396
#     4  10  22  37  60  95 136 169 200 264 338 392
#     4  11  24  40  65  98 128 172 218 276 330 393
#     4  11  22  40  65  91 131 169 218 265 327 392
#     4  11  21  41  69  95 125 170 223 268 321 394
#
# _framework density 21.129757000000001
#
# number of rings (size 3 to 8) (size 9 to 14) (size 15 to 20)
#    0.000    1.333    3.333    2.000    9.333    0.000 
#    0.000    2.500    0.000    0.000    0.000    0.000 
#    0.000    0.000    0.000    0.000    0.000    0.000 
#
# Total GULP energy -267925.214984 kJ/mol
# GULP energy per Si atom -5581.775312 kJ/mol
# Density = 2.108166 g / cm^3
# Si number density = 21.129757 Si / 1000 Ang^3
#
#
#
# Elastic Constant Matrix: (Units=GPa)
#
#
# Indices 1 2 3 4 5 6 
#
# 1 51.3821 13.4737 11.0614 0.0000 0.0000 0.0000
# 2 13.4737 93.3345 18.5245 0.0000 0.0000 0.0000
# 3 11.0614 18.5245 58.7273 0.0000 0.0000 0.0000
# 4 0.0000 0.0000 0.0000 23.8355 0.0000 0.0000
# 5 0.0000 0.0000 0.0000 0.0000 30.1417 0.0000
# 6 0.0000 0.0000 0.0000 0.0000 0.0000 39.4287
#
#
#
# Elastic Compliance Matrix: (Units=1/GPa)
#
#
# Indices 1 2 3 4 5 6 
#
# 1 0.020764 -0.002370 -0.003164 0.000000 0.000000 0.000000
# 2 -0.002370 0.011700 -0.003244 0.000000 0.000000 0.000000
# 3 -0.003164 -0.003244 0.018647 0.000000 0.000000 0.000000
# 4 0.000000 0.000000 0.000000 0.041954 0.000000 0.000000
# 5 0.000000 0.000000 0.000000 0.000000 0.033177 0.000000
# 6 0.000000 0.000000 0.000000 0.000000 0.000000 0.025362
#
#
# Mechanical properties :
#
#
# Convention : Reuss Voigt Hill
#
# Bulk Modulus (GPa) = 29.80031 32.17366 30.98699
# Shear Modulus (GPa) = 27.72461 29.37348 28.54904
#
# Velocity S-wave (km/s) = 3.62624 3.73251 3.67976
# Velocity P-wave (km/s) = 5.62734 5.81681 5.72286
#
# Compressibility (1/GPa) = 0.03355670
#
# Stress axis : x y z
#
# Youngs Moduli (GPa) = 48.15927 85.46914 53.62779
#
# Poissons Ratio (x) = 0.20253 0.16965
# Poissons Ratio (y) = 0.11412 0.17398
# Poissons Ratio (z) = 0.15235 0.27728
#
# Static dielectric constant tensor:
#      x y z
#    x 1.789930 0.000000 0.000000 
#    y 0.000000 1.832660 0.000000 
#    z 0.000000 0.000000 1.758310 
# 
# From -- ./inp_files/26050.got.cif
#   From: 2010.05.17/outbox.cif.g08.bks.cpg/sg52_14_cif.got.tgz:26050.got - 2010.06.03 12:15:38.
