data_PCOD9411650
_publ_section_title
;
Structure prediction by ZEFSAII (Michael W. Deem and Ramdas Pophale) SiO2 
 PCOD9411650
Probable space group: P N N A
;
_chemical_formula_sum "Si O2"
_cell_formula_units_Z 44
_cell_length_a 13.202817
_cell_length_b 13.535034
_cell_length_c 13.147789
_cell_angle_alpha 90.000000
_cell_angle_beta 90.000000
_cell_angle_gamma 90.000000
_cell_volume 2349.517480
_symmetry_space_group_name_H-M "P N N A"
_symmetry_group_IT_number 52
_symmetry_cell_setting 'orthorhombic'
loop_
_space_group_symop_operation_xyz
x,y,z
1/2-x,-y,z
x,1/2-y,1/2-z
1/2-x,1/2+y,1/2-z
-x,-y,-z
1/2+x,y,-z
-x,1/2+y,1/2+z
1/2+x,1/2-y,1/2+z
loop_
_atom_site_type_symbol
_atom_site_label
_atom_site_fract_x
_atom_site_fract_y
_atom_site_fract_z
Si Si1 0.180157 0.798415 0.050217
Si Si2 0.750000 0.000000 0.850243
Si Si3 0.611483 0.193835 0.562933
Si Si4 0.489368 0.695345 0.847211
Si Si5 0.062613 0.821622 0.840767
Si Si6 0.949464 0.975712 0.716784
O O1 0.222528 0.903713 0.085136
O O2 0.270491 0.720039 0.066422
O O3 0.086850 0.760105 0.118554
O O4 0.138226 0.812809 0.935648
O O5 0.652960 0.020904 0.781225
O O6 0.580991 0.190525 0.445473
O O7 0.544832 0.279038 0.617576
O O8 0.575396 0.095538 0.621416
O O9 0.442650 0.750000 0.750000
O O10 0.521241 0.584843 0.817784
O O11 0.097048 0.750000 0.750000
O O12 0.035962 0.925795 0.787940
#
# Coordination Sequence:
#
# PCOD9411650 Si02
#       6
#     8   4   8   8   8   8
#     4  11  23  39  59  93 122 158 209 254 304 364
#     4  12  22  34  66  94 120 160 206 268 302 362
#     4  10  22  39  62  87 123 163 201 249 309 364
#     4  11  23  39  61  91 125 160 208 258 301 365
#     4   9  21  40  61  84 124 162 196 249 307 370
#     4  11  21  38  63  91 122 160 209 251 315 360
#
# _framework density 18.727250000000002
#
# number of rings (size 3 to 8) (size 9 to 14) (size 15 to 20)
#    0.000    1.455    3.636    1.636    0.000    2.909 
#    0.000    0.000    0.000    2.182    0.000    0.000 
#    0.000    0.000    0.000    0.000    0.000    0.000 
#
# Total GULP energy -245661.697661 kJ/mol
# GULP energy per Si atom -5583.220401 kJ/mol
# Density = 1.868463 g / cm^3
# Si number density = 18.727250 Si / 1000 Ang^3
#
#
#
# Elastic Constant Matrix: (Units=GPa)
#
#
# Indices 1 2 3 4 5 6 
#
# 1 6.4553 -13.4764 -9.1296 0.0000 0.0000 0.0000
# 2 -13.4764 88.3821 23.7205 0.0000 0.0000 0.0000
# 3 -9.1296 23.7205 109.5480 0.0000 0.0000 0.0000
# 4 0.0000 0.0000 0.0000 21.7310 0.0000 0.0000
# 5 0.0000 0.0000 0.0000 0.0000 -6.1226 0.0000
# 6 0.0000 0.0000 0.0000 0.0000 0.0000 60.0273
#
#
#
# Elastic Compliance Matrix: (Units=1/GPa)
#
#
# Indices 1 2 3 4 5 6 
#
# 1 0.243553 0.033644 0.013012 0.000000 0.000000 0.000000
# 2 0.033644 0.016660 -0.000804 0.000000 0.000000 0.000000
# 3 0.013012 -0.000804 0.010387 0.000000 0.000000 0.000000
# 4 0.000000 0.000000 0.000000 0.046017 0.000000 0.000000
# 5 0.000000 0.000000 0.000000 0.000000 -0.163329 0.000000
# 6 0.000000 0.000000 0.000000 0.000000 0.000000 0.016659
#
#
# Mechanical properties :
#
#
# Convention : Reuss Voigt Hill
#
# Bulk Modulus (GPa) = 2.76009 22.95715 12.85862
# Shear Modulus (GPa) = 25.12440 28.67852 26.90146
#
# Velocity S-wave (km/s) = 3.66675 3.91753 3.79421
# Velocity P-wave (km/s) = 4.40498 5.72259 5.10646
#
# Compressibility (1/GPa) = 0.36230663
#
# Stress axis : x y z
#
# Youngs Moduli (GPa) = 4.10588 60.02327 96.27545
#
# Poissons Ratio (x) = -2.01944 -1.25278
# Poissons Ratio (y) = -0.13814 0.07736
# Poissons Ratio (z) = -0.05343 0.04823
#
# Static dielectric constant tensor:
#      x y z
#    x 1.634090 0.000000 0.000000 
#    y 0.000000 1.453400 0.000000 
#    z 0.000000 0.000000 1.640780 
# 
# From -- ./inp_files/19457.got.cif
#   From: 2010.05.17/outbox.cif.g08.bks.cpg/sg52_10_cif.got.tgz:19457.got - 2010.06.03 12:15:38.
