data_PCOD9411408
_publ_section_title
;
Structure prediction by ZEFSAII (Michael W. Deem and Ramdas Pophale) SiO2 
 PCOD9411408
Probable space group: P N N A
;
_chemical_formula_sum "Si O2"
_cell_formula_units_Z 48
_cell_length_a 10.116304
_cell_length_b 16.479873
_cell_length_c 14.037788
_cell_angle_alpha 90.000000
_cell_angle_beta 90.000000
_cell_angle_gamma 90.000000
_cell_volume 2340.315514
_symmetry_space_group_name_H-M "P N N A"
_symmetry_group_IT_number 52
_symmetry_cell_setting 'orthorhombic'
loop_
_space_group_symop_operation_xyz
x,y,z
1/2-x,-y,z
x,1/2-y,1/2-z
1/2-x,1/2+y,1/2-z
-x,-y,-z
1/2+x,y,-z
-x,1/2+y,1/2+z
1/2+x,1/2-y,1/2+z
loop_
_atom_site_type_symbol
_atom_site_label
_atom_site_fract_x
_atom_site_fract_y
_atom_site_fract_z
Si Si1 0.114581 0.915263 0.085464
Si Si2 0.978781 0.319313 0.997684
Si Si3 0.100612 0.294044 0.654812
Si Si4 0.109654 0.837614 0.885778
Si Si5 0.857942 0.909912 0.810873
Si Si6 0.778550 0.591444 0.909276
O O1 0.248157 0.870173 0.120281
O O2 0.990252 0.868796 0.126272
O O3 0.117905 0.002892 0.136726
O O4 0.113320 0.904947 0.971468
O O5 0.849671 0.357095 0.944879
O O6 0.076192 0.273014 0.925228
O O7 0.927265 0.248126 0.066633
O O8 0.079228 0.379881 0.050609
O O9 0.057155 0.250000 0.750000
O O10 0.248918 0.326113 0.661019
O O11 0.995084 0.863191 0.814061
O O12 0.796570 0.910625 0.705690
O O13 0.750000 0.500000 0.941495
#
# Coordination Sequence:
#
# PCOD9411408 Si02
#       6
#     8   8   8   8   8   8
#     4  10  21  44  64  97 137 175 223 282 344 410
#     4  11  25  46  69 100 138 183 228 290 346 416
#     4  11  24  41  65  98 136 178 228 279 343 406
#     4  11  24  42  67 102 133 181 223 285 346 408
#     4  11  24  41  71 104 134 178 234 279 346 416
#     4  12  25  47  71 100 138 182 237 287 352 421
#
# _framework density 20.510055000000001
#
# number of rings (size 3 to 8) (size 9 to 14) (size 15 to 20)
#    0.000    1.000    3.333    4.000    4.667    2.000 
#    0.000    0.000    0.000    0.000    0.000    0.000 
#    0.000    0.000    0.000    0.000    0.000    0.000 
#
# Total GULP energy -267937.433314 kJ/mol
# GULP energy per Si atom -5582.029861 kJ/mol
# Density = 2.046337 g / cm^3
# Si number density = 20.510055 Si / 1000 Ang^3
#
#
#
# Elastic Constant Matrix: (Units=GPa)
#
#
# Indices 1 2 3 4 5 6 
#
# 1 64.3222 -0.3103 3.6608 0.0000 0.0000 0.0000
# 2 -0.3103 62.1925 13.4544 0.0000 0.0000 0.0000
# 3 3.6608 13.4544 39.2885 0.0000 0.0000 0.0000
# 4 0.0000 0.0000 0.0000 -0.3189 0.0000 0.0000
# 5 0.0000 0.0000 0.0000 0.0000 18.8272 0.0000
# 6 0.0000 0.0000 0.0000 0.0000 0.0000 65.9723
#
#
#
# Elastic Compliance Matrix: (Units=1/GPa)
#
#
# Indices 1 2 3 4 5 6 
#
# 1 0.015640 0.000425 -0.001603 0.000000 0.000000 0.000000
# 2 0.000425 0.017377 -0.005990 0.000000 0.000000 0.000000
# 3 -0.001603 -0.005990 0.027653 0.000000 0.000000 0.000000
# 4 0.000000 0.000000 0.000000 -3.135906 0.000000 0.000000
# 5 0.000000 0.000000 0.000000 0.000000 0.053115 0.000000
# 6 0.000000 0.000000 0.000000 0.000000 0.000000 0.015158
#
#
# Mechanical properties :
#
#
# Convention : Reuss Voigt Hill
#
# Bulk Modulus (GPa) = 21.58248 22.15700 21.86974
# Shear Modulus (GPa) = -1.67944 26.82935 12.57495
#
# Velocity S-wave (km/s) = -0.90588 3.62070 2.47880
# Velocity P-wave (km/s) = 3.07434 5.32031 4.34496
#
# Compressibility (1/GPa) = 0.04633388
#
# Stress axis : x y z
#
# Youngs Moduli (GPa) = 63.93863 57.54680 36.16180
#
# Poissons Ratio (x) = -0.02444 0.05796
# Poissons Ratio (y) = -0.02716 0.21662
# Poissons Ratio (z) = 0.10248 0.34473
#
# Static dielectric constant tensor:
#      x y z
#    x 1.410450 0.000000 0.000000 
#    y 0.000000 1.772130 0.000000 
#    z 0.000000 0.000000 1.702880 
# 
# From -- ./inp_files/24748.got.cif
#   From: 2010.05.17/outbox.cif.g08.bks.cpg/sg52_13_cif.got.tgz:24748.got - 2010.06.03 12:15:38.
