data_PCOD9411240
_publ_section_title
;
Structure prediction by ZEFSAII (Michael W. Deem and Ramdas Pophale) SiO2 
 PCOD9411240
Probable space group: P N N A
;
_chemical_formula_sum "Si O2"
_cell_formula_units_Z 32
_cell_length_a 24.002399
_cell_length_b 8.241799
_cell_length_c 7.823376
_cell_angle_alpha 90.000000
_cell_angle_beta 90.000000
_cell_angle_gamma 90.000000
_cell_volume 1547.643304
_symmetry_space_group_name_H-M "P N N A"
_symmetry_group_IT_number 52
_symmetry_cell_setting 'orthorhombic'
loop_
_space_group_symop_operation_xyz
x,y,z
1/2-x,-y,z
x,1/2-y,1/2-z
1/2-x,1/2+y,1/2-z
-x,-y,-z
1/2+x,y,-z
-x,1/2+y,1/2+z
1/2+x,1/2-y,1/2+z
loop_
_atom_site_type_symbol
_atom_site_label
_atom_site_fract_x
_atom_site_fract_y
_atom_site_fract_z
Si Si1 0.372601 0.027230 0.633998
Si Si2 0.710184 0.346405 0.923107
Si Si3 0.223864 0.750000 0.750000
Si Si4 0.451469 0.750000 0.750000
Si Si5 0.980687 0.181615 0.437356
O O1 0.348746 0.917760 0.481744
O O2 0.411576 0.906447 0.739100
O O3 0.318537 0.098684 0.728650
O O4 0.413505 0.168798 0.567868
O O5 0.750000 0.500000 0.894583
O O6 0.706242 0.250000 0.750000
O O7 0.737833 0.248863 0.081643
O O8 0.490928 0.718122 0.587476
O O9 0.997477 0.250000 0.250000
O O10 0.000000 0.000000 0.500000
#
# Coordination Sequence:
#
# PCOD9411240 Si02
#       5
#     8   8   4   4   8
#     4  10  21  41  65  91 128 168 214 265 329 389
#     4  10  23  41  64  94 126 165 215 269 326 399
#     4  10  21  44  62  90 130 164 211 270 328 392
#     4  10  23  40  66  94 126 178 211 270 332 390
#     4  10  22  42  62  93 130 166 218 273 319 402
#
# _framework density 20.676600000000001
#
# number of rings (size 3 to 8) (size 9 to 14) (size 15 to 20)
#    0.000    2.000    1.250    0.750    0.000   13.000 
#    9.000    5.000    0.000    0.000    0.000    0.000 
#    0.000    0.000    0.000    0.000    0.000    0.000 
#
# Total GULP energy -178434.742014 kJ/mol
# GULP energy per Si atom -5576.085688 kJ/mol
# Density = 2.062954 g / cm^3
# Si number density = 20.676600 Si / 1000 Ang^3
#
#
#
# Elastic Constant Matrix: (Units=GPa)
#
#
# Indices 1 2 3 4 5 6 
#
# 1 89.0637 25.3451 69.5701 0.0000 0.0000 0.0000
# 2 25.3451 59.0212 62.3891 0.0000 0.0000 0.0000
# 3 69.5701 62.3891 199.9430 0.0000 0.0000 0.0000
# 4 0.0000 0.0000 0.0000 43.1857 0.0000 0.0000
# 5 0.0000 0.0000 0.0000 0.0000 32.8199 0.0000
# 6 0.0000 0.0000 0.0000 0.0000 0.0000 33.4400
#
#
#
# Elastic Compliance Matrix: (Units=1/GPa)
#
#
# Indices 1 2 3 4 5 6 
#
# 1 0.015499 -0.001425 -0.004948 0.000000 0.000000 0.000000
# 2 -0.001425 0.025413 -0.007434 0.000000 0.000000 0.000000
# 3 -0.004948 -0.007434 0.009043 0.000000 0.000000 0.000000
# 4 0.000000 0.000000 0.000000 0.023156 0.000000 0.000000
# 5 0.000000 0.000000 0.000000 0.000000 0.030469 0.000000
# 6 0.000000 0.000000 0.000000 0.000000 0.000000 0.029904
#
#
# Mechanical properties :
#
#
# Convention : Reuss Voigt Hill
#
# Bulk Modulus (GPa) = 44.76207 73.62628 59.19417
# Shear Modulus (GPa) = 29.66573 34.60401 32.13487
#
# Velocity S-wave (km/s) = 3.79192 4.09538 3.94657
# Velocity P-wave (km/s) = 6.39274 7.61897 7.03263
#
# Compressibility (1/GPa) = 0.02234034
#
# Stress axis : x y z
#
# Youngs Moduli (GPa) = 64.52234 39.34976 110.58605
#
# Poissons Ratio (x) = 0.05608 0.54718
# Poissons Ratio (y) = 0.09195 0.82209
# Poissons Ratio (z) = 0.31926 0.29252
#
# Static dielectric constant tensor:
#      x y z
#    x 1.762980 0.000000 0.000000 
#    y 0.000000 1.859640 0.000000 
#    z 0.000000 0.000000 1.764960 
# 
# From -- ./inp_files/13904.got.cif
#   From: 2010.05.17/outbox.cif.g08.bks.cpg/sg52_7_cif.got.tgz:13904.got - 2010.06.03 12:15:38.
