data_PCOD9411102
_publ_section_title
;
Structure prediction by ZEFSAII (Michael W. Deem and Ramdas Pophale) SiO2 
 PCOD9411102
Probable space group: P N N A
;
_chemical_formula_sum "Si O2"
_cell_formula_units_Z 48
_cell_length_a 8.339221
_cell_length_b 9.102882
_cell_length_c 32.352501
_cell_angle_alpha 90.000000
_cell_angle_beta 90.000000
_cell_angle_gamma 90.000000
_cell_volume 2455.908915
_symmetry_space_group_name_H-M "P N N A"
_symmetry_group_IT_number 52
_symmetry_cell_setting 'orthorhombic'
loop_
_space_group_symop_operation_xyz
x,y,z
1/2-x,-y,z
x,1/2-y,1/2-z
1/2-x,1/2+y,1/2-z
-x,-y,-z
1/2+x,y,-z
-x,1/2+y,1/2+z
1/2+x,1/2-y,1/2+z
loop_
_atom_site_type_symbol
_atom_site_label
_atom_site_fract_x
_atom_site_fract_y
_atom_site_fract_z
Si Si1 0.925265 0.654294 0.483532
Si Si2 0.729066 0.663226 0.399830
Si Si3 0.273208 0.329832 0.047981
Si Si4 0.701335 0.829945 0.706517
Si Si5 0.094426 0.193187 0.371406
Si Si6 0.404468 0.592313 0.845476
O O1 0.789105 0.652288 0.447474
O O2 0.854713 0.734738 0.523038
O O3 0.000000 0.500000 0.500000
O O4 0.060209 0.758736 0.464404
O O5 0.750000 0.500000 0.382216
O O6 0.545631 0.706985 0.390569
O O7 0.834604 0.786513 0.376688
O O8 0.250000 0.500000 0.036668
O O9 0.237684 0.312343 0.096125
O O10 0.709369 0.750000 0.750000
O O11 0.827853 0.767054 0.672685
O O12 0.521862 0.832208 0.687561
O O13 0.750000 0.000000 0.711745
O O14 0.013120 0.032515 0.367291
O O15 0.250000 0.500000 0.828709
#
# Coordination Sequence:
#
# PCOD9411102 Si02
#       6
#     8   8   8   8   8   8
#     4  12  25  40  56  84 127 163 197 256 321 364
#     4  11  22  38  59  86 120 159 205 248 300 365
#     4  12  23  38  61  85 111 154 210 252 294 361
#     4  10  21  40  64  91 122 155 196 247 307 368
#     4  10  21  40  63  86 117 157 202 252 306 356
#     4   9  20  40  63  88 121 160 199 251 306 360
#
# _framework density 19.544699000000001
#
# number of rings (size 3 to 8) (size 9 to 14) (size 15 to 20)
#    0.000    1.333    0.000    7.500    0.000    3.333 
#    0.000   11.667    0.000    0.000    0.000    0.000 
#    0.000    0.000    0.000    0.000    0.000    0.000 
#
# Total GULP energy -267986.823964 kJ/mol
# GULP energy per Si atom -5583.058833 kJ/mol
# Density = 1.950021 g / cm^3
# Si number density = 19.544699 Si / 1000 Ang^3
#
#
#
# Elastic Constant Matrix: (Units=GPa)
#
#
# Indices 1 2 3 4 5 6 
#
# 1 101.7110 29.0622 64.5350 0.0000 0.0000 0.0000
# 2 29.0622 87.2764 43.9666 0.0000 0.0000 0.0000
# 3 64.5350 43.9666 124.6106 0.0000 0.0000 0.0000
# 4 0.0000 0.0000 0.0000 30.1743 0.0000 0.0000
# 5 0.0000 0.0000 0.0000 0.0000 29.4305 0.0000
# 6 0.0000 0.0000 0.0000 0.0000 0.0000 37.7310
#
#
#
# Elastic Compliance Matrix: (Units=1/GPa)
#
#
# Indices 1 2 3 4 5 6 
#
# 1 0.014763 -0.001294 -0.007189 0.000000 0.000000 0.000000
# 2 -0.001294 0.014048 -0.004286 0.000000 0.000000 0.000000
# 3 -0.007189 -0.004286 0.013260 0.000000 0.000000 0.000000
# 4 0.000000 0.000000 0.000000 0.033141 0.000000 0.000000
# 5 0.000000 0.000000 0.000000 0.000000 0.033978 0.000000
# 6 0.000000 0.000000 0.000000 0.000000 0.000000 0.026503
#
#
# Mechanical properties :
#
#
# Convention : Reuss Voigt Hill
#
# Bulk Modulus (GPa) = 60.48758 65.41398 62.95078
# Shear Modulus (GPa) = 29.98605 31.20275 30.59440
#
# Velocity S-wave (km/s) = 3.92117 3.99993 3.96075
# Velocity P-wave (km/s) = 7.17749 7.40771 7.29351
#
# Compressibility (1/GPa) = 0.01653232
#
# Stress axis : x y z
#
# Youngs Moduli (GPa) = 67.73705 71.18378 75.41227
#
# Poissons Ratio (x) = 0.09214 0.54213
# Poissons Ratio (y) = 0.08768 0.32324
# Poissons Ratio (z) = 0.48696 0.30511
#
# Static dielectric constant tensor:
#      x y z
#    x 1.712230 0.000000 0.000000 
#    y 0.000000 1.672080 0.000000 
#    z 0.000000 0.000000 1.664400 
# 
# From -- ./inp_files/44370.got.cif
#   From: 2010.05.17/outbox.cif.g08.bks.cpg/sg52_23_cif.got.tgz:44370.got - 2010.06.03 12:15:38.
