data_PCOD9411169
_publ_section_title
;
Structure prediction by ZEFSAII (Michael W. Deem and Ramdas Pophale) SiO2 
 PCOD9411169
Probable space group: P N N A
;
_chemical_formula_sum "Si O2"
_cell_formula_units_Z 32
_cell_length_a 15.683099
_cell_length_b 5.094781
_cell_length_c 18.694578
_cell_angle_alpha 90.000000
_cell_angle_beta 90.000000
_cell_angle_gamma 90.000000
_cell_volume 1493.733326
_symmetry_space_group_name_H-M "P N N A"
_symmetry_group_IT_number 52
_symmetry_cell_setting 'orthorhombic'
loop_
_space_group_symop_operation_xyz
x,y,z
1/2-x,-y,z
x,1/2-y,1/2-z
1/2-x,1/2+y,1/2-z
-x,-y,-z
1/2+x,y,-z
-x,1/2+y,1/2+z
1/2+x,1/2-y,1/2+z
loop_
_atom_site_type_symbol
_atom_site_label
_atom_site_fract_x
_atom_site_fract_y
_atom_site_fract_z
Si Si1 0.155144 0.116256 0.957111
Si Si2 0.411368 0.121044 0.472398
Si Si3 0.353886 0.994346 0.793531
Si Si4 0.687434 0.755451 0.667969
O O1 0.250000 0.000000 0.963404
O O2 0.126479 0.068450 0.875534
O O3 0.151311 0.410149 0.988154
O O4 0.097397 0.916071 0.000313
O O5 0.385266 0.167063 0.389690
O O6 0.500000 0.000000 0.500000
O O7 0.382852 0.250000 0.750000
O O8 0.250000 0.000000 0.791023
O O9 0.386652 0.750000 0.750000
O O10 0.750000 0.500000 0.653395
O O11 0.654877 0.750000 0.750000
O O12 0.750000 0.000000 0.664455
#
# Coordination Sequence:
#
# PCOD9411169 Si02
#       4
#     8   8   8   8
#     4  11  22  38  62  87 115 161 213 253 302 379
#     4  12  24  39  59  92 131 161 196 261 338 393
#     4   9  17  31  52  80 112 145 190 243 282 331
#     4  10  21  40  67  93 120 165 224 275 316 375
#
# _framework density 21.422834999999999
#
# number of rings (size 3 to 8) (size 9 to 14) (size 15 to 20)
#    0.000    1.500    0.000    6.750    0.000    4.000 
#    0.000    3.750    0.000    0.000    0.000    0.000 
#    0.000    0.000    0.000    0.000    0.000    0.000 
#
# Total GULP energy -178277.922144 kJ/mol
# GULP energy per Si atom -5571.185067 kJ/mol
# Density = 2.137408 g / cm^3
# Si number density = 21.422835 Si / 1000 Ang^3
#
#
#
# Elastic Constant Matrix: (Units=GPa)
#
#
# Indices 1 2 3 4 5 6 
#
# 1 70.4973 6.7953 50.2686 0.0000 0.0000 0.0000
# 2 6.7953 137.6460 44.2563 0.0000 0.0000 0.0000
# 3 50.2686 44.2563 189.5540 0.0000 0.0000 0.0000
# 4 0.0000 0.0000 0.0000 19.7343 0.0000 0.0000
# 5 0.0000 0.0000 0.0000 0.0000 -22.4086 0.0000
# 6 0.0000 0.0000 0.0000 0.0000 0.0000 8.5246
#
#
#
# Elastic Compliance Matrix: (Units=1/GPa)
#
#
# Indices 1 2 3 4 5 6 
#
# 1 0.017552 0.000681 -0.004814 0.000000 0.000000 0.000000
# 2 0.000681 0.007881 -0.002021 0.000000 0.000000 0.000000
# 3 -0.004814 -0.002021 0.007024 0.000000 0.000000 0.000000
# 4 0.000000 0.000000 0.000000 0.050673 0.000000 0.000000
# 5 0.000000 0.000000 0.000000 0.000000 -0.044626 0.000000
# 6 0.000000 0.000000 0.000000 0.000000 0.000000 0.117307
#
#
# Mechanical properties :
#
#
# Convention : Reuss Voigt Hill
#
# Bulk Modulus (GPa) = 49.62689 66.70419 58.16554
# Shear Modulus (GPa) = 28.59850 20.92853 24.76351
#
# Velocity S-wave (km/s) = 3.65767 3.12897 3.40360
# Velocity P-wave (km/s) = 6.40732 6.65271 6.53117
#
# Compressibility (1/GPa) = 0.02015037
#
# Stress axis : x y z
#
# Youngs Moduli (GPa) = 56.97462 126.88609 142.37148
#
# Poissons Ratio (x) = -0.08644 0.68533
# Poissons Ratio (y) = -0.03881 0.28769
# Poissons Ratio (z) = 0.27426 0.25640
#
# Static dielectric constant tensor:
#      x y z
#    x 1.806870 0.000000 0.000000 
#    y 0.000000 1.738180 0.000000 
#    z 0.000000 0.000000 1.118830 
# 
# From -- ./inp_files/32705.got.cif
#   From: 2010.05.17/outbox.cif.g08.bks.cpg/sg52_17_cif.got.tgz:32705.got - 2010.06.03 12:15:38.
