data_PCOD9411520
_publ_section_title
;
Structure prediction by ZEFSAII (Michael W. Deem and Ramdas Pophale) SiO2 
 PCOD9411520
Probable space group: P N N A
;
_chemical_formula_sum "Si O2"
_cell_formula_units_Z 56
_cell_length_a 14.424520
_cell_length_b 6.308141
_cell_length_c 29.746054
_cell_angle_alpha 90.000000
_cell_angle_beta 90.000000
_cell_angle_gamma 90.000000
_cell_volume 2706.650150
_symmetry_space_group_name_H-M "P N N A"
_symmetry_group_IT_number 52
_symmetry_cell_setting 'orthorhombic'
loop_
_space_group_symop_operation_xyz
x,y,z
1/2-x,-y,z
x,1/2-y,1/2-z
1/2-x,1/2+y,1/2-z
-x,-y,-z
1/2+x,y,-z
-x,1/2+y,1/2+z
1/2+x,1/2-y,1/2+z
loop_
_atom_site_type_symbol
_atom_site_label
_atom_site_fract_x
_atom_site_fract_y
_atom_site_fract_z
Si Si1 0.335578 0.411980 0.857903
Si Si2 0.668700 0.668446 0.546640
Si Si3 0.141778 0.570870 0.712740
Si Si4 0.678204 0.804554 0.053140
Si Si5 0.643851 0.989601 0.629337
Si Si6 0.471962 0.889096 0.088257
Si Si7 0.482750 0.739107 0.662954
O O1 0.250000 0.500000 0.828876
O O2 0.369739 0.204369 0.832959
O O3 0.293246 0.330714 0.904181
O O4 0.410544 0.596109 0.859711
O O5 0.750000 0.500000 0.556207
O O6 0.681076 0.774262 0.498064
O O7 0.656418 0.838847 0.585651
O O8 0.580992 0.513650 0.548846
O O9 0.250000 0.500000 0.716868
O O10 0.119084 0.750000 0.750000
O O11 0.071567 0.373200 0.704430
O O12 0.570460 0.831242 0.066784
O O13 0.750000 0.000000 0.052963
O O14 0.576133 0.880354 0.666197
O O15 0.750000 0.000000 0.646695
O O16 0.590859 0.199210 0.609673
O O17 0.489097 0.057775 0.127842
#
# Coordination Sequence:
#
# PCOD9411520 Si02
#       7
#     8   8   8   8   8   8   8
#     4  12  22  40  61  90 135 177 214 258 319 400
#     4  10  22  37  58  87 126 175 233 292 337 382
#     4  12  25  42  67 101 141 175 208 250 321 413
#     4  11  22  38  56  87 131 181 223 275 338 400
#     4  11  22  40  66  91 130 173 239 293 335 382
#     4  11  21  41  60  88 126 173 226 283 334 390
#     4  11  23  40  65  94 134 171 219 271 329 390
#
# _framework density 20.689782999999998
#
# number of rings (size 3 to 8) (size 9 to 14) (size 15 to 20)
#    0.000    0.857    5.714    2.143    0.000    1.143 
#    2.571    0.000    0.000    0.000    0.000    0.000 
#   60.000    0.000    0.000    0.000    0.000    0.000 
#
# Total GULP energy -311824.241481 kJ/mol
# GULP energy per Si atom -5568.290026 kJ/mol
# Density = 2.064269 g / cm^3
# Si number density = 20.689783 Si / 1000 Ang^3
#
#
#
# Elastic Constant Matrix: (Units=GPa)
#
#
# Indices 1 2 3 4 5 6 
#
# 1 107.6235 21.4033 7.2577 0.0000 0.0000 0.0000
# 2 21.4033 59.6238 29.1286 0.0000 0.0000 0.0000
# 3 7.2577 29.1286 78.8660 0.0000 0.0000 0.0000
# 4 0.0000 0.0000 0.0000 27.0413 0.0000 0.0000
# 5 0.0000 0.0000 0.0000 0.0000 9.3872 0.0000
# 6 0.0000 0.0000 0.0000 0.0000 0.0000 41.9870
#
#
#
# Elastic Compliance Matrix: (Units=1/GPa)
#
#
# Indices 1 2 3 4 5 6 
#
# 1 0.010022 -0.003840 0.000496 0.000000 0.000000 0.000000
# 2 -0.003840 0.021936 -0.007748 0.000000 0.000000 0.000000
# 3 0.000496 -0.007748 0.015496 0.000000 0.000000 0.000000
# 4 0.000000 0.000000 0.000000 0.036981 0.000000 0.000000
# 5 0.000000 0.000000 0.000000 0.000000 0.106528 0.000000
# 6 0.000000 0.000000 0.000000 0.000000 0.000000 0.023817
#
#
# Mechanical properties :
#
#
# Convention : Reuss Voigt Hill
#
# Bulk Modulus (GPa) = 39.57453 40.18805 39.88129
# Shear Modulus (GPa) = 20.37607 28.23802 24.30705
#
# Velocity S-wave (km/s) = 3.14162 3.69837 3.43130
# Velocity P-wave (km/s) = 5.68584 6.14032 5.91744
#
# Compressibility (1/GPa) = 0.02526878
#
# Stress axis : x y z
#
# Youngs Moduli (GPa) = 99.78205 45.58793 64.53314
#
# Poissons Ratio (x) = 0.17505 -0.03201
# Poissons Ratio (y) = 0.38315 0.50003
# Poissons Ratio (z) = -0.04949 0.35323
#
# Static dielectric constant tensor:
#      x y z
#    x 1.872810 0.000000 0.000000 
#    y 0.000000 1.809050 0.000000 
#    z 0.000000 0.000000 1.755010 
# 
# From -- ./inp_files/44984.got.cif
#   From: 2010.05.17/outbox.cif.g08.bks.cpg/sg52_23_cif.got.tgz:44984.got - 2010.06.03 12:15:38.
