data_PCOD9411111
_publ_section_title
;
Structure prediction by ZEFSAII (Michael W. Deem and Ramdas Pophale) SiO2 
 PCOD9411111
Probable space group: P N N A
;
_chemical_formula_sum "Si O2"
_cell_formula_units_Z 52
_cell_length_a 9.272828
_cell_length_b 17.911801
_cell_length_c 16.314280
_cell_angle_alpha 90.000000
_cell_angle_beta 90.000000
_cell_angle_gamma 90.000000
_cell_volume 2709.688521
_symmetry_space_group_name_H-M "P N N A"
_symmetry_group_IT_number 52
_symmetry_cell_setting 'orthorhombic'
loop_
_space_group_symop_operation_xyz
x,y,z
1/2-x,-y,z
x,1/2-y,1/2-z
1/2-x,1/2+y,1/2-z
-x,-y,-z
1/2+x,y,-z
-x,1/2+y,1/2+z
1/2+x,1/2-y,1/2+z
loop_
_atom_site_type_symbol
_atom_site_label
_atom_site_fract_x
_atom_site_fract_y
_atom_site_fract_z
Si Si1 0.704176 0.168129 0.918326
Si Si2 0.299355 0.618845 0.239451
Si Si3 0.045940 0.071629 0.553511
Si Si4 0.750000 0.500000 0.355108
Si Si5 0.495298 0.473781 0.234872
Si Si6 0.929638 0.419208 0.483711
Si Si7 0.257862 0.335884 0.056976
O O1 0.687519 0.169993 0.819740
O O2 0.557044 0.135412 0.956091
O O3 0.742089 0.248032 0.956986
O O4 0.835117 0.112326 0.941711
O O5 0.421610 0.555026 0.242952
O O6 0.140826 0.581105 0.244923
O O7 0.306617 0.651500 0.148103
O O8 0.177261 0.112564 0.509141
O O9 0.063245 0.041684 0.645678
O O10 0.919661 0.133263 0.557039
O O11 0.000000 0.000000 0.500000
O O12 0.620476 0.467889 0.300991
O O13 0.816153 0.435121 0.411375
O O14 0.000000 0.500000 0.500000
#
# Coordination Sequence:
#
# PCOD9411111 Si02
#       7
#     8   8   8   4   8   8   8
#     4  12  24  41  64  92 132 166 207 268 315 388
#     4  10  21  40  63  91 123 167 213 258 307 384
#     4  11  22  41  66  94 127 163 217 262 308 383
#     4  12  22  38  60 100 116 154 212 258 316 352
#     4  10  22  36  64  94 122 161 214 264 308 367
#     4  12  24  40  64  93 122 166 214 259 313 378
#     4  11  24  41  63  97 127 171 207 256 335 372
#
# _framework density 19.190398999999999
#
# number of rings (size 3 to 8) (size 9 to 14) (size 15 to 20)
#    0.000    0.923    4.615    2.769    4.308    0.000 
#    0.000    0.000    0.000    0.000    0.000    0.000 
#    0.000    0.000    0.000    0.000    0.000    0.000 
#
# Total GULP energy -290460.940062 kJ/mol
# GULP energy per Si atom -5585.787309 kJ/mol
# Density = 1.914672 g / cm^3
# Si number density = 19.190399 Si / 1000 Ang^3
#
#
#
# Elastic Constant Matrix: (Units=GPa)
#
#
# Indices 1 2 3 4 5 6 
#
# 1 74.6168 13.1518 19.8461 0.0000 0.0000 0.0000
# 2 13.1518 75.4882 2.3982 0.0000 0.0000 0.0000
# 3 19.8461 2.3982 91.1009 0.0000 0.0000 0.0000
# 4 0.0000 0.0000 0.0000 26.2739 0.0000 0.0000
# 5 0.0000 0.0000 0.0000 0.0000 43.1132 0.0000
# 6 0.0000 0.0000 0.0000 0.0000 0.0000 27.6398
#
#
#
# Elastic Compliance Matrix: (Units=1/GPa)
#
#
# Indices 1 2 3 4 5 6 
#
# 1 0.014667 -0.002456 -0.003131 0.000000 0.000000 0.000000
# 2 -0.002456 0.013669 0.000175 0.000000 0.000000 0.000000
# 3 -0.003131 0.000175 0.011654 0.000000 0.000000 0.000000
# 4 0.000000 0.000000 0.000000 0.038061 0.000000 0.000000
# 5 0.000000 0.000000 0.000000 0.000000 0.023195 0.000000
# 6 0.000000 0.000000 0.000000 0.000000 0.000000 0.036180
#
#
# Mechanical properties :
#
#
# Convention : Reuss Voigt Hill
#
# Bulk Modulus (GPa) = 34.28382 34.66646 34.47514
# Shear Modulus (GPa) = 31.65128 33.12604 32.38866
#
# Velocity S-wave (km/s) = 4.06560 4.15924 4.11268
# Velocity P-wave (km/s) = 6.32002 6.41634 6.36836
#
# Compressibility (1/GPa) = 0.02916828
#
# Stress axis : x y z
#
# Youngs Moduli (GPa) = 68.17861 73.15597 85.80581
#
# Poissons Ratio (x) = 0.17967 0.26862
# Poissons Ratio (y) = 0.16744 -0.01503
# Poissons Ratio (z) = 0.21344 -0.01282
#
# Static dielectric constant tensor:
#      x y z
#    x 1.651350 0.000000 0.000000 
#    y 0.000000 1.666660 0.000000 
#    z 0.000000 0.000000 1.685590 
# 
# From -- ./inp_files/24888.got.cif
#   From: 2010.05.17/outbox.cif.g08.bks.cpg/sg52_13_cif.got.tgz:24888.got - 2010.06.03 12:15:38.
