data_PCOD9411061
_publ_section_title
;
Structure prediction by ZEFSAII (Michael W. Deem and Ramdas Pophale) SiO2 
 PCOD9411061
Probable space group: P N N A
;
_chemical_formula_sum "Si O2"
_cell_formula_units_Z 44
_cell_length_a 16.812753
_cell_length_b 14.031243
_cell_length_c 8.248838
_cell_angle_alpha 90.000000
_cell_angle_beta 90.000000
_cell_angle_gamma 90.000000
_cell_volume 1945.932418
_symmetry_space_group_name_H-M "P N N A"
_symmetry_group_IT_number 52
_symmetry_cell_setting 'orthorhombic'
loop_
_space_group_symop_operation_xyz
x,y,z
1/2-x,-y,z
x,1/2-y,1/2-z
1/2-x,1/2+y,1/2-z
-x,-y,-z
1/2+x,y,-z
-x,1/2+y,1/2+z
1/2+x,1/2-y,1/2+z
loop_
_atom_site_type_symbol
_atom_site_label
_atom_site_fract_x
_atom_site_fract_y
_atom_site_fract_z
Si Si1 0.713996 0.140601 0.190049
Si Si2 0.600024 0.750000 0.750000
Si Si3 0.133709 0.962617 0.662833
Si Si4 0.164949 0.232834 0.436435
Si Si5 0.511147 0.688906 0.083343
Si Si6 0.792454 0.086315 0.668026
O O1 0.702609 0.250000 0.250000
O O2 0.801699 0.103709 0.238739
O O3 0.650398 0.064637 0.256655
O O4 0.692742 0.165553 0.006329
O O5 0.557987 0.771238 0.576148
O O6 0.653585 0.844205 0.772711
O O7 0.048532 0.911658 0.644579
O O8 0.160016 0.966050 0.475543
O O9 0.152909 0.250000 0.250000
O O10 0.235268 0.156108 0.436463
O O11 0.078994 0.191858 0.482807
O O12 0.519066 0.750000 0.250000
O O13 0.750000 0.000000 0.758821
#
# Coordination Sequence:
#
# PCOD9411061 Si02
#       6
#     8   4   8   8   8   8
#     4  11  20  39  71  95 129 179 235 276 337 418
#     4  10  24  42  68  94 130 184 232 276 352 414
#     4  10  21  39  70 102 127 185 234 285 345 419
#     4  11  24  43  64 100 141 179 225 290 352 406
#     4  10  24  45  66  99 142 180 224 291 354 408
#     4  11  20  42  65 101 135 174 233 289 339 411
#
# _framework density 22.611269
#
# number of rings (size 3 to 8) (size 9 to 14) (size 15 to 20)
#    0.000    1.455    4.545    0.545    3.818    0.000 
#    9.818    4.545    0.000    0.000    0.000    0.000 
#    0.000    0.000    0.000    0.000    0.000    0.000 
#
# Total GULP energy -245051.271712 kJ/mol
# GULP energy per Si atom -5569.347084 kJ/mol
# Density = 2.255980 g / cm^3
# Si number density = 22.611269 Si / 1000 Ang^3
#
#
#
# Elastic Constant Matrix: (Units=GPa)
#
#
# Indices 1 2 3 4 5 6 
#
# 1 64.2261 22.9126 44.0410 0.0000 0.0000 0.0000
# 2 22.9126 127.9890 47.3000 0.0000 0.0000 0.0000
# 3 44.0410 47.3000 82.8165 0.0000 0.0000 0.0000
# 4 0.0000 0.0000 0.0000 49.3541 0.0000 0.0000
# 5 0.0000 0.0000 0.0000 0.0000 38.7797 0.0000
# 6 0.0000 0.0000 0.0000 0.0000 0.0000 26.8822
#
#
#
# Elastic Compliance Matrix: (Units=1/GPa)
#
#
# Indices 1 2 3 4 5 6 
#
# 1 0.024536 0.000545 -0.013359 0.000000 0.000000 0.000000
# 2 0.000545 0.009916 -0.005953 0.000000 0.000000 0.000000
# 3 -0.013359 -0.005953 0.022579 0.000000 0.000000 0.000000
# 4 0.000000 0.000000 0.000000 0.020262 0.000000 0.000000
# 5 0.000000 0.000000 0.000000 0.000000 0.025787 0.000000
# 6 0.000000 0.000000 0.000000 0.000000 0.000000 0.037199
#
#
# Mechanical properties :
#
#
# Convention : Reuss Voigt Hill
#
# Bulk Modulus (GPa) = 51.29221 55.94876 53.62048
# Shear Modulus (GPa) = 27.12782 33.72173 30.42478
#
# Velocity S-wave (km/s) = 3.46750 3.86601 3.67216
# Velocity P-wave (km/s) = 6.22615 6.68772 6.46106
#
# Compressibility (1/GPa) = 0.01949614
#
# Stress axis : x y z
#
# Youngs Moduli (GPa) = 40.75581 100.85085 44.28870
#
# Poissons Ratio (x) = -0.05492 0.59166
# Poissons Ratio (y) = -0.02219 0.26364
# Poissons Ratio (z) = 0.54447 0.60035
#
# Static dielectric constant tensor:
#      x y z
#    x 1.928690 0.000000 0.000000 
#    y 0.000000 1.732560 0.000000 
#    z 0.000000 0.000000 2.285540 
# 
# From -- ./inp_files/11931.got.cif
#   From: 2010.05.17/outbox.cif.g08.bks.cpg/sg52_6_cif.got.tgz:11931.got - 2010.06.03 12:15:38.
