data_PCOD9411418
_publ_section_title
;
Structure prediction by ZEFSAII (Michael W. Deem and Ramdas Pophale) SiO2 
 PCOD9411418
Probable space group: P N N A
;
_chemical_formula_sum "Si O2"
_cell_formula_units_Z 48
_cell_length_a 17.926579
_cell_length_b 7.898487
_cell_length_c 15.670481
_cell_angle_alpha 90.000000
_cell_angle_beta 90.000000
_cell_angle_gamma 90.000000
_cell_volume 2218.828084
_symmetry_space_group_name_H-M "P N N A"
_symmetry_group_IT_number 52
_symmetry_cell_setting 'orthorhombic'
loop_
_space_group_symop_operation_xyz
x,y,z
1/2-x,-y,z
x,1/2-y,1/2-z
1/2-x,1/2+y,1/2-z
-x,-y,-z
1/2+x,y,-z
-x,1/2+y,1/2+z
1/2+x,1/2-y,1/2+z
loop_
_atom_site_type_symbol
_atom_site_label
_atom_site_fract_x
_atom_site_fract_y
_atom_site_fract_z
Si Si1 0.480325 0.679380 0.379093
Si Si2 0.288401 0.235981 0.443130
Si Si3 0.556475 0.848944 0.517904
Si Si4 0.750000 0.500000 0.787722
Si Si5 0.958817 0.658360 0.339198
Si Si6 0.132289 0.250000 0.250000
Si Si7 0.146075 0.402194 0.508758
O O1 0.551125 0.751334 0.427468
O O2 0.504970 0.524138 0.321565
O O3 0.422850 0.793393 0.327306
O O4 0.429835 0.618131 0.456906
O O5 0.356639 0.114527 0.470096
O O6 0.272707 0.158681 0.348791
O O7 0.207645 0.259881 0.486341
O O8 0.323014 0.419887 0.470003
O O9 0.519645 0.755288 0.600165
O O10 0.500000 0.000000 0.500000
O O11 0.817508 0.582454 0.734344
O O12 0.945610 0.750000 0.250000
O O13 0.883646 0.623000 0.394719
#
# Coordination Sequence:
#
# PCOD9411418 Si02
#       7
#     8   8   8   4   8   4   8
#     4  11  22  43  61  97 132 174 215 270 334 414
#     4  11  22  42  68  93 128 182 225 274 332 407
#     4  11  23  41  68  96 128 178 226 270 335 404
#     4  12  28  38  60 104 136 182 216 280 344 406
#     4  11  24  42  69  97 130 171 223 281 344 400
#     4  12  28  40  62 100 148 164 224 278 342 410
#     4  10  21  44  69  92 128 177 229 270 334 416
#
# _framework density 21.633042
#
# number of rings (size 3 to 8) (size 9 to 14) (size 15 to 20)
#    0.000    1.000    5.000    2.000    9.333    0.000 
#    0.000    0.000    9.167    0.000    0.000    0.000 
#    0.000    0.000    0.000    0.000    0.000    0.000 
#
# Total GULP energy -267233.397573 kJ/mol
# GULP energy per Si atom -5567.362449 kJ/mol
# Density = 2.158380 g / cm^3
# Si number density = 21.633042 Si / 1000 Ang^3
#
#
#
# Elastic Constant Matrix: (Units=GPa)
#
#
# Indices 1 2 3 4 5 6 
#
# 1 97.8240 19.6929 22.5758 0.0000 0.0000 0.0000
# 2 19.6929 72.5975 31.1000 0.0000 0.0000 0.0000
# 3 22.5758 31.1000 101.1292 0.0000 0.0000 0.0000
# 4 0.0000 0.0000 0.0000 30.0133 0.0000 0.0000
# 5 0.0000 0.0000 0.0000 0.0000 12.6230 0.0000
# 6 0.0000 0.0000 0.0000 0.0000 0.0000 40.6654
#
#
#
# Elastic Compliance Matrix: (Units=1/GPa)
#
#
# Indices 1 2 3 4 5 6 
#
# 1 0.011086 -0.002242 -0.001785 0.000000 0.000000 0.000000
# 2 -0.002242 0.016318 -0.004518 0.000000 0.000000 0.000000
# 3 -0.001785 -0.004518 0.011676 0.000000 0.000000 0.000000
# 4 0.000000 0.000000 0.000000 0.033319 0.000000 0.000000
# 5 0.000000 0.000000 0.000000 0.000000 0.079220 0.000000
# 6 0.000000 0.000000 0.000000 0.000000 0.000000 0.024591
#
#
# Mechanical properties :
#
#
# Convention : Reuss Voigt Hill
#
# Bulk Modulus (GPa) = 45.47597 46.47647 45.97622
# Shear Modulus (GPa) = 24.92145 29.87249 27.39697
#
# Velocity S-wave (km/s) = 3.39781 3.72004 3.56257
# Velocity P-wave (km/s) = 6.03826 6.32315 6.18235
#
# Compressibility (1/GPa) = 0.02198963
#
# Stress axis : x y z
#
# Youngs Moduli (GPa) = 90.20517 61.28133 85.64446
#
# Poissons Ratio (x) = 0.13742 0.15289
# Poissons Ratio (y) = 0.20228 0.38692
# Poissons Ratio (z) = 0.16103 0.27685
#
# Static dielectric constant tensor:
#      x y z
#    x 1.788920 0.000000 0.000000 
#    y 0.000000 2.082220 0.000000 
#    z 0.000000 0.000000 1.848070 
# 
# From -- ./inp_files/28098.got.cif
#   From: 2010.05.17/outbox.cif.g08.bks.cpg/sg52_15_cif.got.tgz:28098.got - 2010.06.03 12:15:38.
