data_PCOD9411443
_publ_section_title
;
Structure prediction by ZEFSAII (Michael W. Deem and Ramdas Pophale) SiO2 
 PCOD9411443
Probable space group: P N N A
;
_chemical_formula_sum "Si O2"
_cell_formula_units_Z 32
_cell_length_a 14.316761
_cell_length_b 11.802621
_cell_length_c 7.734566
_cell_angle_alpha 90.000000
_cell_angle_beta 90.000000
_cell_angle_gamma 90.000000
_cell_volume 1306.950641
_symmetry_space_group_name_H-M "P N N A"
_symmetry_group_IT_number 52
_symmetry_cell_setting 'orthorhombic'
loop_
_space_group_symop_operation_xyz
x,y,z
1/2-x,-y,z
x,1/2-y,1/2-z
1/2-x,1/2+y,1/2-z
-x,-y,-z
1/2+x,y,-z
-x,1/2+y,1/2+z
1/2+x,1/2-y,1/2+z
loop_
_atom_site_type_symbol
_atom_site_label
_atom_site_fract_x
_atom_site_fract_y
_atom_site_fract_z
Si Si1 0.911399 0.530737 0.115540
Si Si2 0.999699 0.868886 0.060435
Si Si3 0.170115 0.270830 0.057788
Si Si4 0.189656 0.610317 0.591989
O O1 0.955221 0.620917 0.251121
O O2 0.860962 0.433182 0.230724
O O3 0.840764 0.599102 0.994434
O O4 0.000000 0.500000 0.000000
O O5 0.931447 0.790582 0.949491
O O6 0.107673 0.843238 0.032232
O O7 0.000000 0.000000 0.000000
O O8 0.206847 0.250000 0.250000
O O9 0.233994 0.207336 0.919496
O O10 0.250000 0.500000 0.532475
#
# Coordination Sequence:
#
# PCOD9411443 Si02
#       4
#     8   8   8   8
#     4  11  25  49  76 107 156 208 257 333 406 471
#     4  10  21  45  70 102 149 197 253 323 390 462
#     4  12  25  47  77 114 154 207 273 321 399 492
#     4  11  24  47  76 106 157 198 263 329 388 471
#
# _framework density 24.484475
#
# number of rings (size 3 to 8) (size 9 to 14) (size 15 to 20)
#    0.000    1.000    5.000    3.750    0.000    2.000 
#   18.000    0.000    0.000    0.000    0.000    0.000 
#    0.000    0.000    0.000    0.000    0.000    0.000 
#
# Total GULP energy -178806.311450 kJ/mol
# GULP energy per Si atom -5587.697233 kJ/mol
# Density = 2.442875 g / cm^3
# Si number density = 24.484475 Si / 1000 Ang^3
#
#
#
# Elastic Constant Matrix: (Units=GPa)
#
#
# Indices 1 2 3 4 5 6 
#
# 1 163.0979 32.5931 41.7677 0.0000 0.0000 0.0000
# 2 32.5931 72.5653 43.6567 0.0000 0.0000 0.0000
# 3 41.7677 43.6567 144.0759 0.0000 0.0000 0.0000
# 4 0.0000 0.0000 0.0000 35.9009 0.0000 0.0000
# 5 0.0000 0.0000 0.0000 0.0000 38.1246 0.0000
# 6 0.0000 0.0000 0.0000 0.0000 0.0000 33.1180
#
#
#
# Elastic Compliance Matrix: (Units=1/GPa)
#
#
# Indices 1 2 3 4 5 6 
#
# 1 0.006930 -0.002329 -0.001304 0.000000 0.000000 0.000000
# 2 -0.002329 0.017635 -0.004669 0.000000 0.000000 0.000000
# 3 -0.001304 -0.004669 0.008733 0.000000 0.000000 0.000000
# 4 0.000000 0.000000 0.000000 0.027854 0.000000 0.000000
# 5 0.000000 0.000000 0.000000 0.000000 0.026230 0.000000
# 6 0.000000 0.000000 0.000000 0.000000 0.000000 0.030195
#
#
# Mechanical properties :
#
#
# Convention : Reuss Voigt Hill
#
# Bulk Modulus (GPa) = 59.88909 68.41934 64.15422
# Shear Modulus (GPa) = 35.77923 38.87681 37.32802
#
# Velocity S-wave (km/s) = 3.82685 3.98906 3.90880
# Velocity P-wave (km/s) = 6.63622 7.01580 6.82865
#
# Compressibility (1/GPa) = 0.01669753
#
# Stress axis : x y z
#
# Youngs Moduli (GPa) = 144.29062 56.70425 114.50368
#
# Poissons Ratio (x) = 0.13204 0.14926
# Poissons Ratio (y) = 0.33600 0.53458
# Poissons Ratio (z) = 0.18809 0.26473
#
# Static dielectric constant tensor:
#      x y z
#    x 2.292470 0.000000 0.000000 
#    y 0.000000 1.896150 0.000000 
#    z 0.000000 0.000000 2.069530 
# 
# From -- ./inp_files/9687.got.cif
#   From: 2010.05.17/outbox.cif.g08.bks.cpg/sg52_5_cif.got.tgz:9687.got - 2010.06.03 12:15:38.
