data_PCOD9411321
_publ_section_title
;
Structure prediction by ZEFSAII (Michael W. Deem and Ramdas Pophale) SiO2 
 PCOD9411321
Probable space group: P N N A
;
_chemical_formula_sum "Si O2"
_cell_formula_units_Z 64
_cell_length_a 25.249931
_cell_length_b 14.493601
_cell_length_c 8.810449
_cell_angle_alpha 90.000000
_cell_angle_beta 90.000000
_cell_angle_gamma 90.000000
_cell_volume 3224.293283
_symmetry_space_group_name_H-M "P N N A"
_symmetry_group_IT_number 52
_symmetry_cell_setting 'orthorhombic'
loop_
_space_group_symop_operation_xyz
x,y,z
1/2-x,-y,z
x,1/2-y,1/2-z
1/2-x,1/2+y,1/2-z
-x,-y,-z
1/2+x,y,-z
-x,1/2+y,1/2+z
1/2+x,1/2-y,1/2+z
loop_
_atom_site_type_symbol
_atom_site_label
_atom_site_fract_x
_atom_site_fract_y
_atom_site_fract_z
Si Si1 0.759772 0.393053 0.938729
Si Si2 0.152526 0.734514 0.923162
Si Si3 0.652660 0.311060 0.903683
Si Si4 0.668845 0.647665 0.685294
Si Si5 0.044741 0.238894 0.568045
Si Si6 0.993015 0.917041 0.881863
Si Si7 0.452506 0.124424 0.576411
Si Si8 0.096944 0.004186 0.332819
O O1 0.750000 0.500000 0.977498
O O2 0.711653 0.322501 0.969331
O O3 0.776165 0.384734 0.760283
O O4 0.811392 0.350422 0.018907
O O5 0.163313 0.750000 0.750000
O O6 0.091560 0.704148 0.943094
O O7 0.167154 0.828843 0.009659
O O8 0.652184 0.250000 0.750000
O O9 0.639457 0.417642 0.867890
O O10 0.605168 0.277227 0.012504
O O11 0.657100 0.750000 0.750000
O O12 0.624340 0.577943 0.740115
O O13 0.041327 0.250000 0.750000
O O14 0.022443 0.327987 0.479547
O O15 0.006485 0.157827 0.505382
O O16 0.038077 0.895600 0.755167
O O17 0.945261 0.946984 0.773620
O O18 0.000000 0.000000 0.000000
O O19 0.429808 0.037685 0.483157
#
# Coordination Sequence:
#
# PCOD9411321 Si02
#       8
#     8   8   8   8   8   8   8   8
#     4  11  22  44  72  98 128 177 233 284 336 405
#     4  11  24  41  68 100 138 175 222 278 346 398
#     4  12  23  45  68  93 139 180 223 282 340 409
#     4  10  21  42  66 103 125 169 229 276 336 398
#     4  12  27  44  64  97 138 185 223 267 341 412
#     4  12  27  42  65 102 137 178 230 275 338 413
#     4  12  24  44  68  96 138 178 218 285 337 399
#     4  12  23  41  70  99 132 172 231 277 331 406
#
# _framework density 19.849309999999999
#
# number of rings (size 3 to 8) (size 9 to 14) (size 15 to 20)
#    0.000    0.500    6.250    3.375    7.000    0.500 
#    0.000    0.625    0.000    0.000    0.000    0.000 
#    0.000    0.000    0.000    0.000    0.000    0.000 
#
# Total GULP energy -357350.812651 kJ/mol
# GULP energy per Si atom -5583.606448 kJ/mol
# Density = 1.980413 g / cm^3
# Si number density = 19.849310 Si / 1000 Ang^3
#
#
#
# Elastic Constant Matrix: (Units=GPa)
#
#
# Indices 1 2 3 4 5 6 
#
# 1 95.5167 17.6649 27.9736 0.0000 0.0000 0.0000
# 2 17.6649 98.4484 29.2522 0.0000 0.0000 0.0000
# 3 27.9736 29.2522 127.2225 0.0000 0.0000 0.0000
# 4 0.0000 0.0000 0.0000 32.4748 0.0000 0.0000
# 5 0.0000 0.0000 0.0000 0.0000 18.4859 0.0000
# 6 0.0000 0.0000 0.0000 0.0000 0.0000 30.6925
#
#
#
# Elastic Compliance Matrix: (Units=1/GPa)
#
#
# Indices 1 2 3 4 5 6 
#
# 1 0.011365 -0.001392 -0.002179 0.000000 0.000000 0.000000
# 2 -0.001392 0.011073 -0.002240 0.000000 0.000000 0.000000
# 3 -0.002179 -0.002240 0.008854 0.000000 0.000000 0.000000
# 4 0.000000 0.000000 0.000000 0.030793 0.000000 0.000000
# 5 0.000000 0.000000 0.000000 0.000000 0.054095 0.000000
# 6 0.000000 0.000000 0.000000 0.000000 0.000000 0.032581
#
#
# Mechanical properties :
#
#
# Convention : Reuss Voigt Hill
#
# Bulk Modulus (GPa) = 50.83664 52.32988 51.58326
# Shear Modulus (GPa) = 29.95089 32.75044 31.35067
#
# Velocity S-wave (km/s) = 3.88869 4.06637 3.97852
# Velocity P-wave (km/s) = 6.76974 6.96189 6.86649
#
# Compressibility (1/GPa) = 0.01967085
#
# Stress axis : x y z
#
# Youngs Moduli (GPa) = 87.99020 90.31056 112.93867
#
# Poissons Ratio (x) = 0.12570 0.24608
# Poissons Ratio (y) = 0.12247 0.25298
# Poissons Ratio (z) = 0.19172 0.20229
#
# Static dielectric constant tensor:
#      x y z
#    x 1.792590 0.000000 0.000000 
#    y 0.000000 1.706980 0.000000 
#    z 0.000000 0.000000 1.727370 
# 
# From -- ./inp_files/14474.got.cif
#   From: 2010.05.17/outbox.cif.g08.bks.cpg/sg52_8_cif.got.tgz:14474.got - 2010.06.03 12:15:38.
