data_PCOD9411403
_publ_section_title
;
Structure prediction by ZEFSAII (Michael W. Deem and Ramdas Pophale) SiO2 
 PCOD9411403
Probable space group: P N N A
;
_chemical_formula_sum "Si O2"
_cell_formula_units_Z 60
_cell_length_a 19.553779
_cell_length_b 8.646853
_cell_length_c 15.827707
_cell_angle_alpha 90.000000
_cell_angle_beta 90.000000
_cell_angle_gamma 90.000000
_cell_volume 2676.127373
_symmetry_space_group_name_H-M "P N N A"
_symmetry_group_IT_number 52
_symmetry_cell_setting 'orthorhombic'
loop_
_space_group_symop_operation_xyz
x,y,z
1/2-x,-y,z
x,1/2-y,1/2-z
1/2-x,1/2+y,1/2-z
-x,-y,-z
1/2+x,y,-z
-x,1/2+y,1/2+z
1/2+x,1/2-y,1/2+z
loop_
_atom_site_type_symbol
_atom_site_label
_atom_site_fract_x
_atom_site_fract_y
_atom_site_fract_z
Si Si1 0.971694 0.162915 0.028668
Si Si2 0.912031 0.514572 0.851462
Si Si3 0.435844 0.095533 0.651783
Si Si4 0.336640 0.228035 0.056187
Si Si5 0.400822 0.839033 0.524125
Si Si6 0.235509 0.317853 0.579037
Si Si7 0.181371 0.573134 0.279481
Si Si8 0.321123 0.250000 0.750000
O O1 0.965383 0.236665 0.122124
O O2 0.893249 0.160222 0.004586
O O3 0.021281 0.276740 0.975787
O O4 0.000000 0.000000 0.000000
O O5 0.876110 0.363623 0.893469
O O6 0.878372 0.527789 0.759947
O O7 0.992978 0.506283 0.833350
O O8 0.891626 0.639696 0.922951
O O9 0.375592 0.117451 0.719801
O O10 0.402749 0.003560 0.572372
O O11 0.317996 0.092392 0.120909
O O12 0.273356 0.273079 0.997568
O O13 0.343772 0.732886 0.568869
O O14 0.250000 0.500000 0.565814
O O15 0.272459 0.280083 0.668800
O O16 0.250000 0.500000 0.245363
O O17 0.177671 0.750000 0.250000
#
# Coordination Sequence:
#
# PCOD9411403 Si02
#       8
#     8   8   8   8   8   8   8   4
#     4  11  21  41  70 102 135 177 232 297 353 416
#     4  10  21  43  73 104 130 178 245 283 351 430
#     4  11  23  47  70 102 136 188 246 299 352 433
#     4  11  21  45  69  98 139 180 232 291 354 423
#     4  11  23  43  78  97 136 190 238 292 352 443
#     4  12  28  46  68 107 146 193 239 300 377 441
#     4  10  24  41  64  99 141 175 219 287 346 421
#     4  12  28  46  70  98 154 186 248 308 354 434
#
# _framework density 22.420458
#
# number of rings (size 3 to 8) (size 9 to 14) (size 15 to 20)
#    0.000    1.067    4.000    2.000    5.600    2.133 
#    3.600    0.000    0.000    0.000    0.000    0.000 
#    0.000    0.000    0.000    0.000    0.000    0.000 
#
# Total GULP energy -334140.627802 kJ/mol
# GULP energy per Si atom -5569.010463 kJ/mol
# Density = 2.236943 g / cm^3
# Si number density = 22.420458 Si / 1000 Ang^3
#
#
#
# Elastic Constant Matrix: (Units=GPa)
#
#
# Indices 1 2 3 4 5 6 
#
# 1 115.5833 0.2062 39.5373 0.0000 0.0000 0.0000
# 2 0.2062 47.1034 3.3787 0.0000 0.0000 0.0000
# 3 39.5373 3.3787 95.5764 0.0000 0.0000 0.0000
# 4 0.0000 0.0000 0.0000 21.8782 0.0000 0.0000
# 5 0.0000 0.0000 0.0000 0.0000 -61.1619 0.0000
# 6 0.0000 0.0000 0.0000 0.0000 0.0000 -148.0029
#
#
#
# Elastic Compliance Matrix: (Units=1/GPa)
#
#
# Indices 1 2 3 4 5 6 
#
# 1 0.010081 0.000256 -0.004179 0.000000 0.000000 0.000000
# 2 0.000256 0.021290 -0.000858 0.000000 0.000000 0.000000
# 3 -0.004179 -0.000858 0.012222 0.000000 0.000000 0.000000
# 4 0.000000 0.000000 0.000000 0.045708 0.000000 0.000000
# 5 0.000000 0.000000 0.000000 0.000000 -0.016350 0.000000
# 6 0.000000 0.000000 0.000000 0.000000 0.000000 -0.006757
#
#
# Mechanical properties :
#
#
# Convention : Reuss Voigt Hill
#
# Bulk Modulus (GPa) = 29.38643 38.27862 33.83253
# Shear Modulus (GPa) = 57.40445 -23.11460 17.14492
#
# Velocity S-wave (km/s) = 5.06549 -3.21434 2.76832
# Velocity P-wave (km/s) = 6.88096 1.82597 5.03398
#
# Compressibility (1/GPa) = 0.03402931
#
# Stress axis : x y z
#
# Youngs Moduli (GPa) = 99.19762 46.96967 81.81960
#
# Poissons Ratio (x) = -0.01201 0.34194
# Poissons Ratio (y) = -0.02536 0.07023
# Poissons Ratio (z) = 0.41457 0.04032
#
# Static dielectric constant tensor:
#      x y z
#    x 1.805150 0.000000 0.000000 
#    y 0.000000 1.970460 0.000000 
#    z 0.000000 0.000000 2.329520 
# 
# From -- ./inp_files/33768.got.cif
#   From: 2010.05.17/outbox.cif.g08.bks.cpg/sg52_17_cif.got.tgz:33768.got - 2010.06.03 12:15:38.
