data_PCOD9411314
_publ_section_title
;
Structure prediction by ZEFSAII (Michael W. Deem and Ramdas Pophale) SiO2 
 PCOD9411314
Probable space group: P N N A
;
_chemical_formula_sum "Si O2"
_cell_formula_units_Z 64
_cell_length_a 17.098237
_cell_length_b 13.317001
_cell_length_c 11.557648
_cell_angle_alpha 90.000000
_cell_angle_beta 90.000000
_cell_angle_gamma 90.000000
_cell_volume 2631.644542
_symmetry_space_group_name_H-M "P N N A"
_symmetry_group_IT_number 52
_symmetry_cell_setting 'orthorhombic'
loop_
_space_group_symop_operation_xyz
x,y,z
1/2-x,-y,z
x,1/2-y,1/2-z
1/2-x,1/2+y,1/2-z
-x,-y,-z
1/2+x,y,-z
-x,1/2+y,1/2+z
1/2+x,1/2-y,1/2+z
loop_
_atom_site_type_symbol
_atom_site_label
_atom_site_fract_x
_atom_site_fract_y
_atom_site_fract_z
Si Si1 0.212078 0.385154 0.445967
Si Si2 0.715550 0.112913 0.685701
Si Si3 0.203425 0.396838 0.927439
Si Si4 0.426693 0.058709 0.861896
Si Si5 0.478276 0.628733 0.919806
Si Si6 0.534645 0.070516 0.665596
Si Si7 0.278312 0.339714 0.693439
Si Si8 0.038283 0.356354 0.541688
O O1 0.250000 0.500000 0.449364
O O2 0.234920 0.346543 0.316105
O O3 0.241721 0.334081 0.565638
O O4 0.116826 0.371235 0.460788
O O5 0.729950 0.150203 0.552554
O O6 0.622035 0.105413 0.684154
O O7 0.750000 0.000000 0.686116
O O8 0.250000 0.500000 0.923595
O O9 0.110562 0.411998 0.926207
O O10 0.220650 0.348337 0.802419
O O11 0.483128 0.106312 0.769864
O O12 0.338220 0.070085 0.824714
O O13 0.444878 0.941546 0.865617
O O14 0.457169 0.109324 0.980192
O O15 0.530679 0.550962 0.848771
O O16 0.471195 0.747466 0.902110
O O17 0.504646 0.616373 0.052078
O O18 0.329834 0.250000 0.750000
#
# Coordination Sequence:
#
# PCOD9411314 Si02
#       8
#     8   8   8   8   8   8   8   8
#     4  11  21  43  71 103 139 192 240 302 370 440
#     4   9  20  40  72  97 134 192 242 291 362 438
#     4  10  21  43  66 104 142 189 236 297 366 438
#     4  11  25  44  68  99 139 190 241 307 364 441
#     4  10  23  40  69 101 143 189 242 300 363 440
#     4  10  21  42  65 102 134 188 238 301 360 434
#     4  12  26  41  66 108 147 183 238 311 375 441
#     4  11  24  43  67 103 141 190 251 301 369 441
#
# _framework density 24.319395
#
# number of rings (size 3 to 8) (size 9 to 14) (size 15 to 20)
#    0.000    1.500    2.500    1.875    3.500    1.500 
#    0.000    1.875    0.000    0.000    0.000    0.000 
#    0.000    0.000    0.000    0.000    0.000    0.000 
#
# Total GULP energy -356606.128233 kJ/mol
# GULP energy per Si atom -5571.970754 kJ/mol
# Density = 2.426404 g / cm^3
# Si number density = 24.319395 Si / 1000 Ang^3
#
#
#
# Elastic Constant Matrix: (Units=GPa)
#
#
# Indices 1 2 3 4 5 6 
#
# 1 23.3952 9.4437 23.3901 0.0000 0.0000 0.0000
# 2 9.4437 85.0940 47.4062 0.0000 0.0000 0.0000
# 3 23.3901 47.4062 198.1324 0.0000 0.0000 0.0000
# 4 0.0000 0.0000 0.0000 26.2868 0.0000 0.0000
# 5 0.0000 0.0000 0.0000 0.0000 27.3185 0.0000
# 6 0.0000 0.0000 0.0000 0.0000 0.0000 10.8878
#
#
#
# Elastic Compliance Matrix: (Units=1/GPa)
#
#
# Indices 1 2 3 4 5 6 
#
# 1 0.048940 -0.002553 -0.005167 0.000000 0.000000 0.000000
# 2 -0.002553 0.013692 -0.002975 0.000000 0.000000 0.000000
# 3 -0.005167 -0.002975 0.006369 0.000000 0.000000 0.000000
# 4 0.000000 0.000000 0.000000 0.038042 0.000000 0.000000
# 5 0.000000 0.000000 0.000000 0.000000 0.036605 0.000000
# 6 0.000000 0.000000 0.000000 0.000000 0.000000 0.091846
#
#
# Mechanical properties :
#
#
# Convention : Reuss Voigt Hill
#
# Bulk Modulus (GPa) = 21.00301 51.90018 36.45159
# Shear Modulus (GPa) = 18.33156 27.99071 23.16114
#
# Velocity S-wave (km/s) = 2.74849 3.39626 3.08940
# Velocity P-wave (km/s) = 4.32751 6.06357 5.26755
#
# Compressibility (1/GPa) = 0.04761223
#
# Stress axis : x y z
#
# Youngs Moduli (GPa) = 20.43327 73.03397 157.01534
#
# Poissons Ratio (x) = 0.18646 0.81124
# Poissons Ratio (y) = 0.05217 0.46707
# Poissons Ratio (z) = 0.10557 0.21725
#
# Static dielectric constant tensor:
#      x y z
#    x 1.149020 0.000000 0.000000 
#    y 0.000000 2.101790 0.000000 
#    z 0.000000 0.000000 1.995040 
# 
# From -- ./inp_files/20893.got.cif
#   From: 2010.05.17/outbox.cif.g08.bks.cpg/sg52_11_cif.got.tgz:20893.got - 2010.06.03 12:15:38.
