data_PCOD9411336
_publ_section_title
;
Structure prediction by ZEFSAII (Michael W. Deem and Ramdas Pophale) SiO2 
 PCOD9411336
Probable space group: P N N A
;
_chemical_formula_sum "Si O2"
_cell_formula_units_Z 32
_cell_length_a 8.798416
_cell_length_b 13.993208
_cell_length_c 9.513754
_cell_angle_alpha 90.000000
_cell_angle_beta 90.000000
_cell_angle_gamma 90.000000
_cell_volume 1171.314985
_symmetry_space_group_name_H-M "P N N A"
_symmetry_group_IT_number 52
_symmetry_cell_setting 'orthorhombic'
loop_
_space_group_symop_operation_xyz
x,y,z
1/2-x,-y,z
x,1/2-y,1/2-z
1/2-x,1/2+y,1/2-z
-x,-y,-z
1/2+x,y,-z
-x,1/2+y,1/2+z
1/2+x,1/2-y,1/2+z
loop_
_atom_site_type_symbol
_atom_site_label
_atom_site_fract_x
_atom_site_fract_y
_atom_site_fract_z
Si Si1 0.137742 0.813664 0.444780
Si Si2 0.350631 0.594512 0.280490
Si Si3 0.595993 0.465116 0.162491
Si Si4 0.143549 0.183660 0.911415
O O1 0.271430 0.839536 0.335920
O O2 0.225991 0.766383 0.578337
O O3 0.021726 0.904577 0.432942
O O4 0.021840 0.731143 0.398329
O O5 0.250000 0.500000 0.290351
O O6 0.512283 0.555870 0.230194
O O7 0.353912 0.638458 0.434044
O O8 0.750000 0.500000 0.088467
O O9 0.646913 0.396731 0.292117
#
# Coordination Sequence:
#
# PCOD9411336 Si02
#       4
#     8   8   8   8
#     4  11  26  43  67 100 137 171 223 284 336 394
#     4  10  21  42  66  98 136 172 217 279 337 399
#     4  11  23  42  66  97 132 175 224 275 333 404
#     4  12  21  41  70  99 128 176 226 276 334 399
#
# _framework density 27.319721999999999
#
# number of rings (size 3 to 8) (size 9 to 14) (size 15 to 20)
#    0.000    1.000    0.000    9.000    0.000    2.000 
#    0.000   21.250    0.000    0.000    0.000    0.000 
#    0.000    0.000    0.000    0.000    0.000    0.000 
#
# Total GULP energy -179509.368687 kJ/mol
# GULP energy per Si atom -5609.667771 kJ/mol
# Density = 2.725754 g / cm^3
# Si number density = 27.319722 Si / 1000 Ang^3
#
#
#
# Elastic Constant Matrix: (Units=GPa)
#
#
# Indices 1 2 3 4 5 6 
#
# 1 211.5594 68.2478 54.4453 0.0000 0.0000 0.0000
# 2 68.2478 132.1985 62.2173 0.0000 0.0000 0.0000
# 3 54.4453 62.2173 150.4163 0.0000 0.0000 0.0000
# 4 0.0000 0.0000 0.0000 59.2869 0.0000 0.0000
# 5 0.0000 0.0000 0.0000 0.0000 33.9976 0.0000
# 6 0.0000 0.0000 0.0000 0.0000 0.0000 59.0946
#
#
#
# Elastic Compliance Matrix: (Units=1/GPa)
#
#
# Indices 1 2 3 4 5 6 
#
# 1 0.005807 -0.002494 -0.001070 0.000000 0.000000 0.000000
# 2 -0.002494 0.010464 -0.003426 0.000000 0.000000 0.000000
# 3 -0.001070 -0.003426 0.008453 0.000000 0.000000 0.000000
# 4 0.000000 0.000000 0.000000 0.016867 0.000000 0.000000
# 5 0.000000 0.000000 0.000000 0.000000 0.029414 0.000000
# 6 0.000000 0.000000 0.000000 0.000000 0.000000 0.016922
#
#
# Mechanical properties :
#
#
# Convention : Reuss Voigt Hill
#
# Bulk Modulus (GPa) = 93.07737 95.99944 94.53841
# Shear Modulus (GPa) = 47.39901 51.09341 49.24621
#
# Velocity S-wave (km/s) = 4.16982 4.32928 4.25030
# Velocity P-wave (km/s) = 7.57145 7.75923 7.66592
#
# Compressibility (1/GPa) = 0.01074375
#
# Stress axis : x y z
#
# Youngs Moduli (GPa) = 172.21169 95.56434 118.30787
#
# Poissons Ratio (x) = 0.23835 0.12661
# Poissons Ratio (y) = 0.42951 0.40527
# Poissons Ratio (z) = 0.18430 0.32736
#
# Static dielectric constant tensor:
#      x y z
#    x 2.140080 0.000000 0.000000 
#    y 0.000000 2.279080 0.000000 
#    z 0.000000 0.000000 2.088760 
# 
# From -- ./inp_files/16495.got.cif
#   From: 2010.05.17/outbox.cif.g08.bks.cpg/sg52_9_cif.got.tgz:16495.got - 2010.06.03 12:15:38.
