data_PCOD9411499
_publ_section_title
;
Structure prediction by ZEFSAII (Michael W. Deem and Ramdas Pophale) SiO2 
 PCOD9411499
Probable space group: P N N A
;
_chemical_formula_sum "Si O2"
_cell_formula_units_Z 40
_cell_length_a 21.257365
_cell_length_b 5.332439
_cell_length_c 18.419160
_cell_angle_alpha 90.000000
_cell_angle_beta 90.000000
_cell_angle_gamma 90.000000
_cell_volume 2087.878135
_symmetry_space_group_name_H-M "P N N A"
_symmetry_group_IT_number 52
_symmetry_cell_setting 'orthorhombic'
loop_
_space_group_symop_operation_xyz
x,y,z
1/2-x,-y,z
x,1/2-y,1/2-z
1/2-x,1/2+y,1/2-z
-x,-y,-z
1/2+x,y,-z
-x,1/2+y,1/2+z
1/2+x,1/2-y,1/2+z
loop_
_atom_site_type_symbol
_atom_site_label
_atom_site_fract_x
_atom_site_fract_y
_atom_site_fract_z
Si Si1 0.677941 0.445209 0.522313
Si Si2 0.369429 0.900319 0.866390
Si Si3 0.073380 0.750000 0.750000
Si Si4 0.601827 0.573150 0.967236
Si Si5 0.788904 0.750000 0.250000
Si Si6 0.970739 0.522978 0.111366
O O1 0.750000 0.500000 0.542788
O O2 0.670177 0.476918 0.435442
O O3 0.649110 0.166522 0.535751
O O4 0.635355 0.668545 0.554389
O O5 0.330734 0.692586 0.821447
O O6 0.437881 0.795742 0.888365
O O7 0.383117 0.098984 0.804793
O O8 0.033856 0.583362 0.807105
O O9 0.541187 0.521215 0.917771
O O10 0.573046 0.606626 0.049162
O O11 0.750000 0.500000 0.266533
#
# Coordination Sequence:
#
# PCOD9411499 Si02
#       6
#     8   8   4   8   4   8
#     4  11  23  40  60  85 121 161 205 241 290 363
#     4  11  23  35  55  85 122 160 201 242 288 348
#     4  12  19  38  58  88 122 159 188 254 292 370
#     4  10  23  39  61  88 116 159 199 251 306 347
#     4  12  25  36  50  78 122 171 204 226 276 344
#     4  10  22  36  61  84 123 153 200 255 302 349
#
# _framework density 19.158206
#
# number of rings (size 3 to 8) (size 9 to 14) (size 15 to 20)
#    0.000    1.200    4.000    1.800    2.800    5.600 
#    0.000    0.000    0.000    0.000    0.000    2.800 
#    0.000    0.000    0.000    0.000    0.000    0.000 
#
# Total GULP energy -223049.421574 kJ/mol
# GULP energy per Si atom -5576.235539 kJ/mol
# Density = 1.911460 g / cm^3
# Si number density = 19.158206 Si / 1000 Ang^3
#
#
#
# Elastic Constant Matrix: (Units=GPa)
#
#
# Indices 1 2 3 4 5 6 
#
# 1 106.0132 23.3147 13.6423 0.0000 0.0000 0.0000
# 2 23.3147 64.6858 8.0414 0.0000 0.0000 0.0000
# 3 13.6423 8.0414 33.6369 0.0000 0.0000 0.0000
# 4 0.0000 0.0000 0.0000 17.3519 0.0000 0.0000
# 5 0.0000 0.0000 0.0000 0.0000 17.0400 0.0000
# 6 0.0000 0.0000 0.0000 0.0000 0.0000 22.6350
#
#
#
# Elastic Compliance Matrix: (Units=1/GPa)
#
#
# Indices 1 2 3 4 5 6 
#
# 1 0.010630 -0.003396 -0.003499 0.000000 0.000000 0.000000
# 2 -0.003396 0.017018 -0.002691 0.000000 0.000000 0.000000
# 3 -0.003499 -0.002691 0.031792 0.000000 0.000000 0.000000
# 4 0.000000 0.000000 0.000000 0.057631 0.000000 0.000000
# 5 0.000000 0.000000 0.000000 0.000000 0.058685 0.000000
# 6 0.000000 0.000000 0.000000 0.000000 0.000000 0.044179
#
#
# Mechanical properties :
#
#
# Convention : Reuss Voigt Hill
#
# Bulk Modulus (GPa) = 24.83443 32.70361 28.76902
# Shear Modulus (GPa) = 19.79958 22.02788 20.91373
#
# Velocity S-wave (km/s) = 3.21826 3.39453 3.30757
# Velocity P-wave (km/s) = 5.17693 5.69835 5.44388
#
# Compressibility (1/GPa) = 0.04026667
#
# Stress axis : x y z
#
# Youngs Moduli (GPa) = 94.07302 58.76122 31.45461
#
# Poissons Ratio (x) = 0.19957 0.11007
# Poissons Ratio (y) = 0.31951 0.08464
# Poissons Ratio (z) = 0.32919 0.15812
#
# Static dielectric constant tensor:
#      x y z
#    x 1.709260 0.000000 0.000000 
#    y 0.000000 1.779370 0.000000 
#    z 0.000000 0.000000 1.686280 
# 
# From -- ./inp_files/33972.got.cif
#   From: 2010.05.17/outbox.cif.g08.bks.cpg/sg52_17_cif.got.tgz:33972.got - 2010.06.03 12:15:38.
