data_PCOD9411148
_publ_section_title
;
Structure prediction by ZEFSAII (Michael W. Deem and Ramdas Pophale) SiO2 
 PCOD9411148
Probable space group: P N N A
;
_chemical_formula_sum "Si O2"
_cell_formula_units_Z 36
_cell_length_a 9.500400
_cell_length_b 7.424950
_cell_length_c 19.961497
_cell_angle_alpha 90.000000
_cell_angle_beta 90.000000
_cell_angle_gamma 90.000000
_cell_volume 1408.083898
_symmetry_space_group_name_H-M "P N N A"
_symmetry_group_IT_number 52
_symmetry_cell_setting 'orthorhombic'
loop_
_space_group_symop_operation_xyz
x,y,z
1/2-x,-y,z
x,1/2-y,1/2-z
1/2-x,1/2+y,1/2-z
-x,-y,-z
1/2+x,y,-z
-x,1/2+y,1/2+z
1/2+x,1/2-y,1/2+z
loop_
_atom_site_type_symbol
_atom_site_label
_atom_site_fract_x
_atom_site_fract_y
_atom_site_fract_z
Si Si1 0.750000 0.500000 0.877239
Si Si2 0.099610 0.693334 0.462164
Si Si3 0.750000 0.500000 0.202745
Si Si4 0.053295 0.970147 0.255895
Si Si5 0.216397 0.202180 0.572071
Si Si6 0.750000 0.000000 0.860879
O O1 0.796656 0.329249 0.920386
O O2 0.881544 0.524152 0.827500
O O3 0.162861 0.682344 0.536199
O O4 0.126742 0.521752 0.417074
O O5 0.939533 0.752311 0.453241
O O6 0.609405 0.516773 0.244545
O O7 0.774558 0.670410 0.151887
O O8 0.070526 0.750000 0.250000
O O9 0.140863 0.065627 0.197797
O O10 0.250000 0.000000 0.547686
#
# Coordination Sequence:
#
# PCOD9411148 Si02
#       6
#     4   8   4   8   8   4
#     4  11  19  38  68  88 124 173 225 264 320 409
#     4  12  23  42  67  99 136 173 231 278 352 410
#     4  10  21  40  65  97 128 171 226 286 334 396
#     4  11  22  42  65  97 135 177 224 281 335 413
#     4  10  22  38  69  99 127 173 228 293 328 407
#     4  11  26  44  65  97 142 184 215 284 348 421
#
# _framework density 25.566659000000001
#
# number of rings (size 3 to 8) (size 9 to 14) (size 15 to 20)
#    0.667    0.444    5.556    0.667    3.111    0.889 
#    4.000    2.222    0.000    0.000    0.000    0.000 
#    0.000    0.000    0.000    0.000    0.000    0.000 
#
# Total GULP energy -200594.747178 kJ/mol
# GULP energy per Si atom -5572.076311 kJ/mol
# Density = 2.550847 g / cm^3
# Si number density = 25.566659 Si / 1000 Ang^3
#
#
#
# Elastic Constant Matrix: (Units=GPa)
#
#
# Indices 1 2 3 4 5 6 
#
# 1 235.6371 36.7377 41.8032 0.0000 0.0000 0.0000
# 2 36.7377 69.1093 14.5995 0.0000 0.0000 0.0000
# 3 41.8032 14.5995 69.5588 0.0000 0.0000 0.0000
# 4 0.0000 0.0000 0.0000 -15.2463 0.0000 0.0000
# 5 0.0000 0.0000 0.0000 0.0000 16.3342 0.0000
# 6 0.0000 0.0000 0.0000 0.0000 0.0000 60.7965
#
#
#
# Elastic Compliance Matrix: (Units=1/GPa)
#
#
# Indices 1 2 3 4 5 6 
#
# 1 0.005033 -0.002131 -0.002578 0.000000 0.000000 0.000000
# 2 -0.002131 0.016044 -0.002087 0.000000 0.000000 0.000000
# 3 -0.002578 -0.002087 0.016363 0.000000 0.000000 0.000000
# 4 0.000000 0.000000 0.000000 -0.065590 0.000000 0.000000
# 5 0.000000 0.000000 0.000000 0.000000 0.061221 0.000000
# 6 0.000000 0.000000 0.000000 0.000000 0.000000 0.016448
#
#
# Mechanical properties :
#
#
# Convention : Reuss Voigt Hill
#
# Bulk Modulus (GPa) = 41.92946 62.28732 52.10839
# Shear Modulus (GPa) = 70.36213 31.12118 50.74166
#
# Velocity S-wave (km/s) = 5.25174 3.49271 4.45981
# Velocity P-wave (km/s) = 7.29452 6.37816 6.85168
#
# Compressibility (1/GPa) = 0.02384958
#
# Stress axis : x y z
#
# Youngs Moduli (GPa) = 198.67439 62.33048 61.11216
#
# Poissons Ratio (x) = 0.13284 0.15752
# Poissons Ratio (y) = 0.42340 0.12751
# Poissons Ratio (z) = 0.51211 0.13006
#
# Static dielectric constant tensor:
#      x y z
#    x 1.638660 0.000000 0.000000 
#    y 0.000000 2.371180 0.000000 
#    z 0.000000 0.000000 1.994110 
# 
# From -- ./inp_files/35633.got.cif
#   From: 2010.05.17/outbox.cif.g08.bks.cpg/sg52_18_cif.got.tgz:35633.got - 2010.06.03 12:15:38.
