data_PCOD9411464
_publ_section_title
;
Structure prediction by ZEFSAII (Michael W. Deem and Ramdas Pophale) SiO2 
 PCOD9411464
Probable space group: P N N A
;
_chemical_formula_sum "Si O2"
_cell_formula_units_Z 44
_cell_length_a 13.305476
_cell_length_b 9.356335
_cell_length_c 17.215875
_cell_angle_alpha 90.000000
_cell_angle_beta 90.000000
_cell_angle_gamma 90.000000
_cell_volume 2143.212728
_symmetry_space_group_name_H-M "P N N A"
_symmetry_group_IT_number 52
_symmetry_cell_setting 'orthorhombic'
loop_
_space_group_symop_operation_xyz
x,y,z
1/2-x,-y,z
x,1/2-y,1/2-z
1/2-x,1/2+y,1/2-z
-x,-y,-z
1/2+x,y,-z
-x,1/2+y,1/2+z
1/2+x,1/2-y,1/2+z
loop_
_atom_site_type_symbol
_atom_site_label
_atom_site_fract_x
_atom_site_fract_y
_atom_site_fract_z
Si Si1 0.250000 0.500000 0.226700
Si Si2 0.079773 0.966088 0.436547
Si Si3 0.989070 0.072981 0.115896
Si Si4 0.320044 0.732180 0.104336
Si Si5 0.964083 0.419892 0.757174
Si Si6 0.362043 0.356342 0.472190
O O1 0.269880 0.646573 0.177145
O O2 0.148807 0.536028 0.271454
O O3 0.039992 0.964602 0.347490
O O4 0.115437 0.808179 0.453490
O O5 0.158827 0.093361 0.447388
O O6 0.000000 0.000000 0.500000
O O7 0.069894 0.202405 0.122308
O O8 0.964474 0.010112 0.200804
O O9 0.055540 0.949562 0.073940
O O10 0.893457 0.110697 0.061573
O O11 0.252806 0.850575 0.060427
O O12 0.978564 0.250000 0.750000
#
# Coordination Sequence:
#
# PCOD9411464 Si02
#       6
#     4   8   8   8   8   8
#     4  10  22  30  56  88 128 154 190 236 326 378
#     4  11  21  39  60  87 127 165 204 251 321 382
#     4  11  24  35  60  88 127 162 209 260 304 374
#     4  11  20  38  59  86 124 166 201 250 310 379
#     4  11  22  36  55  87 129 159 196 254 319 380
#     4  11  21  39  54  89 125 165 208 244 310 370
#
# _framework density 20.529927000000001
#
# number of rings (size 3 to 8) (size 9 to 14) (size 15 to 20)
#    0.000    1.091    7.273    0.545    5.091    2.182 
#    0.000    0.000    0.000    0.000    0.000   22.909 
#    0.000    0.000    0.000    0.000    0.000    0.000 
#
# Total GULP energy -245098.454880 kJ/mol
# GULP energy per Si atom -5570.419429 kJ/mol
# Density = 2.048320 g / cm^3
# Si number density = 20.529927 Si / 1000 Ang^3
#
#
#
# Elastic Constant Matrix: (Units=GPa)
#
#
# Indices 1 2 3 4 5 6 
#
# 1 35.2567 18.4056 33.0967 0.0000 0.0000 0.0000
# 2 18.4056 131.7146 26.2822 0.0000 0.0000 0.0000
# 3 33.0967 26.2822 112.7920 0.0000 0.0000 0.0000
# 4 0.0000 0.0000 0.0000 20.0208 0.0000 0.0000
# 5 0.0000 0.0000 0.0000 0.0000 32.4311 0.0000
# 6 0.0000 0.0000 0.0000 0.0000 0.0000 23.4368
#
#
#
# Elastic Compliance Matrix: (Units=1/GPa)
#
#
# Indices 1 2 3 4 5 6 
#
# 1 0.040593 -0.003456 -0.011106 0.000000 0.000000 0.000000
# 2 -0.003456 0.008257 -0.000910 0.000000 0.000000 0.000000
# 3 -0.011106 -0.000910 0.012337 0.000000 0.000000 0.000000
# 4 0.000000 0.000000 0.000000 0.049948 0.000000 0.000000
# 5 0.000000 0.000000 0.000000 0.000000 0.030835 0.000000
# 6 0.000000 0.000000 0.000000 0.000000 0.000000 0.042668
#
#
# Mechanical properties :
#
#
# Convention : Reuss Voigt Hill
#
# Bulk Modulus (GPa) = 33.06594 48.37026 40.71810
# Shear Modulus (GPa) = 22.15698 28.64297 25.39997
#
# Velocity S-wave (km/s) = 3.28876 3.73926 3.52123
# Velocity P-wave (km/s) = 5.52833 6.50037 6.03396
#
# Compressibility (1/GPa) = 0.03024260
#
# Stress axis : x y z
#
# Youngs Moduli (GPa) = 24.63455 121.11394 81.05894
#
# Poissons Ratio (x) = 0.41861 0.90024
# Poissons Ratio (y) = 0.08515 0.07374
# Poissons Ratio (z) = 0.27359 0.11018
#
# Static dielectric constant tensor:
#      x y z
#    x 1.743870 0.000000 0.000000 
#    y 0.000000 1.807400 0.000000 
#    z 0.000000 0.000000 1.776030 
# 
# From -- ./inp_files/32988.got.cif
#   From: 2010.05.17/outbox.cif.g08.bks.cpg/sg52_17_cif.got.tgz:32988.got - 2010.06.03 12:15:38.
