data_PCOD9411221
_publ_section_title
;
Structure prediction by ZEFSAII (Michael W. Deem and Ramdas Pophale) SiO2 
 PCOD9411221
Probable space group: P N N A
;
_chemical_formula_sum "Si O2"
_cell_formula_units_Z 36
_cell_length_a 12.635119
_cell_length_b 21.128279
_cell_length_c 6.685329
_cell_angle_alpha 90.000000
_cell_angle_beta 90.000000
_cell_angle_gamma 90.000000
_cell_volume 1784.704195
_symmetry_space_group_name_H-M "P N N A"
_symmetry_group_IT_number 52
_symmetry_cell_setting 'orthorhombic'
loop_
_space_group_symop_operation_xyz
x,y,z
1/2-x,-y,z
x,1/2-y,1/2-z
1/2-x,1/2+y,1/2-z
-x,-y,-z
1/2+x,y,-z
-x,1/2+y,1/2+z
1/2+x,1/2-y,1/2+z
loop_
_atom_site_type_symbol
_atom_site_label
_atom_site_fract_x
_atom_site_fract_y
_atom_site_fract_z
Si Si1 0.649089 0.351124 0.732399
Si Si2 0.978520 0.571062 0.064469
Si Si3 0.482970 0.250000 0.750000
Si Si4 0.335608 0.343997 0.983682
Si Si5 0.715398 0.426713 0.350833
O O1 0.564164 0.300376 0.652373
O O2 0.704897 0.391128 0.560323
O O3 0.581368 0.396039 0.878834
O O4 0.739265 0.322377 0.876905
O O5 0.900290 0.573283 0.250610
O O6 0.000000 0.500000 0.000000
O O7 0.086173 0.608984 0.101413
O O8 0.406866 0.286943 0.901725
O O9 0.289782 0.385959 0.799008
O O10 0.750000 0.500000 0.367474
#
# Coordination Sequence:
#
# PCOD9411221 Si02
#       5
#     8   8   4   8   8
#     4  10  25  41  64  98 127 171 221 273 322 398
#     4  10  21  41  61  94 136 167 207 270 338 386
#     4  10  24  48  64  94 128 176 230 258 340 390
#     4  10  23  44  67  89 134 173 209 284 327 383
#     4  11  23  39  67 100 127 168 222 266 334 406
#
# _framework density 20.171408
#
# number of rings (size 3 to 8) (size 9 to 14) (size 15 to 20)
#    0.000    1.778    2.222    0.000    6.222    4.444 
#    0.000    2.222    0.000    0.000    0.000    0.000 
#    0.000    0.000    0.000    0.000    0.000    0.000 
#
# Total GULP energy -201081.123297 kJ/mol
# GULP energy per Si atom -5585.586758 kJ/mol
# Density = 2.012550 g / cm^3
# Si number density = 20.171408 Si / 1000 Ang^3
#
#
#
# Elastic Constant Matrix: (Units=GPa)
#
#
# Indices 1 2 3 4 5 6 
#
# 1 130.6730 57.9516 35.6727 0.0000 0.0000 0.0000
# 2 57.9516 111.7026 32.3064 0.0000 0.0000 0.0000
# 3 35.6727 32.3064 71.5626 0.0000 0.0000 0.0000
# 4 0.0000 0.0000 0.0000 18.7492 0.0000 0.0000
# 5 0.0000 0.0000 0.0000 0.0000 22.5570 0.0000
# 6 0.0000 0.0000 0.0000 0.0000 0.0000 44.1575
#
#
#
# Elastic Compliance Matrix: (Units=1/GPa)
#
#
# Indices 1 2 3 4 5 6 
#
# 1 0.010542 -0.004542 -0.003204 0.000000 0.000000 0.000000
# 2 -0.004542 0.012254 -0.003268 0.000000 0.000000 0.000000
# 3 -0.003204 -0.003268 0.017046 0.000000 0.000000 0.000000
# 4 0.000000 0.000000 0.000000 0.053336 0.000000 0.000000
# 5 0.000000 0.000000 0.000000 0.000000 0.044332 0.000000
# 6 0.000000 0.000000 0.000000 0.000000 0.000000 0.022646
#
#
# Mechanical properties :
#
#
# Convention : Reuss Voigt Hill
#
# Bulk Modulus (GPa) = 56.13764 62.86665 59.50214
# Shear Modulus (GPa) = 26.57839 29.62658 28.10248
#
# Velocity S-wave (km/s) = 3.63385 3.83657 3.73659
# Velocity P-wave (km/s) = 6.74516 7.13159 6.94107
#
# Compressibility (1/GPa) = 0.01781336
#
# Stress axis : x y z
#
# Youngs Moduli (GPa) = 94.85904 81.60568 58.66394
#
# Poissons Ratio (x) = 0.37069 0.18798
# Poissons Ratio (y) = 0.43089 0.19169
# Poissons Ratio (z) = 0.30396 0.26666
#
# Static dielectric constant tensor:
#      x y z
#    x 1.712270 0.000000 0.000000 
#    y 0.000000 1.713320 0.000000 
#    z 0.000000 0.000000 1.694600 
# 
# From -- ./inp_files/1227.got.cif
#   From: 2010.05.17/outbox.cif.g08.bks.cpg/sg52_1_cif.got.tgz:1227.got - 2010.06.03 12:15:38.
