data_PCOD9411214
_publ_section_title
;
Structure prediction by ZEFSAII (Michael W. Deem and Ramdas Pophale) SiO2 
 PCOD9411214
Probable space group: P N N A
;
_chemical_formula_sum "Si O2"
_cell_formula_units_Z 56
_cell_length_a 22.693657
_cell_length_b 8.655229
_cell_length_c 12.779617
_cell_angle_alpha 90.000000
_cell_angle_beta 90.000000
_cell_angle_gamma 90.000000
_cell_volume 2510.157012
_symmetry_space_group_name_H-M "P N N A"
_symmetry_group_IT_number 52
_symmetry_cell_setting 'orthorhombic'
loop_
_space_group_symop_operation_xyz
x,y,z
1/2-x,-y,z
x,1/2-y,1/2-z
1/2-x,1/2+y,1/2-z
-x,-y,-z
1/2+x,y,-z
-x,1/2+y,1/2+z
1/2+x,1/2-y,1/2+z
loop_
_atom_site_type_symbol
_atom_site_label
_atom_site_fract_x
_atom_site_fract_y
_atom_site_fract_z
Si Si1 0.253623 0.315799 0.432907
Si Si2 0.214907 0.341289 0.853726
Si Si3 0.586022 0.437950 0.666004
Si Si4 0.147200 0.126238 0.361507
Si Si5 0.110498 0.771687 0.048037
Si Si6 0.106475 0.508904 0.920105
Si Si7 0.506513 0.609877 0.817502
O O1 0.250000 0.500000 0.417359
O O2 0.229753 0.271067 0.549268
O O3 0.209648 0.210813 0.364966
O O4 0.321108 0.265961 0.419376
O O5 0.250000 0.500000 0.870971
O O6 0.231451 0.250000 0.750000
O O7 0.148544 0.408919 0.845624
O O8 0.597333 0.261705 0.636507
O O9 0.637022 0.465278 0.754290
O O10 0.593104 0.549548 0.567179
O O11 0.528949 0.484141 0.733056
O O12 0.134386 0.035827 0.467171
O O13 0.062477 0.683401 0.121019
O O14 0.107412 0.694882 0.932725
O O15 0.040589 0.457264 0.897004
O O16 0.480594 0.750000 0.750000
#
# Coordination Sequence:
#
# PCOD9411214 Si02
#       7
#     8   8   8   8   8   8   8
#     4  11  22  42  64  93 135 172 218 262 332 404
#     4  11  23  41  68  96 128 167 215 277 333 390
#     4  10  21  41  58  90 131 164 211 266 316 380
#     4  10  22  38  62  91 128 169 209 267 328 387
#     4  11  21  39  63  92 125 169 218 261 320 391
#     4  11  22  41  70  91 124 172 220 261 335 387
#     4  10  22  41  67  92 128 170 219 270 318 395
#
# _framework density 22.309362
#
# number of rings (size 3 to 8) (size 9 to 14) (size 15 to 20)
#    0.000    1.429    4.286    1.286    0.000    0.000 
#   10.286    2.857    9.429    0.000    0.000    0.000 
#    0.000    0.000    0.000    0.000    0.000    0.000 
#
# Total GULP energy -312233.807894 kJ/mol
# GULP energy per Si atom -5575.603712 kJ/mol
# Density = 2.225858 g / cm^3
# Si number density = 22.309362 Si / 1000 Ang^3
#
#
#
# Elastic Constant Matrix: (Units=GPa)
#
#
# Indices 1 2 3 4 5 6 
#
# 1 113.9471 38.1330 9.8072 0.0000 0.0000 0.0000
# 2 38.1330 76.8043 -6.7462 0.0000 0.0000 0.0000
# 3 9.8072 -6.7462 32.4697 0.0000 0.0000 0.0000
# 4 0.0000 0.0000 0.0000 29.6717 0.0000 0.0000
# 5 0.0000 0.0000 0.0000 0.0000 9.8254 0.0000
# 6 0.0000 0.0000 0.0000 0.0000 0.0000 15.7408
#
#
#
# Elastic Compliance Matrix: (Units=1/GPa)
#
#
# Indices 1 2 3 4 5 6 
#
# 1 0.011163 -0.005947 -0.004607 0.000000 0.000000 0.000000
# 2 -0.005947 0.016430 0.005210 0.000000 0.000000 0.000000
# 3 -0.004607 0.005210 0.033272 0.000000 0.000000 0.000000
# 4 0.000000 0.000000 0.000000 0.033702 0.000000 0.000000
# 5 0.000000 0.000000 0.000000 0.000000 0.101777 0.000000
# 6 0.000000 0.000000 0.000000 0.000000 0.000000 0.063529
#
#
# Mechanical properties :
#
#
# Convention : Reuss Voigt Hill
#
# Bulk Modulus (GPa) = 19.92957 33.95657 26.94307
# Shear Modulus (GPa) = 17.40417 23.18271 20.29344
#
# Velocity S-wave (km/s) = 2.79611 3.22708 3.01929
# Velocity P-wave (km/s) = 4.40193 5.39807 4.92525
#
# Compressibility (1/GPa) = 0.05017669
#
# Stress axis : x y z
#
# Youngs Moduli (GPa) = 89.58405 60.86299 30.05534
#
# Poissons Ratio (x) = 0.36195 0.13847
# Poissons Ratio (y) = 0.53275 -0.15659
# Poissons Ratio (z) = 0.41273 -0.31709
#
# Static dielectric constant tensor:
#      x y z
#    x 1.860660 0.000000 0.000000 
#    y 0.000000 1.913920 0.000000 
#    z 0.000000 0.000000 1.843520 
# 
# From -- ./inp_files/28792.got.cif
#   From: 2010.05.17/outbox.cif.g08.bks.cpg/sg52_15_cif.got.tgz:28792.got - 2010.06.03 12:15:38.
