data_PCOD9411993
_publ_section_title
;
Structure prediction by ZEFSAII (Michael W. Deem and Ramdas Pophale) SiO2 
 PCOD9411993
Probable space group: P N N A
;
_chemical_formula_sum "Si O2"
_cell_formula_units_Z 28
_cell_length_a 7.136596
_cell_length_b 13.504400
_cell_length_c 11.322505
_cell_angle_alpha 90.000000
_cell_angle_beta 90.000000
_cell_angle_gamma 90.000000
_cell_volume 1091.211481
_symmetry_space_group_name_H-M "P N N A"
_symmetry_group_IT_number 52
_symmetry_cell_setting 'orthorhombic'
loop_
_space_group_symop_operation_xyz
x,y,z
1/2-x,-y,z
x,1/2-y,1/2-z
1/2-x,1/2+y,1/2-z
-x,-y,-z
1/2+x,y,-z
-x,1/2+y,1/2+z
1/2+x,1/2-y,1/2+z
loop_
_atom_site_type_symbol
_atom_site_label
_atom_site_fract_x
_atom_site_fract_y
_atom_site_fract_z
Si Si1 0.382659 0.593822 0.658316
Si Si2 0.965996 0.806120 0.401544
Si Si3 0.108053 0.171252 0.337902
Si Si4 0.250000 0.000000 0.181205
O O1 0.250000 0.500000 0.638026
O O2 0.356376 0.701268 0.598376
O O3 0.386734 0.622504 0.798669
O O4 0.591548 0.561777 0.616416
O O5 0.975352 0.846568 0.533800
O O6 0.181098 0.790453 0.363426
O O7 0.013931 0.250000 0.250000
O O8 0.130985 0.072000 0.264453
#
# Coordination Sequence:
#
# PCOD9411993 Si02
#       4
#     8   8   8   4
#     4  10  22  44  68 102 135 176 233 270 341 412
#     4  10  23  44  65  99 140 171 222 289 329 400
#     4  11  23  44  66  96 138 174 223 283 336 394
#     4  10  22  42  70  94 136 174 220 286 330 392
#
# _framework density 25.659555000000001
#
# number of rings (size 3 to 8) (size 9 to 14) (size 15 to 20)
#    0.000    1.714    5.714    0.000    6.000    4.571 
#    2.571    2.857    0.000    0.000    0.000    0.000 
#    0.000    0.000    0.000    0.000    0.000    0.000 
#
# Total GULP energy -156685.183131 kJ/mol
# GULP energy per Si atom -5595.899398 kJ/mol
# Density = 2.560115 g / cm^3
# Si number density = 25.659555 Si / 1000 Ang^3
#
#
#
# Elastic Constant Matrix: (Units=GPa)
#
#
# Indices 1 2 3 4 5 6 
#
# 1 69.2768 15.2565 -3.1784 0.0000 0.0000 0.0000
# 2 15.2565 121.5451 -5.7750 0.0000 0.0000 0.0000
# 3 -3.1784 -5.7750 103.8238 0.0000 0.0000 0.0000
# 4 0.0000 0.0000 0.0000 13.2742 0.0000 0.0000
# 5 0.0000 0.0000 0.0000 0.0000 20.3035 0.0000
# 6 0.0000 0.0000 0.0000 0.0000 0.0000 39.4030
#
#
#
# Elastic Compliance Matrix: (Units=1/GPa)
#
#
# Indices 1 2 3 4 5 6 
#
# 1 0.014858 -0.001848 0.000352 0.000000 0.000000 0.000000
# 2 -0.001848 0.008479 0.000415 0.000000 0.000000 0.000000
# 3 0.000352 0.000415 0.009666 0.000000 0.000000 0.000000
# 4 0.000000 0.000000 0.000000 0.075334 0.000000 0.000000
# 5 0.000000 0.000000 0.000000 0.000000 0.049253 0.000000
# 6 0.000000 0.000000 0.000000 0.000000 0.000000 0.025379
#
#
# Mechanical properties :
#
#
# Convention : Reuss Voigt Hill
#
# Bulk Modulus (GPa) = 32.42504 34.13911 33.28208
# Shear Modulus (GPa) = 25.58716 33.81899 29.70307
#
# Velocity S-wave (km/s) = 3.16124 3.63435 3.40602
# Velocity P-wave (km/s) = 5.09791 5.56281 5.33542
#
# Compressibility (1/GPa) = 0.03084036
#
# Stress axis : x y z
#
# Youngs Moduli (GPa) = 67.30365 117.93686 103.46008
#
# Poissons Ratio (x) = 0.21798 -0.03642
# Poissons Ratio (y) = 0.12440 -0.04294
# Poissons Ratio (z) = -0.02369 -0.04895
#
# Static dielectric constant tensor:
#      x y z
#    x 2.061010 0.000000 0.000000 
#    y 0.000000 1.954120 0.000000 
#    z 0.000000 0.000000 2.009870 
# 
# From -- ./inp_files/16342.got.cif
#   From: 2010.05.17/outbox.cif.g08.bks.cpg/sg52_9_cif.got.tgz:16342.got - 2010.06.03 12:15:38.
