data_PCOD9411124
_publ_section_title
;
Structure prediction by ZEFSAII (Michael W. Deem and Ramdas Pophale) SiO2 
 PCOD9411124
Probable space group: P N N A
;
_chemical_formula_sum "Si O2"
_cell_formula_units_Z 56
_cell_length_a 8.765616
_cell_length_b 13.099223
_cell_length_c 20.991158
_cell_angle_alpha 90.000000
_cell_angle_beta 90.000000
_cell_angle_gamma 90.000000
_cell_volume 2410.262670
_symmetry_space_group_name_H-M "P N N A"
_symmetry_group_IT_number 52
_symmetry_cell_setting 'orthorhombic'
loop_
_space_group_symop_operation_xyz
x,y,z
1/2-x,-y,z
x,1/2-y,1/2-z
1/2-x,1/2+y,1/2-z
-x,-y,-z
1/2+x,y,-z
-x,1/2+y,1/2+z
1/2+x,1/2-y,1/2+z
loop_
_atom_site_type_symbol
_atom_site_label
_atom_site_fract_x
_atom_site_fract_y
_atom_site_fract_z
Si Si1 0.294241 0.747950 0.063036
Si Si2 0.847610 0.407081 0.716384
Si Si3 0.606018 0.783387 0.126368
Si Si4 0.645443 0.159954 0.436606
Si Si5 0.121844 0.914232 0.359323
Si Si6 0.525147 0.627728 0.580023
Si Si7 0.586037 0.250000 0.750000
Si Si8 0.750000 0.500000 0.406597
O O1 0.463957 0.784061 0.077755
O O2 0.212192 0.690652 0.122642
O O3 0.191688 0.848909 0.050215
O O4 0.295307 0.659503 0.008961
O O5 0.750000 0.500000 0.688914
O O6 0.929926 0.420552 0.784950
O O7 0.952866 0.376852 0.657313
O O8 0.704934 0.339721 0.738467
O O9 0.713175 0.688612 0.107412
O O10 0.526060 0.753393 0.191111
O O11 0.691561 0.893576 0.127398
O O12 0.525249 0.081649 0.406134
O O13 0.557332 0.267456 0.437222
O O14 0.250000 0.000000 0.367736
O O15 0.907698 0.538940 0.438494
#
# Coordination Sequence:
#
# PCOD9411124 Si02
#       8
#     8   8   8   8   8   8   4   4
#     4  11  21  41  67  86 128 177 220 260 324 412
#     4  11  21  38  68  97 125 165 222 274 323 415
#     4  11  22  39  62  91 130 163 217 266 330 395
#     4  10  23  40  60  93 130 170 216 277 334 385
#     4  10  22  41  66  96 124 169 227 275 337 407
#     4  10  21  40  64  90 129 169 212 266 333 392
#     4  12  20  38  66  94 122 178 210 258 336 402
#     4  10  24  40  60 100 130 160 212 274 330 378
#
# _framework density 23.233982000000001
#
# number of rings (size 3 to 8) (size 9 to 14) (size 15 to 20)
#    0.000    1.429    2.857    3.429    0.000    2.857 
#    0.000   12.143    1.571    0.000    0.000    0.000 
#    0.000    0.000    0.000    0.000    0.000    0.000 
#
# Total GULP energy -311883.834489 kJ/mol
# GULP energy per Si atom -5569.354187 kJ/mol
# Density = 2.318110 g / cm^3
# Si number density = 23.233982 Si / 1000 Ang^3
#
#
#
# Elastic Constant Matrix: (Units=GPa)
#
#
# Indices 1 2 3 4 5 6 
#
# 1 129.9013 20.5222 27.3034 0.0000 0.0000 0.0000
# 2 20.5222 44.9045 -7.8716 0.0000 0.0000 0.0000
# 3 27.3034 -7.8716 106.7203 0.0000 0.0000 0.0000
# 4 0.0000 0.0000 0.0000 0.6655 0.0000 0.0000
# 5 0.0000 0.0000 0.0000 0.0000 62.4940 0.0000
# 6 0.0000 0.0000 0.0000 0.0000 0.0000 33.5597
#
#
#
# Elastic Compliance Matrix: (Units=1/GPa)
#
#
# Indices 1 2 3 4 5 6 
#
# 1 0.008972 -0.004562 -0.002632 0.000000 0.000000 0.000000
# 2 -0.004562 0.024881 0.003002 0.000000 0.000000 0.000000
# 3 -0.002632 0.003002 0.010265 0.000000 0.000000 0.000000
# 4 0.000000 0.000000 0.000000 1.502640 0.000000 0.000000
# 5 0.000000 0.000000 0.000000 0.000000 0.016002 0.000000
# 6 0.000000 0.000000 0.000000 0.000000 0.000000 0.029798
#
#
# Mechanical properties :
#
#
# Convention : Reuss Voigt Hill
#
# Bulk Modulus (GPa) = 27.98382 40.15934 34.07158
# Shear Modulus (GPa) = 3.10010 35.44865 19.27437
#
# Velocity S-wave (km/s) = 1.15637 3.91029 2.88336
# Velocity P-wave (km/s) = 3.72202 6.14080 5.07754
#
# Compressibility (1/GPa) = 0.03573494
#
# Stress axis : x y z
#
# Youngs Moduli (GPa) = 111.45771 40.19197 97.41773
#
# Poissons Ratio (x) = 0.18335 0.25639
# Poissons Ratio (y) = 0.50844 -0.29247
# Poissons Ratio (z) = 0.29334 -0.12067
#
# Static dielectric constant tensor:
#      x y z
#    x 2.040720 0.000000 0.000000 
#    y 0.000000 1.905830 0.000000 
#    z 0.000000 0.000000 1.206230 
# 
# From -- ./inp_files/36081.got.cif
#   From: 2010.05.17/outbox.cif.g08.bks.cpg/sg52_19_cif.got.tgz:36081.got - 2010.06.03 12:15:38.
