data_PCOD9411189
_publ_section_title
;
Structure prediction by ZEFSAII (Michael W. Deem and Ramdas Pophale) SiO2 
 PCOD9411189
Probable space group: P N N A
;
_chemical_formula_sum "Si O2"
_cell_formula_units_Z 32
_cell_length_a 13.187902
_cell_length_b 12.811333
_cell_length_c 7.713092
_cell_angle_alpha 90.000000
_cell_angle_beta 90.000000
_cell_angle_gamma 90.000000
_cell_volume 1303.162405
_symmetry_space_group_name_H-M "P N N A"
_symmetry_group_IT_number 52
_symmetry_cell_setting 'orthorhombic'
loop_
_space_group_symop_operation_xyz
x,y,z
1/2-x,-y,z
x,1/2-y,1/2-z
1/2-x,1/2+y,1/2-z
-x,-y,-z
1/2+x,y,-z
-x,1/2+y,1/2+z
1/2+x,1/2-y,1/2+z
loop_
_atom_site_type_symbol
_atom_site_label
_atom_site_fract_x
_atom_site_fract_y
_atom_site_fract_z
Si Si1 0.910566 0.841573 0.981252
Si Si2 0.087886 0.372832 0.889716
Si Si3 0.856429 0.091459 0.507099
Si Si4 0.912306 0.250000 0.250000
Si Si5 0.750000 0.000000 0.818742
O O1 0.868539 0.776922 0.503239
O O2 0.835459 0.932258 0.917263
O O3 0.012305 0.825909 0.863677
O O4 0.928421 0.860498 0.185068
O O5 0.149825 0.476247 0.926742
O O6 0.975575 0.388063 0.962085
O O7 0.837925 0.180890 0.367861
O O8 0.805254 0.083502 0.693575
#
# Coordination Sequence:
#
# PCOD9411189 Si02
#       5
#     8   8   8   4   4
#     4  10  21  40  68  96 129 171 224 274 330 398
#     4   9  20  44  69  89 124 182 224 260 328 420
#     4  10  22  41  67  95 130 170 223 277 332 396
#     4  10  22  46  70  90 126 184 228 258 326 426
#     4  12  24  38  62 104 144 170 218 294 342 374
#
# _framework density 24.555648000000001
#
# number of rings (size 3 to 8) (size 9 to 14) (size 15 to 20)
#    0.000    2.000    0.000    4.500    0.000    5.000 
#    0.000   27.500    0.000    9.000    0.000    0.000 
#    0.000    0.000    0.000    0.000    0.000    0.000 
#
# Total GULP energy -178780.527825 kJ/mol
# GULP energy per Si atom -5586.891495 kJ/mol
# Density = 2.449976 g / cm^3
# Si number density = 24.555648 Si / 1000 Ang^3
#
#
#
# Elastic Constant Matrix: (Units=GPa)
#
#
# Indices 1 2 3 4 5 6 
#
# 1 45.2768 29.0855 -1.3908 0.0000 0.0000 0.0000
# 2 29.0855 128.4007 53.3812 0.0000 0.0000 0.0000
# 3 -1.3908 53.3812 97.0320 0.0000 0.0000 0.0000
# 4 0.0000 0.0000 0.0000 49.2200 0.0000 0.0000
# 5 0.0000 0.0000 0.0000 0.0000 -15.3189 0.0000
# 6 0.0000 0.0000 0.0000 0.0000 0.0000 15.0027
#
#
#
# Elastic Compliance Matrix: (Units=1/GPa)
#
#
# Indices 1 2 3 4 5 6 
#
# 1 0.027579 -0.008313 0.004969 0.000000 0.000000 0.000000
# 2 -0.008313 0.012603 -0.007053 0.000000 0.000000 0.000000
# 3 0.004969 -0.007053 0.014257 0.000000 0.000000 0.000000
# 4 0.000000 0.000000 0.000000 0.020317 0.000000 0.000000
# 5 0.000000 0.000000 0.000000 0.000000 -0.065279 0.000000
# 6 0.000000 0.000000 0.000000 0.000000 0.000000 0.066655
#
#
# Mechanical properties :
#
#
# Convention : Reuss Voigt Hill
#
# Bulk Modulus (GPa) = 29.72173 48.09570 38.90872
# Shear Modulus (GPa) = 46.23561 22.42297 34.32929
#
# Velocity S-wave (km/s) = 4.34394 3.02511 3.74307
# Velocity P-wave (km/s) = 6.10654 5.64187 5.87880
#
# Compressibility (1/GPa) = 0.03364541
#
# Stress axis : x y z
#
# Youngs Moduli (GPa) = 36.25924 79.34445 70.14054
#
# Poissons Ratio (x) = 0.65958 -0.34850
# Poissons Ratio (y) = 0.30142 0.49468
# Poissons Ratio (z) = -0.18016 0.55959
#
# Static dielectric constant tensor:
#      x y z
#    x 1.955080 0.000000 0.000000 
#    y 0.000000 2.023330 0.000000 
#    z 0.000000 0.000000 1.936720 
# 
# From -- ./inp_files/2032.got.cif
#   From: 2010.05.17/outbox.cif.g08.bks.cpg/sg52_2_cif.got.tgz:2032.got - 2010.06.03 12:15:38.
