data_PCOD9411458
_publ_section_title
;
Structure prediction by ZEFSAII (Michael W. Deem and Ramdas Pophale) SiO2 
 PCOD9411458
Probable space group: P N N A
;
_chemical_formula_sum "Si O2"
_cell_formula_units_Z 48
_cell_length_a 14.346574
_cell_length_b 27.665711
_cell_length_c 5.551285
_cell_angle_alpha 90.000000
_cell_angle_beta 90.000000
_cell_angle_gamma 90.000000
_cell_volume 2203.350371
_symmetry_space_group_name_H-M "P N N A"
_symmetry_group_IT_number 52
_symmetry_cell_setting 'orthorhombic'
loop_
_space_group_symop_operation_xyz
x,y,z
1/2-x,-y,z
x,1/2-y,1/2-z
1/2-x,1/2+y,1/2-z
-x,-y,-z
1/2+x,y,-z
-x,1/2+y,1/2+z
1/2+x,1/2-y,1/2+z
loop_
_atom_site_type_symbol
_atom_site_label
_atom_site_fract_x
_atom_site_fract_y
_atom_site_fract_z
Si Si1 0.873166 0.614518 0.060046
Si Si2 0.708462 0.367841 0.568629
Si Si3 0.443757 0.806093 0.274207
Si Si4 0.648188 0.524031 0.121147
Si Si5 0.506542 0.955223 0.754407
Si Si6 0.096044 0.617816 0.616204
O O1 0.828720 0.608391 0.322051
O O2 0.959517 0.578281 0.047172
O O3 0.811463 0.604854 0.821571
O O4 0.908314 0.669766 0.024728
O O5 0.643580 0.320771 0.603766
O O6 0.817933 0.361115 0.537229
O O7 0.462409 0.750000 0.250000
O O8 0.533249 0.838663 0.211016
O O9 0.750000 0.500000 0.131254
O O10 0.574652 0.494626 0.292182
O O11 0.643160 0.579923 0.199127
O O12 0.599596 0.521992 0.858669
O O13 0.530685 0.916533 0.955869
#
# Coordination Sequence:
#
# PCOD9411458 Si02
#       6
#     8   8   8   8   8   8
#     4  10  21  47  69  97 141 185 229 296 356 424
#     4  10  24  42  75  99 143 182 233 288 365 416
#     4  10  24  47  72 106 139 189 241 303 363 431
#     4  11  25  40  68 102 140 193 239 295 362 440
#     4  11  23  43  67 102 143 180 245 292 364 429
#     4  12  24  45  71 104 141 194 237 308 354 445
#
# _framework density 21.785007
#
# number of rings (size 3 to 8) (size 9 to 14) (size 15 to 20)
#    1.000    0.333    3.333    1.500    4.667    1.333 
#    6.000    0.000    0.000    0.000    0.000    0.000 
#    0.000    0.000    0.000    0.000    0.000    0.000 
#
# Total GULP energy -267520.828244 kJ/mol
# GULP energy per Si atom -5573.350588 kJ/mol
# Density = 2.173542 g / cm^3
# Si number density = 21.785007 Si / 1000 Ang^3
#
#
#
# Elastic Constant Matrix: (Units=GPa)
#
#
# Indices 1 2 3 4 5 6 
#
# 1 144.2080 49.0431 30.6981 0.0000 0.0000 0.0000
# 2 49.0431 141.7516 18.5034 0.0000 0.0000 0.0000
# 3 30.6981 18.5034 94.0071 0.0000 0.0000 0.0000
# 4 0.0000 0.0000 0.0000 19.9279 0.0000 0.0000
# 5 0.0000 0.0000 0.0000 0.0000 25.2049 0.0000
# 6 0.0000 0.0000 0.0000 0.0000 0.0000 21.6770
#
#
#
# Elastic Compliance Matrix: (Units=1/GPa)
#
#
# Indices 1 2 3 4 5 6 
#
# 1 0.008278 -0.002578 -0.002196 0.000000 0.000000 0.000000
# 2 -0.002578 0.008043 -0.000741 0.000000 0.000000 0.000000
# 3 -0.002196 -0.000741 0.011501 0.000000 0.000000 0.000000
# 4 0.000000 0.000000 0.000000 0.050181 0.000000 0.000000
# 5 0.000000 0.000000 0.000000 0.000000 0.039675 0.000000
# 6 0.000000 0.000000 0.000000 0.000000 0.000000 0.046132
#
#
# Mechanical properties :
#
#
# Convention : Reuss Voigt Hill
#
# Bulk Modulus (GPa) = 59.55141 64.05068 61.80104
# Shear Modulus (GPa) = 27.71050 32.14344 29.92697
#
# Velocity S-wave (km/s) = 3.57038 3.84537 3.71042
# Velocity P-wave (km/s) = 6.66274 7.01291 6.84007
#
# Compressibility (1/GPa) = 0.01679221
#
# Stress axis : x y z
#
# Youngs Moduli (GPa) = 120.79510 124.32942 86.95243
#
# Poissons Ratio (x) = 0.32046 0.19095
# Poissons Ratio (y) = 0.31135 0.06447
# Poissons Ratio (z) = 0.26527 0.09218
#
# Static dielectric constant tensor:
#      x y z
#    x 1.842050 0.000000 0.000000 
#    y 0.000000 1.778200 0.000000 
#    z 0.000000 0.000000 1.891210 
# 
# From -- ./inp_files/2453.got.cif
#   From: 2010.05.17/outbox.cif.g08.bks.cpg/sg52_2_cif.got.tgz:2453.got - 2010.06.03 12:15:38.
