data_PCOD9411433
_publ_section_title
;
Structure prediction by ZEFSAII (Michael W. Deem and Ramdas Pophale) SiO2 
 PCOD9411433
Probable space group: P N N A
;
_chemical_formula_sum "Si O2"
_cell_formula_units_Z 32
_cell_length_a 8.031077
_cell_length_b 5.221365
_cell_length_c 31.516912
_cell_angle_alpha 90.000000
_cell_angle_beta 90.000000
_cell_angle_gamma 90.000000
_cell_volume 1321.604481
_symmetry_space_group_name_H-M "P N N A"
_symmetry_group_IT_number 52
_symmetry_cell_setting 'orthorhombic'
loop_
_space_group_symop_operation_xyz
x,y,z
1/2-x,-y,z
x,1/2-y,1/2-z
1/2-x,1/2+y,1/2-z
-x,-y,-z
1/2+x,y,-z
-x,1/2+y,1/2+z
1/2+x,1/2-y,1/2+z
loop_
_atom_site_type_symbol
_atom_site_label
_atom_site_fract_x
_atom_site_fract_y
_atom_site_fract_z
Si Si1 0.561133 0.116738 0.830230
Si Si2 0.750000 0.500000 0.872218
Si Si3 0.750000 0.500000 0.039425
Si Si4 0.850117 0.250000 0.250000
Si Si5 0.250000 0.500000 0.481152
Si Si6 0.514126 0.849958 0.915066
O O1 0.599536 0.408250 0.843432
O O2 0.459260 0.124087 0.787456
O O3 0.750000 0.000000 0.824637
O O4 0.469632 0.993188 0.871202
O O5 0.687082 0.719163 0.902125
O O6 0.609709 0.371965 0.069713
O O7 0.721479 0.743151 0.008616
O O8 0.750000 0.500000 0.233149
O O9 0.421865 0.523657 0.453723
#
# Coordination Sequence:
#
# PCOD9411433 Si02
#       6
#     8   4   4   4   4   8
#     4  10  25  48  83 108 152 213 264 308 384 498
#     4  10  21  44  77 102 144 202 272 303 360 492
#     4  12  29  40  74 108 159 195 260 332 402 438
#     4  12  32  52  78 126 166 188 246 342 406 456
#     4  12  24  46  67 110 151 205 264 329 376 464
#     4  11  24  46  72 108 146 208 264 316 391 469
#
# _framework density 24.212992
#
# number of rings (size 3 to 8) (size 9 to 14) (size 15 to 20)
#    0.000    1.000    3.750    2.250   12.250    2.000 
#    0.000    0.000    0.000    0.000    0.000    0.000 
#    0.000    0.000    0.000    0.000    0.000    0.000 
#
# Total GULP energy -178548.593637 kJ/mol
# GULP energy per Si atom -5579.643551 kJ/mol
# Density = 2.415788 g / cm^3
# Si number density = 24.212992 Si / 1000 Ang^3
#
#
#
# Elastic Constant Matrix: (Units=GPa)
#
#
# Indices 1 2 3 4 5 6 
#
# 1 88.2384 44.2571 67.9891 0.0000 0.0000 0.0000
# 2 44.2571 130.3034 58.1813 0.0000 0.0000 0.0000
# 3 67.9891 58.1813 165.6933 0.0000 0.0000 0.0000
# 4 0.0000 0.0000 0.0000 33.5975 0.0000 0.0000
# 5 0.0000 0.0000 0.0000 0.0000 -218.5762 0.0000
# 6 0.0000 0.0000 0.0000 0.0000 0.0000 49.2582
#
#
#
# Elastic Compliance Matrix: (Units=1/GPa)
#
#
# Indices 1 2 3 4 5 6 
#
# 1 0.017681 -0.003280 -0.006103 0.000000 0.000000 0.000000
# 2 -0.003280 0.009710 -0.002064 0.000000 0.000000 0.000000
# 3 -0.006103 -0.002064 0.009264 0.000000 0.000000 0.000000
# 4 0.000000 0.000000 0.000000 0.029764 0.000000 0.000000
# 5 0.000000 0.000000 0.000000 0.000000 -0.004575 0.000000
# 6 0.000000 0.000000 0.000000 0.000000 0.000000 0.020301
#
#
# Mechanical properties :
#
#
# Convention : Reuss Voigt Hill
#
# Bulk Modulus (GPa) = 72.66886 80.56555 76.61720
# Shear Modulus (GPa) = 45.60975 -12.89027 16.35974
#
# Velocity S-wave (km/s) = 4.34486 -2.30982 2.60217
# Velocity P-wave (km/s) = 7.43289 5.12174 6.38279
#
# Compressibility (1/GPa) = 0.01376105
#
# Stress axis : x y z
#
# Youngs Moduli (GPa) = 56.55884 102.98801 107.94270
#
# Poissons Ratio (x) = 0.33781 0.65879
# Poissons Ratio (y) = 0.18552 0.22275
# Poissons Ratio (z) = 0.34519 0.21252
#
# Static dielectric constant tensor:
#      x y z
#    x 2.003630 0.000000 0.000000 
#    y 0.000000 2.115660 0.000000 
#    z 0.000000 0.000000 2.010570 
# 
# From -- ./inp_files/44167.got.cif
#   From: 2010.05.17/outbox.cif.g08.bks.cpg/sg52_23_cif.got.tgz:44167.got - 2010.06.03 12:15:38.
