data_PCOD9411395
_publ_section_title
;
Structure prediction by ZEFSAII (Michael W. Deem and Ramdas Pophale) SiO2 
 PCOD9411395
Probable space group: P N N A
;
_chemical_formula_sum "Si O2"
_cell_formula_units_Z 60
_cell_length_a 12.266815
_cell_length_b 11.857459
_cell_length_c 19.097928
_cell_angle_alpha 90.000000
_cell_angle_beta 90.000000
_cell_angle_gamma 90.000000
_cell_volume 2777.855809
_symmetry_space_group_name_H-M "P N N A"
_symmetry_group_IT_number 52
_symmetry_cell_setting 'orthorhombic'
loop_
_space_group_symop_operation_xyz
x,y,z
1/2-x,-y,z
x,1/2-y,1/2-z
1/2-x,1/2+y,1/2-z
-x,-y,-z
1/2+x,y,-z
-x,1/2+y,1/2+z
1/2+x,1/2-y,1/2+z
loop_
_atom_site_type_symbol
_atom_site_label
_atom_site_fract_x
_atom_site_fract_y
_atom_site_fract_z
Si Si1 0.250000 0.500000 0.816135
Si Si2 0.587045 0.587338 0.296390
Si Si3 0.131818 0.498422 0.320464
Si Si4 0.181131 0.600782 0.559082
Si Si5 0.414942 0.297231 0.424573
Si Si6 0.786475 0.625377 0.929313
Si Si7 0.154439 0.193299 0.584202
Si Si8 0.085847 0.261806 0.328518
O O1 0.327316 0.429967 0.763615
O O2 0.186333 0.406671 0.862240
O O3 0.476146 0.521566 0.274472
O O4 0.628402 0.545042 0.371748
O O5 0.541373 0.710985 0.317822
O O6 0.250000 0.500000 0.285202
O O7 0.110767 0.603760 0.369598
O O8 0.369417 0.621618 0.361862
O O9 0.250000 0.500000 0.523788
O O10 0.095920 0.650565 0.503037
O O11 0.260404 0.701589 0.585116
O O12 0.317848 0.206390 0.419293
O O13 0.532253 0.242210 0.409328
O O14 0.750000 0.500000 0.917239
O O15 0.880665 0.660827 0.876017
O O16 0.831410 0.641682 0.007064
O O17 0.132495 0.250000 0.250000
#
# Coordination Sequence:
#
# PCOD9411395 Si02
#       8
#     4   8   8   8   8   8   8   8
#     4  12  26  50  68 102 150 202 246 304 354 450
#     4  10  24  43  69 103 143 188 238 286 370 425
#     4  10  21  43  70 104 144 175 240 302 370 430
#     4  11  23  41  70 105 144 182 233 300 375 435
#     4  11  23  42  71 106 135 185 239 314 358 430
#     4  11  24  48  71 102 145 187 243 297 367 448
#     4  11  27  45  70 103 143 190 251 295 357 440
#     4  10  24  43  70 103 137 188 231 299 366 436
#
# _framework density 21.599392000000002
#
# number of rings (size 3 to 8) (size 9 to 14) (size 15 to 20)
#    0.800    0.533    2.667    2.000    3.733    3.200 
#    2.400    0.000    0.000    0.000    0.000    0.000 
#    0.000    0.000    0.000    0.000    0.000    0.000 
#
# Total GULP energy -334732.469257 kJ/mol
# GULP energy per Si atom -5578.874488 kJ/mol
# Density = 2.155023 g / cm^3
# Si number density = 21.599392 Si / 1000 Ang^3
#
#
#
# Elastic Constant Matrix: (Units=GPa)
#
#
# Indices 1 2 3 4 5 6 
#
# 1 136.5494 43.6373 60.7006 0.0000 0.0000 0.0000
# 2 43.6373 130.2081 48.4909 0.0000 0.0000 0.0000
# 3 60.7006 48.4909 105.3740 0.0000 0.0000 0.0000
# 4 0.0000 0.0000 0.0000 30.0428 0.0000 0.0000
# 5 0.0000 0.0000 0.0000 0.0000 24.5258 0.0000
# 6 0.0000 0.0000 0.0000 0.0000 0.0000 32.5025
#
#
#
# Elastic Compliance Matrix: (Units=1/GPa)
#
#
# Indices 1 2 3 4 5 6 
#
# 1 0.010071 -0.001466 -0.005127 0.000000 0.000000 0.000000
# 2 -0.001466 0.009482 -0.003519 0.000000 0.000000 0.000000
# 3 -0.005127 -0.003519 0.014063 0.000000 0.000000 0.000000
# 4 0.000000 0.000000 0.000000 0.033286 0.000000 0.000000
# 5 0.000000 0.000000 0.000000 0.000000 0.040773 0.000000
# 6 0.000000 0.000000 0.000000 0.000000 0.000000 0.030767
#
#
# Mechanical properties :
#
#
# Convention : Reuss Voigt Hill
#
# Bulk Modulus (GPa) = 74.67039 75.30989 74.99014
# Shear Modulus (GPa) = 30.65074 32.03440 31.34257
#
# Velocity S-wave (km/s) = 3.77112 3.85530 3.81344
# Velocity P-wave (km/s) = 7.32171 7.40001 7.36097
#
# Compressibility (1/GPa) = 0.01339219
#
# Stress axis : x y z
#
# Youngs Moduli (GPa) = 99.29708 105.46587 71.11075
#
# Poissons Ratio (x) = 0.15459 0.36457
# Poissons Ratio (y) = 0.14555 0.25023
# Poissons Ratio (z) = 0.50907 0.37112
#
# Static dielectric constant tensor:
#      x y z
#    x 1.823790 0.000000 0.000000 
#    y 0.000000 1.825790 0.000000 
#    z 0.000000 0.000000 1.788730 
# 
# From -- ./inp_files/36886.got.cif
#   From: 2010.05.17/outbox.cif.g08.bks.cpg/sg52_19_cif.got.tgz:36886.got - 2010.06.03 12:15:38.
