data_PCOD9411140
_publ_section_title
;
Structure prediction by ZEFSAII (Michael W. Deem and Ramdas Pophale) SiO2 
 PCOD9411140
Probable space group: P N N A
;
_chemical_formula_sum "Si O2"
_cell_formula_units_Z 60
_cell_length_a 31.101781
_cell_length_b 17.556338
_cell_length_c 5.250248
_cell_angle_alpha 90.000000
_cell_angle_beta 90.000000
_cell_angle_gamma 90.000000
_cell_volume 2866.810659
_symmetry_space_group_name_H-M "P N N A"
_symmetry_group_IT_number 52
_symmetry_cell_setting 'orthorhombic'
loop_
_space_group_symop_operation_xyz
x,y,z
1/2-x,-y,z
x,1/2-y,1/2-z
1/2-x,1/2+y,1/2-z
-x,-y,-z
1/2+x,y,-z
-x,1/2+y,1/2+z
1/2+x,1/2-y,1/2+z
loop_
_atom_site_type_symbol
_atom_site_label
_atom_site_fract_x
_atom_site_fract_y
_atom_site_fract_z
Si Si1 0.540887 0.955607 0.381611
Si Si2 0.068076 0.102469 0.879233
Si Si3 0.173575 0.250000 0.250000
Si Si4 0.779482 0.615295 0.446134
Si Si5 0.974445 0.834177 0.636646
Si Si6 0.850522 0.872082 0.418776
Si Si7 0.366214 0.462847 0.076026
Si Si8 0.813850 0.443000 0.446259
O O1 0.520716 0.874095 0.324021
O O2 0.583362 0.946922 0.550610
O O3 0.500000 0.000000 0.500000
O O4 0.556568 0.013594 0.162728
O O5 0.042590 0.149444 0.652532
O O6 0.117780 0.116754 0.818169
O O7 0.056267 0.123462 0.162973
O O8 0.201877 0.317103 0.378242
O O9 0.142874 0.207867 0.448925
O O10 0.801296 0.629518 0.172141
O O11 0.796316 0.529232 0.499575
O O12 0.728256 0.609760 0.439255
O O13 0.975681 0.750000 0.750000
O O14 0.860320 0.945518 0.588020
O O15 0.340005 0.441977 0.818312
O O16 0.344929 0.424961 0.319890
#
# Coordination Sequence:
#
# PCOD9411140 Si02
#       8
#     8   8   4   8   8   8   8   8
#     4   9  21  40  66  93 122 160 212 261 310 372
#     4  10  23  39  61  88 126 164 207 247 315 390
#     4  12  22  36  58  86 130 158 200 254 324 372
#     4  10  23  36  59  85 122 161 203 248 304 366
#     4  11  23  38  59  88 124 167 203 258 314 377
#     4  10  23  37  57  91 125 162 202 253 317 383
#     4  10  21  40  65  89 118 158 208 258 305 362
#     4  10  22  40  63  87 116 161 212 249 293 364
#
# _framework density 20.929179999999999
#
# number of rings (size 3 to 8) (size 9 to 14) (size 15 to 20)
#    0.000    1.867    1.333    1.200    4.667   10.667 
#    0.000    0.000    2.933    0.000    0.000    0.000 
#    0.000    0.000    0.000    0.000    0.000    0.000 
#
# Total GULP energy -335029.940305 kJ/mol
# GULP energy per Si atom -5583.832338 kJ/mol
# Density = 2.088154 g / cm^3
# Si number density = 20.929180 Si / 1000 Ang^3
#
#
#
# Elastic Constant Matrix: (Units=GPa)
#
#
# Indices 1 2 3 4 5 6 
#
# 1 131.3895 17.3332 44.2691 0.0000 0.0000 0.0000
# 2 17.3332 32.7796 12.4195 0.0000 0.0000 0.0000
# 3 44.2691 12.4195 83.6079 0.0000 0.0000 0.0000
# 4 0.0000 0.0000 0.0000 15.2670 0.0000 0.0000
# 5 0.0000 0.0000 0.0000 0.0000 19.4137 0.0000
# 6 0.0000 0.0000 0.0000 0.0000 0.0000 20.6890
#
#
#
# Elastic Compliance Matrix: (Units=1/GPa)
#
#
# Indices 1 2 3 4 5 6 
#
# 1 0.009596 -0.003337 -0.004585 0.000000 0.000000 0.000000
# 2 -0.003337 0.033486 -0.003207 0.000000 0.000000 0.000000
# 3 -0.004585 -0.003207 0.014865 0.000000 0.000000 0.000000
# 4 0.000000 0.000000 0.000000 0.065501 0.000000 0.000000
# 5 0.000000 0.000000 0.000000 0.000000 0.051510 0.000000
# 6 0.000000 0.000000 0.000000 0.000000 0.000000 0.048335
#
#
# Mechanical properties :
#
#
# Convention : Reuss Voigt Hill
#
# Bulk Modulus (GPa) = 28.02048 43.98007 36.00027
# Shear Modulus (GPa) = 19.42136 22.65761 21.03949
#
# Velocity S-wave (km/s) = 3.04954 3.29384 3.17404
# Velocity P-wave (km/s) = 5.08103 5.96030 5.53814
#
# Compressibility (1/GPa) = 0.03568819
#
# Stress axis : x y z
#
# Youngs Moduli (GPa) = 104.20897 29.86281 67.27269
#
# Poissons Ratio (x) = 0.09965 0.30847
# Poissons Ratio (y) = 0.34774 0.21577
# Poissons Ratio (z) = 0.47783 0.09578
#
# Static dielectric constant tensor:
#      x y z
#    x 1.765490 0.000000 0.000000 
#    y 0.000000 1.786230 0.000000 
#    z 0.000000 0.000000 1.804900 
# 
# From -- ./inp_files/6510.got.cif
#   From: 2010.05.17/outbox.cif.g08.bks.cpg/sg52_4_cif.got.tgz:6510.got - 2010.06.03 12:15:38.
