data_PCOD9411579
_publ_section_title
;
Structure prediction by ZEFSAII (Michael W. Deem and Ramdas Pophale) SiO2 
 PCOD9411579
Probable space group: P N N A
;
_chemical_formula_sum "Si O2"
_cell_formula_units_Z 48
_cell_length_a 14.348203
_cell_length_b 17.774234
_cell_length_c 7.328150
_cell_angle_alpha 90.000000
_cell_angle_beta 90.000000
_cell_angle_gamma 90.000000
_cell_volume 1868.885766
_symmetry_space_group_name_H-M "P N N A"
_symmetry_group_IT_number 52
_symmetry_cell_setting 'orthorhombic'
loop_
_space_group_symop_operation_xyz
x,y,z
1/2-x,-y,z
x,1/2-y,1/2-z
1/2-x,1/2+y,1/2-z
-x,-y,-z
1/2+x,y,-z
-x,1/2+y,1/2+z
1/2+x,1/2-y,1/2+z
loop_
_atom_site_type_symbol
_atom_site_label
_atom_site_fract_x
_atom_site_fract_y
_atom_site_fract_z
Si Si1 0.444704 0.232743 0.040305
Si Si2 0.154958 0.955307 0.942040
Si Si3 0.924324 0.892368 0.114924
Si Si4 0.517961 0.113972 0.528423
Si Si5 0.740407 0.810168 0.102236
Si Si6 0.356140 0.014722 0.361072
O O1 0.466554 0.250000 0.250000
O O2 0.491488 0.150838 0.016613
O O3 0.489114 0.300831 0.924671
O O4 0.333290 0.232619 0.023775
O O5 0.152431 0.946171 0.162448
O O6 0.250000 0.000000 0.903000
O O7 0.173194 0.878506 0.834510
O O8 0.079128 0.017828 0.896437
O O9 0.928919 0.880251 0.332903
O O10 0.832246 0.852072 0.034399
O O11 0.423672 0.066617 0.483635
O O12 0.587145 0.064314 0.651963
O O13 0.770426 0.750000 0.250000
O O14 0.250000 0.000000 0.425995
#
# Coordination Sequence:
#
# PCOD9411579 Si02
#       6
#     8   8   8   8   8   8
#     4  10  22  40  60  87 125 165 207 259 317 377
#     4   9  20  39  61  86 117 159 205 251 310 376
#     4  10  22  42  63  87 125 164 205 261 316 369
#     4  10  22  38  61  92 124 163 211 263 316 377
#     4  11  23  39  63  92 122 161 207 257 315 377
#     4  10  22  40  63  91 125 166 212 262 319 382
#
# _framework density 25.683752999999999
#
# number of rings (size 3 to 8) (size 9 to 14) (size 15 to 20)
#    0.000    2.000    0.000    3.500    0.000   11.333 
#    0.000    0.833    0.000    0.000    0.000    0.000 
#    0.000    0.000    0.000    0.000    0.000    0.000 
#
# Total GULP energy -268128.957114 kJ/mol
# GULP energy per Si atom -5586.019940 kJ/mol
# Density = 2.562530 g / cm^3
# Si number density = 25.683753 Si / 1000 Ang^3
#
#
#
# Elastic Constant Matrix: (Units=GPa)
#
#
# Indices 1 2 3 4 5 6 
#
# 1 140.6631 35.2200 12.5783 0.0000 0.0000 0.0000
# 2 35.2200 112.4912 8.2161 0.0000 0.0000 0.0000
# 3 12.5783 8.2161 36.8033 0.0000 0.0000 0.0000
# 4 0.0000 0.0000 0.0000 31.4417 0.0000 0.0000
# 5 0.0000 0.0000 0.0000 0.0000 25.1957 0.0000
# 6 0.0000 0.0000 0.0000 0.0000 0.0000 30.8337
#
#
#
# Elastic Compliance Matrix: (Units=1/GPa)
#
#
# Indices 1 2 3 4 5 6 
#
# 1 0.007882 -0.002309 -0.002178 0.000000 0.000000 0.000000
# 2 -0.002309 0.009713 -0.001379 0.000000 0.000000 0.000000
# 3 -0.002178 -0.001379 0.028224 0.000000 0.000000 0.000000
# 4 0.000000 0.000000 0.000000 0.031805 0.000000 0.000000
# 5 0.000000 0.000000 0.000000 0.000000 0.039689 0.000000
# 6 0.000000 0.000000 0.000000 0.000000 0.000000 0.032432
#
#
# Mechanical properties :
#
#
# Convention : Reuss Voigt Hill
#
# Bulk Modulus (GPa) = 29.33744 44.66516 37.00130
# Shear Modulus (GPa) = 28.92842 33.09044 31.00943
#
# Velocity S-wave (km/s) = 3.35973 3.59330 3.47847
# Velocity P-wave (km/s) = 5.14759 5.88591 5.52909
#
# Compressibility (1/GPa) = 0.03408613
#
# Stress axis : x y z
#
# Youngs Moduli (GPa) = 126.87060 102.95313 35.43093
#
# Poissons Ratio (x) = 0.23769 0.07718
# Poissons Ratio (y) = 0.29290 0.04887
# Poissons Ratio (z) = 0.27638 0.14201
#
# Static dielectric constant tensor:
#      x y z
#    x 2.035900 0.000000 0.000000 
#    y 0.000000 2.093360 0.000000 
#    z 0.000000 0.000000 2.035400 
# 
# From -- ./inp_files/10661.got.cif
#   From: 2010.05.17/outbox.cif.g08.bks.cpg/sg52_6_cif.got.tgz:10661.got - 2010.06.03 12:15:38.
