data_PCOD9411660
_publ_section_title
;
Structure prediction by ZEFSAII (Michael W. Deem and Ramdas Pophale) SiO2 
 PCOD9411660
Probable space group: P N N A
;
_chemical_formula_sum "Si O2"
_cell_formula_units_Z 64
_cell_length_a 8.838609
_cell_length_b 13.660004
_cell_length_c 24.661177
_cell_angle_alpha 90.000000
_cell_angle_beta 90.000000
_cell_angle_gamma 90.000000
_cell_volume 2977.477915
_symmetry_space_group_name_H-M "P N N A"
_symmetry_group_IT_number 52
_symmetry_cell_setting 'orthorhombic'
loop_
_space_group_symop_operation_xyz
x,y,z
1/2-x,-y,z
x,1/2-y,1/2-z
1/2-x,1/2+y,1/2-z
-x,-y,-z
1/2+x,y,-z
-x,1/2+y,1/2+z
1/2+x,1/2-y,1/2+z
loop_
_atom_site_type_symbol
_atom_site_label
_atom_site_fract_x
_atom_site_fract_y
_atom_site_fract_z
Si Si1 0.522872 0.801002 0.477225
Si Si2 0.019541 0.100044 0.965463
Si Si3 0.180227 0.391772 0.942229
Si Si4 0.470916 0.747258 0.137509
Si Si5 0.745181 0.611041 0.373498
Si Si6 0.243354 0.882334 0.677513
Si Si7 0.808409 0.108987 0.860404
Si Si8 0.548470 0.162662 0.219977
O O1 0.486471 0.691901 0.495290
O O2 0.467891 0.876097 0.522801
O O3 0.699266 0.818092 0.468476
O O4 0.449542 0.814308 0.417902
O O5 0.897990 0.122718 0.917432
O O6 0.175700 0.101701 0.931638
O O7 0.000000 0.000000 0.000000
O O8 0.250000 0.500000 0.945624
O O9 0.171607 0.361806 0.879590
O O10 0.582915 0.838990 0.124973
O O11 0.578463 0.673615 0.174135
O O12 0.313692 0.803880 0.150411
O O13 0.750000 0.500000 0.350789
O O14 0.842407 0.676136 0.331821
O O15 0.334958 0.861482 0.732105
O O16 0.250000 0.000000 0.677022
O O17 0.919857 0.099920 0.808606
O O18 0.750000 0.000000 0.867331
O O19 0.461635 0.250000 0.250000
#
# Coordination Sequence:
#
# PCOD9411660 Si02
#       8
#     8   8   8   8   8   8   8   8
#     4  11  21  36  62  92 129 169 207 256 320 384
#     4  11  23  39  64 100 144 188 219 258 327 424
#     4  10  22  39  63  90 121 162 213 268 320 381
#     4  11  22  41  64  98 131 171 222 276 334 405
#     4  11  22  39  67  94 129 177 225 268 328 409
#     4  10  22  43  71  93 122 171 232 280 331 403
#     4  11  25  43  64 100 144 174 218 281 345 413
#     4  11  23  45  67  90 126 170 221 282 341 407
#
# _framework density 21.494702
#
# number of rings (size 3 to 8) (size 9 to 14) (size 15 to 20)
#    0.000    1.250    1.250    6.000    1.750    2.500 
#    4.500    0.625    0.000    0.750    0.000    0.000 
#    0.000    0.000    0.000    0.000    0.000    0.000 
#
# Total GULP energy -356523.810732 kJ/mol
# GULP energy per Si atom -5570.684543 kJ/mol
# Density = 2.144578 g / cm^3
# Si number density = 21.494702 Si / 1000 Ang^3
#
#
#
# Elastic Constant Matrix: (Units=GPa)
#
#
# Indices 1 2 3 4 5 6 
#
# 1 74.9389 27.9621 43.7992 0.0000 0.0000 0.0000
# 2 27.9621 92.1124 27.7177 0.0000 0.0000 0.0000
# 3 43.7992 27.7177 94.6596 0.0000 0.0000 0.0000
# 4 0.0000 0.0000 0.0000 19.6963 0.0000 0.0000
# 5 0.0000 0.0000 0.0000 0.0000 22.6010 0.0000
# 6 0.0000 0.0000 0.0000 0.0000 0.0000 19.0129
#
#
#
# Elastic Compliance Matrix: (Units=1/GPa)
#
#
# Indices 1 2 3 4 5 6 
#
# 1 0.019251 -0.003469 -0.007892 0.000000 0.000000 0.000000
# 2 -0.003469 0.012530 -0.002064 0.000000 0.000000 0.000000
# 3 -0.007892 -0.002064 0.014820 0.000000 0.000000 0.000000
# 4 0.000000 0.000000 0.000000 0.050771 0.000000 0.000000
# 5 0.000000 0.000000 0.000000 0.000000 0.044246 0.000000
# 6 0.000000 0.000000 0.000000 0.000000 0.000000 0.052596
#
#
# Mechanical properties :
#
#
# Convention : Reuss Voigt Hill
#
# Bulk Modulus (GPa) = 50.62788 51.18544 50.90666
# Shear Modulus (GPa) = 21.96374 23.07749 22.52062
#
# Velocity S-wave (km/s) = 3.20006 3.28019 3.24038
# Velocity P-wave (km/s) = 6.10399 6.18150 6.14287
#
# Compressibility (1/GPa) = 0.01975196
#
# Stress axis : x y z
#
# Youngs Moduli (GPa) = 51.94512 79.80528 67.47641
#
# Poissons Ratio (x) = 0.27687 0.53250
# Poissons Ratio (y) = 0.18021 0.13926
# Poissons Ratio (z) = 0.40993 0.16471
#
# Static dielectric constant tensor:
#      x y z
#    x 1.887890 0.000000 0.000000 
#    y 0.000000 1.926660 0.000000 
#    z 0.000000 0.000000 1.780240 
# 
# From -- ./inp_files/39667.got.cif
#   From: 2010.05.17/outbox.cif.g08.bks.cpg/sg52_20_cif.got.tgz:39667.got - 2010.06.03 12:15:38.
