data_PCOD9411900
_publ_section_title
;
Structure prediction by ZEFSAII (Michael W. Deem and Ramdas Pophale) SiO2 
 PCOD9411900
Probable space group: P N N A
;
_chemical_formula_sum "Si O2"
_cell_formula_units_Z 40
_cell_length_a 15.380574
_cell_length_b 22.542288
_cell_length_c 5.108432
_cell_angle_alpha 90.000000
_cell_angle_beta 90.000000
_cell_angle_gamma 90.000000
_cell_volume 1771.161463
_symmetry_space_group_name_H-M "P N N A"
_symmetry_group_IT_number 52
_symmetry_cell_setting 'orthorhombic'
loop_
_space_group_symop_operation_xyz
x,y,z
1/2-x,-y,z
x,1/2-y,1/2-z
1/2-x,1/2+y,1/2-z
-x,-y,-z
1/2+x,y,-z
-x,1/2+y,1/2+z
1/2+x,1/2-y,1/2+z
loop_
_atom_site_type_symbol
_atom_site_label
_atom_site_fract_x
_atom_site_fract_y
_atom_site_fract_z
Si Si1 0.464906 0.378881 0.844376
Si Si2 0.810198 0.250000 0.750000
Si Si3 0.720660 0.620878 0.853579
Si Si4 0.618796 0.046111 0.463211
Si Si5 0.880928 0.038132 0.968241
Si Si6 0.065280 0.750000 0.750000
O O1 0.535699 0.411392 0.020212
O O2 0.454238 0.417100 0.578892
O O3 0.487100 0.310580 0.790676
O O4 0.370019 0.378206 0.983482
O O5 0.758406 0.310890 0.792518
O O6 0.872540 0.259875 0.500216
O O7 0.796679 0.586054 0.994806
O O8 0.698712 0.582012 0.596894
O O9 0.629178 0.008017 0.202900
O O10 0.607406 0.999898 0.704752
#
# Coordination Sequence:
#
# PCOD9411900 Si02
#       6
#     8   4   8   8   8   4
#     4  11  25  46  68  99 133 179 221 278 334 395
#     4  10  22  43  68  97 128 178 228 269 338 393
#     4  11  26  44  72  96 139 178 225 279 337 399
#     4  12  29  40  69 102 135 175 225 272 338 404
#     4  12  25  44  64 100 134 177 219 277 330 401
#     4  10  22  41  72  93 130 178 226 275 330 399
#
# _framework density 22.584049
#
# number of rings (size 3 to 8) (size 9 to 14) (size 15 to 20)
#    0.000    0.800    4.000    1.800    8.400    0.800 
#    0.000    0.000    0.000    8.400    0.000    0.000 
#    0.000    0.000    0.000    0.000    0.000    0.000 
#
# Total GULP energy -223888.512315 kJ/mol
# GULP energy per Si atom -5597.212808 kJ/mol
# Density = 2.253265 g / cm^3
# Si number density = 22.584049 Si / 1000 Ang^3
#
#
#
# Elastic Constant Matrix: (Units=GPa)
#
#
# Indices 1 2 3 4 5 6 
#
# 1 84.7827 55.6602 20.5080 0.0000 0.0000 0.0000
# 2 55.6602 235.4716 53.5918 0.0000 0.0000 0.0000
# 3 20.5080 53.5918 139.0048 0.0000 0.0000 0.0000
# 4 0.0000 0.0000 0.0000 27.3501 0.0000 0.0000
# 5 0.0000 0.0000 0.0000 0.0000 17.8216 0.0000
# 6 0.0000 0.0000 0.0000 0.0000 0.0000 -16.4987
#
#
#
# Elastic Compliance Matrix: (Units=1/GPa)
#
#
# Indices 1 2 3 4 5 6 
#
# 1 0.014057 -0.003125 -0.000869 0.000000 0.000000 0.000000
# 2 -0.003125 0.005350 -0.001602 0.000000 0.000000 0.000000
# 3 -0.000869 -0.001602 0.007940 0.000000 0.000000 0.000000
# 4 0.000000 0.000000 0.000000 0.036563 0.000000 0.000000
# 5 0.000000 0.000000 0.000000 0.000000 0.056112 0.000000
# 6 0.000000 0.000000 0.000000 0.000000 0.000000 -0.060611
#
#
# Mechanical properties :
#
#
# Convention : Reuss Voigt Hill
#
# Bulk Modulus (GPa) = 61.89975 79.86435 70.88205
# Shear Modulus (GPa) = 65.80178 27.70123 46.75150
#
# Velocity S-wave (km/s) = 5.40367 3.50606 4.55478
# Velocity P-wave (km/s) = 8.14868 7.19930 7.68866
#
# Compressibility (1/GPa) = 0.01615515
#
# Stress axis : x y z
#
# Youngs Moduli (GPa) = 71.14119 186.91746 125.94949
#
# Poissons Ratio (x) = 0.58409 0.10946
# Poissons Ratio (y) = 0.22231 0.20172
# Poissons Ratio (z) = 0.06183 0.29937
#
# Static dielectric constant tensor:
#      x y z
#    x 1.847840 0.000000 0.000000 
#    y 0.000000 1.848190 0.000000 
#    z 0.000000 0.000000 1.863310 
# 
# From -- ./inp_files/2302.got.cif
#   From: 2010.05.17/outbox.cif.g08.bks.cpg/sg52_2_cif.got.tgz:2302.got - 2010.06.03 12:15:38.
