data_PCOD9411681
_publ_section_title
;
Structure prediction by ZEFSAII (Michael W. Deem and Ramdas Pophale) SiO2 
 PCOD9411681
Probable space group: P N N A
;
_chemical_formula_sum "Si O2"
_cell_formula_units_Z 56
_cell_length_a 10.801708
_cell_length_b 25.983661
_cell_length_c 9.143531
_cell_angle_alpha 90.000000
_cell_angle_beta 90.000000
_cell_angle_gamma 90.000000
_cell_volume 2566.295817
_symmetry_space_group_name_H-M "P N N A"
_symmetry_group_IT_number 52
_symmetry_cell_setting 'orthorhombic'
loop_
_space_group_symop_operation_xyz
x,y,z
1/2-x,-y,z
x,1/2-y,1/2-z
1/2-x,1/2+y,1/2-z
-x,-y,-z
1/2+x,y,-z
-x,1/2+y,1/2+z
1/2+x,1/2-y,1/2+z
loop_
_atom_site_type_symbol
_atom_site_label
_atom_site_fract_x
_atom_site_fract_y
_atom_site_fract_z
Si Si1 0.295535 0.443732 0.744373
Si Si2 0.031783 0.387383 0.242930
Si Si3 0.176438 0.163009 0.748419
Si Si4 0.055051 0.861619 0.431035
Si Si5 0.199681 0.730004 0.993469
Si Si6 0.736759 0.942044 0.597592
Si Si7 0.557301 0.292863 0.534913
O O1 0.250000 0.500000 0.691722
O O2 0.441054 0.434504 0.712669
O O3 0.236830 0.389522 0.689739
O O4 0.262665 0.442560 0.919368
O O5 0.051620 0.342441 0.359782
O O6 0.156672 0.409599 0.174379
O O7 0.958005 0.364335 0.104963
O O8 0.095025 0.188711 0.873572
O O9 0.261369 0.203342 0.660678
O O10 0.079393 0.147487 0.626198
O O11 0.107727 0.914503 0.368548
O O12 0.149834 0.815548 0.402131
O O13 0.078150 0.765895 0.968091
O O14 0.322890 0.755956 0.062719
O O15 0.750000 0.000000 0.647425
#
# Coordination Sequence:
#
# PCOD9411681 Si02
#       7
#     8   8   8   8   8   8   8
#     4  10  22  41  75 101 139 190 233 299 370 421
#     4  11  23  45  64 104 136 180 238 294 353 437
#     4  12  24  48  68 104 143 184 244 296 351 440
#     4  11  23  42  68  98 139 176 238 294 347 422
#     4  12  25  48  68 106 139 195 234 299 352 433
#     4  10  22  39  69 103 134 180 235 302 357 416
#     4  12  30  44  75  98 150 194 238 291 375 426
#
# _framework density 21.821335000000001
#
# number of rings (size 3 to 8) (size 9 to 14) (size 15 to 20)
#    0.000    0.857    5.714    1.286    6.000    1.714 
#    2.571    1.429    0.000    0.000    0.000    0.000 
#    0.000    0.000    0.000    0.000    0.000    0.000 
#
# Total GULP energy -312472.769421 kJ/mol
# GULP energy per Si atom -5579.870883 kJ/mol
# Density = 2.177167 g / cm^3
# Si number density = 21.821335 Si / 1000 Ang^3
#
#
#
# Elastic Constant Matrix: (Units=GPa)
#
#
# Indices 1 2 3 4 5 6 
#
# 1 118.1879 54.0701 25.1163 0.0000 0.0000 0.0000
# 2 54.0701 110.9029 29.2816 0.0000 0.0000 0.0000
# 3 25.1163 29.2816 35.5847 0.0000 0.0000 0.0000
# 4 0.0000 0.0000 0.0000 11.4320 0.0000 0.0000
# 5 0.0000 0.0000 0.0000 0.0000 15.8565 0.0000
# 6 0.0000 0.0000 0.0000 0.0000 0.0000 43.7413
#
#
#
# Elastic Compliance Matrix: (Units=1/GPa)
#
#
# Indices 1 2 3 4 5 6 
#
# 1 0.011415 -0.004392 -0.004442 0.000000 0.000000 0.000000
# 2 -0.004392 0.013210 -0.007770 0.000000 0.000000 0.000000
# 3 -0.004442 -0.007770 0.037631 0.000000 0.000000 0.000000
# 4 0.000000 0.000000 0.000000 0.087474 0.000000 0.000000
# 5 0.000000 0.000000 0.000000 0.000000 0.063066 0.000000
# 6 0.000000 0.000000 0.000000 0.000000 0.000000 0.022862
#
#
# Mechanical properties :
#
#
# Convention : Reuss Voigt Hill
#
# Bulk Modulus (GPa) = 34.42750 53.51239 43.96994
# Shear Modulus (GPa) = 17.95026 24.61978 21.28502
#
# Velocity S-wave (km/s) = 2.87121 3.36258 3.12656
# Velocity P-wave (km/s) = 5.17717 6.29699 5.76434
#
# Compressibility (1/GPa) = 0.02904655
#
# Stress axis : x y z
#
# Youngs Moduli (GPa) = 87.60738 75.70168 26.57379
#
# Poissons Ratio (x) = 0.33250 0.11805
# Poissons Ratio (y) = 0.38479 0.20647
# Poissons Ratio (z) = 0.38919 0.58819
#
# Static dielectric constant tensor:
#      x y z
#    x 1.850200 0.000000 0.000000 
#    y 0.000000 1.885210 0.000000 
#    z 0.000000 0.000000 1.795710 
# 
# From -- ./inp_files/18454.got.cif
#   From: 2010.05.17/outbox.cif.g08.bks.cpg/sg52_10_cif.got.tgz:18454.got - 2010.06.03 12:15:38.
