data_PCOD9411995
_publ_section_title
;
Structure prediction by ZEFSAII (Michael W. Deem and Ramdas Pophale) SiO2 
 PCOD9411995
Probable space group: P N N A
;
_chemical_formula_sum "Si O2"
_cell_formula_units_Z 32
_cell_length_a 5.527243
_cell_length_b 7.400275
_cell_length_c 34.832600
_cell_angle_alpha 90.000000
_cell_angle_beta 90.000000
_cell_angle_gamma 90.000000
_cell_volume 1424.761955
_symmetry_space_group_name_H-M "P N N A"
_symmetry_group_IT_number 52
_symmetry_cell_setting 'orthorhombic'
loop_
_space_group_symop_operation_xyz
x,y,z
1/2-x,-y,z
x,1/2-y,1/2-z
1/2-x,1/2+y,1/2-z
-x,-y,-z
1/2+x,y,-z
-x,1/2+y,1/2+z
1/2+x,1/2-y,1/2+z
loop_
_atom_site_type_symbol
_atom_site_label
_atom_site_fract_x
_atom_site_fract_y
_atom_site_fract_z
Si Si1 0.627057 0.250000 0.750000
Si Si2 0.511852 0.205960 0.015740
Si Si3 0.389430 0.308018 0.327916
Si Si4 0.750000 0.000000 0.217142
Si Si5 0.492954 0.389759 0.093135
O O1 0.760452 0.227454 0.709591
O O2 0.462166 0.075357 0.757147
O O3 0.521941 0.232022 0.061388
O O4 0.260380 0.287268 0.000525
O O5 0.500000 0.000000 0.000000
O O6 0.250000 0.500000 0.335905
O O7 0.654750 0.347696 0.311186
O O8 0.421623 0.191510 0.365590
O O9 0.750000 0.500000 0.094460
O O10 0.250000 0.500000 0.081588
#
# Coordination Sequence:
#
# PCOD9411995 Si02
#       5
#     4   8   8   4   8
#     4  10  22  44  66 104 132 192 252 300 362 432
#     4  10  23  45  77 107 138 196 236 291 361 454
#     4  10  25  45  70 100 145 198 249 302 373 447
#     4  10  22  42  70  96 134 190 252 304 360 444
#     4  12  29  47  72 115 152 187 243 316 370 433
#
# _framework density 22.459890999999999
#
# number of rings (size 3 to 8) (size 9 to 14) (size 15 to 20)
#    0.000    1.500    0.000    2.250   10.500   10.000 
#    2.250    0.000    0.000    0.000    0.000    0.000 
#    0.000    0.000    0.000    0.000    0.000    0.000 
#
# Total GULP energy -178611.801428 kJ/mol
# GULP energy per Si atom -5581.618795 kJ/mol
# Density = 2.240877 g / cm^3
# Si number density = 22.459891 Si / 1000 Ang^3
#
#
#
# Elastic Constant Matrix: (Units=GPa)
#
#
# Indices 1 2 3 4 5 6 
#
# 1 155.2661 27.2581 56.5058 0.0000 0.0000 0.0000
# 2 27.2581 91.0644 67.3275 0.0000 0.0000 0.0000
# 3 56.5058 67.3275 205.7846 0.0000 0.0000 0.0000
# 4 0.0000 0.0000 0.0000 54.0146 0.0000 0.0000
# 5 0.0000 0.0000 0.0000 0.0000 -10.3316 0.0000
# 6 0.0000 0.0000 0.0000 0.0000 0.0000 11.0675
#
#
#
# Elastic Compliance Matrix: (Units=1/GPa)
#
#
# Indices 1 2 3 4 5 6 
#
# 1 0.007213 -0.000916 -0.001681 0.000000 0.000000 0.000000
# 2 -0.000916 0.014602 -0.004526 0.000000 0.000000 0.000000
# 3 -0.001681 -0.004526 0.006802 0.000000 0.000000 0.000000
# 4 0.000000 0.000000 0.000000 0.018514 0.000000 0.000000
# 5 0.000000 0.000000 0.000000 0.000000 -0.096791 0.000000
# 6 0.000000 0.000000 0.000000 0.000000 0.000000 0.090354
#
#
# Mechanical properties :
#
#
# Convention : Reuss Voigt Hill
#
# Bulk Modulus (GPa) = 69.58631 83.81088 76.69859
# Shear Modulus (GPa) = 83.71088 31.01835 57.36462
#
# Velocity S-wave (km/s) = 6.11164 3.72029 5.05928
# Velocity P-wave (km/s) = 8.99181 7.47334 8.26751
#
# Compressibility (1/GPa) = 0.01437064
#
# Stress axis : x y z
#
# Youngs Moduli (GPa) = 138.63601 68.48603 147.02323
#
# Poissons Ratio (x) = 0.06276 0.24712
# Poissons Ratio (y) = 0.12705 0.66537
# Poissons Ratio (z) = 0.23302 0.30994
#
# Static dielectric constant tensor:
#      x y z
#    x 1.882150 0.000000 0.000000 
#    y 0.000000 1.705790 0.000000 
#    z 0.000000 0.000000 1.799690 
# 
# From -- ./inp_files/43478.got.cif
#   From: 2010.05.17/outbox.cif.g08.bks.cpg/sg52_22_cif.got.tgz:43478.got - 2010.06.03 12:15:38.
