data_PCOD9411227
_publ_section_title
;
Structure prediction by ZEFSAII (Michael W. Deem and Ramdas Pophale) SiO2 
 PCOD9411227
Probable space group: P N N A
;
_chemical_formula_sum "Si O2"
_cell_formula_units_Z 52
_cell_length_a 22.509129
_cell_length_b 8.426071
_cell_length_c 12.243903
_cell_angle_alpha 90.000000
_cell_angle_beta 90.000000
_cell_angle_gamma 90.000000
_cell_volume 2322.221731
_symmetry_space_group_name_H-M "P N N A"
_symmetry_group_IT_number 52
_symmetry_cell_setting 'orthorhombic'
loop_
_space_group_symop_operation_xyz
x,y,z
1/2-x,-y,z
x,1/2-y,1/2-z
1/2-x,1/2+y,1/2-z
-x,-y,-z
1/2+x,y,-z
-x,1/2+y,1/2+z
1/2+x,1/2-y,1/2+z
loop_
_atom_site_type_symbol
_atom_site_label
_atom_site_fract_x
_atom_site_fract_y
_atom_site_fract_z
Si Si1 0.311514 0.089452 0.927669
Si Si2 0.191128 0.558343 0.020971
Si Si3 0.043063 0.170247 0.603487
Si Si4 0.569064 0.493392 0.875447
Si Si5 0.496567 0.250000 0.750000
Si Si6 0.656542 0.073207 0.294741
Si Si7 0.557639 0.975523 0.075246
O O1 0.305288 0.268906 0.967001
O O2 0.376476 0.040710 0.975930
O O3 0.250000 0.000000 0.957138
O O4 0.322319 0.049834 0.798021
O O5 0.250000 0.500000 0.079937
O O6 0.185192 0.446471 0.913704
O O7 0.136058 0.541532 0.103024
O O8 0.087027 0.055754 0.670965
O O9 0.061340 0.348547 0.627286
O O10 0.973915 0.144832 0.622534
O O11 0.053884 0.119241 0.479131
O O12 0.542276 0.392195 0.777432
O O13 0.456311 0.176094 0.847438
O O14 0.669341 0.250000 0.250000
O O15 0.500000 0.000000 0.000000
#
# Coordination Sequence:
#
# PCOD9411227 Si02
#       7
#     8   8   8   8   4   8   8
#     4  12  26  40  63  99 137 182 225 270 340 419
#     4  11  25  42  63  88 136 179 223 276 339 405
#     4  10  21  41  62  92 136 175 212 277 334 399
#     4  10  23  42  66  96 127 173 229 277 335 398
#     4  12  26  40  72 104 128 180 230 282 342 400
#     4  11  21  37  61  93 134 176 215 267 333 411
#     4  12  25  43  69 100 138 179 227 282 340 404
#
# _framework density 22.392351000000001
#
# number of rings (size 3 to 8) (size 9 to 14) (size 15 to 20)
#    0.000    0.923    3.077    3.692    8.615    0.000 
#    0.000    0.000    0.000    4.615    0.000    0.000 
#    0.000    0.000    0.000    0.000    0.000    0.000 
#
# Total GULP energy -290135.210664 kJ/mol
# GULP energy per Si atom -5579.523282 kJ/mol
# Density = 2.234138 g / cm^3
# Si number density = 22.392351 Si / 1000 Ang^3
#
#
#
# Elastic Constant Matrix: (Units=GPa)
#
#
# Indices 1 2 3 4 5 6 
#
# 1 216.5967 49.5809 12.3850 0.0000 0.0000 0.0000
# 2 49.5809 96.8968 -1.4179 0.0000 0.0000 0.0000
# 3 12.3850 -1.4179 9.2027 0.0000 0.0000 0.0000
# 4 0.0000 0.0000 0.0000 29.2987 0.0000 0.0000
# 5 0.0000 0.0000 0.0000 0.0000 18.6734 0.0000
# 6 0.0000 0.0000 0.0000 0.0000 0.0000 30.9549
#
#
#
# Elastic Compliance Matrix: (Units=1/GPa)
#
#
# Indices 1 2 3 4 5 6 
#
# 1 0.005797 -0.003087 -0.008277 0.000000 0.000000 0.000000
# 2 -0.003087 0.011988 0.006002 0.000000 0.000000 0.000000
# 3 -0.008277 0.006002 0.120727 0.000000 0.000000 0.000000
# 4 0.000000 0.000000 0.000000 0.034131 0.000000 0.000000
# 5 0.000000 0.000000 0.000000 0.000000 0.053552 0.000000
# 6 0.000000 0.000000 0.000000 0.000000 0.000000 0.032305
#
#
# Mechanical properties :
#
#
# Convention : Reuss Voigt Hill
#
# Bulk Modulus (GPa) = 7.82553 49.31028 28.56791
# Shear Modulus (GPa) = 16.03484 33.26194 24.64839
#
# Velocity S-wave (km/s) = 2.67888 3.85829 3.32136
# Velocity P-wave (km/s) = 3.61536 6.47436 5.24348
#
# Compressibility (1/GPa) = 0.12778681
#
# Stress axis : x y z
#
# Youngs Moduli (GPa) = 172.50683 83.41803 8.28314
#
# Poissons Ratio (x) = 0.25754 0.06856
# Poissons Ratio (y) = 0.53258 -0.04971
# Poissons Ratio (z) = 1.42785 -0.50066
#
# Static dielectric constant tensor:
#      x y z
#    x 1.915900 0.000000 0.000000 
#    y 0.000000 1.876160 0.000000 
#    z 0.000000 0.000000 1.882320 
# 
# From -- ./inp_files/28683.got.cif
#   From: 2010.05.17/outbox.cif.g08.bks.cpg/sg52_15_cif.got.tgz:28683.got - 2010.06.03 12:15:38.
