data_PCOD9411345
_publ_section_title
;
Structure prediction by ZEFSAII (Michael W. Deem and Ramdas Pophale) SiO2 
 PCOD9411345
Probable space group: P N N A
;
_chemical_formula_sum "Si O2"
_cell_formula_units_Z 64
_cell_length_a 10.525877
_cell_length_b 26.105500
_cell_length_c 11.757456
_cell_angle_alpha 90.000000
_cell_angle_beta 90.000000
_cell_angle_gamma 90.000000
_cell_volume 3230.752348
_symmetry_space_group_name_H-M "P N N A"
_symmetry_group_IT_number 52
_symmetry_cell_setting 'orthorhombic'
loop_
_space_group_symop_operation_xyz
x,y,z
1/2-x,-y,z
x,1/2-y,1/2-z
1/2-x,1/2+y,1/2-z
-x,-y,-z
1/2+x,y,-z
-x,1/2+y,1/2+z
1/2+x,1/2-y,1/2+z
loop_
_atom_site_type_symbol
_atom_site_label
_atom_site_fract_x
_atom_site_fract_y
_atom_site_fract_z
Si Si1 0.760559 0.076333 0.099389
Si Si2 0.714253 0.786636 0.415404
Si Si3 0.383805 0.020533 0.704959
Si Si4 0.752758 0.440430 0.660876
Si Si5 0.549300 0.116441 0.686801
Si Si6 0.972468 0.668382 0.041824
Si Si7 0.514801 0.415731 0.239967
Si Si8 0.869110 0.321452 0.321019
O O1 0.852625 0.034902 0.161931
O O2 0.639613 0.084074 0.181106
O O3 0.831992 0.130523 0.102767
O O4 0.721935 0.063312 0.972470
O O5 0.863944 0.787878 0.444286
O O6 0.611934 0.811785 0.502124
O O7 0.656471 0.731033 0.385832
O O8 0.710581 0.817663 0.296169
O O9 0.436677 0.074875 0.664118
O O10 0.250000 0.000000 0.656314
O O11 0.478493 0.973327 0.687134
O O12 0.750000 0.500000 0.690470
O O13 0.654145 0.412653 0.742196
O O14 0.889522 0.415533 0.683869
O O15 0.584875 0.136645 0.564043
O O16 0.504404 0.163968 0.765826
O O17 0.983686 0.629899 0.148583
#
# Coordination Sequence:
#
# PCOD9411345 Si02
#       8
#     8   8   8   8   8   8   8   8
#     4  10  22  38  62  87 121 165 214 263 311 386
#     4  10  21  42  68  91 125 161 212 268 322 380
#     4   9  19  37  57  88 119 169 220 246 306 386
#     4  12  24  38  57  93 135 163 209 267 319 367
#     4  10  22  40  61  92 128 167 210 264 317 385
#     4  11  23  41  65  93 131 165 214 270 319 384
#     4  11  22  39  60  91 128 170 210 260 319 378
#     4   9  20  42  67  87 113 170 214 249 322 392
#
# _framework density 19.809628
#
# number of rings (size 3 to 8) (size 9 to 14) (size 15 to 20)
#    0.000    1.750    2.500    1.875    5.250    2.500 
#    0.000    0.000    0.000    3.000    0.000    0.000 
#    0.000    0.000    0.000    0.000    0.000    0.000 
#
# Total GULP energy -356573.643983 kJ/mol
# GULP energy per Si atom -5571.463187 kJ/mol
# Density = 1.976454 g / cm^3
# Si number density = 19.809628 Si / 1000 Ang^3
#
#
#
# Elastic Constant Matrix: (Units=GPa)
#
#
# Indices 1 2 3 4 5 6 
#
# 1 56.3318 14.5717 22.9249 0.0000 0.0000 0.0000
# 2 14.5717 77.4881 15.0884 0.0000 0.0000 0.0000
# 3 22.9249 15.0884 54.1739 0.0000 0.0000 0.0000
# 4 0.0000 0.0000 0.0000 23.1936 0.0000 0.0000
# 5 0.0000 0.0000 0.0000 0.0000 17.0304 0.0000
# 6 0.0000 0.0000 0.0000 0.0000 0.0000 21.0258
#
#
#
# Elastic Compliance Matrix: (Units=1/GPa)
#
#
# Indices 1 2 3 4 5 6 
#
# 1 0.021874 -0.002444 -0.008576 0.000000 0.000000 0.000000
# 2 -0.002444 0.013918 -0.002842 0.000000 0.000000 0.000000
# 3 -0.008576 -0.002842 0.022880 0.000000 0.000000 0.000000
# 4 0.000000 0.000000 0.000000 0.043115 0.000000 0.000000
# 5 0.000000 0.000000 0.000000 0.000000 0.058719 0.000000
# 6 0.000000 0.000000 0.000000 0.000000 0.000000 0.047561
#
#
# Mechanical properties :
#
#
# Convention : Reuss Voigt Hill
#
# Bulk Modulus (GPa) = 32.31194 32.57376 32.44285
# Shear Modulus (GPa) = 20.31640 21.27722 20.79681
#
# Velocity S-wave (km/s) = 3.20595 3.28088 3.24363
# Velocity P-wave (km/s) = 5.48186 5.55260 5.51734
#
# Compressibility (1/GPa) = 0.03094831
#
# Stress axis : x y z
#
# Youngs Moduli (GPa) = 45.71614 71.84838 43.70659
#
# Poissons Ratio (x) = 0.17556 0.37483
# Poissons Ratio (y) = 0.11171 0.12423
# Poissons Ratio (z) = 0.39206 0.20422
#
# Static dielectric constant tensor:
#      x y z
#    x 1.759050 0.000000 0.000000 
#    y 0.000000 1.727860 0.000000 
#    z 0.000000 0.000000 1.688690 
# 
# From -- ./inp_files/18533.got.cif
#   From: 2010.05.17/outbox.cif.g08.bks.cpg/sg52_10_cif.got.tgz:18533.got - 2010.06.03 12:15:38.
