data_PCOD9411661
_publ_section_title
;
Structure prediction by ZEFSAII (Michael W. Deem and Ramdas Pophale) SiO2 
 PCOD9411661
Probable space group: P N N A
;
_chemical_formula_sum "Si O2"
_cell_formula_units_Z 40
_cell_length_a 14.569008
_cell_length_b 16.567209
_cell_length_c 7.506037
_cell_angle_alpha 90.000000
_cell_angle_beta 90.000000
_cell_angle_gamma 90.000000
_cell_volume 1811.715641
_symmetry_space_group_name_H-M "P N N A"
_symmetry_group_IT_number 52
_symmetry_cell_setting 'orthorhombic'
loop_
_space_group_symop_operation_xyz
x,y,z
1/2-x,-y,z
x,1/2-y,1/2-z
1/2-x,1/2+y,1/2-z
-x,-y,-z
1/2+x,y,-z
-x,1/2+y,1/2+z
1/2+x,1/2-y,1/2+z
loop_
_atom_site_type_symbol
_atom_site_label
_atom_site_fract_x
_atom_site_fract_y
_atom_site_fract_z
Si Si1 0.626220 0.739106 0.046467
Si Si2 0.828068 0.724651 0.544809
Si Si3 0.950966 0.099635 0.896508
Si Si4 0.597245 0.432919 0.681735
Si Si5 0.035967 0.141183 0.549651
O O1 0.595462 0.750000 0.250000
O O2 0.735581 0.740931 0.038835
O O3 0.596777 0.814501 0.923760
O O4 0.571275 0.660312 0.986672
O O5 0.830091 0.750000 0.750000
O O6 0.838994 0.628587 0.569474
O O7 0.912586 0.772147 0.455073
O O8 0.029894 0.102613 0.744091
O O9 0.883151 0.027102 0.843562
O O10 0.998909 0.080299 0.084785
O O11 0.582647 0.408686 0.888893
#
# Coordination Sequence:
#
# PCOD9411661 Si02
#       5
#     8   8   8   8   8
#     4  12  23  38  62  93 124 163 214 258 305 378
#     4  10  22  39  63  91 123 161 210 259 310 373
#     4  11  22  38  64  87 124 164 198 253 318 364
#     4  10  22  40  60  93 121 159 205 254 309 375
#     4  11  21  42  65  92 120 163 208 261 310 380
#
# _framework density 22.078517999999999
#
# number of rings (size 3 to 8) (size 9 to 14) (size 15 to 20)
#    0.000    1.200    4.000    3.000    2.800    0.800 
#    0.000    0.000    0.000    3.600    0.000    0.000 
#    0.000    0.000    0.000    0.000    0.000    0.000 
#
# Total GULP energy -223167.367206 kJ/mol
# GULP energy per Si atom -5579.184180 kJ/mol
# Density = 2.202827 g / cm^3
# Si number density = 22.078518 Si / 1000 Ang^3
#
#
#
# Elastic Constant Matrix: (Units=GPa)
#
#
# Indices 1 2 3 4 5 6 
#
# 1 58.8904 4.6096 -4.1014 0.0000 0.0000 0.0000
# 2 4.6096 57.0065 3.0754 0.0000 0.0000 0.0000
# 3 -4.1014 3.0754 110.5303 0.0000 0.0000 0.0000
# 4 0.0000 0.0000 0.0000 23.4359 0.0000 0.0000
# 5 0.0000 0.0000 0.0000 0.0000 26.6760 0.0000
# 6 0.0000 0.0000 0.0000 0.0000 0.0000 14.2449
#
#
#
# Elastic Compliance Matrix: (Units=1/GPa)
#
#
# Indices 1 2 3 4 5 6 
#
# 1 0.017139 -0.001422 0.000676 0.000000 0.000000 0.000000
# 2 -0.001422 0.017686 -0.000545 0.000000 0.000000 0.000000
# 3 0.000676 -0.000545 0.009088 0.000000 0.000000 0.000000
# 4 0.000000 0.000000 0.000000 0.042669 0.000000 0.000000
# 5 0.000000 0.000000 0.000000 0.000000 0.037487 0.000000
# 6 0.000000 0.000000 0.000000 0.000000 0.000000 0.070201
#
#
# Mechanical properties :
#
#
# Convention : Reuss Voigt Hill
#
# Bulk Modulus (GPa) = 24.19578 25.95495 25.07536
# Shear Modulus (GPa) = 23.73835 27.72760 25.73298
#
# Velocity S-wave (km/s) = 3.28255 3.54766 3.41768
# Velocity P-wave (km/s) = 5.03484 5.34439 5.19192
#
# Compressibility (1/GPa) = 0.04132952
#
# Stress axis : x y z
#
# Youngs Moduli (GPa) = 58.34625 56.54101 110.04105
#
# Poissons Ratio (x) = 0.08042 -0.07434
# Poissons Ratio (y) = 0.08299 0.05996
# Poissons Ratio (z) = -0.03942 0.03081
#
# Static dielectric constant tensor:
#      x y z
#    x 1.839580 0.000000 0.000000 
#    y 0.000000 1.896780 0.000000 
#    z 0.000000 0.000000 1.827290 
# 
# From -- ./inp_files/10240.got.cif
#   From: 2010.05.17/outbox.cif.g08.bks.cpg/sg52_6_cif.got.tgz:10240.got - 2010.06.03 12:15:38.
