data_PCOD9411205
_publ_section_title
;
Structure prediction by ZEFSAII (Michael W. Deem and Ramdas Pophale) SiO2 
 PCOD9411205
Probable space group: P N N A
;
_chemical_formula_sum "Si O2"
_cell_formula_units_Z 64
_cell_length_a 19.495808
_cell_length_b 5.437529
_cell_length_c 30.069352
_cell_angle_alpha 90.000000
_cell_angle_beta 90.000000
_cell_angle_gamma 90.000000
_cell_volume 3187.622579
_symmetry_space_group_name_H-M "P N N A"
_symmetry_group_IT_number 52
_symmetry_cell_setting 'orthorhombic'
loop_
_space_group_symop_operation_xyz
x,y,z
1/2-x,-y,z
x,1/2-y,1/2-z
1/2-x,1/2+y,1/2-z
-x,-y,-z
1/2+x,y,-z
-x,1/2+y,1/2+z
1/2+x,1/2-y,1/2+z
loop_
_atom_site_type_symbol
_atom_site_label
_atom_site_fract_x
_atom_site_fract_y
_atom_site_fract_z
Si Si1 0.322742 0.495862 0.220816
Si Si2 0.792674 0.751988 0.197601
Si Si3 0.538241 0.008450 0.882542
Si Si4 0.467590 0.396372 0.934278
Si Si5 0.428618 0.628696 0.847843
Si Si6 0.830009 0.510229 0.562221
Si Si7 0.033322 0.368622 0.201456
Si Si8 0.391237 0.023574 0.473571
O O1 0.250000 0.500000 0.194846
O O2 0.319484 0.250000 0.250000
O O3 0.396051 0.478817 0.197397
O O4 0.324212 0.750000 0.250000
O O5 0.750000 0.500000 0.189410
O O6 0.811767 0.750000 0.250000
O O7 0.859060 0.753995 0.166369
O O8 0.750000 0.000000 0.189866
O O9 0.496897 0.122781 0.924944
O O10 0.616822 0.979704 0.896927
O O11 0.537916 0.192562 0.840853
O O12 0.491293 0.794317 0.864277
O O13 0.422775 0.453496 0.890615
O O14 0.540948 0.534652 0.941731
O O15 0.422915 0.459541 0.977150
O O16 0.460820 0.500407 0.804692
O O17 0.750000 0.500000 0.574280
O O18 0.846162 0.266722 0.533391
O O19 0.851689 0.769061 0.538384
O O20 0.033690 0.250000 0.250000
#
# Coordination Sequence:
#
# PCOD9411205 Si02
#       8
#     8   8   8   8   8   8   8   8
#     4   9  19  37  56  78 116 164 213 269 322 366
#     4  10  25  45  67  92 124 169 214 261 335 402
#     4  10  23  40  61  99 130 172 223 264 333 379
#     4   9  21  39  65  96 128 162 215 272 322 385
#     4  11  23  40  68  94 129 169 214 279 318 393
#     4  11  23  43  65  98 139 174 215 267 319 392
#     4  10  24  38  59  94 127 169 230 281 317 374
#     4  10  21  40  70  95 125 174 219 258 321 397
#
# _framework density 20.077658
#
# number of rings (size 3 to 8) (size 9 to 14) (size 15 to 20)
#    0.000    2.000    1.250    0.375   10.500    2.000 
#    2.250    2.500    0.000    0.000    0.000    0.000 
#    0.000    0.000    0.000    0.000    0.000    0.000 
#
# Total GULP energy -356374.952466 kJ/mol
# GULP energy per Si atom -5568.358632 kJ/mol
# Density = 2.003196 g / cm^3
# Si number density = 20.077658 Si / 1000 Ang^3
#
#
#
# Elastic Constant Matrix: (Units=GPa)
#
#
# Indices 1 2 3 4 5 6 
#
# 1 124.6779 43.5544 56.9044 0.0000 0.0000 0.0000
# 2 43.5544 98.7206 23.9029 0.0000 0.0000 0.0000
# 3 56.9044 23.9029 62.7893 0.0000 0.0000 0.0000
# 4 0.0000 0.0000 0.0000 12.8288 0.0000 0.0000
# 5 0.0000 0.0000 0.0000 0.0000 22.4482 0.0000
# 6 0.0000 0.0000 0.0000 0.0000 0.0000 24.5956
#
#
#
# Elastic Compliance Matrix: (Units=1/GPa)
#
#
# Indices 1 2 3 4 5 6 
#
# 1 0.014758 -0.003605 -0.012003 0.000000 0.000000 0.000000
# 2 -0.003605 0.012039 -0.001316 0.000000 0.000000 0.000000
# 3 -0.012003 -0.001316 0.027305 0.000000 0.000000 0.000000
# 4 0.000000 0.000000 0.000000 0.077950 0.000000 0.000000
# 5 0.000000 0.000000 0.000000 0.000000 0.044547 0.000000
# 6 0.000000 0.000000 0.000000 0.000000 0.000000 0.040658
#
#
# Mechanical properties :
#
#
# Convention : Reuss Voigt Hill
#
# Bulk Modulus (GPa) = 49.37084 59.43460 54.40272
# Shear Modulus (GPa) = 19.39077 22.76291 21.07684
#
# Velocity S-wave (km/s) = 3.11109 3.37076 3.24352
# Velocity P-wave (km/s) = 6.12768 6.69448 6.41734
#
# Compressibility (1/GPa) = 0.02025487
#
# Stress axis : x y z
#
# Youngs Moduli (GPa) = 67.75927 83.06564 36.62354
#
# Poissons Ratio (x) = 0.29945 0.43958
# Poissons Ratio (y) = 0.24427 0.04819
# Poissons Ratio (z) = 0.81329 0.10930
#
# Static dielectric constant tensor:
#      x y z
#    x 1.727640 0.000000 0.000000 
#    y 0.000000 1.889360 0.000000 
#    z 0.000000 0.000000 1.701360 
# 
# From -- ./inp_files/45153.got.cif
#   From: 2010.05.17/outbox.cif.g08.bks.cpg/sg52_23_cif.got.tgz:45153.got - 2010.06.03 12:15:38.
