data_PCOD9411051
_publ_section_title
;
Structure prediction by ZEFSAII (Michael W. Deem and Ramdas Pophale) SiO2 
 PCOD9411051
Probable space group: P N N A
;
_chemical_formula_sum "Si O2"
_cell_formula_units_Z 56
_cell_length_a 12.550626
_cell_length_b 11.957064
_cell_length_c 18.132560
_cell_angle_alpha 90.000000
_cell_angle_beta 90.000000
_cell_angle_gamma 90.000000
_cell_volume 2721.128588
_symmetry_space_group_name_H-M "P N N A"
_symmetry_group_IT_number 52
_symmetry_cell_setting 'orthorhombic'
loop_
_space_group_symop_operation_xyz
x,y,z
1/2-x,-y,z
x,1/2-y,1/2-z
1/2-x,1/2+y,1/2-z
-x,-y,-z
1/2+x,y,-z
-x,1/2+y,1/2+z
1/2+x,1/2-y,1/2+z
loop_
_atom_site_type_symbol
_atom_site_label
_atom_site_fract_x
_atom_site_fract_y
_atom_site_fract_z
Si Si1 0.873091 0.237753 0.560054
Si Si2 0.084827 0.415080 0.938859
Si Si3 0.180433 0.107138 0.394633
Si Si4 0.042952 0.872112 0.659772
Si Si5 0.727171 0.219812 0.080414
Si Si6 0.110810 0.879622 0.823900
Si Si7 0.468876 0.929534 0.929734
O O1 0.767470 0.205063 0.604735
O O2 0.821008 0.259679 0.479110
O O3 0.934388 0.346576 0.588272
O O4 0.966412 0.141958 0.561310
O O5 0.082010 0.537635 0.901658
O O6 0.170027 0.335461 0.897042
O O7 0.129413 0.407776 0.022781
O O8 0.083770 0.114310 0.338973
O O9 0.250000 0.000000 0.379536
O O10 0.098511 0.896712 0.737322
O O11 0.057091 0.738468 0.651406
O O12 0.770635 0.147267 0.148121
O O13 0.631379 0.147187 0.047208
O O14 0.062517 0.984406 0.866363
O O15 0.500000 0.000000 0.000000
#
# Coordination Sequence:
#
# PCOD9411051 Si02
#       7
#     8   8   8   8   8   8   8
#     4  10  21  39  68 103 128 165 222 286 327 390
#     4  10  22  39  70 102 129 164 224 285 334 385
#     4  11  22  37  70  99 130 171 219 280 336 392
#     4  11  25  45  63  93 142 177 222 277 337 404
#     4  10  22  41  67 101 128 168 227 270 342 397
#     4  11  25  45  62  91 137 186 220 268 337 413
#     4  11  23  41  69  95 135 172 222 279 322 401
#
# _framework density 20.579695000000001
#
# number of rings (size 3 to 8) (size 9 to 14) (size 15 to 20)
#    0.000    1.429    2.857    1.714    8.000    0.000 
#   10.286    5.000    0.000    0.000    0.000    0.000 
#    0.000    0.000    0.000    0.000    0.000    0.000 
#
# Total GULP energy -312416.232142 kJ/mol
# GULP energy per Si atom -5578.861288 kJ/mol
# Density = 2.053285 g / cm^3
# Si number density = 20.579695 Si / 1000 Ang^3
#
#
#
# Elastic Constant Matrix: (Units=GPa)
#
#
# Indices 1 2 3 4 5 6 
#
# 1 107.6185 42.0051 35.5503 0.0000 0.0000 0.0000
# 2 42.0051 133.5566 26.2145 0.0000 0.0000 0.0000
# 3 35.5503 26.2145 43.5649 0.0000 0.0000 0.0000
# 4 0.0000 0.0000 0.0000 22.7135 0.0000 0.0000
# 5 0.0000 0.0000 0.0000 0.0000 18.7205 0.0000
# 6 0.0000 0.0000 0.0000 0.0000 0.0000 45.5441
#
#
#
# Elastic Compliance Matrix: (Units=1/GPa)
#
#
# Indices 1 2 3 4 5 6 
#
# 1 0.013333 -0.002333 -0.009476 0.000000 0.000000 0.000000
# 2 -0.002333 0.008899 -0.003450 0.000000 0.000000 0.000000
# 3 -0.009476 -0.003450 0.032763 0.000000 0.000000 0.000000
# 4 0.000000 0.000000 0.000000 0.044027 0.000000 0.000000
# 5 0.000000 0.000000 0.000000 0.000000 0.053417 0.000000
# 6 0.000000 0.000000 0.000000 0.000000 0.000000 0.021957
#
#
# Mechanical properties :
#
#
# Convention : Reuss Voigt Hill
#
# Bulk Modulus (GPa) = 40.85793 54.69776 47.77785
# Shear Modulus (GPa) = 23.46596 29.46028 26.46312
#
# Velocity S-wave (km/s) = 3.38042 3.78765 3.58981
# Velocity P-wave (km/s) = 5.92730 6.76495 6.35993
#
# Compressibility (1/GPa) = 0.02447505
#
# Stress axis : x y z
#
# Youngs Moduli (GPa) = 75.00074 112.37700 30.52186
#
# Poissons Ratio (x) = 0.26223 0.28923
# Poissons Ratio (y) = 0.17501 0.10531
# Poissons Ratio (z) = 0.71072 0.38775
#
# Static dielectric constant tensor:
#      x y z
#    x 1.908490 0.000000 0.000000 
#    y 0.000000 1.759960 0.000000 
#    z 0.000000 0.000000 1.732760 
# 
# From -- ./inp_files/36808.got.cif
#   From: 2010.05.17/outbox.cif.g08.bks.cpg/sg52_19_cif.got.tgz:36808.got - 2010.06.03 12:15:38.
