data_PCOD9411737
_publ_section_title
;
Structure prediction by ZEFSAII (Michael W. Deem and Ramdas Pophale) SiO2 
 PCOD9411737
Probable space group: P N N A
;
_chemical_formula_sum "Si O2"
_cell_formula_units_Z 28
_cell_length_a 9.208072
_cell_length_b 5.044517
_cell_length_c 26.983638
_cell_angle_alpha 90.000000
_cell_angle_beta 90.000000
_cell_angle_gamma 90.000000
_cell_volume 1253.397426
_symmetry_space_group_name_H-M "P N N A"
_symmetry_group_IT_number 52
_symmetry_cell_setting 'orthorhombic'
loop_
_space_group_symop_operation_xyz
x,y,z
1/2-x,-y,z
x,1/2-y,1/2-z
1/2-x,1/2+y,1/2-z
-x,-y,-z
1/2+x,y,-z
-x,1/2+y,1/2+z
1/2+x,1/2-y,1/2+z
loop_
_atom_site_type_symbol
_atom_site_label
_atom_site_fract_x
_atom_site_fract_y
_atom_site_fract_z
Si Si1 0.005372 0.799623 0.454537
Si Si2 0.094197 0.005670 0.785767
Si Si3 0.653703 0.752733 0.645201
Si Si4 0.250000 0.000000 0.986714
O O1 0.067222 0.879928 0.401392
O O2 0.126195 0.601712 0.476337
O O3 0.841949 0.692746 0.451645
O O4 0.000000 0.000000 0.500000
O O5 0.122000 0.250000 0.750000
O O6 0.960448 0.106671 0.818688
O O7 0.250000 0.000000 0.814249
O O8 0.064034 0.750000 0.750000
O O9 0.750000 0.500000 0.628883
O O10 0.750000 0.000000 0.665948
#
# Coordination Sequence:
#
# PCOD9411737 Si02
#       4
#     8   8   8   4
#     4  11  23  42  64  99 140 192 237 300 350 428
#     4  10  23  47  74 106 141 181 235 303 367 438
#     4  12  26  44  71 107 146 187 243 299 362 442
#     4  10  22  40  64  90 138 186 242 286 360 408
#
# _framework density 22.339282000000001
#
# number of rings (size 3 to 8) (size 9 to 14) (size 15 to 20)
#    0.000    1.143    1.429    4.286    6.000    2.286 
#    0.000    2.857    0.000    0.000    0.000    0.000 
#    0.000    0.000    0.000    0.000    0.000    0.000 
#
# Total GULP energy -155880.761639 kJ/mol
# GULP energy per Si atom -5567.170059 kJ/mol
# Density = 2.228844 g / cm^3
# Si number density = 22.339282 Si / 1000 Ang^3
#
#
#
# Elastic Constant Matrix: (Units=GPa)
#
#
# Indices 1 2 3 4 5 6 
#
# 1 156.8185 53.4977 56.9847 0.0000 0.0000 0.0000
# 2 53.4977 121.2053 25.7664 0.0000 0.0000 0.0000
# 3 56.9847 25.7664 71.5202 0.0000 0.0000 0.0000
# 4 0.0000 0.0000 0.0000 25.3546 0.0000 0.0000
# 5 0.0000 0.0000 0.0000 0.0000 36.5622 0.0000
# 6 0.0000 0.0000 0.0000 0.0000 0.0000 32.6363
#
#
#
# Elastic Compliance Matrix: (Units=1/GPa)
#
#
# Indices 1 2 3 4 5 6 
#
# 1 0.009832 -0.002896 -0.006791 0.000000 0.000000 0.000000
# 2 -0.002896 0.009788 -0.001219 0.000000 0.000000 0.000000
# 3 -0.006791 -0.001219 0.019832 0.000000 0.000000 0.000000
# 4 0.000000 0.000000 0.000000 0.039441 0.000000 0.000000
# 5 0.000000 0.000000 0.000000 0.000000 0.027351 0.000000
# 6 0.000000 0.000000 0.000000 0.000000 0.000000 0.030641
#
#
# Mechanical properties :
#
#
# Convention : Reuss Voigt Hill
#
# Bulk Modulus (GPa) = 56.68670 69.11575 62.90122
# Shear Modulus (GPa) = 30.38123 33.13032 31.75577
#
# Velocity S-wave (km/s) = 3.69181 3.85522 3.77440
# Velocity P-wave (km/s) = 6.60326 7.12904 6.87118
#
# Compressibility (1/GPa) = 0.01764082
#
# Stress axis : x y z
#
# Youngs Moduli (GPa) = 101.70424 102.16723 50.42442
#
# Poissons Ratio (x) = 0.29590 0.34242
# Poissons Ratio (y) = 0.29456 0.06145
# Poissons Ratio (z) = 0.69064 0.12450
#
# Static dielectric constant tensor:
#      x y z
#    x 1.876250 0.000000 0.000000 
#    y 0.000000 1.893300 0.000000 
#    z 0.000000 0.000000 1.868980 
# 
# From -- ./inp_files/43962.got.cif
#   From: 2010.05.17/outbox.cif.g08.bks.cpg/sg52_22_cif.got.tgz:43962.got - 2010.06.03 12:15:38.
