data_PCOD9411348
_publ_section_title
;
Structure prediction by ZEFSAII (Michael W. Deem and Ramdas Pophale) SiO2 
 PCOD9411348
Probable space group: P N N A
;
_chemical_formula_sum "Si O2"
_cell_formula_units_Z 48
_cell_length_a 15.421675
_cell_length_b 17.584551
_cell_length_c 9.325768
_cell_angle_alpha 90.000000
_cell_angle_beta 90.000000
_cell_angle_gamma 90.000000
_cell_volume 2528.991894
_symmetry_space_group_name_H-M "P N N A"
_symmetry_group_IT_number 52
_symmetry_cell_setting 'orthorhombic'
loop_
_space_group_symop_operation_xyz
x,y,z
1/2-x,-y,z
x,1/2-y,1/2-z
1/2-x,1/2+y,1/2-z
-x,-y,-z
1/2+x,y,-z
-x,1/2+y,1/2+z
1/2+x,1/2-y,1/2+z
loop_
_atom_site_type_symbol
_atom_site_label
_atom_site_fract_x
_atom_site_fract_y
_atom_site_fract_z
Si Si1 0.317719 0.342842 0.901789
Si Si2 0.073249 0.540016 0.406873
Si Si3 0.656807 0.670071 0.434729
Si Si4 0.117875 0.164051 0.684682
Si Si5 0.039619 0.572824 0.078376
Si Si6 0.190968 0.435949 0.576552
O O1 0.349547 0.345967 0.735909
O O2 0.341604 0.258997 0.957668
O O3 0.212364 0.346198 0.892399
O O4 0.373695 0.400422 0.995912
O O5 0.088118 0.622953 0.475521
O O6 0.061364 0.548286 0.239735
O O7 0.152608 0.484598 0.447706
O O8 0.000000 0.500000 0.500000
O O9 0.748978 0.632730 0.474611
O O10 0.113495 0.250000 0.750000
O O11 0.123751 0.102897 0.815248
O O12 0.034787 0.138799 0.591433
O O13 0.000000 0.500000 0.000000
O O14 0.250000 0.500000 0.657106
#
# Coordination Sequence:
#
# PCOD9411348 Si02
#       6
#     8   8   8   8   8   8
#     4  10  21  42  68  95 132 169 223 281 337 401
#     4  11  21  37  64  92 129 171 220 271 330 402
#     4   9  19  40  66  89 122 171 219 263 339 397
#     4  11  22  43  70  96 125 184 229 264 344 425
#     4  12  28  41  63 104 140 174 226 288 350 394
#     4   9  18  36  66  90 117 169 226 261 311 410
#
# _framework density 18.979896
#
# number of rings (size 3 to 8) (size 9 to 14) (size 15 to 20)
#    0.000    1.667    5.000    1.000    7.000    0.000 
#    9.000    0.000    0.000    0.000    0.000    0.000 
#    0.000    0.000    0.000    0.000    0.000    0.000 
#
# Total GULP energy -267496.000148 kJ/mol
# GULP energy per Si atom -5572.833336 kJ/mol
# Density = 1.893670 g / cm^3
# Si number density = 18.979896 Si / 1000 Ang^3
#
#
#
# Elastic Constant Matrix: (Units=GPa)
#
#
# Indices 1 2 3 4 5 6 
#
# 1 85.1833 39.5463 43.0081 0.0000 0.0000 0.0000
# 2 39.5463 116.5919 49.8373 0.0000 0.0000 0.0000
# 3 43.0081 49.8373 76.2861 0.0000 0.0000 0.0000
# 4 0.0000 0.0000 0.0000 32.0805 0.0000 0.0000
# 5 0.0000 0.0000 0.0000 0.0000 30.8954 0.0000
# 6 0.0000 0.0000 0.0000 0.0000 0.0000 36.2035
#
#
#
# Elastic Compliance Matrix: (Units=1/GPa)
#
#
# Indices 1 2 3 4 5 6 
#
# 1 0.016842 -0.002295 -0.007996 0.000000 0.000000 0.000000
# 2 -0.002295 0.012213 -0.006685 0.000000 0.000000 0.000000
# 3 -0.007996 -0.006685 0.021984 0.000000 0.000000 0.000000
# 4 0.000000 0.000000 0.000000 0.031172 0.000000 0.000000
# 5 0.000000 0.000000 0.000000 0.000000 0.032367 0.000000
# 6 0.000000 0.000000 0.000000 0.000000 0.000000 0.027622
#
#
# Mechanical properties :
#
#
# Convention : Reuss Voigt Hill
#
# Bulk Modulus (GPa) = 58.52290 60.31610 59.41950
# Shear Modulus (GPa) = 27.49599 29.54720 28.52160
#
# Velocity S-wave (km/s) = 3.81030 3.94986 3.88071
# Velocity P-wave (km/s) = 7.08935 7.25602 7.17317
#
# Compressibility (1/GPa) = 0.01708733
#
# Stress axis : x y z
#
# Youngs Moduli (GPa) = 59.37651 81.88220 45.48855
#
# Poissons Ratio (x) = 0.18789 0.36372
# Poissons Ratio (y) = 0.13625 0.30408
# Poissons Ratio (z) = 0.47476 0.54737
#
# Static dielectric constant tensor:
#      x y z
#    x 1.803800 0.000000 0.000000 
#    y 0.000000 1.669460 0.000000 
#    z 0.000000 0.000000 1.645570 
# 
# From -- ./inp_files/12277.got.cif
#   From: 2010.05.17/outbox.cif.g08.bks.cpg/sg52_7_cif.got.tgz:12277.got - 2010.06.03 12:15:38.
