data_PCOD9411640
_publ_section_title
;
Structure prediction by ZEFSAII (Michael W. Deem and Ramdas Pophale) SiO2 
 PCOD9411640
Probable space group: P N N A
;
_chemical_formula_sum "Si O2"
_cell_formula_units_Z 48
_cell_length_a 15.159955
_cell_length_b 9.476825
_cell_length_c 15.306951
_cell_angle_alpha 90.000000
_cell_angle_beta 90.000000
_cell_angle_gamma 90.000000
_cell_volume 2199.122718
_symmetry_space_group_name_H-M "P N N A"
_symmetry_group_IT_number 52
_symmetry_cell_setting 'orthorhombic'
loop_
_space_group_symop_operation_xyz
x,y,z
1/2-x,-y,z
x,1/2-y,1/2-z
1/2-x,1/2+y,1/2-z
-x,-y,-z
1/2+x,y,-z
-x,1/2+y,1/2+z
1/2+x,1/2-y,1/2+z
loop_
_atom_site_type_symbol
_atom_site_label
_atom_site_fract_x
_atom_site_fract_y
_atom_site_fract_z
Si Si1 0.821870 0.191655 0.846754
Si Si2 0.630476 0.114504 0.101748
Si Si3 0.869524 0.614504 0.601748
Si Si4 0.178130 0.691655 0.653246
Si Si5 0.493498 0.155747 0.601856
Si Si6 0.493498 0.344253 0.101855
O O1 0.808433 0.250000 0.750000
O O2 0.727424 0.183465 0.893258
O O3 0.894178 0.289581 0.891819
O O4 0.861150 0.033081 0.847971
O O5 0.727424 0.183465 0.106741
O O6 0.558520 0.223603 0.137748
O O7 0.638850 0.966919 0.152029
O O8 0.610119 0.079945 1.000000
O O9 0.941480 0.723603 0.637748
O O10 0.191568 0.750000 0.750000
O O11 0.105822 0.789581 0.608182
O O12 0.520224 0.143738 0.500000
O O13 0.500000 1.000000 0.641852
#
# Coordination Sequence:
#
# PCOD9411640 Si02
#       6
#     8   8   8   8   8   8
#     4  11  23  37  60  91 122 157 200 256 312 362
#     4  10  22  43  67  87 119 169 215 249 297 373
#     4  10  22  43  67  87 119 169 215 249 297 373
#     4  11  23  37  60  91 122 157 200 256 312 362
#     4  10  22  39  61  89 120 159 205 250 298 362
#     4  10  22  39  61  89 120 159 205 250 298 362
#
# _framework density 21.826885999999998
#
# number of rings (size 3 to 8) (size 9 to 14) (size 15 to 20)
#    0.000    1.667    0.000    5.000    0.000   13.333 
#    0.000    5.000    0.000    0.000    0.000    0.000 
#    0.000    0.000    0.000    0.000    0.000    0.000 
#
# Total GULP energy -268310.666197 kJ/mol
# GULP energy per Si atom -5589.805546 kJ/mol
# Density = 2.177721 g / cm^3
# Si number density = 21.826886 Si / 1000 Ang^3
#
#
#
# Elastic Constant Matrix: (Units=GPa)
#
#
# Indices 1 2 3 4 5 6 
#
# 1 72.1802 33.7702 -12.2788 0.0000 0.0000 0.0000
# 2 33.7702 88.8421 22.8754 0.0000 0.0000 0.0000
# 3 -12.2788 22.8754 64.9556 0.0000 0.0000 0.0000
# 4 0.0000 0.0000 0.0000 49.2689 0.0000 0.0000
# 5 0.0000 0.0000 0.0000 0.0000-1238.5648 0.0000
# 6 0.0000 0.0000 0.0000 0.0000 0.0000 26.5397
#
#
#
# Elastic Compliance Matrix: (Units=1/GPa)
#
#
# Indices 1 2 3 4 5 6 
#
# 1 0.019269 -0.009086 0.006843 0.000000 0.000000 0.000000
# 2 -0.009086 0.016663 -0.007586 0.000000 0.000000 0.000000
# 3 0.006843 -0.007586 0.019360 0.000000 0.000000 0.000000
# 4 0.000000 0.000000 0.000000 0.020297 0.000000 0.000000
# 5 0.000000 0.000000 0.000000 0.000000 -0.000807 0.000000
# 6 0.000000 0.000000 0.000000 0.000000 0.000000 0.037679
#
#
# Mechanical properties :
#
#
# Convention : Reuss Voigt Hill
#
# Bulk Modulus (GPa) = 28.06384 34.96796 31.51590
# Shear Modulus (GPa) = 34.72256 -220.44382 -92.86063
#
# Velocity S-wave (km/s) = 3.99283 -10.06060 -6.52966
# Velocity P-wave (km/s) = 5.84314 10.90408 6.50986
#
# Compressibility (1/GPa) = 0.03563304
#
# Stress axis : x y z
#
# Youngs Moduli (GPa) = 51.89576 60.01301 51.65259
#
# Poissons Ratio (x) = 0.54530 -0.35344
# Poissons Ratio (y) = 0.47155 0.39183
# Poissons Ratio (z) = -0.35510 0.45525
#
# Static dielectric constant tensor:
#      x y z
#    x 1.770100 0.000000 0.000000 
#    y 0.000000 1.807620 0.000000 
#    z 0.000000 0.000000 1.810650 
# 
# From -- ./inp_files/33023.got.cif
#   From: 2010.05.17/outbox.cif.g08.bks.cpg/sg52_17_cif.got.tgz:33023.got - 2010.06.03 12:15:38.
