data_PCOD9411767
_publ_section_title
;
Structure prediction by ZEFSAII (Michael W. Deem and Ramdas Pophale) SiO2 
 PCOD9411767
Probable space group: P N N A
;
_chemical_formula_sum "Si O2"
_cell_formula_units_Z 24
_cell_length_a 7.994122
_cell_length_b 23.427109
_cell_length_c 4.317804
_cell_angle_alpha 90.000000
_cell_angle_beta 90.000000
_cell_angle_gamma 90.000000
_cell_volume 808.634738
_symmetry_space_group_name_H-M "P N N A"
_symmetry_group_IT_number 52
_symmetry_cell_setting 'orthorhombic'
loop_
_space_group_symop_operation_xyz
x,y,z
1/2-x,-y,z
x,1/2-y,1/2-z
1/2-x,1/2+y,1/2-z
-x,-y,-z
1/2+x,y,-z
-x,1/2+y,1/2+z
1/2+x,1/2-y,1/2+z
loop_
_atom_site_type_symbol
_atom_site_label
_atom_site_fract_x
_atom_site_fract_y
_atom_site_fract_z
Si Si1 0.285755 0.250000 0.250000
Si Si2 0.750000 0.500000 0.791407
Si Si3 0.486762 0.916529 0.683969
Si Si4 0.285778 0.336080 0.755950
O O1 0.364909 0.295516 0.492632
O O2 0.201730 0.206905 0.492534
O O3 0.619567 0.543744 0.634402
O O4 0.633606 0.459367 0.998848
O O5 0.361396 0.876145 0.872250
O O6 0.589831 0.876205 0.449284
#
# Coordination Sequence:
#
# PCOD9411767 Si02
#       4
#     4   4   8   8
#     4  10  24  42  64  94 132 182 230 276 334 410
#     4   8  16  36  68 100 136 176 226 282 348 410
#     4   9  18  36  68 100 136 178 226 285 344 410
#     4  10  22  40  66  96 134 177 228 278 337 404
#
# _framework density 29.679656000000001
#
# number of rings (size 3 to 8) (size 9 to 14) (size 15 to 20)
#    0.000    2.667    0.000    0.000    0.000    8.000 
#    0.000    0.000    0.000  146.000    0.000    0.000 
#    0.000    0.000    0.000    0.000    0.000    1.333 
#
# Total GULP energy -134238.773139 kJ/mol
# GULP energy per Si atom -5593.282214 kJ/mol
# Density = 2.961210 g / cm^3
# Si number density = 29.679656 Si / 1000 Ang^3
#
#
#
# Elastic Constant Matrix: (Units=GPa)
#
#
# Indices 1 2 3 4 5 6 
#
# 1 134.0032 117.3239 42.1382 0.0000 0.0000 0.0000
# 2 117.3239 216.3714 85.4234 0.0000 0.0000 0.0000
# 3 42.1382 85.4234 125.7812 0.0000 0.0000 0.0000
# 4 0.0000 0.0000 0.0000 40.8190 0.0000 0.0000
# 5 0.0000 0.0000 0.0000 0.0000 -20.9906 0.0000
# 6 0.0000 0.0000 0.0000 0.0000 0.0000 68.6776
#
#
#
# Elastic Compliance Matrix: (Units=1/GPa)
#
#
# Indices 1 2 3 4 5 6 
#
# 1 0.014246 -0.007980 0.000647 0.000000 0.000000 0.000000
# 2 -0.007980 0.010785 -0.004651 0.000000 0.000000 0.000000
# 3 0.000647 -0.004651 0.010892 0.000000 0.000000 0.000000
# 4 0.000000 0.000000 0.000000 0.024498 0.000000 0.000000
# 5 0.000000 0.000000 0.000000 0.000000 -0.047640 0.000000
# 6 0.000000 0.000000 0.000000 0.000000 0.000000 0.014561
#
#
# Mechanical properties :
#
#
# Convention : Reuss Voigt Hill
#
# Bulk Modulus (GPa) = 83.64767 107.32523 95.48645
# Shear Modulus (GPa) = 90.42379 33.11919 61.77149
#
# Velocity S-wave (km/s) = 5.52564 3.34412 4.56705
# Velocity P-wave (km/s) = 8.30391 7.15196 7.74937
#
# Compressibility (1/GPa) = 0.01195491
#
# Stress axis : x y z
#
# Youngs Moduli (GPa) = 70.19624 92.72151 91.80765
#
# Poissons Ratio (x) = 0.73992 -0.05940
# Poissons Ratio (y) = 0.56017 0.42701
# Poissons Ratio (z) = -0.04542 0.43126
#
# Static dielectric constant tensor:
#      x y z
#    x 2.238440 0.000000 0.000000 
#    y 0.000000 2.262860 0.000000 
#    z 0.000000 0.000000 2.278140 
# 
# From -- ./inp_files/318.got.cif
#   From: 2010.05.17/outbox.cif.g08.bks.cpg/sg52_1_cif.got.tgz:318.got - 2010.06.03 12:15:38.
