data_PCOD9411327
_publ_section_title
;
Structure prediction by ZEFSAII (Michael W. Deem and Ramdas Pophale) SiO2 
 PCOD9411327
Probable space group: P N N A
;
_chemical_formula_sum "Si O2"
_cell_formula_units_Z 60
_cell_length_a 8.746613
_cell_length_b 25.418352
_cell_length_c 12.474010
_cell_angle_alpha 90.000000
_cell_angle_beta 90.000000
_cell_angle_gamma 90.000000
_cell_volume 2773.277887
_symmetry_space_group_name_H-M "P N N A"
_symmetry_group_IT_number 52
_symmetry_cell_setting 'orthorhombic'
loop_
_space_group_symop_operation_xyz
x,y,z
1/2-x,-y,z
x,1/2-y,1/2-z
1/2-x,1/2+y,1/2-z
-x,-y,-z
1/2+x,y,-z
-x,1/2+y,1/2+z
1/2+x,1/2-y,1/2+z
loop_
_atom_site_type_symbol
_atom_site_label
_atom_site_fract_x
_atom_site_fract_y
_atom_site_fract_z
Si Si1 0.023533 0.806952 0.714268
Si Si2 0.820170 0.174740 0.695870
Si Si3 0.233292 0.560253 0.245082
Si Si4 0.551888 0.193515 0.110424
Si Si5 0.833827 0.240252 0.477726
Si Si6 0.506165 0.077126 0.063850
Si Si7 0.250000 0.500000 0.636998
Si Si8 0.928999 0.408944 0.321258
O O1 0.073411 0.750000 0.750000
O O2 0.065282 0.801397 0.590145
O O3 0.112289 0.853517 0.770827
O O4 0.846697 0.814064 0.747606
O O5 0.824118 0.111360 0.676822
O O6 0.806969 0.208864 0.588367
O O7 0.956243 0.192342 0.776727
O O8 0.250000 0.500000 0.203771
O O9 0.402405 0.575903 0.282216
O O10 0.120629 0.562832 0.347524
O O11 0.687789 0.235497 0.086087
O O12 0.590062 0.132092 0.093214
O O13 0.432201 0.209839 0.016879
O O14 0.624373 0.029207 0.065463
O O15 0.433175 0.087761 0.949137
O O16 0.182422 0.544834 0.712189
#
# Coordination Sequence:
#
# PCOD9411327 Si02
#       8
#     8   8   8   8   8   8   4   8
#     4  11  24  43  70  97 139 184 227 287 355 422
#     4  10  24  46  71 101 142 181 235 295 344 426
#     4  10  21  42  66  93 129 183 227 278 358 415
#     4  11  26  42  74 103 144 185 235 288 360 418
#     4  12  24  47  72 104 141 187 233 295 354 425
#     4  11  24  38  61  98 134 180 219 282 341 426
#     4  12  24  38  60  94 144 170 228 290 338 414
#     4  11  24  38  62  91 135 176 226 278 351 413
#
# _framework density 21.635045999999999
#
# number of rings (size 3 to 8) (size 9 to 14) (size 15 to 20)
#    0.000    1.067    2.667    3.200   11.200    1.067 
#    2.400    0.000    1.467    1.600    0.000    0.000 
#    0.000    0.000    0.000    0.000    0.000    0.000 
#
# Total GULP energy -334798.195524 kJ/mol
# GULP energy per Si atom -5579.969925 kJ/mol
# Density = 2.158580 g / cm^3
# Si number density = 21.635046 Si / 1000 Ang^3
#
#
#
# Elastic Constant Matrix: (Units=GPa)
#
#
# Indices 1 2 3 4 5 6 
#
# 1 78.3205 44.8000 25.5222 0.0000 0.0000 0.0000
# 2 44.8000 211.3877 47.9573 0.0000 0.0000 0.0000
# 3 25.5222 47.9573 47.8371 0.0000 0.0000 0.0000
# 4 0.0000 0.0000 0.0000 27.3428 0.0000 0.0000
# 5 0.0000 0.0000 0.0000 0.0000 23.2543 0.0000
# 6 0.0000 0.0000 0.0000 0.0000 0.0000 31.1528
#
#
#
# Elastic Compliance Matrix: (Units=1/GPa)
#
#
# Indices 1 2 3 4 5 6 
#
# 1 0.016015 -0.001884 -0.006655 0.000000 0.000000 0.000000
# 2 -0.001884 0.006345 -0.005356 0.000000 0.000000 0.000000
# 3 -0.006655 -0.005356 0.029824 0.000000 0.000000 0.000000
# 4 0.000000 0.000000 0.000000 0.036573 0.000000 0.000000
# 5 0.000000 0.000000 0.000000 0.000000 0.043003 0.000000
# 6 0.000000 0.000000 0.000000 0.000000 0.000000 0.032100
#
#
# Mechanical properties :
#
#
# Convention : Reuss Voigt Hill
#
# Bulk Modulus (GPa) = 40.99450 63.78935 52.39192
# Shear Modulus (GPa) = 25.02748 30.96769 27.99759
#
# Velocity S-wave (km/s) = 3.40487 3.78745 3.60124
# Velocity P-wave (km/s) = 5.86914 6.97672 6.44676
#
# Compressibility (1/GPa) = 0.02439352
#
# Stress axis : x y z
#
# Youngs Moduli (GPa) = 62.44338 157.60446 33.52986
#
# Poissons Ratio (x) = 0.29695 0.22315
# Poissons Ratio (y) = 0.11765 0.17958
# Poissons Ratio (z) = 0.41558 0.84408
#
# Static dielectric constant tensor:
#      x y z
#    x 1.872450 0.000000 0.000000 
#    y 0.000000 1.857950 0.000000 
#    z 0.000000 0.000000 1.932250 
# 
# From -- ./inp_files/17124.got.cif
#   From: 2010.05.17/outbox.cif.g08.bks.cpg/sg52_9_cif.got.tgz:17124.got - 2010.06.03 12:15:38.
