data_PCOD9411651
_publ_section_title
;
Structure prediction by ZEFSAII (Michael W. Deem and Ramdas Pophale) SiO2 
 PCOD9411651
Probable space group: P N N A
;
_chemical_formula_sum "Si O2"
_cell_formula_units_Z 32
_cell_length_a 5.051829
_cell_length_b 20.643376
_cell_length_c 15.499595
_cell_angle_alpha 90.000000
_cell_angle_beta 90.000000
_cell_angle_gamma 90.000000
_cell_volume 1616.403250
_symmetry_space_group_name_H-M "P N N A"
_symmetry_group_IT_number 52
_symmetry_cell_setting 'orthorhombic'
loop_
_space_group_symop_operation_xyz
x,y,z
1/2-x,-y,z
x,1/2-y,1/2-z
1/2-x,1/2+y,1/2-z
-x,-y,-z
1/2+x,y,-z
-x,1/2+y,1/2+z
1/2+x,1/2-y,1/2+z
loop_
_atom_site_type_symbol
_atom_site_label
_atom_site_fract_x
_atom_site_fract_y
_atom_site_fract_z
Si Si1 0.424590 0.104918 0.559599
Si Si2 0.410301 0.102695 0.206027
Si Si3 0.918547 0.324640 0.241339
Si Si4 0.750000 0.000000 0.651604
Si Si5 0.250000 0.000000 0.062555
O O1 0.642061 0.114182 0.484735
O O2 0.431857 0.152532 0.641765
O O3 0.522698 0.035622 0.597259
O O4 0.706641 0.129895 0.209016
O O5 0.206811 0.161195 0.219861
O O6 0.378928 0.054379 0.287557
O O7 0.309309 0.060846 0.125284
O O8 0.845149 0.250000 0.250000
O O9 0.500000 0.000000 0.000000
#
# Coordination Sequence:
#
# PCOD9411651 Si02
#       5
#     8   8   8   4   4
#     4  11  22  36  57  90 119 147 188 241 291 340
#     4  10  22  39  62  88 115 158 202 236 298 371
#     4  11  23  42  61  81 118 167 205 237 284 357
#     4   9  20  36  60  87 122 152 182 233 304 368
#     4  11  22  40  64  95 124 148 196 269 316 348
#
# _framework density 19.797041
#
# number of rings (size 3 to 8) (size 9 to 14) (size 15 to 20)
#    0.000    1.500    0.000    6.000    0.000   12.000 
#    0.000    7.500    0.000    0.000    0.000    0.000 
#    0.000    0.000    0.000    0.000    0.000    0.000 
#
# Total GULP energy -178730.455191 kJ/mol
# GULP energy per Si atom -5585.326725 kJ/mol
# Density = 1.975198 g / cm^3
# Si number density = 19.797041 Si / 1000 Ang^3
#
#
#
# Elastic Constant Matrix: (Units=GPa)
#
#
# Indices 1 2 3 4 5 6 
#
# 1 47.0799 6.9005 14.7529 0.0000 0.0000 0.0000
# 2 6.9005 94.7642 36.8931 0.0000 0.0000 0.0000
# 3 14.7529 36.8931 109.7253 0.0000 0.0000 0.0000
# 4 0.0000 0.0000 0.0000 13.3669 0.0000 0.0000
# 5 0.0000 0.0000 0.0000 0.0000 31.1886 0.0000
# 6 0.0000 0.0000 0.0000 0.0000 0.0000 26.0817
#
#
#
# Elastic Compliance Matrix: (Units=1/GPa)
#
#
# Indices 1 2 3 4 5 6 
#
# 1 0.022197 -0.000523 -0.002809 0.000000 0.000000 0.000000
# 2 -0.000523 0.012154 -0.004016 0.000000 0.000000 0.000000
# 3 -0.002809 -0.004016 0.010842 0.000000 0.000000 0.000000
# 4 0.000000 0.000000 0.000000 0.074811 0.000000 0.000000
# 5 0.000000 0.000000 0.000000 0.000000 0.032063 0.000000
# 6 0.000000 0.000000 0.000000 0.000000 0.000000 0.038341
#
#
# Mechanical properties :
#
#
# Convention : Reuss Voigt Hill
#
# Bulk Modulus (GPa) = 32.78967 40.96249 36.87608
# Shear Modulus (GPa) = 23.22662 26.99565 25.11113
#
# Velocity S-wave (km/s) = 3.42897 3.69673 3.56536
# Velocity P-wave (km/s) = 5.68120 6.24157 5.96796
#
# Compressibility (1/GPa) = 0.03049741
#
# Stress axis : x y z
#
# Youngs Moduli (GPa) = 45.05059 82.27615 92.23630
#
# Poissons Ratio (x) = 0.04302 0.25906
# Poissons Ratio (y) = 0.02356 0.37045
# Poissons Ratio (z) = 0.12653 0.33045
#
# Static dielectric constant tensor:
#      x y z
#    x 1.699500 0.000000 0.000000 
#    y 0.000000 1.679550 0.000000 
#    z 0.000000 0.000000 1.700970 
# 
# From -- ./inp_files/23509.got.cif
#   From: 2010.05.17/outbox.cif.g08.bks.cpg/sg52_12_cif.got.tgz:23509.got - 2010.06.03 12:15:38.
