data_PCOD9411373
_publ_section_title
;
Structure prediction by ZEFSAII (Michael W. Deem and Ramdas Pophale) SiO2 
 PCOD9411373
Probable space group: P N N A
;
_chemical_formula_sum "Si O2"
_cell_formula_units_Z 40
_cell_length_a 8.435409
_cell_length_b 16.034105
_cell_length_c 13.705847
_cell_angle_alpha 90.000000
_cell_angle_beta 90.000000
_cell_angle_gamma 90.000000
_cell_volume 1853.773832
_symmetry_space_group_name_H-M "P N N A"
_symmetry_group_IT_number 52
_symmetry_cell_setting 'orthorhombic'
loop_
_space_group_symop_operation_xyz
x,y,z
1/2-x,-y,z
x,1/2-y,1/2-z
1/2-x,1/2+y,1/2-z
-x,-y,-z
1/2+x,y,-z
-x,1/2+y,1/2+z
1/2+x,1/2-y,1/2+z
loop_
_atom_site_type_symbol
_atom_site_label
_atom_site_fract_x
_atom_site_fract_y
_atom_site_fract_z
Si Si1 0.375050 0.939278 0.949529
Si Si2 0.840698 0.587447 0.092843
Si Si3 0.484293 0.156229 0.229975
Si Si4 0.056542 0.693584 0.958064
Si Si5 0.727732 0.196567 0.898633
O O1 0.446163 0.878751 0.869881
O O2 0.250000 0.000000 0.899065
O O3 0.293782 0.883250 0.032105
O O4 0.500000 0.000000 0.000000
O O5 0.750000 0.500000 0.081196
O O6 0.958762 0.595924 0.184374
O O7 0.699267 0.654973 0.103435
O O8 0.946732 0.619746 0.002122
O O9 0.542238 0.250000 0.250000
O O10 0.297744 0.166413 0.204582
O O11 0.939590 0.755756 0.901451
O O12 0.143531 0.742486 0.047889
#
# Coordination Sequence:
#
# PCOD9411373 Si02
#       5
#     8   8   8   8   8
#     4  12  23  41  69 101 138 183 231 289 359 416
#     4  11  23  42  71 101 136 176 230 299 347 411
#     4  12  23  42  68  97 144 178 233 288 336 425
#     4  10  21  42  73  94 129 188 231 272 356 423
#     4  11  20  42  69  98 135 185 228 277 350 425
#
# _framework density 21.577604000000001
#
# number of rings (size 3 to 8) (size 9 to 14) (size 15 to 20)
#    0.000    0.800    6.000    2.400    0.000    0.000 
#    0.000    9.000    4.400    0.000    0.000    0.000 
#    0.000    0.000    0.000    0.000    0.000    0.000 
#
# Total GULP energy -223413.707837 kJ/mol
# GULP energy per Si atom -5585.342696 kJ/mol
# Density = 2.152849 g / cm^3
# Si number density = 21.577604 Si / 1000 Ang^3
#
#
#
# Elastic Constant Matrix: (Units=GPa)
#
#
# Indices 1 2 3 4 5 6 
#
# 1 98.1757 15.6323 25.4689 0.0000 0.0000 0.0000
# 2 15.6323 87.8828 18.3725 0.0000 0.0000 0.0000
# 3 25.4689 18.3725 56.3905 0.0000 0.0000 0.0000
# 4 0.0000 0.0000 0.0000 28.1958 0.0000 0.0000
# 5 0.0000 0.0000 0.0000 0.0000 26.4603 0.0000
# 6 0.0000 0.0000 0.0000 0.0000 0.0000 48.2444
#
#
#
# Elastic Compliance Matrix: (Units=1/GPa)
#
#
# Indices 1 2 3 4 5 6 
#
# 1 0.011626 -0.001041 -0.004912 0.000000 0.000000 0.000000
# 2 -0.001041 0.012304 -0.003538 0.000000 0.000000 0.000000
# 3 -0.004912 -0.003538 0.021105 0.000000 0.000000 0.000000
# 4 0.000000 0.000000 0.000000 0.035466 0.000000 0.000000
# 5 0.000000 0.000000 0.000000 0.000000 0.037792 0.000000
# 6 0.000000 0.000000 0.000000 0.000000 0.000000 0.020728
#
#
# Mechanical properties :
#
#
# Convention : Reuss Voigt Hill
#
# Bulk Modulus (GPa) = 38.38503 40.15517 39.27010
# Shear Modulus (GPa) = 29.99636 32.77847 31.38742
#
# Velocity S-wave (km/s) = 3.73253 3.90179 3.81810
# Velocity P-wave (km/s) = 6.03354 6.24089 6.13809
#
# Compressibility (1/GPa) = 0.02605182
#
# Stress axis : x y z
#
# Youngs Moduli (GPa) = 86.01580 81.27621 47.38286
#
# Poissons Ratio (x) = 0.08462 0.23273
# Poissons Ratio (y) = 0.08955 0.16766
# Poissons Ratio (z) = 0.42248 0.28759
#
# Static dielectric constant tensor:
#      x y z
#    x 1.826330 0.000000 0.000000 
#    y 0.000000 1.805820 0.000000 
#    z 0.000000 0.000000 1.825920 
# 
# From -- ./inp_files/24399.got.cif
#   From: 2010.05.17/outbox.cif.g08.bks.cpg/sg52_13_cif.got.tgz:24399.got - 2010.06.03 12:15:38.
