data_PCOD9411598
_publ_section_title
;
Structure prediction by ZEFSAII (Michael W. Deem and Ramdas Pophale) SiO2 
 PCOD9411598
Probable space group: P N N A
;
_chemical_formula_sum "Si O2"
_cell_formula_units_Z 56
_cell_length_a 13.096605
_cell_length_b 9.743589
_cell_length_c 20.675396
_cell_angle_alpha 90.000000
_cell_angle_beta 90.000000
_cell_angle_gamma 90.000000
_cell_volume 2638.344618
_symmetry_space_group_name_H-M "P N N A"
_symmetry_group_IT_number 52
_symmetry_cell_setting 'orthorhombic'
loop_
_space_group_symop_operation_xyz
x,y,z
1/2-x,-y,z
x,1/2-y,1/2-z
1/2-x,1/2+y,1/2-z
-x,-y,-z
1/2+x,y,-z
-x,1/2+y,1/2+z
1/2+x,1/2-y,1/2+z
loop_
_atom_site_type_symbol
_atom_site_label
_atom_site_fract_x
_atom_site_fract_y
_atom_site_fract_z
Si Si1 0.653708 0.750000 0.750000
Si Si2 0.132180 0.460953 0.827520
Si Si3 0.432534 0.132322 0.019904
Si Si4 0.017753 0.310829 0.649041
Si Si5 0.451551 0.300677 0.890507
Si Si6 0.343546 0.748179 0.179263
Si Si7 0.250000 0.500000 0.399047
Si Si8 0.364996 0.059338 0.812981
O O1 0.575968 0.680830 0.699585
O O2 0.736291 0.675360 0.797879
O O3 0.250000 0.500000 0.831828
O O4 0.099207 0.302597 0.827649
O O5 0.080153 0.542216 0.885400
O O6 0.097868 0.526106 0.759330
O O7 0.481954 0.221692 0.077268
O O8 0.329776 0.075559 0.053579
O O9 0.425034 0.227167 0.957240
O O10 0.500000 0.000000 0.000000
O O11 0.066984 0.459835 0.643530
O O12 0.570767 0.298937 0.870689
O O13 0.385794 0.211682 0.837777
O O14 0.396730 0.750000 0.250000
O O15 0.305261 0.891141 0.148282
O O16 0.250000 0.000000 0.817272
#
# Coordination Sequence:
#
# PCOD9411598 Si02
#       8
#     4   8   8   8   8   8   4   8
#     4  10  22  40  66  98 128 178 220 286 348 396
#     4  11  25  43  66  97 139 175 221 282 338 399
#     4  12  25  41  69  96 134 178 228 275 329 406
#     4  12  22  44  68  97 134 181 224 278 348 405
#     4  12  25  42  64 103 134 181 221 280 334 404
#     4  10  22  38  64  95 132 169 220 285 336 389
#     4  12  22  42  66 100 136 172 234 282 340 406
#     4  11  22  39  68 101 129 169 225 275 333 395
#
# _framework density 21.225428999999998
#
# number of rings (size 3 to 8) (size 9 to 14) (size 15 to 20)
#    0.429    0.286    5.714    2.143    1.000    5.143 
#    0.000    0.000    0.000    0.000    0.000    0.000 
#    0.000    0.000    0.000    0.000    0.000    0.000 
#
# Total GULP energy -312101.546398 kJ/mol
# GULP energy per Si atom -5573.241900 kJ/mol
# Density = 2.117712 g / cm^3
# Si number density = 21.225429 Si / 1000 Ang^3
#
#
#
# Elastic Constant Matrix: (Units=GPa)
#
#
# Indices 1 2 3 4 5 6 
#
# 1 94.5662 20.3335 21.3827 0.0000 0.0000 0.0000
# 2 20.3335 57.6793 12.8975 0.0000 0.0000 0.0000
# 3 21.3827 12.8975 120.2052 0.0000 0.0000 0.0000
# 4 0.0000 0.0000 0.0000 35.8018 0.0000 0.0000
# 5 0.0000 0.0000 0.0000 0.0000 -24.6074 0.0000
# 6 0.0000 0.0000 0.0000 0.0000 0.0000 21.6134
#
#
#
# Elastic Compliance Matrix: (Units=1/GPa)
#
#
# Indices 1 2 3 4 5 6 
#
# 1 0.011767 -0.003771 -0.001689 0.000000 0.000000 0.000000
# 2 -0.003771 0.018972 -0.001365 0.000000 0.000000 0.000000
# 3 -0.001689 -0.001365 0.008766 0.000000 0.000000 0.000000
# 4 0.000000 0.000000 0.000000 0.027932 0.000000 0.000000
# 5 0.000000 0.000000 0.000000 0.000000 -0.040638 0.000000
# 6 0.000000 0.000000 0.000000 0.000000 0.000000 0.046268
#
#
# Mechanical properties :
#
#
# Convention : Reuss Voigt Hill
#
# Bulk Modulus (GPa) = 38.67488 42.40865 40.54176
# Shear Modulus (GPa) = 52.44779 21.08402 36.76591
#
# Velocity S-wave (km/s) = 4.97630 3.15515 4.16644
# Velocity P-wave (km/s) = 7.16091 5.77033 6.50290
#
# Compressibility (1/GPa) = 0.02585658
#
# Stress axis : x y z
#
# Youngs Moduli (GPa) = 84.98203 52.71008 114.07799
#
# Poissons Ratio (x) = 0.19875 0.19264
# Poissons Ratio (y) = 0.32044 0.15570
# Poissons Ratio (z) = 0.14350 0.07194
#
# Static dielectric constant tensor:
#      x y z
#    x 1.845020 0.000000 0.000000 
#    y 0.000000 1.752010 0.000000 
#    z 0.000000 0.000000 1.785480 
# 
# From -- ./inp_files/37388.got.cif
#   From: 2010.05.17/outbox.cif.g08.bks.cpg/sg52_19_cif.got.tgz:37388.got - 2010.06.03 12:15:38.
