data_PCOD9411211
_publ_section_title
;
Structure prediction by ZEFSAII (Michael W. Deem and Ramdas Pophale) SiO2 
 PCOD9411211
Probable space group: P N N A
;
_chemical_formula_sum "Si O2"
_cell_formula_units_Z 44
_cell_length_a 14.549895
_cell_length_b 15.590513
_cell_length_c 9.515411
_cell_angle_alpha 90.000000
_cell_angle_beta 90.000000
_cell_angle_gamma 90.000000
_cell_volume 2158.478944
_symmetry_space_group_name_H-M "P N N A"
_symmetry_group_IT_number 52
_symmetry_cell_setting 'orthorhombic'
loop_
_space_group_symop_operation_xyz
x,y,z
1/2-x,-y,z
x,1/2-y,1/2-z
1/2-x,1/2+y,1/2-z
-x,-y,-z
1/2+x,y,-z
-x,1/2+y,1/2+z
1/2+x,1/2-y,1/2+z
loop_
_atom_site_type_symbol
_atom_site_label
_atom_site_fract_x
_atom_site_fract_y
_atom_site_fract_z
Si Si1 0.720016 0.378711 0.445775
Si Si2 0.935835 0.133835 0.009411
Si Si3 0.924945 0.733419 0.085541
Si Si4 0.584686 0.471685 0.662517
Si Si5 0.750000 0.500000 0.189068
Si Si6 0.900795 0.960311 0.515346
O O1 0.827054 0.361428 0.472495
O O2 0.662832 0.291666 0.452125
O O3 0.663676 0.440719 0.552900
O O4 0.719750 0.424255 0.293902
O O5 0.994105 0.086238 0.132239
O O6 0.986045 0.223762 0.986943
O O7 0.946393 0.068084 0.877567
O O8 0.939097 0.750000 0.250000
O O9 0.905980 0.637074 0.039546
O O10 0.621665 0.462885 0.819306
O O11 0.833507 0.485025 0.083153
O O12 0.000000 0.000000 0.500000
#
# Coordination Sequence:
#
# PCOD9411211 Si02
#       6
#     8   8   8   8   4   8
#     4  11  22  43  71  96 130 182 229 267 344 406
#     4  10  21  40  72  93 130 182 226 272 346 411
#     4  11  24  45  63  99 141 172 224 288 340 402
#     4  10  22  41  70 101 131 174 234 281 329 418
#     4  12  24  42  70 100 132 182 226 280 340 418
#     4  12  27  44  67 100 139 175 227 286 345 395
#
# _framework density 20.384726000000001
#
# number of rings (size 3 to 8) (size 9 to 14) (size 15 to 20)
#    0.000    1.091    3.636    2.182    5.091    4.364 
#    6.545    0.000    0.000    0.000    0.000    0.000 
#    0.000    0.000    0.000    0.000    0.000    0.000 
#
# Total GULP energy -245754.711314 kJ/mol
# GULP energy per Si atom -5585.334348 kJ/mol
# Density = 2.033833 g / cm^3
# Si number density = 20.384726 Si / 1000 Ang^3
#
#
#
# Elastic Constant Matrix: (Units=GPa)
#
#
# Indices 1 2 3 4 5 6 
#
# 1 150.2125 8.2220 31.6072 0.0000 0.0000 0.0000
# 2 8.2220 66.4593 20.8879 0.0000 0.0000 0.0000
# 3 31.6072 20.8879 132.3101 0.0000 0.0000 0.0000
# 4 0.0000 0.0000 0.0000 13.1212 0.0000 0.0000
# 5 0.0000 0.0000 0.0000 0.0000 33.8460 0.0000
# 6 0.0000 0.0000 0.0000 0.0000 0.0000 21.5432
#
#
#
# Elastic Compliance Matrix: (Units=1/GPa)
#
#
# Indices 1 2 3 4 5 6 
#
# 1 0.007018 -0.000359 -0.001620 0.000000 0.000000 0.000000
# 2 -0.000359 0.015851 -0.002417 0.000000 0.000000 0.000000
# 3 -0.001620 -0.002417 0.008326 0.000000 0.000000 0.000000
# 4 0.000000 0.000000 0.000000 0.076212 0.000000 0.000000
# 5 0.000000 0.000000 0.000000 0.000000 0.029546 0.000000
# 6 0.000000 0.000000 0.000000 0.000000 0.000000 0.046418
#
#
# Mechanical properties :
#
#
# Convention : Reuss Voigt Hill
#
# Bulk Modulus (GPa) = 44.63483 52.26846 48.45164
# Shear Modulus (GPa) = 25.04632 32.91973 28.98302
#
# Velocity S-wave (km/s) = 3.50906 4.02297 3.77477
# Velocity P-wave (km/s) = 6.19368 6.87573 6.54360
#
# Compressibility (1/GPa) = 0.02240403
#
# Stress axis : x y z
#
# Youngs Moduli (GPa) = 142.49655 63.08845 120.09929
#
# Poissons Ratio (x) = 0.02266 0.19453
# Poissons Ratio (y) = 0.05117 0.29023
# Poissons Ratio (z) = 0.23081 0.15246
#
# Static dielectric constant tensor:
#      x y z
#    x 1.724790 0.000000 0.000000 
#    y 0.000000 1.738260 0.000000 
#    z 0.000000 0.000000 1.769410 
# 
# From -- ./inp_files/10375.got.cif
#   From: 2010.05.17/outbox.cif.g08.bks.cpg/sg52_6_cif.got.tgz:10375.got - 2010.06.03 12:15:38.
