data_PCOD9411706
_publ_section_title
;
Structure prediction by ZEFSAII (Michael W. Deem and Ramdas Pophale) SiO2 
 PCOD9411706
Probable space group: P N N A
;
_chemical_formula_sum "Si O2"
_cell_formula_units_Z 48
_cell_length_a 15.775165
_cell_length_b 28.272820
_cell_length_c 5.191781
_cell_angle_alpha 90.000000
_cell_angle_beta 90.000000
_cell_angle_gamma 90.000000
_cell_volume 2315.577940
_symmetry_space_group_name_H-M "P N N A"
_symmetry_group_IT_number 52
_symmetry_cell_setting 'orthorhombic'
loop_
_space_group_symop_operation_xyz
x,y,z
1/2-x,-y,z
x,1/2-y,1/2-z
1/2-x,1/2+y,1/2-z
-x,-y,-z
1/2+x,y,-z
-x,1/2+y,1/2+z
1/2+x,1/2-y,1/2+z
loop_
_atom_site_type_symbol
_atom_site_label
_atom_site_fract_x
_atom_site_fract_y
_atom_site_fract_z
Si Si1 0.391636 0.046200 0.387303
Si Si2 0.972735 0.640659 0.670188
Si Si3 0.415490 0.941151 0.514623
Si Si4 0.677038 0.143808 0.215866
Si Si5 0.148364 0.604003 0.592614
Si Si6 0.909384 0.718340 0.002277
O O1 0.494065 0.050204 0.344871
O O2 0.365471 0.078186 0.631878
O O3 0.375714 0.991416 0.448754
O O4 0.347106 0.065439 0.132900
O O5 0.944067 0.588900 0.766601
O O6 0.897524 0.655973 0.483542
O O7 0.064298 0.635230 0.546369
O O8 0.974562 0.677132 0.909712
O O9 0.352709 0.905989 0.661125
O O10 0.768130 0.135507 0.097809
O O11 0.672037 0.186727 0.418134
O O12 0.934035 0.750000 0.250000
O O13 0.896163 0.750000 0.750000
#
# Coordination Sequence:
#
# PCOD9411706 Si02
#       6
#     8   8   8   8   8   8
#     4  10  22  40  61  92 132 171 229 261 305 372
#     4  10  22  43  67  91 130 165 212 264 326 380
#     4   9  21  38  64  90 128 181 214 269 315 362
#     4  11  23  42  66  95 132 172 215 267 333 386
#     4  11  25  40  63  97 130 174 214 265 313 382
#     4  11  23  43  72  95 120 167 210 265 335 400
#
# _framework density 20.729167
#
# number of rings (size 3 to 8) (size 9 to 14) (size 15 to 20)
#    0.000    1.667    3.333    0.000    7.000    2.667 
#    0.000    1.667    0.000    0.000    0.000    0.000 
#    0.000    0.000    0.000    0.000    0.000    0.000 
#
# Total GULP energy -267927.240053 kJ/mol
# GULP energy per Si atom -5581.817501 kJ/mol
# Density = 2.068199 g / cm^3
# Si number density = 20.729167 Si / 1000 Ang^3
#
#
#
# Elastic Constant Matrix: (Units=GPa)
#
#
# Indices 1 2 3 4 5 6 
#
# 1 64.2741 8.2679 23.7296 0.0000 0.0000 0.0000
# 2 8.2679 80.0529 23.1274 0.0000 0.0000 0.0000
# 3 23.7296 23.1274 89.0602 0.0000 0.0000 0.0000
# 4 0.0000 0.0000 0.0000 31.7799 0.0000 0.0000
# 5 0.0000 0.0000 0.0000 0.0000 18.9578 0.0000
# 6 0.0000 0.0000 0.0000 0.0000 0.0000 3.0529
#
#
#
# Elastic Compliance Matrix: (Units=1/GPa)
#
#
# Indices 1 2 3 4 5 6 
#
# 1 0.017274 -0.000491 -0.004475 0.000000 0.000000 0.000000
# 2 -0.000491 0.013519 -0.003380 0.000000 0.000000 0.000000
# 3 -0.004475 -0.003380 0.013298 0.000000 0.000000 0.000000
# 4 0.000000 0.000000 0.000000 0.031466 0.000000 0.000000
# 5 0.000000 0.000000 0.000000 0.000000 0.052749 0.000000
# 6 0.000000 0.000000 0.000000 0.000000 0.000000 0.327554
#
#
# Mechanical properties :
#
#
# Convention : Reuss Voigt Hill
#
# Bulk Modulus (GPa) = 36.49749 38.18188 37.33969
# Shear Modulus (GPa) = 10.38023 22.64228 16.51126
#
# Velocity S-wave (km/s) = 2.24018 3.30857 2.82534
# Velocity P-wave (km/s) = 4.93318 5.74934 5.35683
#
# Compressibility (1/GPa) = 0.02739914
#
# Stress axis : x y z
#
# Youngs Moduli (GPa) = 57.89166 73.97056 75.19746
#
# Poissons Ratio (x) = 0.03634 0.33650
# Poissons Ratio (y) = 0.02844 0.25415
# Poissons Ratio (z) = 0.25906 0.25000
#
# Static dielectric constant tensor:
#      x y z
#    x 1.749800 0.000000 0.000000 
#    y 0.000000 2.009320 0.000000 
#    z 0.000000 0.000000 1.809160 
# 
# From -- ./inp_files/2434.got.cif
#   From: 2010.05.17/outbox.cif.g08.bks.cpg/sg52_2_cif.got.tgz:2434.got - 2010.06.03 12:15:38.
