data_PCOD9411119
_publ_section_title
;
Structure prediction by ZEFSAII (Michael W. Deem and Ramdas Pophale) SiO2 
 PCOD9411119
Probable space group: P N N A
;
_chemical_formula_sum "Si O2"
_cell_formula_units_Z 40
_cell_length_a 5.636012
_cell_length_b 17.160800
_cell_length_c 17.558222
_cell_angle_alpha 90.000000
_cell_angle_beta 90.000000
_cell_angle_gamma 90.000000
_cell_volume 1698.204451
_symmetry_space_group_name_H-M "P N N A"
_symmetry_group_IT_number 52
_symmetry_cell_setting 'orthorhombic'
loop_
_space_group_symop_operation_xyz
x,y,z
1/2-x,-y,z
x,1/2-y,1/2-z
1/2-x,1/2+y,1/2-z
-x,-y,-z
1/2+x,y,-z
-x,1/2+y,1/2+z
1/2+x,1/2-y,1/2+z
loop_
_atom_site_type_symbol
_atom_site_label
_atom_site_fract_x
_atom_site_fract_y
_atom_site_fract_z
Si Si1 0.250000 0.500000 0.953914
Si Si2 0.365838 0.110803 0.982110
Si Si3 0.750000 0.000000 0.737627
Si Si4 0.101963 0.117036 0.663329
Si Si5 0.863217 0.412328 0.311884
Si Si6 0.387426 0.283407 0.038775
O O1 0.264020 0.423687 0.900321
O O2 0.500000 0.500000 0.000000
O O3 0.347687 0.128956 0.892325
O O4 0.619436 0.071792 0.995248
O O5 0.379524 0.190058 0.031206
O O6 0.629554 0.065957 0.789025
O O7 0.931845 0.045573 0.685565
O O8 0.242422 0.132359 0.741434
O O9 0.954499 0.184423 0.622034
O O10 0.750000 0.500000 0.319576
O O11 0.120958 0.307237 0.012101
#
# Coordination Sequence:
#
# PCOD9411119 Si02
#       6
#     4   8   4   8   8   8
#     4  12  23  34  58  97 136 172 210 270 339 404
#     4  10  24  46  70  96 137 179 237 285 337 411
#     4  10  21  40  64 101 142 170 226 276 353 406
#     4  11  22  39  64 100 139 178 227 280 344 416
#     4  10  23  41  69 100 139 181 228 290 352 413
#     4  10  23  43  67  92 136 182 228 280 334 408
#
# _framework density 23.554289000000001
#
# number of rings (size 3 to 8) (size 9 to 14) (size 15 to 20)
#    0.000    1.600    3.000    1.800    8.400    0.800 
#    0.000    4.000    0.000    0.000    0.000    0.000 
#    0.000    0.000    0.000    0.000    0.000    0.000 
#
# Total GULP energy -223284.563060 kJ/mol
# GULP energy per Si atom -5582.114077 kJ/mol
# Density = 2.350068 g / cm^3
# Si number density = 23.554289 Si / 1000 Ang^3
#
#
#
# Elastic Constant Matrix: (Units=GPa)
#
#
# Indices 1 2 3 4 5 6 
#
# 1 176.5728 17.3706 60.7842 0.0000 0.0000 0.0000
# 2 17.3706 72.9638 28.8652 0.0000 0.0000 0.0000
# 3 60.7842 28.8652 126.1830 0.0000 0.0000 0.0000
# 4 0.0000 0.0000 0.0000 49.9062 0.0000 0.0000
# 5 0.0000 0.0000 0.0000 0.0000 38.0052 0.0000
# 6 0.0000 0.0000 0.0000 0.0000 0.0000 35.3587
#
#
#
# Elastic Compliance Matrix: (Units=1/GPa)
#
#
# Indices 1 2 3 4 5 6 
#
# 1 0.006798 -0.000355 -0.003193 0.000000 0.000000 0.000000
# 2 -0.000355 0.015088 -0.003280 0.000000 0.000000 0.000000
# 3 -0.003193 -0.003280 0.010214 0.000000 0.000000 0.000000
# 4 0.000000 0.000000 0.000000 0.020038 0.000000 0.000000
# 5 0.000000 0.000000 0.000000 0.000000 0.026312 0.000000
# 6 0.000000 0.000000 0.000000 0.000000 0.000000 0.028282
#
#
# Mechanical properties :
#
#
# Convention : Reuss Voigt Hill
#
# Bulk Modulus (GPa) = 54.22536 65.52884 59.87710
# Shear Modulus (GPa) = 39.51479 42.56733 41.04106
#
# Velocity S-wave (km/s) = 4.10030 4.25573 4.17874
# Velocity P-wave (km/s) = 6.74448 7.21312 6.98273
#
# Compressibility (1/GPa) = 0.01844156
#
# Stress axis : x y z
#
# Youngs Moduli (GPa) = 147.11108 66.27915 97.90808
#
# Poissons Ratio (x) = 0.02353 0.31265
# Poissons Ratio (y) = 0.05223 0.32118
# Poissons Ratio (z) = 0.46977 0.21742
#
# Static dielectric constant tensor:
#      x y z
#    x 2.160790 0.000000 0.000000 
#    y 0.000000 1.902320 0.000000 
#    z 0.000000 0.000000 1.891690 
# 
# From -- ./inp_files/30214.got.cif
#   From: 2010.05.17/outbox.cif.g08.bks.cpg/sg52_16_cif.got.tgz:30214.got - 2010.06.03 12:15:38.
