data_PCOD9411027
_publ_section_title
;
Structure prediction by ZEFSAII (Michael W. Deem and Ramdas Pophale) SiO2 
 PCOD9411027
Probable space group: P N N A
;
_chemical_formula_sum "Si O2"
_cell_formula_units_Z 48
_cell_length_a 15.087273
_cell_length_b 9.393680
_cell_length_c 16.476913
_cell_angle_alpha 90.000000
_cell_angle_beta 90.000000
_cell_angle_gamma 90.000000
_cell_volume 2335.190736
_symmetry_space_group_name_H-M "P N N A"
_symmetry_group_IT_number 52
_symmetry_cell_setting 'orthorhombic'
loop_
_space_group_symop_operation_xyz
x,y,z
1/2-x,-y,z
x,1/2-y,1/2-z
1/2-x,1/2+y,1/2-z
-x,-y,-z
1/2+x,y,-z
-x,1/2+y,1/2+z
1/2+x,1/2-y,1/2+z
loop_
_atom_site_type_symbol
_atom_site_label
_atom_site_fract_x
_atom_site_fract_y
_atom_site_fract_z
Si Si1 0.628825 0.662758 0.880308
Si Si2 0.350857 0.037740 0.212491
Si Si3 0.962511 0.730905 0.465119
Si Si4 0.201813 0.849694 0.823275
Si Si5 0.736817 0.159352 0.470446
Si Si6 0.483196 0.430269 0.625478
O O1 0.633726 0.811278 0.831539
O O2 0.637001 0.547255 0.809388
O O3 0.534003 0.663406 0.924929
O O4 0.707414 0.660631 0.945961
O O5 0.250000 0.000000 0.194735
O O6 0.424669 0.938136 0.173188
O O7 0.866714 0.800884 0.478749
O O8 0.957140 0.588335 0.408610
O O9 0.002788 0.671483 0.548578
O O10 0.231942 0.750000 0.750000
O O11 0.097151 0.877392 0.820168
O O12 0.250000 0.000000 0.819884
O O13 0.223017 0.773121 0.908206
O O14 0.750000 0.000000 0.436646
#
# Coordination Sequence:
#
# PCOD9411027 Si02
#       6
#     8   8   8   8   8   8
#     4  10  22  40  63  97 137 172 229 281 341 415
#     4  10  21  39  65  98 132 176 224 283 346 407
#     4  10  21  41  72  98 128 182 234 281 345 415
#     4  12  26  47  69 100 134 178 237 285 343 414
#     4  12  25  43  67  98 140 184 223 287 356 418
#     4  10  21  43  71  99 130 177 234 286 340 418
#
# _framework density 20.555066
#
# number of rings (size 3 to 8) (size 9 to 14) (size 15 to 20)
#    0.000    1.333    3.333    2.000    0.000    4.000 
#    9.000    0.000    0.000    0.000    0.000    0.000 
#    0.000    0.000    0.000    0.000    0.000    0.000 
#
# Total GULP energy -268285.189442 kJ/mol
# GULP energy per Si atom -5589.274780 kJ/mol
# Density = 2.050828 g / cm^3
# Si number density = 20.555066 Si / 1000 Ang^3
#
#
#
# Elastic Constant Matrix: (Units=GPa)
#
#
# Indices 1 2 3 4 5 6 
#
# 1 142.8124 21.4440 29.2746 0.0000 0.0000 0.0000
# 2 21.4440 66.0147 21.1630 0.0000 0.0000 0.0000
# 3 29.2746 21.1630 96.6169 0.0000 0.0000 0.0000
# 4 0.0000 0.0000 0.0000 13.8593 0.0000 0.0000
# 5 0.0000 0.0000 0.0000 0.0000 -26.6292 0.0000
# 6 0.0000 0.0000 0.0000 0.0000 0.0000 19.4121
#
#
#
# Elastic Compliance Matrix: (Units=1/GPa)
#
#
# Indices 1 2 3 4 5 6 
#
# 1 0.007677 -0.001880 -0.001914 0.000000 0.000000 0.000000
# 2 -0.001880 0.016753 -0.003100 0.000000 0.000000 0.000000
# 3 -0.001914 -0.003100 0.011609 0.000000 0.000000 0.000000
# 4 0.000000 0.000000 0.000000 0.072154 0.000000 0.000000
# 5 0.000000 0.000000 0.000000 0.000000 -0.037553 0.000000
# 6 0.000000 0.000000 0.000000 0.000000 0.000000 0.051514
#
#
# Mechanical properties :
#
#
# Convention : Reuss Voigt Hill
#
# Bulk Modulus (GPa) = 44.94317 49.91191 47.42754
# Shear Modulus (GPa) = 34.87741 16.89926 25.88833
#
# Velocity S-wave (km/s) = 4.12367 2.87042 3.55274
# Velocity P-wave (km/s) = 6.67721 5.94311 6.32082
#
# Compressibility (1/GPa) = 0.02225032
#
# Stress axis : x y z
#
# Youngs Moduli (GPa) = 130.26108 59.69227 86.13888
#
# Poissons Ratio (x) = 0.11223 0.16489
# Poissons Ratio (y) = 0.24490 0.26702
# Poissons Ratio (z) = 0.24935 0.18504
#
# Static dielectric constant tensor:
#      x y z
#    x 1.709080 0.000000 0.000000 
#    y 0.000000 1.732240 0.000000 
#    z 0.000000 0.000000 1.713610 
# 
# From -- ./inp_files/33067.got.cif
#   From: 2010.05.17/outbox.cif.g08.bks.cpg/sg52_17_cif.got.tgz:33067.got - 2010.06.03 12:15:38.
