data_PCOD9411498
_publ_section_title
;
Structure prediction by ZEFSAII (Michael W. Deem and Ramdas Pophale) SiO2 
 PCOD9411498
Probable space group: P N N A
;
_chemical_formula_sum "Si O2"
_cell_formula_units_Z 64
_cell_length_a 9.509455
_cell_length_b 9.480837
_cell_length_c 32.685392
_cell_angle_alpha 90.000000
_cell_angle_beta 90.000000
_cell_angle_gamma 90.000000
_cell_volume 2946.836263
_symmetry_space_group_name_H-M "P N N A"
_symmetry_group_IT_number 52
_symmetry_cell_setting 'orthorhombic'
loop_
_space_group_symop_operation_xyz
x,y,z
1/2-x,-y,z
x,1/2-y,1/2-z
1/2-x,1/2+y,1/2-z
-x,-y,-z
1/2+x,y,-z
-x,1/2+y,1/2+z
1/2+x,1/2-y,1/2+z
loop_
_atom_site_type_symbol
_atom_site_label
_atom_site_fract_x
_atom_site_fract_y
_atom_site_fract_z
Si Si1 0.270428 0.335327 0.033473
Si Si2 0.492946 0.758613 0.599026
Si Si3 0.501764 0.509094 0.150871
Si Si4 0.008136 0.755538 0.796903
Si Si5 0.803660 0.357386 0.782474
Si Si6 0.906329 0.991433 0.849685
Si Si7 0.544195 0.254284 0.589197
Si Si8 0.232779 0.835344 0.952968
O O1 0.250000 0.500000 0.025089
O O2 0.373816 0.310055 0.072082
O O3 0.121027 0.273580 0.047118
O O4 0.310773 0.251808 0.992925
O O5 0.426711 0.889020 0.624123
O O6 0.536468 0.636618 0.631320
O O7 0.380788 0.708100 0.566173
O O8 0.578779 0.625054 0.179075
O O9 0.397655 0.418342 0.180536
O O10 0.435498 0.615711 0.117252
O O11 0.052127 0.750000 0.750000
O O12 0.840488 0.715654 0.797562
O O13 0.011367 0.906603 0.819204
O O14 0.750000 0.500000 0.760655
O O15 0.872005 0.250000 0.750000
O O16 0.887738 0.884961 0.887589
O O17 0.750000 0.000000 0.831482
O O18 0.384575 0.298983 0.580997
O O19 0.250000 0.000000 0.962423
#
# Coordination Sequence:
#
# PCOD9411498 Si02
#       8
#     8   8   8   8   8   8   8   8
#     4  12  27  44  71  99 131 170 216 280 338 395
#     4  12  25  41  67  98 130 175 224 273 325 393
#     4  10  22  36  60  89 131 173 212 260 318 395
#     4   9  20  35  56  92 141 176 205 266 338 389
#     4   9  18  31  53  88 136 173 204 259 326 392
#     4  11  21  36  64  97 125 177 218 264 328 390
#     4  11  24  44  66  91 135 176 214 272 330 387
#     4  12  29  47  65  95 133 170 230 278 328 393
#
# _framework density 21.718207
#
# number of rings (size 3 to 8) (size 9 to 14) (size 15 to 20)
#    0.000    1.250    3.750    1.500    8.750    9.000 
#    0.000    0.000    0.000    0.000    0.000   21.875 
#    0.000    0.000    0.000    0.000    0.000    0.000 
#
# Total GULP energy -357143.757704 kJ/mol
# GULP energy per Si atom -5580.371214 kJ/mol
# Density = 2.166878 g / cm^3
# Si number density = 21.718207 Si / 1000 Ang^3
#
#
#
# Elastic Constant Matrix: (Units=GPa)
#
#
# Indices 1 2 3 4 5 6 
#
# 1 35.0598 14.8976 3.1362 0.0000 0.0000 0.0000
# 2 14.8976 166.7870 63.3815 0.0000 0.0000 0.0000
# 3 3.1362 63.3815 110.2055 0.0000 0.0000 0.0000
# 4 0.0000 0.0000 0.0000 44.4994 0.0000 0.0000
# 5 0.0000 0.0000 0.0000 0.0000 3.7354 0.0000
# 6 0.0000 0.0000 0.0000 0.0000 0.0000 9.1209
#
#
#
# Elastic Compliance Matrix: (Units=1/GPa)
#
#
# Indices 1 2 3 4 5 6 
#
# 1 0.029713 -0.002985 0.000871 0.000000 0.000000 0.000000
# 2 -0.002985 0.007972 -0.004500 0.000000 0.000000 0.000000
# 3 0.000871 -0.004500 0.011637 0.000000 0.000000 0.000000
# 4 0.000000 0.000000 0.000000 0.022472 0.000000 0.000000
# 5 0.000000 0.000000 0.000000 0.000000 0.267705 0.000000
# 6 0.000000 0.000000 0.000000 0.000000 0.000000 0.109639
#
#
# Mechanical properties :
#
#
# Convention : Reuss Voigt Hill
#
# Bulk Modulus (GPa) = 27.70479 52.76476 40.23478
# Shear Modulus (GPa) = 10.53965 26.84694 18.69330
#
# Velocity S-wave (km/s) = 2.20532 3.51971 2.93699
# Velocity P-wave (km/s) = 4.38962 6.39263 5.48336
#
# Compressibility (1/GPa) = 0.03609484
#
# Stress axis : x y z
#
# Youngs Moduli (GPa) = 33.65510 125.43239 85.93062
#
# Poissons Ratio (x) = 0.37443 -0.07486
# Poissons Ratio (y) = 0.10046 0.38670
# Poissons Ratio (z) = -0.02932 0.56447
#
# Static dielectric constant tensor:
#      x y z
#    x 1.778800 0.000000 0.000000 
#    y 0.000000 1.958140 0.000000 
#    z 0.000000 0.000000 1.812940 
# 
# From -- ./inp_files/44842.got.cif
#   From: 2010.05.17/outbox.cif.g08.bks.cpg/sg52_23_cif.got.tgz:44842.got - 2010.06.03 12:15:38.
