data_PCOD9411796
_publ_section_title
;
Structure prediction by ZEFSAII (Michael W. Deem and Ramdas Pophale) SiO2 
 PCOD9411796
Probable space group: P N N A
;
_chemical_formula_sum "Si O2"
_cell_formula_units_Z 48
_cell_length_a 8.812702
_cell_length_b 19.621158
_cell_length_c 10.644511
_cell_angle_alpha 90.000000
_cell_angle_beta 90.000000
_cell_angle_gamma 90.000000
_cell_volume 1840.600073
_symmetry_space_group_name_H-M "P N N A"
_symmetry_group_IT_number 52
_symmetry_cell_setting 'orthorhombic'
loop_
_space_group_symop_operation_xyz
x,y,z
1/2-x,-y,z
x,1/2-y,1/2-z
1/2-x,1/2+y,1/2-z
-x,-y,-z
1/2+x,y,-z
-x,1/2+y,1/2+z
1/2+x,1/2-y,1/2+z
loop_
_atom_site_type_symbol
_atom_site_label
_atom_site_fract_x
_atom_site_fract_y
_atom_site_fract_z
Si Si1 0.997583 0.471897 0.827011
Si Si2 0.026172 0.250000 0.750000
Si Si3 0.519703 0.862707 0.323665
Si Si4 0.696144 0.809714 0.567001
Si Si5 0.750000 0.500000 0.991095
Si Si6 0.775859 0.322960 0.417525
Si Si7 0.886338 0.546108 0.422114
O O1 0.997878 0.554976 0.811384
O O2 0.134777 0.459948 0.921792
O O3 0.018700 0.434610 0.698626
O O4 0.845984 0.453412 0.898589
O O5 0.928177 0.193584 0.676530
O O6 0.138985 0.287537 0.655384
O O7 0.639467 0.844595 0.435465
O O8 0.361010 0.829539 0.373812
O O9 0.593636 0.838395 0.189086
O O10 0.686215 0.729856 0.525133
O O11 0.704069 0.391078 0.478672
O O12 0.750000 0.500000 0.369661
O O13 0.000000 0.500000 0.500000
#
# Coordination Sequence:
#
# PCOD9411796 Si02
#       7
#     8   4   8   8   4   8   8
#     4  11  23  45  72 108 145 195 247 311 381 452
#     4  12  28  44  72 110 144 198 248 306 386 444
#     4  12  23  46  77 104 153 189 253 312 388 449
#     4  12  27  44  74 114 146 201 246 316 383 447
#     4  10  22  40  70 104 144 190 244 306 376 440
#     4  12  26  52  74 106 154 192 255 319 364 469
#     4  12  29  50  75 109 149 203 252 306 382 456
#
# _framework density 26.07845
#
# number of rings (size 3 to 8) (size 9 to 14) (size 15 to 20)
#    0.000    0.333    5.833    1.000    5.833    6.667 
#    0.000    0.000    0.000    0.000    0.000    0.000 
#    0.000    0.000    0.000    0.000    0.000    0.000 
#
# Total GULP energy -268685.026290 kJ/mol
# GULP energy per Si atom -5597.604714 kJ/mol
# Density = 2.601909 g / cm^3
# Si number density = 26.078450 Si / 1000 Ang^3
#
#
#
# Elastic Constant Matrix: (Units=GPa)
#
#
# Indices 1 2 3 4 5 6 
#
# 1 153.5663 12.3927 53.9985 0.0000 0.0000 0.0000
# 2 12.3927 103.2925 11.3691 0.0000 0.0000 0.0000
# 3 53.9985 11.3691 84.7354 0.0000 0.0000 0.0000
# 4 0.0000 0.0000 0.0000 40.6687 0.0000 0.0000
# 5 0.0000 0.0000 0.0000 0.0000 43.6181 0.0000
# 6 0.0000 0.0000 0.0000 0.0000 0.0000 43.3715
#
#
#
# Elastic Compliance Matrix: (Units=1/GPa)
#
#
# Indices 1 2 3 4 5 6 
#
# 1 0.008411 -0.000425 -0.005303 0.000000 0.000000 0.000000
# 2 -0.000425 0.009848 -0.001050 0.000000 0.000000 0.000000
# 3 -0.005303 -0.001050 0.015322 0.000000 0.000000 0.000000
# 4 0.000000 0.000000 0.000000 0.024589 0.000000 0.000000
# 5 0.000000 0.000000 0.000000 0.000000 0.022926 0.000000
# 6 0.000000 0.000000 0.000000 0.000000 0.000000 0.023057
#
#
# Mechanical properties :
#
#
# Convention : Reuss Voigt Hill
#
# Bulk Modulus (GPa) = 49.94146 55.23499 52.58823
# Shear Modulus (GPa) = 40.19829 43.12059 41.65944
#
# Velocity S-wave (km/s) = 3.93037 4.07073 4.00117
# Velocity P-wave (km/s) = 6.30786 6.58185 6.44631
#
# Compressibility (1/GPa) = 0.02002344
#
# Stress axis : x y z
#
# Youngs Moduli (GPa) = 118.89482 101.54466 65.26732
#
# Poissons Ratio (x) = 0.04320 0.34610
# Poissons Ratio (y) = 0.05058 0.06854
# Poissons Ratio (z) = 0.63047 0.10664
#
# Static dielectric constant tensor:
#      x y z
#    x 2.028030 0.000000 0.000000 
#    y 0.000000 2.330470 0.000000 
#    z 0.000000 0.000000 2.016900 
# 
# From -- ./inp_files/16996.got.cif
#   From: 2010.05.17/outbox.cif.g08.bks.cpg/sg52_9_cif.got.tgz:16996.got - 2010.06.03 12:15:38.
