data_PCOD9411137
_publ_section_title
;
Structure prediction by ZEFSAII (Michael W. Deem and Ramdas Pophale) SiO2 
 PCOD9411137
Probable space group: P N N A
;
_chemical_formula_sum "Si O2"
_cell_formula_units_Z 44
_cell_length_a 14.954727
_cell_length_b 16.858832
_cell_length_c 8.159962
_cell_angle_alpha 90.000000
_cell_angle_beta 90.000000
_cell_angle_gamma 90.000000
_cell_volume 2057.283337
_symmetry_space_group_name_H-M "P N N A"
_symmetry_group_IT_number 52
_symmetry_cell_setting 'orthorhombic'
loop_
_space_group_symop_operation_xyz
x,y,z
1/2-x,-y,z
x,1/2-y,1/2-z
1/2-x,1/2+y,1/2-z
-x,-y,-z
1/2+x,y,-z
-x,1/2+y,1/2+z
1/2+x,1/2-y,1/2+z
loop_
_atom_site_type_symbol
_atom_site_label
_atom_site_fract_x
_atom_site_fract_y
_atom_site_fract_z
Si Si1 0.721706 0.750000 0.750000
Si Si2 0.128897 0.136794 0.339938
Si Si3 0.570412 0.850858 0.340670
Si Si4 0.162518 0.807403 0.952794
Si Si5 0.817690 0.925342 0.019609
Si Si6 0.855489 0.981962 0.359499
O O1 0.790481 0.800912 0.642634
O O2 0.660253 0.691705 0.647502
O O3 0.134771 0.075821 0.488099
O O4 0.031112 0.174517 0.361492
O O5 0.139686 0.099106 0.156257
O O6 0.590598 0.856065 0.147063
O O7 0.639028 0.783815 0.405603
O O8 0.592097 0.937744 0.403652
O O9 0.257303 0.850006 0.919492
O O10 0.878323 0.948496 0.177117
O O11 0.750000 0.000000 0.988832
O O12 0.750000 0.000000 0.345100
#
# Coordination Sequence:
#
# PCOD9411137 Si02
#       6
#     4   8   8   8   8   8
#     4  10  22  40  64  94 114 178 220 264 326 390
#     4  11  24  40  64  96 131 160 216 274 328 380
#     4  11  22  40  63  92 132 167 204 279 329 378
#     4  10  21  40  65  86 128 167 218 262 316 393
#     4  10  21  42  65  96 122 170 220 264 313 389
#     4  11  21  41  66  95 124 176 217 253 329 396
#
# _framework density 21.387428
#
# number of rings (size 3 to 8) (size 9 to 14) (size 15 to 20)
#    0.000    1.455    3.636    3.273    2.545    2.182 
#    3.273    0.000    0.000    0.000    0.000    0.000 
#    0.000    0.000    0.000    0.000    0.000    0.000 
#
# Total GULP energy -245010.244438 kJ/mol
# GULP energy per Si atom -5568.414646 kJ/mol
# Density = 2.133875 g / cm^3
# Si number density = 21.387428 Si / 1000 Ang^3
#
#
#
# Elastic Constant Matrix: (Units=GPa)
#
#
# Indices 1 2 3 4 5 6 
#
# 1 48.8243 12.9744 24.0913 0.0000 0.0000 0.0000
# 2 12.9744 110.9831 38.6746 0.0000 0.0000 0.0000
# 3 24.0913 38.6746 72.5187 0.0000 0.0000 0.0000
# 4 0.0000 0.0000 0.0000 49.8535 0.0000 0.0000
# 5 0.0000 0.0000 0.0000 0.0000 -320.9366 0.0000
# 6 0.0000 0.0000 0.0000 0.0000 0.0000 -8.3445
#
#
#
# Elastic Compliance Matrix: (Units=1/GPa)
#
#
# Indices 1 2 3 4 5 6 
#
# 1 0.024497 -0.000034 -0.008120 0.000000 0.000000 0.000000
# 2 -0.000034 0.011067 -0.005891 0.000000 0.000000 0.000000
# 3 -0.008120 -0.005891 0.019629 0.000000 0.000000 0.000000
# 4 0.000000 0.000000 0.000000 0.020059 0.000000 0.000000
# 5 0.000000 0.000000 0.000000 0.000000 -0.003116 0.000000
# 6 0.000000 0.000000 0.000000 0.000000 0.000000 -0.119840
#
#
# Mechanical properties :
#
#
# Convention : Reuss Voigt Hill
#
# Bulk Modulus (GPa) = 36.89609 42.64518 39.77064
# Shear Modulus (GPa) = -472.60615 -45.44645 -259.02630
#
# Velocity S-wave (km/s) = -14.88131 -4.61468 -11.01700
# Velocity P-wave (km/s) = 16.67281 2.90018 11.96649
#
# Compressibility (1/GPa) = 0.02710314
#
# Stress axis : x y z
#
# Youngs Moduli (GPa) = 40.82085 90.35741 50.94597
#
# Poissons Ratio (x) = 0.00310 0.41368
# Poissons Ratio (y) = 0.00140 0.30011
# Poissons Ratio (z) = 0.33146 0.53228
#
# Static dielectric constant tensor:
#      x y z
#    x 1.767230 0.000000 0.000000 
#    y 0.000000 1.855450 0.000000 
#    z 0.000000 0.000000 1.901400 
# 
# From -- ./inp_files/10355.got.cif
#   From: 2010.05.17/outbox.cif.g08.bks.cpg/sg52_6_cif.got.tgz:10355.got - 2010.06.03 12:15:38.
