data_PCOD9411783
_publ_section_title
;
Structure prediction by ZEFSAII (Michael W. Deem and Ramdas Pophale) SiO2 
 PCOD9411783
Probable space group: P N N A
;
_chemical_formula_sum "Si O2"
_cell_formula_units_Z 40
_cell_length_a 7.798110
_cell_length_b 13.499221
_cell_length_c 17.540259
_cell_angle_alpha 90.000000
_cell_angle_beta 90.000000
_cell_angle_gamma 90.000000
_cell_volume 1846.435181
_symmetry_space_group_name_H-M "P N N A"
_symmetry_group_IT_number 52
_symmetry_cell_setting 'orthorhombic'
loop_
_space_group_symop_operation_xyz
x,y,z
1/2-x,-y,z
x,1/2-y,1/2-z
1/2-x,1/2+y,1/2-z
-x,-y,-z
1/2+x,y,-z
-x,1/2+y,1/2+z
1/2+x,1/2-y,1/2+z
loop_
_atom_site_type_symbol
_atom_site_label
_atom_site_fract_x
_atom_site_fract_y
_atom_site_fract_z
Si Si1 0.750000 0.500000 0.652229
Si Si2 0.948571 0.892923 0.965560
Si Si3 0.947003 0.039276 0.261727
Si Si4 0.250285 0.732745 0.583490
Si Si5 0.577344 0.556859 0.071617
Si Si6 0.799512 0.250000 0.250000
O O1 0.794754 0.589461 0.594372
O O2 0.581519 0.511089 0.704628
O O3 0.112002 0.854894 0.919912
O O4 0.894814 0.810529 0.027707
O O5 0.000000 0.000000 0.000000
O O6 0.019762 0.039619 0.348594
O O7 0.920975 0.155235 0.247020
O O8 0.750000 0.000000 0.253477
O O9 0.143320 0.830868 0.558591
O O10 0.304954 0.752907 0.670774
O O11 0.750000 0.500000 0.088365
O O12 0.500000 0.500000 0.000000
#
# Coordination Sequence:
#
# PCOD9411783 Si02
#       6
#     4   8   8   8   8   4
#     4  12  24  42  68 102 134 186 222 282 364 402
#     4  12  24  41  67 101 135 175 222 285 352 426
#     4  10  24  43  66  98 137 177 229 282 342 412
#     4  11  23  41  66  95 135 174 224 279 345 412
#     4  10  22  43  67  94 130 182 229 284 340 397
#     4  10  22  40  68  90 134 180 214 284 332 400
#
# _framework density 21.663364999999999
#
# number of rings (size 3 to 8) (size 9 to 14) (size 15 to 20)
#    0.000    1.200    4.000    1.200    4.200    0.000 
#    0.000    1.000    0.000    0.000    0.000    0.000 
#    0.000    0.000    0.000    0.000    0.000    0.000 
#
# Total GULP energy -222904.953657 kJ/mol
# GULP energy per Si atom -5572.623841 kJ/mol
# Density = 2.161406 g / cm^3
# Si number density = 21.663365 Si / 1000 Ang^3
#
#
#
# Elastic Constant Matrix: (Units=GPa)
#
#
# Indices 1 2 3 4 5 6 
#
# 1 71.8060 17.5701 39.7854 0.0000 0.0000 0.0000
# 2 17.5701 111.5283 39.4677 0.0000 0.0000 0.0000
# 3 39.7854 39.4677 177.7659 0.0000 0.0000 0.0000
# 4 0.0000 0.0000 0.0000 -6.1766 0.0000 0.0000
# 5 0.0000 0.0000 0.0000 0.0000 36.6818 0.0000
# 6 0.0000 0.0000 0.0000 0.0000 0.0000 25.3509
#
#
#
# Elastic Compliance Matrix: (Units=1/GPa)
#
#
# Indices 1 2 3 4 5 6 
#
# 1 0.016088 -0.001368 -0.003297 0.000000 0.000000 0.000000
# 2 -0.001368 0.009847 -0.001880 0.000000 0.000000 0.000000
# 3 -0.003297 -0.001880 0.006781 0.000000 0.000000 0.000000
# 4 0.000000 0.000000 0.000000 -0.161902 0.000000 0.000000
# 5 0.000000 0.000000 0.000000 0.000000 0.027261 0.000000
# 6 0.000000 0.000000 0.000000 0.000000 0.000000 0.039446
#
#
# Mechanical properties :
#
#
# Convention : Reuss Voigt Hill
#
# Bulk Modulus (GPa) = 50.95278 61.63851 56.29564
# Shear Modulus (GPa) = -116.69433 28.78969 -43.95232
#
# Velocity S-wave (km/s) = -7.34739 3.64944 -4.50919
# Velocity P-wave (km/s) = 6.95755 6.80239 1.03318
#
# Compressibility (1/GPa) = 0.01962602
#
# Stress axis : x y z
#
# Youngs Moduli (GPa) = 62.15891 101.55210 147.47773
#
# Poissons Ratio (x) = 0.13890 0.48622
# Poissons Ratio (y) = 0.08502 0.27728
# Poissons Ratio (z) = 0.20493 0.19093
#
# Static dielectric constant tensor:
#      x y z
#    x 1.771700 0.000000 0.000000 
#    y 0.000000 1.747360 0.000000 
#    z 0.000000 0.000000 2.302380 
# 
# From -- ./inp_files/24467.got.cif
#   From: 2010.05.17/outbox.cif.g08.bks.cpg/sg52_13_cif.got.tgz:24467.got - 2010.06.03 12:15:38.
