data_PCOD9411497
_publ_section_title
;
Structure prediction by ZEFSAII (Michael W. Deem and Ramdas Pophale) SiO2 
 PCOD9411497
Probable space group: P N N A
;
_chemical_formula_sum "Si O2"
_cell_formula_units_Z 48
_cell_length_a 9.141182
_cell_length_b 24.142559
_cell_length_c 10.199372
_cell_angle_alpha 90.000000
_cell_angle_beta 90.000000
_cell_angle_gamma 90.000000
_cell_volume 2250.914969
_symmetry_space_group_name_H-M "P N N A"
_symmetry_group_IT_number 52
_symmetry_cell_setting 'orthorhombic'
loop_
_space_group_symop_operation_xyz
x,y,z
1/2-x,-y,z
x,1/2-y,1/2-z
1/2-x,1/2+y,1/2-z
-x,-y,-z
1/2+x,y,-z
-x,1/2+y,1/2+z
1/2+x,1/2-y,1/2+z
loop_
_atom_site_type_symbol
_atom_site_label
_atom_site_fract_x
_atom_site_fract_y
_atom_site_fract_z
Si Si1 0.897079 0.847905 0.911382
Si Si2 0.484701 0.673670 0.124784
Si Si3 0.003073 0.077068 0.587262
Si Si4 0.265499 0.734788 0.974583
Si Si5 0.519236 0.250000 0.250000
Si Si6 0.910552 0.136714 0.846714
Si Si7 0.750000 0.500000 0.003988
O O1 0.989212 0.832404 0.781373
O O2 0.757065 0.881687 0.861029
O O3 0.815794 0.796234 0.984566
O O4 0.000681 0.874098 0.020236
O O5 0.603668 0.718314 0.071443
O O6 0.506371 0.618237 0.038847
O O7 0.322032 0.695646 0.091127
O O8 0.983481 0.109299 0.721482
O O9 0.871466 0.033249 0.576771
O O10 0.156348 0.044872 0.583759
O O11 0.372059 0.721308 0.852896
O O12 0.424075 0.203007 0.181068
#
# Coordination Sequence:
#
# PCOD9411497 Si02
#       7
#     8   8   8   8   4   8   4
#     4  11  26  38  61  95 140 180 223 263 318 403
#     4  12  24  39  65  94 128 182 223 272 332 391
#     4  11  23  44  72  95 129 164 224 291 343 399
#     4  11  23  36  59  90 138 182 226 256 310 384
#     4  10  22  36  58  92 134 176 224 256 308 400
#     4  11  24  43  62  95 137 181 216 277 330 404
#     4  10  24  44  72 104 118 162 234 298 344 394
#
# _framework density 21.324662
#
# number of rings (size 3 to 8) (size 9 to 14) (size 15 to 20)
#    0.000    1.000    1.667    5.500    9.333    0.000 
#    0.000    0.000    0.000   17.000    0.000    0.000 
#    0.000    0.000    0.000    0.000    0.000    0.000 
#
# Total GULP energy -268301.772383 kJ/mol
# GULP energy per Si atom -5589.620258 kJ/mol
# Density = 2.127613 g / cm^3
# Si number density = 21.324662 Si / 1000 Ang^3
#
#
#
# Elastic Constant Matrix: (Units=GPa)
#
#
# Indices 1 2 3 4 5 6 
#
# 1 96.9525 3.4941 34.3019 0.0000 0.0000 0.0000
# 2 3.4941 34.2376 10.8076 0.0000 0.0000 0.0000
# 3 34.3019 10.8076 120.3750 0.0000 0.0000 0.0000
# 4 0.0000 0.0000 0.0000 14.5830 0.0000 0.0000
# 5 0.0000 0.0000 0.0000 0.0000 37.2196 0.0000
# 6 0.0000 0.0000 0.0000 0.0000 0.0000 23.9936
#
#
#
# Elastic Compliance Matrix: (Units=1/GPa)
#
#
# Indices 1 2 3 4 5 6 
#
# 1 0.011471 -0.000143 -0.003256 0.000000 0.000000 0.000000
# 2 -0.000143 0.030061 -0.002658 0.000000 0.000000 0.000000
# 3 -0.003256 -0.002658 0.009474 0.000000 0.000000 0.000000
# 4 0.000000 0.000000 0.000000 0.068573 0.000000 0.000000
# 5 0.000000 0.000000 0.000000 0.000000 0.026868 0.000000
# 6 0.000000 0.000000 0.000000 0.000000 0.000000 0.041678
#
#
# Mechanical properties :
#
#
# Convention : Reuss Voigt Hill
#
# Bulk Modulus (GPa) = 25.71207 38.75251 32.23229
# Shear Modulus (GPa) = 23.45177 28.69002 26.07089
#
# Velocity S-wave (km/s) = 3.31984 3.67194 3.50032
# Velocity P-wave (km/s) = 5.17482 6.01578 5.61108
#
# Compressibility (1/GPa) = 0.03889224
#
# Stress axis : x y z
#
# Youngs Moduli (GPa) = 87.17271 33.26528 105.55331
#
# Poissons Ratio (x) = 0.00475 0.34369
# Poissons Ratio (y) = 0.01246 0.28059
# Poissons Ratio (z) = 0.28384 0.08843
#
# Static dielectric constant tensor:
#      x y z
#    x 1.800570 0.000000 0.000000 
#    y 0.000000 1.804860 0.000000 
#    z 0.000000 0.000000 1.813310 
# 
# From -- ./inp_files/7732.got.cif
#   From: 2010.05.17/outbox.cif.g08.bks.cpg/sg52_4_cif.got.tgz:7732.got - 2010.06.03 12:15:38.
