data_PCOD9411825
_publ_section_title
;
Structure prediction by ZEFSAII (Michael W. Deem and Ramdas Pophale) SiO2 
 PCOD9411825
Probable space group: P N N A
;
_chemical_formula_sum "Si O2"
_cell_formula_units_Z 28
_cell_length_a 15.256912
_cell_length_b 11.089880
_cell_length_c 7.790805
_cell_angle_alpha 90.000000
_cell_angle_beta 90.000000
_cell_angle_gamma 90.000000
_cell_volume 1318.183352
_symmetry_space_group_name_H-M "P N N A"
_symmetry_group_IT_number 52
_symmetry_cell_setting 'orthorhombic'
loop_
_space_group_symop_operation_xyz
x,y,z
1/2-x,-y,z
x,1/2-y,1/2-z
1/2-x,1/2+y,1/2-z
-x,-y,-z
1/2+x,y,-z
-x,1/2+y,1/2+z
1/2+x,1/2-y,1/2+z
loop_
_atom_site_type_symbol
_atom_site_label
_atom_site_fract_x
_atom_site_fract_y
_atom_site_fract_z
Si Si1 0.602615 0.821486 0.032663
Si Si2 0.163563 0.921428 0.625292
Si Si3 0.644065 0.000830 0.733978
Si Si4 0.551330 0.250000 0.750000
O O1 0.615397 0.912546 0.192968
O O2 0.676208 0.717259 0.058351
O O3 0.513474 0.752140 0.083835
O O4 0.608716 0.895934 0.859183
O O5 0.250000 0.000000 0.652249
O O6 0.116417 0.979010 0.462349
O O7 0.608833 0.132088 0.776809
O O8 0.750000 0.000000 0.743226
#
# Coordination Sequence:
#
# PCOD9411825 Si02
#       4
#     8   8   8   4
#     4  10  22  41  63  89 135 163 208 268 319 375
#     4   9  20  37  61  92 123 161 214 255 313 379
#     4  11  23  39  68  91 128 169 212 262 315 375
#     4  10  24  42  62  98 126 166 220 256 318 392
#
# _framework density 21.241356
#
# number of rings (size 3 to 8) (size 9 to 14) (size 15 to 20)
#    0.000    2.286    0.000    2.571    8.000    4.571 
#    0.000    5.714    0.000    0.000    0.000    0.000 
#    0.000    0.000    0.000    0.000    0.000    0.000 
#
# Total GULP energy -156034.230064 kJ/mol
# GULP energy per Si atom -5572.651074 kJ/mol
# Density = 2.119301 g / cm^3
# Si number density = 21.241356 Si / 1000 Ang^3
#
#
#
# Elastic Constant Matrix: (Units=GPa)
#
#
# Indices 1 2 3 4 5 6 
#
# 1 85.5874 47.8505 5.9974 0.0000 0.0000 0.0000
# 2 47.8505 88.5655 -18.3682 0.0000 0.0000 0.0000
# 3 5.9974 -18.3682 34.0250 0.0000 0.0000 0.0000
# 4 0.0000 0.0000 0.0000 234.6941 0.0000 0.0000
# 5 0.0000 0.0000 0.0000 0.0000 64.4155 0.0000
# 6 0.0000 0.0000 0.0000 0.0000 0.0000 46.0067
#
#
#
# Elastic Compliance Matrix: (Units=1/GPa)
#
#
# Indices 1 2 3 4 5 6 
#
# 1 0.019476 -0.012651 -0.010262 0.000000 0.000000 0.000000
# 2 -0.012651 0.020932 0.013530 0.000000 0.000000 0.000000
# 3 -0.010262 0.013530 0.038503 0.000000 0.000000 0.000000
# 4 0.000000 0.000000 0.000000 0.004261 0.000000 0.000000
# 5 0.000000 0.000000 0.000000 0.000000 0.015524 0.000000
# 6 0.000000 0.000000 0.000000 0.000000 0.000000 0.021736
#
#
# Mechanical properties :
#
#
# Convention : Reuss Voigt Hill
#
# Bulk Modulus (GPa) = 16.62655 31.01525 23.82090
# Shear Modulus (GPa) = 31.39762 80.53645 55.96703
#
# Velocity S-wave (km/s) = 3.84882 6.16419 5.13861
# Velocity P-wave (km/s) = 5.25316 8.08060 6.81512
#
# Compressibility (1/GPa) = 0.06014478
#
# Stress axis : x y z
#
# Youngs Moduli (GPa) = 51.34508 47.77302 25.97185
#
# Poissons Ratio (x) = 0.60438 0.26654
# Poissons Ratio (y) = 0.64957 -0.35140
# Poissons Ratio (z) = 0.52693 -0.64637
#
# Static dielectric constant tensor:
#      x y z
#    x 1.799010 0.000000 0.000000 
#    y 0.000000 1.803560 0.000000 
#    z 0.000000 0.000000 1.789000 
# 
# From -- ./inp_files/11355.got.cif
#   From: 2010.05.17/outbox.cif.g08.bks.cpg/sg52_6_cif.got.tgz:11355.got - 2010.06.03 12:15:38.
