data_PCOD9411676
_publ_section_title
;
Structure prediction by ZEFSAII (Michael W. Deem and Ramdas Pophale) SiO2 
 PCOD9411676
Probable space group: P N N A
;
_chemical_formula_sum "Si O2"
_cell_formula_units_Z 64
_cell_length_a 14.604959
_cell_length_b 14.087098
_cell_length_c 12.466564
_cell_angle_alpha 90.000000
_cell_angle_beta 90.000000
_cell_angle_gamma 90.000000
_cell_volume 2564.889437
_symmetry_space_group_name_H-M "P N N A"
_symmetry_group_IT_number 52
_symmetry_cell_setting 'orthorhombic'
loop_
_space_group_symop_operation_xyz
x,y,z
1/2-x,-y,z
x,1/2-y,1/2-z
1/2-x,1/2+y,1/2-z
-x,-y,-z
1/2+x,y,-z
-x,1/2+y,1/2+z
1/2+x,1/2-y,1/2+z
loop_
_atom_site_type_symbol
_atom_site_label
_atom_site_fract_x
_atom_site_fract_y
_atom_site_fract_z
Si Si1 0.111372 0.042881 0.359044
Si Si2 0.467836 0.374419 0.021751
Si Si3 0.216852 0.296846 0.071345
Si Si4 0.855062 0.155471 0.174429
Si Si5 0.788609 0.399859 0.114528
Si Si6 0.431926 0.638882 0.369352
Si Si7 0.349170 0.466733 0.459855
Si Si8 0.913104 0.211737 0.863095
O O1 0.207435 0.097949 0.377077
O O2 0.087252 0.082455 0.242190
O O3 0.056432 0.087863 0.461932
O O4 0.074049 0.936295 0.379519
O O5 0.479177 0.266159 0.055364
O O6 0.387975 0.381080 0.934966
O O7 0.136219 0.227673 0.111933
O O8 0.311154 0.251372 0.112000
O O9 0.228469 0.316876 0.942970
O O10 0.833004 0.250000 0.250000
O O11 0.809862 0.086422 0.261126
O O12 0.962874 0.165917 0.150616
O O13 0.828335 0.102668 0.061742
O O14 0.750000 0.500000 0.076230
O O15 0.408798 0.563248 0.464382
O O16 0.250000 0.500000 0.418000
O O17 0.404173 0.398636 0.379932
O O18 0.942617 0.250000 0.750000
#
# Coordination Sequence:
#
# PCOD9411676 Si02
#       8
#     8   8   8   8   8   8   8   8
#     4  11  21  40  67 107 143 187 244 315 373 442
#     4  10  22  39  67  99 144 186 249 308 370 452
#     4  11  23  38  69 105 141 183 248 315 358 453
#     4  12  26  47  78 101 142 198 250 298 376 464
#     4  11  22  45  67 102 140 190 245 302 373 444
#     4  12  25  43  71 107 144 190 252 308 386 439
#     4  12  27  48  68 109 151 188 243 312 374 449
#     4  11  23  43  66  97 140 195 237 300 381 441
#
# _framework density 24.952342000000002
#
# number of rings (size 3 to 8) (size 9 to 14) (size 15 to 20)
#    0.000    0.750    3.750    4.875    1.750    0.000 
#    0.000    0.000    0.000    2.250    0.000    0.000 
#    0.000    0.000    0.000    0.000    0.000    0.000 
#
# Total GULP energy -356593.482668 kJ/mol
# GULP energy per Si atom -5571.773167 kJ/mol
# Density = 2.489555 g / cm^3
# Si number density = 24.952342 Si / 1000 Ang^3
#
#
#
# Elastic Constant Matrix: (Units=GPa)
#
#
# Indices 1 2 3 4 5 6 
#
# 1 41.6719 -1.0965 -11.0304 0.0000 0.0000 0.0000
# 2 -1.0965 123.4532 25.8499 0.0000 0.0000 0.0000
# 3 -11.0304 25.8499 115.2251 0.0000 0.0000 0.0000
# 4 0.0000 0.0000 0.0000 34.0033 0.0000 0.0000
# 5 0.0000 0.0000 0.0000 0.0000 21.1740 0.0000
# 6 0.0000 0.0000 0.0000 0.0000 0.0000 35.1478
#
#
#
# Elastic Compliance Matrix: (Units=1/GPa)
#
#
# Indices 1 2 3 4 5 6 
#
# 1 0.024631 -0.000289 0.002423 0.000000 0.000000 0.000000
# 2 -0.000289 0.008503 -0.001935 0.000000 0.000000 0.000000
# 3 0.002423 -0.001935 0.009345 0.000000 0.000000 0.000000
# 4 0.000000 0.000000 0.000000 0.029409 0.000000 0.000000
# 5 0.000000 0.000000 0.000000 0.000000 0.047228 0.000000
# 6 0.000000 0.000000 0.000000 0.000000 0.000000 0.028451
#
#
# Mechanical properties :
#
#
# Convention : Reuss Voigt Hill
#
# Bulk Modulus (GPa) = 23.32304 34.19958 28.76131
# Shear Modulus (GPa) = 30.96737 35.84017 33.40377
#
# Velocity S-wave (km/s) = 3.52669 3.79403 3.66280
# Velocity P-wave (km/s) = 5.09419 5.73834 5.42583
#
# Compressibility (1/GPa) = 0.04287605
#
# Stress axis : x y z
#
# Youngs Moduli (GPa) = 40.59984 117.60716 107.01229
#
# Poissons Ratio (x) = 0.03393 -0.25925
# Poissons Ratio (y) = 0.01171 0.20709
# Poissons Ratio (z) = -0.09836 0.22759
#
# Static dielectric constant tensor:
#      x y z
#    x 2.073780 0.000000 0.000000 
#    y 0.000000 2.151890 0.000000 
#    z 0.000000 0.000000 2.511230 
# 
# From -- ./inp_files/20869.got.cif
#   From: 2010.05.17/outbox.cif.g08.bks.cpg/sg52_11_cif.got.tgz:20869.got - 2010.06.03 12:15:38.
