data_PCOD9411615
_publ_section_title
;
Structure prediction by ZEFSAII (Michael W. Deem and Ramdas Pophale) SiO2 
 PCOD9411615
Probable space group: P N N A
;
_chemical_formula_sum "Si O2"
_cell_formula_units_Z 36
_cell_length_a 15.353346
_cell_length_b 18.674332
_cell_length_c 5.433332
_cell_angle_alpha 90.000000
_cell_angle_beta 90.000000
_cell_angle_gamma 90.000000
_cell_volume 1557.809529
_symmetry_space_group_name_H-M "P N N A"
_symmetry_group_IT_number 52
_symmetry_cell_setting 'orthorhombic'
loop_
_space_group_symop_operation_xyz
x,y,z
1/2-x,-y,z
x,1/2-y,1/2-z
1/2-x,1/2+y,1/2-z
-x,-y,-z
1/2+x,y,-z
-x,1/2+y,1/2+z
1/2+x,1/2-y,1/2+z
loop_
_atom_site_type_symbol
_atom_site_label
_atom_site_fract_x
_atom_site_fract_y
_atom_site_fract_z
Si Si1 0.750000 0.000000 0.776069
Si Si2 0.600363 0.536684 0.371822
Si Si3 0.736802 0.250000 0.750000
Si Si4 0.333927 0.123004 0.495392
Si Si5 0.478739 0.599362 0.759840
Si Si6 0.876234 0.750000 0.250000
O O1 0.763719 0.068116 0.608787
O O2 0.837046 0.996729 0.936350
O O3 0.516503 0.575046 0.491411
O O4 0.576431 0.472682 0.181881
O O5 0.659920 0.603231 0.280533
O O6 0.803253 0.194971 0.623265
O O7 0.676500 0.264108 0.507172
O O8 0.432749 0.106744 0.414173
O O9 0.429916 0.675166 0.778207
#
# Coordination Sequence:
#
# PCOD9411615 Si02
#       6
#     4   8   4   8   8   4
#     4  10  22  38  68 108 134 188 234 308 352 444
#     4  10  22  42  74 103 146 185 257 303 374 438
#     4  12  31  46  73 106 148 198 246 304 385 442
#     4  11  24  44  71 102 144 194 243 313 368 451
#     4  10  24  44  70 107 141 197 244 310 370 446
#     4  12  29  50  73 106 156 194 250 308 377 460
#
# _framework density 23.109372
#
# number of rings (size 3 to 8) (size 9 to 14) (size 15 to 20)
#    0.000    1.333    0.000    3.333   15.556    0.000 
#    0.000    0.000    0.000    0.000    0.000    0.000 
#    0.000    0.000    0.000    0.000    0.000    0.000 
#
# Total GULP energy -200514.391053 kJ/mol
# GULP energy per Si atom -5569.844196 kJ/mol
# Density = 2.305677 g / cm^3
# Si number density = 23.109372 Si / 1000 Ang^3
#
#
#
# Elastic Constant Matrix: (Units=GPa)
#
#
# Indices 1 2 3 4 5 6 
#
# 1 83.7020 37.1784 36.3314 0.0000 0.0000 0.0000
# 2 37.1784 125.5583 8.9521 0.0000 0.0000 0.0000
# 3 36.3314 8.9521 62.8052 0.0000 0.0000 0.0000
# 4 0.0000 0.0000 0.0000 19.7870 0.0000 0.0000
# 5 0.0000 0.0000 0.0000 0.0000 99.5744 0.0000
# 6 0.0000 0.0000 0.0000 0.0000 0.0000 21.7903
#
#
#
# Elastic Compliance Matrix: (Units=1/GPa)
#
#
# Indices 1 2 3 4 5 6 
#
# 1 0.018367 -0.004729 -0.009951 0.000000 0.000000 0.000000
# 2 -0.004729 0.009264 0.001415 0.000000 0.000000 0.000000
# 3 -0.009951 0.001415 0.021477 0.000000 0.000000 0.000000
# 4 0.000000 0.000000 0.000000 0.050538 0.000000 0.000000
# 5 0.000000 0.000000 0.000000 0.000000 0.010043 0.000000
# 6 0.000000 0.000000 0.000000 0.000000 0.000000 0.045892
#
#
# Mechanical properties :
#
#
# Convention : Reuss Voigt Hill
#
# Bulk Modulus (GPa) = 44.29028 48.55436 46.42232
# Shear Modulus (GPa) = 26.36633 40.87057 33.61845
#
# Velocity S-wave (km/s) = 3.38144 4.21000 3.81826
# Velocity P-wave (km/s) = 5.86964 6.68494 6.29051
#
# Compressibility (1/GPa) = 0.02257832
#
# Stress axis : x y z
#
# Youngs Moduli (GPa) = 54.44585 107.94695 46.56178
#
# Poissons Ratio (x) = 0.51048 0.46333
# Poissons Ratio (y) = 0.25748 -0.06589
# Poissons Ratio (z) = 0.54178 -0.15277
#
# Static dielectric constant tensor:
#      x y z
#    x -1.457430 0.000000 0.000000 
#    y 0.000000 1.914720 0.000000 
#    z 0.000000 0.000000 1.980620 
# 
# From -- ./inp_files/2189.got.cif
#   From: 2010.05.17/outbox.cif.g08.bks.cpg/sg52_2_cif.got.tgz:2189.got - 2010.06.03 12:15:38.
