data_PCOD9411727
_publ_section_title
;
Structure prediction by ZEFSAII (Michael W. Deem and Ramdas Pophale) SiO2 
 PCOD9411727
Probable space group: P N N A
;
_chemical_formula_sum "Si O2"
_cell_formula_units_Z 40
_cell_length_a 8.733205
_cell_length_b 10.473482
_cell_length_c 20.440823
_cell_angle_alpha 90.000000
_cell_angle_beta 90.000000
_cell_angle_gamma 90.000000
_cell_volume 1869.662094
_symmetry_space_group_name_H-M "P N N A"
_symmetry_group_IT_number 52
_symmetry_cell_setting 'orthorhombic'
loop_
_space_group_symop_operation_xyz
x,y,z
1/2-x,-y,z
x,1/2-y,1/2-z
1/2-x,1/2+y,1/2-z
-x,-y,-z
1/2+x,y,-z
-x,1/2+y,1/2+z
1/2+x,1/2-y,1/2+z
loop_
_atom_site_type_symbol
_atom_site_label
_atom_site_fract_x
_atom_site_fract_y
_atom_site_fract_z
Si Si1 0.110746 0.097625 0.760798
Si Si2 0.427773 0.396106 0.134915
Si Si3 0.434740 0.859444 0.906605
Si Si4 0.857734 0.303520 0.480474
Si Si5 0.858864 0.658790 0.925461
O O1 0.150349 0.250000 0.750000
O O2 0.053422 0.079930 0.835233
O O3 0.983135 0.067936 0.706608
O O4 0.250000 0.000000 0.749938
O O5 0.542876 0.291872 0.106802
O O6 0.259880 0.330096 0.135165
O O7 0.420531 0.516677 0.086529
O O8 0.266986 0.871934 0.936507
O O9 0.565473 0.885650 0.960748
O O10 0.758696 0.191390 0.515613
O O11 0.997668 0.249883 0.437613
#
# Coordination Sequence:
#
# PCOD9411727 Si02
#       5
#     8   8   8   8   8
#     4  10  22  40  63  85 118 165 205 248 300 360
#     4   9  19  31  52  82 120 155 193 245 304 352
#     4   9  19  34  56  82 116 157 199 251 295 361
#     4   9  18  32  56  88 121 156 197 247 315 357
#     4   9  18  30  52  87 123 153 192 250 303 369
#
# _framework density 21.394238999999999
#
# number of rings (size 3 to 8) (size 9 to 14) (size 15 to 20)
#    0.000    2.800    0.000    0.000    5.600   14.400 
#    0.000    1.000   48.400    0.000    0.000    0.000 
#    0.000    0.000    0.000    0.000    0.000    0.000 
#
# Total GULP energy -222774.327102 kJ/mol
# GULP energy per Si atom -5569.358178 kJ/mol
# Density = 2.134554 g / cm^3
# Si number density = 21.394239 Si / 1000 Ang^3
#
#
#
# Elastic Constant Matrix: (Units=GPa)
#
#
# Indices 1 2 3 4 5 6 
#
# 1 129.7522 31.6560 61.8507 0.0000 0.0000 0.0000
# 2 31.6560 77.4609 36.0405 0.0000 0.0000 0.0000
# 3 61.8507 36.0405 119.2004 0.0000 0.0000 0.0000
# 4 0.0000 0.0000 0.0000 6.3885 0.0000 0.0000
# 5 0.0000 0.0000 0.0000 0.0000 30.1647 0.0000
# 6 0.0000 0.0000 0.0000 0.0000 0.0000 -38.2424
#
#
#
# Elastic Compliance Matrix: (Units=1/GPa)
#
#
# Indices 1 2 3 4 5 6 
#
# 1 0.010511 -0.002046 -0.004835 0.000000 0.000000 0.000000
# 2 -0.002046 0.015421 -0.003601 0.000000 0.000000 0.000000
# 3 -0.004835 -0.003601 0.011987 0.000000 0.000000 0.000000
# 4 0.000000 0.000000 0.000000 0.156531 0.000000 0.000000
# 5 0.000000 0.000000 0.000000 0.000000 0.033151 0.000000
# 6 0.000000 0.000000 0.000000 0.000000 0.000000 -0.026149
#
#
# Mechanical properties :
#
#
# Convention : Reuss Voigt Hill
#
# Bulk Modulus (GPa) = 58.98065 65.05643 62.01854
# Shear Modulus (GPa) = 21.92314 12.78657 17.35486
#
# Velocity S-wave (km/s) = 3.20460 2.44737 2.85123
# Velocity P-wave (km/s) = 6.42814 6.20166 6.31591
#
# Compressibility (1/GPa) = 0.01695471
#
# Stress axis : x y z
#
# Youngs Moduli (GPa) = 95.13764 64.84537 83.42325
#
# Poissons Ratio (x) = 0.13266 0.40339
# Poissons Ratio (y) = 0.19463 0.30042
# Poissons Ratio (z) = 0.46003 0.23352
#
# Static dielectric constant tensor:
#      x y z
#    x 1.796440 0.000000 0.000000 
#    y 0.000000 1.839100 0.000000 
#    z 0.000000 0.000000 1.830840 
# 
# From -- ./inp_files/35782.got.cif
#   From: 2010.05.17/outbox.cif.g08.bks.cpg/sg52_18_cif.got.tgz:35782.got - 2010.06.03 12:15:38.
