data_PCOD9411050
_publ_section_title
;
Structure prediction by ZEFSAII (Michael W. Deem and Ramdas Pophale) SiO2 
 PCOD9411050
Probable space group: P N N A
;
_chemical_formula_sum "Si O2"
_cell_formula_units_Z 32
_cell_length_a 7.423403
_cell_length_b 15.379655
_cell_length_c 11.251616
_cell_angle_alpha 90.000000
_cell_angle_beta 90.000000
_cell_angle_gamma 90.000000
_cell_volume 1284.589990
_symmetry_space_group_name_H-M "P N N A"
_symmetry_group_IT_number 52
_symmetry_cell_setting 'orthorhombic'
loop_
_space_group_symop_operation_xyz
x,y,z
1/2-x,-y,z
x,1/2-y,1/2-z
1/2-x,1/2+y,1/2-z
-x,-y,-z
1/2+x,y,-z
-x,1/2+y,1/2+z
1/2+x,1/2-y,1/2+z
loop_
_atom_site_type_symbol
_atom_site_label
_atom_site_fract_x
_atom_site_fract_y
_atom_site_fract_z
Si Si1 0.929166 0.527357 0.651405
Si Si2 0.711948 0.124184 0.166516
Si Si3 0.705469 0.327237 0.830393
Si Si4 0.191459 0.805080 0.586688
O O1 0.750000 0.500000 0.580125
O O2 0.837975 0.584369 0.758703
O O3 0.094967 0.590027 0.618656
O O4 0.042037 0.438347 0.658985
O O5 0.736693 0.133366 0.308923
O O6 0.695250 0.216627 0.102619
O O7 0.788796 0.250000 0.750000
O O8 0.513030 0.289277 0.872874
O O9 0.807720 0.341530 0.953997
#
# Coordination Sequence:
#
# PCOD9411050 Si02
#       4
#     8   8   8   8
#     4  10  21  39  67  98 135 172 227 283 337 415
#     4   9  20  44  64  95 140 173 222 282 345 401
#     4  11  23  43  65  98 134 175 234 276 342 420
#     4  10  21  42  67  93 134 180 218 285 336 409
#
# _framework density 24.910672999999999
#
# number of rings (size 3 to 8) (size 9 to 14) (size 15 to 20)
#    0.000    2.000    5.000    0.000    3.500    3.000 
#    4.500    1.250    5.500    0.000    0.000    0.000 
#    0.000    0.000    0.000    0.000    0.000    0.000 
#
# Total GULP energy -178538.147953 kJ/mol
# GULP energy per Si atom -5579.317124 kJ/mol
# Density = 2.485397 g / cm^3
# Si number density = 24.910673 Si / 1000 Ang^3
#
#
#
# Elastic Constant Matrix: (Units=GPa)
#
#
# Indices 1 2 3 4 5 6 
#
# 1 128.5077 44.4885 28.3443 0.0000 0.0000 0.0000
# 2 44.4885 91.5859 30.5814 0.0000 0.0000 0.0000
# 3 28.3443 30.5814 161.1473 0.0000 0.0000 0.0000
# 4 0.0000 0.0000 0.0000 6.9441 0.0000 0.0000
# 5 0.0000 0.0000 0.0000 0.0000 87.1265 0.0000
# 6 0.0000 0.0000 0.0000 0.0000 0.0000 26.2790
#
#
#
# Elastic Compliance Matrix: (Units=1/GPa)
#
#
# Indices 1 2 3 4 5 6 
#
# 1 0.009461 -0.004314 -0.000846 0.000000 0.000000 0.000000
# 2 -0.004314 0.013624 -0.001827 0.000000 0.000000 0.000000
# 3 -0.000846 -0.001827 0.006701 0.000000 0.000000 0.000000
# 4 0.000000 0.000000 0.000000 0.144007 0.000000 0.000000
# 5 0.000000 0.000000 0.000000 0.000000 0.011478 0.000000
# 6 0.000000 0.000000 0.000000 0.000000 0.000000 0.038053
#
#
# Mechanical properties :
#
#
# Convention : Reuss Voigt Hill
#
# Bulk Modulus (GPa) = 63.23301 65.34102 64.28702
# Shear Modulus (GPa) = 20.61277 42.59169 31.60223
#
# Velocity S-wave (km/s) = 2.87969 4.13943 3.56564
# Velocity P-wave (km/s) = 6.04118 7.00954 6.54330
#
# Compressibility (1/GPa) = 0.01581452
#
# Stress axis : x y z
#
# Youngs Moduli (GPa) = 105.69150 73.39948 149.23371
#
# Poissons Ratio (x) = 0.31662 0.12619
# Poissons Ratio (y) = 0.45592 0.27261
# Poissons Ratio (z) = 0.08937 0.13408
#
# Static dielectric constant tensor:
#      x y z
#    x 1.958500 0.000000 0.000000 
#    y 0.000000 1.991560 0.000000 
#    z 0.000000 0.000000 2.047600 
# 
# From -- ./inp_files/16597.got.cif
#   From: 2010.05.17/outbox.cif.g08.bks.cpg/sg52_9_cif.got.tgz:16597.got - 2010.06.03 12:15:38.
