data_PCOD9411608
_publ_section_title
;
Structure prediction by ZEFSAII (Michael W. Deem and Ramdas Pophale) SiO2 
 PCOD9411608
Probable space group: P N N A
;
_chemical_formula_sum "Si O2"
_cell_formula_units_Z 28
_cell_length_a 14.215334
_cell_length_b 12.041367
_cell_length_c 7.011769
_cell_angle_alpha 90.000000
_cell_angle_beta 90.000000
_cell_angle_gamma 90.000000
_cell_volume 1200.218900
_symmetry_space_group_name_H-M "P N N A"
_symmetry_group_IT_number 52
_symmetry_cell_setting 'orthorhombic'
loop_
_space_group_symop_operation_xyz
x,y,z
1/2-x,-y,z
x,1/2-y,1/2-z
1/2-x,1/2+y,1/2-z
-x,-y,-z
1/2+x,y,-z
-x,1/2+y,1/2+z
1/2+x,1/2-y,1/2+z
loop_
_atom_site_type_symbol
_atom_site_label
_atom_site_fract_x
_atom_site_fract_y
_atom_site_fract_z
Si Si1 0.750000 0.000000 0.431470
Si Si2 0.064007 0.399001 0.070691
Si Si3 0.345568 0.038438 0.927978
Si Si4 0.521211 0.342937 0.486398
O O1 0.827578 0.933079 0.546337
O O2 0.692554 0.922412 0.278950
O O3 0.040571 0.372064 0.290226
O O4 0.040869 0.285613 0.958823
O O5 0.000000 0.500000 0.000000
O O6 0.412672 0.121856 0.039645
O O7 0.250000 0.000000 0.030303
O O8 0.408328 0.928959 0.886710
#
# Coordination Sequence:
#
# PCOD9411608 Si02
#       4
#     4   8   8   8
#     4  10  22  38  66  90 126 170 222 258 322 392
#     4  11  22  41  61  95 128 171 214 271 325 387
#     4   9  20  42  62  93 123 170 212 268 324 390
#     4  10  22  40  65  90 135 163 216 273 324 390
#
# _framework density 23.329077000000002
#
# number of rings (size 3 to 8) (size 9 to 14) (size 15 to 20)
#    0.857    1.143    2.857    0.000    2.000    3.429 
#    5.143    0.000    0.000    0.000    0.000    0.000 
#    0.000    0.000    0.000    0.000    0.000    0.000 
#
# Total GULP energy -156398.332610 kJ/mol
# GULP energy per Si atom -5585.654736 kJ/mol
# Density = 2.327598 g / cm^3
# Si number density = 23.329077 Si / 1000 Ang^3
#
#
#
# Elastic Constant Matrix: (Units=GPa)
#
#
# Indices 1 2 3 4 5 6 
#
# 1 205.4460 76.7359 17.1392 0.0000 0.0000 0.0000
# 2 76.7359 166.6361 15.3390 0.0000 0.0000 0.0000
# 3 17.1392 15.3390 54.4217 0.0000 0.0000 0.0000
# 4 0.0000 0.0000 0.0000 29.1201 0.0000 0.0000
# 5 0.0000 0.0000 0.0000 0.0000 23.5433 0.0000
# 6 0.0000 0.0000 0.0000 0.0000 0.0000 26.3996
#
#
#
# Elastic Compliance Matrix: (Units=1/GPa)
#
#
# Indices 1 2 3 4 5 6 
#
# 1 0.005946 -0.002634 -0.001130 0.000000 0.000000 0.000000
# 2 -0.002634 0.007328 -0.001236 0.000000 0.000000 0.000000
# 3 -0.001130 -0.001236 0.019079 0.000000 0.000000 0.000000
# 4 0.000000 0.000000 0.000000 0.034340 0.000000 0.000000
# 5 0.000000 0.000000 0.000000 0.000000 0.042475 0.000000
# 6 0.000000 0.000000 0.000000 0.000000 0.000000 0.037879
#
#
# Mechanical properties :
#
#
# Convention : Reuss Voigt Hill
#
# Bulk Modulus (GPa) = 44.73695 71.65913 58.19804
# Shear Modulus (GPa) = 30.39554 36.96527 33.68040
#
# Velocity S-wave (km/s) = 3.61349 3.98491 3.80374
# Velocity P-wave (km/s) = 6.05210 7.20806 6.65522
#
# Compressibility (1/GPa) = 0.02235289
#
# Stress axis : x y z
#
# Youngs Moduli (GPa) = 168.19403 136.46723 52.41298
#
# Poissons Ratio (x) = 0.35944 0.05923
# Poissons Ratio (y) = 0.44300 0.06478
# Poissons Ratio (z) = 0.19007 0.16865
#
# Static dielectric constant tensor:
#      x y z
#    x 1.889890 0.000000 0.000000 
#    y 0.000000 1.855800 0.000000 
#    z 0.000000 0.000000 2.044520 
# 
# From -- ./inp_files/9462.got.cif
#   From: 2010.05.17/outbox.cif.g08.bks.cpg/sg52_5_cif.got.tgz:9462.got - 2010.06.03 12:15:38.
