data_PCOD9411347
_publ_section_title
;
Structure prediction by ZEFSAII (Michael W. Deem and Ramdas Pophale) SiO2 
 PCOD9411347
Probable space group: P N N A
;
_chemical_formula_sum "Si O2"
_cell_formula_units_Z 48
_cell_length_a 8.584844
_cell_length_b 8.346529
_cell_length_c 32.063650
_cell_angle_alpha 90.000000
_cell_angle_beta 90.000000
_cell_angle_gamma 90.000000
_cell_volume 2297.477536
_symmetry_space_group_name_H-M "P N N A"
_symmetry_group_IT_number 52
_symmetry_cell_setting 'orthorhombic'
loop_
_space_group_symop_operation_xyz
x,y,z
1/2-x,-y,z
x,1/2-y,1/2-z
1/2-x,1/2+y,1/2-z
-x,-y,-z
1/2+x,y,-z
-x,1/2+y,1/2+z
1/2+x,1/2-y,1/2+z
loop_
_atom_site_type_symbol
_atom_site_label
_atom_site_fract_x
_atom_site_fract_y
_atom_site_fract_z
Si Si1 0.250000 0.500000 0.342695
Si Si2 0.940468 0.732464 0.888726
Si Si3 0.030571 0.676401 0.982057
Si Si4 0.285836 0.689435 0.868560
Si Si5 0.969459 0.262652 0.701607
Si Si6 0.337340 0.829003 0.952855
Si Si7 0.250000 0.000000 0.335549
O O1 0.175203 0.367817 0.372717
O O2 0.113936 0.574617 0.313875
O O3 0.943279 0.706041 0.938174
O O4 0.881053 0.574691 0.865279
O O5 0.115561 0.769353 0.873238
O O6 0.209902 0.704551 0.970743
O O7 0.979469 0.809448 0.015696
O O8 0.000000 0.500000 0.000000
O O9 0.250000 0.500000 0.873603
O O10 0.380649 0.725607 0.826921
O O11 0.381425 0.764071 0.907238
O O12 0.009278 0.250000 0.750000
O O13 0.836149 0.131107 0.692081
O O14 0.250000 0.000000 0.950954
#
# Coordination Sequence:
#
# PCOD9411347 Si02
#       7
#     4   8   8   8   8   8   4
#     4  10  25  44  68  98 138 174 216 280 345 396
#     4  10  23  41  66  98 132 180 220 270 329 399
#     4  11  24  40  65  96 130 176 230 264 325 390
#     4  11  23  45  67  96 135 177 223 267 342 398
#     4  11  24  44  72 101 131 170 220 277 337 403
#     4  11  25  41  65  94 136 173 219 282 324 382
#     4  10  21  42  68  94 136 170 220 262 329 406
#
# _framework density 20.892479000000002
#
# number of rings (size 3 to 8) (size 9 to 14) (size 15 to 20)
#    0.000    1.333    1.667    3.500    8.167    1.333 
#    3.000    0.833    0.000    0.000    0.000    0.000 
#    0.000    0.000    0.000    0.000    0.000    0.000 
#
# Total GULP energy -268344.516339 kJ/mol
# GULP energy per Si atom -5590.510757 kJ/mol
# Density = 2.084493 g / cm^3
# Si number density = 20.892479 Si / 1000 Ang^3
#
#
#
# Elastic Constant Matrix: (Units=GPa)
#
#
# Indices 1 2 3 4 5 6 
#
# 1 42.2949 5.4263 48.6332 0.0000 0.0000 0.0000
# 2 5.4263 80.7105 34.1713 0.0000 0.0000 0.0000
# 3 48.6332 34.1713 184.3695 0.0000 0.0000 0.0000
# 4 0.0000 0.0000 0.0000 15.8410 0.0000 0.0000
# 5 0.0000 0.0000 0.0000 0.0000 35.6661 0.0000
# 6 0.0000 0.0000 0.0000 0.0000 0.0000 24.8476
#
#
#
# Elastic Compliance Matrix: (Units=1/GPa)
#
#
# Indices 1 2 3 4 5 6 
#
# 1 0.034137 0.001647 -0.009310 0.000000 0.000000 0.000000
# 2 0.001647 0.013524 -0.002941 0.000000 0.000000 0.000000
# 3 -0.009310 -0.002941 0.008425 0.000000 0.000000 0.000000
# 4 0.000000 0.000000 0.000000 0.063127 0.000000 0.000000
# 5 0.000000 0.000000 0.000000 0.000000 0.028038 0.000000
# 6 0.000000 0.000000 0.000000 0.000000 0.000000 0.040245
#
#
# Mechanical properties :
#
#
# Convention : Reuss Voigt Hill
#
# Bulk Modulus (GPa) = 28.67152 53.75961 41.21556
# Shear Modulus (GPa) = 22.69306 29.88055 26.28681
#
# Velocity S-wave (km/s) = 3.29930 3.78591 3.55095
# Velocity P-wave (km/s) = 5.31668 6.70061 6.04836
#
# Compressibility (1/GPa) = 0.03487782
#
# Stress axis : x y z
#
# Youngs Moduli (GPa) = 29.29336 73.94040 118.69759
#
# Poissons Ratio (x) = -0.12175 1.10507
# Poissons Ratio (y) = -0.04823 0.34909
# Poissons Ratio (z) = 0.27272 0.21746
#
# Static dielectric constant tensor:
#      x y z
#    x 1.756790 0.000000 0.000000 
#    y 0.000000 1.792160 0.000000 
#    z 0.000000 0.000000 1.724280 
# 
# From -- ./inp_files/44430.got.cif
#   From: 2010.05.17/outbox.cif.g08.bks.cpg/sg52_23_cif.got.tgz:44430.got - 2010.06.03 12:15:38.
