data_PCOD9411937
_publ_section_title
;
Structure prediction by ZEFSAII (Michael W. Deem and Ramdas Pophale) SiO2 
 PCOD9411937
Probable space group: P N N A
;
_chemical_formula_sum "Si O2"
_cell_formula_units_Z 32
_cell_length_a 15.595542
_cell_length_b 7.963813
_cell_length_c 11.467435
_cell_angle_alpha 90.000000
_cell_angle_beta 90.000000
_cell_angle_gamma 90.000000
_cell_volume 1424.255199
_symmetry_space_group_name_H-M "P N N A"
_symmetry_group_IT_number 52
_symmetry_cell_setting 'orthorhombic'
loop_
_space_group_symop_operation_xyz
x,y,z
1/2-x,-y,z
x,1/2-y,1/2-z
1/2-x,1/2+y,1/2-z
-x,-y,-z
1/2+x,y,-z
-x,1/2+y,1/2+z
1/2+x,1/2-y,1/2+z
loop_
_atom_site_type_symbol
_atom_site_label
_atom_site_fract_x
_atom_site_fract_y
_atom_site_fract_z
Si Si1 0.642738 0.750000 0.750000
Si Si2 0.345595 0.750000 0.750000
Si Si3 0.420218 0.377157 0.015570
Si Si4 0.250000 0.000000 0.092500
Si Si5 0.750000 0.500000 0.082658
Si Si6 0.910992 0.015059 0.069960
O O1 0.581703 0.678989 0.850596
O O2 0.706853 0.633366 0.677376
O O3 0.282141 0.651429 0.836511
O O4 0.400482 0.895499 0.817150
O O5 0.500000 0.500000 0.000000
O O6 0.331087 0.469563 0.997687
O O7 0.410316 0.219293 0.925575
O O8 0.330048 0.956066 0.008852
O O9 0.000000 0.000000 0.000000
#
# Coordination Sequence:
#
# PCOD9411937 Si02
#       6
#     4   4   8   4   4   8
#     4  10  22  43  68  99 140 184 224 291 356 415
#     4  12  24  45  70 101 144 188 230 297 360 417
#     4  11  25  44  69 104 140 183 239 290 352 433
#     4  10  22  42  66 100 140 184 232 282 352 432
#     4  12  24  42  70 102 138 184 234 284 348 428
#     4  11  25  44  68 100 139 183 236 292 352 428
#
# _framework density 22.467883
#
# number of rings (size 3 to 8) (size 9 to 14) (size 15 to 20)
#    0.000    1.000    0.000    7.500    0.000   11.000 
#    0.000    0.000    0.000    1.500    0.000    0.000 
#    0.000    0.000    0.000    0.000    0.000    0.000 
#
# Total GULP energy -178580.204415 kJ/mol
# GULP energy per Si atom -5580.631388 kJ/mol
# Density = 2.241674 g / cm^3
# Si number density = 22.467883 Si / 1000 Ang^3
#
#
#
# Elastic Constant Matrix: (Units=GPa)
#
#
# Indices 1 2 3 4 5 6 
#
# 1 196.2565 67.1918 66.3238 0.0000 0.0000 0.0000
# 2 67.1918 126.1073 72.2492 0.0000 0.0000 0.0000
# 3 66.3238 72.2492 132.0079 0.0000 0.0000 0.0000
# 4 0.0000 0.0000 0.0000 -21.6796 0.0000 0.0000
# 5 0.0000 0.0000 0.0000 0.0000 18.0207 0.0000
# 6 0.0000 0.0000 0.0000 0.0000 0.0000 38.2247
#
#
#
# Elastic Compliance Matrix: (Units=1/GPa)
#
#
# Indices 1 2 3 4 5 6 
#
# 1 0.006583 -0.002349 -0.002022 0.000000 0.000000 0.000000
# 2 -0.002349 0.012390 -0.005601 0.000000 0.000000 0.000000
# 3 -0.002022 -0.005601 0.011657 0.000000 0.000000 0.000000
# 4 0.000000 0.000000 0.000000 -0.046126 0.000000 0.000000
# 5 0.000000 0.000000 0.000000 0.000000 0.055492 0.000000
# 6 0.000000 0.000000 0.000000 0.000000 0.000000 0.026161
#
#
# Mechanical properties :
#
#
# Convention : Reuss Voigt Hill
#
# Bulk Modulus (GPa) = 93.58084 96.21126 94.89605
# Shear Modulus (GPa) = 55.76474 23.48693 39.62583
#
# Velocity S-wave (km/s) = 4.98735 3.23670 4.20416
# Velocity P-wave (km/s) = 8.65484 7.54208 8.11755
#
# Compressibility (1/GPa) = 0.01068595
#
# Stress axis : x y z
#
# Youngs Moduli (GPa) = 151.90942 80.70753 85.78866
#
# Poissons Ratio (x) = 0.18960 0.17343
# Poissons Ratio (y) = 0.35687 0.48051
# Poissons Ratio (z) = 0.30711 0.45205
#
# Static dielectric constant tensor:
#      x y z
#    x 1.910870 0.000000 0.000000 
#    y 0.000000 1.911340 0.000000 
#    z 0.000000 0.000000 1.590470 
# 
# From -- ./inp_files/18959.got.cif
#   From: 2010.05.17/outbox.cif.g08.bks.cpg/sg52_10_cif.got.tgz:18959.got - 2010.06.03 12:15:38.
