data_PCOD9411736
_publ_section_title
;
Structure prediction by ZEFSAII (Michael W. Deem and Ramdas Pophale) SiO2 
 PCOD9411736
Probable space group: P N N A
;
_chemical_formula_sum "Si O2"
_cell_formula_units_Z 44
_cell_length_a 16.493883
_cell_length_b 12.082966
_cell_length_c 11.486100
_cell_angle_alpha 90.000000
_cell_angle_beta 90.000000
_cell_angle_gamma 90.000000
_cell_volume 2289.122615
_symmetry_space_group_name_H-M "P N N A"
_symmetry_group_IT_number 52
_symmetry_cell_setting 'orthorhombic'
loop_
_space_group_symop_operation_xyz
x,y,z
1/2-x,-y,z
x,1/2-y,1/2-z
1/2-x,1/2+y,1/2-z
-x,-y,-z
1/2+x,y,-z
-x,1/2+y,1/2+z
1/2+x,1/2-y,1/2+z
loop_
_atom_site_type_symbol
_atom_site_label
_atom_site_fract_x
_atom_site_fract_y
_atom_site_fract_z
Si Si1 0.414186 0.750000 0.250000
Si Si2 0.569207 0.317107 0.363520
Si Si3 0.545351 0.800295 0.064398
Si Si4 0.829308 0.848446 0.529254
Si Si5 0.346893 0.095274 0.552994
Si Si6 0.835408 0.038604 0.179490
O O1 0.477104 0.813113 0.164516
O O2 0.358929 0.818148 0.340695
O O3 0.544915 0.250000 0.250000
O O4 0.493645 0.341794 0.446041
O O5 0.630363 0.240716 0.440915
O O6 0.609541 0.430125 0.322458
O O7 0.574684 0.673778 0.047776
O O8 0.623148 0.867184 0.104433
O O9 0.732136 0.853362 0.510781
O O10 0.859499 0.971848 0.496069
O O11 0.324724 0.082413 0.689312
O O12 0.750000 0.000000 0.130805
#
# Coordination Sequence:
#
# PCOD9411736 Si02
#       6
#     4   8   8   8   8   8
#     4  10  22  40  64  90 134 164 206 262 330 384
#     4  11  22  39  60  94 130 165 215 267 323 385
#     4  11  24  39  63  93 127 174 211 265 326 388
#     4  10  22  40  66  97 126 169 210 269 318 387
#     4  11  20  40  66  95 121 167 224 257 316 386
#     4  12  21  38  66  96 126 163 215 275 316 382
#
# _framework density 19.221339
#
# number of rings (size 3 to 8) (size 9 to 14) (size 15 to 20)
#    0.000    1.091    5.455    1.636    0.000    4.364 
#    1.636    0.000   24.000    0.000    0.000    0.000 
#    0.000    0.000    0.000    0.000    0.000    0.000 
#
# Total GULP energy -245709.492939 kJ/mol
# GULP energy per Si atom -5584.306658 kJ/mol
# Density = 1.917759 g / cm^3
# Si number density = 19.221339 Si / 1000 Ang^3
#
#
#
# Elastic Constant Matrix: (Units=GPa)
#
#
# Indices 1 2 3 4 5 6 
#
# 1 62.6167 18.0539 31.4060 0.0000 0.0000 0.0000
# 2 18.0539 44.5378 12.7535 0.0000 0.0000 0.0000
# 3 31.4060 12.7535 98.6951 0.0000 0.0000 0.0000
# 4 0.0000 0.0000 0.0000 6.8205 0.0000 0.0000
# 5 0.0000 0.0000 0.0000 0.0000 39.4333 0.0000
# 6 0.0000 0.0000 0.0000 0.0000 0.0000 4.3917
#
#
#
# Elastic Compliance Matrix: (Units=1/GPa)
#
#
# Indices 1 2 3 4 5 6 
#
# 1 0.020809 -0.006790 -0.005744 0.000000 0.000000 0.000000
# 2 -0.006790 0.025531 -0.001138 0.000000 0.000000 0.000000
# 3 -0.005744 -0.001138 0.012107 0.000000 0.000000 0.000000
# 4 0.000000 0.000000 0.000000 0.146616 0.000000 0.000000
# 5 0.000000 0.000000 0.000000 0.000000 0.025359 0.000000
# 6 0.000000 0.000000 0.000000 0.000000 0.000000 0.227704
#
#
# Mechanical properties :
#
#
# Convention : Reuss Voigt Hill
#
# Bulk Modulus (GPa) = 32.15265 36.69739 34.42502
# Shear Modulus (GPa) = 10.08388 19.70484 14.89436
#
# Velocity S-wave (km/s) = 2.29294 3.20528 2.78670
# Velocity P-wave (km/s) = 4.87586 5.72991 5.32005
#
# Compressibility (1/GPa) = 0.03110164
#
# Stress axis : x y z
#
# Youngs Moduli (GPa) = 48.05591 39.16751 82.59537
#
# Poissons Ratio (x) = 0.26596 0.47445
# Poissons Ratio (y) = 0.32632 0.09403
# Poissons Ratio (z) = 0.27605 0.04459
#
# Static dielectric constant tensor:
#      x y z
#    x 1.693660 0.000000 0.000000 
#    y 0.000000 1.704140 0.000000 
#    z 0.000000 0.000000 1.643160 
# 
# From -- ./inp_files/20507.got.cif
#   From: 2010.05.17/outbox.cif.g08.bks.cpg/sg52_11_cif.got.tgz:20507.got - 2010.06.03 12:15:38.
