data_PCOD9411884
_publ_section_title
;
Structure prediction by ZEFSAII (Michael W. Deem and Ramdas Pophale) SiO2 
 PCOD9411884
Probable space group: P N N A
;
_chemical_formula_sum "Si O2"
_cell_formula_units_Z 56
_cell_length_a 14.379038
_cell_length_b 15.733360
_cell_length_c 11.858059
_cell_angle_alpha 90.000000
_cell_angle_beta 90.000000
_cell_angle_gamma 90.000000
_cell_volume 2682.655581
_symmetry_space_group_name_H-M "P N N A"
_symmetry_group_IT_number 52
_symmetry_cell_setting 'orthorhombic'
loop_
_space_group_symop_operation_xyz
x,y,z
1/2-x,-y,z
x,1/2-y,1/2-z
1/2-x,1/2+y,1/2-z
-x,-y,-z
1/2+x,y,-z
-x,1/2+y,1/2+z
1/2+x,1/2-y,1/2+z
loop_
_atom_site_type_symbol
_atom_site_label
_atom_site_fract_x
_atom_site_fract_y
_atom_site_fract_z
Si Si1 0.046024 0.517962 0.378171
Si Si2 0.216648 0.680898 0.558862
Si Si3 0.354656 0.530206 0.970794
Si Si4 0.618786 0.292283 0.126385
Si Si5 0.585265 0.750000 0.250000
Si Si6 0.750000 0.000000 0.968664
Si Si7 0.068647 0.787177 0.131452
Si Si8 0.000231 0.585590 0.844507
O O1 0.156238 0.501583 0.394663
O O2 0.030388 0.617294 0.351187
O O3 0.000000 0.500000 0.500000
O O4 0.008040 0.461241 0.276521
O O5 0.305686 0.740784 0.556528
O O6 0.154079 0.697547 0.668518
O O7 0.246960 0.583860 0.545033
O O8 0.151145 0.704764 0.455225
O O9 0.250000 0.500000 0.992897
O O10 0.357579 0.609055 0.883262
O O11 0.415232 0.454737 0.916388
O O12 0.408363 0.564658 0.081910
O O13 0.623588 0.250000 0.250000
O O14 0.514068 0.272869 0.087727
O O15 0.522637 0.683409 0.181485
O O16 0.100692 0.750000 0.250000
#
# Coordination Sequence:
#
# PCOD9411884 Si02
#       8
#     8   8   8   8   4   4   8   8
#     4  11  23  44  67 101 136 183 228 281 345 419
#     4  11  23  42  65 101 137 172 229 285 337 408
#     4  11  26  45  70 102 138 184 230 284 355 427
#     4  11  22  40  66 100 129 177 226 276 341 410
#     4  12  24  42  68 104 134 178 226 292 346 396
#     4  10  24  40  66  94 136 182 224 276 340 410
#     4  10  22  41  69  95 134 176 222 276 340 404
#     4  11  25  46  70  99 141 181 228 291 351 417
#
# _framework density 20.874836999999999
#
# number of rings (size 3 to 8) (size 9 to 14) (size 15 to 20)
#    0.000    1.143    0.714    6.000    1.000    5.714 
#    3.857    0.000    1.571    0.000    0.000    0.000 
#    0.000    0.000    0.000    0.000    0.000    0.000 
#
# Total GULP energy -313282.661515 kJ/mol
# GULP energy per Si atom -5594.333241 kJ/mol
# Density = 2.082733 g / cm^3
# Si number density = 20.874837 Si / 1000 Ang^3
#
#
#
# Elastic Constant Matrix: (Units=GPa)
#
#
# Indices 1 2 3 4 5 6 
#
# 1 122.9058 34.0192 21.1713 0.0000 0.0000 0.0000
# 2 34.0192 120.0724 28.5921 0.0000 0.0000 0.0000
# 3 21.1713 28.5921 85.3224 0.0000 0.0000 0.0000
# 4 0.0000 0.0000 0.0000 32.8137 0.0000 0.0000
# 5 0.0000 0.0000 0.0000 0.0000 -11.3923 0.0000
# 6 0.0000 0.0000 0.0000 0.0000 0.0000 84.5938
#
#
#
# Elastic Compliance Matrix: (Units=1/GPa)
#
#
# Indices 1 2 3 4 5 6 
#
# 1 0.009002 -0.002194 -0.001499 0.000000 0.000000 0.000000
# 2 -0.002194 0.009585 -0.002668 0.000000 0.000000 0.000000
# 3 -0.001499 -0.002668 0.012986 0.000000 0.000000 0.000000
# 4 0.000000 0.000000 0.000000 0.030475 0.000000 0.000000
# 5 0.000000 0.000000 0.000000 0.000000 -0.087779 0.000000
# 6 0.000000 0.000000 0.000000 0.000000 0.000000 0.011821
#
#
# Mechanical properties :
#
#
# Convention : Reuss Voigt Hill
#
# Bulk Modulus (GPa) = 53.04157 55.09620 54.06888
# Shear Modulus (GPa) = 981.48592 37.50425 509.49509
#
# Velocity S-wave (km/s) = 21.70708 4.24326 15.63973
# Velocity P-wave (km/s) = 25.56810 7.10337 18.76413
#
# Compressibility (1/GPa) = 0.01885314
#
# Stress axis : x y z
#
# Youngs Moduli (GPa) = 111.09155 104.32942 77.00570
#
# Poissons Ratio (x) = 0.22885 0.11540
# Poissons Ratio (y) = 0.24368 0.20543
# Poissons Ratio (z) = 0.16647 0.27832
#
# Static dielectric constant tensor:
#      x y z
#    x 1.749950 0.000000 0.000000 
#    y 0.000000 1.736510 0.000000 
#    z 0.000000 0.000000 1.719010 
# 
# From -- ./inp_files/19678.got.cif
#   From: 2010.05.17/outbox.cif.g08.bks.cpg/sg52_10_cif.got.tgz:19678.got - 2010.06.03 12:15:38.
