data_PCOD9411452
_publ_section_title
;
Structure prediction by ZEFSAII (Michael W. Deem and Ramdas Pophale) SiO2 
 PCOD9411452
Probable space group: P N N A
;
_chemical_formula_sum "Si O2"
_cell_formula_units_Z 24
_cell_length_a 10.085791
_cell_length_b 7.222888
_cell_length_c 17.209363
_cell_angle_alpha 90.000000
_cell_angle_beta 90.000000
_cell_angle_gamma 90.000000
_cell_volume 1253.676948
_symmetry_space_group_name_H-M "P N N A"
_symmetry_group_IT_number 52
_symmetry_cell_setting 'orthorhombic'
loop_
_space_group_symop_operation_xyz
x,y,z
1/2-x,-y,z
x,1/2-y,1/2-z
1/2-x,1/2+y,1/2-z
-x,-y,-z
1/2+x,y,-z
-x,1/2+y,1/2+z
1/2+x,1/2-y,1/2+z
loop_
_atom_site_type_symbol
_atom_site_label
_atom_site_fract_x
_atom_site_fract_y
_atom_site_fract_z
Si Si1 0.250000 0.500000 0.831645
Si Si2 0.640299 0.162780 0.065785
Si Si3 0.892440 0.918338 0.892178
Si Si4 0.458738 0.250000 0.750000
O O1 0.309881 0.661895 0.885865
O O2 0.363106 0.415986 0.776626
O O3 0.750000 0.000000 0.074788
O O4 0.499336 0.081527 0.092931
O O5 0.624619 0.192573 0.973207
O O6 0.952255 0.799043 0.823428
O O7 0.750000 0.000000 0.871701
#
# Coordination Sequence:
#
# PCOD9411452 Si02
#       4
#     4   8   8   4
#     4  12  24  42  74  94 126 180 226 262 314 404
#     4  10  21  46  69  92 127 180 224 258 314 403
#     4  10  23  43  64  95 140 164 210 282 329 380
#     4  12  24  40  64 104 132 166 218 276 334 374
#
# _framework density 19.143688000000001
#
# number of rings (size 3 to 8) (size 9 to 14) (size 15 to 20)
#    0.000    1.333    3.333    2.000    0.000    4.000 
#    3.000    0.000    0.000    0.000    0.000    0.000 
#    0.000    0.000    0.000    0.000    0.000    0.000 
#
# Total GULP energy -134156.918922 kJ/mol
# GULP energy per Si atom -5589.871622 kJ/mol
# Density = 1.910012 g / cm^3
# Si number density = 19.143688 Si / 1000 Ang^3
#
#
#
# Elastic Constant Matrix: (Units=GPa)
#
#
# Indices 1 2 3 4 5 6 
#
# 1 152.8587 31.4560 49.2741 0.0000 0.0000 0.0000
# 2 31.4560 62.6306 47.2654 0.0000 0.0000 0.0000
# 3 49.2741 47.2654 95.1644 0.0000 0.0000 0.0000
# 4 0.0000 0.0000 0.0000 -385.0400 0.0000 0.0000
# 5 0.0000 0.0000 0.0000 0.0000 29.1399 0.0000
# 6 0.0000 0.0000 0.0000 0.0000 0.0000 33.1071
#
#
#
# Elastic Compliance Matrix: (Units=1/GPa)
#
#
# Indices 1 2 3 4 5 6 
#
# 1 0.007930 -0.001414 -0.003404 0.000000 0.000000 0.000000
# 2 -0.001414 0.025792 -0.012078 0.000000 0.000000 0.000000
# 3 -0.003404 -0.012078 0.018269 0.000000 0.000000 0.000000
# 4 0.000000 0.000000 0.000000 -0.002597 0.000000 0.000000
# 5 0.000000 0.000000 0.000000 0.000000 0.034317 0.000000
# 6 0.000000 0.000000 0.000000 0.000000 0.000000 0.030205
#
#
# Mechanical properties :
#
#
# Convention : Reuss Voigt Hill
#
# Bulk Modulus (GPa) = 54.94595 62.96053 58.95324
# Shear Modulus (GPa) = 32.51531 -52.38139 -9.93304
#
# Velocity S-wave (km/s) = 4.12574 -5.23657 -2.28034
# Velocity P-wave (km/s) = 7.17355 1.89799 4.89170
#
# Compressibility (1/GPa) = 0.01819971
#
# Stress axis : x y z
#
# Youngs Moduli (GPa) = 126.10023 38.77229 54.73723
#
# Poissons Ratio (x) = 0.05484 0.18631
# Poissons Ratio (y) = 0.17834 0.66110
# Poissons Ratio (z) = 0.42920 0.46828
#
# Static dielectric constant tensor:
#      x y z
#    x 1.645480 0.000000 0.000000 
#    y 0.000000 1.608730 0.000000 
#    z 0.000000 0.000000 1.674050 
# 
# From -- ./inp_files/23940.got.cif
#   From: 2010.05.17/outbox.cif.g08.bks.cpg/sg52_12_cif.got.tgz:23940.got - 2010.06.03 12:15:38.
