data_PCOD9411149
_publ_section_title
;
Structure prediction by ZEFSAII (Michael W. Deem and Ramdas Pophale) SiO2 
 PCOD9411149
Probable space group: P N N A
;
_chemical_formula_sum "Si O2"
_cell_formula_units_Z 56
_cell_length_a 14.263557
_cell_length_b 20.385303
_cell_length_c 8.865951
_cell_angle_alpha 90.000000
_cell_angle_beta 90.000000
_cell_angle_gamma 90.000000
_cell_volume 2577.925365
_symmetry_space_group_name_H-M "P N N A"
_symmetry_group_IT_number 52
_symmetry_cell_setting 'orthorhombic'
loop_
_space_group_symop_operation_xyz
x,y,z
1/2-x,-y,z
x,1/2-y,1/2-z
1/2-x,1/2+y,1/2-z
-x,-y,-z
1/2+x,y,-z
-x,1/2+y,1/2+z
1/2+x,1/2-y,1/2+z
loop_
_atom_site_type_symbol
_atom_site_label
_atom_site_fract_x
_atom_site_fract_y
_atom_site_fract_z
Si Si1 0.575602 0.874669 0.647540
Si Si2 0.202130 0.933428 0.812753
Si Si3 0.110852 0.505682 0.984831
Si Si4 0.305438 0.339138 0.430830
Si Si5 0.142702 0.367965 0.883699
Si Si6 0.128323 0.265960 0.428749
Si Si7 0.576124 0.761923 0.425772
O O1 0.628451 0.943018 0.616666
O O2 0.640373 0.842674 0.773579
O O3 0.463561 0.874894 0.685095
O O4 0.571950 0.835349 0.488487
O O5 0.140037 0.961701 0.674603
O O6 0.276919 0.882651 0.738381
O O7 0.250000 0.000000 0.871875
O O8 0.159452 0.894678 0.953368
O O9 0.151432 0.432518 0.990868
O O10 0.000000 0.500000 0.000000
O O11 0.193422 0.330200 0.436304
O O12 0.336284 0.269771 0.496162
O O13 0.153347 0.299292 0.971800
O O14 0.129680 0.250000 0.250000
O O15 0.019559 0.275012 0.473299
O O16 0.585290 0.750000 0.250000
#
# Coordination Sequence:
#
# PCOD9411149 Si02
#       7
#     8   8   8   8   8   8   8
#     4  10  21  40  65  97 129 164 219 272 330 383
#     4  10  23  43  63  91 128 170 223 260 322 402
#     4   9  19  41  69  92 119 169 219 265 318 385
#     4  12  25  38  65  93 133 169 213 272 334 391
#     4   9  21  41  68  89 129 175 219 260 319 398
#     4  10  23  40  61  98 131 163 214 271 323 385
#     4  10  22  40  62  92 128 170 215 267 323 396
#
# _framework density 21.722894
#
# number of rings (size 3 to 8) (size 9 to 14) (size 15 to 20)
#    0.000    2.000    0.000    2.143    8.000    1.143 
#    2.571    6.429    0.000    0.000    0.000    0.000 
#    0.000    0.000    0.000    0.000    0.000    0.000 
#
# Total GULP energy -311939.782431 kJ/mol
# GULP energy per Si atom -5570.353258 kJ/mol
# Density = 2.167345 g / cm^3
# Si number density = 21.722894 Si / 1000 Ang^3
#
#
#
# Elastic Constant Matrix: (Units=GPa)
#
#
# Indices 1 2 3 4 5 6 
#
# 1 61.8625 19.3910 20.1291 0.0000 0.0000 0.0000
# 2 19.3910 44.5540 24.6097 0.0000 0.0000 0.0000
# 3 20.1291 24.6097 61.7661 0.0000 0.0000 0.0000
# 4 0.0000 0.0000 0.0000 14.4988 0.0000 0.0000
# 5 0.0000 0.0000 0.0000 0.0000 5.1958 0.0000
# 6 0.0000 0.0000 0.0000 0.0000 0.0000 28.6175
#
#
#
# Elastic Compliance Matrix: (Units=1/GPa)
#
#
# Indices 1 2 3 4 5 6 
#
# 1 0.019387 -0.006344 -0.003790 0.000000 0.000000 0.000000
# 2 -0.006344 0.030854 -0.010226 0.000000 0.000000 0.000000
# 3 -0.003790 -0.010226 0.021500 0.000000 0.000000 0.000000
# 4 0.000000 0.000000 0.000000 0.068971 0.000000 0.000000
# 5 0.000000 0.000000 0.000000 0.000000 0.192463 0.000000
# 6 0.000000 0.000000 0.000000 0.000000 0.000000 0.034944
#
#
# Mechanical properties :
#
#
# Convention : Reuss Voigt Hill
#
# Bulk Modulus (GPa) = 32.23709 32.93801 32.58755
# Shear Modulus (GPa) = 11.92807 16.59925 14.26366
#
# Velocity S-wave (km/s) = 2.34583 2.76730 2.56524
# Velocity P-wave (km/s) = 4.71271 5.04047 4.87934
#
# Compressibility (1/GPa) = 0.03102017
#
# Stress axis : x y z
#
# Youngs Moduli (GPa) = 51.58161 32.41066 46.51230
#
# Poissons Ratio (x) = 0.20561 0.17630
# Poissons Ratio (y) = 0.32723 0.47563
# Poissons Ratio (z) = 0.19551 0.33143
#
# Static dielectric constant tensor:
#      x y z
#    x 1.830180 0.000000 0.000000 
#    y 0.000000 1.856920 0.000000 
#    z 0.000000 0.000000 1.819830 
# 
# From -- ./inp_files/10804.got.cif
#   From: 2010.05.17/outbox.cif.g08.bks.cpg/sg52_6_cif.got.tgz:10804.got - 2010.06.03 12:15:38.
