data_PCOD9411417
_publ_section_title
;
Structure prediction by ZEFSAII (Michael W. Deem and Ramdas Pophale) SiO2 
 PCOD9411417
Probable space group: P N N A
;
_chemical_formula_sum "Si O2"
_cell_formula_units_Z 40
_cell_length_a 9.127684
_cell_length_b 12.609427
_cell_length_c 13.423430
_cell_angle_alpha 90.000000
_cell_angle_beta 90.000000
_cell_angle_gamma 90.000000
_cell_volume 1544.967865
_symmetry_space_group_name_H-M "P N N A"
_symmetry_group_IT_number 52
_symmetry_cell_setting 'orthorhombic'
loop_
_space_group_symop_operation_xyz
x,y,z
1/2-x,-y,z
x,1/2-y,1/2-z
1/2-x,1/2+y,1/2-z
-x,-y,-z
1/2+x,y,-z
-x,1/2+y,1/2+z
1/2+x,1/2-y,1/2+z
loop_
_atom_site_type_symbol
_atom_site_label
_atom_site_fract_x
_atom_site_fract_y
_atom_site_fract_z
Si Si1 0.581334 0.027550 0.746161
Si Si2 0.354089 0.861832 0.785779
Si Si3 0.546378 0.294973 0.597200
Si Si4 0.797133 0.382470 0.498139
Si Si5 0.361664 0.419867 0.899495
O O1 0.551835 0.142366 0.797185
O O2 0.502966 0.015802 0.639185
O O3 0.750000 0.000000 0.742808
O O4 0.485174 0.942541 0.804773
O O5 0.416071 0.750000 0.750000
O O6 0.259341 0.862286 0.885445
O O7 0.242259 0.891276 0.695931
O O8 0.716181 0.293822 0.564958
O O9 0.469486 0.371335 0.516028
O O10 0.448133 0.190224 0.578963
O O11 0.750000 0.500000 0.531638
O O12 0.250000 0.500000 0.957684
#
# Coordination Sequence:
#
# PCOD9411417 Si02
#       5
#     8   8   8   8   8
#     4  11  23  38  62  98 131 168 220 287 337 400
#     4  11  20  40  68  89 124 177 225 260 330 419
#     4  12  24  40  65  97 134 174 218 281 349 411
#     4  12  23  40  63 100 134 170 217 279 349 404
#     4  10  21  44  69  90 125 181 232 267 329 416
#
# _framework density 25.890508000000001
#
# number of rings (size 3 to 8) (size 9 to 14) (size 15 to 20)
#    0.000    0.800    6.000    2.400    2.800    1.600 
#    0.000    1.000    0.000    0.000    0.000    0.000 
#    0.000    0.000    0.000    0.000    0.000    0.000 
#
# Total GULP energy -223136.848381 kJ/mol
# GULP energy per Si atom -5578.421210 kJ/mol
# Density = 2.583158 g / cm^3
# Si number density = 25.890508 Si / 1000 Ang^3
#
#
#
# Elastic Constant Matrix: (Units=GPa)
#
#
# Indices 1 2 3 4 5 6 
#
# 1 147.8024 40.0836 10.9293 0.0000 0.0000 0.0000
# 2 40.0836 141.5888 4.8316 0.0000 0.0000 0.0000
# 3 10.9293 4.8316 17.0013 0.0000 0.0000 0.0000
# 4 0.0000 0.0000 0.0000 15.8556 0.0000 0.0000
# 5 0.0000 0.0000 0.0000 0.0000 27.9295 0.0000
# 6 0.0000 0.0000 0.0000 0.0000 0.0000 41.7312
#
#
#
# Elastic Compliance Matrix: (Units=1/GPa)
#
#
# Indices 1 2 3 4 5 6 
#
# 1 0.007632 -0.002013 -0.004334 0.000000 0.000000 0.000000
# 2 -0.002013 0.007663 -0.000884 0.000000 0.000000 0.000000
# 3 -0.004334 -0.000884 0.061857 0.000000 0.000000 0.000000
# 4 0.000000 0.000000 0.000000 0.063069 0.000000 0.000000
# 5 0.000000 0.000000 0.000000 0.000000 0.035804 0.000000
# 6 0.000000 0.000000 0.000000 0.000000 0.000000 0.023963
#
#
# Mechanical properties :
#
#
# Convention : Reuss Voigt Hill
#
# Bulk Modulus (GPa) = 15.95159 46.45349 31.20254
# Shear Modulus (GPa) = 21.24531 33.80646 27.52588
#
# Velocity S-wave (km/s) = 2.86769 3.61743 3.26416
# Velocity P-wave (km/s) = 4.13998 5.95223 5.12681
#
# Compressibility (1/GPa) = 0.06268969
#
# Stress axis : x y z
#
# Youngs Moduli (GPa) = 131.02477 130.50284 16.16643
#
# Poissons Ratio (x) = 0.26267 0.07007
# Poissons Ratio (y) = 0.26372 0.01429
# Poissons Ratio (z) = 0.56790 0.11534
#
# Static dielectric constant tensor:
#      x y z
#    x 2.028870 0.000000 0.000000 
#    y 0.000000 2.199020 0.000000 
#    z 0.000000 0.000000 2.126720 
# 
# From -- ./inp_files/24429.got.cif
#   From: 2010.05.17/outbox.cif.g08.bks.cpg/sg52_13_cif.got.tgz:24429.got - 2010.06.03 12:15:38.
