data_PCOD9411602
_publ_section_title
;
Structure prediction by ZEFSAII (Michael W. Deem and Ramdas Pophale) SiO2 
 PCOD9411602
Probable space group: P N N A
;
_chemical_formula_sum "Si O2"
_cell_formula_units_Z 56
_cell_length_a 9.577638
_cell_length_b 16.393572
_cell_length_c 14.513759
_cell_angle_alpha 90.000000
_cell_angle_beta 90.000000
_cell_angle_gamma 90.000000
_cell_volume 2278.829947
_symmetry_space_group_name_H-M "P N N A"
_symmetry_group_IT_number 52
_symmetry_cell_setting 'orthorhombic'
loop_
_space_group_symop_operation_xyz
x,y,z
1/2-x,-y,z
x,1/2-y,1/2-z
1/2-x,1/2+y,1/2-z
-x,-y,-z
1/2+x,y,-z
-x,1/2+y,1/2+z
1/2+x,1/2-y,1/2+z
loop_
_atom_site_type_symbol
_atom_site_label
_atom_site_fract_x
_atom_site_fract_y
_atom_site_fract_z
Si Si1 0.384608 0.948151 0.107555
Si Si2 0.413837 0.333450 0.552639
Si Si3 0.287014 0.380027 0.101647
Si Si4 0.293683 0.194144 0.139772
Si Si5 0.487519 0.080811 0.242574
Si Si6 0.279814 0.346790 0.749000
Si Si7 0.524246 0.647709 0.077514
O O1 0.479302 0.906233 0.030834
O O2 0.326639 0.870068 0.165878
O O3 0.250000 0.000000 0.077066
O O4 0.471326 0.005695 0.174309
O O5 0.309365 0.319519 0.469701
O O6 0.336690 0.358852 0.646023
O O7 0.491102 0.246542 0.566673
O O8 0.278707 0.289979 0.150131
O O9 0.378254 0.430766 0.174143
O O10 0.125832 0.395714 0.077439
O O11 0.377215 0.376514 0.008027
O O12 0.433884 0.159788 0.185408
O O13 0.644013 0.100070 0.271415
O O14 0.245101 0.250000 0.750000
O O15 0.395473 0.363885 0.826507
#
# Coordination Sequence:
#
# PCOD9411602 Si02
#       7
#     8   8   8   8   8   8   8
#     4  10  23  40  57  92 132 185 228 258 334 410
#     4  10  22  39  64  93 136 179 229 276 333 406
#     4  11  21  39  68 100 131 172 225 294 338 402
#     4  10  22  38  65  92 132 180 235 269 335 406
#     4  11  24  38  60  94 141 178 225 281 338 409
#     4  10  22  39  61  96 131 172 227 286 343 400
#     4  10  22  38  70 100 131 168 226 292 347 398
#
# _framework density 24.574013000000001
#
# number of rings (size 3 to 8) (size 9 to 14) (size 15 to 20)
#    0.000    1.714    1.429    2.143    6.000    6.286 
#    2.571    0.000    0.000    0.857    3.714    0.000 
#    0.000    0.000    0.000    0.000    0.000    0.000 
#
# Total GULP energy -313506.228313 kJ/mol
# GULP energy per Si atom -5598.325506 kJ/mol
# Density = 2.451808 g / cm^3
# Si number density = 24.574013 Si / 1000 Ang^3
#
#
#
# Elastic Constant Matrix: (Units=GPa)
#
#
# Indices 1 2 3 4 5 6 
#
# 1 156.7474 29.5066 46.6649 0.0000 0.0000 0.0000
# 2 29.5066 64.9925 10.8712 0.0000 0.0000 0.0000
# 3 46.6649 10.8712 103.8103 0.0000 0.0000 0.0000
# 4 0.0000 0.0000 0.0000 29.6892 0.0000 0.0000
# 5 0.0000 0.0000 0.0000 0.0000 34.0760 0.0000
# 6 0.0000 0.0000 0.0000 0.0000 0.0000 23.9079
#
#
#
# Elastic Compliance Matrix: (Units=1/GPa)
#
#
# Indices 1 2 3 4 5 6 
#
# 1 0.007919 -0.003053 -0.003240 0.000000 0.000000 0.000000
# 2 -0.003053 0.016838 -0.000391 0.000000 0.000000 0.000000
# 3 -0.003240 -0.000391 0.011130 0.000000 0.000000 0.000000
# 4 0.000000 0.000000 0.000000 0.033682 0.000000 0.000000
# 5 0.000000 0.000000 0.000000 0.000000 0.029346 0.000000
# 6 0.000000 0.000000 0.000000 0.000000 0.000000 0.041827
#
#
# Mechanical properties :
#
#
# Convention : Reuss Voigt Hill
#
# Bulk Modulus (GPa) = 44.40668 55.51507 49.96088
# Shear Modulus (GPa) = 30.93724 33.43512 32.18618
#
# Velocity S-wave (km/s) = 3.55201 3.69262 3.62299
# Velocity P-wave (km/s) = 5.91034 6.38910 6.15438
#
# Compressibility (1/GPa) = 0.02251913
#
# Stress axis : x y z
#
# Youngs Moduli (GPa) = 126.27801 59.38964 89.84449
#
# Poissons Ratio (x) = 0.18133 0.29110
# Poissons Ratio (y) = 0.38556 0.03511
# Poissons Ratio (z) = 0.40914 0.02321
#
# Static dielectric constant tensor:
#      x y z
#    x 1.987750 0.000000 0.000000 
#    y 0.000000 1.991700 0.000000 
#    z 0.000000 0.000000 1.924430 
# 
# From -- ./inp_files/24980.got.cif
#   From: 2010.05.17/outbox.cif.g08.bks.cpg/sg52_13_cif.got.tgz:24980.got - 2010.06.03 12:15:38.
