data_PCOD9411572
_publ_section_title
;
Structure prediction by ZEFSAII (Michael W. Deem and Ramdas Pophale) SiO2 
 PCOD9411572
Probable space group: P N N A
;
_chemical_formula_sum "Si O2"
_cell_formula_units_Z 40
_cell_length_a 12.842521
_cell_length_b 5.723443
_cell_length_c 23.305492
_cell_angle_alpha 90.000000
_cell_angle_beta 90.000000
_cell_angle_gamma 90.000000
_cell_volume 1713.033761
_symmetry_space_group_name_H-M "P N N A"
_symmetry_group_IT_number 52
_symmetry_cell_setting 'orthorhombic'
loop_
_space_group_symop_operation_xyz
x,y,z
1/2-x,-y,z
x,1/2-y,1/2-z
1/2-x,1/2+y,1/2-z
-x,-y,-z
1/2+x,y,-z
-x,1/2+y,1/2+z
1/2+x,1/2-y,1/2+z
loop_
_atom_site_type_symbol
_atom_site_label
_atom_site_fract_x
_atom_site_fract_y
_atom_site_fract_z
Si Si1 0.505997 0.888461 0.881037
Si Si2 0.342579 0.815834 0.067983
Si Si3 0.805192 0.762890 0.438728
Si Si4 0.432428 0.487590 0.738261
Si Si5 0.135668 0.989415 0.320297
O O1 0.414563 0.734704 0.905965
O O2 0.457777 0.029012 0.828644
O O3 0.600479 0.749115 0.851353
O O4 0.549721 0.044184 0.931748
O O5 0.351586 0.661530 0.125260
O O6 0.250000 0.000000 0.074045
O O7 0.325440 0.700946 0.006656
O O8 0.750000 0.500000 0.431905
O O9 0.750000 0.000000 0.418023
O O10 0.391250 0.750000 0.750000
O O11 0.540202 0.474662 0.775991
O O12 0.369956 0.250000 0.750000
O O13 0.250000 0.000000 0.291514
#
# Coordination Sequence:
#
# PCOD9411572 Si02
#       5
#     8   8   8   8   8
#     4  11  24  43  68  98 138 187 230 281 352 418
#     4  11  22  40  66 103 140 183 225 280 353 436
#     4  11  28  47  69  98 136 185 247 300 339 395
#     4  10  22  38  60  96 133 172 218 266 333 417
#     4  11  22  37  65  99 146 177 217 276 355 435
#
# _framework density 23.350387999999999
#
# number of rings (size 3 to 8) (size 9 to 14) (size 15 to 20)
#    0.000    1.200    4.000    1.200    5.600    4.000 
#    0.000    0.000    0.000   14.400    0.000    0.000 
#    0.000    0.000    0.000    0.000    0.000    0.000 
#
# Total GULP energy -223081.258127 kJ/mol
# GULP energy per Si atom -5577.031453 kJ/mol
# Density = 2.329724 g / cm^3
# Si number density = 23.350388 Si / 1000 Ang^3
#
#
#
# Elastic Constant Matrix: (Units=GPa)
#
#
# Indices 1 2 3 4 5 6 
#
# 1 63.9675 22.6022 10.4264 0.0000 0.0000 0.0000
# 2 22.6022 126.8672 7.6491 0.0000 0.0000 0.0000
# 3 10.4264 7.6491 65.9696 0.0000 0.0000 0.0000
# 4 0.0000 0.0000 0.0000 61.3722 0.0000 0.0000
# 5 0.0000 0.0000 0.0000 0.0000 -22.4793 0.0000
# 6 0.0000 0.0000 0.0000 0.0000 0.0000 29.8227
#
#
#
# Elastic Compliance Matrix: (Units=1/GPa)
#
#
# Indices 1 2 3 4 5 6 
#
# 1 0.017040 -0.002894 -0.002358 0.000000 0.000000 0.000000
# 2 -0.002894 0.008429 -0.000520 0.000000 0.000000 0.000000
# 3 -0.002358 -0.000520 0.015591 0.000000 0.000000 0.000000
# 4 0.000000 0.000000 0.000000 0.016294 0.000000 0.000000
# 5 0.000000 0.000000 0.000000 0.000000 -0.044485 0.000000
# 6 0.000000 0.000000 0.000000 0.000000 0.000000 0.033532
#
#
# Mechanical properties :
#
#
# Convention : Reuss Voigt Hill
#
# Bulk Modulus (GPa) = 33.87788 37.57330 35.72559
# Shear Modulus (GPa) = 73.76587 28.15155 50.95871
#
# Velocity S-wave (km/s) = 5.62667 3.47596 4.67663
# Velocity P-wave (km/s) = 7.53343 5.67765 6.67039
#
# Compressibility (1/GPa) = 0.02951778
#
# Stress axis : x y z
#
# Youngs Moduli (GPa) = 58.68677 118.63633 64.13791
#
# Poissons Ratio (x) = 0.34328 0.15121
# Poissons Ratio (y) = 0.16981 0.03335
# Poissons Ratio (z) = 0.13836 0.06169
#
# Static dielectric constant tensor:
#      x y z
#    x 1.910720 0.000000 0.000000 
#    y 0.000000 2.018700 0.000000 
#    z 0.000000 0.000000 1.870530 
# 
# From -- ./inp_files/40460.got.cif
#   From: 2010.05.17/outbox.cif.g08.bks.cpg/sg52_21_cif.got.tgz:40460.got - 2010.06.03 12:15:38.
