data_PCOD9411544
_publ_section_title
;
Structure prediction by ZEFSAII (Michael W. Deem and Ramdas Pophale) SiO2 
 PCOD9411544
Probable space group: P N N A
;
_chemical_formula_sum "Si O2"
_cell_formula_units_Z 44
_cell_length_a 13.583956
_cell_length_b 8.785460
_cell_length_c 19.486917
_cell_angle_alpha 90.000000
_cell_angle_beta 90.000000
_cell_angle_gamma 90.000000
_cell_volume 2325.594048
_symmetry_space_group_name_H-M "P N N A"
_symmetry_group_IT_number 52
_symmetry_cell_setting 'orthorhombic'
loop_
_space_group_symop_operation_xyz
x,y,z
1/2-x,-y,z
x,1/2-y,1/2-z
1/2-x,1/2+y,1/2-z
-x,-y,-z
1/2+x,y,-z
-x,1/2+y,1/2+z
1/2+x,1/2-y,1/2+z
loop_
_atom_site_type_symbol
_atom_site_label
_atom_site_fract_x
_atom_site_fract_y
_atom_site_fract_z
Si Si1 0.635371 0.801220 0.058825
Si Si2 0.361948 0.025917 0.648077
Si Si3 0.978443 0.250000 0.250000
Si Si4 0.949147 0.572163 0.619532
Si Si5 0.563066 0.295933 0.321883
Si Si6 0.250000 0.500000 0.449640
Si Si7 0.750000 0.000000 0.170325
O O1 0.638976 0.624115 0.078034
O O2 0.521848 0.853105 0.062935
O O3 0.686327 0.884636 0.123909
O O4 0.696892 0.870654 0.996325
O O5 0.414479 0.128035 0.706646
O O6 0.250000 0.000000 0.669622
O O7 0.410180 0.860696 0.640591
O O8 0.038275 0.337387 0.308925
O O9 0.838240 0.568523 0.594522
O O10 0.994137 0.405359 0.634183
O O11 0.514413 0.250000 0.250000
O O12 0.663366 0.389104 0.301916
#
# Coordination Sequence:
#
# PCOD9411544 Si02
#       7
#     8   8   4   8   8   4   4
#     4   9  20  37  60  85 117 153 211 247 294 361
#     4  11  21  32  59  92 129 156 194 256 316 368
#     4  10  22  38  56  92 126 162 198 258 308 372
#     4  10  22  40  63  89 118 162 207 255 309 362
#     4  11  21  31  55  91 127 154 193 248 318 375
#     4  11  22  44  68  82 114 180 211 246 302 375
#     4   9  18  30  50  86 116 158 185 236 300 365
#
# _framework density 18.919896999999999
#
# number of rings (size 3 to 8) (size 9 to 14) (size 15 to 20)
#    0.000    1.818    3.636    0.545    2.545    0.000 
#    4.909    0.909    4.000    0.000    0.000    0.000 
#    0.000    0.000    0.000    0.000    0.000    0.000 
#
# Total GULP energy -245428.708383 kJ/mol
# GULP energy per Si atom -5577.925191 kJ/mol
# Density = 1.887683 g / cm^3
# Si number density = 18.919897 Si / 1000 Ang^3
#
#
#
# Elastic Constant Matrix: (Units=GPa)
#
#
# Indices 1 2 3 4 5 6 
#
# 1 140.1350 47.5217 59.1169 0.0000 0.0000 0.0000
# 2 47.5217 139.7722 48.5396 0.0000 0.0000 0.0000
# 3 59.1169 48.5396 76.6415 0.0000 0.0000 0.0000
# 4 0.0000 0.0000 0.0000 17.5700 0.0000 0.0000
# 5 0.0000 0.0000 0.0000 0.0000 35.5151 0.0000
# 6 0.0000 0.0000 0.0000 0.0000 0.0000 10.3239
#
#
#
# Elastic Compliance Matrix: (Units=1/GPa)
#
#
# Indices 1 2 3 4 5 6 
#
# 1 0.010683 -0.000988 -0.007615 0.000000 0.000000 0.000000
# 2 -0.000988 0.009263 -0.005105 0.000000 0.000000 0.000000
# 3 -0.007615 -0.005105 0.022154 0.000000 0.000000 0.000000
# 4 0.000000 0.000000 0.000000 0.056915 0.000000 0.000000
# 5 0.000000 0.000000 0.000000 0.000000 0.028157 0.000000
# 6 0.000000 0.000000 0.000000 0.000000 0.000000 0.096863
#
#
# Mechanical properties :
#
#
# Convention : Reuss Voigt Hill
#
# Bulk Modulus (GPa) = 68.09175 74.10056 71.09616
# Shear Modulus (GPa) = 19.50488 26.10651 22.80570
#
# Velocity S-wave (km/s) = 3.21428 3.71866 3.47563
# Velocity P-wave (km/s) = 7.05996 7.59528 7.33251
#
# Compressibility (1/GPa) = 0.01468607
#
# Stress axis : x y z
#
# Youngs Moduli (GPa) = 93.60357 107.95544 45.13767
#
# Poissons Ratio (x) = 0.10664 0.34372
# Poissons Ratio (y) = 0.09246 0.23041
# Poissons Ratio (z) = 0.71278 0.55108
#
# Static dielectric constant tensor:
#      x y z
#    x 1.651270 0.000000 0.000000 
#    y 0.000000 1.705840 0.000000 
#    z 0.000000 0.000000 1.726000 
# 
# From -- ./inp_files/32989.got.cif
#   From: 2010.05.17/outbox.cif.g08.bks.cpg/sg52_17_cif.got.tgz:32989.got - 2010.06.03 12:15:38.
