data_PCOD9411874
_publ_section_title
;
Structure prediction by ZEFSAII (Michael W. Deem and Ramdas Pophale) SiO2 
 PCOD9411874
Probable space group: P N N A
;
_chemical_formula_sum "Si O2"
_cell_formula_units_Z 32
_cell_length_a 11.341591
_cell_length_b 7.916258
_cell_length_c 14.209773
_cell_angle_alpha 90.000000
_cell_angle_beta 90.000000
_cell_angle_gamma 90.000000
_cell_volume 1275.795488
_symmetry_space_group_name_H-M "P N N A"
_symmetry_group_IT_number 52
_symmetry_cell_setting 'orthorhombic'
loop_
_space_group_symop_operation_xyz
x,y,z
1/2-x,-y,z
x,1/2-y,1/2-z
1/2-x,1/2+y,1/2-z
-x,-y,-z
1/2+x,y,-z
-x,1/2+y,1/2+z
1/2+x,1/2-y,1/2+z
loop_
_atom_site_type_symbol
_atom_site_label
_atom_site_fract_x
_atom_site_fract_y
_atom_site_fract_z
Si Si1 0.763351 0.196821 0.659622
Si Si2 0.961654 0.248782 0.536863
Si Si3 0.476847 0.899263 0.149581
Si Si4 0.620104 0.424457 0.188864
O O1 0.842624 0.250000 0.750000
O O2 0.827178 0.211827 0.561277
O O3 0.654018 0.324671 0.664365
O O4 0.750000 0.000000 0.671889
O O5 0.978806 0.428175 0.589683
O O6 0.973229 0.266204 0.425945
O O7 0.049022 0.123566 0.593185
O O8 0.545338 0.945302 0.244931
O O9 0.750000 0.500000 0.172155
O O10 0.632899 0.250000 0.250000
#
# Coordination Sequence:
#
# PCOD9411874 Si02
#       4
#     8   8   8   8
#     4  12  24  41  67  96 133 179 231 293 357 426
#     4  10  22  42  67  98 135 179 236 290 351 432
#     4  10  23  42  66  97 134 182 233 289 357 426
#     4  10  22  41  68 102 143 190 237 293 364 433
#
# _framework density 25.082391000000001
#
# number of rings (size 3 to 8) (size 9 to 14) (size 15 to 20)
#    0.000    1.500    0.000    6.000    0.000   11.000 
#    0.000    0.000    0.000    0.000    0.000    0.000 
#    0.000    0.000    0.000    0.000    0.000    0.000 
#
# Total GULP energy -179001.402286 kJ/mol
# GULP energy per Si atom -5593.793821 kJ/mol
# Density = 2.502530 g / cm^3
# Si number density = 25.082391 Si / 1000 Ang^3
#
#
#
# Elastic Constant Matrix: (Units=GPa)
#
#
# Indices 1 2 3 4 5 6 
#
# 1 153.6870 63.1952 68.5335 0.0000 0.0000 0.0000
# 2 63.1952 138.0606 73.4220 0.0000 0.0000 0.0000
# 3 68.5335 73.4220 165.3589 0.0000 0.0000 0.0000
# 4 0.0000 0.0000 0.0000 35.2463 0.0000 0.0000
# 5 0.0000 0.0000 0.0000 0.0000 27.7365 0.0000
# 6 0.0000 0.0000 0.0000 0.0000 0.0000 41.1029
#
#
#
# Elastic Compliance Matrix: (Units=1/GPa)
#
#
# Indices 1 2 3 4 5 6 
#
# 1 0.008688 -0.002699 -0.002402 0.000000 0.000000 0.000000
# 2 -0.002699 0.010321 -0.003464 0.000000 0.000000 0.000000
# 3 -0.002402 -0.003464 0.008581 0.000000 0.000000 0.000000
# 4 0.000000 0.000000 0.000000 0.028372 0.000000 0.000000
# 5 0.000000 0.000000 0.000000 0.000000 0.036054 0.000000
# 6 0.000000 0.000000 0.000000 0.000000 0.000000 0.024329
#
#
# Mechanical properties :
#
#
# Convention : Reuss Voigt Hill
#
# Bulk Modulus (GPa) = 95.61053 96.37867 95.99460
# Shear Modulus (GPa) = 36.50663 37.61420 37.06041
#
# Velocity S-wave (km/s) = 3.81920 3.87670 3.84806
# Velocity P-wave (km/s) = 7.59274 7.65158 7.62222
#
# Compressibility (1/GPa) = 0.01045910
#
# Stress axis : x y z
#
# Youngs Moduli (GPa) = 115.10333 96.89091 116.53520
#
# Poissons Ratio (x) = 0.26153 0.27994
# Poissons Ratio (y) = 0.31069 0.40367
# Poissons Ratio (z) = 0.27650 0.33562
#
# Static dielectric constant tensor:
#      x y z
#    x 2.032530 0.000000 0.000000 
#    y 0.000000 2.301700 0.000000 
#    z 0.000000 0.000000 2.760270 
# 
# From -- ./inp_files/25578.got.cif
#   From: 2010.05.17/outbox.cif.g08.bks.cpg/sg52_13_cif.got.tgz:25578.got - 2010.06.03 12:15:38.
