data_PCOD9411990
_publ_section_title
;
Structure prediction by ZEFSAII (Michael W. Deem and Ramdas Pophale) SiO2 
 PCOD9411990
Probable space group: P N N A
;
_chemical_formula_sum "Si O2"
_cell_formula_units_Z 48
_cell_length_a 10.010855
_cell_length_b 15.851586
_cell_length_c 14.422607
_cell_angle_alpha 90.000000
_cell_angle_beta 90.000000
_cell_angle_gamma 90.000000
_cell_volume 2288.693635
_symmetry_space_group_name_H-M "P N N A"
_symmetry_group_IT_number 52
_symmetry_cell_setting 'orthorhombic'
loop_
_space_group_symop_operation_xyz
x,y,z
1/2-x,-y,z
x,1/2-y,1/2-z
1/2-x,1/2+y,1/2-z
-x,-y,-z
1/2+x,y,-z
-x,1/2+y,1/2+z
1/2+x,1/2-y,1/2+z
loop_
_atom_site_type_symbol
_atom_site_label
_atom_site_fract_x
_atom_site_fract_y
_atom_site_fract_z
Si Si1 0.119702 0.250000 0.750000
Si Si2 0.264737 0.855090 0.892073
Si Si3 0.894944 0.338400 0.841789
Si Si4 0.408855 0.700191 0.163111
Si Si5 0.007096 0.011639 0.389356
Si Si6 0.485497 0.302699 0.491790
Si Si7 0.250000 0.500000 0.761056
O O1 0.211450 0.233721 0.838470
O O2 0.012681 0.324338 0.766960
O O3 0.143725 0.847603 0.963965
O O4 0.237926 0.921406 0.810116
O O5 0.408599 0.865000 0.942218
O O6 0.746933 0.312608 0.815841
O O7 0.891492 0.437055 0.863270
O O8 0.938197 0.273737 0.924168
O O9 0.471364 0.750000 0.250000
O O10 0.460759 0.607167 0.138883
O O11 0.433093 0.758221 0.074198
O O12 0.000000 0.000000 0.500000
O O13 0.873794 0.991792 0.331072
#
# Coordination Sequence:
#
# PCOD9411990 Si02
#       7
#     4   8   8   8   8   8   4
#     4  10  22  42  70  92 142 186 228 282 362 436
#     4  11  25  45  72 102 142 194 248 292 371 442
#     4  11  22  44  66 100 136 179 230 293 362 423
#     4  12  25  42  69 104 142 182 241 296 361 435
#     4  12  27  42  70 104 141 182 235 301 366 431
#     4  11  24  43  73 103 137 195 236 300 360 437
#     4  12  28  48  68 102 146 194 242 304 368 444
#
# _framework density 20.972663000000001
#
# number of rings (size 3 to 8) (size 9 to 14) (size 15 to 20)
#    0.000    0.667    5.833    1.500    5.833    0.667 
#    0.000    0.000    0.000    0.000    0.000    0.000 
#    0.000    0.000    0.000    0.000    0.000    0.000 
#
# Total GULP energy -267778.071972 kJ/mol
# GULP energy per Si atom -5578.709833 kJ/mol
# Density = 2.092493 g / cm^3
# Si number density = 20.972663 Si / 1000 Ang^3
#
#
#
# Elastic Constant Matrix: (Units=GPa)
#
#
# Indices 1 2 3 4 5 6 
#
# 1 109.5599 24.7664 44.7141 0.0000 0.0000 0.0000
# 2 24.7664 90.9464 47.0767 0.0000 0.0000 0.0000
# 3 44.7141 47.0767 114.5195 0.0000 0.0000 0.0000
# 4 0.0000 0.0000 0.0000 33.5758 0.0000 0.0000
# 5 0.0000 0.0000 0.0000 0.0000 34.8882 0.0000
# 6 0.0000 0.0000 0.0000 0.0000 0.0000 27.8959
#
#
#
# Elastic Compliance Matrix: (Units=1/GPa)
#
#
# Indices 1 2 3 4 5 6 
#
# 1 0.010925 -0.000974 -0.003865 0.000000 0.000000 0.000000
# 2 -0.000974 0.014055 -0.005397 0.000000 0.000000 0.000000
# 3 -0.003865 -0.005397 0.012460 0.000000 0.000000 0.000000
# 4 0.000000 0.000000 0.000000 0.029783 0.000000 0.000000
# 5 0.000000 0.000000 0.000000 0.000000 0.028663 0.000000
# 6 0.000000 0.000000 0.000000 0.000000 0.000000 0.035848
#
#
# Mechanical properties :
#
#
# Convention : Reuss Voigt Hill
#
# Bulk Modulus (GPa) = 58.94031 60.90447 59.92239
# Shear Modulus (GPa) = 31.67318 32.50323 32.08821
#
# Velocity S-wave (km/s) = 3.89036 3.94101 3.91577
# Velocity P-wave (km/s) = 6.95301 7.05774 7.00557
#
# Compressibility (1/GPa) = 0.01696632
#
# Stress axis : x y z
#
# Youngs Moduli (GPa) = 91.53178 71.15136 80.25723
#
# Poissons Ratio (x) = 0.06933 0.31021
# Poissons Ratio (y) = 0.08919 0.43316
# Poissons Ratio (z) = 0.35379 0.38401
#
# Static dielectric constant tensor:
#      x y z
#    x 1.768990 0.000000 0.000000 
#    y 0.000000 1.792930 0.000000 
#    z 0.000000 0.000000 1.806110 
# 
# From -- ./inp_files/24785.got.cif
#   From: 2010.05.17/outbox.cif.g08.bks.cpg/sg52_13_cif.got.tgz:24785.got - 2010.06.03 12:15:38.
