data_PCOD9411355
_publ_section_title
;
Structure prediction by ZEFSAII (Michael W. Deem and Ramdas Pophale) SiO2 
 PCOD9411355
Probable space group: P N N A
;
_chemical_formula_sum "Si O2"
_cell_formula_units_Z 28
_cell_length_a 8.740608
_cell_length_b 7.254559
_cell_length_c 16.786588
_cell_angle_alpha 90.000000
_cell_angle_beta 90.000000
_cell_angle_gamma 90.000000
_cell_volume 1064.425063
_symmetry_space_group_name_H-M "P N N A"
_symmetry_group_IT_number 52
_symmetry_cell_setting 'orthorhombic'
loop_
_space_group_symop_operation_xyz
x,y,z
1/2-x,-y,z
x,1/2-y,1/2-z
1/2-x,1/2+y,1/2-z
-x,-y,-z
1/2+x,y,-z
-x,1/2+y,1/2+z
1/2+x,1/2-y,1/2+z
loop_
_atom_site_type_symbol
_atom_site_label
_atom_site_fract_x
_atom_site_fract_y
_atom_site_fract_z
Si Si1 0.750000 0.000000 0.720380
Si Si2 0.741662 0.250000 0.250000
Si Si3 0.944555 0.208978 0.587665
Si Si4 0.526832 0.950229 0.173810
Si Si5 0.250000 0.500000 0.957819
O O1 0.846156 0.135016 0.662672
O O2 0.871871 0.915855 0.781088
O O3 0.624401 0.086877 0.230787
O O4 0.862610 0.272416 0.324277
O O5 0.985752 0.425022 0.598058
O O6 0.107566 0.103759 0.583607
O O7 0.839030 0.149853 0.513646
#
# Coordination Sequence:
#
# PCOD9411355 Si02
#       5
#     4   4   8   8   4
#     4  11  22  36  66 110 140 169 224 296 374 417
#     4  10  24  40  62 102 142 180 220 282 400 418
#     4  10  21  42  69 105 141 185 245 284 347 441
#     4  11  23  41  66 108 140 182 226 298 372 427
#     4   9  22  42  74 102 138 205 238 284 346 417
#
# _framework density 26.30528
#
# number of rings (size 3 to 8) (size 9 to 14) (size 15 to 20)
#    0.000    1.714    2.857    0.000    8.000    0.000 
#    0.000    0.000    0.000   12.000    0.000    0.000 
#    0.000    0.000    0.000    0.000    0.000    0.000 
#
# Total GULP energy -156275.308275 kJ/mol
# GULP energy per Si atom -5581.261010 kJ/mol
# Density = 2.624541 g / cm^3
# Si number density = 26.305280 Si / 1000 Ang^3
#
#
#
# Elastic Constant Matrix: (Units=GPa)
#
#
# Indices 1 2 3 4 5 6 
#
# 1 242.5288 43.2786 55.6224 0.0000 0.0000 0.0000
# 2 43.2786 91.6071 30.7746 0.0000 0.0000 0.0000
# 3 55.6224 30.7746 94.7941 0.0000 0.0000 0.0000
# 4 0.0000 0.0000 0.0000 37.1569 0.0000 0.0000
# 5 0.0000 0.0000 0.0000 0.0000 39.6758 0.0000
# 6 0.0000 0.0000 0.0000 0.0000 0.0000 49.4742
#
#
#
# Elastic Compliance Matrix: (Units=1/GPa)
#
#
# Indices 1 2 3 4 5 6 
#
# 1 0.004948 -0.001529 -0.002407 0.000000 0.000000 0.000000
# 2 -0.001529 0.012725 -0.003234 0.000000 0.000000 0.000000
# 3 -0.002407 -0.003234 0.013011 0.000000 0.000000 0.000000
# 4 0.000000 0.000000 0.000000 0.026913 0.000000 0.000000
# 5 0.000000 0.000000 0.000000 0.000000 0.025204 0.000000
# 6 0.000000 0.000000 0.000000 0.000000 0.000000 0.020213
#
#
# Mechanical properties :
#
#
# Convention : Reuss Voigt Hill
#
# Bulk Modulus (GPa) = 61.18249 76.47570 68.82909
# Shear Modulus (GPa) = 40.71582 45.21167 42.96375
#
# Velocity S-wave (km/s) = 3.93850 4.15025 4.04576
# Velocity P-wave (km/s) = 6.63261 7.21815 6.93156
#
# Compressibility (1/GPa) = 0.01634455
#
# Stress axis : x y z
#
# Youngs Moduli (GPa) = 202.09744 78.58562 76.85558
#
# Poissons Ratio (x) = 0.12016 0.18499
# Poissons Ratio (y) = 0.30902 0.24854
# Poissons Ratio (z) = 0.48645 0.25414
#
# Static dielectric constant tensor:
#      x y z
#    x 1.999560 0.000000 0.000000 
#    y 0.000000 2.458230 0.000000 
#    z 0.000000 0.000000 2.069340 
# 
# From -- ./inp_files/35415.got.cif
#   From: 2010.05.17/outbox.cif.g08.bks.cpg/sg52_18_cif.got.tgz:35415.got - 2010.06.03 12:15:38.
