data_PCOD9411055
_publ_section_title
;
Structure prediction by ZEFSAII (Michael W. Deem and Ramdas Pophale) SiO2 
 PCOD9411055
Probable space group: P N N A
;
_chemical_formula_sum "Si O2"
_cell_formula_units_Z 56
_cell_length_a 14.390015
_cell_length_b 13.325618
_cell_length_c 13.155429
_cell_angle_alpha 90.000000
_cell_angle_beta 90.000000
_cell_angle_gamma 90.000000
_cell_volume 2522.630377
_symmetry_space_group_name_H-M "P N N A"
_symmetry_group_IT_number 52
_symmetry_cell_setting 'orthorhombic'
loop_
_space_group_symop_operation_xyz
x,y,z
1/2-x,-y,z
x,1/2-y,1/2-z
1/2-x,1/2+y,1/2-z
-x,-y,-z
1/2+x,y,-z
-x,1/2+y,1/2+z
1/2+x,1/2-y,1/2+z
loop_
_atom_site_type_symbol
_atom_site_label
_atom_site_fract_x
_atom_site_fract_y
_atom_site_fract_z
Si Si1 0.695520 0.239196 0.522330
Si Si2 0.601040 0.794191 0.554775
Si Si3 0.523260 0.295103 0.859837
Si Si4 0.826084 0.577260 0.138011
Si Si5 0.470750 0.017062 0.313994
Si Si6 0.489144 0.422485 0.405922
Si Si7 0.203899 0.107702 0.857603
O O1 0.788573 0.197850 0.572509
O O2 0.609917 0.268918 0.594251
O O3 0.651283 0.157857 0.446352
O O4 0.738778 0.321553 0.446300
O O5 0.561886 0.802961 0.439253
O O6 0.560499 0.885660 0.622172
O O7 0.565281 0.682128 0.581111
O O8 0.496679 0.250000 0.750000
O O9 0.562060 0.408548 0.850279
O O10 0.750000 0.500000 0.098500
O O11 0.784562 0.631018 0.238465
O O12 0.917255 0.518353 0.172913
O O13 0.448188 0.026652 0.195102
O O14 0.500000 0.500000 0.500000
O O15 0.594180 0.393166 0.377475
O O16 0.250000 0.000000 0.870873
#
# Coordination Sequence:
#
# PCOD9411055 Si02
#       7
#     8   8   8   8   8   8   8
#     4  12  25  41  69  97 139 181 237 284 357 420
#     4  12  25  44  70  99 137 189 241 286 351 431
#     4  12  27  46  67 101 145 184 236 297 364 426
#     4  10  21  39  69 101 132 169 226 290 358 417
#     4  11  24  43  69  99 137 181 231 289 353 432
#     4  11  22  42  71 100 136 181 226 288 354 420
#     4  10  21  40  65 102 133 168 225 290 352 420
#
# _framework density 22.199051999999998
#
# number of rings (size 3 to 8) (size 9 to 14) (size 15 to 20)
#    0.000    0.857    2.857    3.857    2.000    6.857 
#    0.000    0.000    0.000    0.000    0.000    0.000 
#    0.000    0.000    0.000    0.000    0.000    0.000 
#
# Total GULP energy -312720.929256 kJ/mol
# GULP energy per Si atom -5584.302308 kJ/mol
# Density = 2.214853 g / cm^3
# Si number density = 22.199052 Si / 1000 Ang^3
#
#
#
# Elastic Constant Matrix: (Units=GPa)
#
#
# Indices 1 2 3 4 5 6 
#
# 1 45.4155 -13.1148 -7.5281 0.0000 0.0000 0.0000
# 2 -13.1148 80.0960 27.5030 0.0000 0.0000 0.0000
# 3 -7.5281 27.5030 97.4919 0.0000 0.0000 0.0000
# 4 0.0000 0.0000 0.0000 86.5361 0.0000 0.0000
# 5 0.0000 0.0000 0.0000 0.0000 24.6281 0.0000
# 6 0.0000 0.0000 0.0000 0.0000 0.0000 30.2572
#
#
#
# Elastic Compliance Matrix: (Units=1/GPa)
#
#
# Indices 1 2 3 4 5 6 
#
# 1 0.023167 0.003520 0.000796 0.000000 0.000000 0.000000
# 2 0.003520 0.014359 -0.003779 0.000000 0.000000 0.000000
# 3 0.000796 -0.003779 0.011385 0.000000 0.000000 0.000000
# 4 0.000000 0.000000 0.000000 0.011556 0.000000 0.000000
# 5 0.000000 0.000000 0.000000 0.000000 0.040604 0.000000
# 6 0.000000 0.000000 0.000000 0.000000 0.000000 0.033050
#
#
# Mechanical properties :
#
#
# Convention : Reuss Voigt Hill
#
# Bulk Modulus (GPa) = 20.00592 26.30263 23.15427
# Shear Modulus (GPa) = 33.39820 42.69383 38.04602
#
# Velocity S-wave (km/s) = 3.88298 4.39022 4.14437
# Velocity P-wave (km/s) = 5.39769 6.12968 5.77529
#
# Compressibility (1/GPa) = 0.04998519
#
# Stress axis : x y z
#
# Youngs Moduli (GPa) = 43.16422 69.64277 87.83652
#
# Poissons Ratio (x) = -0.24515 -0.06991
# Poissons Ratio (y) = -0.15194 0.33193
# Poissons Ratio (z) = -0.03435 0.26318
#
# Static dielectric constant tensor:
#      x y z
#    x 1.961250 0.000000 0.000000 
#    y 0.000000 1.883100 0.000000 
#    z 0.000000 0.000000 1.798820 
# 
# From -- ./inp_files/19646.got.cif
#   From: 2010.05.17/outbox.cif.g08.bks.cpg/sg52_10_cif.got.tgz:19646.got - 2010.06.03 12:15:38.
