data_PCOD9411850
_publ_section_title
;
Structure prediction by ZEFSAII (Michael W. Deem and Ramdas Pophale) SiO2 
 PCOD9411850
Probable space group: P N N A
;
_chemical_formula_sum "Si O2"
_cell_formula_units_Z 40
_cell_length_a 12.961191
_cell_length_b 5.130919
_cell_length_c 29.189717
_cell_angle_alpha 90.000000
_cell_angle_beta 90.000000
_cell_angle_gamma 90.000000
_cell_volume 1941.198529
_symmetry_space_group_name_H-M "P N N A"
_symmetry_group_IT_number 52
_symmetry_cell_setting 'orthorhombic'
loop_
_space_group_symop_operation_xyz
x,y,z
1/2-x,-y,z
x,1/2-y,1/2-z
1/2-x,1/2+y,1/2-z
-x,-y,-z
1/2+x,y,-z
-x,1/2+y,1/2+z
1/2+x,1/2-y,1/2+z
loop_
_atom_site_type_symbol
_atom_site_label
_atom_site_fract_x
_atom_site_fract_y
_atom_site_fract_z
Si Si1 0.820230 0.750000 0.250000
Si Si2 0.957148 0.254953 0.027356
Si Si3 0.103502 0.355021 0.851468
Si Si4 0.678006 0.249866 0.700983
Si Si5 0.491523 0.852507 0.128733
Si Si6 0.750000 0.500000 0.070491
O O1 0.750000 0.500000 0.254939
O O2 0.875872 0.719235 0.201079
O O3 0.835813 0.333012 0.040893
O O4 0.011955 0.225837 0.076244
O O5 0.000000 0.500000 0.000000
O O6 0.000000 0.000000 0.000000
O O7 0.185993 0.320982 0.893010
O O8 0.081381 0.664080 0.851713
O O9 0.012807 0.158300 0.865956
O O10 0.750000 0.500000 0.702058
O O11 0.619108 0.250000 0.750000
O O12 0.605510 0.270210 0.657979
O O13 0.750000 0.000000 0.698435
#
# Coordination Sequence:
#
# PCOD9411850 Si02
#       6
#     4   8   8   8   8   4
#     4  12  24  38  58 102 138 170 230 254 306 414
#     4  11  25  46  70 101 131 175 232 282 346 417
#     4  11  24  39  67  98 135 183 209 270 337 401
#     4  10  22  41  65  93 130 174 218 271 337 393
#     4  11  24  43  68  95 135 167 230 277 334 411
#     4  10  24  48  70  98 142 182 216 288 358 402
#
# _framework density 20.605826
#
# number of rings (size 3 to 8) (size 9 to 14) (size 15 to 20)
#    0.000    1.200    1.000    4.800    5.600    4.000 
#    5.400    0.000    0.000    0.000    0.000    0.000 
#    0.000    0.000    0.000    0.000    0.000    0.000 
#
# Total GULP energy -222865.873073 kJ/mol
# GULP energy per Si atom -5571.646827 kJ/mol
# Density = 2.055893 g / cm^3
# Si number density = 20.605826 Si / 1000 Ang^3
#
#
#
# Elastic Constant Matrix: (Units=GPa)
#
#
# Indices 1 2 3 4 5 6 
#
# 1 74.7496 20.1742 57.8579 0.0000 0.0000 0.0000
# 2 20.1742 110.0108 34.4653 0.0000 0.0000 0.0000
# 3 57.8579 34.4653 172.1459 0.0000 0.0000 0.0000
# 4 0.0000 0.0000 0.0000 25.7890 0.0000 0.0000
# 5 0.0000 0.0000 0.0000 0.0000 -8.0690 0.0000
# 6 0.0000 0.0000 0.0000 0.0000 0.0000 30.1933
#
#
#
# Elastic Compliance Matrix: (Units=1/GPa)
#
#
# Indices 1 2 3 4 5 6 
#
# 1 0.018319 -0.001526 -0.005851 0.000000 0.000000 0.000000
# 2 -0.001526 0.009825 -0.001454 0.000000 0.000000 0.000000
# 3 -0.005851 -0.001454 0.008067 0.000000 0.000000 0.000000
# 4 0.000000 0.000000 0.000000 0.038776 0.000000 0.000000
# 5 0.000000 0.000000 0.000000 0.000000 -0.123931 0.000000
# 6 0.000000 0.000000 0.000000 0.000000 0.000000 0.033120
#
#
# Mechanical properties :
#
#
# Convention : Reuss Voigt Hill
#
# Bulk Modulus (GPa) = 53.91519 64.65570 59.28544
# Shear Modulus (GPa) = 623.23180 25.87660 324.55420
#
# Velocity S-wave (km/s) = 17.41008 3.54756 12.56376
# Velocity P-wave (km/s) = 20.74535 6.94447 15.46925
#
# Compressibility (1/GPa) = 0.01854765
#
# Stress axis : x y z
#
# Youngs Moduli (GPa) = 54.58801 101.77615 123.96455
#
# Poissons Ratio (x) = 0.15533 0.72537
# Poissons Ratio (y) = 0.08331 0.18027
# Poissons Ratio (z) = 0.31942 0.14800
#
# Static dielectric constant tensor:
#      x y z
#    x 1.870050 0.000000 0.000000 
#    y 0.000000 1.714970 0.000000 
#    z 0.000000 0.000000 1.799620 
# 
# From -- ./inp_files/42558.got.cif
#   From: 2010.05.17/outbox.cif.g08.bks.cpg/sg52_22_cif.got.tgz:42558.got - 2010.06.03 12:15:38.
