data_PCOD9411587
_publ_section_title
;
Structure prediction by ZEFSAII (Michael W. Deem and Ramdas Pophale) SiO2 
 PCOD9411587
Probable space group: P N N A
;
_chemical_formula_sum "Si O2"
_cell_formula_units_Z 64
_cell_length_a 9.007089
_cell_length_b 11.345885
_cell_length_c 25.462914
_cell_angle_alpha 90.000000
_cell_angle_beta 90.000000
_cell_angle_gamma 90.000000
_cell_volume 2602.141653
_symmetry_space_group_name_H-M "P N N A"
_symmetry_group_IT_number 52
_symmetry_cell_setting 'orthorhombic'
loop_
_space_group_symop_operation_xyz
x,y,z
1/2-x,-y,z
x,1/2-y,1/2-z
1/2-x,1/2+y,1/2-z
-x,-y,-z
1/2+x,y,-z
-x,1/2+y,1/2+z
1/2+x,1/2-y,1/2+z
loop_
_atom_site_type_symbol
_atom_site_label
_atom_site_fract_x
_atom_site_fract_y
_atom_site_fract_z
Si Si1 0.581741 0.547875 0.932012
Si Si2 0.581349 0.008310 0.767342
Si Si3 0.440557 0.309090 0.930929
Si Si4 0.481045 0.173369 0.063630
Si Si5 0.074505 0.705880 0.688574
Si Si6 0.089490 0.454023 0.828960
Si Si7 0.791689 0.816002 0.989667
Si Si8 0.600111 0.181547 0.179177
O O1 0.750000 0.500000 0.941992
O O2 0.460242 0.447315 0.946734
O O3 0.543442 0.683308 0.947402
O O4 0.544926 0.550745 0.869982
O O5 0.471627 0.029763 0.718615
O O6 0.523816 0.883969 0.788116
O O7 0.750000 0.000000 0.750404
O O8 0.555900 0.108561 0.810949
O O9 0.431021 0.280689 0.867388
O O10 0.303084 0.253843 0.964064
O O11 0.595559 0.256330 0.952354
O O12 0.596412 0.111911 0.025078
O O13 0.544759 0.164995 0.120485
O O14 0.322267 0.124722 0.049227
O O15 0.067283 0.750000 0.750000
O O16 0.232222 0.638434 0.685776
O O17 0.250000 0.500000 0.848290
O O18 0.115767 0.320467 0.810772
#
# Coordination Sequence:
#
# PCOD9411587 Si02
#       8
#     8   8   8   8   8   8   8   8
#     4  11  22  35  57  95 140 178 223 278 340 415
#     4  12  27  42  67  98 133 180 230 282 347 424
#     4  11  23  40  65  97 135 181 231 285 347 407
#     4  10  22  38  63  93 131 177 223 283 351 401
#     4  12  25  45  72 101 136 179 229 285 348 420
#     4  11  23  42  68  99 138 183 227 280 346 420
#     4  10  22  40  63  95 132 178 232 287 340 418
#     4  11  23  44  69  98 137 178 226 283 347 419
#
# _framework density 24.595126
#
# number of rings (size 3 to 8) (size 9 to 14) (size 15 to 20)
#    0.000    1.000    2.500    4.875    3.500    4.000 
#    0.000    0.000    0.000    4.500    0.000    0.000 
#    0.000    0.000    0.000    0.000    0.000    0.000 
#
# Total GULP energy -356817.052787 kJ/mol
# GULP energy per Si atom -5575.266450 kJ/mol
# Density = 2.453915 g / cm^3
# Si number density = 24.595126 Si / 1000 Ang^3
#
#
#
# Elastic Constant Matrix: (Units=GPa)
#
#
# Indices 1 2 3 4 5 6 
#
# 1 135.4166 22.9842 20.4125 0.0000 0.0000 0.0000
# 2 22.9842 52.3811 36.8683 0.0000 0.0000 0.0000
# 3 20.4125 36.8683 102.3308 0.0000 0.0000 0.0000
# 4 0.0000 0.0000 0.0000 242.0648 0.0000 0.0000
# 5 0.0000 0.0000 0.0000 0.0000 45.2881 0.0000
# 6 0.0000 0.0000 0.0000 0.0000 0.0000 21.9229
#
#
#
# Elastic Compliance Matrix: (Units=1/GPa)
#
#
# Indices 1 2 3 4 5 6 
#
# 1 0.007994 -0.003196 -0.000443 0.000000 0.000000 0.000000
# 2 -0.003196 0.026854 -0.009038 0.000000 0.000000 0.000000
# 3 -0.000443 -0.009038 0.013117 0.000000 0.000000 0.000000
# 4 0.000000 0.000000 0.000000 0.004131 0.000000 0.000000
# 5 0.000000 0.000000 0.000000 0.000000 0.022081 0.000000
# 6 0.000000 0.000000 0.000000 0.000000 0.000000 0.045614
#
#
# Mechanical properties :
#
#
# Convention : Reuss Voigt Hill
#
# Bulk Modulus (GPa) = 44.22495 50.07318 47.14906
# Shear Modulus (GPa) = 32.74786 75.84605 54.29695
#
# Velocity S-wave (km/s) = 3.65290 5.55921 4.70364
# Velocity P-wave (km/s) = 5.98430 7.84918 6.97930
#
# Compressibility (1/GPa) = 0.02261167
#
# Stress axis : x y z
#
# Youngs Moduli (GPa) = 125.09659 37.23806 76.23806
#
# Poissons Ratio (x) = 0.11900 0.03379
# Poissons Ratio (y) = 0.39976 0.68902
# Poissons Ratio (z) = 0.05545 0.33655
#
# Static dielectric constant tensor:
#      x y z
#    x 1.735940 0.000000 0.000000 
#    y 0.000000 2.089690 0.000000 
#    z 0.000000 0.000000 2.034480 
# 
# From -- ./inp_files/44585.got.cif
#   From: 2010.05.17/outbox.cif.g08.bks.cpg/sg52_23_cif.got.tgz:44585.got - 2010.06.03 12:15:38.
