data_PCOD9411956
_publ_section_title
;
Structure prediction by ZEFSAII (Michael W. Deem and Ramdas Pophale) SiO2 
 PCOD9411956
Probable space group: P N N A
;
_chemical_formula_sum "Si O2"
_cell_formula_units_Z 32
_cell_length_a 7.965637
_cell_length_b 5.069272
_cell_length_c 38.012232
_cell_angle_alpha 90.000000
_cell_angle_beta 90.000000
_cell_angle_gamma 90.000000
_cell_volume 1534.933191
_symmetry_space_group_name_H-M "P N N A"
_symmetry_group_IT_number 52
_symmetry_cell_setting 'orthorhombic'
loop_
_space_group_symop_operation_xyz
x,y,z
1/2-x,-y,z
x,1/2-y,1/2-z
1/2-x,1/2+y,1/2-z
-x,-y,-z
1/2+x,y,-z
-x,1/2+y,1/2+z
1/2+x,1/2-y,1/2+z
loop_
_atom_site_type_symbol
_atom_site_label
_atom_site_fract_x
_atom_site_fract_y
_atom_site_fract_z
Si Si1 0.370878 0.747453 0.288865
Si Si2 0.052140 0.061205 0.960013
Si Si3 0.640114 0.762351 0.349152
Si Si4 0.440353 0.926369 0.418159
O O1 0.250000 0.500000 0.288231
O O2 0.453807 0.750000 0.250000
O O3 0.498796 0.707331 0.320477
O O4 0.250000 0.000000 0.293869
O O5 0.011859 0.351337 0.944893
O O6 0.250000 0.000000 0.955987
O O7 0.947014 0.853628 0.937320
O O8 0.000000 0.000000 0.000000
O O9 0.750000 0.500000 0.356718
O O10 0.750000 0.000000 0.333975
O O11 0.555605 0.884755 0.384092
O O12 0.250000 0.000000 0.408589
#
# Coordination Sequence:
#
# PCOD9411956 Si02
#       4
#     8   8   8   8
#     4  10  22  42  67  95 130 174 220 266 321 386
#     4  12  25  44  67  94 127 164 210 263 321 384
#     4  12  25  41  64  95 131 170 214 269 328 384
#     4  12  25  43  65  92 126 168 214 262 321 384
#
# _framework density 20.847811
#
# number of rings (size 3 to 8) (size 9 to 14) (size 15 to 20)
#    0.000    0.500    0.000    9.750    0.000    3.000 
#    0.000    0.000    0.000    0.000    0.000    0.000 
#    0.000    0.000    0.000    0.000    0.000    0.000 
#
# Total GULP energy -179035.730713 kJ/mol
# GULP energy per Si atom -5594.866585 kJ/mol
# Density = 2.080036 g / cm^3
# Si number density = 20.847811 Si / 1000 Ang^3
#
#
#
# Elastic Constant Matrix: (Units=GPa)
#
#
# Indices 1 2 3 4 5 6 
#
# 1 96.7715 19.3780 27.6502 0.0000 0.0000 0.0000
# 2 19.3780 103.1133 9.6108 0.0000 0.0000 0.0000
# 3 27.6502 9.6108 116.6035 0.0000 0.0000 0.0000
# 4 0.0000 0.0000 0.0000 37.1442 0.0000 0.0000
# 5 0.0000 0.0000 0.0000 0.0000 -144.1475 0.0000
# 6 0.0000 0.0000 0.0000 0.0000 0.0000 34.7522
#
#
#
# Elastic Compliance Matrix: (Units=1/GPa)
#
#
# Indices 1 2 3 4 5 6 
#
# 1 0.011447 -0.001913 -0.002557 0.000000 0.000000 0.000000
# 2 -0.001913 0.010093 -0.000378 0.000000 0.000000 0.000000
# 3 -0.002557 -0.000378 0.009214 0.000000 0.000000 0.000000
# 4 0.000000 0.000000 0.000000 0.026922 0.000000 0.000000
# 5 0.000000 0.000000 0.000000 0.000000 -0.006937 0.000000
# 6 0.000000 0.000000 0.000000 0.000000 0.000000 0.028775
#
#
# Mechanical properties :
#
#
# Convention : Reuss Voigt Hill
#
# Bulk Modulus (GPa) = 47.48891 47.75180 47.62036
# Shear Modulus (GPa) = 51.95949 2.87305 27.41627
#
# Velocity S-wave (km/s) = 4.99773 1.17520 3.63032
# Velocity P-wave (km/s) = 7.49209 4.97957 6.36111
#
# Compressibility (1/GPa) = 0.02105755
#
# Stress axis : x y z
#
# Youngs Moduli (GPa) = 87.35731 99.08021 108.53581
#
# Poissons Ratio (x) = 0.18954 0.27751
# Poissons Ratio (y) = 0.16711 0.04105
# Poissons Ratio (z) = 0.22336 0.03748
#
# Static dielectric constant tensor:
#      x y z
#    x 1.805060 0.000000 0.000000 
#    y 0.000000 1.663830 0.000000 
#    z 0.000000 0.000000 1.775720 
# 
# From -- ./inp_files/44119.got.cif
#   From: 2010.05.17/outbox.cif.g08.bks.cpg/sg52_23_cif.got.tgz:44119.got - 2010.06.03 12:15:38.
