data_PCOD9411656
_publ_section_title
;
Structure prediction by ZEFSAII (Michael W. Deem and Ramdas Pophale) SiO2 
 PCOD9411656
Probable space group: P N N A
;
_chemical_formula_sum "Si O2"
_cell_formula_units_Z 64
_cell_length_a 8.392461
_cell_length_b 23.591616
_cell_length_c 14.158391
_cell_angle_alpha 90.000000
_cell_angle_beta 90.000000
_cell_angle_gamma 90.000000
_cell_volume 2803.244147
_symmetry_space_group_name_H-M "P N N A"
_symmetry_group_IT_number 52
_symmetry_cell_setting 'orthorhombic'
loop_
_space_group_symop_operation_xyz
x,y,z
1/2-x,-y,z
x,1/2-y,1/2-z
1/2-x,1/2+y,1/2-z
-x,-y,-z
1/2+x,y,-z
-x,1/2+y,1/2+z
1/2+x,1/2-y,1/2+z
loop_
_atom_site_type_symbol
_atom_site_label
_atom_site_fract_x
_atom_site_fract_y
_atom_site_fract_z
Si Si1 0.087981 0.106064 0.867360
Si Si2 0.018239 0.521621 0.106695
Si Si3 0.571740 0.363232 0.054811
Si Si4 0.073838 0.185390 0.222101
Si Si5 0.939219 0.512559 0.693150
Si Si6 0.743696 0.380300 0.872845
Si Si7 0.049169 0.617945 0.565811
Si Si8 0.284471 0.686660 0.783575
O O1 0.264822 0.112952 0.910034
O O2 0.096153 0.146801 0.776431
O O3 0.038777 0.043015 0.836918
O O4 0.972839 0.120067 0.954130
O O5 0.895851 0.575158 0.104520
O O6 0.005842 0.480206 0.196415
O O7 0.316050 0.443401 0.120949
O O8 0.000000 0.500000 0.000000
O O9 0.392723 0.347023 0.081912
O O10 0.683925 0.319434 0.106183
O O11 0.600349 0.371577 0.945176
O O12 0.112666 0.250000 0.250000
O O13 0.042758 0.171242 0.112974
O O14 0.898499 0.171857 0.263628
O O15 0.197352 0.142685 0.271166
O O16 0.750000 0.500000 0.688944
O O17 0.976258 0.563204 0.620752
O O18 0.309482 0.750000 0.750000
#
# Coordination Sequence:
#
# PCOD9411656 Si02
#       8
#     8   8   8   8   8   8   8   8
#     4  11  23  46  62  97 126 167 222 263 332 385
#     4  10  25  39  63  98 134 178 217 264 331 401
#     4  10  22  39  62  93 133 172 216 268 325 397
#     4  10  23  44  67  96 131 171 221 278 334 393
#     4  12  24  42  67  94 132 169 216 269 325 392
#     4  10  22  40  61  93 131 173 216 265 329 395
#     4  11  25  40  70  90 128 170 214 273 323 396
#     4  10  22  43  70  96 130 172 221 279 334 394
#
# _framework density 22.830691999999999
#
# number of rings (size 3 to 8) (size 9 to 14) (size 15 to 20)
#    0.750    0.750    1.250    3.000    3.500    3.500 
#    2.250    2.500    0.000    0.000    0.000    0.000 
#    0.000    0.000    0.000    0.000    0.000    0.000 
#
# Total GULP energy -357234.757345 kJ/mol
# GULP energy per Si atom -5581.793084 kJ/mol
# Density = 2.277873 g / cm^3
# Si number density = 22.830692 Si / 1000 Ang^3
#
#
#
# Elastic Constant Matrix: (Units=GPa)
#
#
# Indices 1 2 3 4 5 6 
#
# 1 42.2448 10.3442 3.0233 0.0000 0.0000 0.0000
# 2 10.3442 61.1072 11.0156 0.0000 0.0000 0.0000
# 3 3.0233 11.0156 90.9579 0.0000 0.0000 0.0000
# 4 0.0000 0.0000 0.0000 23.3490 0.0000 0.0000
# 5 0.0000 0.0000 0.0000 0.0000 36.3358 0.0000
# 6 0.0000 0.0000 0.0000 0.0000 0.0000 22.4059
#
#
#
# Elastic Compliance Matrix: (Units=1/GPa)
#
#
# Indices 1 2 3 4 5 6 
#
# 1 0.024704 -0.004124 -0.000322 0.000000 0.000000 0.000000
# 2 -0.004124 0.017418 -0.001972 0.000000 0.000000 0.000000
# 3 -0.000322 -0.001972 0.011244 0.000000 0.000000 0.000000
# 4 0.000000 0.000000 0.000000 0.042828 0.000000 0.000000
# 5 0.000000 0.000000 0.000000 0.000000 0.027521 0.000000
# 6 0.000000 0.000000 0.000000 0.000000 0.000000 0.044631
#
#
# Mechanical properties :
#
#
# Convention : Reuss Voigt Hill
#
# Bulk Modulus (GPa) = 24.67290 27.00845 25.84068
# Shear Modulus (GPa) = 25.68143 27.74659 26.71401
#
# Velocity S-wave (km/s) = 3.35754 3.48993 3.42437
# Velocity P-wave (km/s) = 5.08538 5.30047 5.19404
#
# Compressibility (1/GPa) = 0.04053029
#
# Stress axis : x y z
#
# Youngs Moduli (GPa) = 40.47861 57.41076 88.93905
#
# Poissons Ratio (x) = 0.23676 0.02861
# Poissons Ratio (y) = 0.16693 0.17542
# Poissons Ratio (z) = 0.01302 0.11324
#
# Static dielectric constant tensor:
#      x y z
#    x 1.892220 0.000000 0.000000 
#    y 0.000000 2.029950 0.000000 
#    z 0.000000 0.000000 1.847190 
# 
# From -- ./inp_files/25127.got.cif
#   From: 2010.05.17/outbox.cif.g08.bks.cpg/sg52_13_cif.got.tgz:25127.got - 2010.06.03 12:15:38.
