data_PCOD9411670
_publ_section_title
;
Structure prediction by ZEFSAII (Michael W. Deem and Ramdas Pophale) SiO2 
 PCOD9411670
Probable space group: P N N A
;
_chemical_formula_sum "Si O2"
_cell_formula_units_Z 32
_cell_length_a 14.985016
_cell_length_b 5.070776
_cell_length_c 19.969623
_cell_angle_alpha 90.000000
_cell_angle_beta 90.000000
_cell_angle_gamma 90.000000
_cell_volume 1517.404973
_symmetry_space_group_name_H-M "P N N A"
_symmetry_group_IT_number 52
_symmetry_cell_setting 'orthorhombic'
loop_
_space_group_symop_operation_xyz
x,y,z
1/2-x,-y,z
x,1/2-y,1/2-z
1/2-x,1/2+y,1/2-z
-x,-y,-z
1/2+x,y,-z
-x,1/2+y,1/2+z
1/2+x,1/2-y,1/2+z
loop_
_atom_site_type_symbol
_atom_site_label
_atom_site_fract_x
_atom_site_fract_y
_atom_site_fract_z
Si Si1 0.498487 0.194183 0.563570
Si Si2 0.190272 0.739558 0.151031
Si Si3 0.849930 0.053897 0.983782
Si Si4 0.509985 0.975073 0.708351
O O1 0.593852 0.343989 0.561399
O O2 0.417646 0.387890 0.543433
O O3 0.500000 0.000000 0.500000
O O4 0.477724 0.066400 0.634841
O O5 0.250000 0.500000 0.173945
O O6 0.097059 0.696231 0.186824
O O7 0.250000 0.000000 0.160987
O O8 0.168310 0.722574 0.071891
O O9 0.750000 0.000000 0.008293
O O10 0.456514 0.750000 0.750000
O O11 0.523899 0.250000 0.750000
#
# Coordination Sequence:
#
# PCOD9411670 Si02
#       4
#     8   8   8   8
#     4  11  23  41  68  96 131 172 228 272 328 397
#     4  11  22  39  62  93 133 171 212 257 319 406
#     4  10  22  39  67 100 131 168 222 282 330 385
#     4  12  25  41  61  92 133 177 218 267 331 395
#
# _framework density 21.088633999999999
#
# number of rings (size 3 to 8) (size 9 to 14) (size 15 to 20)
#    0.000    1.000    2.500    6.000    3.500    2.000 
#    0.000    6.250    0.000    0.000    6.500    0.000 
#    0.000    0.000    0.000    0.000    0.000    0.000 
#
# Total GULP energy -178334.446163 kJ/mol
# GULP energy per Si atom -5572.951443 kJ/mol
# Density = 2.104063 g / cm^3
# Si number density = 21.088634 Si / 1000 Ang^3
#
#
#
# Elastic Constant Matrix: (Units=GPa)
#
#
# Indices 1 2 3 4 5 6 
#
# 1 95.7949 24.6013 18.8023 0.0000 0.0000 0.0000
# 2 24.6013 104.6023 45.4088 0.0000 0.0000 0.0000
# 3 18.8023 45.4088 133.1037 0.0000 0.0000 0.0000
# 4 0.0000 0.0000 0.0000 0.3584 0.0000 0.0000
# 5 0.0000 0.0000 0.0000 0.0000 -3.6278 0.0000
# 6 0.0000 0.0000 0.0000 0.0000 0.0000 16.6705
#
#
#
# Elastic Compliance Matrix: (Units=1/GPa)
#
#
# Indices 1 2 3 4 5 6 
#
# 1 0.011182 -0.002282 -0.000801 0.000000 0.000000 0.000000
# 2 -0.002282 0.011688 -0.003665 0.000000 0.000000 0.000000
# 3 -0.000801 -0.003665 0.008876 0.000000 0.000000 0.000000
# 4 0.000000 0.000000 0.000000 2.790169 0.000000 0.000000
# 5 0.000000 0.000000 0.000000 0.000000 -0.275651 0.000000
# 6 0.000000 0.000000 0.000000 0.000000 0.000000 0.059986
#
#
# Mechanical properties :
#
#
# Convention : Reuss Voigt Hill
#
# Bulk Modulus (GPa) = 54.79426 56.79175 55.79301
# Shear Modulus (GPa) = 1.90416 18.99279 10.44848
#
# Velocity S-wave (km/s) = 0.95126 3.00428 2.22830
# Velocity P-wave (km/s) = 5.21975 6.24682 5.75624
#
# Compressibility (1/GPa) = 0.01825009
#
# Stress axis : x y z
#
# Youngs Moduli (GPa) = 89.42708 85.55966 112.65825
#
# Poissons Ratio (x) = 0.19527 0.09024
# Poissons Ratio (y) = 0.20409 0.41289
# Poissons Ratio (z) = 0.07163 0.31357
#
# Static dielectric constant tensor:
#      x y z
#    x 2.935730 0.000000 0.000000 
#    y 0.000000 1.914250 0.000000 
#    z 0.000000 0.000000 1.853710 
# 
# From -- ./inp_files/32597.got.cif
#   From: 2010.05.17/outbox.cif.g08.bks.cpg/sg52_17_cif.got.tgz:32597.got - 2010.06.03 12:15:38.
