data_PCOD9411038
_publ_section_title
;
Structure prediction by ZEFSAII (Michael W. Deem and Ramdas Pophale) SiO2 
 PCOD9411038
Probable space group: P N N A
;
_chemical_formula_sum "Si O2"
_cell_formula_units_Z 48
_cell_length_a 18.374592
_cell_length_b 24.309504
_cell_length_c 5.136984
_cell_angle_alpha 90.000000
_cell_angle_beta 90.000000
_cell_angle_gamma 90.000000
_cell_volume 2294.573721
_symmetry_space_group_name_H-M "P N N A"
_symmetry_group_IT_number 52
_symmetry_cell_setting 'orthorhombic'
loop_
_space_group_symop_operation_xyz
x,y,z
1/2-x,-y,z
x,1/2-y,1/2-z
1/2-x,1/2+y,1/2-z
-x,-y,-z
1/2+x,y,-z
-x,1/2+y,1/2+z
1/2+x,1/2-y,1/2+z
loop_
_atom_site_type_symbol
_atom_site_label
_atom_site_fract_x
_atom_site_fract_y
_atom_site_fract_z
Si Si1 0.917901 0.312259 0.215416
Si Si2 0.227793 0.435949 0.132183
Si Si3 0.515378 0.313187 0.281332
Si Si4 0.945578 0.027646 0.198859
Si Si5 0.429337 0.582531 0.004493
Si Si6 0.191220 0.596304 0.614205
O O1 0.893445 0.250000 0.250000
O O2 0.983331 0.320025 0.428623
O O3 0.851218 0.351228 0.279707
O O4 0.948935 0.316928 0.924344
O O5 0.250000 0.500000 0.185398
O O6 0.143985 0.417788 0.172084
O O7 0.271883 0.399208 0.336519
O O8 0.253217 0.424133 0.836472
O O9 0.544701 0.250000 0.250000
O O10 0.564790 0.364738 0.186315
O O11 0.874647 0.053302 0.076284
O O12 0.993141 0.073186 0.351473
O O13 0.920451 0.977021 0.372057
O O14 0.000000 0.000000 0.000000
#
# Coordination Sequence:
#
# PCOD9411038 Si02
#       6
#     8   8   8   8   8   8
#     4  10  21  40  67  96 125 163 223 277 325 385
#     4  12  26  42  60  93 140 177 210 265 346 404
#     4  10  21  39  66  96 127 164 216 282 333 384
#     4  11  23  38  67  94 128 167 227 278 323 396
#     4  11  24  40  62 100 130 174 219 279 333 400
#     4  12  24  42  64  94 129 171 218 263 331 404
#
# _framework density 20.918918999999999
#
# number of rings (size 3 to 8) (size 9 to 14) (size 15 to 20)
#    0.000    1.000    3.333    3.500    4.667    0.000 
#    0.000    0.833    0.000    0.000    0.000    0.000 
#    0.000    0.000    0.000    0.000    0.000    0.000 
#
# Total GULP energy -268015.661035 kJ/mol
# GULP energy per Si atom -5583.659605 kJ/mol
# Density = 2.087131 g / cm^3
# Si number density = 20.918919 Si / 1000 Ang^3
#
#
#
# Elastic Constant Matrix: (Units=GPa)
#
#
# Indices 1 2 3 4 5 6 
#
# 1 79.3897 20.1494 2.0130 0.0000 0.0000 0.0000
# 2 20.1494 109.0324 -0.6593 0.0000 0.0000 0.0000
# 3 2.0130 -0.6593 52.8334 0.0000 0.0000 0.0000
# 4 0.0000 0.0000 0.0000 23.8131 0.0000 0.0000
# 5 0.0000 0.0000 0.0000 0.0000 36.1332 0.0000
# 6 0.0000 0.0000 0.0000 0.0000 0.0000 13.7621
#
#
#
# Elastic Compliance Matrix: (Units=1/GPa)
#
#
# Indices 1 2 3 4 5 6 
#
# 1 0.013231 -0.002448 -0.000535 0.000000 0.000000 0.000000
# 2 -0.002448 0.009625 0.000213 0.000000 0.000000 0.000000
# 3 -0.000535 0.000213 0.018950 0.000000 0.000000 0.000000
# 4 0.000000 0.000000 0.000000 0.041994 0.000000 0.000000
# 5 0.000000 0.000000 0.000000 0.000000 0.027675 0.000000
# 6 0.000000 0.000000 0.000000 0.000000 0.000000 0.072663
#
#
# Mechanical properties :
#
#
# Convention : Reuss Voigt Hill
#
# Bulk Modulus (GPa) = 27.57284 31.58463 29.57873
# Shear Modulus (GPa) = 24.78100 29.39185 27.08643
#
# Velocity S-wave (km/s) = 3.44557 3.75245 3.60228
# Velocity P-wave (km/s) = 5.38875 5.82287 5.61002
#
# Compressibility (1/GPa) = 0.03626758
#
# Stress axis : x y z
#
# Youngs Moduli (GPa) = 75.57976 103.89248 52.76923
#
# Poissons Ratio (x) = 0.25437 0.02821
# Poissons Ratio (y) = 0.18505 -0.01126
# Poissons Ratio (z) = 0.04041 -0.02217
#
# Static dielectric constant tensor:
#      x y z
#    x 1.734460 0.000000 0.000000 
#    y 0.000000 1.787350 0.000000 
#    z 0.000000 0.000000 1.756340 
# 
# From -- ./inp_files/3430.got.cif
#   From: 2010.05.17/outbox.cif.g08.bks.cpg/sg52_2_cif.got.tgz:3430.got - 2010.06.03 12:15:38.
