data_PCOD9411331
_publ_section_title
;
Structure prediction by ZEFSAII (Michael W. Deem and Ramdas Pophale) SiO2 
 PCOD9411331
Probable space group: P N N A
;
_chemical_formula_sum "Si O2"
_cell_formula_units_Z 64
_cell_length_a 28.182670
_cell_length_b 10.527619
_cell_length_c 11.143099
_cell_angle_alpha 90.000000
_cell_angle_beta 90.000000
_cell_angle_gamma 90.000000
_cell_volume 3306.117494
_symmetry_space_group_name_H-M "P N N A"
_symmetry_group_IT_number 52
_symmetry_cell_setting 'orthorhombic'
loop_
_space_group_symop_operation_xyz
x,y,z
1/2-x,-y,z
x,1/2-y,1/2-z
1/2-x,1/2+y,1/2-z
-x,-y,-z
1/2+x,y,-z
-x,1/2+y,1/2+z
1/2+x,1/2-y,1/2+z
loop_
_atom_site_type_symbol
_atom_site_label
_atom_site_fract_x
_atom_site_fract_y
_atom_site_fract_z
Si Si1 0.909321 0.781560 0.619563
Si Si2 0.430573 0.109002 0.724536
Si Si3 0.756546 0.142607 0.158208
Si Si4 0.850966 0.705832 0.389690
Si Si5 0.020016 0.039763 0.128873
Si Si6 0.085027 0.800833 0.132835
Si Si7 0.144112 0.912799 0.919959
Si Si8 0.948387 0.043225 0.538257
O O1 0.886123 0.750000 0.750000
O O2 0.876262 0.777719 0.499968
O O3 0.951918 0.675025 0.616297
O O4 0.928469 0.925922 0.615452
O O5 0.449664 0.250000 0.750000
O O6 0.473959 0.032397 0.784821
O O7 0.380643 0.112588 0.792921
O O8 0.422398 0.065548 0.589392
O O9 0.772675 0.250000 0.250000
O O10 0.706597 0.195743 0.108644
O O11 0.800526 0.118260 0.070893
O O12 0.750000 0.000000 0.212949
O O13 0.862777 0.750000 0.250000
O O14 0.865359 0.562648 0.424178
O O15 0.056447 0.928115 0.160341
O O16 0.000000 0.000000 0.000000
O O17 0.112046 0.750000 0.250000
O O18 0.117157 0.835431 0.020729
O O19 0.051865 0.682225 0.097224
O O20 0.000000 0.000000 0.500000
#
# Coordination Sequence:
#
# PCOD9411331 Si02
#       8
#     8   8   8   8   8   8   8   8
#     4  12  24  40  62  90 127 166 207 260 313 369
#     4  12  21  37  58  89 121 157 206 257 305 358
#     4   9  20  38  66  95 125 156 198 263 320 375
#     4  10  21  42  66  95 123 161 211 256 323 388
#     4  12  22  39  61  84 124 166 207 254 305 369
#     4  12  24  40  58  84 121 167 209 247 302 370
#     4  11  21  39  65  92 123 162 206 257 315 374
#     4  12  25  39  58  87 122 164 208 253 304 359
#
# _framework density 19.358053000000002
#
# number of rings (size 3 to 8) (size 9 to 14) (size 15 to 20)
#    0.000    0.750    3.750    5.250    0.000    0.000 
#    0.000    3.125    0.000    0.000    0.000    0.000 
#    0.000    0.000    0.000    0.000    0.000    0.000 
#
# Total GULP energy -356441.191381 kJ/mol
# GULP energy per Si atom -5569.393615 kJ/mol
# Density = 1.931399 g / cm^3
# Si number density = 19.358053 Si / 1000 Ang^3
#
#
#
# Elastic Constant Matrix: (Units=GPa)
#
#
# Indices 1 2 3 4 5 6 
#
# 1 37.4607 23.5404 11.2410 0.0000 0.0000 0.0000
# 2 23.5404 128.6733 27.2878 0.0000 0.0000 0.0000
# 3 11.2410 27.2878 97.2486 0.0000 0.0000 0.0000
# 4 0.0000 0.0000 0.0000 40.6074 0.0000 0.0000
# 5 0.0000 0.0000 0.0000 0.0000 4.7290 0.0000
# 6 0.0000 0.0000 0.0000 0.0000 0.0000 23.7271
#
#
#
# Elastic Compliance Matrix: (Units=1/GPa)
#
#
# Indices 1 2 3 4 5 6 
#
# 1 0.030556 -0.005147 -0.002088 0.000000 0.000000 0.000000
# 2 -0.005147 0.009130 -0.001967 0.000000 0.000000 0.000000
# 3 -0.002088 -0.001967 0.011076 0.000000 0.000000 0.000000
# 4 0.000000 0.000000 0.000000 0.024626 0.000000 0.000000
# 5 0.000000 0.000000 0.000000 0.000000 0.211461 0.000000
# 6 0.000000 0.000000 0.000000 0.000000 0.000000 0.042146
#
#
# Mechanical properties :
#
#
# Convention : Reuss Voigt Hill
#
# Bulk Modulus (GPa) = 30.90392 43.05791 36.98091
# Shear Modulus (GPa) = 13.95925 27.23358 20.59642
#
# Velocity S-wave (km/s) = 2.68826 3.75485 3.26540
# Velocity P-wave (km/s) = 5.06307 6.41012 5.77600
#
# Compressibility (1/GPa) = 0.03235836
#
# Stress axis : x y z
#
# Youngs Moduli (GPa) = 32.72714 109.52344 90.28388
#
# Poissons Ratio (x) = 0.56376 0.18848
# Poissons Ratio (y) = 0.16846 0.17759
# Poissons Ratio (z) = 0.06832 0.21543
#
# Static dielectric constant tensor:
#      x y z
#    x 1.668210 0.000000 0.000000 
#    y 0.000000 1.806450 0.000000 
#    z 0.000000 0.000000 1.779760 
# 
# From -- ./inp_files/23204.got.cif
#   From: 2010.05.17/outbox.cif.g08.bks.cpg/sg52_12_cif.got.tgz:23204.got - 2010.06.03 12:15:38.
