data_PCOD9411751
_publ_section_title
;
Structure prediction by ZEFSAII (Michael W. Deem and Ramdas Pophale) SiO2 
 PCOD9411751
Probable space group: P N N A
;
_chemical_formula_sum "Si O2"
_cell_formula_units_Z 56
_cell_length_a 12.505884
_cell_length_b 14.417877
_cell_length_c 13.972574
_cell_angle_alpha 90.000000
_cell_angle_beta 90.000000
_cell_angle_gamma 90.000000
_cell_volume 2519.371027
_symmetry_space_group_name_H-M "P N N A"
_symmetry_group_IT_number 52
_symmetry_cell_setting 'orthorhombic'
loop_
_space_group_symop_operation_xyz
x,y,z
1/2-x,-y,z
x,1/2-y,1/2-z
1/2-x,1/2+y,1/2-z
-x,-y,-z
1/2+x,y,-z
-x,1/2+y,1/2+z
1/2+x,1/2-y,1/2+z
loop_
_atom_site_type_symbol
_atom_site_label
_atom_site_fract_x
_atom_site_fract_y
_atom_site_fract_z
Si Si1 0.321974 0.586608 0.113439
Si Si2 0.549445 0.523996 0.154738
Si Si3 0.841109 0.650223 0.254810
Si Si4 0.531077 0.402814 0.654211
Si Si5 0.206095 0.656079 0.932116
Si Si6 0.682797 0.634287 0.437963
Si Si7 0.138742 0.250000 0.250000
Si Si8 0.750000 0.000000 0.898504
O O1 0.250000 0.500000 0.138513
O O2 0.436409 0.537722 0.105677
O O3 0.306790 0.663559 0.196900
O O4 0.290641 0.634117 0.014085
O O5 0.586470 0.430933 0.209054
O O6 0.530780 0.591041 0.245075
O O7 0.633142 0.566174 0.081110
O O8 0.900430 0.750000 0.250000
O O9 0.753360 0.665535 0.173418
O O10 0.774610 0.626383 0.352790
O O11 0.432036 0.414320 0.582337
O O12 0.575821 0.298468 0.661950
O O13 0.633471 0.472707 0.648540
O O14 0.157953 0.756961 0.952680
O O15 0.729708 0.587662 0.532315
#
# Coordination Sequence:
#
# PCOD9411751 Si02
#       8
#     8   8   8   8   8   8   4   4
#     4  11  25  44  68  99 134 184 231 286 360 426
#     4  11  23  43  70  94 138 181 236 286 358 428
#     4  10  22  40  66 100 138 180 235 295 353 411
#     4  11  23  42  70  98 134 192 232 286 359 425
#     4  11  23  41  70 100 134 182 239 292 346 423
#     4  11  22  41  67 103 137 185 236 292 350 421
#     4  10  24  44  68  94 138 178 234 284 350 434
#     4  12  26  40  66 104 150 176 238 300 356 424
#
# _framework density 22.227771000000001
#
# number of rings (size 3 to 8) (size 9 to 14) (size 15 to 20)
#    0.000    1.143    1.429    5.143    5.000    2.286 
#    1.286    2.857    0.000    0.000    0.000    0.000 
#    0.000    0.000    0.000    0.000    0.000    0.000 
#
# Total GULP energy -311820.250066 kJ/mol
# GULP energy per Si atom -5568.218751 kJ/mol
# Density = 2.217718 g / cm^3
# Si number density = 22.227771 Si / 1000 Ang^3
#
#
#
# Elastic Constant Matrix: (Units=GPa)
#
#
# Indices 1 2 3 4 5 6 
#
# 1 70.3014 21.0159 9.9953 0.0000 0.0000 0.0000
# 2 21.0159 109.4388 15.7408 0.0000 0.0000 0.0000
# 3 9.9953 15.7408 59.4468 0.0000 0.0000 0.0000
# 4 0.0000 0.0000 0.0000 46.5483 0.0000 0.0000
# 5 0.0000 0.0000 0.0000 0.0000 37.0443 0.0000
# 6 0.0000 0.0000 0.0000 0.0000 0.0000 47.7438
#
#
#
# Elastic Compliance Matrix: (Units=1/GPa)
#
#
# Indices 1 2 3 4 5 6 
#
# 1 0.015287 -0.002668 -0.001864 0.000000 0.000000 0.000000
# 2 -0.002668 0.009965 -0.002190 0.000000 0.000000 0.000000
# 3 -0.001864 -0.002190 0.017715 0.000000 0.000000 0.000000
# 4 0.000000 0.000000 0.000000 0.021483 0.000000 0.000000
# 5 0.000000 0.000000 0.000000 0.000000 0.026995 0.000000
# 6 0.000000 0.000000 0.000000 0.000000 0.000000 0.020945
#
#
# Mechanical properties :
#
#
# Convention : Reuss Voigt Hill
#
# Bulk Modulus (GPa) = 33.87110 36.96565 35.41837
# Shear Modulus (GPa) = 36.85305 39.09626 37.97465
#
# Velocity S-wave (km/s) = 4.07624 4.19847 4.13780
# Velocity P-wave (km/s) = 6.11764 6.33793 6.22876
#
# Compressibility (1/GPa) = 0.02952370
#
# Stress axis : x y z
#
# Youngs Moduli (GPa) = 65.41541 100.35347 56.44911
#
# Poissons Ratio (x) = 0.26769 0.10522
# Poissons Ratio (y) = 0.17450 0.12363
# Poissons Ratio (z) = 0.12193 0.21978
#
# Static dielectric constant tensor:
#      x y z
#    x 2.224230 0.000000 0.000000 
#    y 0.000000 2.083150 0.000000 
#    z 0.000000 0.000000 1.877400 
# 
# From -- ./inp_files/26194.got.cif
#   From: 2010.05.17/outbox.cif.g08.bks.cpg/sg52_14_cif.got.tgz:26194.got - 2010.06.03 12:15:38.
