data_PCOD9411674
_publ_section_title
;
Structure prediction by ZEFSAII (Michael W. Deem and Ramdas Pophale) SiO2 
 PCOD9411674
Probable space group: P N N A
;
_chemical_formula_sum "Si O2"
_cell_formula_units_Z 32
_cell_length_a 14.771640
_cell_length_b 16.387840
_cell_length_c 5.343990
_cell_angle_alpha 90.000000
_cell_angle_beta 90.000000
_cell_angle_gamma 90.000000
_cell_volume 1293.647837
_symmetry_space_group_name_H-M "P N N A"
_symmetry_group_IT_number 52
_symmetry_cell_setting 'orthorhombic'
loop_
_space_group_symop_operation_xyz
x,y,z
1/2-x,-y,z
x,1/2-y,1/2-z
1/2-x,1/2+y,1/2-z
-x,-y,-z
1/2+x,y,-z
-x,1/2+y,1/2+z
1/2+x,1/2-y,1/2+z
loop_
_atom_site_type_symbol
_atom_site_label
_atom_site_fract_x
_atom_site_fract_y
_atom_site_fract_z
Si Si1 0.830406 0.110056 0.511770
Si Si2 0.748219 0.250000 0.250000
Si Si3 0.379640 0.930681 0.488048
Si Si4 0.588437 0.332402 0.502706
Si Si5 0.935559 0.250000 0.750000
O O1 0.811684 0.171827 0.283861
O O2 0.727370 0.084293 0.566188
O O3 0.875789 0.170728 0.706146
O O4 0.888399 0.028207 0.485145
O O5 0.678637 0.275664 0.472590
O O6 0.405422 0.888297 0.750443
O O7 0.422021 0.888522 0.244798
O O8 0.504324 0.272391 0.471258
#
# Coordination Sequence:
#
# PCOD9411674 Si02
#       5
#     8   4   8   8   4
#     4  10  22  39  67  96 123 163 217 262 306 372
#     4   9  20  40  66  93 126 166 214 263 314 376
#     4  10  23  44  66  91 127 168 207 259 318 373
#     4  10  23  42  63  90 130 169 203 255 324 377
#     4  11  24  38  62  95 126 166 212 259 310 378
#
# _framework density 24.736253999999999
#
# number of rings (size 3 to 8) (size 9 to 14) (size 15 to 20)
#    0.000    2.000    0.000    1.500    0.000   22.000 
#    0.000    0.000    0.000    0.000    0.000    0.000 
#    0.000    0.000    0.000    0.000    0.000    0.000 
#
# Total GULP energy -178848.512196 kJ/mol
# GULP energy per Si atom -5589.016006 kJ/mol
# Density = 2.467995 g / cm^3
# Si number density = 24.736254 Si / 1000 Ang^3
#
#
#
# Elastic Constant Matrix: (Units=GPa)
#
#
# Indices 1 2 3 4 5 6 
#
# 1 64.2982 31.6652 37.4062 0.0000 0.0000 0.0000
# 2 31.6652 219.7572 77.3793 0.0000 0.0000 0.0000
# 3 37.4062 77.3793 151.5059 0.0000 0.0000 0.0000
# 4 0.0000 0.0000 0.0000 35.2830 0.0000 0.0000
# 5 0.0000 0.0000 0.0000 0.0000 -22.9475 0.0000
# 6 0.0000 0.0000 0.0000 0.0000 0.0000 167.2605
#
#
#
# Elastic Compliance Matrix: (Units=1/GPa)
#
#
# Indices 1 2 3 4 5 6 
#
# 1 0.018454 -0.001286 -0.003899 0.000000 0.000000 0.000000
# 2 -0.001286 0.005638 -0.002562 0.000000 0.000000 0.000000
# 3 -0.003899 -0.002562 0.008872 0.000000 0.000000 0.000000
# 4 0.000000 0.000000 0.000000 0.028342 0.000000 0.000000
# 5 0.000000 0.000000 0.000000 0.000000 -0.043578 0.000000
# 6 0.000000 0.000000 0.000000 0.000000 0.000000 0.005979
#
#
# Mechanical properties :
#
#
# Convention : Reuss Voigt Hill
#
# Bulk Modulus (GPa) = 57.24429 80.94030 69.09229
# Shear Modulus (GPa) = 111.04860 55.19322 83.12091
#
# Velocity S-wave (km/s) = 6.70750 4.72875 5.80309
# Velocity P-wave (km/s) = 9.12028 7.91247 8.53776
#
# Compressibility (1/GPa) = 0.01746899
#
# Stress axis : x y z
#
# Youngs Moduli (GPa) = 54.18736 177.37165 112.71872
#
# Poissons Ratio (x) = 0.22811 0.43955
# Poissons Ratio (y) = 0.06969 0.28878
# Poissons Ratio (z) = 0.21130 0.45441
#
# Static dielectric constant tensor:
#      x y z
#    x 2.023440 0.000000 0.000000 
#    y 0.000000 1.983190 0.000000 
#    z 0.000000 0.000000 2.055700 
# 
# From -- ./inp_files/1947.got.cif
#   From: 2010.05.17/outbox.cif.g08.bks.cpg/sg52_1_cif.got.tgz:1947.got - 2010.06.03 12:15:38.
