data_PCOD9411891
_publ_section_title
;
Structure prediction by ZEFSAII (Michael W. Deem and Ramdas Pophale) SiO2 
 PCOD9411891
Probable space group: P N N A
;
_chemical_formula_sum "Si O2"
_cell_formula_units_Z 48
_cell_length_a 14.256448
_cell_length_b 27.252586
_cell_length_c 5.631382
_cell_angle_alpha 90.000000
_cell_angle_beta 90.000000
_cell_angle_gamma 90.000000
_cell_volume 2187.933115
_symmetry_space_group_name_H-M "P N N A"
_symmetry_group_IT_number 52
_symmetry_cell_setting 'orthorhombic'
loop_
_space_group_symop_operation_xyz
x,y,z
1/2-x,-y,z
x,1/2-y,1/2-z
1/2-x,1/2+y,1/2-z
-x,-y,-z
1/2+x,y,-z
-x,1/2+y,1/2+z
1/2+x,1/2-y,1/2+z
loop_
_atom_site_type_symbol
_atom_site_label
_atom_site_fract_x
_atom_site_fract_y
_atom_site_fract_z
Si Si1 0.602756 0.945936 0.655708
Si Si2 0.159515 0.648687 0.890537
Si Si3 0.995365 0.221535 0.493952
Si Si4 0.102540 0.039365 0.667581
Si Si5 0.747629 0.408208 0.497625
Si Si6 0.862500 0.864903 0.611925
O O1 0.603245 0.893088 0.531444
O O2 0.502350 0.957010 0.776172
O O3 0.615499 0.987094 0.454738
O O4 0.692577 0.941821 0.824364
O O5 0.175251 0.627070 0.627321
O O6 0.107812 0.699213 0.942054
O O7 0.264679 0.648302 0.987184
O O8 0.019727 0.250000 0.250000
O O9 0.064961 0.175221 0.476478
O O10 0.000334 0.250000 0.750000
O O11 0.187553 0.056026 0.832172
O O12 0.104388 0.081092 0.464463
O O13 0.670013 0.372361 0.616840
#
# Coordination Sequence:
#
# PCOD9411891 Si02
#       6
#     8   8   8   8   8   8
#     4  10  22  41  70 105 145 188 240 294 365 445
#     4  10  24  44  71 105 145 185 240 303 366 445
#     4  12  30  48  79 107 145 189 250 320 382 449
#     4  10  22  41  70 105 145 188 240 294 365 445
#     4  10  24  41  74 100 152 192 244 300 369 444
#     4  10  24  44  71 105 145 185 240 303 366 445
#
# _framework density 21.938510999999998
#
# number of rings (size 3 to 8) (size 9 to 14) (size 15 to 20)
#    0.000    1.667    1.667    0.000   11.667   10.000 
#    0.000    3.333    0.000    1.000    0.000    0.000 
#    0.000    0.000    0.000    0.000    0.000    0.000 
#
# Total GULP energy -267828.450799 kJ/mol
# GULP energy per Si atom -5579.759392 kJ/mol
# Density = 2.188858 g / cm^3
# Si number density = 21.938511 Si / 1000 Ang^3
#
#
#
# Elastic Constant Matrix: (Units=GPa)
#
#
# Indices 1 2 3 4 5 6 
#
# 1 100.3934 22.0458 23.2991 0.0000 0.0000 0.0000
# 2 22.0458 81.9044 33.7540 0.0000 0.0000 0.0000
# 3 23.2991 33.7540 79.7066 0.0000 0.0000 0.0000
# 4 0.0000 0.0000 0.0000 22.9662 0.0000 0.0000
# 5 0.0000 0.0000 0.0000 0.0000 4.4245 0.0000
# 6 0.0000 0.0000 0.0000 0.0000 0.0000 26.2841
#
#
#
# Elastic Compliance Matrix: (Units=1/GPa)
#
#
# Indices 1 2 3 4 5 6 
#
# 1 0.010942 -0.001971 -0.002364 0.000000 0.000000 0.000000
# 2 -0.001971 0.015146 -0.005838 0.000000 0.000000 0.000000
# 3 -0.002364 -0.005838 0.015709 0.000000 0.000000 0.000000
# 4 0.000000 0.000000 0.000000 0.043542 0.000000 0.000000
# 5 0.000000 0.000000 0.000000 0.000000 0.226015 0.000000
# 6 0.000000 0.000000 0.000000 0.000000 0.000000 0.038046
#
#
# Mechanical properties :
#
#
# Convention : Reuss Voigt Hill
#
# Bulk Modulus (GPa) = 46.61606 46.68913 46.65260
# Shear Modulus (GPa) = 13.26627 22.92866 18.09746
#
# Velocity S-wave (km/s) = 2.46174 3.23636 2.87525
# Velocity P-wave (km/s) = 5.41986 5.94082 5.68631
#
# Compressibility (1/GPa) = 0.02145183
#
# Stress axis : x y z
#
# Youngs Moduli (GPa) = 91.38887 66.02526 63.65729
#
# Poissons Ratio (x) = 0.13014 0.15047
# Poissons Ratio (y) = 0.18014 0.37161
# Poissons Ratio (z) = 0.21603 0.38544
#
# Static dielectric constant tensor:
#      x y z
#    x 1.847750 0.000000 0.000000 
#    y 0.000000 1.788840 0.000000 
#    z 0.000000 0.000000 1.948670 
# 
# From -- ./inp_files/2473.got.cif
#   From: 2010.05.17/outbox.cif.g08.bks.cpg/sg52_2_cif.got.tgz:2473.got - 2010.06.03 12:15:38.
