data_PCOD9411003
_publ_section_title
;
Structure prediction by ZEFSAII (Michael W. Deem and Ramdas Pophale) SiO2 
 PCOD9411003
Probable space group: P N N A
;
_chemical_formula_sum "Si O2"
_cell_formula_units_Z 60
_cell_length_a 9.610346
_cell_length_b 23.855440
_cell_length_c 13.584848
_cell_angle_alpha 90.000000
_cell_angle_beta 90.000000
_cell_angle_gamma 90.000000
_cell_volume 3114.449108
_symmetry_space_group_name_H-M "P N N A"
_symmetry_group_IT_number 52
_symmetry_cell_setting 'orthorhombic'
loop_
_space_group_symop_operation_xyz
x,y,z
1/2-x,-y,z
x,1/2-y,1/2-z
1/2-x,1/2+y,1/2-z
-x,-y,-z
1/2+x,y,-z
-x,1/2+y,1/2+z
1/2+x,1/2-y,1/2+z
loop_
_atom_site_type_symbol
_atom_site_label
_atom_site_fract_x
_atom_site_fract_y
_atom_site_fract_z
Si Si1 0.860648 0.950336 0.208229
Si Si2 0.102341 0.968553 0.073822
Si Si3 0.487033 0.189391 0.533729
Si Si4 0.113066 0.750000 0.250000
Si Si5 0.678530 0.627521 0.430977
Si Si6 0.741910 0.237888 0.955475
Si Si7 0.405752 0.184664 0.738721
Si Si8 0.097959 0.343192 0.830143
O O1 0.790982 0.913346 0.120344
O O2 0.886472 0.906614 0.294611
O O3 0.012764 0.969215 0.173022
O O4 0.750000 0.000000 0.227444
O O5 0.250000 0.000000 0.081137
O O6 0.118501 0.907873 0.022168
O O7 0.000000 0.000000 0.000000
O O8 0.582967 0.244279 0.541922
O O9 0.336530 0.212297 0.501469
O O10 0.483799 0.161950 0.641522
O O11 0.556294 0.156290 0.444465
O O12 0.203848 0.767655 0.155727
O O13 0.017686 0.696808 0.220335
O O14 0.739956 0.683616 0.477631
O O15 0.582846 0.648631 0.338923
O O16 0.444438 0.250000 0.750000
O O17 0.243923 0.183423 0.705450
#
# Coordination Sequence:
#
# PCOD9411003 Si02
#       8
#     8   8   8   4   8   8   8   8
#     4  11  23  41  65  91 117 165 213 257 318 379
#     4  12  22  41  59  92 129 154 200 261 315 367
#     4  11  22  40  56  91 128 164 206 254 304 363
#     4  10  22  38  56  92 128 168 202 248 314 374
#     4  11  22  35  63  91 121 165 202 248 316 372
#     4  11  24  35  58  87 132 164 203 249 305 373
#     4  11  20  36  59  88 122 163 206 243 295 375
#     4  10  21  39  65  85 124 165 207 254 314 373
#
# _framework density 19.265046000000002
#
# number of rings (size 3 to 8) (size 9 to 14) (size 15 to 20)
#    0.000    1.067    6.000    0.800    8.400    0.000 
#    0.000    1.333    0.000    3.200    0.000    0.933 
#    0.000    0.000    0.000    0.000    0.000    0.000 
#
# Total GULP energy -334669.940232 kJ/mol
# GULP energy per Si atom -5577.832337 kJ/mol
# Density = 1.922120 g / cm^3
# Si number density = 19.265046 Si / 1000 Ang^3
#
#
#
# Elastic Constant Matrix: (Units=GPa)
#
#
# Indices 1 2 3 4 5 6 
#
# 1 62.1432 25.2819 18.8996 0.0000 0.0000 0.0000
# 2 25.2819 78.7550 42.6896 0.0000 0.0000 0.0000
# 3 18.8996 42.6896 105.6529 0.0000 0.0000 0.0000
# 4 0.0000 0.0000 0.0000 25.6310 0.0000 0.0000
# 5 0.0000 0.0000 0.0000 0.0000 25.2110 0.0000
# 6 0.0000 0.0000 0.0000 0.0000 0.0000 13.8362
#
#
#
# Elastic Compliance Matrix: (Units=1/GPa)
#
#
# Indices 1 2 3 4 5 6 
#
# 1 0.018622 -0.005342 -0.001173 0.000000 0.000000 0.000000
# 2 -0.005342 0.017791 -0.006233 0.000000 0.000000 0.000000
# 3 -0.001173 -0.006233 0.012193 0.000000 0.000000 0.000000
# 4 0.000000 0.000000 0.000000 0.039015 0.000000 0.000000
# 5 0.000000 0.000000 0.000000 0.000000 0.039665 0.000000
# 6 0.000000 0.000000 0.000000 0.000000 0.000000 0.072274
#
#
# Mechanical properties :
#
#
# Convention : Reuss Voigt Hill
#
# Bulk Modulus (GPa) = 43.27038 46.69924 44.98481
# Shear Modulus (GPa) = 21.48134 23.58098 22.53116
#
# Velocity S-wave (km/s) = 3.34285 3.50241 3.42356
# Velocity P-wave (km/s) = 6.11628 6.37564 6.24731
#
# Compressibility (1/GPa) = 0.02311050
#
# Stress axis : x y z
#
# Youngs Moduli (GPa) = 53.70015 56.20746 82.01316
#
# Poissons Ratio (x) = 0.30028 0.09616
# Poissons Ratio (y) = 0.28689 0.51119
# Poissons Ratio (z) = 0.06296 0.35034
#
# Static dielectric constant tensor:
#      x y z
#    x 1.674340 0.000000 0.000000 
#    y 0.000000 1.706790 0.000000 
#    z 0.000000 0.000000 2.181070 
# 
# From -- ./inp_files/25094.got.cif
#   From: 2010.05.17/outbox.cif.g08.bks.cpg/sg52_13_cif.got.tgz:25094.got - 2010.06.03 12:15:38.
