data_PCOD9411225
_publ_section_title
;
Structure prediction by ZEFSAII (Michael W. Deem and Ramdas Pophale) SiO2 
 PCOD9411225
Probable space group: P N N A
;
_chemical_formula_sum "Si O2"
_cell_formula_units_Z 40
_cell_length_a 15.163310
_cell_length_b 16.819412
_cell_length_c 8.458210
_cell_angle_alpha 90.000000
_cell_angle_beta 90.000000
_cell_angle_gamma 90.000000
_cell_volume 2157.164608
_symmetry_space_group_name_H-M "P N N A"
_symmetry_group_IT_number 52
_symmetry_cell_setting 'orthorhombic'
loop_
_space_group_symop_operation_xyz
x,y,z
1/2-x,-y,z
x,1/2-y,1/2-z
1/2-x,1/2+y,1/2-z
-x,-y,-z
1/2+x,y,-z
-x,1/2+y,1/2+z
1/2+x,1/2-y,1/2+z
loop_
_atom_site_type_symbol
_atom_site_label
_atom_site_fract_x
_atom_site_fract_y
_atom_site_fract_z
Si Si1 0.750000 0.500000 0.351681
Si Si2 0.833365 0.896513 0.906222
Si Si3 0.750000 0.500000 0.862909
Si Si4 0.474890 0.165753 0.836841
Si Si5 0.324939 0.273370 0.434460
Si Si6 0.838811 0.106208 0.392955
O O1 0.825677 0.532422 0.466507
O O2 0.773468 0.426049 0.241428
O O3 0.763293 0.826515 0.943701
O O4 0.931947 0.865923 0.893984
O O5 0.797677 0.934699 0.744285
O O6 0.824135 0.456859 0.968219
O O7 0.488333 0.250000 0.750000
O O8 0.430723 0.111600 0.700269
O O9 0.405231 0.179403 0.980152
O O10 0.341239 0.250000 0.250000
O O11 0.316607 0.192437 0.536262
#
# Coordination Sequence:
#
# PCOD9411225 Si02
#       6
#     4   8   4   8   8   8
#     4  10  22  40  62  94 122 168 196 254 324 356
#     4  11  22  41  66  91 123 166 209 248 314 368
#     4  10  22  38  64  94 124 170 196 252 320 362
#     4  10  23  40  62  93 119 161 216 254 297 368
#     4  11  21  42  64  85 126 166 206 257 303 361
#     4  10  21  41  62  88 129 161 203 255 305 363
#
# _framework density 18.542859
#
# number of rings (size 3 to 8) (size 9 to 14) (size 15 to 20)
#    0.000    1.600    4.000    0.600    0.000    1.600 
#    3.600    2.000    0.000    0.000    0.000    0.000 
#    0.000    0.000    0.000    0.000    0.000    0.000 
#
# Total GULP energy -223001.467461 kJ/mol
# GULP energy per Si atom -5575.036687 kJ/mol
# Density = 1.850065 g / cm^3
# Si number density = 18.542859 Si / 1000 Ang^3
#
#
#
# Elastic Constant Matrix: (Units=GPa)
#
#
# Indices 1 2 3 4 5 6 
#
# 1 138.4413 72.7497 62.6677 0.0000 0.0000 0.0000
# 2 72.7497 78.5135 52.2174 0.0000 0.0000 0.0000
# 3 62.6677 52.2174 120.0798 0.0000 0.0000 0.0000
# 4 0.0000 0.0000 0.0000 19.3873 0.0000 0.0000
# 5 0.0000 0.0000 0.0000 0.0000 0.3659 0.0000
# 6 0.0000 0.0000 0.0000 0.0000 0.0000 28.3146
#
#
#
# Elastic Compliance Matrix: (Units=1/GPa)
#
#
# Indices 1 2 3 4 5 6 
#
# 1 0.014568 -0.011877 -0.002438 0.000000 0.000000 0.000000
# 2 -0.011877 0.027603 -0.005805 0.000000 0.000000 0.000000
# 3 -0.002438 -0.005805 0.012124 0.000000 0.000000 0.000000
# 4 0.000000 0.000000 0.000000 0.051580 0.000000 0.000000
# 5 0.000000 0.000000 0.000000 0.000000 2.732750 0.000000
# 6 0.000000 0.000000 0.000000 0.000000 0.000000 0.035317
#
#
# Mechanical properties :
#
#
# Convention : Reuss Voigt Hill
#
# Bulk Modulus (GPa) = 71.14742 79.14491 75.14616
# Shear Modulus (GPa) = 1.71299 19.57354 10.64327
#
# Velocity S-wave (km/s) = 0.96219 3.25250 2.39839
# Velocity P-wave (km/s) = 6.29975 7.54187 6.94862
#
# Compressibility (1/GPa) = 0.01405532
#
# Stress axis : x y z
#
# Youngs Moduli (GPa) = 68.64184 36.22851 82.47908
#
# Poissons Ratio (x) = 0.43030 0.20109
# Poissons Ratio (y) = 0.81529 0.47875
# Poissons Ratio (z) = 0.16735 0.21029
#
# Static dielectric constant tensor:
#      x y z
#    x 1.602740 0.000000 0.000000 
#    y 0.000000 1.664600 0.000000 
#    z 0.000000 0.000000 1.666130 
# 
# From -- ./inp_files/8544.got.cif
#   From: 2010.05.17/outbox.cif.g08.bks.cpg/sg52_5_cif.got.tgz:8544.got - 2010.06.03 12:15:38.
