data_PCOD9411888
_publ_section_title
;
Structure prediction by ZEFSAII (Michael W. Deem and Ramdas Pophale) SiO2 
 PCOD9411888
Probable space group: P N N A
;
_chemical_formula_sum "Si O2"
_cell_formula_units_Z 40
_cell_length_a 7.956080
_cell_length_b 11.673316
_cell_length_c 17.613363
_cell_angle_alpha 90.000000
_cell_angle_beta 90.000000
_cell_angle_gamma 90.000000
_cell_volume 1635.820586
_symmetry_space_group_name_H-M "P N N A"
_symmetry_group_IT_number 52
_symmetry_cell_setting 'orthorhombic'
loop_
_space_group_symop_operation_xyz
x,y,z
1/2-x,-y,z
x,1/2-y,1/2-z
1/2-x,1/2+y,1/2-z
-x,-y,-z
1/2+x,y,-z
-x,1/2+y,1/2+z
1/2+x,1/2-y,1/2+z
loop_
_atom_site_type_symbol
_atom_site_label
_atom_site_fract_x
_atom_site_fract_y
_atom_site_fract_z
Si Si1 0.674381 0.742022 0.600633
Si Si2 0.431137 0.030211 0.355616
Si Si3 0.822884 0.177559 0.179134
Si Si4 0.487941 0.038620 0.185886
Si Si5 0.052099 0.675588 0.937037
O O1 0.581005 0.833842 0.654228
O O2 0.636967 0.616640 0.635771
O O3 0.871960 0.772897 0.591450
O O4 0.588609 0.779312 0.520914
O O5 0.437712 0.989993 0.268614
O O6 0.250000 0.000000 0.389794
O O7 0.550291 0.958457 0.411888
O O8 0.892146 0.250000 0.250000
O O9 0.650469 0.117564 0.201561
O O10 0.801838 0.268064 0.112762
O O11 0.939729 0.075458 0.147115
#
# Coordination Sequence:
#
# PCOD9411888 Si02
#       5
#     8   8   8   8   8
#     4  11  24  41  66  98 136 175 229 274 337 400
#     4  10  22  41  69  99 132 179 226 280 336 396
#     4  11  23  42  66  96 132 175 222 272 339 400
#     4  11  24  41  67 100 132 173 220 282 331 402
#     4  11  24  43  67  97 138 182 221 279 337 405
#
# _framework density 24.452558
#
# number of rings (size 3 to 8) (size 9 to 14) (size 15 to 20)
#    0.000    1.200    2.000    3.600    2.800    0.800 
#    0.000    0.000    0.000    0.000    0.000    0.000 
#    0.000    0.000    0.000    0.000    0.000    0.000 
#
# Total GULP energy -223023.130206 kJ/mol
# GULP energy per Si atom -5575.578255 kJ/mol
# Density = 2.439690 g / cm^3
# Si number density = 24.452558 Si / 1000 Ang^3
#
#
#
# Elastic Constant Matrix: (Units=GPa)
#
#
# Indices 1 2 3 4 5 6 
#
# 1 85.7622 32.6157 -2.6196 0.0000 0.0000 0.0000
# 2 32.6157 113.8001 -5.9338 0.0000 0.0000 0.0000
# 3 -2.6196 -5.9338 57.2315 0.0000 0.0000 0.0000
# 4 0.0000 0.0000 0.0000 32.1857 0.0000 0.0000
# 5 0.0000 0.0000 0.0000 0.0000 31.2070 0.0000
# 6 0.0000 0.0000 0.0000 0.0000 0.0000 27.0519
#
#
#
# Elastic Compliance Matrix: (Units=1/GPa)
#
#
# Indices 1 2 3 4 5 6 
#
# 1 0.013089 -0.003740 0.000211 0.000000 0.000000 0.000000
# 2 -0.003740 0.009904 0.000856 0.000000 0.000000 0.000000
# 3 0.000211 0.000856 0.017571 0.000000 0.000000 0.000000
# 4 0.000000 0.000000 0.000000 0.031070 0.000000 0.000000
# 5 0.000000 0.000000 0.000000 0.000000 0.032044 0.000000
# 6 0.000000 0.000000 0.000000 0.000000 0.000000 0.036966
#
#
# Mechanical properties :
#
#
# Convention : Reuss Voigt Hill
#
# Bulk Modulus (GPa) = 28.39499 33.87983 31.13741
# Shear Modulus (GPa) = 31.69970 33.60434 32.65202
#
# Velocity S-wave (km/s) = 3.60443 3.71113 3.65817
# Velocity P-wave (km/s) = 5.38145 5.67880 5.53212
#
# Compressibility (1/GPa) = 0.03521748
#
# Stress axis : x y z
#
# Youngs Moduli (GPa) = 76.39951 100.96956 56.91101
#
# Poissons Ratio (x) = 0.37767 -0.01203
# Poissons Ratio (y) = 0.28576 -0.04870
# Poissons Ratio (z) = -0.01614 -0.08640
#
# Static dielectric constant tensor:
#      x y z
#    x 2.028000 0.000000 0.000000 
#    y 0.000000 1.984810 0.000000 
#    z 0.000000 0.000000 2.080850 
# 
# From -- ./inp_files/30843.got.cif
#   From: 2010.05.17/outbox.cif.g08.bks.cpg/sg52_16_cif.got.tgz:30843.got - 2010.06.03 12:15:38.
