data_PCOD9411710
_publ_section_title
;
Structure prediction by ZEFSAII (Michael W. Deem and Ramdas Pophale) SiO2 
 PCOD9411710
Probable space group: P N N A
;
_chemical_formula_sum "Si O2"
_cell_formula_units_Z 28
_cell_length_a 5.308133
_cell_length_b 16.886159
_cell_length_c 14.167399
_cell_angle_alpha 90.000000
_cell_angle_beta 90.000000
_cell_angle_gamma 90.000000
_cell_volume 1269.880328
_symmetry_space_group_name_H-M "P N N A"
_symmetry_group_IT_number 52
_symmetry_cell_setting 'orthorhombic'
loop_
_space_group_symop_operation_xyz
x,y,z
1/2-x,-y,z
x,1/2-y,1/2-z
1/2-x,1/2+y,1/2-z
-x,-y,-z
1/2+x,y,-z
-x,1/2+y,1/2+z
1/2+x,1/2-y,1/2+z
loop_
_atom_site_type_symbol
_atom_site_label
_atom_site_fract_x
_atom_site_fract_y
_atom_site_fract_z
Si Si1 0.785026 0.585195 0.713080
Si Si2 0.307564 0.756235 0.546185
Si Si3 0.440989 0.250000 0.250000
Si Si4 0.785152 0.584033 0.412296
O O1 0.750000 0.500000 0.766242
O O2 0.731183 0.671319 0.757232
O O3 0.550103 0.581106 0.641060
O O4 0.057290 0.588806 0.663545
O O5 0.538034 0.790085 0.484412
O O6 0.386983 0.755512 0.655915
O O7 0.279912 0.662229 0.525374
O O8 0.750000 0.500000 0.462297
#
# Coordination Sequence:
#
# PCOD9411710 Si02
#       4
#     8   8   4   8
#     4   9  18  33  56  83 109 148 193 226 277 341
#     4  11  23  36  55  85 113 148 195 230 277 345
#     4  10  22  40  62  80 118 156 182 240 292 322
#     4   9  18  33  52  80 117 147 177 225 283 350
#
# _framework density 22.049323999999999
#
# number of rings (size 3 to 8) (size 9 to 14) (size 15 to 20)
#    0.000    2.286    0.000    3.429    0.000   11.429 
#    0.000    1.429    0.000    1.714    0.000    0.000 
#    0.000    0.000    0.000    0.000    0.000    0.000 
#
# Total GULP energy -156121.650959 kJ/mol
# GULP energy per Si atom -5575.773249 kJ/mol
# Density = 2.199914 g / cm^3
# Si number density = 22.049324 Si / 1000 Ang^3
#
#
#
# Elastic Constant Matrix: (Units=GPa)
#
#
# Indices 1 2 3 4 5 6 
#
# 1 101.6467 12.5985 50.7197 0.0000 0.0000 0.0000
# 2 12.5985 112.9337 15.3313 0.0000 0.0000 0.0000
# 3 50.7197 15.3313 80.5442 0.0000 0.0000 0.0000
# 4 0.0000 0.0000 0.0000 26.6816 0.0000 0.0000
# 5 0.0000 0.0000 0.0000 0.0000 66.6926 0.0000
# 6 0.0000 0.0000 0.0000 0.0000 0.0000 21.1807
#
#
#
# Elastic Compliance Matrix: (Units=1/GPa)
#
#
# Indices 1 2 3 4 5 6 
#
# 1 0.014362 -0.000384 -0.008971 0.000000 0.000000 0.000000
# 2 -0.000384 0.009100 -0.001490 0.000000 0.000000 0.000000
# 3 -0.008971 -0.001490 0.018348 0.000000 0.000000 0.000000
# 4 0.000000 0.000000 0.000000 0.037479 0.000000 0.000000
# 5 0.000000 0.000000 0.000000 0.000000 0.014994 0.000000
# 6 0.000000 0.000000 0.000000 0.000000 0.000000 0.047213
#
#
# Mechanical properties :
#
#
# Convention : Reuss Voigt Hill
#
# Bulk Modulus (GPa) = 49.70273 50.26930 49.98602
# Shear Modulus (GPa) = 29.43034 37.34264 33.38649
#
# Velocity S-wave (km/s) = 3.65739 4.11980 3.89546
# Velocity P-wave (km/s) = 6.35813 6.74376 6.55379
#
# Compressibility (1/GPa) = 0.02011962
#
# Stress axis : x y z
#
# Youngs Moduli (GPa) = 69.62904 109.89112 54.50150
#
# Poissons Ratio (x) = 0.04224 0.48891
# Poissons Ratio (y) = 0.02676 0.08121
# Poissons Ratio (z) = 0.62462 0.16375
#
# Static dielectric constant tensor:
#      x y z
#    x 1.864890 0.000000 0.000000 
#    y 0.000000 1.907990 0.000000 
#    z 0.000000 0.000000 1.807970 
# 
# From -- ./inp_files/23417.got.cif
#   From: 2010.05.17/outbox.cif.g08.bks.cpg/sg52_12_cif.got.tgz:23417.got - 2010.06.03 12:15:38.
