data_PCOD9411754
_publ_section_title
;
Structure prediction by ZEFSAII (Michael W. Deem and Ramdas Pophale) SiO2 
 PCOD9411754
Probable space group: P N N A
;
_chemical_formula_sum "Si O2"
_cell_formula_units_Z 40
_cell_length_a 14.544747
_cell_length_b 22.991989
_cell_length_c 6.011956
_cell_angle_alpha 90.000000
_cell_angle_beta 90.000000
_cell_angle_gamma 90.000000
_cell_volume 2010.474216
_symmetry_space_group_name_H-M "P N N A"
_symmetry_group_IT_number 52
_symmetry_cell_setting 'orthorhombic'
loop_
_space_group_symop_operation_xyz
x,y,z
1/2-x,-y,z
x,1/2-y,1/2-z
1/2-x,1/2+y,1/2-z
-x,-y,-z
1/2+x,y,-z
-x,1/2+y,1/2+z
1/2+x,1/2-y,1/2+z
loop_
_atom_site_type_symbol
_atom_site_label
_atom_site_fract_x
_atom_site_fract_y
_atom_site_fract_z
Si Si1 0.937677 0.614103 0.930935
Si Si2 0.851865 0.507068 0.698620
Si Si3 0.141142 0.602682 0.042758
Si Si4 0.716435 0.317839 0.701817
Si Si5 0.793781 0.905712 0.187484
O O1 0.879576 0.610387 0.157446
O O2 0.919803 0.551092 0.820402
O O3 0.883695 0.660400 0.781414
O O4 0.044355 0.625520 0.956201
O O5 0.750000 0.500000 0.804456
O O6 0.826807 0.540924 0.470555
O O7 0.885257 0.442441 0.756346
O O8 0.203727 0.579457 0.835963
O O9 0.207441 0.650366 0.148201
O O10 0.724142 0.250000 0.750000
O O11 0.728425 0.348777 0.462238
#
# Coordination Sequence:
#
# PCOD9411754 Si02
#       5
#     8   8   8   8   8
#     4  10  23  40  61  95 122 161 214 261 313 378
#     4  11  20  38  60  90 126 165 200 253 315 391
#     4  11  23  40  63  96 123 159 221 252 314 389
#     4  10  23  44  61  89 125 164 214 255 320 379
#     4  10  22  40  66  81 133 166 194 265 323 355
#
# _framework density 19.895804999999999
#
# number of rings (size 3 to 8) (size 9 to 14) (size 15 to 20)
#    0.000    1.600    6.000    0.600    2.800    7.200 
#    7.200    0.000    0.000    0.000    0.000    0.000 
#    0.000    0.000    0.000    0.000    0.000    0.000 
#
# Total GULP energy -222694.176861 kJ/mol
# GULP energy per Si atom -5567.354422 kJ/mol
# Density = 1.985052 g / cm^3
# Si number density = 19.895805 Si / 1000 Ang^3
#
#
#
# Elastic Constant Matrix: (Units=GPa)
#
#
# Indices 1 2 3 4 5 6 
#
# 1 106.1217 -11.5789 34.4891 0.0000 0.0000 0.0000
# 2 -11.5789 109.5986 37.5882 0.0000 0.0000 0.0000
# 3 34.4891 37.5882 82.7742 0.0000 0.0000 0.0000
# 4 0.0000 0.0000 0.0000 8.1714 0.0000 0.0000
# 5 0.0000 0.0000 0.0000 0.0000 21.6102 0.0000
# 6 0.0000 0.0000 0.0000 0.0000 0.0000 8.9019
#
#
#
# Elastic Compliance Matrix: (Units=1/GPa)
#
#
# Indices 1 2 3 4 5 6 
#
# 1 0.011943 0.003516 -0.006573 0.000000 0.000000 0.000000
# 2 0.003516 0.011842 -0.006843 0.000000 0.000000 0.000000
# 3 -0.006573 -0.006843 0.017927 0.000000 0.000000 0.000000
# 4 0.000000 0.000000 0.000000 0.122378 0.000000 0.000000
# 5 0.000000 0.000000 0.000000 0.000000 0.046274 0.000000
# 6 0.000000 0.000000 0.000000 0.000000 0.000000 0.112335
#
#
# Mechanical properties :
#
#
# Convention : Reuss Voigt Hill
#
# Bulk Modulus (GPa) = 45.63437 46.61014 46.12226
# Shear Modulus (GPa) = 14.29375 23.60313 18.94844
#
# Velocity S-wave (km/s) = 2.68326 3.44806 3.08942
# Velocity P-wave (km/s) = 5.70844 6.27137 5.99652
#
# Compressibility (1/GPa) = 0.02191331
#
# Stress axis : x y z
#
# Youngs Moduli (GPa) = 83.73175 84.44195 55.78171
#
# Poissons Ratio (x) = -0.29690 0.36664
# Poissons Ratio (y) = -0.29440 0.38170
# Poissons Ratio (z) = 0.55035 0.57781
#
# Static dielectric constant tensor:
#      x y z
#    x 1.756630 0.000000 0.000000 
#    y 0.000000 1.863140 0.000000 
#    z 0.000000 0.000000 1.775080 
# 
# From -- ./inp_files/2259.got.cif
#   From: 2010.05.17/outbox.cif.g08.bks.cpg/sg52_2_cif.got.tgz:2259.got - 2010.06.03 12:15:38.
