data_PCOD9411666
_publ_section_title
;
Structure prediction by ZEFSAII (Michael W. Deem and Ramdas Pophale) SiO2 
 PCOD9411666
Probable space group: P N N A
;
_chemical_formula_sum "Si O2"
_cell_formula_units_Z 64
_cell_length_a 15.059315
_cell_length_b 17.987215
_cell_length_c 12.354525
_cell_angle_alpha 90.000000
_cell_angle_beta 90.000000
_cell_angle_gamma 90.000000
_cell_volume 3346.533648
_symmetry_space_group_name_H-M "P N N A"
_symmetry_group_IT_number 52
_symmetry_cell_setting 'orthorhombic'
loop_
_space_group_symop_operation_xyz
x,y,z
1/2-x,-y,z
x,1/2-y,1/2-z
1/2-x,1/2+y,1/2-z
-x,-y,-z
1/2+x,y,-z
-x,1/2+y,1/2+z
1/2+x,1/2-y,1/2+z
loop_
_atom_site_type_symbol
_atom_site_label
_atom_site_fract_x
_atom_site_fract_y
_atom_site_fract_z
Si Si1 0.332616 0.641340 0.037440
Si Si2 0.927361 0.908335 0.929545
Si Si3 0.015957 0.250021 0.119927
Si Si4 0.855699 0.990676 0.378901
Si Si5 0.041379 0.456156 0.663386
Si Si6 0.127686 0.647990 0.983822
Si Si7 0.412880 0.336906 0.233193
Si Si8 0.771158 0.587197 0.729947
O O1 0.401317 0.707144 0.063198
O O2 0.314254 0.601329 0.152490
O O3 0.372362 0.581137 0.954189
O O4 0.234070 0.663216 0.993688
O O5 0.986093 0.834218 0.922438
O O6 0.838654 0.891210 0.863733
O O7 0.910905 0.932146 0.052708
O O8 0.976233 0.976402 0.869481
O O9 0.028017 0.250000 0.250000
O O10 0.926678 0.293243 0.086968
O O11 0.896418 0.981070 0.260969
O O12 0.750000 0.000000 0.371681
O O13 0.888049 0.066324 0.434745
O O14 0.984916 0.386976 0.707382
O O15 0.090086 0.648381 0.105200
O O16 0.426825 0.250000 0.250000
O O17 0.317081 0.363630 0.276244
O O18 0.750000 0.500000 0.720921
#
# Coordination Sequence:
#
# PCOD9411666 Si02
#       8
#     8   8   8   8   8   8   8   8
#     4  10  22  39  65  98 131 160 214 278 328 387
#     4  11  25  41  58  92 128 167 216 262 315 395
#     4  12  23  40  65  97 133 172 220 268 327 397
#     4  10  22  42  65  93 127 168 219 267 328 391
#     4  11  24  44  61  87 130 170 215 263 317 396
#     4  10  23  39  64  98 128 167 214 276 332 383
#     4  11  23  39  67  96 129 165 213 270 335 387
#     4  11  21  39  64  94 126 165 210 268 322 381
#
# _framework density 19.124267
#
# number of rings (size 3 to 8) (size 9 to 14) (size 15 to 20)
#    0.000    1.250    2.500    4.125    3.500    1.500 
#    0.000    2.500    0.000    0.000    0.000    0.000 
#    0.000    0.000    0.000    0.000    0.000    0.000 
#
# Total GULP energy -357776.914270 kJ/mol
# GULP energy per Si atom -5590.264285 kJ/mol
# Density = 1.908074 g / cm^3
# Si number density = 19.124267 Si / 1000 Ang^3
#
#
#
# Elastic Constant Matrix: (Units=GPa)
#
#
# Indices 1 2 3 4 5 6 
#
# 1 51.8790 42.1544 40.1832 0.0000 0.0000 0.0000
# 2 42.1544 142.4415 49.9586 0.0000 0.0000 0.0000
# 3 40.1832 49.9586 115.7083 0.0000 0.0000 0.0000
# 4 0.0000 0.0000 0.0000 31.2514 0.0000 0.0000
# 5 0.0000 0.0000 0.0000 0.0000 16.5986 0.0000
# 6 0.0000 0.0000 0.0000 0.0000 0.0000 21.5395
#
#
#
# Elastic Compliance Matrix: (Units=1/GPa)
#
#
# Indices 1 2 3 4 5 6 
#
# 1 0.030456 -0.006250 -0.007878 0.000000 0.000000 0.000000
# 2 -0.006250 0.009556 -0.001955 0.000000 0.000000 0.000000
# 3 -0.007878 -0.001955 0.012223 0.000000 0.000000 0.000000
# 4 0.000000 0.000000 0.000000 0.031999 0.000000 0.000000
# 5 0.000000 0.000000 0.000000 0.000000 0.060246 0.000000
# 6 0.000000 0.000000 0.000000 0.000000 0.000000 0.046426
#
#
# Mechanical properties :
#
#
# Convention : Reuss Voigt Hill
#
# Bulk Modulus (GPa) = 49.83221 63.84681 56.83951
# Shear Modulus (GPa) = 21.76157 25.72672 23.74415
#
# Velocity S-wave (km/s) = 3.37694 3.67173 3.52742
# Velocity P-wave (km/s) = 6.42796 7.17169 6.80998
#
# Compressibility (1/GPa) = 0.02006734
#
# Stress axis : x y z
#
# Youngs Moduli (GPa) = 32.83378 104.64735 81.81533
#
# Poissons Ratio (x) = 0.65406 0.64457
# Poissons Ratio (y) = 0.20522 0.15998
# Poissons Ratio (z) = 0.25868 0.20462
#
# Static dielectric constant tensor:
#      x y z
#    x 1.871220 0.000000 0.000000 
#    y 0.000000 1.656800 0.000000 
#    z 0.000000 0.000000 1.638440 
# 
# From -- ./inp_files/19856.got.cif
#   From: 2010.05.17/outbox.cif.g08.bks.cpg/sg52_10_cif.got.tgz:19856.got - 2010.06.03 12:15:38.
