data_PCOD9411648
_publ_section_title
;
Structure prediction by ZEFSAII (Michael W. Deem and Ramdas Pophale) SiO2 
 PCOD9411648
Probable space group: P N N A
;
_chemical_formula_sum "Si O2"
_cell_formula_units_Z 64
_cell_length_a 8.413862
_cell_length_b 17.747701
_cell_length_c 21.862758
_cell_angle_alpha 90.000000
_cell_angle_beta 90.000000
_cell_angle_gamma 90.000000
_cell_volume 3264.693659
_symmetry_space_group_name_H-M "P N N A"
_symmetry_group_IT_number 52
_symmetry_cell_setting 'orthorhombic'
loop_
_space_group_symop_operation_xyz
x,y,z
1/2-x,-y,z
x,1/2-y,1/2-z
1/2-x,1/2+y,1/2-z
-x,-y,-z
1/2+x,y,-z
-x,1/2+y,1/2+z
1/2+x,1/2-y,1/2+z
loop_
_atom_site_type_symbol
_atom_site_label
_atom_site_fract_x
_atom_site_fract_y
_atom_site_fract_z
Si Si1 0.918025 0.954905 0.373540
Si Si2 0.404839 0.315428 0.297269
Si Si3 0.934917 0.234385 0.350759
Si Si4 0.915919 0.722094 0.103562
Si Si5 0.564129 0.979505 0.755999
Si Si6 0.359422 0.430573 0.014408
Si Si7 0.035268 0.142598 0.238076
Si Si8 0.914858 0.680438 0.962253
O O1 0.913730 0.863819 0.371322
O O2 0.021385 0.976875 0.315277
O O3 0.018437 0.962746 0.436042
O O4 0.750000 0.000000 0.370391
O O5 0.457932 0.250000 0.250000
O O6 0.459104 0.277143 0.361710
O O7 0.477207 0.399149 0.286271
O O8 0.218807 0.333199 0.278944
O O9 0.764294 0.242199 0.381239
O O10 0.988123 0.163112 0.308163
O O11 0.938883 0.302348 0.304310
O O12 0.059579 0.235608 0.406315
O O13 0.930519 0.716333 0.029764
O O14 0.750000 0.000000 0.762209
O O15 0.489567 0.057532 0.778660
O O16 0.250000 0.500000 0.996871
O O17 0.245538 0.367162 0.043899
O O18 0.445561 0.382860 0.961634
#
# Coordination Sequence:
#
# PCOD9411648 Si02
#       8
#     8   8   8   8   8   8   8   8
#     4  11  24  37  58  88 132 171 217 256 311 373
#     4  11  21  40  64  94 121 165 208 264 318 381
#     4  11  23  42  61  89 130 164 216 256 324 372
#     4  11  25  40  61  92 124 172 212 264 310 376
#     4  10  22  39  61  96 125 163 214 263 329 377
#     4  11  25  39  58  85 124 173 209 258 306 374
#     4  10  24  38  66  90 124 168 207 269 316 388
#     4  11  25  42  61  88 123 168 221 257 313 381
#
# _framework density 19.603676
#
# number of rings (size 3 to 8) (size 9 to 14) (size 15 to 20)
#    0.000    1.250    3.750    1.500   12.250    3.000 
#    0.000    0.000    0.000    0.750    0.000    0.000 
#    0.000    0.000    0.000    0.000    0.000    0.000 
#
# Total GULP energy -356619.456259 kJ/mol
# GULP energy per Si atom -5572.179004 kJ/mol
# Density = 1.955906 g / cm^3
# Si number density = 19.603676 Si / 1000 Ang^3
#
#
#
# Elastic Constant Matrix: (Units=GPa)
#
#
# Indices 1 2 3 4 5 6 
#
# 1 46.5843 9.2405 14.5174 0.0000 0.0000 0.0000
# 2 9.2405 127.3442 40.5893 0.0000 0.0000 0.0000
# 3 14.5174 40.5893 95.8720 0.0000 0.0000 0.0000
# 4 0.0000 0.0000 0.0000 7.0175 0.0000 0.0000
# 5 0.0000 0.0000 0.0000 0.0000 25.1387 0.0000
# 6 0.0000 0.0000 0.0000 0.0000 0.0000 14.0900
#
#
#
# Elastic Compliance Matrix: (Units=1/GPa)
#
#
# Indices 1 2 3 4 5 6 
#
# 1 0.022574 -0.000634 -0.003150 0.000000 0.000000 0.000000
# 2 -0.000634 0.009096 -0.003755 0.000000 0.000000 0.000000
# 3 -0.003150 -0.003755 0.012497 0.000000 0.000000 0.000000
# 4 0.000000 0.000000 0.000000 0.142501 0.000000 0.000000
# 5 0.000000 0.000000 0.000000 0.000000 0.039779 0.000000
# 6 0.000000 0.000000 0.000000 0.000000 0.000000 0.070973
#
#
# Mechanical properties :
#
#
# Convention : Reuss Voigt Hill
#
# Bulk Modulus (GPa) = 34.37692 44.27721 39.32707
# Shear Modulus (GPa) = 15.51864 22.94611 19.23238
#
# Velocity S-wave (km/s) = 2.81662 3.42497 3.13559
# Velocity P-wave (km/s) = 5.30583 6.18674 5.76314
#
# Compressibility (1/GPa) = 0.02908928
#
# Stress axis : x y z
#
# Youngs Moduli (GPa) = 44.29908 109.94421 80.01807
#
# Poissons Ratio (x) = 0.06971 0.25204
# Poissons Ratio (y) = 0.02809 0.30045
# Poissons Ratio (z) = 0.13953 0.41281
#
# Static dielectric constant tensor:
#      x y z
#    x 1.856810 0.000000 0.000000 
#    y 0.000000 1.764290 0.000000 
#    z 0.000000 0.000000 1.702250 
# 
# From -- ./inp_files/36184.got.cif
#   From: 2010.05.17/outbox.cif.g08.bks.cpg/sg52_19_cif.got.tgz:36184.got - 2010.06.03 12:15:38.
