data_PCOD9411781
_publ_section_title
;
Structure prediction by ZEFSAII (Michael W. Deem and Ramdas Pophale) SiO2 
 PCOD9411781
Probable space group: P N N A
;
_chemical_formula_sum "Si O2"
_cell_formula_units_Z 52
_cell_length_a 15.474474
_cell_length_b 10.156594
_cell_length_c 12.437491
_cell_angle_alpha 90.000000
_cell_angle_beta 90.000000
_cell_angle_gamma 90.000000
_cell_volume 1954.774961
_symmetry_space_group_name_H-M "P N N A"
_symmetry_group_IT_number 52
_symmetry_cell_setting 'orthorhombic'
loop_
_space_group_symop_operation_xyz
x,y,z
1/2-x,-y,z
x,1/2-y,1/2-z
1/2-x,1/2+y,1/2-z
-x,-y,-z
1/2+x,y,-z
-x,1/2+y,1/2+z
1/2+x,1/2-y,1/2+z
loop_
_atom_site_type_symbol
_atom_site_label
_atom_site_fract_x
_atom_site_fract_y
_atom_site_fract_z
Si Si1 0.495101 0.360350 0.827074
Si Si2 0.845818 0.538045 0.463523
Si Si3 0.592569 0.729824 0.517489
Si Si4 0.212963 0.184261 0.520781
Si Si5 0.334853 0.250000 0.250000
Si Si6 0.690202 0.090830 0.714472
Si Si7 0.116490 0.397014 0.776159
O O1 0.451472 0.250000 0.750000
O O2 0.478911 0.305150 0.947866
O O3 0.587551 0.385795 0.771755
O O4 0.450905 0.501386 0.822575
O O5 0.750000 0.500000 0.503347
O O6 0.911358 0.427832 0.502547
O O7 0.848426 0.688445 0.498973
O O8 0.849032 0.543966 0.335100
O O9 0.607811 0.753406 0.643058
O O10 0.687312 0.772288 0.472196
O O11 0.196221 0.099590 0.416030
O O12 0.187851 0.122184 0.632864
O O13 0.303269 0.426564 0.246192
O O14 0.722944 0.250000 0.750000
O O15 0.083643 0.250000 0.750000
#
# Coordination Sequence:
#
# PCOD9411781 Si02
#       7
#     8   8   8   8   4   8   8
#     4  12  25  46  79 116 153 199 270 341 404 473
#     4   9  18  36  67 105 149 202 248 313 384 477
#     4  10  22  42  76 112 153 211 272 330 393 476
#     4   9  22  40  66 103 154 205 253 312 394 484
#     4  10  24  48  72 110 154 216 262 314 408 488
#     4  11  26  49  73 102 148 211 265 325 397 491
#     4  10  22  40  68 111 163 198 249 325 411 475
#
# _framework density 26.601526
#
# number of rings (size 3 to 8) (size 9 to 14) (size 15 to 20)
#    0.000    1.846    2.308    0.000    6.462    4.308 
#    1.385    2.308    0.000    0.000    0.000    0.000 
#    0.000    0.000    0.000    0.000    0.000    0.000 
#
# Total GULP energy -290681.421925 kJ/mol
# GULP energy per Si atom -5590.027345 kJ/mol
# Density = 2.654098 g / cm^3
# Si number density = 26.601526 Si / 1000 Ang^3
#
#
#
# Elastic Constant Matrix: (Units=GPa)
#
#
# Indices 1 2 3 4 5 6 
#
# 1 97.1502 61.6691 26.6863 0.0000 0.0000 0.0000
# 2 61.6691 180.9932 58.0802 0.0000 0.0000 0.0000
# 3 26.6863 58.0802 159.6649 0.0000 0.0000 0.0000
# 4 0.0000 0.0000 0.0000 33.2000 0.0000 0.0000
# 5 0.0000 0.0000 0.0000 0.0000 17.7002 0.0000
# 6 0.0000 0.0000 0.0000 0.0000 0.0000 4.6298
#
#
#
# Elastic Compliance Matrix: (Units=1/GPa)
#
#
# Indices 1 2 3 4 5 6 
#
# 1 0.013193 -0.004288 -0.000645 0.000000 0.000000 0.000000
# 2 -0.004288 0.007649 -0.002066 0.000000 0.000000 0.000000
# 3 -0.000645 -0.002066 0.007122 0.000000 0.000000 0.000000
# 4 0.000000 0.000000 0.000000 0.030120 0.000000 0.000000
# 5 0.000000 0.000000 0.000000 0.000000 0.056497 0.000000
# 6 0.000000 0.000000 0.000000 0.000000 0.000000 0.215992
#
#
# Mechanical properties :
#
#
# Convention : Reuss Voigt Hill
#
# Bulk Modulus (GPa) = 71.60199 81.18659 76.39429
# Shear Modulus (GPa) = 14.31736 30.53086 22.42411
#
# Velocity S-wave (km/s) = 2.32246 3.39146 2.90653
# Velocity P-wave (km/s) = 5.84523 6.77656 6.32805
#
# Compressibility (1/GPa) = 0.01396609
#
# Stress axis : x y z
#
# Youngs Moduli (GPa) = 75.80062 130.73629 140.40238
#
# Poissons Ratio (x) = 0.56060 0.09058
# Poissons Ratio (y) = 0.32503 0.29003
# Poissons Ratio (z) = 0.04890 0.27007
#
# Static dielectric constant tensor:
#      x y z
#    x 2.134190 0.000000 0.000000 
#    y 0.000000 2.491040 0.000000 
#    z 0.000000 0.000000 1.982500 
# 
# From -- ./inp_files/22815.got.cif
#   From: 2010.05.17/outbox.cif.g08.bks.cpg/sg52_12_cif.got.tgz:22815.got - 2010.06.03 12:15:38.
