data_PCOD9411243
_publ_section_title
;
Structure prediction by ZEFSAII (Michael W. Deem and Ramdas Pophale) SiO2 
 PCOD9411243
Probable space group: P N N A
;
_chemical_formula_sum "Si O2"
_cell_formula_units_Z 40
_cell_length_a 17.513125
_cell_length_b 7.950808
_cell_length_c 13.080043
_cell_angle_alpha 90.000000
_cell_angle_beta 90.000000
_cell_angle_gamma 90.000000
_cell_volume 1821.310894
_symmetry_space_group_name_H-M "P N N A"
_symmetry_group_IT_number 52
_symmetry_cell_setting 'orthorhombic'
loop_
_space_group_symop_operation_xyz
x,y,z
1/2-x,-y,z
x,1/2-y,1/2-z
1/2-x,1/2+y,1/2-z
-x,-y,-z
1/2+x,y,-z
-x,1/2+y,1/2+z
1/2+x,1/2-y,1/2+z
loop_
_atom_site_type_symbol
_atom_site_label
_atom_site_fract_x
_atom_site_fract_y
_atom_site_fract_z
Si Si1 0.823279 0.250000 0.750000
Si Si2 0.761330 0.249218 0.965698
Si Si3 0.106323 0.951992 0.764871
Si Si4 0.379213 0.947349 0.998809
Si Si5 0.562859 0.439087 0.714611
Si Si6 0.250000 0.000000 0.638046
O O1 0.771948 0.293724 0.847968
O O2 0.877026 0.414138 0.738108
O O3 0.672833 0.217271 0.989303
O O4 0.818171 0.092249 0.974113
O O5 0.785147 0.368229 0.057939
O O6 0.119783 0.750000 0.750000
O O7 0.177657 0.042471 0.709920
O O8 0.018448 0.979786 0.731826
O O9 0.103635 0.014882 0.881739
O O10 0.440666 0.939274 0.089680
O O11 0.584154 0.250000 0.750000
#
# Coordination Sequence:
#
# PCOD9411243 Si02
#       6
#     4   8   8   8   8   4
#     4  10  24  46  64  98 144 168 234 296 338 426
#     4  10  23  38  66  96 129 174 224 283 349 406
#     4  11  23  43  66  97 140 181 232 285 348 428
#     4  10  21  41  65  95 131 181 224 277 350 409
#     4  10  24  43  69  99 136 188 231 285 355 417
#     4  12  24  38  66  98 134 170 230 292 336 418
#
# _framework density 21.962204
#
# number of rings (size 3 to 8) (size 9 to 14) (size 15 to 20)
#    0.000    1.600    2.000    1.800    4.200    3.200 
#    0.000    1.000    0.000    0.000    0.000    0.000 
#    0.000    0.000    0.000    0.000    0.000    0.000 
#
# Total GULP energy -222826.330761 kJ/mol
# GULP energy per Si atom -5570.658269 kJ/mol
# Density = 2.191222 g / cm^3
# Si number density = 21.962204 Si / 1000 Ang^3
#
#
#
# Elastic Constant Matrix: (Units=GPa)
#
#
# Indices 1 2 3 4 5 6 
#
# 1 92.6315 30.6563 50.4551 0.0000 0.0000 0.0000
# 2 30.6563 72.0293 41.3395 0.0000 0.0000 0.0000
# 3 50.4551 41.3395 153.4586 0.0000 0.0000 0.0000
# 4 0.0000 0.0000 0.0000 26.1498 0.0000 0.0000
# 5 0.0000 0.0000 0.0000 0.0000 -2.9808 0.0000
# 6 0.0000 0.0000 0.0000 0.0000 0.0000 21.1743
#
#
#
# Elastic Compliance Matrix: (Units=1/GPa)
#
#
# Indices 1 2 3 4 5 6 
#
# 1 0.014033 -0.003933 -0.003554 0.000000 0.000000 0.000000
# 2 -0.003933 0.017524 -0.003428 0.000000 0.000000 0.000000
# 3 -0.003554 -0.003428 0.008608 0.000000 0.000000 0.000000
# 4 0.000000 0.000000 0.000000 0.038241 0.000000 0.000000
# 5 0.000000 0.000000 0.000000 0.000000 -0.335475 0.000000
# 6 0.000000 0.000000 0.000000 0.000000 0.000000 0.047227
#
#
# Mechanical properties :
#
#
# Convention : Reuss Voigt Hill
#
# Bulk Modulus (GPa) = 54.53733 62.55790 58.54761
# Shear Modulus (GPa) = -27.48779 21.91320 -2.78729
#
# Velocity S-wave (km/s) = -3.54163 3.16217 -1.12778
# Velocity P-wave (km/s) = 2.85694 6.47137 5.00204
#
# Compressibility (1/GPa) = 0.01833607
#
# Stress axis : x y z
#
# Youngs Moduli (GPa) = 71.26053 57.06365 116.16447
#
# Poissons Ratio (x) = 0.22441 0.41290
# Poissons Ratio (y) = 0.28024 0.39819
# Poissons Ratio (z) = 0.25329 0.19560
#
# Static dielectric constant tensor:
#      x y z
#    x 1.422160 0.000000 0.000000 
#    y 0.000000 1.832130 0.000000 
#    z 0.000000 0.000000 1.841600 
# 
# From -- ./inp_files/20354.got.cif
#   From: 2010.05.17/outbox.cif.g08.bks.cpg/sg52_11_cif.got.tgz:20354.got - 2010.06.03 12:15:38.
