data_PCOD9411123
_publ_section_title
;
Structure prediction by ZEFSAII (Michael W. Deem and Ramdas Pophale) SiO2 
 PCOD9411123
Probable space group: P N N A
;
_chemical_formula_sum "Si O2"
_cell_formula_units_Z 48
_cell_length_a 13.805444
_cell_length_b 7.554260
_cell_length_c 23.875753
_cell_angle_alpha 90.000000
_cell_angle_beta 90.000000
_cell_angle_gamma 90.000000
_cell_volume 2490.000213
_symmetry_space_group_name_H-M "P N N A"
_symmetry_group_IT_number 52
_symmetry_cell_setting 'orthorhombic'
loop_
_space_group_symop_operation_xyz
x,y,z
1/2-x,-y,z
x,1/2-y,1/2-z
1/2-x,1/2+y,1/2-z
-x,-y,-z
1/2+x,y,-z
-x,1/2+y,1/2+z
1/2+x,1/2-y,1/2+z
loop_
_atom_site_type_symbol
_atom_site_label
_atom_site_fract_x
_atom_site_fract_y
_atom_site_fract_z
Si Si1 0.513494 0.256794 0.815976
Si Si2 0.447279 0.665308 0.526009
Si Si3 0.008965 0.176276 0.690244
Si Si4 0.376931 0.188417 0.410242
Si Si5 0.862156 0.956381 0.144140
Si Si6 0.661565 0.273536 0.914678
O O1 0.542032 0.250000 0.750000
O O2 0.483430 0.465469 0.820279
O O3 0.597757 0.209360 0.861300
O O4 0.427453 0.119066 0.831756
O O5 0.500000 0.500000 0.500000
O O6 0.536875 0.788966 0.544972
O O7 0.389419 0.596022 0.580259
O O8 0.382551 0.737033 0.475751
O O9 0.977494 0.250000 0.750000
O O10 0.107937 0.279740 0.677607
O O11 0.928963 0.244644 0.646664
O O12 0.273935 0.284069 0.416668
O O13 0.349208 0.984023 0.407421
O O14 0.750000 0.000000 0.148912
#
# Coordination Sequence:
#
# PCOD9411123 Si02
#       6
#     8   8   8   8   8   8
#     4  11  22  41  65  91 129 164 209 268 318 373
#     4  11  22  38  61  87 128 159 205 263 305 369
#     4  10  21  42  64  89 130 167 207 267 320 372
#     4   9  22  39  61  93 122 164 209 255 314 384
#     4  11  25  42  61  96 125 166 219 257 320 382
#     4  10  21  40  64  90 124 166 208 253 323 375
#
# _framework density 19.277107000000001
#
# number of rings (size 3 to 8) (size 9 to 14) (size 15 to 20)
#    0.000    1.667    3.333    0.500    2.333    2.000 
#    0.000    0.000    0.000    0.000    0.000    0.000 
#    0.000    0.000    0.000    0.000    0.000    0.000 
#
# Total GULP energy -267313.878744 kJ/mol
# GULP energy per Si atom -5569.039140 kJ/mol
# Density = 1.923323 g / cm^3
# Si number density = 19.277107 Si / 1000 Ang^3
#
#
#
# Elastic Constant Matrix: (Units=GPa)
#
#
# Indices 1 2 3 4 5 6 
#
# 1 135.4508 22.0885 64.3350 0.0000 0.0000 0.0000
# 2 22.0885 66.3461 9.2122 0.0000 0.0000 0.0000
# 3 64.3350 9.2122 139.9010 0.0000 0.0000 0.0000
# 4 0.0000 0.0000 0.0000 23.4732 0.0000 0.0000
# 5 0.0000 0.0000 0.0000 0.0000 8.5287 0.0000
# 6 0.0000 0.0000 0.0000 0.0000 0.0000 23.7425
#
#
#
# Elastic Compliance Matrix: (Units=1/GPa)
#
#
# Indices 1 2 3 4 5 6 
#
# 1 0.009899 -0.002688 -0.004375 0.000000 0.000000 0.000000
# 2 -0.002688 0.015942 0.000186 0.000000 0.000000 0.000000
# 3 -0.004375 0.000186 0.009148 0.000000 0.000000 0.000000
# 4 0.000000 0.000000 0.000000 0.042602 0.000000 0.000000
# 5 0.000000 0.000000 0.000000 0.000000 0.117251 0.000000
# 6 0.000000 0.000000 0.000000 0.000000 0.000000 0.042119
#
#
# Mechanical properties :
#
#
# Convention : Reuss Voigt Hill
#
# Bulk Modulus (GPa) = 47.09325 59.21880 53.15603
# Shear Modulus (GPa) = 19.39550 27.55303 23.47427
#
# Velocity S-wave (km/s) = 3.17541 3.78473 3.49338
# Velocity P-wave (km/s) = 6.15849 7.06296 6.62617
#
# Compressibility (1/GPa) = 0.02123447
#
# Stress axis : x y z
#
# Youngs Moduli (GPa) = 101.01776 62.72906 109.31780
#
# Poissons Ratio (x) = 0.16863 0.47829
# Poissons Ratio (y) = 0.27156 -0.02039
# Poissons Ratio (z) = 0.44198 -0.01170
#
# Static dielectric constant tensor:
#      x y z
#    x 1.669110 0.000000 0.000000 
#    y 0.000000 1.694610 0.000000 
#    z 0.000000 0.000000 1.626490 
# 
# From -- ./inp_files/40150.got.cif
#   From: 2010.05.17/outbox.cif.g08.bks.cpg/sg52_21_cif.got.tgz:40150.got - 2010.06.03 12:15:38.
