data_PCOD9411317
_publ_section_title
;
Structure prediction by ZEFSAII (Michael W. Deem and Ramdas Pophale) SiO2 
 PCOD9411317
Probable space group: P N N A
;
_chemical_formula_sum "Si O2"
_cell_formula_units_Z 36
_cell_length_a 13.842748
_cell_length_b 9.602509
_cell_length_c 11.105289
_cell_angle_alpha 90.000000
_cell_angle_beta 90.000000
_cell_angle_gamma 90.000000
_cell_volume 1476.171787
_symmetry_space_group_name_H-M "P N N A"
_symmetry_group_IT_number 52
_symmetry_cell_setting 'orthorhombic'
loop_
_space_group_symop_operation_xyz
x,y,z
1/2-x,-y,z
x,1/2-y,1/2-z
1/2-x,1/2+y,1/2-z
-x,-y,-z
1/2+x,y,-z
-x,1/2+y,1/2+z
1/2+x,1/2-y,1/2+z
loop_
_atom_site_type_symbol
_atom_site_label
_atom_site_fract_x
_atom_site_fract_y
_atom_site_fract_z
Si Si1 0.439197 0.525822 0.329061
Si Si2 0.241803 0.342428 0.930767
Si Si3 0.750000 0.000000 0.668476
Si Si4 0.933038 0.287978 0.463695
Si Si5 0.532157 0.357206 0.152072
O O1 0.342808 0.515248 0.251939
O O2 0.475198 0.669872 0.384441
O O3 0.426320 0.416045 0.440124
O O4 0.525491 0.492878 0.232989
O O5 0.250000 0.500000 0.880244
O O6 0.247916 0.369725 0.075193
O O7 0.330681 0.241963 0.902275
O O8 0.135842 0.300231 0.888001
O O9 0.962745 0.149448 0.537635
O O10 0.489973 0.250000 0.250000
#
# Coordination Sequence:
#
# PCOD9411317 Si02
#       5
#     8   8   4   8   8
#     4  10  22  41  67  98 139 179 233 299 354 427
#     4  10  23  40  63  93 133 179 225 286 340 432
#     4  10  22  40  66  96 134 184 226 294 346 418
#     4  10  22  42  65  99 134 178 235 290 352 428
#     4  10  21  42  65  92 136 175 221 294 354 412
#
# _framework density 24.387405999999999
#
# number of rings (size 3 to 8) (size 9 to 14) (size 15 to 20)
#    0.667    1.333    2.222    0.000    3.111    5.333 
#    0.000    2.222    0.000    0.000    0.000    0.000 
#    0.000    0.000    0.000    0.000    0.000    0.000 
#
# Total GULP energy -200786.750916 kJ/mol
# GULP energy per Si atom -5577.409748 kJ/mol
# Density = 2.433190 g / cm^3
# Si number density = 24.387406 Si / 1000 Ang^3
#
#
#
# Elastic Constant Matrix: (Units=GPa)
#
#
# Indices 1 2 3 4 5 6 
#
# 1 147.8136 10.3188 39.0843 0.0000 0.0000 0.0000
# 2 10.3188 42.4474 18.8128 0.0000 0.0000 0.0000
# 3 39.0843 18.8128 77.0916 0.0000 0.0000 0.0000
# 4 0.0000 0.0000 0.0000 25.3244 0.0000 0.0000
# 5 0.0000 0.0000 0.0000 0.0000 51.6096 0.0000
# 6 0.0000 0.0000 0.0000 0.0000 0.0000 29.1118
#
#
#
# Elastic Compliance Matrix: (Units=1/GPa)
#
#
# Indices 1 2 3 4 5 6 
#
# 1 0.007814 -0.000161 -0.003922 0.000000 0.000000 0.000000
# 2 -0.000161 0.026419 -0.006365 0.000000 0.000000 0.000000
# 3 -0.003922 -0.006365 0.016513 0.000000 0.000000 0.000000
# 4 0.000000 0.000000 0.000000 0.039488 0.000000 0.000000
# 5 0.000000 0.000000 0.000000 0.000000 0.019376 0.000000
# 6 0.000000 0.000000 0.000000 0.000000 0.000000 0.034350
#
#
# Mechanical properties :
#
#
# Convention : Reuss Voigt Hill
#
# Bulk Modulus (GPa) = 33.50232 44.86493 39.18363
# Shear Modulus (GPa) = 28.60304 34.48495 31.54400
#
# Velocity S-wave (km/s) = 3.42842 3.76446 3.60036
# Velocity P-wave (km/s) = 5.42582 6.10996 5.77802
#
# Compressibility (1/GPa) = 0.02984868
#
# Stress axis : x y z
#
# Youngs Moduli (GPa) = 127.98239 37.85171 60.55714
#
# Poissons Ratio (x) = 0.00610 0.23751
# Poissons Ratio (y) = 0.02063 0.38547
# Poissons Ratio (z) = 0.50195 0.24094
#
# Static dielectric constant tensor:
#      x y z
#    x 1.917940 0.000000 0.000000 
#    y 0.000000 2.039940 0.000000 
#    z 0.000000 0.000000 1.966980 
# 
# From -- ./inp_files/17780.got.cif
#   From: 2010.05.17/outbox.cif.g08.bks.cpg/sg52_9_cif.got.tgz:17780.got - 2010.06.03 12:15:38.
