data_PCOD9411705
_publ_section_title
;
Structure prediction by ZEFSAII (Michael W. Deem and Ramdas Pophale) SiO2 
 PCOD9411705
Probable space group: P N N A
;
_chemical_formula_sum "Si O2"
_cell_formula_units_Z 40
_cell_length_a 8.618424
_cell_length_b 8.225931
_cell_length_c 27.644044
_cell_angle_alpha 90.000000
_cell_angle_beta 90.000000
_cell_angle_gamma 90.000000
_cell_volume 1959.812368
_symmetry_space_group_name_H-M "P N N A"
_symmetry_group_IT_number 52
_symmetry_cell_setting 'orthorhombic'
loop_
_space_group_symop_operation_xyz
x,y,z
1/2-x,-y,z
x,1/2-y,1/2-z
1/2-x,1/2+y,1/2-z
-x,-y,-z
1/2+x,y,-z
-x,1/2+y,1/2+z
1/2+x,1/2-y,1/2+z
loop_
_atom_site_type_symbol
_atom_site_label
_atom_site_fract_x
_atom_site_fract_y
_atom_site_fract_z
Si Si1 0.072404 0.944310 0.847345
Si Si2 0.576146 0.557377 0.148704
Si Si3 0.425312 0.553387 0.247835
Si Si4 0.932279 0.566462 0.450090
Si Si5 0.428852 0.435601 0.049951
O O1 0.070162 0.750753 0.847500
O O2 0.988244 0.008085 0.799348
O O3 0.250000 0.000000 0.844534
O O4 0.005555 0.998588 0.898957
O O5 0.750000 0.500000 0.141086
O O6 0.516353 0.493044 0.200445
O O7 0.482565 0.506620 0.101412
O O8 0.250000 0.500000 0.241963
O O9 0.434844 0.750000 0.250000
O O10 0.750000 0.500000 0.450407
O O11 0.000000 0.500000 0.500000
O O12 0.996032 0.752523 0.448825
O O13 0.250000 0.500000 0.046690
O O14 0.500000 0.500000 0.000000
#
# Coordination Sequence:
#
# PCOD9411705 Si02
#       5
#     8   8   8   8   8
#     4  10  22  40  61  89 121 163 209 257 314 378
#     4  11  22  40  63  91 126 165 210 260 316 380
#     4  10  23  39  60  89 123 161 206 257 314 376
#     4  11  23  41  64  91 124 166 210 258 317 382
#     4  12  25  42  65  96 130 167 211 264 319 380
#
# _framework density 20.410115000000001
#
# number of rings (size 3 to 8) (size 9 to 14) (size 15 to 20)
#    0.000    1.200    0.000    6.600    0.000    7.200 
#    0.000    0.000    0.000    0.000    0.000    0.000 
#    0.000    0.000    0.000    0.000    0.000    0.000 
#
# Total GULP energy -222840.843618 kJ/mol
# GULP energy per Si atom -5571.021090 kJ/mol
# Density = 2.036366 g / cm^3
# Si number density = 20.410115 Si / 1000 Ang^3
#
#
#
# Elastic Constant Matrix: (Units=GPa)
#
#
# Indices 1 2 3 4 5 6 
#
# 1 134.2213 27.8657 78.6013 0.0000 0.0000 0.0000
# 2 27.8657 91.8211 42.8192 0.0000 0.0000 0.0000
# 3 78.6013 42.8192 215.0569 0.0000 0.0000 0.0000
# 4 0.0000 0.0000 0.0000 43.5932 0.0000 0.0000
# 5 0.0000 0.0000 0.0000 0.0000 184.6677 0.0000
# 6 0.0000 0.0000 0.0000 0.0000 0.0000 32.5454
#
#
#
# Elastic Compliance Matrix: (Units=1/GPa)
#
#
# Indices 1 2 3 4 5 6 
#
# 1 0.009643 -0.001414 -0.003243 0.000000 0.000000 0.000000
# 2 -0.001414 0.012213 -0.001915 0.000000 0.000000 0.000000
# 3 -0.003243 -0.001915 0.006216 0.000000 0.000000 0.000000
# 4 0.000000 0.000000 0.000000 0.022939 0.000000 0.000000
# 5 0.000000 0.000000 0.000000 0.000000 0.005415 0.000000
# 6 0.000000 0.000000 0.000000 0.000000 0.000000 0.030726
#
#
# Mechanical properties :
#
#
# Convention : Reuss Voigt Hill
#
# Bulk Modulus (GPa) = 66.98548 82.18577 74.58563
# Shear Modulus (GPa) = 47.49557 71.61547 59.55552
#
# Velocity S-wave (km/s) = 4.82919 5.92996 5.40766
# Velocity P-wave (km/s) = 7.99911 9.34026 8.69558
#
# Compressibility (1/GPa) = 0.01492861
#
# Stress axis : x y z
#
# Youngs Moduli (GPa) = 103.70172 81.88100 160.86441
#
# Poissons Ratio (x) = 0.11580 0.52166
# Poissons Ratio (y) = 0.14665 0.30802
# Poissons Ratio (z) = 0.33629 0.15678
#
# Static dielectric constant tensor:
#      x y z
#    x 1.744310 0.000000 0.000000 
#    y 0.000000 1.774870 0.000000 
#    z 0.000000 0.000000 1.777960 
# 
# From -- ./inp_files/39202.got.cif
#   From: 2010.05.17/outbox.cif.g08.bks.cpg/sg52_20_cif.got.tgz:39202.got - 2010.06.03 12:15:38.
