data_PCOD9411939
_publ_section_title
;
Structure prediction by ZEFSAII (Michael W. Deem and Ramdas Pophale) SiO2 
 PCOD9411939
Probable space group: P N N A
;
_chemical_formula_sum "Si O2"
_cell_formula_units_Z 60
_cell_length_a 23.761423
_cell_length_b 21.065679
_cell_length_c 4.940211
_cell_angle_alpha 90.000000
_cell_angle_beta 90.000000
_cell_angle_gamma 90.000000
_cell_volume 2472.825133
_symmetry_space_group_name_H-M "P N N A"
_symmetry_group_IT_number 52
_symmetry_cell_setting 'orthorhombic'
loop_
_space_group_symop_operation_xyz
x,y,z
1/2-x,-y,z
x,1/2-y,1/2-z
1/2-x,1/2+y,1/2-z
-x,-y,-z
1/2+x,y,-z
-x,1/2+y,1/2+z
1/2+x,1/2-y,1/2+z
loop_
_atom_site_type_symbol
_atom_site_label
_atom_site_fract_x
_atom_site_fract_y
_atom_site_fract_z
Si Si1 0.801514 0.876362 0.787072
Si Si2 0.469764 0.789899 0.504615
Si Si3 0.354622 0.068623 0.946950
Si Si4 0.524299 0.911724 0.313079
Si Si5 0.075061 0.490645 0.162758
Si Si6 0.750000 0.000000 0.033691
Si Si7 0.701887 0.706081 0.515362
Si Si8 0.375732 0.615682 0.790116
O O1 0.763024 0.818148 0.881929
O O2 0.856082 0.881981 0.981380
O O3 0.767453 0.940273 0.851443
O O4 0.820786 0.873034 0.478108
O O5 0.448003 0.750000 0.250000
O O6 0.513163 0.839343 0.377225
O O7 0.419736 0.829527 0.641471
O O8 0.495497 0.750000 0.750000
O O9 0.416194 0.077035 0.822842
O O10 0.332091 0.140166 0.983036
O O11 0.304057 0.028145 0.808184
O O12 0.371325 0.023858 0.201195
O O13 0.467775 0.942258 0.184332
O O14 0.534182 0.951005 0.588351
O O15 0.096886 0.448796 0.908479
O O16 0.705204 0.750000 0.250000
O O17 0.676515 0.750000 0.750000
#
# Coordination Sequence:
#
# PCOD9411939 Si02
#       8
#     8   8   8   8   8   4   8   8
#     4  11  23  42  70 100 141 184 232 295 353 417
#     4  11  26  46  68 103 144 184 242 291 345 425
#     4  11  23  44  71  98 141 183 228 300 351 423
#     4  10  24  43  69 101 134 186 226 296 357 433
#     4  10  22  42  70 103 138 172 237 287 371 426
#     4  10  22  42  66 110 136 176 232 294 360 422
#     4  11  27  47  66  99 142 191 246 281 338 425
#     4  11  23  42  72 105 138 184 232 300 359 417
#
# _framework density 24.263746000000001
#
# number of rings (size 3 to 8) (size 9 to 14) (size 15 to 20)
#    0.000    1.333    1.333    2.800    3.733    4.267 
#    2.400    0.000    0.000    0.000    0.000    0.000 
#    0.000    0.000    0.000    0.000    0.000    0.000 
#
# Total GULP energy -335457.376181 kJ/mol
# GULP energy per Si atom -5590.956270 kJ/mol
# Density = 2.420852 g / cm^3
# Si number density = 24.263746 Si / 1000 Ang^3
#
#
#
# Elastic Constant Matrix: (Units=GPa)
#
#
# Indices 1 2 3 4 5 6 
#
# 1 116.6902 42.3667 10.3937 0.0000 0.0000 0.0000
# 2 42.3667 154.6229 31.4579 0.0000 0.0000 0.0000
# 3 10.3937 31.4579 52.9260 0.0000 0.0000 0.0000
# 4 0.0000 0.0000 0.0000 28.4201 0.0000 0.0000
# 5 0.0000 0.0000 0.0000 0.0000 24.3810 0.0000
# 6 0.0000 0.0000 0.0000 0.0000 0.0000 19.5692
#
#
#
# Elastic Compliance Matrix: (Units=1/GPa)
#
#
# Indices 1 2 3 4 5 6 
#
# 1 0.009523 -0.002535 -0.000363 0.000000 0.000000 0.000000
# 2 -0.002535 0.008032 -0.004276 0.000000 0.000000 0.000000
# 3 -0.000363 -0.004276 0.021507 0.000000 0.000000 0.000000
# 4 0.000000 0.000000 0.000000 0.035186 0.000000 0.000000
# 5 0.000000 0.000000 0.000000 0.000000 0.041016 0.000000
# 6 0.000000 0.000000 0.000000 0.000000 0.000000 0.051101
#
#
# Mechanical properties :
#
#
# Convention : Reuss Voigt Hill
#
# Bulk Modulus (GPa) = 40.46509 54.74175 47.60342
# Shear Modulus (GPa) = 26.46189 30.47546 28.46868
#
# Velocity S-wave (km/s) = 3.30600 3.54787 3.42906
# Velocity P-wave (km/s) = 5.59341 6.27640 5.94472
#
# Compressibility (1/GPa) = 0.02471266
#
# Stress axis : x y z
#
# Youngs Moduli (GPa) = 105.01403 124.50210 46.49592
#
# Poissons Ratio (x) = 0.31565 0.01688
# Poissons Ratio (y) = 0.26624 0.19882
# Poissons Ratio (z) = 0.03813 0.53239
#
# Static dielectric constant tensor:
#      x y z
#    x 1.979380 0.000000 0.000000 
#    y 0.000000 1.950030 0.000000 
#    z 0.000000 0.000000 2.001070 
# 
# From -- ./inp_files/5269.got.cif
#   From: 2010.05.17/outbox.cif.g08.bks.cpg/sg52_3_cif.got.tgz:5269.got - 2010.06.03 12:15:38.
