data_PCOD9411484
_publ_section_title
;
Structure prediction by ZEFSAII (Michael W. Deem and Ramdas Pophale) SiO2 
 PCOD9411484
Probable space group: P N N A
;
_chemical_formula_sum "Si O2"
_cell_formula_units_Z 36
_cell_length_a 19.164465
_cell_length_b 8.466393
_cell_length_c 7.787582
_cell_angle_alpha 90.000000
_cell_angle_beta 90.000000
_cell_angle_gamma 90.000000
_cell_volume 1263.565491
_symmetry_space_group_name_H-M "P N N A"
_symmetry_group_IT_number 52
_symmetry_cell_setting 'orthorhombic'
loop_
_space_group_symop_operation_xyz
x,y,z
1/2-x,-y,z
x,1/2-y,1/2-z
1/2-x,1/2+y,1/2-z
-x,-y,-z
1/2+x,y,-z
-x,1/2+y,1/2+z
1/2+x,1/2-y,1/2+z
loop_
_atom_site_type_symbol
_atom_site_label
_atom_site_fract_x
_atom_site_fract_y
_atom_site_fract_z
Si Si1 0.024513 0.763916 0.497665
Si Si2 0.250000 0.500000 0.353534
Si Si3 0.906274 0.957396 0.327153
Si Si4 0.733151 0.184264 0.435959
Si Si5 0.598339 0.036944 0.918959
O O1 0.066739 0.634142 0.396132
O O2 0.978191 0.876135 0.379492
O O3 0.965625 0.659995 0.601290
O O4 0.080834 0.868172 0.600535
O O5 0.240579 0.674297 0.443806
O O6 0.331428 0.540191 0.305156
O O7 0.849580 0.846310 0.419184
O O8 0.886473 0.963451 0.126523
O O9 0.756417 0.250000 0.250000
O O10 0.750000 0.000000 0.476875
#
# Coordination Sequence:
#
# PCOD9411484 Si02
#       5
#     8   4   8   8   8
#     4  10  22  35  56  83 120 164 205 228 297 375
#     4  12  22  36  58  88 128 156 188 252 328 376
#     4  11  20  37  55  83 126 157 196 245 291 364
#     4  12  20  31  52  83 120 158 183 229 310 376
#     4  11  21  38  58  88 123 158 192 252 305 360
#
# _framework density 28.490805999999999
#
# number of rings (size 3 to 8) (size 9 to 14) (size 15 to 20)
#    0.000    0.889    5.556    2.667    0.000    0.000 
#    0.000    0.000    0.000    0.000    0.000   24.889 
#    6.667    0.000    0.000    0.000    0.000    0.000 
#
# Total GULP energy -200963.188966 kJ/mol
# GULP energy per Si atom -5582.310805 kJ/mol
# Density = 2.842596 g / cm^3
# Si number density = 28.490806 Si / 1000 Ang^3
#
#
#
# Elastic Constant Matrix: (Units=GPa)
#
#
# Indices 1 2 3 4 5 6 
#
# 1 134.1782 27.2504 25.7088 0.0000 0.0000 0.0000
# 2 27.2504 204.2311 34.3295 0.0000 0.0000 0.0000
# 3 25.7088 34.3295 81.1355 0.0000 0.0000 0.0000
# 4 0.0000 0.0000 0.0000 32.2034 0.0000 0.0000
# 5 0.0000 0.0000 0.0000 0.0000 26.1914 0.0000
# 6 0.0000 0.0000 0.0000 0.0000 0.0000 19.8620
#
#
#
# Elastic Compliance Matrix: (Units=1/GPa)
#
#
# Indices 1 2 3 4 5 6 
#
# 1 0.008024 -0.000693 -0.002250 0.000000 0.000000 0.000000
# 2 -0.000693 0.005331 -0.002036 0.000000 0.000000 0.000000
# 3 -0.002250 -0.002036 0.013899 0.000000 0.000000 0.000000
# 4 0.000000 0.000000 0.000000 0.031053 0.000000 0.000000
# 5 0.000000 0.000000 0.000000 0.000000 0.038180 0.000000
# 6 0.000000 0.000000 0.000000 0.000000 0.000000 0.050347
#
#
# Mechanical properties :
#
#
# Convention : Reuss Voigt Hill
#
# Bulk Modulus (GPa) = 57.80947 66.01357 61.91152
# Shear Modulus (GPa) = 30.75819 37.80176 34.27997
#
# Velocity S-wave (km/s) = 3.28927 3.64649 3.47247
# Velocity P-wave (km/s) = 5.89579 6.39919 6.15264
#
# Compressibility (1/GPa) = 0.01729820
#
# Stress axis : x y z
#
# Youngs Moduli (GPa) = 124.61901 187.57887 71.94544
#
# Poissons Ratio (x) = 0.12991 0.16185
# Poissons Ratio (y) = 0.08631 0.14650
# Poissons Ratio (z) = 0.28035 0.38195
#
# Static dielectric constant tensor:
#      x y z
#    x 2.254140 0.000000 0.000000 
#    y 0.000000 2.318020 0.000000 
#    z 0.000000 0.000000 2.434040 
# 
# From -- ./inp_files/21376.got.cif
#   From: 2010.05.17/outbox.cif.g08.bks.cpg/sg52_11_cif.got.tgz:21376.got - 2010.06.03 12:15:38.
