data_PCOD9411085
_publ_section_title
;
Structure prediction by ZEFSAII (Michael W. Deem and Ramdas Pophale) SiO2 
 PCOD9411085
Probable space group: P N N A
;
_chemical_formula_sum "Si O2"
_cell_formula_units_Z 56
_cell_length_a 14.857714
_cell_length_b 16.290528
_cell_length_c 11.693876
_cell_angle_alpha 90.000000
_cell_angle_beta 90.000000
_cell_angle_gamma 90.000000
_cell_volume 2830.385816
_symmetry_space_group_name_H-M "P N N A"
_symmetry_group_IT_number 52
_symmetry_cell_setting 'orthorhombic'
loop_
_space_group_symop_operation_xyz
x,y,z
1/2-x,-y,z
x,1/2-y,1/2-z
1/2-x,1/2+y,1/2-z
-x,-y,-z
1/2+x,y,-z
-x,1/2+y,1/2+z
1/2+x,1/2-y,1/2+z
loop_
_atom_site_type_symbol
_atom_site_label
_atom_site_fract_x
_atom_site_fract_y
_atom_site_fract_z
Si Si1 0.651935 0.459335 0.810037
Si Si2 0.231061 0.766348 0.963865
Si Si3 0.943269 0.120836 0.043919
Si Si4 0.381286 0.810360 0.144994
Si Si5 0.004866 0.972338 0.171664
Si Si6 0.370243 0.666300 0.724523
Si Si7 0.711882 0.408502 0.048542
O O1 0.750000 0.500000 0.805028
O O2 0.643703 0.394892 0.707557
O O3 0.569415 0.520439 0.781696
O O4 0.651129 0.416276 0.934151
O O5 0.295552 0.781876 0.072452
O O6 0.139977 0.817968 0.962982
O O7 0.288845 0.801631 0.855798
O O8 0.217792 0.667392 0.964540
O O9 0.034463 0.174124 0.060826
O O10 0.953097 0.058065 0.150798
O O11 0.936769 0.056852 0.937913
O O12 0.404324 0.750000 0.250000
O O13 0.931456 0.901767 0.169763
O O14 0.423767 0.750000 0.750000
O O15 0.340212 0.623300 0.841271
O O16 0.750000 0.500000 0.067320
#
# Coordination Sequence:
#
# PCOD9411085 Si02
#       7
#     8   8   8   8   8   8   8
#     4  10  21  40  61  91 132 170 212 264 327 392
#     4  11  22  43  68  94 128 171 218 276 329 386
#     4  10  23  39  66 100 129 164 223 273 328 400
#     4  11  21  40  68  93 131 171 213 276 334 387
#     4  10  21  42  62  99 128 165 216 267 331 390
#     4  10  23  42  65  89 129 168 208 266 326 385
#     4  10  23  42  61  92 129 173 219 259 330 403
#
# _framework density 19.785288999999999
#
# number of rings (size 3 to 8) (size 9 to 14) (size 15 to 20)
#    0.000    1.714    2.857    0.857    2.000    2.286 
#    7.714    0.000    0.000    0.000    0.000    0.000 
#    0.000    0.000    0.000    0.000    0.000    0.000 
#
# Total GULP energy -311846.651262 kJ/mol
# GULP energy per Si atom -5568.690201 kJ/mol
# Density = 1.974026 g / cm^3
# Si number density = 19.785289 Si / 1000 Ang^3
#
#
#
# Elastic Constant Matrix: (Units=GPa)
#
#
# Indices 1 2 3 4 5 6 
#
# 1 71.1197 58.1139 29.6727 0.0000 0.0000 0.0000
# 2 58.1139 135.8373 28.3705 0.0000 0.0000 0.0000
# 3 29.6727 28.3705 98.3984 0.0000 0.0000 0.0000
# 4 0.0000 0.0000 0.0000 38.0847 0.0000 0.0000
# 5 0.0000 0.0000 0.0000 0.0000 -3.4188 0.0000
# 6 0.0000 0.0000 0.0000 0.0000 0.0000 43.1205
#
#
#
# Elastic Compliance Matrix: (Units=1/GPa)
#
#
# Indices 1 2 3 4 5 6 
#
# 1 0.023292 -0.009043 -0.004417 0.000000 0.000000 0.000000
# 2 -0.009043 0.011344 -0.000544 0.000000 0.000000 0.000000
# 3 -0.004417 -0.000544 0.011652 0.000000 0.000000 0.000000
# 4 0.000000 0.000000 0.000000 0.026257 0.000000 0.000000
# 5 0.000000 0.000000 0.000000 0.000000 -0.292501 0.000000
# 6 0.000000 0.000000 0.000000 0.000000 0.000000 0.023191
#
#
# Mechanical properties :
#
#
# Convention : Reuss Voigt Hill
#
# Bulk Modulus (GPa) = 54.70029 59.74110 57.22070
# Shear Modulus (GPa) = -30.73798 28.17050 -1.28374
#
# Velocity S-wave (km/s) = -3.94582 3.77743 -0.80638
# Velocity P-wave (km/s) = 2.63584 7.02037 5.30251
#
# Compressibility (1/GPa) = 0.01828144
#
# Stress axis : x y z
#
# Youngs Moduli (GPa) = 42.93229 88.15308 85.82580
#
# Poissons Ratio (x) = 0.79712 0.37908
# Poissons Ratio (y) = 0.38822 0.04668
# Poissons Ratio (z) = 0.18963 0.04794
#
# Static dielectric constant tensor:
#      x y z
#    x 1.694310 0.000000 0.000000 
#    y 0.000000 1.741990 0.000000 
#    z 0.000000 0.000000 1.746430 
# 
# From -- ./inp_files/19665.got.cif
#   From: 2010.05.17/outbox.cif.g08.bks.cpg/sg52_10_cif.got.tgz:19665.got - 2010.06.03 12:15:38.
