data_PCOD9411156
_publ_section_title
;
Structure prediction by ZEFSAII (Michael W. Deem and Ramdas Pophale) SiO2 
 PCOD9411156
Probable space group: P N N A
;
_chemical_formula_sum "Si O2"
_cell_formula_units_Z 48
_cell_length_a 32.794284
_cell_length_b 8.671340
_cell_length_c 7.898881
_cell_angle_alpha 90.000000
_cell_angle_beta 90.000000
_cell_angle_gamma 90.000000
_cell_volume 2246.207844
_symmetry_space_group_name_H-M "P N N A"
_symmetry_group_IT_number 52
_symmetry_cell_setting 'orthorhombic'
loop_
_space_group_symop_operation_xyz
x,y,z
1/2-x,-y,z
x,1/2-y,1/2-z
1/2-x,1/2+y,1/2-z
-x,-y,-z
1/2+x,y,-z
-x,1/2+y,1/2+z
1/2+x,1/2-y,1/2+z
loop_
_atom_site_type_symbol
_atom_site_label
_atom_site_fract_x
_atom_site_fract_y
_atom_site_fract_z
Si Si1 0.822677 0.750000 0.250000
Si Si2 0.042040 0.582316 0.031389
Si Si3 0.794025 0.005286 0.015588
Si Si4 0.624136 0.014171 0.445655
Si Si5 0.123697 0.076584 0.177575
Si Si6 0.544000 0.934580 0.938951
Si Si7 0.328795 0.250000 0.750000
O O1 0.794831 0.879466 0.165820
O O2 0.852109 0.666321 0.113804
O O3 0.046858 0.762369 0.985606
O O4 0.044208 0.576587 0.235060
O O5 0.075620 0.485199 0.928580
O O6 0.000000 0.500000 0.000000
O O7 0.750000 0.000000 0.928943
O O8 0.802858 0.168545 0.103188
O O9 0.832884 0.954932 0.906910
O O10 0.643381 0.879092 0.335901
O O11 0.627170 0.980982 0.646357
O O12 0.116949 0.250000 0.250000
O O13 0.086909 0.029887 0.048364
O O14 0.500000 0.000000 0.000000
#
# Coordination Sequence:
#
# PCOD9411156 Si02
#       7
#     4   8   8   8   8   8   4
#     4  10  21  40  66  90 126 172 216 264 330 398
#     4  10  23  39  58  92 127 163 217 271 328 392
#     4  11  23  42  66 100 132 174 222 273 336 402
#     4  10  22  42  64  91 130 172 221 269 333 400
#     4  11  23  44  69  97 136 179 226 278 340 403
#     4  10  24  40  64  90 127 171 214 272 329 392
#     4  10  23  42  68  96 130 174 218 282 332 400
#
# _framework density 21.369347999999999
#
# number of rings (size 3 to 8) (size 9 to 14) (size 15 to 20)
#    0.000    1.667    1.667    1.500    4.667    7.333 
#    3.000    0.833    0.000    0.000    0.000    0.000 
#    0.000    0.000    0.000    0.000    0.000    0.000 
#
# Total GULP energy -267651.686261 kJ/mol
# GULP energy per Si atom -5576.076797 kJ/mol
# Density = 2.132071 g / cm^3
# Si number density = 21.369348 Si / 1000 Ang^3
#
#
#
# Elastic Constant Matrix: (Units=GPa)
#
#
# Indices 1 2 3 4 5 6 
#
# 1 180.7646 42.1420 20.2766 0.0000 0.0000 0.0000
# 2 42.1420 68.4245 4.5780 0.0000 0.0000 0.0000
# 3 20.2766 4.5780 39.1246 0.0000 0.0000 0.0000
# 4 0.0000 0.0000 0.0000 25.8965 0.0000 0.0000
# 5 0.0000 0.0000 0.0000 0.0000 28.8104 0.0000
# 6 0.0000 0.0000 0.0000 0.0000 0.0000 14.4073
#
#
#
# Elastic Compliance Matrix: (Units=1/GPa)
#
#
# Indices 1 2 3 4 5 6 
#
# 1 0.006805 -0.003986 -0.003060 0.000000 0.000000 0.000000
# 2 -0.003986 0.017065 0.000069 0.000000 0.000000 0.000000
# 3 -0.003060 0.000069 0.027137 0.000000 0.000000 0.000000
# 4 0.000000 0.000000 0.000000 0.038615 0.000000 0.000000
# 5 0.000000 0.000000 0.000000 0.000000 0.034710 0.000000
# 6 0.000000 0.000000 0.000000 0.000000 0.000000 0.069409
#
#
# Mechanical properties :
#
#
# Convention : Reuss Voigt Hill
#
# Bulk Modulus (GPa) = 26.98876 46.92298 36.95587
# Shear Modulus (GPa) = 22.72247 28.57731 25.64989
#
# Velocity S-wave (km/s) = 3.26440 3.66088 3.46831
# Velocity P-wave (km/s) = 5.18319 6.31468 5.77670
#
# Compressibility (1/GPa) = 0.03705246
#
# Stress axis : x y z
#
# Youngs Moduli (GPa) = 146.95921 58.59924 36.84977
#
# Poissons Ratio (x) = 0.23359 0.11276
# Poissons Ratio (y) = 0.58580 -0.00254
# Poissons Ratio (z) = 0.44971 -0.00405
#
# Static dielectric constant tensor:
#      x y z
#    x 1.840920 0.000000 0.000000 
#    y 0.000000 1.822800 0.000000 
#    z 0.000000 0.000000 1.775860 
# 
# From -- ./inp_files/15594.got.cif
#   From: 2010.05.17/outbox.cif.g08.bks.cpg/sg52_8_cif.got.tgz:15594.got - 2010.06.03 12:15:38.
