data_PCOD9411325
_publ_section_title
;
Structure prediction by ZEFSAII (Michael W. Deem and Ramdas Pophale) SiO2 
 PCOD9411325
Probable space group: P N N A
;
_chemical_formula_sum "Si O2"
_cell_formula_units_Z 60
_cell_length_a 5.338723
_cell_length_b 23.627933
_cell_length_c 24.370953
_cell_angle_alpha 90.000000
_cell_angle_beta 90.000000
_cell_angle_gamma 90.000000
_cell_volume 3074.224865
_symmetry_space_group_name_H-M "P N N A"
_symmetry_group_IT_number 52
_symmetry_cell_setting 'orthorhombic'
loop_
_space_group_symop_operation_xyz
x,y,z
1/2-x,-y,z
x,1/2-y,1/2-z
1/2-x,1/2+y,1/2-z
-x,-y,-z
1/2+x,y,-z
-x,1/2+y,1/2+z
1/2+x,1/2-y,1/2+z
loop_
_atom_site_type_symbol
_atom_site_label
_atom_site_fract_x
_atom_site_fract_y
_atom_site_fract_z
Si Si1 0.758992 0.817219 0.749165
Si Si2 0.668985 0.208834 0.968476
Si Si3 0.250000 0.500000 0.199687
Si Si4 0.845907 0.655147 0.967124
Si Si5 0.276910 0.066136 0.844101
Si Si6 0.749482 0.630796 0.634022
Si Si7 0.995395 0.608131 0.849061
Si Si8 0.123921 0.406797 0.769297
O O1 0.768181 0.750000 0.750000
O O2 0.828270 0.837899 0.809769
O O3 0.901962 0.847411 0.698218
O O4 0.484716 0.845186 0.743460
O O5 0.665449 0.276665 0.960956
O O6 0.749624 0.176569 0.913894
O O7 0.387362 0.194310 0.987716
O O8 0.111123 0.454084 0.162654
O O9 0.426436 0.458217 0.234506
O O10 0.918947 0.629627 0.908250
O O11 0.573095 0.639534 0.991319
O O12 0.521394 0.087931 0.875408
O O13 0.316437 0.076486 0.778364
O O14 0.019065 0.099597 0.858804
O O15 0.250000 0.000000 0.853719
O O16 0.283005 0.598401 0.831655
#
# Coordination Sequence:
#
# PCOD9411325 Si02
#       8
#     8   8   4   8   8   8   8   8
#     4  10  22  37  56  93 129 159 195 257 327 373
#     4  10  21  42  66  89 119 167 209 254 303 373
#     4  10  22  36  62  86 120 166 216 246 312 370
#     4  10  24  42  65  91 120 163 216 258 307 367
#     4  11  22  37  60  90 128 160 205 253 301 371
#     4  11  22  39  60  95 121 160 206 252 311 373
#     4  11  21  40  62  88 125 163 203 263 311 375
#     4  10  22  37  59  87 123 175 205 246 308 388
#
# _framework density 19.517113999999999
#
# number of rings (size 3 to 8) (size 9 to 14) (size 15 to 20)
#    0.000    1.600    1.333    3.200    7.467    0.533 
#    7.200    0.667    0.000    8.000    0.000    0.000 
#    0.000    0.000    0.000    0.000    0.000    0.000 
#
# Total GULP energy -334389.331597 kJ/mol
# GULP energy per Si atom -5573.155527 kJ/mol
# Density = 1.947269 g / cm^3
# Si number density = 19.517114 Si / 1000 Ang^3
#
#
#
# Elastic Constant Matrix: (Units=GPa)
#
#
# Indices 1 2 3 4 5 6 
#
# 1 70.6788 25.8531 9.3427 0.0000 0.0000 0.0000
# 2 25.8531 105.1615 24.7585 0.0000 0.0000 0.0000
# 3 9.3427 24.7585 74.9922 0.0000 0.0000 0.0000
# 4 0.0000 0.0000 0.0000 23.2830 0.0000 0.0000
# 5 0.0000 0.0000 0.0000 0.0000 18.8543 0.0000
# 6 0.0000 0.0000 0.0000 0.0000 0.0000 14.5876
#
#
#
# Elastic Compliance Matrix: (Units=1/GPa)
#
#
# Indices 1 2 3 4 5 6 
#
# 1 0.015584 -0.003658 -0.000734 0.000000 0.000000 0.000000
# 2 -0.003658 0.011169 -0.003232 0.000000 0.000000 0.000000
# 3 -0.000734 -0.003232 0.014493 0.000000 0.000000 0.000000
# 4 0.000000 0.000000 0.000000 0.042950 0.000000 0.000000
# 5 0.000000 0.000000 0.000000 0.000000 0.053038 0.000000
# 6 0.000000 0.000000 0.000000 0.000000 0.000000 0.068551
#
#
# Mechanical properties :
#
#
# Convention : Reuss Voigt Hill
#
# Bulk Modulus (GPa) = 38.46369 41.19345 39.82857
# Shear Modulus (GPa) = 21.76759 24.07020 22.91889
#
# Velocity S-wave (km/s) = 3.34325 3.51563 3.43052
# Velocity P-wave (km/s) = 5.88672 6.13447 6.01187
#
# Compressibility (1/GPa) = 0.02599855
#
# Stress axis : x y z
#
# Youngs Moduli (GPa) = 64.16975 89.52998 68.99836
#
# Poissons Ratio (x) = 0.32754 0.05062
# Poissons Ratio (y) = 0.23476 0.22299
# Poissons Ratio (z) = 0.04708 0.28934
#
# Static dielectric constant tensor:
#      x y z
#    x 1.844030 0.000000 0.000000 
#    y 0.000000 1.650220 0.000000 
#    z 0.000000 0.000000 1.676680 
# 
# From -- ./inp_files/38883.got.cif
#   From: 2010.05.17/outbox.cif.g08.bks.cpg/sg52_20_cif.got.tgz:38883.got - 2010.06.03 12:15:38.
