data_PCOD9411465
_publ_section_title
;
Structure prediction by ZEFSAII (Michael W. Deem and Ramdas Pophale) SiO2 
 PCOD9411465
Probable space group: P N N A
;
_chemical_formula_sum "Si O2"
_cell_formula_units_Z 60
_cell_length_a 9.017038
_cell_length_b 17.025135
_cell_length_c 18.834056
_cell_angle_alpha 90.000000
_cell_angle_beta 90.000000
_cell_angle_gamma 90.000000
_cell_volume 2891.334389
_symmetry_space_group_name_H-M "P N N A"
_symmetry_group_IT_number 52
_symmetry_cell_setting 'orthorhombic'
loop_
_space_group_symop_operation_xyz
x,y,z
1/2-x,-y,z
x,1/2-y,1/2-z
1/2-x,1/2+y,1/2-z
-x,-y,-z
1/2+x,y,-z
-x,1/2+y,1/2+z
1/2+x,1/2-y,1/2+z
loop_
_atom_site_type_symbol
_atom_site_label
_atom_site_fract_x
_atom_site_fract_y
_atom_site_fract_z
Si Si1 0.919230 0.510135 0.715502
Si Si2 0.450819 0.334722 0.781197
Si Si3 0.290438 0.667681 0.509411
Si Si4 0.515604 0.101170 0.442093
Si Si5 0.543535 0.939348 0.939198
Si Si6 0.250000 0.000000 0.466922
Si Si7 0.969265 0.274017 0.061681
Si Si8 0.662165 0.080749 0.303125
O O1 0.750000 0.500000 0.736112
O O2 0.936817 0.487724 0.632902
O O3 0.960068 0.597624 0.740749
O O4 0.031567 0.451099 0.754452
O O5 0.482241 0.250000 0.750000
O O6 0.476133 0.324773 0.866155
O O7 0.281875 0.362313 0.768930
O O8 0.407972 0.622968 0.559631
O O9 0.190346 0.607092 0.464168
O O10 0.386876 0.720427 0.454716
O O11 0.176245 0.719487 0.555852
O O12 0.642094 0.052704 0.484323
O O13 0.462422 0.168082 0.494671
O O14 0.593506 0.124968 0.370076
O O15 0.369944 0.050114 0.424024
O O16 0.500000 0.000000 0.000000
O O17 0.750000 0.000000 0.325551
#
# Coordination Sequence:
#
# PCOD9411465 Si02
#       8
#     8   8   8   8   8   4   8   8
#     4  11  27  45  70 106 136 179 233 287 343 410
#     4  11  27  45  70  95 143 185 223 281 355 418
#     4  10  24  42  74 102 134 173 227 294 342 407
#     4  11  21  39  62  97 132 177 226 278 322 411
#     4  11  24  44  74 100 131 171 235 289 338 398
#     4  10  22  30  66  90 132 176 226 270 324 372
#     4  11  24  43  67 101 138 177 227 273 360 406
#     4  10  23  44  65  98 135 182 230 276 332 419
#
# _framework density 20.751666
#
# number of rings (size 3 to 8) (size 9 to 14) (size 15 to 20)
#    0.000    1.333    0.667    3.600   14.000    3.200 
#    0.000    0.667    0.000    0.000    0.000    0.000 
#    0.000    0.000    0.000    0.000    0.000    0.000 
#
# Total GULP energy -335300.990911 kJ/mol
# GULP energy per Si atom -5588.349849 kJ/mol
# Density = 2.070443 g / cm^3
# Si number density = 20.751666 Si / 1000 Ang^3
#
#
#
# Elastic Constant Matrix: (Units=GPa)
#
#
# Indices 1 2 3 4 5 6 
#
# 1 147.6154 52.2343 34.0353 0.0000 0.0000 0.0000
# 2 52.2343 94.9756 40.3606 0.0000 0.0000 0.0000
# 3 34.0353 40.3606 77.8706 0.0000 0.0000 0.0000
# 4 0.0000 0.0000 0.0000 35.7954 0.0000 0.0000
# 5 0.0000 0.0000 0.0000 0.0000 17.4495 0.0000
# 6 0.0000 0.0000 0.0000 0.0000 0.0000 32.3220
#
#
#
# Elastic Compliance Matrix: (Units=1/GPa)
#
#
# Indices 1 2 3 4 5 6 
#
# 1 0.008578 -0.004007 -0.001672 0.000000 0.000000 0.000000
# 2 -0.004007 0.015375 -0.006218 0.000000 0.000000 0.000000
# 3 -0.001672 -0.006218 0.016795 0.000000 0.000000 0.000000
# 4 0.000000 0.000000 0.000000 0.027937 0.000000 0.000000
# 5 0.000000 0.000000 0.000000 0.000000 0.057308 0.000000
# 6 0.000000 0.000000 0.000000 0.000000 0.000000 0.030939
#
#
# Mechanical properties :
#
#
# Convention : Reuss Voigt Hill
#
# Bulk Modulus (GPa) = 58.98161 63.74690 61.36426
# Shear Modulus (GPa) = 26.82739 30.03547 28.43143
#
# Velocity S-wave (km/s) = 3.59943 3.80857 3.70547
# Velocity P-wave (km/s) = 6.76453 7.07996 6.92404
#
# Compressibility (1/GPa) = 0.01695444
#
# Stress axis : x y z
#
# Youngs Moduli (GPa) = 116.57983 65.04104 59.54038
#
# Poissons Ratio (x) = 0.26061 0.09957
# Poissons Ratio (y) = 0.46713 0.37019
# Poissons Ratio (z) = 0.19496 0.40439
#
# Static dielectric constant tensor:
#      x y z
#    x 1.756310 0.000000 0.000000 
#    y 0.000000 1.772650 0.000000 
#    z 0.000000 0.000000 1.757350 
# 
# From -- ./inp_files/31481.got.cif
#   From: 2010.05.17/outbox.cif.g08.bks.cpg/sg52_16_cif.got.tgz:31481.got - 2010.06.03 12:15:38.
