data_PCOD9411621
_publ_section_title
;
Structure prediction by ZEFSAII (Michael W. Deem and Ramdas Pophale) SiO2 
 PCOD9411621
Probable space group: P N N A
;
_chemical_formula_sum "Si O2"
_cell_formula_units_Z 56
_cell_length_a 20.634593
_cell_length_b 11.669414
_cell_length_c 11.960630
_cell_angle_alpha 90.000000
_cell_angle_beta 90.000000
_cell_angle_gamma 90.000000
_cell_volume 2880.043257
_symmetry_space_group_name_H-M "P N N A"
_symmetry_group_IT_number 52
_symmetry_cell_setting 'orthorhombic'
loop_
_space_group_symop_operation_xyz
x,y,z
1/2-x,-y,z
x,1/2-y,1/2-z
1/2-x,1/2+y,1/2-z
-x,-y,-z
1/2+x,y,-z
-x,1/2+y,1/2+z
1/2+x,1/2-y,1/2+z
loop_
_atom_site_type_symbol
_atom_site_label
_atom_site_fract_x
_atom_site_fract_y
_atom_site_fract_z
Si Si1 0.824573 0.137803 0.445701
Si Si2 0.730229 0.241931 0.882460
Si Si3 0.633600 0.400063 0.139921
Si Si4 0.758206 0.750000 0.250000
Si Si5 0.415165 0.744260 0.470904
Si Si6 0.250000 0.000000 0.996649
Si Si7 0.444797 0.271482 0.620029
Si Si8 0.611614 0.481731 0.387927
O O1 0.778480 0.175611 0.547747
O O2 0.795255 0.190848 0.331786
O O3 0.896627 0.192039 0.452583
O O4 0.831800 0.003009 0.425332
O O5 0.740944 0.250000 0.750000
O O6 0.653948 0.263043 0.909153
O O7 0.745488 0.114283 0.929851
O O8 0.684599 0.299275 0.166177
O O9 0.608931 0.446737 0.258337
O O10 0.579688 0.342749 0.064209
O O11 0.479464 0.748916 0.398805
O O12 0.410672 0.621798 0.533352
O O13 0.312570 0.004252 0.916639
O O14 0.431426 0.250000 0.750000
O O15 0.427052 0.402443 0.591931
#
# Coordination Sequence:
#
# PCOD9411621 Si02
#       8
#     8   8   8   4   8   4   8   8
#     4  12  24  40  69 104 128 168 222 281 336 389
#     4  11  24  44  64  94 134 181 222 265 330 407
#     4  12  23  38  71 104 134 164 217 290 342 389
#     4  12  20  40  68 108 132 158 208 286 346 388
#     4  11  25  41  62  94 134 178 222 259 332 415
#     4  10  22  38  72  96 128 170 222 280 332 396
#     4  12  24  42  64  92 131 172 220 273 330 396
#     4  11  21  40  68  97 128 171 219 278 339 393
#
# _framework density 19.444151999999999
#
# number of rings (size 3 to 8) (size 9 to 14) (size 15 to 20)
#    0.000    0.571    6.429    2.143    2.000    1.714 
#    0.000    1.429    0.000    0.000    0.000    0.000 
#    0.000    0.000    0.000    0.000    0.000    0.000 
#
# Total GULP energy -312003.243331 kJ/mol
# GULP energy per Si atom -5571.486488 kJ/mol
# Density = 1.939990 g / cm^3
# Si number density = 19.444152 Si / 1000 Ang^3
#
#
#
# Elastic Constant Matrix: (Units=GPa)
#
#
# Indices 1 2 3 4 5 6 
#
# 1 113.4400 24.4665 47.5770 0.0000 0.0000 0.0000
# 2 24.4665 69.5649 49.1833 0.0000 0.0000 0.0000
# 3 47.5770 49.1833 119.1826 0.0000 0.0000 0.0000
# 4 0.0000 0.0000 0.0000 15.1781 0.0000 0.0000
# 5 0.0000 0.0000 0.0000 0.0000 22.6178 0.0000
# 6 0.0000 0.0000 0.0000 0.0000 0.0000 -1.4731
#
#
#
# Elastic Compliance Matrix: (Units=1/GPa)
#
#
# Indices 1 2 3 4 5 6 
#
# 1 0.010641 -0.001044 -0.003817 0.000000 0.000000 0.000000
# 2 -0.001044 0.020399 -0.008002 0.000000 0.000000 0.000000
# 3 -0.003817 -0.008002 0.013216 0.000000 0.000000 0.000000
# 4 0.000000 0.000000 0.000000 0.065884 0.000000 0.000000
# 5 0.000000 0.000000 0.000000 0.000000 0.044213 0.000000
# 6 0.000000 0.000000 0.000000 0.000000 0.000000 -0.678852
#
#
# Mechanical properties :
#
#
# Convention : Reuss Voigt Hill
#
# Bulk Modulus (GPa) = 53.96116 60.51569 57.23843
# Shear Modulus (GPa) = -10.15033 19.32861 4.58914
#
# Velocity S-wave (km/s) = -2.28726 3.15629 1.53795
# Velocity P-wave (km/s) = 4.56472 6.66883 5.71445
#
# Compressibility (1/GPa) = 0.01853185
#
# Stress axis : x y z
#
# Youngs Moduli (GPa) = 93.97347 49.02099 75.66407
#
# Poissons Ratio (x) = 0.05117 0.28882
# Poissons Ratio (y) = 0.09809 0.60543
# Poissons Ratio (z) = 0.35871 0.39225
#
# Static dielectric constant tensor:
#      x y z
#    x 1.679490 0.000000 0.000000 
#    y 0.000000 1.739710 0.000000 
#    z 0.000000 0.000000 1.660940 
# 
# From -- ./inp_files/21740.got.cif
#   From: 2010.05.17/outbox.cif.g08.bks.cpg/sg52_11_cif.got.tgz:21740.got - 2010.06.03 12:15:38.
