data_PCOD9411538
_publ_section_title
;
Structure prediction by ZEFSAII (Michael W. Deem and Ramdas Pophale) SiO2 
 PCOD9411538
Probable space group: P N N A
;
_chemical_formula_sum "Si O2"
_cell_formula_units_Z 24
_cell_length_a 4.527742
_cell_length_b 8.638397
_cell_length_c 20.878672
_cell_angle_alpha 90.000000
_cell_angle_beta 90.000000
_cell_angle_gamma 90.000000
_cell_volume 816.615658
_symmetry_space_group_name_H-M "P N N A"
_symmetry_group_IT_number 52
_symmetry_cell_setting 'orthorhombic'
loop_
_space_group_symop_operation_xyz
x,y,z
1/2-x,-y,z
x,1/2-y,1/2-z
1/2-x,1/2+y,1/2-z
-x,-y,-z
1/2+x,y,-z
-x,1/2+y,1/2+z
1/2+x,1/2-y,1/2+z
loop_
_atom_site_type_symbol
_atom_site_label
_atom_site_fract_x
_atom_site_fract_y
_atom_site_fract_z
Si Si1 0.822742 0.257440 0.840702
Si Si2 0.811459 0.250000 0.250000
Si Si3 0.973498 0.309646 0.458306
Si Si4 0.250000 0.500000 0.913107
O O1 0.554106 0.325940 0.797320
O O2 0.068866 0.169498 0.796935
O O3 0.024252 0.388643 0.873922
O O4 0.641593 0.157833 0.892795
O O5 0.643766 0.354420 0.476794
O O6 0.943098 0.123567 0.451948
#
# Coordination Sequence:
#
# PCOD9411538 Si02
#       4
#     8   4   8   4
#     4  11  22  35  51  70 101 146 184 217 255 295
#     4  10  22  38  48  64  98 148 190 216 256 296
#     4  12  22  32  49  79 112 140 176 210 247 309
#     4  12  22  32  52  80 106 144 184 206 256 306
#
# _framework density 29.389589999999998
#
# number of rings (size 3 to 8) (size 9 to 14) (size 15 to 20)
#    0.000    0.667    6.667    2.000    0.000    0.000 
#    0.000    0.000    0.000    0.000    0.000    0.000 
#    0.000    0.000    0.000  378.000    0.000    0.000 
#
# Total GULP energy -133819.904545 kJ/mol
# GULP energy per Si atom -5575.829356 kJ/mol
# Density = 2.932270 g / cm^3
# Si number density = 29.389590 Si / 1000 Ang^3
#
#
#
# Elastic Constant Matrix: (Units=GPa)
#
#
# Indices 1 2 3 4 5 6 
#
# 1 222.9873 -9.3744 87.1048 0.0000 0.0000 0.0000
# 2 -9.3744 84.9594 14.9394 0.0000 0.0000 0.0000
# 3 87.1048 14.9394 123.9428 0.0000 0.0000 0.0000
# 4 0.0000 0.0000 0.0000 19.1577 0.0000 0.0000
# 5 0.0000 0.0000 0.0000 0.0000 -34.8706 0.0000
# 6 0.0000 0.0000 0.0000 0.0000 0.0000 41.9448
#
#
#
# Elastic Compliance Matrix: (Units=1/GPa)
#
#
# Indices 1 2 3 4 5 6 
#
# 1 0.006369 0.001522 -0.004659 0.000000 0.000000 0.000000
# 2 0.001522 0.012389 -0.002563 0.000000 0.000000 0.000000
# 3 -0.004659 -0.002563 0.011652 0.000000 0.000000 0.000000
# 4 0.000000 0.000000 0.000000 0.052198 0.000000 0.000000
# 5 0.000000 0.000000 0.000000 0.000000 -0.028677 0.000000
# 6 0.000000 0.000000 0.000000 0.000000 0.000000 0.023841
#
#
# Mechanical properties :
#
#
# Convention : Reuss Voigt Hill
#
# Bulk Modulus (GPa) = 52.60717 68.58102 60.59409
# Shear Modulus (GPa) = 52.35215 27.86104 40.10659
#
# Velocity S-wave (km/s) = 4.22514 3.08228 3.69813
# Velocity P-wave (km/s) = 6.46075 6.00442 6.23676
#
# Compressibility (1/GPa) = 0.01900882
#
# Stress axis : x y z
#
# Youngs Moduli (GPa) = 157.02218 80.71725 85.82574
#
# Poissons Ratio (x) = -0.12285 0.39987
# Poissons Ratio (y) = -0.23898 0.21996
# Poissons Ratio (z) = 0.73159 0.20687
#
# Static dielectric constant tensor:
#      x y z
#    x 2.177490 0.000000 0.000000 
#    y 0.000000 2.363320 0.000000 
#    z 0.000000 0.000000 2.445540 
# 
# From -- ./inp_files/30088.got.cif
#   From: 2010.05.17/outbox.cif.g08.bks.cpg/sg52_16_cif.got.tgz:30088.got - 2010.06.03 12:15:38.
