data_PCOD9411857
_publ_section_title
;
Structure prediction by ZEFSAII (Michael W. Deem and Ramdas Pophale) SiO2 
 PCOD9411857
Probable space group: P N N A
;
_chemical_formula_sum "Si O2"
_cell_formula_units_Z 60
_cell_length_a 17.757935
_cell_length_b 18.528553
_cell_length_c 8.799475
_cell_angle_alpha 90.000000
_cell_angle_beta 90.000000
_cell_angle_gamma 90.000000
_cell_volume 2895.281050
_symmetry_space_group_name_H-M "P N N A"
_symmetry_group_IT_number 52
_symmetry_cell_setting 'orthorhombic'
loop_
_space_group_symop_operation_xyz
x,y,z
1/2-x,-y,z
x,1/2-y,1/2-z
1/2-x,1/2+y,1/2-z
-x,-y,-z
1/2+x,y,-z
-x,1/2+y,1/2+z
1/2+x,1/2-y,1/2+z
loop_
_atom_site_type_symbol
_atom_site_label
_atom_site_fract_x
_atom_site_fract_y
_atom_site_fract_z
Si Si1 0.769506 0.821429 0.661449
Si Si2 0.785707 0.425721 0.048120
Si Si3 0.575821 0.977905 0.083849
Si Si4 0.814790 0.890634 0.176739
Si Si5 0.216245 0.580263 0.420096
Si Si6 0.556064 0.209755 0.590036
Si Si7 0.959839 0.432789 0.081573
Si Si8 0.594663 0.250000 0.250000
O O1 0.746364 0.750000 0.750000
O O2 0.735340 0.844408 0.502601
O O3 0.734213 0.887391 0.757427
O O4 0.859202 0.816954 0.634711
O O5 0.750000 0.500000 0.981507
O O6 0.749216 0.424025 0.215887
O O7 0.874032 0.432270 0.028378
O O8 0.548398 0.941288 0.237868
O O9 0.624133 0.048307 0.133717
O O10 0.631261 0.928553 0.980624
O O11 0.500000 0.000000 0.000000
O O12 0.857053 0.823181 0.248242
O O13 0.768319 0.869757 0.027216
O O14 0.250000 0.500000 0.429265
O O15 0.531847 0.250000 0.750000
O O16 0.504877 0.140520 0.556274
O O17 0.557907 0.250423 0.423478
O O18 0.000000 0.500000 0.000000
#
# Coordination Sequence:
#
# PCOD9411857 Si02
#       8
#     8   8   8   8   8   8   8   4
#     4  11  24  44  67 100 137 180 237 289 350 426
#     4  12  22  45  71 100 134 176 239 293 348 425
#     4  11  25  42  70 102 138 181 230 295 368 430
#     4  11  21  44  70 100 130 183 239 280 355 435
#     4  10  22  41  66 100 136 177 234 293 348 422
#     4  11  26  47  69 106 145 190 237 293 367 446
#     4  12  26  46  69 102 141 184 244 297 362 439
#     4  12  24  46  76  98 144 196 236 294 370 430
#
# _framework density 20.723376999999999
#
# number of rings (size 3 to 8) (size 9 to 14) (size 15 to 20)
#    0.000    0.800    4.000    4.000    7.467    0.000 
#    4.800    0.000    0.000    0.000    0.000    0.000 
#    0.000    0.000    0.000    0.000    0.000    0.000 
#
# Total GULP energy -334234.740796 kJ/mol
# GULP energy per Si atom -5570.579013 kJ/mol
# Density = 2.067621 g / cm^3
# Si number density = 20.723377 Si / 1000 Ang^3
#
#
#
# Elastic Constant Matrix: (Units=GPa)
#
#
# Indices 1 2 3 4 5 6 
#
# 1 106.6038 33.0794 20.7592 0.0000 0.0000 0.0000
# 2 33.0794 74.7185 19.3755 0.0000 0.0000 0.0000
# 3 20.7592 19.3755 81.1302 0.0000 0.0000 0.0000
# 4 0.0000 0.0000 0.0000 20.1987 0.0000 0.0000
# 5 0.0000 0.0000 0.0000 0.0000 -599.0765 0.0000
# 6 0.0000 0.0000 0.0000 0.0000 0.0000 25.0222
#
#
#
# Elastic Compliance Matrix: (Units=1/GPa)
#
#
# Indices 1 2 3 4 5 6 
#
# 1 0.011110 -0.004458 -0.001778 0.000000 0.000000 0.000000
# 2 -0.004458 0.016056 -0.002694 0.000000 0.000000 0.000000
# 3 -0.001778 -0.002694 0.013424 0.000000 0.000000 0.000000
# 4 0.000000 0.000000 0.000000 0.049508 0.000000 0.000000
# 5 0.000000 0.000000 0.000000 0.000000 -0.001669 0.000000
# 6 0.000000 0.000000 0.000000 0.000000 0.000000 0.039964
#
#
# Mechanical properties :
#
#
# Convention : Reuss Voigt Hill
#
# Bulk Modulus (GPa) = 43.99351 45.43120 44.71235
# Shear Modulus (GPa) = 32.50361 -98.15522 -32.82581
#
# Velocity S-wave (km/s) = 3.96466 -6.88965 -3.98427
# Velocity P-wave (km/s) = 6.49870 6.42802 0.67588
#
# Compressibility (1/GPa) = 0.02273063
#
# Stress axis : x y z
#
# Youngs Moduli (GPa) = 90.00917 62.28383 74.49233
#
# Poissons Ratio (x) = 0.27763 0.13246
# Poissons Ratio (y) = 0.40122 0.20067
# Poissons Ratio (z) = 0.16006 0.16778
#
# Static dielectric constant tensor:
#      x y z
#    x 1.695970 0.000000 0.000000 
#    y 0.000000 1.959850 0.000000 
#    z 0.000000 0.000000 1.847680 
# 
# From -- ./inp_files/12449.got.cif
#   From: 2010.05.17/outbox.cif.g08.bks.cpg/sg52_7_cif.got.tgz:12449.got - 2010.06.03 12:15:38.
