data_PCOD9411086
_publ_section_title
;
Structure prediction by ZEFSAII (Michael W. Deem and Ramdas Pophale) SiO2 
 PCOD9411086
Probable space group: P N N A
;
_chemical_formula_sum "Si O2"
_cell_formula_units_Z 64
_cell_length_a 17.174855
_cell_length_b 12.941573
_cell_length_c 14.724312
_cell_angle_alpha 90.000000
_cell_angle_beta 90.000000
_cell_angle_gamma 90.000000
_cell_volume 3272.767524
_symmetry_space_group_name_H-M "P N N A"
_symmetry_group_IT_number 52
_symmetry_cell_setting 'orthorhombic'
loop_
_space_group_symop_operation_xyz
x,y,z
1/2-x,-y,z
x,1/2-y,1/2-z
1/2-x,1/2+y,1/2-z
-x,-y,-z
1/2+x,y,-z
-x,1/2+y,1/2+z
1/2+x,1/2-y,1/2+z
loop_
_atom_site_type_symbol
_atom_site_label
_atom_site_fract_x
_atom_site_fract_y
_atom_site_fract_z
Si Si1 0.333739 0.799125 0.610421
Si Si2 0.714712 0.612982 0.989373
Si Si3 0.920602 0.209095 0.396219
Si Si4 0.444026 0.095292 0.791113
Si Si5 0.711243 0.861496 0.724677
Si Si6 0.120107 0.060433 0.270889
Si Si7 0.555609 0.095106 0.527859
Si Si8 0.321472 0.920217 0.794692
O O1 0.272201 0.802576 0.529848
O O2 0.403991 0.861234 0.562657
O O3 0.306635 0.869208 0.695591
O O4 0.336894 0.681094 0.643482
O O5 0.750000 0.500000 0.013919
O O6 0.635034 0.646880 0.036138
O O7 0.711075 0.621844 0.882738
O O8 0.914142 0.149762 0.300822
O O9 0.915080 0.329838 0.372315
O O10 0.006061 0.189935 0.434042
O O11 0.537991 0.088530 0.776851
O O12 0.400532 0.986758 0.795835
O O13 0.682232 0.750000 0.750000
O O14 0.802543 0.872911 0.751654
O O15 0.651835 0.948384 0.759124
O O16 0.105455 0.063471 0.381589
O O17 0.500000 0.000000 0.500000
O O18 0.250000 0.000000 0.815821
#
# Coordination Sequence:
#
# PCOD9411086 Si02
#       8
#     8   8   8   8   8   8   8   8
#     4  11  22  36  62  90 119 166 202 258 320 371
#     4  12  20  38  64  94 123 152 211 272 312 364
#     4  10  22  35  66  93 119 168 210 254 313 372
#     4  10  21  40  61  92 129 169 208 254 308 393
#     4  11  23  39  65  89 120 158 203 266 321 372
#     4  10  21  40  62  90 117 160 205 258 312 361
#     4  11  20  37  61  91 120 148 205 263 311 359
#     4  11  23  39  58  88 131 167 205 253 318 391
#
# _framework density 19.555315
#
# number of rings (size 3 to 8) (size 9 to 14) (size 15 to 20)
#    0.000    1.250    2.500    5.625    3.500    2.000 
#    6.750    0.625   11.000    0.000    0.000    0.000 
#    0.000    0.000    0.000    0.000    0.000    0.000 
#
# Total GULP energy -356528.827912 kJ/mol
# GULP energy per Si atom -5570.762936 kJ/mol
# Density = 1.951081 g / cm^3
# Si number density = 19.555315 Si / 1000 Ang^3
#
#
#
# Elastic Constant Matrix: (Units=GPa)
#
#
# Indices 1 2 3 4 5 6 
#
# 1 78.4747 36.4162 15.1743 0.0000 0.0000 0.0000
# 2 36.4162 132.0598 22.3974 0.0000 0.0000 0.0000
# 3 15.1743 22.3974 23.0186 0.0000 0.0000 0.0000
# 4 0.0000 0.0000 0.0000 -6.1154 0.0000 0.0000
# 5 0.0000 0.0000 0.0000 0.0000 9.7908 0.0000
# 6 0.0000 0.0000 0.0000 0.0000 0.0000 11.5436
#
#
#
# Elastic Compliance Matrix: (Units=1/GPa)
#
#
# Indices 1 2 3 4 5 6 
#
# 1 0.015571 -0.003058 -0.007290 0.000000 0.000000 0.000000
# 2 -0.003058 0.009669 -0.007393 0.000000 0.000000 0.000000
# 3 -0.007290 -0.007393 0.055442 0.000000 0.000000 0.000000
# 4 0.000000 0.000000 0.000000 -0.163523 0.000000 0.000000
# 5 0.000000 0.000000 0.000000 0.000000 0.102137 0.000000
# 6 0.000000 0.000000 0.000000 0.000000 0.000000 0.086628
#
#
# Mechanical properties :
#
#
# Convention : Reuss Voigt Hill
#
# Bulk Modulus (GPa) = 22.12277 42.39209 32.25743
# Shear Modulus (GPa) = 31.95433 13.68148 22.81790
#
# Velocity S-wave (km/s) = 4.04672 2.64792 3.41961
# Velocity P-wave (km/s) = 5.75952 5.57438 5.66771
#
# Compressibility (1/GPa) = 0.04520229
#
# Stress axis : x y z
#
# Youngs Moduli (GPa) = 64.22011 103.42056 18.03682
#
# Poissons Ratio (x) = 0.31621 0.13149
# Poissons Ratio (y) = 0.19635 0.13334
# Poissons Ratio (z) = 0.46817 0.76456
#
# Static dielectric constant tensor:
#      x y z
#    x 2.022290 0.000000 0.000000 
#    y 0.000000 1.708180 0.000000 
#    z 0.000000 0.000000 1.689040 
# 
# From -- ./inp_files/28317.got.cif
#   From: 2010.05.17/outbox.cif.g08.bks.cpg/sg52_15_cif.got.tgz:28317.got - 2010.06.03 12:15:38.
