data_PCOD9411366
_publ_section_title
;
Structure prediction by ZEFSAII (Michael W. Deem and Ramdas Pophale) SiO2 
 PCOD9411366
Probable space group: P N N A
;
_chemical_formula_sum "Si O2"
_cell_formula_units_Z 40
_cell_length_a 17.821409
_cell_length_b 11.047765
_cell_length_c 9.077704
_cell_angle_alpha 90.000000
_cell_angle_beta 90.000000
_cell_angle_gamma 90.000000
_cell_volume 1787.279535
_symmetry_space_group_name_H-M "P N N A"
_symmetry_group_IT_number 52
_symmetry_cell_setting 'orthorhombic'
loop_
_space_group_symop_operation_xyz
x,y,z
1/2-x,-y,z
x,1/2-y,1/2-z
1/2-x,1/2+y,1/2-z
-x,-y,-z
1/2+x,y,-z
-x,1/2+y,1/2+z
1/2+x,1/2-y,1/2+z
loop_
_atom_site_type_symbol
_atom_site_label
_atom_site_fract_x
_atom_site_fract_y
_atom_site_fract_z
Si Si1 0.079748 0.461582 0.933031
Si Si2 0.170680 0.044950 0.291218
Si Si3 0.520264 0.250000 0.250000
Si Si4 0.762649 0.250000 0.750000
Si Si5 0.812866 0.391515 0.263989
Si Si6 0.115434 0.840405 0.071380
O O1 0.129505 0.569869 0.865741
O O2 0.067620 0.362718 0.806682
O O3 0.122579 0.409266 0.074426
O O4 0.000000 0.500000 0.000000
O O5 0.205483 0.149650 0.192303
O O6 0.250000 0.000000 0.357841
O O7 0.130170 0.947931 0.189862
O O8 0.465341 0.211718 0.114474
O O9 0.821683 0.259232 0.883619
O O10 0.750000 0.500000 0.271817
O O11 0.785305 0.250000 0.250000
O O12 0.864183 0.387905 0.411618
#
# Coordination Sequence:
#
# PCOD9411366 Si02
#       6
#     8   8   4   4   8   8
#     4  12  26  47  68 105 149 193 238 297 374 438
#     4  10  21  42  70 100 133 186 236 296 353 428
#     4  11  24  44  76  98 149 194 242 296 375 442
#     4   9  20  36  74  98 131 170 242 290 351 424
#     4  12  29  47  76 110 147 187 243 307 369 432
#     4  10  22  45  69 102 140 183 238 303 359 424
#
# _framework density 22.380382000000001
#
# number of rings (size 3 to 8) (size 9 to 14) (size 15 to 20)
#    0.000    1.200    2.000    3.600    9.800    2.400 
#    5.400    0.000    0.000    0.000    0.000    0.000 
#    0.000    0.000    0.000    0.000    0.000    0.000 
#
# Total GULP energy -222875.723464 kJ/mol
# GULP energy per Si atom -5571.893087 kJ/mol
# Density = 2.232944 g / cm^3
# Si number density = 22.380382 Si / 1000 Ang^3
#
#
#
# Elastic Constant Matrix: (Units=GPa)
#
#
# Indices 1 2 3 4 5 6 
#
# 1 58.2939 22.6965 17.1003 0.0000 0.0000 0.0000
# 2 22.6965 117.2607 17.4638 0.0000 0.0000 0.0000
# 3 17.1003 17.4638 100.0244 0.0000 0.0000 0.0000
# 4 0.0000 0.0000 0.0000 22.7002 0.0000 0.0000
# 5 0.0000 0.0000 0.0000 0.0000 12.3628 0.0000
# 6 0.0000 0.0000 0.0000 0.0000 0.0000 35.6415
#
#
#
# Elastic Compliance Matrix: (Units=1/GPa)
#
#
# Indices 1 2 3 4 5 6 
#
# 1 0.019242 -0.003321 -0.002710 0.000000 0.000000 0.000000
# 2 -0.003321 0.009329 -0.001061 0.000000 0.000000 0.000000
# 3 -0.002710 -0.001061 0.010646 0.000000 0.000000 0.000000
# 4 0.000000 0.000000 0.000000 0.044052 0.000000 0.000000
# 5 0.000000 0.000000 0.000000 0.000000 0.080888 0.000000
# 6 0.000000 0.000000 0.000000 0.000000 0.000000 0.028057
#
#
# Mechanical properties :
#
#
# Convention : Reuss Voigt Hill
#
# Bulk Modulus (GPa) = 39.94619 43.34447 41.64533
# Shear Modulus (GPa) = 23.28363 28.69545 25.98954
#
# Velocity S-wave (km/s) = 3.22896 3.58462 3.41143
# Velocity P-wave (km/s) = 5.63818 6.04499 5.84513
#
# Compressibility (1/GPa) = 0.02503367
#
# Stress axis : x y z
#
# Youngs Moduli (GPa) = 51.96865 107.19493 93.93107
#
# Poissons Ratio (x) = 0.35598 0.25454
# Poissons Ratio (y) = 0.17258 0.09966
# Poissons Ratio (z) = 0.14083 0.11374
#
# Static dielectric constant tensor:
#      x y z
#    x 1.844340 0.000000 0.000000 
#    y 0.000000 2.228370 0.000000 
#    z 0.000000 0.000000 1.880980 
# 
# From -- ./inp_files/11660.got.cif
#   From: 2010.05.17/outbox.cif.g08.bks.cpg/sg52_6_cif.got.tgz:11660.got - 2010.06.03 12:15:38.
