data_PCOD9411699
_publ_section_title
;
Structure prediction by ZEFSAII (Michael W. Deem and Ramdas Pophale) SiO2 
 PCOD9411699
Probable space group: P N N A
;
_chemical_formula_sum "Si O2"
_cell_formula_units_Z 44
_cell_length_a 11.052767
_cell_length_b 7.196015
_cell_length_c 26.200357
_cell_angle_alpha 90.000000
_cell_angle_beta 90.000000
_cell_angle_gamma 90.000000
_cell_volume 2083.868375
_symmetry_space_group_name_H-M "P N N A"
_symmetry_group_IT_number 52
_symmetry_cell_setting 'orthorhombic'
loop_
_space_group_symop_operation_xyz
x,y,z
1/2-x,-y,z
x,1/2-y,1/2-z
1/2-x,1/2+y,1/2-z
-x,-y,-z
1/2+x,y,-z
-x,1/2+y,1/2+z
1/2+x,1/2-y,1/2+z
loop_
_atom_site_type_symbol
_atom_site_label
_atom_site_fract_x
_atom_site_fract_y
_atom_site_fract_z
Si Si1 0.117084 0.189879 0.535518
Si Si2 0.368895 0.902271 0.206925
Si Si3 0.838011 0.762762 0.349886
Si Si4 0.884202 0.262402 0.017335
Si Si5 0.982120 0.750000 0.250000
Si Si6 0.921189 0.335315 0.366595
O O1 0.125229 0.150720 0.596033
O O2 0.241286 0.290912 0.517631
O O3 0.991898 0.292430 0.521392
O O4 0.120106 0.985904 0.510995
O O5 0.338096 0.750000 0.250000
O O6 0.456278 0.811613 0.164805
O O7 0.250000 0.000000 0.184287
O O8 0.440516 0.073260 0.232583
O O9 0.902392 0.816355 0.297908
O O10 0.878844 0.548481 0.359389
O O11 0.806437 0.222520 0.344878
O O12 0.930171 0.210184 0.073851
#
# Coordination Sequence:
#
# PCOD9411699 Si02
#       6
#     8   8   8   8   4   8
#     4   9  18  34  56  80 116 148 189 239 294 344
#     4  11  23  41  60  83 121 162 198 245 296 355
#     4   9  19  37  59  85 116 145 189 249 292 344
#     4   9  18  35  54  83 112 148 192 239 286 357
#     4  10  22  40  60  90 120 152 198 246 298 352
#     4   9  20  37  57  85 113 147 197 239 291 357
#
# _framework density 21.114578000000002
#
# number of rings (size 3 to 8) (size 9 to 14) (size 15 to 20)
#    0.000    2.545    0.909    0.000    3.818    0.727 
#    6.545    0.000    0.000    0.000    0.000    0.000 
#    0.000    0.000    0.000    0.000    0.000    0.000 
#
# Total GULP energy -245342.813361 kJ/mol
# GULP energy per Si atom -5575.973031 kJ/mol
# Density = 2.106652 g / cm^3
# Si number density = 21.114578 Si / 1000 Ang^3
#
#
#
# Elastic Constant Matrix: (Units=GPa)
#
#
# Indices 1 2 3 4 5 6 
#
# 1 164.1402 6.0741 83.7387 0.0000 0.0000 0.0000
# 2 6.0741 48.1198 2.0763 0.0000 0.0000 0.0000
# 3 83.7387 2.0763 65.2503 0.0000 0.0000 0.0000
# 4 0.0000 0.0000 0.0000 25.5247 0.0000 0.0000
# 5 0.0000 0.0000 0.0000 0.0000 34.0336 0.0000
# 6 0.0000 0.0000 0.0000 0.0000 0.0000 8.0774
#
#
#
# Elastic Compliance Matrix: (Units=1/GPa)
#
#
# Indices 1 2 3 4 5 6 
#
# 1 0.017720 -0.001257 -0.022701 0.000000 0.000000 0.000000
# 2 -0.001257 0.020899 0.000949 0.000000 0.000000 0.000000
# 3 -0.022701 0.000949 0.044429 0.000000 0.000000 0.000000
# 4 0.000000 0.000000 0.000000 0.039178 0.000000 0.000000
# 5 0.000000 0.000000 0.000000 0.000000 0.029383 0.000000
# 6 0.000000 0.000000 0.000000 0.000000 0.000000 0.123802
#
#
# Mechanical properties :
#
#
# Convention : Reuss Voigt Hill
#
# Bulk Modulus (GPa) = 27.00626 51.25428 39.13027
# Shear Modulus (GPa) = 14.98024 25.90190 20.44107
#
# Velocity S-wave (km/s) = 2.66648 3.50627 3.11481
# Velocity P-wave (km/s) = 4.72211 6.38114 5.61325
#
# Compressibility (1/GPa) = 0.03702846
#
# Stress axis : x y z
#
# Youngs Moduli (GPa) = 56.43262 47.84861 22.50788
#
# Poissons Ratio (x) = 0.06016 0.51096
# Poissons Ratio (y) = 0.07095 -0.02135
# Poissons Ratio (z) = 1.28109 -0.04539
#
# Static dielectric constant tensor:
#      x y z
#    x 1.823810 0.000000 0.000000 
#    y 0.000000 1.847200 0.000000 
#    z 0.000000 0.000000 1.721550 
# 
# From -- ./inp_files/41085.got.cif
#   From: 2010.05.17/outbox.cif.g08.bks.cpg/sg52_21_cif.got.tgz:41085.got - 2010.06.03 12:15:38.
