data_PCOD9411139
_publ_section_title
;
Structure prediction by ZEFSAII (Michael W. Deem and Ramdas Pophale) SiO2 
 PCOD9411139
Probable space group: P N N A
;
_chemical_formula_sum "Si O2"
_cell_formula_units_Z 60
_cell_length_a 5.011177
_cell_length_b 28.478158
_cell_length_c 21.068729
_cell_angle_alpha 90.000000
_cell_angle_beta 90.000000
_cell_angle_gamma 90.000000
_cell_volume 3006.699151
_symmetry_space_group_name_H-M "P N N A"
_symmetry_group_IT_number 52
_symmetry_cell_setting 'orthorhombic'
loop_
_space_group_symop_operation_xyz
x,y,z
1/2-x,-y,z
x,1/2-y,1/2-z
1/2-x,1/2+y,1/2-z
-x,-y,-z
1/2+x,y,-z
-x,1/2+y,1/2+z
1/2+x,1/2-y,1/2+z
loop_
_atom_site_type_symbol
_atom_site_label
_atom_site_fract_x
_atom_site_fract_y
_atom_site_fract_z
Si Si1 0.358573 0.367463 0.139556
Si Si2 0.088356 0.250000 0.750000
Si Si3 0.355928 0.153306 0.718476
Si Si4 0.728619 0.054861 0.042635
Si Si5 0.273614 0.714095 0.040348
Si Si6 0.375507 0.300056 0.373146
Si Si7 0.282151 0.555477 0.042071
Si Si8 0.364806 0.136842 0.862640
O O1 0.655864 0.367835 0.166564
O O2 0.312884 0.326742 0.088080
O O3 0.282565 0.415166 0.104244
O O4 0.156536 0.355137 0.196493
O O5 0.913829 0.272037 0.693227
O O6 0.273744 0.208071 0.723779
O O7 0.307540 0.131643 0.787794
O O8 0.812714 0.089967 0.098074
O O9 0.750000 0.000000 0.061051
O O10 0.432553 0.062984 0.015870
O O11 0.214868 0.763259 0.074223
O O12 0.581023 0.710082 0.020565
O O13 0.659287 0.323635 0.387669
O O14 0.158691 0.341216 0.367773
O O15 0.250000 0.500000 0.053921
O O16 0.570706 0.566987 0.013579
#
# Coordination Sequence:
#
# PCOD9411139 Si02
#       8
#     8   4   8   8   8   8   8   8
#     4  12  23  40  60  89 120 164 203 255 294 367
#     4  10  22  42  60  86 116 174 216 250 284 374
#     4  11  24  37  64  86 123 160 214 241 301 351
#     4  10  22  42  69  93 119 159 202 247 309 380
#     4  12  25  38  55  85 122 157 197 247 308 350
#     4  11  24  38  61  85 121 163 201 253 297 363
#     4  10  21  40  65  89 117 157 206 256 308 366
#     4  11  24  40  61  94 120 157 201 255 300 357
#
# _framework density 19.955437
#
# number of rings (size 3 to 8) (size 9 to 14) (size 15 to 20)
#    0.000    1.067    1.333    5.600    3.733    4.267 
#    0.000    1.333    0.000    0.000    0.000    0.000 
#    0.000    0.000    0.000    0.000    0.000    0.000 
#
# Total GULP energy -335771.774692 kJ/mol
# GULP energy per Si atom -5596.196245 kJ/mol
# Density = 1.991002 g / cm^3
# Si number density = 19.955437 Si / 1000 Ang^3
#
#
#
# Elastic Constant Matrix: (Units=GPa)
#
#
# Indices 1 2 3 4 5 6 
#
# 1 49.5705 -3.7395 -12.1957 0.0000 0.0000 0.0000
# 2 -3.7395 56.1741 39.4503 0.0000 0.0000 0.0000
# 3 -12.1957 39.4503 52.8135 0.0000 0.0000 0.0000
# 4 0.0000 0.0000 0.0000 34.2279 0.0000 0.0000
# 5 0.0000 0.0000 0.0000 0.0000 34.8410 0.0000
# 6 0.0000 0.0000 0.0000 0.0000 0.0000 17.8728
#
#
#
# Elastic Compliance Matrix: (Units=1/GPa)
#
#
# Indices 1 2 3 4 5 6 
#
# 1 0.021894 -0.004403 0.008345 0.000000 0.000000 0.000000
# 2 -0.004403 0.038330 -0.029649 0.000000 0.000000 0.000000
# 3 0.008345 -0.029649 0.043008 0.000000 0.000000 0.000000
# 4 0.000000 0.000000 0.000000 0.029216 0.000000 0.000000
# 5 0.000000 0.000000 0.000000 0.000000 0.028702 0.000000
# 6 0.000000 0.000000 0.000000 0.000000 0.000000 0.055951
#
#
# Mechanical properties :
#
#
# Convention : Reuss Voigt Hill
#
# Bulk Modulus (GPa) = 19.29786 22.84316 21.07051
# Shear Modulus (GPa) = 17.49549 26.39121 21.94335
#
# Velocity S-wave (km/s) = 2.96417 3.64057 3.31965
# Velocity P-wave (km/s) = 4.62672 5.39849 5.02743
#
# Compressibility (1/GPa) = 0.05181921
#
# Stress axis : x y z
#
# Youngs Moduli (GPa) = 45.67435 26.08893 23.25142
#
# Poissons Ratio (x) = 0.11486 -0.19402
# Poissons Ratio (y) = 0.20109 0.68937
# Poissons Ratio (z) = -0.38113 0.77350
#
# Static dielectric constant tensor:
#      x y z
#    x 1.694220 0.000000 0.000000 
#    y 0.000000 1.678520 0.000000 
#    z 0.000000 0.000000 1.693390 
# 
# From -- ./inp_files/30346.got.cif
#   From: 2010.05.17/outbox.cif.g08.bks.cpg/sg52_16_cif.got.tgz:30346.got - 2010.06.03 12:15:38.
