data_PCOD9411187
_publ_section_title
;
Structure prediction by ZEFSAII (Michael W. Deem and Ramdas Pophale) SiO2 
 PCOD9411187
Probable space group: P N N A
;
_chemical_formula_sum "Si O2"
_cell_formula_units_Z 40
_cell_length_a 12.436038
_cell_length_b 4.962465
_cell_length_c 28.536381
_cell_angle_alpha 90.000000
_cell_angle_beta 90.000000
_cell_angle_gamma 90.000000
_cell_volume 1761.077190
_symmetry_space_group_name_H-M "P N N A"
_symmetry_group_IT_number 52
_symmetry_cell_setting 'orthorhombic'
loop_
_space_group_symop_operation_xyz
x,y,z
1/2-x,-y,z
x,1/2-y,1/2-z
1/2-x,1/2+y,1/2-z
-x,-y,-z
1/2+x,y,-z
-x,1/2+y,1/2+z
1/2+x,1/2-y,1/2+z
loop_
_atom_site_type_symbol
_atom_site_label
_atom_site_fract_x
_atom_site_fract_y
_atom_site_fract_z
Si Si1 0.750000 0.500000 0.386283
Si Si2 0.533570 0.765528 0.153432
Si Si3 0.404499 0.249598 0.119162
Si Si4 0.750000 0.000000 0.688307
Si Si5 0.432803 0.750000 0.250000
Si Si6 0.923807 0.254644 0.989182
Si Si7 0.750000 0.000000 0.444057
O O1 0.654727 0.653201 0.358885
O O2 0.802812 0.756518 0.413888
O O3 0.491610 0.468667 0.138931
O O4 0.508137 0.838887 0.207422
O O5 0.455413 0.958129 0.124446
O O6 0.300198 0.284298 0.152204
O O7 0.383357 0.278760 0.064121
O O8 0.651103 0.059649 0.722794
O O9 0.826769 0.313398 0.024485
O O10 0.000000 0.500000 0.000000
O O11 0.000000 0.000000 0.000000
#
# Coordination Sequence:
#
# PCOD9411187 Si02
#       7
#     4   8   8   4   4   8   4
#     4  12  24  44  65  91 130 177 221 276 322 380
#     4  11  24  42  67  92 129 166 217 264 325 389
#     4  11  23  41  65  98 129 170 209 265 327 385
#     4  10  21  40  68  95 134 161 208 268 337 406
#     4  10  22  42  68 100 124 168 210 270 336 402
#     4  12  24  41  65  95 134 173 221 271 317 386
#     4  12  25  42  67  96 130 180 227 266 329 390
#
# _framework density 22.713373000000001
#
# number of rings (size 3 to 8) (size 9 to 14) (size 15 to 20)
#    0.000    0.800    0.000    9.000    0.000    4.800 
#    0.000   11.000    0.000    0.000    0.000    0.000 
#    0.000    0.000    0.000    0.000    0.000    0.000 
#
# Total GULP energy -223295.120873 kJ/mol
# GULP energy per Si atom -5582.378022 kJ/mol
# Density = 2.266168 g / cm^3
# Si number density = 22.713373 Si / 1000 Ang^3
#
#
#
# Elastic Constant Matrix: (Units=GPa)
#
#
# Indices 1 2 3 4 5 6 
#
# 1 97.8901 24.9079 41.4208 0.0000 0.0000 0.0000
# 2 24.9079 105.8513 36.9873 0.0000 0.0000 0.0000
# 3 41.4208 36.9873 137.8008 0.0000 0.0000 0.0000
# 4 0.0000 0.0000 0.0000 20.1050 0.0000 0.0000
# 5 0.0000 0.0000 0.0000 0.0000 34.5780 0.0000
# 6 0.0000 0.0000 0.0000 0.0000 0.0000 30.5604
#
#
#
# Elastic Compliance Matrix: (Units=1/GPa)
#
#
# Indices 1 2 3 4 5 6 
#
# 1 0.011982 -0.001723 -0.003139 0.000000 0.000000 0.000000
# 2 -0.001723 0.010673 -0.002347 0.000000 0.000000 0.000000
# 3 -0.003139 -0.002347 0.008830 0.000000 0.000000 0.000000
# 4 0.000000 0.000000 0.000000 0.049739 0.000000 0.000000
# 5 0.000000 0.000000 0.000000 0.000000 0.028920 0.000000
# 6 0.000000 0.000000 0.000000 0.000000 0.000000 0.032722
#
#
# Mechanical properties :
#
#
# Convention : Reuss Voigt Hill
#
# Bulk Modulus (GPa) = 58.59013 60.90821 59.74917
# Shear Modulus (GPa) = 30.67991 32.93042 31.80516
#
# Velocity S-wave (km/s) = 3.67923 3.81179 3.74610
# Velocity P-wave (km/s) = 6.62574 6.80053 6.71370
#
# Compressibility (1/GPa) = 0.01706772
#
# Stress axis : x y z
#
# Youngs Moduli (GPa) = 83.45715 93.69772 113.24514
#
# Poissons Ratio (x) = 0.16140 0.35551
# Poissons Ratio (y) = 0.14376 0.26577
# Poissons Ratio (z) = 0.26200 0.21990
#
# Static dielectric constant tensor:
#      x y z
#    x 1.744820 0.000000 0.000000 
#    y 0.000000 1.843550 0.000000 
#    z 0.000000 0.000000 1.843170 
# 
# From -- ./inp_files/42628.got.cif
#   From: 2010.05.17/outbox.cif.g08.bks.cpg/sg52_22_cif.got.tgz:42628.got - 2010.06.03 12:15:38.
