data_PCOD9411471
_publ_section_title
;
Structure prediction by ZEFSAII (Michael W. Deem and Ramdas Pophale) SiO2 
 PCOD9411471
Probable space group: P N N A
;
_chemical_formula_sum "Si O2"
_cell_formula_units_Z 36
_cell_length_a 15.670935
_cell_length_b 5.338955
_cell_length_c 22.818952
_cell_angle_alpha 90.000000
_cell_angle_beta 90.000000
_cell_angle_gamma 90.000000
_cell_volume 1909.179948
_symmetry_space_group_name_H-M "P N N A"
_symmetry_group_IT_number 52
_symmetry_cell_setting 'orthorhombic'
loop_
_space_group_symop_operation_xyz
x,y,z
1/2-x,-y,z
x,1/2-y,1/2-z
1/2-x,1/2+y,1/2-z
-x,-y,-z
1/2+x,y,-z
-x,1/2+y,1/2+z
1/2+x,1/2-y,1/2+z
loop_
_atom_site_type_symbol
_atom_site_label
_atom_site_fract_x
_atom_site_fract_y
_atom_site_fract_z
Si Si1 0.841289 0.637892 0.311051
Si Si2 0.050994 0.982054 0.439012
Si Si3 0.825568 0.329148 0.494706
Si Si4 0.750000 0.500000 0.106589
Si Si5 0.965526 0.480037 0.405623
O O1 0.750000 0.500000 0.300851
O O2 0.873034 0.750000 0.250000
O O3 0.819935 0.869854 0.353491
O O4 0.905570 0.467185 0.348232
O O5 0.142955 0.884076 0.460671
O O6 0.011910 0.747233 0.404243
O O7 0.000000 0.000000 0.500000
O O8 0.031286 0.247772 0.409171
O O9 0.750000 0.500000 0.519337
O O10 0.906629 0.473655 0.465340
O O11 0.787657 0.204068 0.436655
#
# Coordination Sequence:
#
# PCOD9411471 Si02
#       5
#     8   8   8   4   8
#     4  12  23  34  53  76 107 152 198 245 284 335
#     4  10  22  34  52  73 103 146 188 226 282 343
#     4  11  21  31  54  76 106 146 191 235 288 339
#     4  12  20  34  50  76 114 142 190 240 284 324
#     4  11  21  38  50  73 108 146 187 235 278 333
#
# _framework density 18.856263999999999
#
# number of rings (size 3 to 8) (size 9 to 14) (size 15 to 20)
#    0.000    0.889    5.556    5.333    3.111    0.000 
#    0.000    0.000    0.000    0.000    0.000    0.000 
#    0.000    0.000    3.778    0.222    8.000    0.000 
#
# Total GULP energy -200977.604120 kJ/mol
# GULP energy per Si atom -5582.711226 kJ/mol
# Density = 1.881335 g / cm^3
# Si number density = 18.856264 Si / 1000 Ang^3
#
#
#
# Elastic Constant Matrix: (Units=GPa)
#
#
# Indices 1 2 3 4 5 6 
#
# 1 73.8128 41.4153 35.0176 0.0000 0.0000 0.0000
# 2 41.4153 113.8235 30.6689 0.0000 0.0000 0.0000
# 3 35.0176 30.6689 69.1310 0.0000 0.0000 0.0000
# 4 0.0000 0.0000 0.0000 2.3115 0.0000 0.0000
# 5 0.0000 0.0000 0.0000 0.0000 23.5551 0.0000
# 6 0.0000 0.0000 0.0000 0.0000 0.0000 40.9245
#
#
#
# Elastic Compliance Matrix: (Units=1/GPa)
#
#
# Indices 1 2 3 4 5 6 
#
# 1 0.020246 -0.005228 -0.007936 0.000000 0.000000 0.000000
# 2 -0.005228 0.011328 -0.002377 0.000000 0.000000 0.000000
# 3 -0.007936 -0.002377 0.019540 0.000000 0.000000 0.000000
# 4 0.000000 0.000000 0.000000 0.432624 0.000000 0.000000
# 5 0.000000 0.000000 0.000000 0.000000 0.042454 0.000000
# 6 0.000000 0.000000 0.000000 0.000000 0.000000 0.024435
#
#
# Mechanical properties :
#
#
# Convention : Reuss Voigt Hill
#
# Bulk Modulus (GPa) = 49.92234 52.33009 51.12621
# Shear Modulus (GPa) = 8.49779 23.33594 15.91687
#
# Velocity S-wave (km/s) = 2.12518 3.52173 2.90852
# Velocity P-wave (km/s) = 5.70566 6.65951 6.20095
#
# Compressibility (1/GPa) = 0.02003111
#
# Stress axis : x y z
#
# Youngs Moduli (GPa) = 49.39169 88.27324 51.17749
#
# Poissons Ratio (x) = 0.46153 0.40615
# Poissons Ratio (y) = 0.25824 0.12166
# Poissons Ratio (z) = 0.39197 0.20985
#
# Static dielectric constant tensor:
#      x y z
#    x 1.766540 0.000000 0.000000 
#    y 0.000000 1.742300 0.000000 
#    z 0.000000 0.000000 1.634080 
# 
# From -- ./inp_files/40425.got.cif
#   From: 2010.05.17/outbox.cif.g08.bks.cpg/sg52_21_cif.got.tgz:40425.got - 2010.06.03 12:15:38.
