data_PCOD9411117
_publ_section_title
;
Structure prediction by ZEFSAII (Michael W. Deem and Ramdas Pophale) SiO2 
 PCOD9411117
Probable space group: P N N A
;
_chemical_formula_sum "Si O2"
_cell_formula_units_Z 36
_cell_length_a 13.399567
_cell_length_b 5.088997
_cell_length_c 25.113167
_cell_angle_alpha 90.000000
_cell_angle_beta 90.000000
_cell_angle_gamma 90.000000
_cell_volume 1712.475805
_symmetry_space_group_name_H-M "P N N A"
_symmetry_group_IT_number 52
_symmetry_cell_setting 'orthorhombic'
loop_
_space_group_symop_operation_xyz
x,y,z
1/2-x,-y,z
x,1/2-y,1/2-z
1/2-x,1/2+y,1/2-z
-x,-y,-z
1/2+x,y,-z
-x,1/2+y,1/2+z
1/2+x,1/2-y,1/2+z
loop_
_atom_site_type_symbol
_atom_site_label
_atom_site_fract_x
_atom_site_fract_y
_atom_site_fract_z
Si Si1 0.492863 0.992546 0.878736
Si Si2 0.321391 0.247235 0.810041
Si Si3 0.250000 0.000000 0.390830
Si Si4 0.150836 0.125080 0.198433
Si Si5 0.542040 0.997613 0.559443
O O1 0.404751 0.162355 0.852170
O O2 0.572835 0.940581 0.831622
O O3 0.535246 0.201534 0.921014
O O4 0.476507 0.713060 0.906667
O O5 0.250000 0.500000 0.820119
O O6 0.364319 0.250000 0.750000
O O7 0.250000 0.000000 0.809562
O O8 0.303868 0.802732 0.349185
O O9 0.157403 0.909847 0.428389
O O10 0.099925 0.250000 0.250000
O O11 0.250000 0.000000 0.222278
O O12 0.500000 0.000000 0.500000
#
# Coordination Sequence:
#
# PCOD9411117 Si02
#       5
#     8   8   4   8   8
#     4  11  23  41  65  93 128 168 216 272 321 392
#     4  10  21  40  63  93 133 174 215 264 323 385
#     4  10  22  40  60  88 132 168 202 272 318 386
#     4  11  20  35  61  96 134 166 206 250 331 415
#     4  11  24  43  64  90 124 167 220 272 328 378
#
# _framework density 21.022195
#
# number of rings (size 3 to 8) (size 9 to 14) (size 15 to 20)
#    0.000    1.333    3.333    2.667    0.000    0.000 
#    6.000    3.333    0.000    0.000    0.000    0.000 
#    0.000    0.000    0.000    0.000    0.000    0.000 
#
# Total GULP energy -200432.311471 kJ/mol
# GULP energy per Si atom -5567.564208 kJ/mol
# Density = 2.097435 g / cm^3
# Si number density = 21.022195 Si / 1000 Ang^3
#
#
#
# Elastic Constant Matrix: (Units=GPa)
#
#
# Indices 1 2 3 4 5 6 
#
# 1 79.8759 9.4731 43.1916 0.0000 0.0000 0.0000
# 2 9.4731 97.4185 22.2835 0.0000 0.0000 0.0000
# 3 43.1916 22.2835 122.1263 0.0000 0.0000 0.0000
# 4 0.0000 0.0000 0.0000 35.6165 0.0000 0.0000
# 5 0.0000 0.0000 0.0000 0.0000 26.9435 0.0000
# 6 0.0000 0.0000 0.0000 0.0000 0.0000 8.1824
#
#
#
# Elastic Compliance Matrix: (Units=1/GPa)
#
#
# Indices 1 2 3 4 5 6 
#
# 1 0.015486 -0.000264 -0.005429 0.000000 0.000000 0.000000
# 2 -0.000264 0.010717 -0.001862 0.000000 0.000000 0.000000
# 3 -0.005429 -0.001862 0.010448 0.000000 0.000000 0.000000
# 4 0.000000 0.000000 0.000000 0.028077 0.000000 0.000000
# 5 0.000000 0.000000 0.000000 0.000000 0.037115 0.000000
# 6 0.000000 0.000000 0.000000 0.000000 0.000000 0.122213
#
#
# Mechanical properties :
#
#
# Convention : Reuss Voigt Hill
#
# Bulk Modulus (GPa) = 46.42288 49.92413 48.17350
# Shear Modulus (GPa) = 20.29667 29.11329 24.70498
#
# Velocity S-wave (km/s) = 3.11060 3.72544 3.43182
# Velocity P-wave (km/s) = 5.91877 6.50423 6.21840
#
# Compressibility (1/GPa) = 0.02154110
#
# Stress axis : x y z
#
# Youngs Moduli (GPa) = 64.57346 93.31328 95.71272
#
# Poissons Ratio (x) = 0.02465 0.51960
# Poissons Ratio (y) = 0.01706 0.17821
# Poissons Ratio (z) = 0.35055 0.17375
#
# Static dielectric constant tensor:
#      x y z
#    x 1.783310 0.000000 0.000000 
#    y 0.000000 1.818300 0.000000 
#    z 0.000000 0.000000 1.948110 
# 
# From -- ./inp_files/39948.got.cif
#   From: 2010.05.17/outbox.cif.g08.bks.cpg/sg52_20_cif.got.tgz:39948.got - 2010.06.03 12:15:38.
