data_PCOD9411558
_publ_section_title
;
Structure prediction by ZEFSAII (Michael W. Deem and Ramdas Pophale) SiO2 
 PCOD9411558
Probable space group: P N N A
;
_chemical_formula_sum "Si O2"
_cell_formula_units_Z 40
_cell_length_a 27.319611
_cell_length_b 8.944880
_cell_length_c 8.211692
_cell_angle_alpha 90.000000
_cell_angle_beta 90.000000
_cell_angle_gamma 90.000000
_cell_volume 2006.696446
_symmetry_space_group_name_H-M "P N N A"
_symmetry_group_IT_number 52
_symmetry_cell_setting 'orthorhombic'
loop_
_space_group_symop_operation_xyz
x,y,z
1/2-x,-y,z
x,1/2-y,1/2-z
1/2-x,1/2+y,1/2-z
-x,-y,-z
1/2+x,y,-z
-x,1/2+y,1/2+z
1/2+x,1/2-y,1/2+z
loop_
_atom_site_type_symbol
_atom_site_label
_atom_site_fract_x
_atom_site_fract_y
_atom_site_fract_z
Si Si1 0.398925 0.579331 0.695121
Si Si2 0.498054 0.072428 0.684391
Si Si3 0.299897 0.078704 0.801637
Si Si4 0.897192 0.920591 0.807166
Si Si5 0.200669 0.580741 0.304607
O O1 0.401455 0.750000 0.750000
O O2 0.448003 0.494790 0.746821
O O3 0.349126 0.502799 0.758842
O O4 0.396270 0.576562 0.501010
O O5 0.497213 0.250000 0.750000
O O6 0.550168 0.017227 0.754014
O O7 0.500000 0.000000 0.500000
O O8 0.300393 0.250000 0.750000
O O9 0.250000 0.000000 0.743655
O O10 0.299849 0.072051 0.998623
O O11 0.893628 0.750000 0.750000
O O12 0.849628 0.006955 0.743487
O O13 0.250000 0.500000 0.246451
O O14 0.202309 0.750000 0.250000
#
# Coordination Sequence:
#
# PCOD9411558 Si02
#       5
#     8   8   8   8   8
#     4  11  22  38  62  90 122 159 203 251 302 365
#     4  11  24  42  64  91 124 162 205 254 311 369
#     4  10  22  39  59  87 119 154 197 245 301 362
#     4  10  22  39  59  86 120 157 199 245 298 356
#     4  10  22  38  59  86 116 152 194 241 293 354
#
# _framework density 19.933257999999999
#
# number of rings (size 3 to 8) (size 9 to 14) (size 15 to 20)
#    0.000    1.600    0.000    4.800    0.000    8.000 
#    0.000    0.000    0.000    0.000    0.000    0.000 
#    0.000    0.000    0.000    0.000    0.000    0.000 
#
# Total GULP energy -223064.818237 kJ/mol
# GULP energy per Si atom -5576.620456 kJ/mol
# Density = 1.988789 g / cm^3
# Si number density = 19.933258 Si / 1000 Ang^3
#
#
#
# Elastic Constant Matrix: (Units=GPa)
#
#
# Indices 1 2 3 4 5 6 
#
# 1 255.9446 115.0519 39.3641 0.0000 0.0000 0.0000
# 2 115.0519 140.3951 23.2661 0.0000 0.0000 0.0000
# 3 39.3641 23.2661 53.6077 0.0000 0.0000 0.0000
# 4 0.0000 0.0000 0.0000 34.2101 0.0000 0.0000
# 5 0.0000 0.0000 0.0000 0.0000 -105.9469 0.0000
# 6 0.0000 0.0000 0.0000 0.0000 0.0000 43.6904
#
#
#
# Elastic Compliance Matrix: (Units=1/GPa)
#
#
# Indices 1 2 3 4 5 6 
#
# 1 0.006520 -0.004902 -0.002660 0.000000 0.000000 0.000000
# 2 -0.004902 0.011360 -0.001331 0.000000 0.000000 0.000000
# 3 -0.002660 -0.001331 0.021185 0.000000 0.000000 0.000000
# 4 0.000000 0.000000 0.000000 0.029231 0.000000 0.000000
# 5 0.000000 0.000000 0.000000 0.000000 -0.009439 0.000000
# 6 0.000000 0.000000 0.000000 0.000000 0.000000 0.022888
#
#
# Mechanical properties :
#
#
# Convention : Reuss Voigt Hill
#
# Bulk Modulus (GPa) = 46.99420 89.47906 68.23663
# Shear Modulus (GPa) = 46.89339 12.54173 29.71756
#
# Velocity S-wave (km/s) = 4.85554 2.51108 3.86535
# Velocity P-wave (km/s) = 7.42038 7.30713 7.36397
#
# Compressibility (1/GPa) = 0.02127922
#
# Stress axis : x y z
#
# Youngs Moduli (GPa) = 153.38001 88.02437 47.20354
#
# Poissons Ratio (x) = 0.43150 0.12556
# Poissons Ratio (y) = 0.75188 0.06283
# Poissons Ratio (z) = 0.40798 0.11716
#
# Static dielectric constant tensor:
#      x y z
#    x 1.713260 0.000000 0.000000 
#    y 0.000000 1.678110 0.000000 
#    z 0.000000 0.000000 1.719450 
# 
# From -- ./inp_files/13958.got.cif
#   From: 2010.05.17/outbox.cif.g08.bks.cpg/sg52_7_cif.got.tgz:13958.got - 2010.06.03 12:15:38.
