data_PCOD9411942
_publ_section_title
;
Structure prediction by ZEFSAII (Michael W. Deem and Ramdas Pophale) SiO2 
 PCOD9411942
Probable space group: P N N A
;
_chemical_formula_sum "Si O2"
_cell_formula_units_Z 36
_cell_length_a 19.867088
_cell_length_b 13.990122
_cell_length_c 5.201386
_cell_angle_alpha 90.000000
_cell_angle_beta 90.000000
_cell_angle_gamma 90.000000
_cell_volume 1445.688750
_symmetry_space_group_name_H-M "P N N A"
_symmetry_group_IT_number 52
_symmetry_cell_setting 'orthorhombic'
loop_
_space_group_symop_operation_xyz
x,y,z
1/2-x,-y,z
x,1/2-y,1/2-z
1/2-x,1/2+y,1/2-z
-x,-y,-z
1/2+x,y,-z
-x,1/2+y,1/2+z
1/2+x,1/2-y,1/2+z
loop_
_atom_site_type_symbol
_atom_site_label
_atom_site_fract_x
_atom_site_fract_y
_atom_site_fract_z
Si Si1 0.917781 0.344275 0.980422
Si Si2 0.798607 0.250000 0.250000
Si Si3 0.698967 0.081550 0.214904
Si Si4 0.875303 0.865496 0.733308
Si Si5 0.476227 0.134975 0.964791
O O1 0.946161 0.399265 0.735940
O O2 0.845401 0.294909 0.023833
O O3 0.964993 0.249696 0.002945
O O4 0.927542 0.402677 0.240814
O O5 0.749418 0.168630 0.160536
O O6 0.645289 0.105865 0.441716
O O7 0.750000 0.000000 0.303233
O O8 0.666461 0.070469 0.934948
O O9 0.862244 0.750000 0.750000
O O10 0.950326 0.878641 0.849799
#
# Coordination Sequence:
#
# PCOD9411942 Si02
#       5
#     8   4   8   8   8
#     4   9  18  30  57  91 123 158 215 266 319 407
#     4  10  22  42  66  92 136 186 216 262 360 406
#     4  12  27  42  64 101 139 178 229 278 330 403
#     4  12  21  40  69  97 127 176 223 283 333 395
#     4   9  17  31  56  96 116 151 221 265 322 380
#
# _framework density 24.901624999999999
#
# number of rings (size 3 to 8) (size 9 to 14) (size 15 to 20)
#    0.000    1.778    4.444    2.000    3.111    7.111 
#    0.000    0.000    0.000   18.667    0.000    0.000 
#    0.000    0.000    0.000    0.000    0.000    0.000 
#
# Total GULP energy -200608.573973 kJ/mol
# GULP energy per Si atom -5572.460388 kJ/mol
# Density = 2.484495 g / cm^3
# Si number density = 24.901625 Si / 1000 Ang^3
#
#
#
# Elastic Constant Matrix: (Units=GPa)
#
#
# Indices 1 2 3 4 5 6 
#
# 1 111.4326 4.9473 32.8832 0.0000 0.0000 0.0000
# 2 4.9473 63.4985 -7.9497 0.0000 0.0000 0.0000
# 3 32.8832 -7.9497 200.0418 0.0000 0.0000 0.0000
# 4 0.0000 0.0000 0.0000 14.5543 0.0000 0.0000
# 5 0.0000 0.0000 0.0000 0.0000 -28.4325 0.0000
# 6 0.0000 0.0000 0.0000 0.0000 0.0000 18.1619
#
#
#
# Elastic Compliance Matrix: (Units=1/GPa)
#
#
# Indices 1 2 3 4 5 6 
#
# 1 0.009487 -0.000939 -0.001597 0.000000 0.000000 0.000000
# 2 -0.000939 0.015920 0.000787 0.000000 0.000000 0.000000
# 3 -0.001597 0.000787 0.005293 0.000000 0.000000 0.000000
# 4 0.000000 0.000000 0.000000 0.068708 0.000000 0.000000
# 5 0.000000 0.000000 0.000000 0.000000 -0.035171 0.000000
# 6 0.000000 0.000000 0.000000 0.000000 0.000000 0.055060
#
#
# Mechanical properties :
#
#
# Convention : Reuss Voigt Hill
#
# Bulk Modulus (GPa) = 36.76187 48.30385 42.53286
# Shear Modulus (GPa) = 37.91837 23.86288 30.89062
#
# Velocity S-wave (km/s) = 3.90645 3.09898 3.52590
# Velocity P-wave (km/s) = 5.92807 5.67846 5.80460
#
# Compressibility (1/GPa) = 0.02720210
#
# Stress axis : x y z
#
# Youngs Moduli (GPa) = 105.40817 62.81365 188.93893
#
# Poissons Ratio (x) = 0.05899 0.30170
# Poissons Ratio (y) = 0.09898 -0.14870
# Poissons Ratio (z) = 0.16832 -0.04944
#
# Static dielectric constant tensor:
#      x y z
#    x 2.054500 0.000000 0.000000 
#    y 0.000000 2.378050 0.000000 
#    z 0.000000 0.000000 2.060080 
# 
# From -- ./inp_files/4104.got.cif
#   From: 2010.05.17/outbox.cif.g08.bks.cpg/sg52_3_cif.got.tgz:4104.got - 2010.06.03 12:15:38.
