data_PCOD9411313
_publ_section_title
;
Structure prediction by ZEFSAII (Michael W. Deem and Ramdas Pophale) SiO2 
 PCOD9411313
Probable space group: P N N A
;
_chemical_formula_sum "Si O2"
_cell_formula_units_Z 64
_cell_length_a 14.946425
_cell_length_b 8.633474
_cell_length_c 20.471806
_cell_angle_alpha 90.000000
_cell_angle_beta 90.000000
_cell_angle_gamma 90.000000
_cell_volume 2641.673077
_symmetry_space_group_name_H-M "P N N A"
_symmetry_group_IT_number 52
_symmetry_cell_setting 'orthorhombic'
loop_
_space_group_symop_operation_xyz
x,y,z
1/2-x,-y,z
x,1/2-y,1/2-z
1/2-x,1/2+y,1/2-z
-x,-y,-z
1/2+x,y,-z
-x,1/2+y,1/2+z
1/2+x,1/2-y,1/2+z
loop_
_atom_site_type_symbol
_atom_site_label
_atom_site_fract_x
_atom_site_fract_y
_atom_site_fract_z
Si Si1 0.330034 0.078864 0.271269
Si Si2 0.334135 0.405280 0.003869
Si Si3 0.517244 0.668897 0.349052
Si Si4 0.517566 0.664973 0.543247
Si Si5 0.522308 0.000956 0.282577
Si Si6 0.294671 0.163516 0.913900
Si Si7 0.862254 0.652993 0.112347
Si Si8 0.149672 0.025220 0.126132
O O1 0.305062 0.250000 0.250000
O O2 0.341039 0.980701 0.204595
O O3 0.250000 0.000000 0.310059
O O4 0.427393 0.077116 0.301159
O O5 0.250000 0.500000 0.037562
O O6 0.286292 0.244774 0.983641
O O7 0.353587 0.511892 0.939739
O O8 0.431436 0.328690 0.022616
O O9 0.523365 0.831149 0.313205
O O10 0.528606 0.531931 0.294909
O O11 0.602029 0.657309 0.395592
O O12 0.419532 0.666991 0.383752
O O13 0.500000 0.500000 0.500000
O O14 0.424396 0.720432 0.575104
O O15 0.587655 0.609057 0.598022
O O16 0.595007 0.099610 0.319982
O O17 0.234193 0.276173 0.870505
O O18 0.250000 0.000000 0.912333
O O19 0.250000 0.000000 0.101142
#
# Coordination Sequence:
#
# PCOD9411313 Si02
#       8
#     8   8   8   8   8   8   8   8
#     4  10  22  38  64  96 128 169 210 260 326 402
#     4  10  23  43  64  94 133 174 228 283 345 409
#     4  10  21  42  65 100 132 178 214 275 328 415
#     4  12  25  43  68  97 130 179 229 286 353 411
#     4  10  22  40  67  93 138 171 220 266 342 398
#     4  11  22  42  68  96 133 178 223 274 339 404
#     4  11  23  43  67  96 135 175 224 284 333 406
#     4  10  23  40  64  93 132 161 216 271 328 396
#
# _framework density 24.227070999999999
#
# number of rings (size 3 to 8) (size 9 to 14) (size 15 to 20)
#    0.000    1.500    1.250    3.375    5.250    3.500 
#    6.750    0.625    0.000    0.000    0.000    0.000 
#    0.000    0.000    0.000    0.000    0.000    0.000 
#
# Total GULP energy -356362.434919 kJ/mol
# GULP energy per Si atom -5568.163046 kJ/mol
# Density = 2.417193 g / cm^3
# Si number density = 24.227071 Si / 1000 Ang^3
#
#
#
# Elastic Constant Matrix: (Units=GPa)
#
#
# Indices 1 2 3 4 5 6 
#
# 1 174.5309 49.6589 29.6152 0.0000 0.0000 0.0000
# 2 49.6589 95.8784 25.7677 0.0000 0.0000 0.0000
# 3 29.6152 25.7677 52.4347 0.0000 0.0000 0.0000
# 4 0.0000 0.0000 0.0000 20.1071 0.0000 0.0000
# 5 0.0000 0.0000 0.0000 0.0000 26.7539 0.0000
# 6 0.0000 0.0000 0.0000 0.0000 0.0000 53.1379
#
#
#
# Elastic Compliance Matrix: (Units=1/GPa)
#
#
# Indices 1 2 3 4 5 6 
#
# 1 0.006993 -0.002950 -0.002500 0.000000 0.000000 0.000000
# 2 -0.002950 0.013262 -0.004851 0.000000 0.000000 0.000000
# 3 -0.002500 -0.004851 0.022867 0.000000 0.000000 0.000000
# 4 0.000000 0.000000 0.000000 0.049734 0.000000 0.000000
# 5 0.000000 0.000000 0.000000 0.000000 0.037378 0.000000
# 6 0.000000 0.000000 0.000000 0.000000 0.000000 0.018819
#
#
# Mechanical properties :
#
#
# Convention : Reuss Voigt Hill
#
# Bulk Modulus (GPa) = 44.40496 59.21415 51.80955
# Shear Modulus (GPa) = 28.22292 34.51993 31.37143
#
# Velocity S-wave (km/s) = 3.41681 3.77881 3.60236
# Velocity P-wave (km/s) = 5.82534 6.59800 6.22367
#
# Compressibility (1/GPa) = 0.02252001
#
# Stress axis : x y z
#
# Youngs Moduli (GPa) = 142.99470 75.40595 43.73085
#
# Poissons Ratio (x) = 0.22246 0.10933
# Poissons Ratio (y) = 0.42186 0.21213
# Poissons Ratio (z) = 0.35749 0.36578
#
# Static dielectric constant tensor:
#      x y z
#    x 2.019370 0.000000 0.000000 
#    y 0.000000 1.954380 0.000000 
#    z 0.000000 0.000000 2.011630 
# 
# From -- ./inp_files/40707.got.cif
#   From: 2010.05.17/outbox.cif.g08.bks.cpg/sg52_21_cif.got.tgz:40707.got - 2010.06.03 12:15:38.
