data_PCOD9411765
_publ_section_title
;
Structure prediction by ZEFSAII (Michael W. Deem and Ramdas Pophale) SiO2 
 PCOD9411765
Probable space group: P N N A
;
_chemical_formula_sum "Si O2"
_cell_formula_units_Z 44
_cell_length_a 15.136597
_cell_length_b 10.036985
_cell_length_c 13.077989
_cell_angle_alpha 90.000000
_cell_angle_beta 90.000000
_cell_angle_gamma 90.000000
_cell_volume 1986.883903
_symmetry_space_group_name_H-M "P N N A"
_symmetry_group_IT_number 52
_symmetry_cell_setting 'orthorhombic'
loop_
_space_group_symop_operation_xyz
x,y,z
1/2-x,-y,z
x,1/2-y,1/2-z
1/2-x,1/2+y,1/2-z
-x,-y,-z
1/2+x,y,-z
-x,1/2+y,1/2+z
1/2+x,1/2-y,1/2+z
loop_
_atom_site_type_symbol
_atom_site_label
_atom_site_fract_x
_atom_site_fract_y
_atom_site_fract_z
Si Si1 0.240088 0.250000 0.750000
Si Si2 0.161705 0.834417 0.448578
Si Si3 0.441581 0.250000 0.250000
Si Si4 0.119229 0.880731 0.876686
Si Si5 0.034388 0.250000 0.250000
Si Si6 0.128353 0.369627 0.064004
Si Si7 0.908085 0.820512 0.104270
O O1 0.306191 0.135558 0.788144
O O2 0.171481 0.262513 0.842623
O O3 0.119526 0.810961 0.337329
O O4 0.138324 0.724468 0.533302
O O5 0.267593 0.835481 0.437802
O O6 0.124813 0.980189 0.477945
O O7 0.510867 0.164525 0.182542
O O8 0.029204 0.839746 0.820700
O O9 0.879150 0.970186 0.080346
O O10 0.092183 0.345642 0.177779
O O11 0.072851 0.268726 0.993389
#
# Coordination Sequence:
#
# PCOD9411765 Si02
#       7
#     4   8   4   8   4   8   8
#     4  10  22  40  66  96 132 172 214 272 334 394
#     4  11  25  45  69  99 136 180 226 278 338 402
#     4  11  25  43  67 100 138 180 223 281 333 405
#     4  11  24  43  69 100 133 175 227 280 336 402
#     4  11  25  43  67 100 138 180 223 281 333 405
#     4  11  25  45  69  99 136 180 226 278 338 402
#     4  11  24  43  69 100 133 175 227 280 336 402
#
# _framework density 22.145229
#
# number of rings (size 3 to 8) (size 9 to 14) (size 15 to 20)
#    0.000    1.091    1.818    3.273    0.000   14.545 
#    0.000    0.000    0.000    0.000    0.000    0.000 
#    0.000    0.000    0.000    0.000    0.000    0.000 
#
# Total GULP energy -245747.682394 kJ/mol
# GULP energy per Si atom -5585.174600 kJ/mol
# Density = 2.209483 g / cm^3
# Si number density = 22.145229 Si / 1000 Ang^3
#
#
#
# Elastic Constant Matrix: (Units=GPa)
#
#
# Indices 1 2 3 4 5 6 
#
# 1 78.5492 33.0043 47.7633 0.0000 0.0000 0.0000
# 2 33.0043 136.2283 76.3586 0.0000 0.0000 0.0000
# 3 47.7633 76.3586 118.8222 0.0000 0.0000 0.0000
# 4 0.0000 0.0000 0.0000 28.3032 0.0000 0.0000
# 5 0.0000 0.0000 0.0000 0.0000 60.7876 0.0000
# 6 0.0000 0.0000 0.0000 0.0000 0.0000 8.8205
#
#
#
# Elastic Compliance Matrix: (Units=1/GPa)
#
#
# Indices 1 2 3 4 5 6 
#
# 1 0.016867 -0.000447 -0.006493 0.000000 0.000000 0.000000
# 2 -0.000447 0.011485 -0.007201 0.000000 0.000000 0.000000
# 3 -0.006493 -0.007201 0.015653 0.000000 0.000000 0.000000
# 4 0.000000 0.000000 0.000000 0.035332 0.000000 0.000000
# 5 0.000000 0.000000 0.000000 0.000000 0.016451 0.000000
# 6 0.000000 0.000000 0.000000 0.000000 0.000000 0.113372
#
#
# Mechanical properties :
#
#
# Convention : Reuss Voigt Hill
#
# Bulk Modulus (GPa) = 63.59778 71.98357 67.79067
# Shear Modulus (GPa) = 20.60303 31.34715 25.97509
#
# Velocity S-wave (km/s) = 3.05349 3.76643 3.42854
# Velocity P-wave (km/s) = 6.41970 7.17568 6.80819
#
# Compressibility (1/GPa) = 0.01572382
#
# Stress axis : x y z
#
# Youngs Moduli (GPa) = 59.28840 87.06810 63.88385
#
# Poissons Ratio (x) = 0.03893 0.41478
# Poissons Ratio (y) = 0.02651 0.46003
# Poissons Ratio (z) = 0.38494 0.62698
#
# Static dielectric constant tensor:
#      x y z
#    x 1.841210 0.000000 0.000000 
#    y 0.000000 1.806220 0.000000 
#    z 0.000000 0.000000 1.804900 
# 
# From -- ./inp_files/19479.got.cif
#   From: 2010.05.17/outbox.cif.g08.bks.cpg/sg52_10_cif.got.tgz:19479.got - 2010.06.03 12:15:38.
