data_PCOD9411430
_publ_section_title
;
Structure prediction by ZEFSAII (Michael W. Deem and Ramdas Pophale) SiO2 
 PCOD9411430
Probable space group: P N N A
;
_chemical_formula_sum "Si O2"
_cell_formula_units_Z 48
_cell_length_a 23.899987
_cell_length_b 14.576690
_cell_length_c 5.446489
_cell_angle_alpha 90.000000
_cell_angle_beta 90.000000
_cell_angle_gamma 90.000000
_cell_volume 1897.462552
_symmetry_space_group_name_H-M "P N N A"
_symmetry_group_IT_number 52
_symmetry_cell_setting 'orthorhombic'
loop_
_space_group_symop_operation_xyz
x,y,z
1/2-x,-y,z
x,1/2-y,1/2-z
1/2-x,1/2+y,1/2-z
-x,-y,-z
1/2+x,y,-z
-x,1/2+y,1/2+z
1/2+x,1/2-y,1/2+z
loop_
_atom_site_type_symbol
_atom_site_label
_atom_site_fract_x
_atom_site_fract_y
_atom_site_fract_z
Si Si1 0.885649 0.806141 0.001286
Si Si2 0.351573 0.987630 0.482619
Si Si3 0.276275 0.857915 0.187224
Si Si4 0.573083 0.906723 0.889009
Si Si5 0.327454 0.347497 0.636555
Si Si6 0.957941 0.563667 0.275073
O O1 0.888217 0.750000 0.250000
O O2 0.939045 0.870319 0.004737
O O3 0.885057 0.750000 0.750000
O O4 0.827605 0.861571 0.003692
O O5 0.300246 0.920998 0.407180
O O6 0.380187 0.032136 0.243694
O O7 0.335302 0.071971 0.661936
O O8 0.405220 0.932917 0.592545
O O9 0.269652 0.750000 0.250000
O O10 0.219024 0.882685 0.055701
O O11 0.519778 0.901798 0.706232
O O12 0.612489 0.828687 0.003053
O O13 0.545878 0.961433 0.117410
O O14 0.308570 0.250000 0.750000
#
# Coordination Sequence:
#
# PCOD9411430 Si02
#       6
#     8   8   8   8   8   8
#     4  11  23  43  70 110 149 198 260 329 396 469
#     4  11  24  50  79 107 152 202 263 328 411 477
#     4  11  25  50  76 107 154 201 268 333 396 474
#     4  10  23  45  74 106 148 199 252 318 398 487
#     4  11  28  51  72 111 157 205 264 326 408 494
#     4  10  21  44  73 109 147 196 254 325 395 479
#
# _framework density 25.296944
#
# number of rings (size 3 to 8) (size 9 to 14) (size 15 to 20)
#    0.000    1.333    1.667    3.000    2.333    1.333 
#    9.000    0.000    0.000    0.000    0.000    0.000 
#    0.000    0.000    0.000    0.000    0.000    0.000 
#
# Total GULP energy -268068.662884 kJ/mol
# GULP energy per Si atom -5584.763810 kJ/mol
# Density = 2.523937 g / cm^3
# Si number density = 25.296944 Si / 1000 Ang^3
#
#
#
# Elastic Constant Matrix: (Units=GPa)
#
#
# Indices 1 2 3 4 5 6 
#
# 1 201.3734 61.8981 56.5052 0.0000 0.0000 0.0000
# 2 61.8981 83.9476 49.3530 0.0000 0.0000 0.0000
# 3 56.5052 49.3530 100.5493 0.0000 0.0000 0.0000
# 4 0.0000 0.0000 0.0000 40.0917 0.0000 0.0000
# 5 0.0000 0.0000 0.0000 0.0000 34.6290 0.0000
# 6 0.0000 0.0000 0.0000 0.0000 0.0000 36.3288
#
#
#
# Elastic Compliance Matrix: (Units=1/GPa)
#
#
# Indices 1 2 3 4 5 6 
#
# 1 0.006663 -0.003812 -0.001874 0.000000 0.000000 0.000000
# 2 -0.003812 0.018924 -0.007147 0.000000 0.000000 0.000000
# 3 -0.001874 -0.007147 0.014506 0.000000 0.000000 0.000000
# 4 0.000000 0.000000 0.000000 0.024943 0.000000 0.000000
# 5 0.000000 0.000000 0.000000 0.000000 0.028878 0.000000
# 6 0.000000 0.000000 0.000000 0.000000 0.000000 0.027526
#
#
# Mechanical properties :
#
#
# Convention : Reuss Voigt Hill
#
# Bulk Modulus (GPa) = 69.30118 80.15366 74.72742
# Shear Modulus (GPa) = 32.91337 36.75082 34.83209
#
# Velocity S-wave (km/s) = 3.61096 3.81567 3.71472
# Velocity P-wave (km/s) = 6.69626 7.15306 6.92843
#
# Compressibility (1/GPa) = 0.01442977
#
# Stress axis : x y z
#
# Youngs Moduli (GPa) = 150.07702 52.84253 68.93643
#
# Poissons Ratio (x) = 0.20141 0.12916
# Poissons Ratio (y) = 0.57203 0.49266
# Poissons Ratio (z) = 0.28120 0.37765
#
# Static dielectric constant tensor:
#      x y z
#    x 2.029750 0.000000 0.000000 
#    y 0.000000 2.071560 0.000000 
#    z 0.000000 0.000000 2.088770 
# 
# From -- ./inp_files/5138.got.cif
#   From: 2010.05.17/outbox.cif.g08.bks.cpg/sg52_3_cif.got.tgz:5138.got - 2010.06.03 12:15:38.
