data_PCOD9411343
_publ_section_title
;
Structure prediction by ZEFSAII (Michael W. Deem and Ramdas Pophale) SiO2 
 PCOD9411343
Probable space group: P N N A
;
_chemical_formula_sum "Si O2"
_cell_formula_units_Z 40
_cell_length_a 9.402440
_cell_length_b 9.360125
_cell_length_c 22.880958
_cell_angle_alpha 90.000000
_cell_angle_beta 90.000000
_cell_angle_gamma 90.000000
_cell_volume 2013.707665
_symmetry_space_group_name_H-M "P N N A"
_symmetry_group_IT_number 52
_symmetry_cell_setting 'orthorhombic'
loop_
_space_group_symop_operation_xyz
x,y,z
1/2-x,-y,z
x,1/2-y,1/2-z
1/2-x,1/2+y,1/2-z
-x,-y,-z
1/2+x,y,-z
-x,1/2+y,1/2+z
1/2+x,1/2-y,1/2+z
loop_
_atom_site_type_symbol
_atom_site_label
_atom_site_fract_x
_atom_site_fract_y
_atom_site_fract_z
Si Si1 0.250000 0.000000 0.363169
Si Si2 0.038015 0.598436 0.924806
Si Si3 0.824381 0.697274 0.090584
Si Si4 0.250000 0.000000 0.120819
Si Si5 0.929275 0.239697 0.817534
Si Si6 0.414701 0.858728 0.016231
O O1 0.317512 0.131311 0.327940
O O2 0.116566 0.061596 0.399622
O O3 0.109764 0.446521 0.939291
O O4 0.166179 0.665056 0.885728
O O5 0.014636 0.722351 0.971858
O O6 0.935017 0.736982 0.140821
O O7 0.821813 0.815203 0.039790
O O8 0.354594 0.093817 0.160815
O O9 0.169942 0.106485 0.075680
O O10 0.969810 0.250000 0.750000
O O11 0.500000 0.000000 0.000000
#
# Coordination Sequence:
#
# PCOD9411343 Si02
#       6
#     4   8   8   4   8   8
#     4  10  21  42  68  88 124 169 220 266 310 386
#     4  10  22  40  63  89 126 163 214 254 328 391
#     4  10  23  40  63  92 126 170 209 268 324 398
#     4  12  23  40  64 100 130 169 220 278 332 398
#     4  11  23  43  66  91 128 174 222 269 322 390
#     4  12  22  38  62  95 134 163 206 270 342 393
#
# _framework density 19.863856999999999
#
# number of rings (size 3 to 8) (size 9 to 14) (size 15 to 20)
#    0.000    1.200    4.000    2.400    0.000    1.600 
#    0.000    1.000   13.200    0.000    0.000    0.000 
#    0.000    0.000    0.000    0.000    0.000    0.000 
#
# Total GULP energy -222990.867845 kJ/mol
# GULP energy per Si atom -5574.771696 kJ/mol
# Density = 1.981865 g / cm^3
# Si number density = 19.863857 Si / 1000 Ang^3
#
#
#
# Elastic Constant Matrix: (Units=GPa)
#
#
# Indices 1 2 3 4 5 6 
#
# 1 136.6568 43.0759 41.5528 0.0000 0.0000 0.0000
# 2 43.0759 95.6185 52.7185 0.0000 0.0000 0.0000
# 3 41.5528 52.7185 98.7968 0.0000 0.0000 0.0000
# 4 0.0000 0.0000 0.0000 21.2751 0.0000 0.0000
# 5 0.0000 0.0000 0.0000 0.0000 2.1310 0.0000
# 6 0.0000 0.0000 0.0000 0.0000 0.0000 19.4866
#
#
#
# Elastic Compliance Matrix: (Units=1/GPa)
#
#
# Indices 1 2 3 4 5 6 
#
# 1 0.008873 -0.002748 -0.002265 0.000000 0.000000 0.000000
# 2 -0.002748 0.015669 -0.007205 0.000000 0.000000 0.000000
# 3 -0.002265 -0.007205 0.014919 0.000000 0.000000 0.000000
# 4 0.000000 0.000000 0.000000 0.047003 0.000000 0.000000
# 5 0.000000 0.000000 0.000000 0.000000 0.469254 0.000000
# 6 0.000000 0.000000 0.000000 0.000000 0.000000 0.051317
#
#
# Mechanical properties :
#
#
# Convention : Reuss Voigt Hill
#
# Bulk Modulus (GPa) = 66.56227 67.30739 66.93483
# Shear Modulus (GPa) = 7.85571 21.49353 14.67462
#
# Velocity S-wave (km/s) = 1.99082 3.29301 2.72096
# Velocity P-wave (km/s) = 6.23430 6.95819 6.60617
#
# Compressibility (1/GPa) = 0.01502353
#
# Stress axis : x y z
#
# Youngs Moduli (GPa) = 112.70578 63.82144 67.02765
#
# Poissons Ratio (x) = 0.17539 0.15184
# Poissons Ratio (y) = 0.30973 0.48294
# Poissons Ratio (z) = 0.25531 0.45984
#
# Static dielectric constant tensor:
#      x y z
#    x 1.735570 0.000000 0.000000 
#    y 0.000000 1.737650 0.000000 
#    z 0.000000 0.000000 1.674030 
# 
# From -- ./inp_files/39267.got.cif
#   From: 2010.05.17/outbox.cif.g08.bks.cpg/sg52_20_cif.got.tgz:39267.got - 2010.06.03 12:15:38.
