data_PCOD9411415
_publ_section_title
;
Structure prediction by ZEFSAII (Michael W. Deem and Ramdas Pophale) SiO2 
 PCOD9411415
Probable space group: P N N A
;
_chemical_formula_sum "Si O2"
_cell_formula_units_Z 64
_cell_length_a 8.273849
_cell_length_b 13.667968
_cell_length_c 25.223989
_cell_angle_alpha 90.000000
_cell_angle_beta 90.000000
_cell_angle_gamma 90.000000
_cell_volume 2852.497762
_symmetry_space_group_name_H-M "P N N A"
_symmetry_group_IT_number 52
_symmetry_cell_setting 'orthorhombic'
loop_
_space_group_symop_operation_xyz
x,y,z
1/2-x,-y,z
x,1/2-y,1/2-z
1/2-x,1/2+y,1/2-z
-x,-y,-z
1/2+x,y,-z
-x,1/2+y,1/2+z
1/2+x,1/2-y,1/2+z
loop_
_atom_site_type_symbol
_atom_site_label
_atom_site_fract_x
_atom_site_fract_y
_atom_site_fract_z
Si Si1 0.162863 0.400907 0.376986
Si Si2 0.019096 0.444303 0.842668
Si Si3 0.254956 0.309203 0.111675
Si Si4 0.650253 0.874679 0.293602
Si Si5 0.687188 0.110390 0.070789
Si Si6 0.345986 0.330086 0.470065
Si Si7 0.158336 0.658849 0.672526
Si Si8 0.064641 0.463309 0.056037
O O1 0.250000 0.500000 0.359718
O O2 0.230211 0.294659 0.358824
O O3 0.198747 0.386175 0.439726
O O4 0.980901 0.401213 0.357457
O O5 0.177627 0.391170 0.821896
O O6 0.018090 0.543238 0.807799
O O7 0.857399 0.380241 0.850197
O O8 0.046866 0.482379 0.901837
O O9 0.356280 0.274913 0.059228
O O10 0.096031 0.355849 0.082958
O O11 0.599892 0.768618 0.314439
O O12 0.687554 0.880689 0.231199
O O13 0.507901 0.115885 0.047291
O O14 0.696248 0.152256 0.130474
O O15 0.750000 0.000000 0.068750
O O16 0.802045 0.172592 0.031276
O O17 0.250000 0.500000 0.058916
O O18 0.000000 0.500000 0.000000
#
# Coordination Sequence:
#
# PCOD9411415 Si02
#       8
#     8   8   8   8   8   8   8   8
#     4  10  21  44  68  97 148 180 236 291 361 433
#     4  10  21  45  67  98 135 186 229 297 344 430
#     4   9  22  41  69  97 147 181 238 283 363 439
#     4  10  24  43  73  94 143 181 250 290 372 407
#     4  12  23  39  69  98 143 183 240 294 361 438
#     4  10  23  39  65 103 140 188 226 289 374 437
#     4  11  24  44  68 104 134 187 242 302 354 431
#     4  10  22  39  65 101 136 176 228 282 353 427
#
# _framework density 22.436477
#
# number of rings (size 3 to 8) (size 9 to 14) (size 15 to 20)
#    0.750    1.000    0.000    3.750    3.500    3.000 
#    2.250    4.375    0.000    0.000    0.000    0.000 
#    0.000    0.000    0.000    0.000    0.000    0.000 
#
# Total GULP energy -356461.847188 kJ/mol
# GULP energy per Si atom -5569.716362 kJ/mol
# Density = 2.238541 g / cm^3
# Si number density = 22.436477 Si / 1000 Ang^3
#
#
#
# Elastic Constant Matrix: (Units=GPa)
#
#
# Indices 1 2 3 4 5 6 
#
# 1 81.7101 34.2960 57.6906 0.0000 0.0000 0.0000
# 2 34.2960 100.3200 29.1316 0.0000 0.0000 0.0000
# 3 57.6906 29.1316 151.9492 0.0000 0.0000 0.0000
# 4 0.0000 0.0000 0.0000 19.1331 0.0000 0.0000
# 5 0.0000 0.0000 0.0000 0.0000 23.7689 0.0000
# 6 0.0000 0.0000 0.0000 0.0000 0.0000 26.6497
#
#
#
# Elastic Compliance Matrix: (Units=1/GPa)
#
#
# Indices 1 2 3 4 5 6 
#
# 1 0.018482 -0.004533 -0.006148 0.000000 0.000000 0.000000
# 2 -0.004533 0.011668 -0.000516 0.000000 0.000000 0.000000
# 3 -0.006148 -0.000516 0.009014 0.000000 0.000000 0.000000
# 4 0.000000 0.000000 0.000000 0.052265 0.000000 0.000000
# 5 0.000000 0.000000 0.000000 0.000000 0.042072 0.000000
# 6 0.000000 0.000000 0.000000 0.000000 0.000000 0.037524
#
#
# Mechanical properties :
#
#
# Convention : Reuss Voigt Hill
#
# Bulk Modulus (GPa) = 59.63029 64.02396 61.82713
# Shear Modulus (GPa) = 25.12461 28.10107 26.61284
#
# Velocity S-wave (km/s) = 3.34999 3.54287 3.44778
# Velocity P-wave (km/s) = 6.44967 6.73302 6.59287
#
# Compressibility (1/GPa) = 0.01677000
#
# Stress axis : x y z
#
# Youngs Moduli (GPa) = 54.10766 85.70762 110.93584
#
# Poissons Ratio (x) = 0.38851 0.68202
# Poissons Ratio (y) = 0.24527 0.05723
# Poissons Ratio (z) = 0.33265 0.04421
#
# Static dielectric constant tensor:
#      x y z
#    x 1.875610 0.000000 0.000000 
#    y 0.000000 1.975740 0.000000 
#    z 0.000000 0.000000 1.827310 
# 
# From -- ./inp_files/39685.got.cif
#   From: 2010.05.17/outbox.cif.g08.bks.cpg/sg52_20_cif.got.tgz:39685.got - 2010.06.03 12:15:38.
