data_PCOD9411944
_publ_section_title
;
Structure prediction by ZEFSAII (Michael W. Deem and Ramdas Pophale) SiO2 
 PCOD9411944
Probable space group: P N N A
;
_chemical_formula_sum "Si O2"
_cell_formula_units_Z 48
_cell_length_a 17.827285
_cell_length_b 13.429847
_cell_length_c 9.351029
_cell_angle_alpha 90.000000
_cell_angle_beta 90.000000
_cell_angle_gamma 90.000000
_cell_volume 2238.801949
_symmetry_space_group_name_H-M "P N N A"
_symmetry_group_IT_number 52
_symmetry_cell_setting 'orthorhombic'
loop_
_space_group_symop_operation_xyz
x,y,z
1/2-x,-y,z
x,1/2-y,1/2-z
1/2-x,1/2+y,1/2-z
-x,-y,-z
1/2+x,y,-z
-x,1/2+y,1/2+z
1/2+x,1/2-y,1/2+z
loop_
_atom_site_type_symbol
_atom_site_label
_atom_site_fract_x
_atom_site_fract_y
_atom_site_fract_z
Si Si1 0.735702 0.344894 0.181864
Si Si2 0.350492 0.606772 0.372288
Si Si3 0.768441 0.250000 0.750000
Si Si4 0.371631 0.334957 0.022769
Si Si5 0.250000 0.500000 0.575325
Si Si6 0.514543 0.251033 0.580157
Si Si7 0.879925 0.563186 0.957155
O O1 0.694240 0.250000 0.250000
O O2 0.758221 0.409147 0.317947
O O3 0.811562 0.316013 0.101612
O O4 0.684996 0.404971 0.068571
O O5 0.286759 0.692998 0.359469
O O6 0.320534 0.521724 0.474951
O O7 0.426289 0.658317 0.429491
O O8 0.356224 0.569486 0.209382
O O9 0.822724 0.323873 0.834238
O O10 0.400368 0.448895 0.010285
O O11 0.438351 0.255390 0.009185
O O12 0.496025 0.250000 0.750000
O O13 0.558330 0.150074 0.536495
#
# Coordination Sequence:
#
# PCOD9411944 Si02
#       7
#     8   8   4   8   4   8   8
#     4  12  24  41  66 104 139 175 229 303 348 398
#     4  11  22  43  69  97 134 186 240 274 348 427
#     4  12  22  42  70  96 132 188 242 292 326 432
#     4  12  23  40  65 101 134 174 234 289 353 411
#     4  12  24  38  68 110 130 174 236 302 336 400
#     4  10  22  42  66  95 136 187 217 286 357 417
#     4  11  21  44  67  92 133 189 234 272 343 440
#
# _framework density 21.44004
#
# number of rings (size 3 to 8) (size 9 to 14) (size 15 to 20)
#    0.000    0.667    5.833    4.000    0.000    0.000 
#    4.500    0.000    0.000    8.000    0.000    0.000 
#    0.000    0.000    0.000    0.000    0.000    0.000 
#
# Total GULP energy -268149.032420 kJ/mol
# GULP energy per Si atom -5586.438175 kJ/mol
# Density = 2.139124 g / cm^3
# Si number density = 21.440040 Si / 1000 Ang^3
#
#
#
# Elastic Constant Matrix: (Units=GPa)
#
#
# Indices 1 2 3 4 5 6 
#
# 1 98.8278 18.9418 40.6508 0.0000 0.0000 0.0000
# 2 18.9418 68.0637 29.3481 0.0000 0.0000 0.0000
# 3 40.6508 29.3481 82.1985 0.0000 0.0000 0.0000
# 4 0.0000 0.0000 0.0000 41.9578 0.0000 0.0000
# 5 0.0000 0.0000 0.0000 0.0000 5.1206 0.0000
# 6 0.0000 0.0000 0.0000 0.0000 0.0000 17.9675
#
#
#
# Elastic Compliance Matrix: (Units=1/GPa)
#
#
# Indices 1 2 3 4 5 6 
#
# 1 0.012758 -0.000981 -0.005959 0.000000 0.000000 0.000000
# 2 -0.000981 0.017441 -0.005742 0.000000 0.000000 0.000000
# 3 -0.005959 -0.005742 0.017163 0.000000 0.000000 0.000000
# 4 0.000000 0.000000 0.000000 0.023833 0.000000 0.000000
# 5 0.000000 0.000000 0.000000 0.000000 0.195291 0.000000
# 6 0.000000 0.000000 0.000000 0.000000 0.000000 0.055656
#
#
# Mechanical properties :
#
#
# Convention : Reuss Voigt Hill
#
# Bulk Modulus (GPa) = 45.45958 47.44126 46.45042
# Shear Modulus (GPa) = 14.09089 23.68578 18.88834
#
# Velocity S-wave (km/s) = 2.56642 3.32738 2.97136
# Velocity P-wave (km/s) = 5.48007 6.07761 5.78656
#
# Compressibility (1/GPa) = 0.02199756
#
# Stress axis : x y z
#
# Youngs Moduli (GPa) = 78.38374 57.33619 58.26559
#
# Poissons Ratio (x) = 0.05624 0.34721
# Poissons Ratio (y) = 0.07689 0.33456
# Poissons Ratio (z) = 0.46709 0.32922
#
# Static dielectric constant tensor:
#      x y z
#    x 1.775950 0.000000 0.000000 
#    y 0.000000 1.844050 0.000000 
#    z 0.000000 0.000000 1.802330 
# 
# From -- ./inp_files/12147.got.cif
#   From: 2010.05.17/outbox.cif.g08.bks.cpg/sg52_7_cif.got.tgz:12147.got - 2010.06.03 12:15:38.
