data_PCOD9411872
_publ_section_title
;
Structure prediction by ZEFSAII (Michael W. Deem and Ramdas Pophale) SiO2 
 PCOD9411872
Probable space group: P N N A
;
_chemical_formula_sum "Si O2"
_cell_formula_units_Z 32
_cell_length_a 13.654756
_cell_length_b 11.508655
_cell_length_c 8.524804
_cell_angle_alpha 90.000000
_cell_angle_beta 90.000000
_cell_angle_gamma 90.000000
_cell_volume 1339.654841
_symmetry_space_group_name_H-M "P N N A"
_symmetry_group_IT_number 52
_symmetry_cell_setting 'orthorhombic'
loop_
_space_group_symop_operation_xyz
x,y,z
1/2-x,-y,z
x,1/2-y,1/2-z
1/2-x,1/2+y,1/2-z
-x,-y,-z
1/2+x,y,-z
-x,1/2+y,1/2+z
1/2+x,1/2-y,1/2+z
loop_
_atom_site_type_symbol
_atom_site_label
_atom_site_fract_x
_atom_site_fract_y
_atom_site_fract_z
Si Si1 0.997141 0.370462 0.557943
Si Si2 0.343038 0.250000 0.250000
Si Si3 0.300924 0.877416 0.766820
Si Si4 0.189839 0.389531 0.092140
Si Si5 0.974043 0.750000 0.750000
O O1 0.105598 0.348575 0.625387
O O2 0.973683 0.289873 0.408013
O O3 0.000000 0.500000 0.500000
O O4 0.916390 0.348171 0.689446
O O5 0.269410 0.287134 0.112810
O O6 0.248132 0.750000 0.750000
O O7 0.335518 0.907862 0.589319
O O8 0.250000 0.000000 0.820333
O O9 0.250000 0.500000 0.151522
O O10 0.096919 0.354870 0.194610
#
# Coordination Sequence:
#
# PCOD9411872 Si02
#       5
#     8   4   8   8   4
#     4  12  26  43  68 103 142 181 234 302 360 428
#     4  11  24  44  66  99 144 166 238 299 362 404
#     4  11  24  46  73  99 141 188 241 293 353 442
#     4  10  22  41  67  93 129 183 231 278 346 429
#     4  11  22  42  66  93 138 178 230 273 360 424
#
# _framework density 23.886748000000001
#
# number of rings (size 3 to 8) (size 9 to 14) (size 15 to 20)
#    0.000    1.000    3.750    1.500    3.500    5.000 
#    0.000    8.750    0.000    0.000    0.000    0.000 
#    0.000    0.000    0.000    0.000    0.000    0.000 
#
# Total GULP energy -178739.923906 kJ/mol
# GULP energy per Si atom -5585.622622 kJ/mol
# Density = 2.383238 g / cm^3
# Si number density = 23.886748 Si / 1000 Ang^3
#
#
#
# Elastic Constant Matrix: (Units=GPa)
#
#
# Indices 1 2 3 4 5 6 
#
# 1 60.0046 5.8718 22.2431 0.0000 0.0000 0.0000
# 2 5.8718 95.0358 -9.2852 0.0000 0.0000 0.0000
# 3 22.2431 -9.2852 90.7637 0.0000 0.0000 0.0000
# 4 0.0000 0.0000 0.0000 43.1780 0.0000 0.0000
# 5 0.0000 0.0000 0.0000 0.0000 19.6929 0.0000
# 6 0.0000 0.0000 0.0000 0.0000 0.0000 34.7960
#
#
#
# Elastic Compliance Matrix: (Units=1/GPa)
#
#
# Indices 1 2 3 4 5 6 
#
# 1 0.018571 -0.001608 -0.004716 0.000000 0.000000 0.000000
# 2 -0.001608 0.010768 0.001496 0.000000 0.000000 0.000000
# 3 -0.004716 0.001496 0.012326 0.000000 0.000000 0.000000
# 4 0.000000 0.000000 0.000000 0.023160 0.000000 0.000000
# 5 0.000000 0.000000 0.000000 0.000000 0.050780 0.000000
# 6 0.000000 0.000000 0.000000 0.000000 0.000000 0.028739
#
#
# Mechanical properties :
#
#
# Convention : Reuss Voigt Hill
#
# Bulk Modulus (GPa) = 31.24141 31.49592 31.36866
# Shear Modulus (GPa) = 30.36391 34.66502 32.51446
#
# Velocity S-wave (km/s) = 3.56920 3.81363 3.69344
# Velocity P-wave (km/s) = 5.48571 5.71015 5.59905
#
# Compressibility (1/GPa) = 0.03200880
#
# Stress axis : x y z
#
# Youngs Moduli (GPa) = 53.84806 92.86921 81.12767
#
# Poissons Ratio (x) = 0.14934 0.38256
# Poissons Ratio (y) = 0.08659 -0.12134
# Poissons Ratio (z) = 0.25392 -0.13890
#
# Static dielectric constant tensor:
#      x y z
#    x 1.891000 0.000000 0.000000 
#    y 0.000000 1.964950 0.000000 
#    z 0.000000 0.000000 1.898160 
# 
# From -- ./inp_files/9612.got.cif
#   From: 2010.05.17/outbox.cif.g08.bks.cpg/sg52_5_cif.got.tgz:9612.got - 2010.06.03 12:15:38.
