data_PCOD9411487
_publ_section_title
;
Structure prediction by ZEFSAII (Michael W. Deem and Ramdas Pophale) SiO2 
 PCOD9411487
Probable space group: P N N A
;
_chemical_formula_sum "Si O2"
_cell_formula_units_Z 28
_cell_length_a 15.683360
_cell_length_b 9.214401
_cell_length_c 9.166622
_cell_angle_alpha 90.000000
_cell_angle_beta 90.000000
_cell_angle_gamma 90.000000
_cell_volume 1324.693919
_symmetry_space_group_name_H-M "P N N A"
_symmetry_group_IT_number 52
_symmetry_cell_setting 'orthorhombic'
loop_
_space_group_symop_operation_xyz
x,y,z
1/2-x,-y,z
x,1/2-y,1/2-z
1/2-x,1/2+y,1/2-z
-x,-y,-z
1/2+x,y,-z
-x,1/2+y,1/2+z
1/2+x,1/2-y,1/2+z
loop_
_atom_site_type_symbol
_atom_site_label
_atom_site_fract_x
_atom_site_fract_y
_atom_site_fract_z
Si Si1 0.764747 0.839519 0.535704
Si Si2 0.090910 0.675134 0.402594
Si Si3 0.578826 0.157141 0.966889
Si Si4 0.337747 0.750000 0.750000
O O1 0.684424 0.736183 0.562359
O O2 0.588754 0.500480 0.602778
O O3 0.852544 0.770272 0.592883
O O4 0.781647 0.842366 0.361741
O O5 0.067552 0.750000 0.250000
O O6 0.018447 0.710279 0.523627
O O7 0.892421 0.650729 0.360864
O O8 0.750000 0.000000 0.594261
#
# Coordination Sequence:
#
# PCOD9411487 Si02
#       4
#     8   8   8   4
#     4  10  22  35  62  89 123 161 219 264 313 382
#     4  11  21  39  63  91 128 170 211 264 329 380
#     4   9  21  39  63  89 124 174 213 265 317 388
#     4   8  20  40  60  90 114 170 220 266 304 396
#
# _framework density 21.136959000000001
#
# number of rings (size 3 to 8) (size 9 to 14) (size 15 to 20)
#    1.714    0.571    1.429    0.857    4.000    3.429 
#    0.000    0.000    3.143    0.000    0.000    0.000 
#    0.000    0.000    0.000    0.000    0.000    0.000 
#
# Total GULP energy -155881.424609 kJ/mol
# GULP energy per Si atom -5567.193736 kJ/mol
# Density = 2.108885 g / cm^3
# Si number density = 21.136959 Si / 1000 Ang^3
#
#
#
# Elastic Constant Matrix: (Units=GPa)
#
#
# Indices 1 2 3 4 5 6 
#
# 1 86.3684 21.4987 -24.7582 0.0000 0.0000 0.0000
# 2 21.4987 96.4302 12.5200 0.0000 0.0000 0.0000
# 3 -24.7582 12.5200 67.1253 0.0000 0.0000 0.0000
# 4 0.0000 0.0000 0.0000 29.4592 0.0000 0.0000
# 5 0.0000 0.0000 0.0000 0.0000 -39.7165 0.0000
# 6 0.0000 0.0000 0.0000 0.0000 0.0000 -3.2625
#
#
#
# Elastic Compliance Matrix: (Units=1/GPa)
#
#
# Indices 1 2 3 4 5 6 
#
# 1 0.014288 -0.003966 0.006010 0.000000 0.000000 0.000000
# 2 -0.003966 0.011728 -0.003650 0.000000 0.000000 0.000000
# 3 0.006010 -0.003650 0.017795 0.000000 0.000000 0.000000
# 4 0.000000 0.000000 0.000000 0.033945 0.000000 0.000000
# 5 0.000000 0.000000 0.000000 0.000000 -0.025178 0.000000
# 6 0.000000 0.000000 0.000000 0.000000 0.000000 -0.306515
#
#
# Mechanical properties :
#
#
# Convention : Reuss Voigt Hill
#
# Bulk Modulus (GPa) = 24.63130 29.82720 27.22925
# Shear Modulus (GPa) = -21.08004 13.34027 -3.86988
#
# Velocity S-wave (km/s) = -3.16144 2.51497 -1.35456
# Velocity P-wave (km/s) = 1.28367 4.75136 3.23478
#
# Compressibility (1/GPa) = 0.04059876
#
# Stress axis : x y z
#
# Youngs Moduli (GPa) = 69.98793 85.26411 56.19581
#
# Poissons Ratio (x) = 0.33814 -0.33772
# Poissons Ratio (y) = 0.27755 0.20513
# Poissons Ratio (z) = -0.42060 0.31123
#
# Static dielectric constant tensor:
#      x y z
#    x 1.805560 0.000000 0.000000 
#    y 0.000000 1.721020 0.000000 
#    z 0.000000 0.000000 1.807180 
# 
# From -- ./inp_files/9761.got.cif
#   From: 2010.05.17/outbox.cif.g08.bks.cpg/sg52_5_cif.got.tgz:9761.got - 2010.06.03 12:15:38.
