data_PCOD9411914
_publ_section_title
;
Structure prediction by ZEFSAII (Michael W. Deem and Ramdas Pophale) SiO2 
 PCOD9411914
Probable space group: P N N A
;
_chemical_formula_sum "Si O2"
_cell_formula_units_Z 40
_cell_length_a 24.623572
_cell_length_b 9.442694
_cell_length_c 7.824981
_cell_angle_alpha 90.000000
_cell_angle_beta 90.000000
_cell_angle_gamma 90.000000
_cell_volume 1819.408677
_symmetry_space_group_name_H-M "P N N A"
_symmetry_group_IT_number 52
_symmetry_cell_setting 'orthorhombic'
loop_
_space_group_symop_operation_xyz
x,y,z
1/2-x,-y,z
x,1/2-y,1/2-z
1/2-x,1/2+y,1/2-z
-x,-y,-z
1/2+x,y,-z
-x,1/2+y,1/2+z
1/2+x,1/2-y,1/2+z
loop_
_atom_site_type_symbol
_atom_site_label
_atom_site_fract_x
_atom_site_fract_y
_atom_site_fract_z
Si Si1 0.025806 0.572679 0.665464
Si Si2 0.375890 0.910094 0.680316
Si Si3 0.408482 0.595876 0.205631
Si Si4 0.708611 0.619110 0.361786
Si Si5 0.390578 0.169421 0.075667
O O1 0.066476 0.460989 0.746664
O O2 0.064870 0.690917 0.574537
O O3 0.000000 0.500000 0.500000
O O4 0.974671 0.600797 0.788962
O O5 0.366077 0.750000 0.750000
O O6 0.383346 0.933542 0.478259
O O7 0.331366 0.020654 0.748156
O O8 0.388434 0.750000 0.250000
O O9 0.391264 0.491499 0.356659
O O10 0.750000 0.500000 0.431039
O O11 0.732073 0.750000 0.250000
O O12 0.669163 0.692004 0.500932
O O13 0.404252 0.250000 0.250000
#
# Coordination Sequence:
#
# PCOD9411914 Si02
#       5
#     8   8   8   8   8
#     4   9  20  34  55  87 124 164 205 245 295 356
#     4  11  22  40  62  88 124 164 207 256 307 365
#     4  11  22  36  58  90 126 165 207 251 302 361
#     4  11  24  44  68  92 118 156 203 256 318 379
#     4  10  22  42  62  89 125 163 206 258 312 369
#
# _framework density 21.985167000000001
#
# number of rings (size 3 to 8) (size 9 to 14) (size 15 to 20)
#    0.000    1.600    0.000    6.000    0.000   11.200 
#    0.000    7.000    0.000    0.000    0.000    0.000 
#    0.000    0.000    0.000    0.000    0.000    0.000 
#
# Total GULP energy -223151.057756 kJ/mol
# GULP energy per Si atom -5578.776444 kJ/mol
# Density = 2.193513 g / cm^3
# Si number density = 21.985167 Si / 1000 Ang^3
#
#
#
# Elastic Constant Matrix: (Units=GPa)
#
#
# Indices 1 2 3 4 5 6 
#
# 1 47.3950 -19.2265 2.9596 0.0000 0.0000 0.0000
# 2 -19.2265 67.4743 -12.9709 0.0000 0.0000 0.0000
# 3 2.9596 -12.9709 90.9030 0.0000 0.0000 0.0000
# 4 0.0000 0.0000 0.0000 32.1604 0.0000 0.0000
# 5 0.0000 0.0000 0.0000 0.0000 17.9050 0.0000
# 6 0.0000 0.0000 0.0000 0.0000 0.0000 24.0803
#
#
#
# Elastic Compliance Matrix: (Units=1/GPa)
#
#
# Indices 1 2 3 4 5 6 
#
# 1 0.023860 0.006837 0.000199 0.000000 0.000000 0.000000
# 2 0.006837 0.017198 0.002231 0.000000 0.000000 0.000000
# 3 0.000199 0.002231 0.011313 0.000000 0.000000 0.000000
# 4 0.000000 0.000000 0.000000 0.031094 0.000000 0.000000
# 5 0.000000 0.000000 0.000000 0.000000 0.055850 0.000000
# 6 0.000000 0.000000 0.000000 0.000000 0.000000 0.041528
#
#
# Mechanical properties :
#
#
# Convention : Reuss Voigt Hill
#
# Bulk Modulus (GPa) = 14.10335 16.36630 15.23483
# Shear Modulus (GPa) = 26.88986 30.49646 28.69316
#
# Velocity S-wave (km/s) = 3.50107 3.72847 3.61656
# Velocity P-wave (km/s) = 4.77202 5.09860 4.93801
#
# Compressibility (1/GPa) = 0.07090513
#
# Stress axis : x y z
#
# Youngs Moduli (GPa) = 41.91033 58.14757 88.39662
#
# Poissons Ratio (x) = -0.39756 -0.01757
# Poissons Ratio (y) = -0.28655 -0.19724
# Poissons Ratio (z) = -0.00833 -0.12975
#
# Static dielectric constant tensor:
#      x y z
#    x 1.842790 0.000000 0.000000 
#    y 0.000000 1.905370 0.000000 
#    z 0.000000 0.000000 3.035410 
# 
# From -- ./inp_files/14819.got.cif
#   From: 2010.05.17/outbox.cif.g08.bks.cpg/sg52_8_cif.got.tgz:14819.got - 2010.06.03 12:15:38.
