data_PCOD9411263
_publ_section_title
;
Structure prediction by ZEFSAII (Michael W. Deem and Ramdas Pophale) SiO2 
 PCOD9411263
Probable space group: P N N A
;
_chemical_formula_sum "Si O2"
_cell_formula_units_Z 36
_cell_length_a 11.978171
_cell_length_b 5.640016
_cell_length_c 24.326385
_cell_angle_alpha 90.000000
_cell_angle_beta 90.000000
_cell_angle_gamma 90.000000
_cell_volume 1643.419442
_symmetry_space_group_name_H-M "P N N A"
_symmetry_group_IT_number 52
_symmetry_cell_setting 'orthorhombic'
loop_
_space_group_symop_operation_xyz
x,y,z
1/2-x,-y,z
x,1/2-y,1/2-z
1/2-x,1/2+y,1/2-z
-x,-y,-z
1/2+x,y,-z
-x,1/2+y,1/2+z
1/2+x,1/2-y,1/2+z
loop_
_atom_site_type_symbol
_atom_site_label
_atom_site_fract_x
_atom_site_fract_y
_atom_site_fract_z
Si Si1 0.250000 0.000000 0.716588
Si Si2 0.137608 0.107711 0.951190
Si Si3 0.967219 0.923085 0.356911
Si Si4 0.305107 0.251119 0.315815
Si Si5 0.458312 0.806849 0.455263
O O1 0.243815 0.250000 0.750000
O O2 0.133063 0.988315 0.682015
O O3 0.095521 0.287737 0.905788
O O4 0.250000 0.000000 0.930058
O O5 0.151053 0.214633 0.012729
O O6 0.048432 0.900503 0.955484
O O7 0.062185 0.763433 0.328451
O O8 0.039507 0.110041 0.392801
O O9 0.250000 0.500000 0.336292
O O10 0.291004 0.250000 0.250000
O O11 0.250000 0.000000 0.334684
O O12 0.500000 0.000000 0.500000
#
# Coordination Sequence:
#
# PCOD9411263 Si02
#       5
#     4   8   8   8   8
#     4  12  30  46  74 116 148 196 244 306 388 446
#     4  10  21  41  67  96 139 183 230 295 371 440
#     4  11  24  44  70 101 144 182 240 303 363 443
#     4  10  24  46  69  96 135 186 234 293 353 415
#     4   9  21  41  61  97 130 183 228 282 364 423
#
# _framework density 21.905545
#
# number of rings (size 3 to 8) (size 9 to 14) (size 15 to 20)
#    0.000    1.778    0.000    2.000    7.778    5.333 
#   12.000    0.000    0.000    0.000    0.000    0.000 
#    0.000    0.000    0.000    0.000    0.000    0.000 
#
# Total GULP energy -200435.456894 kJ/mol
# GULP energy per Si atom -5567.651580 kJ/mol
# Density = 2.185569 g / cm^3
# Si number density = 21.905545 Si / 1000 Ang^3
#
#
#
# Elastic Constant Matrix: (Units=GPa)
#
#
# Indices 1 2 3 4 5 6 
#
# 1 100.4804 25.7272 38.7936 0.0000 0.0000 0.0000
# 2 25.7272 90.1142 63.5076 0.0000 0.0000 0.0000
# 3 38.7936 63.5076 72.9757 0.0000 0.0000 0.0000
# 4 0.0000 0.0000 0.0000 89.0807 0.0000 0.0000
# 5 0.0000 0.0000 0.0000 0.0000 27.5820 0.0000
# 6 0.0000 0.0000 0.0000 0.0000 0.0000 29.7464
#
#
#
# Elastic Compliance Matrix: (Units=1/GPa)
#
#
# Indices 1 2 3 4 5 6 
#
# 1 0.012820 0.002955 -0.009387 0.000000 0.000000 0.000000
# 2 0.002955 0.029379 -0.027138 0.000000 0.000000 0.000000
# 3 -0.009387 -0.027138 0.042310 0.000000 0.000000 0.000000
# 4 0.000000 0.000000 0.000000 0.011226 0.000000 0.000000
# 5 0.000000 0.000000 0.000000 0.000000 0.036255 0.000000
# 6 0.000000 0.000000 0.000000 0.000000 0.000000 0.033617
#
#
# Mechanical properties :
#
#
# Convention : Reuss Voigt Hill
#
# Bulk Modulus (GPa) = 57.57194 57.73633 57.65413
# Shear Modulus (GPa) = 20.96121 38.31796 29.63959
#
# Velocity S-wave (km/s) = 3.09672 4.18692 3.68239
# Velocity P-wave (km/s) = 6.25501 7.05606 6.66758
#
# Compressibility (1/GPa) = 0.01736957
#
# Stress axis : x y z
#
# Youngs Moduli (GPa) = 78.00604 34.03823 23.63499
#
# Poissons Ratio (x) = -0.10059 0.22185
# Poissons Ratio (y) = -0.23053 0.64141
# Poissons Ratio (z) = 0.73222 0.92373
#
# Static dielectric constant tensor:
#      x y z
#    x 1.819210 0.000000 0.000000 
#    y 0.000000 1.880620 0.000000 
#    z 0.000000 0.000000 1.847060 
# 
# From -- ./inp_files/39897.got.cif
#   From: 2010.05.17/outbox.cif.g08.bks.cpg/sg52_20_cif.got.tgz:39897.got - 2010.06.03 12:15:38.
