data_PCOD9411082
_publ_section_title
;
Structure prediction by ZEFSAII (Michael W. Deem and Ramdas Pophale) SiO2 
 PCOD9411082
Probable space group: P N N A
;
_chemical_formula_sum "Si O2"
_cell_formula_units_Z 56
_cell_length_a 9.247956
_cell_length_b 12.346418
_cell_length_c 20.742839
_cell_angle_alpha 90.000000
_cell_angle_beta 90.000000
_cell_angle_gamma 90.000000
_cell_volume 2368.399319
_symmetry_space_group_name_H-M "P N N A"
_symmetry_group_IT_number 52
_symmetry_cell_setting 'orthorhombic'
loop_
_space_group_symop_operation_xyz
x,y,z
1/2-x,-y,z
x,1/2-y,1/2-z
1/2-x,1/2+y,1/2-z
-x,-y,-z
1/2+x,y,-z
-x,1/2+y,1/2+z
1/2+x,1/2-y,1/2+z
loop_
_atom_site_type_symbol
_atom_site_label
_atom_site_fract_x
_atom_site_fract_y
_atom_site_fract_z
Si Si1 0.591859 0.821895 0.346553
Si Si2 0.354902 0.412150 0.360377
Si Si3 0.946020 0.128957 0.728962
Si Si4 0.757277 0.673002 0.881722
Si Si5 0.184621 0.765820 0.518909
Si Si6 0.056399 0.113114 0.970947
Si Si7 0.272755 0.112971 0.774143
O O1 0.422942 0.838260 0.360932
O O2 0.676938 0.829034 0.413880
O O3 0.626908 0.903142 0.288658
O O4 0.649741 0.705967 0.316676
O O5 0.250000 0.500000 0.391281
O O6 0.388658 0.444103 0.287357
O O7 0.273543 0.299878 0.369319
O O8 0.504514 0.394253 0.397216
O O9 0.895855 0.250000 0.750000
O O10 0.863717 0.110885 0.661510
O O11 0.118298 0.137026 0.739523
O O12 0.731723 0.661508 0.958185
O O13 0.282362 0.656978 0.524574
O O14 0.029692 0.712960 0.503594
O O15 0.000000 0.000000 0.000000
O O16 0.250000 0.000000 0.810187
#
# Coordination Sequence:
#
# PCOD9411082 Si02
#       7
#     8   8   8   8   8   8   8
#     4  11  24  43  67  94 131 171 220 268 332 396
#     4  10  22  34  58  88 131 170 213 259 318 382
#     4  10  21  40  61  87 124 175 212 263 323 382
#     4  10  23  40  62  91 125 173 219 264 319 395
#     4  11  22  38  61  89 126 171 217 261 331 390
#     4  11  21  35  54  92 132 172 212 259 317 403
#     4  11  26  42  67  98 130 169 219 278 330 388
#
# _framework density 23.644662
#
# number of rings (size 3 to 8) (size 9 to 14) (size 15 to 20)
#    0.000    1.429    2.857    3.000   12.000    1.143 
#    0.000    0.000    0.000    4.286    0.000    0.000 
#    0.000    0.000    0.000    0.000    0.000    0.000 
#
# Total GULP energy -312391.242205 kJ/mol
# GULP energy per Si atom -5578.415039 kJ/mol
# Density = 2.359085 g / cm^3
# Si number density = 23.644662 Si / 1000 Ang^3
#
#
#
# Elastic Constant Matrix: (Units=GPa)
#
#
# Indices 1 2 3 4 5 6 
#
# 1 107.3305 -7.5397 29.7829 0.0000 0.0000 0.0000
# 2 -7.5397 35.0397 -21.4899 0.0000 0.0000 0.0000
# 3 29.7829 -21.4899 100.7703 0.0000 0.0000 0.0000
# 4 0.0000 0.0000 0.0000 15.1089 0.0000 0.0000
# 5 0.0000 0.0000 0.0000 0.0000 30.1283 0.0000
# 6 0.0000 0.0000 0.0000 0.0000 0.0000 23.0000
#
#
#
# Elastic Compliance Matrix: (Units=1/GPa)
#
#
# Indices 1 2 3 4 5 6 
#
# 1 0.010154 0.000396 -0.002917 0.000000 0.000000 0.000000
# 2 0.000396 0.032849 0.006888 0.000000 0.000000 0.000000
# 3 -0.002917 0.006888 0.012255 0.000000 0.000000 0.000000
# 4 0.000000 0.000000 0.000000 0.066186 0.000000 0.000000
# 5 0.000000 0.000000 0.000000 0.000000 0.033191 0.000000
# 6 0.000000 0.000000 0.000000 0.000000 0.000000 0.043478
#
#
# Mechanical properties :
#
#
# Convention : Reuss Voigt Hill
#
# Bulk Modulus (GPa) = 15.62673 27.18300 21.40486
# Shear Modulus (GPa) = 23.72944 29.80660 26.76802
#
# Velocity S-wave (km/s) = 3.17138 3.55435 3.36831
# Velocity P-wave (km/s) = 4.47588 5.32597 4.91932
#
# Compressibility (1/GPa) = 0.06399293
#
# Stress axis : x y z
#
# Youngs Moduli (GPa) = 98.48174 30.44250 81.60262
#
# Poissons Ratio (x) = -0.01206 0.23800
# Poissons Ratio (y) = -0.03902 -0.56209
# Poissons Ratio (z) = 0.28723 -0.20969
#
# Static dielectric constant tensor:
#      x y z
#    x 1.938540 0.000000 0.000000 
#    y 0.000000 1.953690 0.000000 
#    z 0.000000 0.000000 1.983650 
# 
# From -- ./inp_files/36044.got.cif
#   From: 2010.05.17/outbox.cif.g08.bks.cpg/sg52_19_cif.got.tgz:36044.got - 2010.06.03 12:15:38.
