data_PCOD9411978
_publ_section_title
;
Structure prediction by ZEFSAII (Michael W. Deem and Ramdas Pophale) SiO2 
 PCOD9411978
Probable space group: P N N A
;
_chemical_formula_sum "Si O2"
_cell_formula_units_Z 48
_cell_length_a 27.355907
_cell_length_b 5.402165
_cell_length_c 14.747348
_cell_angle_alpha 90.000000
_cell_angle_beta 90.000000
_cell_angle_gamma 90.000000
_cell_volume 2179.379654
_symmetry_space_group_name_H-M "P N N A"
_symmetry_group_IT_number 52
_symmetry_cell_setting 'orthorhombic'
loop_
_space_group_symop_operation_xyz
x,y,z
1/2-x,-y,z
x,1/2-y,1/2-z
1/2-x,1/2+y,1/2-z
-x,-y,-z
1/2+x,y,-z
-x,1/2+y,1/2+z
1/2+x,1/2-y,1/2+z
loop_
_atom_site_type_symbol
_atom_site_label
_atom_site_fract_x
_atom_site_fract_y
_atom_site_fract_z
Si Si1 0.119411 0.250000 0.250000
Si Si2 0.866902 0.750000 0.250000
Si Si3 0.103021 0.726757 0.009041
Si Si4 0.658962 0.240444 0.946653
Si Si5 0.720829 0.246225 0.109453
Si Si6 0.460601 0.124322 0.164017
Si Si7 0.553399 0.618429 0.335913
O O1 0.154170 0.277041 0.161753
O O2 0.081931 0.460424 0.287802
O O3 0.828968 0.715741 0.166768
O O4 0.903791 0.543843 0.290017
O O5 0.139769 0.502501 0.016931
O O6 0.065134 0.699256 0.091815
O O7 0.126287 0.000679 0.024272
O O8 0.078528 0.714871 0.911338
O O9 0.708308 0.204109 0.003186
O O10 0.750000 0.500000 0.120189
O O11 0.750000 0.000000 0.141687
O O12 0.485532 0.250000 0.250000
O O13 0.506627 0.000898 0.115269
O O14 0.529619 0.750000 0.250000
#
# Coordination Sequence:
#
# PCOD9411978 Si02
#       7
#     4   4   8   8   8   8   8
#     4  10  22  42  68  99 138 183 222 270 336 412
#     4  12  26  44  66  97 132 187 224 284 344 412
#     4  11  24  42  68  98 142 185 230 274 332 403
#     4  11  23  45  72 101 132 178 224 280 350 412
#     4  12  27  48  71  98 131 170 226 291 354 420
#     4  11  21  41  62 102 139 188 230 276 325 391
#     4  12  25  40  65  98 144 186 237 281 325 403
#
# _framework density 22.024614
#
# number of rings (size 3 to 8) (size 9 to 14) (size 15 to 20)
#    0.000    0.667    5.000    3.000    2.333    0.000 
#    0.000    4.167    0.000    0.000    0.000    0.000 
#    0.000    0.000    0.000    0.000    0.000    0.000 
#
# Total GULP energy -267580.357226 kJ/mol
# GULP energy per Si atom -5574.590776 kJ/mol
# Density = 2.197449 g / cm^3
# Si number density = 22.024614 Si / 1000 Ang^3
#
#
#
# Elastic Constant Matrix: (Units=GPa)
#
#
# Indices 1 2 3 4 5 6 
#
# 1 71.8651 16.1935 20.7638 0.0000 0.0000 0.0000
# 2 16.1935 26.5904 15.6431 0.0000 0.0000 0.0000
# 3 20.7638 15.6431 132.6655 0.0000 0.0000 0.0000
# 4 0.0000 0.0000 0.0000 22.7435 0.0000 0.0000
# 5 0.0000 0.0000 0.0000 0.0000 56.0697 0.0000
# 6 0.0000 0.0000 0.0000 0.0000 0.0000 60.3760
#
#
#
# Elastic Compliance Matrix: (Units=1/GPa)
#
#
# Indices 1 2 3 4 5 6 
#
# 1 0.016399 -0.009109 -0.001493 0.000000 0.000000 0.000000
# 2 -0.009109 0.045470 -0.003936 0.000000 0.000000 0.000000
# 3 -0.001493 -0.003936 0.008235 0.000000 0.000000 0.000000
# 4 0.000000 0.000000 0.000000 0.043969 0.000000 0.000000
# 5 0.000000 0.000000 0.000000 0.000000 0.017835 0.000000
# 6 0.000000 0.000000 0.000000 0.000000 0.000000 0.016563
#
#
# Mechanical properties :
#
#
# Convention : Reuss Voigt Hill
#
# Bulk Modulus (GPa) = 24.37241 37.36909 30.87075
# Shear Modulus (GPa) = 26.14765 39.73924 32.94345
#
# Velocity S-wave (km/s) = 3.44932 4.25233 3.87170
# Velocity P-wave (km/s) = 5.19170 6.41198 5.83383
#
# Compressibility (1/GPa) = 0.04103000
#
# Stress axis : x y z
#
# Youngs Moduli (GPa) = 60.98053 21.99241 121.42612
#
# Poissons Ratio (x) = 0.20032 0.18124
# Poissons Ratio (y) = 0.55545 0.47793
# Poissons Ratio (z) = 0.09102 0.08656
#
# Static dielectric constant tensor:
#      x y z
#    x 1.783080 0.000000 0.000000 
#    y 0.000000 1.733060 0.000000 
#    z 0.000000 0.000000 1.981380 
# 
# From -- ./inp_files/29445.got.cif
#   From: 2010.05.17/outbox.cif.g08.bks.cpg/sg52_15_cif.got.tgz:29445.got - 2010.06.03 12:15:38.
