data_PCOD9411097
_publ_section_title
;
Structure prediction by ZEFSAII (Michael W. Deem and Ramdas Pophale) SiO2 
 PCOD9411097
Probable space group: P N N A
;
_chemical_formula_sum "Si O2"
_cell_formula_units_Z 56
_cell_length_a 13.373733
_cell_length_b 15.504111
_cell_length_c 9.899308
_cell_angle_alpha 90.000000
_cell_angle_beta 90.000000
_cell_angle_gamma 90.000000
_cell_volume 2052.600140
_symmetry_space_group_name_H-M "P N N A"
_symmetry_group_IT_number 52
_symmetry_cell_setting 'orthorhombic'
loop_
_space_group_symop_operation_xyz
x,y,z
1/2-x,-y,z
x,1/2-y,1/2-z
1/2-x,1/2+y,1/2-z
-x,-y,-z
1/2+x,y,-z
-x,1/2+y,1/2+z
1/2+x,1/2-y,1/2+z
loop_
_atom_site_type_symbol
_atom_site_label
_atom_site_fract_x
_atom_site_fract_y
_atom_site_fract_z
Si Si1 0.745915 0.733652 0.950591
Si Si2 0.512653 0.923015 0.106237
Si Si3 0.605086 0.475101 0.172543
Si Si4 0.702489 0.093049 0.897301
Si Si5 0.516906 0.260405 0.907711
Si Si6 0.908223 0.092964 0.569846
Si Si7 0.193747 0.326963 0.687773
O O1 0.728509 0.823899 0.871136
O O2 0.689692 0.649264 0.902599
O O3 0.729822 0.759984 0.110350
O O4 0.865496 0.726803 0.934372
O O5 0.525640 0.830441 0.035050
O O6 0.597025 0.950264 0.213295
O O7 0.403905 0.909488 0.176987
O O8 0.500000 0.000000 0.000000
O O9 0.617422 0.511286 0.022757
O O10 0.687362 0.402753 0.202831
O O11 0.492795 0.432963 0.178073
O O12 0.673624 0.113811 0.054617
O O13 0.750000 0.000000 0.883868
O O14 0.498479 0.250000 0.750000
O O15 0.465090 0.341327 0.971227
O O16 0.123790 0.250000 0.750000
#
# Coordination Sequence:
#
# PCOD9411097 Si02
#       7
#     8   8   8   8   8   8   8
#     4   9  23  44  64 101 134 185 231 289 356 423
#     4  11  21  41  67  97 131 181 226 293 356 401
#     4  11  23  43  68 106 137 189 238 304 353 437
#     4   9  21  39  62  94 132 167 231 286 340 418
#     4  11  22  44  71  93 142 187 232 292 349 438
#     4  11  25  43  71 104 144 188 244 285 377 438
#     4  10  21  40  62  92 138 173 224 292 356 402
#
# _framework density 27.282468999999999
#
# number of rings (size 3 to 8) (size 9 to 14) (size 15 to 20)
#    0.857    0.857    2.857    0.857    2.000    1.714 
#    5.143    5.714    0.000    0.000    0.000    0.000 
#    0.000    0.000    0.000    0.000    0.000    0.000 
#
# Total GULP energy -312453.051642 kJ/mol
# GULP energy per Si atom -5579.518779 kJ/mol
# Density = 2.722037 g / cm^3
# Si number density = 27.282469 Si / 1000 Ang^3
#
#
#
# Elastic Constant Matrix: (Units=GPa)
#
#
# Indices 1 2 3 4 5 6 
#
# 1 105.7078 36.8618 10.5788 0.0000 0.0000 0.0000
# 2 36.8618 156.3544 9.0671 0.0000 0.0000 0.0000
# 3 10.5788 9.0671 80.0329 0.0000 0.0000 0.0000
# 4 0.0000 0.0000 0.0000 35.5283 0.0000 0.0000
# 5 0.0000 0.0000 0.0000 0.0000 17.9847 0.0000
# 6 0.0000 0.0000 0.0000 0.0000 0.0000 47.7263
#
#
#
# Elastic Compliance Matrix: (Units=1/GPa)
#
#
# Indices 1 2 3 4 5 6 
#
# 1 0.010404 -0.002389 -0.001105 0.000000 0.000000 0.000000
# 2 -0.002389 0.006986 -0.000476 0.000000 0.000000 0.000000
# 3 -0.001105 -0.000476 0.012695 0.000000 0.000000 0.000000
# 4 0.000000 0.000000 0.000000 0.028147 0.000000 0.000000
# 5 0.000000 0.000000 0.000000 0.000000 0.055603 0.000000
# 6 0.000000 0.000000 0.000000 0.000000 0.000000 0.020953
#
#
# Mechanical properties :
#
#
# Convention : Reuss Voigt Hill
#
# Bulk Modulus (GPa) = 45.15319 50.56783 47.86051
# Shear Modulus (GPa) = 33.30956 39.28703 36.29829
#
# Velocity S-wave (km/s) = 3.49795 3.79886 3.65151
# Velocity P-wave (km/s) = 5.73589 6.14955 5.94632
#
# Compressibility (1/GPa) = 0.02214683
#
# Stress axis : x y z
#
# Youngs Moduli (GPa) = 96.12116 143.13389 78.77263
#
# Poissons Ratio (x) = 0.34190 0.08701
# Poissons Ratio (y) = 0.22960 0.03748
# Poissons Ratio (z) = 0.10617 0.06810
#
# Static dielectric constant tensor:
#      x y z
#    x 2.266710 0.000000 0.000000 
#    y 0.000000 2.197020 0.000000 
#    z 0.000000 0.000000 2.284950 
# 
# From -- ./inp_files/19604.got.cif
#   From: 2010.05.17/outbox.cif.g08.bks.cpg/sg52_10_cif.got.tgz:19604.got - 2010.06.03 12:15:38.
