data_PCOD9411257
_publ_section_title
;
Structure prediction by ZEFSAII (Michael W. Deem and Ramdas Pophale) SiO2 
 PCOD9411257
Probable space group: P N N A
;
_chemical_formula_sum "Si O2"
_cell_formula_units_Z 40
_cell_length_a 13.735273
_cell_length_b 14.194589
_cell_length_c 9.806476
_cell_angle_alpha 90.000000
_cell_angle_beta 90.000000
_cell_angle_gamma 90.000000
_cell_volume 1911.934843
_symmetry_space_group_name_H-M "P N N A"
_symmetry_group_IT_number 52
_symmetry_cell_setting 'orthorhombic'
loop_
_space_group_symop_operation_xyz
x,y,z
1/2-x,-y,z
x,1/2-y,1/2-z
1/2-x,1/2+y,1/2-z
-x,-y,-z
1/2+x,y,-z
-x,1/2+y,1/2+z
1/2+x,1/2-y,1/2+z
loop_
_atom_site_type_symbol
_atom_site_label
_atom_site_fract_x
_atom_site_fract_y
_atom_site_fract_z
Si Si1 0.318859 0.665599 0.361234
Si Si2 0.953002 0.507832 0.774196
Si Si3 0.924773 0.771216 0.411339
Si Si4 0.399076 0.173496 0.131917
Si Si5 0.864894 0.989181 0.437506
O O1 0.321788 0.750000 0.250000
O O2 0.391036 0.586446 0.303377
O O3 0.352535 0.708010 0.503479
O O4 0.208314 0.633854 0.390776
O O5 0.961353 0.416028 0.680038
O O6 0.059607 0.536265 0.830905
O O7 0.891187 0.477805 0.909211
O O8 0.918643 0.750000 0.250000
O O9 0.897425 0.879383 0.435868
O O10 0.031625 0.736439 0.464179
O O11 0.382110 0.250000 0.250000
O O12 0.750000 0.000000 0.410628
#
# Coordination Sequence:
#
# PCOD9411257 Si02
#       5
#     8   8   8   8   8
#     4  11  23  40  68 100 128 175 236 268 327 408
#     4  11  22  42  68  99 133 177 239 278 326 415
#     4  11  23  46  62  96 141 176 214 281 348 392
#     4  10  21  41  67  92 134 180 215 275 337 401
#     4  11  23  40  69  99 136 181 232 282 342 396
#
# _framework density 20.921213999999999
#
# number of rings (size 3 to 8) (size 9 to 14) (size 15 to 20)
#    0.000    1.200    6.000    1.800    2.800    0.800 
#    3.600    0.000    0.000    0.000    0.000    0.000 
#    0.000    0.000    0.000    0.000    0.000    0.000 
#
# Total GULP energy -222924.713038 kJ/mol
# GULP energy per Si atom -5573.117826 kJ/mol
# Density = 2.087360 g / cm^3
# Si number density = 20.921214 Si / 1000 Ang^3
#
#
#
# Elastic Constant Matrix: (Units=GPa)
#
#
# Indices 1 2 3 4 5 6 
#
# 1 150.7761 25.0027 28.5922 0.0000 0.0000 0.0000
# 2 25.0027 90.3816 10.3571 0.0000 0.0000 0.0000
# 3 28.5922 10.3571 49.9905 0.0000 0.0000 0.0000
# 4 0.0000 0.0000 0.0000 18.1641 0.0000 0.0000
# 5 0.0000 0.0000 0.0000 0.0000 -4.0863 0.0000
# 6 0.0000 0.0000 0.0000 0.0000 0.0000 32.7348
#
#
#
# Elastic Compliance Matrix: (Units=1/GPa)
#
#
# Indices 1 2 3 4 5 6 
#
# 1 0.007675 -0.001659 -0.004046 0.000000 0.000000 0.000000
# 2 -0.001659 0.011692 -0.001473 0.000000 0.000000 0.000000
# 3 -0.004046 -0.001473 0.022623 0.000000 0.000000 0.000000
# 4 0.000000 0.000000 0.000000 0.055054 0.000000 0.000000
# 5 0.000000 0.000000 0.000000 0.000000 -0.244722 0.000000
# 6 0.000000 0.000000 0.000000 0.000000 0.000000 0.030549
#
#
# Mechanical properties :
#
#
# Convention : Reuss Voigt Hill
#
# Bulk Modulus (GPa) = 36.18879 46.56137 41.37508
# Shear Modulus (GPa) = -53.44032 24.50893 -14.46570
#
# Velocity S-wave (km/s) = -5.05955 3.42641 -2.63237
# Velocity P-wave (km/s) = 4.09840 6.16098 3.25275
#
# Compressibility (1/GPa) = 0.02763287
#
# Stress axis : x y z
#
# Youngs Moduli (GPa) = 130.29738 85.52787 44.20273
#
# Poissons Ratio (x) = 0.14193 0.17883
# Poissons Ratio (y) = 0.21623 0.06512
# Poissons Ratio (z) = 0.52715 0.12600
#
# Static dielectric constant tensor:
#      x y z
#    x 1.857110 0.000000 0.000000 
#    y 0.000000 1.763000 0.000000 
#    z 0.000000 0.000000 1.758710 
# 
# From -- ./inp_files/17986.got.cif
#   From: 2010.05.17/outbox.cif.g08.bks.cpg/sg52_9_cif.got.tgz:17986.got - 2010.06.03 12:15:38.
