data_PCOD9411046
_publ_section_title
;
Structure prediction by ZEFSAII (Michael W. Deem and Ramdas Pophale) SiO2 
 PCOD9411046
Probable space group: P N N A
;
_chemical_formula_sum "Si O2"
_cell_formula_units_Z 36
_cell_length_a 15.302865
_cell_length_b 11.961365
_cell_length_c 9.090955
_cell_angle_alpha 90.000000
_cell_angle_beta 90.000000
_cell_angle_gamma 90.000000
_cell_volume 1664.037074
_symmetry_space_group_name_H-M "P N N A"
_symmetry_group_IT_number 52
_symmetry_cell_setting 'orthorhombic'
loop_
_space_group_symop_operation_xyz
x,y,z
1/2-x,-y,z
x,1/2-y,1/2-z
1/2-x,1/2+y,1/2-z
-x,-y,-z
1/2+x,y,-z
-x,1/2+y,1/2+z
1/2+x,1/2-y,1/2+z
loop_
_atom_site_type_symbol
_atom_site_label
_atom_site_fract_x
_atom_site_fract_y
_atom_site_fract_z
Si Si1 0.858604 0.111199 0.872472
Si Si2 0.019114 0.837874 0.863946
Si Si3 0.999023 0.446542 0.838276
Si Si4 0.872042 0.750000 0.250000
Si Si5 0.826566 0.645442 0.543794
O O1 0.764389 0.168023 0.875434
O O2 0.904163 0.097871 0.714501
O O3 0.842763 0.987211 0.939780
O O4 0.928819 0.163358 0.984022
O O5 0.057484 0.750000 0.750000
O O6 0.917979 0.806902 0.895514
O O7 0.021005 0.957956 0.783199
O O8 0.067239 0.346329 0.820394
O O9 0.000000 0.500000 0.000000
O O10 0.818121 0.689811 0.378224
#
# Coordination Sequence:
#
# PCOD9411046 Si02
#       5
#     8   8   8   4   8
#     4  10  21  43  67  90 128 183 226 276 344 410
#     4  11  21  42  64  94 130 183 225 277 342 410
#     4  11  23  40  69  98 133 176 225 281 348 409
#     4  12  20  40  66 104 138 174 222 302 332 416
#     4  10  21  39  67  90 130 177 226 279 346 397
#
# _framework density 21.634132999999999
#
# number of rings (size 3 to 8) (size 9 to 14) (size 15 to 20)
#    0.000    1.333    4.444    2.667    1.556    0.000 
#    2.000    0.000   24.444    0.000    0.000    0.000 
#    0.000    0.000    0.000    0.000    0.000    0.000 
#
# Total GULP energy -201170.294815 kJ/mol
# GULP energy per Si atom -5588.063745 kJ/mol
# Density = 2.158489 g / cm^3
# Si number density = 21.634133 Si / 1000 Ang^3
#
#
#
# Elastic Constant Matrix: (Units=GPa)
#
#
# Indices 1 2 3 4 5 6 
#
# 1 139.3048 23.3595 66.4560 0.0000 0.0000 0.0000
# 2 23.3595 64.2486 41.7441 0.0000 0.0000 0.0000
# 3 66.4560 41.7441 147.0869 0.0000 0.0000 0.0000
# 4 0.0000 0.0000 0.0000 50.0899 0.0000 0.0000
# 5 0.0000 0.0000 0.0000 0.0000 21.4547 0.0000
# 6 0.0000 0.0000 0.0000 0.0000 0.0000 -6.7754
#
#
#
# Elastic Compliance Matrix: (Units=1/GPa)
#
#
# Indices 1 2 3 4 5 6 
#
# 1 0.009183 -0.000788 -0.003925 0.000000 0.000000 0.000000
# 2 -0.000788 0.019151 -0.005079 0.000000 0.000000 0.000000
# 3 -0.003925 -0.005079 0.010014 0.000000 0.000000 0.000000
# 4 0.000000 0.000000 0.000000 0.019964 0.000000 0.000000
# 5 0.000000 0.000000 0.000000 0.000000 0.046610 0.000000
# 6 0.000000 0.000000 0.000000 0.000000 0.000000 -0.147594
#
#
# Mechanical properties :
#
#
# Convention : Reuss Voigt Hill
#
# Bulk Modulus (GPa) = 53.29764 68.19549 60.74657
# Shear Modulus (GPa) = -297.05607 27.55923 -134.74842
#
# Velocity S-wave (km/s) = -11.73060 3.57301 -7.90065
# Velocity P-wave (km/s) = 12.60106 6.97227 7.42207
#
# Compressibility (1/GPa) = 0.01876256
#
# Stress axis : x y z
#
# Youngs Moduli (GPa) = 108.89276 52.21621 99.86318
#
# Poissons Ratio (x) = 0.04117 0.39200
# Poissons Ratio (y) = 0.08586 0.50720
# Poissons Ratio (z) = 0.42745 0.26520
#
# Static dielectric constant tensor:
#      x y z
#    x 1.802510 0.000000 0.000000 
#    y 0.000000 1.815260 0.000000 
#    z 0.000000 0.000000 1.786860 
# 
# From -- ./inp_files/9932.got.cif
#   From: 2010.05.17/outbox.cif.g08.bks.cpg/sg52_5_cif.got.tgz:9932.got - 2010.06.03 12:15:38.
