data_PCOD9411573
_publ_section_title
;
Structure prediction by ZEFSAII (Michael W. Deem and Ramdas Pophale) SiO2 
 PCOD9411573
Probable space group: P N N A
;
_chemical_formula_sum "Si O2"
_cell_formula_units_Z 40
_cell_length_a 7.132081
_cell_length_b 20.812298
_cell_length_c 11.067198
_cell_angle_alpha 90.000000
_cell_angle_beta 90.000000
_cell_angle_gamma 90.000000
_cell_volume 1642.759481
_symmetry_space_group_name_H-M "P N N A"
_symmetry_group_IT_number 52
_symmetry_cell_setting 'orthorhombic'
loop_
_space_group_symop_operation_xyz
x,y,z
1/2-x,-y,z
x,1/2-y,1/2-z
1/2-x,1/2+y,1/2-z
-x,-y,-z
1/2+x,y,-z
-x,1/2+y,1/2+z
1/2+x,1/2-y,1/2+z
loop_
_atom_site_type_symbol
_atom_site_label
_atom_site_fract_x
_atom_site_fract_y
_atom_site_fract_z
Si Si1 0.266209 0.749695 0.625140
Si Si2 0.257358 0.107094 0.656141
Si Si3 0.025881 0.404880 0.368130
Si Si4 0.893513 0.164399 0.910328
Si Si5 0.960076 0.998361 0.670313
O O1 0.149308 0.750000 0.750000
O O2 0.283905 0.825245 0.594561
O O3 0.450660 0.706728 0.655504
O O4 0.179072 0.714514 0.511200
O O5 0.346970 0.118041 0.789845
O O6 0.420307 0.058932 0.606715
O O7 0.073373 0.063840 0.665131
O O8 0.215631 0.364601 0.340886
O O9 0.048243 0.475088 0.311013
O O10 0.984578 0.392546 0.508306
O O11 0.750000 0.000000 0.625134
#
# Coordination Sequence:
#
# PCOD9411573 Si02
#       5
#     8   8   8   8   8
#     4  11  21  41  64  89 136 169 213 277 327 387
#     4   9  20  39  61  87 124 177 207 268 321 378
#     4   9  19  38  58  89 134 157 220 268 320 405
#     4  10  22  38  61 102 124 172 220 262 341 408
#     4   9  19  37  61  94 119 173 225 251 328 399
#
# _framework density 24.349276
#
# number of rings (size 3 to 8) (size 9 to 14) (size 15 to 20)
#    1.200    1.200    2.000    0.000    2.800    0.000 
#   14.400    7.000    0.000    4.800    0.000    0.000 
#    0.000    0.000    0.000    0.000    0.000    0.000 
#
# Total GULP energy -223003.584223 kJ/mol
# GULP energy per Si atom -5575.089606 kJ/mol
# Density = 2.429386 g / cm^3
# Si number density = 24.349276 Si / 1000 Ang^3
#
#
#
# Elastic Constant Matrix: (Units=GPa)
#
#
# Indices 1 2 3 4 5 6 
#
# 1 143.4638 38.4589 10.9100 0.0000 0.0000 0.0000
# 2 38.4589 122.3562 17.5757 0.0000 0.0000 0.0000
# 3 10.9100 17.5757 56.7128 0.0000 0.0000 0.0000
# 4 0.0000 0.0000 0.0000 32.2856 0.0000 0.0000
# 5 0.0000 0.0000 0.0000 0.0000 5.3321 0.0000
# 6 0.0000 0.0000 0.0000 0.0000 0.0000 29.9246
#
#
#
# Elastic Compliance Matrix: (Units=1/GPa)
#
#
# Indices 1 2 3 4 5 6 
#
# 1 0.007643 -0.002293 -0.000760 0.000000 0.000000 0.000000
# 2 -0.002293 0.009242 -0.002423 0.000000 0.000000 0.000000
# 3 -0.000760 -0.002423 0.018530 0.000000 0.000000 0.000000
# 4 0.000000 0.000000 0.000000 0.030974 0.000000 0.000000
# 5 0.000000 0.000000 0.000000 0.000000 0.187543 0.000000
# 6 0.000000 0.000000 0.000000 0.000000 0.000000 0.033417
#
#
# Mechanical properties :
#
#
# Convention : Reuss Voigt Hill
#
# Bulk Modulus (GPa) = 40.87831 50.71357 45.79594
# Shear Modulus (GPa) = 16.31565 30.54768 23.43167
#
# Velocity S-wave (km/s) = 2.59137 3.54582 3.10549
# Velocity P-wave (km/s) = 5.07724 6.13487 5.63094
#
# Compressibility (1/GPa) = 0.02446285
#
# Stress axis : x y z
#
# Youngs Moduli (GPa) = 130.84020 108.20526 53.96742
#
# Poissons Ratio (x) = 0.24814 0.04099
# Poissons Ratio (y) = 0.30004 0.13076
# Poissons Ratio (z) = 0.09939 0.26217
#
# Static dielectric constant tensor:
#      x y z
#    x 1.973680 0.000000 0.000000 
#    y 0.000000 2.007830 0.000000 
#    z 0.000000 0.000000 2.010720 
# 
# From -- ./inp_files/16822.got.cif
#   From: 2010.05.17/outbox.cif.g08.bks.cpg/sg52_9_cif.got.tgz:16822.got - 2010.06.03 12:15:38.
