data_PCOD9411553
_publ_section_title
;
Structure prediction by ZEFSAII (Michael W. Deem and Ramdas Pophale) SiO2 
 PCOD9411553
Probable space group: P N N A
;
_chemical_formula_sum "Si O2"
_cell_formula_units_Z 52
_cell_length_a 19.559435
_cell_length_b 5.311712
_cell_length_c 19.086683
_cell_angle_alpha 90.000000
_cell_angle_beta 90.000000
_cell_angle_gamma 90.000000
_cell_volume 1982.993477
_symmetry_space_group_name_H-M "P N N A"
_symmetry_group_IT_number 52
_symmetry_cell_setting 'orthorhombic'
loop_
_space_group_symop_operation_xyz
x,y,z
1/2-x,-y,z
x,1/2-y,1/2-z
1/2-x,1/2+y,1/2-z
-x,-y,-z
1/2+x,y,-z
-x,1/2+y,1/2+z
1/2+x,1/2-y,1/2+z
loop_
_atom_site_type_symbol
_atom_site_label
_atom_site_fract_x
_atom_site_fract_y
_atom_site_fract_z
Si Si1 0.335597 0.391100 0.317678
Si Si2 0.357304 0.877574 0.393921
Si Si3 0.000652 0.052050 0.581559
Si Si4 0.682921 0.370809 0.464382
Si Si5 0.883309 0.257980 0.140965
Si Si6 0.992555 0.056385 0.810742
Si Si7 0.750000 0.000000 0.353335
O O1 0.304531 0.250000 0.250000
O O2 0.316391 0.662278 0.350543
O O3 0.412501 0.475827 0.292179
O O4 0.336988 0.163559 0.374514
O O5 0.440064 0.885943 0.383207
O O6 0.348792 0.797546 0.474529
O O7 0.075252 0.991152 0.609556
O O8 0.986379 0.328565 0.610497
O O9 0.000000 0.000000 0.500000
O O10 0.750000 0.500000 0.497174
O O11 0.637331 0.580120 0.425224
O O12 0.713619 0.202456 0.402694
O O13 0.814484 0.352780 0.178772
O O14 0.942788 0.124677 0.184470
O O15 0.014405 0.250000 0.750000
#
# Coordination Sequence:
#
# PCOD9411553 Si02
#       7
#     8   8   8   8   8   8   4
#     4  10  22  39  61  94 137 174 217 263 334 407
#     4  11  22  38  64  96 133 175 211 275 335 406
#     4  11  23  36  61  98 137 167 213 274 343 407
#     4  10  24  39  63  93 125 169 219 273 332 394
#     4  11  21  39  61  93 128 166 220 266 338 394
#     4  10  22  38  58  94 134 177 211 266 337 416
#     4  10  22  40  60  92 122 164 218 282 330 390
#
# _framework density 26.22298
#
# number of rings (size 3 to 8) (size 9 to 14) (size 15 to 20)
#    0.000    1.538    1.538    3.231    8.615    1.846 
#    0.000    0.000    0.000    1.846   90.000    0.000 
#    0.000    0.000    0.000    0.000    0.000    0.000 
#
# Total GULP energy -290377.851219 kJ/mol
# GULP energy per Si atom -5584.189447 kJ/mol
# Density = 2.616329 g / cm^3
# Si number density = 26.222980 Si / 1000 Ang^3
#
#
#
# Elastic Constant Matrix: (Units=GPa)
#
#
# Indices 1 2 3 4 5 6 
#
# 1 124.0782 40.2444 23.5981 0.0000 0.0000 0.0000
# 2 40.2444 116.2983 22.7393 0.0000 0.0000 0.0000
# 3 23.5981 22.7393 95.9543 0.0000 0.0000 0.0000
# 4 0.0000 0.0000 0.0000 -102.5222 0.0000 0.0000
# 5 0.0000 0.0000 0.0000 0.0000 19.2175 0.0000
# 6 0.0000 0.0000 0.0000 0.0000 0.0000 49.2990
#
#
#
# Elastic Compliance Matrix: (Units=1/GPa)
#
#
# Indices 1 2 3 4 5 6 
#
# 1 0.009307 -0.002908 -0.001600 0.000000 0.000000 0.000000
# 2 -0.002908 0.009925 -0.001637 0.000000 0.000000 0.000000
# 3 -0.001600 -0.001637 0.011203 0.000000 0.000000 0.000000
# 4 0.000000 0.000000 0.000000 -0.009754 0.000000 0.000000
# 5 0.000000 0.000000 0.000000 0.000000 0.052036 0.000000
# 6 0.000000 0.000000 0.000000 0.000000 0.000000 0.020284
#
#
# Mechanical properties :
#
#
# Convention : Reuss Voigt Hill
#
# Bulk Modulus (GPa) = 55.10911 56.61047 55.85979
# Shear Modulus (GPa) = 44.90816 9.84880 27.37848
#
# Velocity S-wave (km/s) = 4.14279 1.94009 3.23470
# Velocity P-wave (km/s) = 6.62909 5.16271 5.94131
#
# Compressibility (1/GPa) = 0.01814582
#
# Stress axis : x y z
#
# Youngs Moduli (GPa) = 107.44816 100.75719 89.26209
#
# Poissons Ratio (x) = 0.29298 0.14280
# Poissons Ratio (y) = 0.31244 0.14611
# Poissons Ratio (z) = 0.17189 0.16493
#
# Static dielectric constant tensor:
#      x y z
#    x 2.313800 0.000000 0.000000 
#    y 0.000000 2.246510 0.000000 
#    z 0.000000 0.000000 2.013010 
# 
# From -- ./inp_files/37880.got.cif
#   From: 2010.05.17/outbox.cif.g08.bks.cpg/sg52_19_cif.got.tgz:37880.got - 2010.06.03 12:15:38.
