data_PCOD9411753
_publ_section_title
;
Structure prediction by ZEFSAII (Michael W. Deem and Ramdas Pophale) SiO2 
 PCOD9411753
Probable space group: P N N A
;
_chemical_formula_sum "Si O2"
_cell_formula_units_Z 44
_cell_length_a 20.396731
_cell_length_b 9.023583
_cell_length_c 12.022254
_cell_angle_alpha 90.000000
_cell_angle_beta 90.000000
_cell_angle_gamma 90.000000
_cell_volume 2212.715025
_symmetry_space_group_name_H-M "P N N A"
_symmetry_group_IT_number 52
_symmetry_cell_setting 'orthorhombic'
loop_
_space_group_symop_operation_xyz
x,y,z
1/2-x,-y,z
x,1/2-y,1/2-z
1/2-x,1/2+y,1/2-z
-x,-y,-z
1/2+x,y,-z
-x,1/2+y,1/2+z
1/2+x,1/2-y,1/2+z
loop_
_atom_site_type_symbol
_atom_site_label
_atom_site_fract_x
_atom_site_fract_y
_atom_site_fract_z
Si Si1 0.764191 0.326852 0.867313
Si Si2 0.498777 0.250000 0.250000
Si Si3 0.845516 0.389062 0.355553
Si Si4 0.702540 0.213914 0.081869
Si Si5 0.909670 0.203738 0.534575
Si Si6 0.101390 0.029569 0.648702
O O1 0.750000 0.500000 0.861443
O O2 0.758392 0.250000 0.750000
O O3 0.837767 0.311389 0.912265
O O4 0.715312 0.248214 0.953115
O O5 0.456113 0.254556 0.363963
O O6 0.545396 0.110829 0.279490
O O7 0.775862 0.305192 0.369293
O O8 0.831680 0.557999 0.395567
O O9 0.900472 0.324674 0.437686
O O10 0.867987 0.405892 0.228852
O O11 0.658353 0.348861 0.126456
O O12 0.922351 0.050497 0.465204
#
# Coordination Sequence:
#
# PCOD9411753 Si02
#       6
#     8   4   8   8   8   8
#     4  11  23  39  66  97 135 172 217 275 345 405
#     4  12  26  46  68  88 142 184 234 266 324 414
#     4  10  23  40  68 101 133 163 222 282 346 399
#     4  10  22  40  66 102 134 166 216 282 351 402
#     4  11  25  43  69  96 130 181 225 279 328 405
#     4  12  23  46  66  98 133 182 221 279 339 406
#
# _framework density 19.885071
#
# number of rings (size 3 to 8) (size 9 to 14) (size 15 to 20)
#    0.000    1.091    4.545    1.091    5.091   10.909 
#    0.000    0.000    0.000    0.000    0.000    0.000 
#    0.000    0.000    0.000    0.000    0.000    0.000 
#
# Total GULP energy -245659.587731 kJ/mol
# GULP energy per Si atom -5583.172448 kJ/mol
# Density = 1.983981 g / cm^3
# Si number density = 19.885071 Si / 1000 Ang^3
#
#
#
# Elastic Constant Matrix: (Units=GPa)
#
#
# Indices 1 2 3 4 5 6 
#
# 1 82.6563 38.2200 53.2628 0.0000 0.0000 0.0000
# 2 38.2200 64.6530 64.7635 0.0000 0.0000 0.0000
# 3 53.2628 64.7635 165.5639 0.0000 0.0000 0.0000
# 4 0.0000 0.0000 0.0000 40.6820 0.0000 0.0000
# 5 0.0000 0.0000 0.0000 0.0000 9.3602 0.0000
# 6 0.0000 0.0000 0.0000 0.0000 0.0000 17.8702
#
#
#
# Elastic Compliance Matrix: (Units=1/GPa)
#
#
# Indices 1 2 3 4 5 6 
#
# 1 0.017291 -0.007645 -0.002572 0.000000 0.000000 0.000000
# 2 -0.007645 0.028813 -0.008811 0.000000 0.000000 0.000000
# 3 -0.002572 -0.008811 0.010314 0.000000 0.000000 0.000000
# 4 0.000000 0.000000 0.000000 0.024581 0.000000 0.000000
# 5 0.000000 0.000000 0.000000 0.000000 0.106835 0.000000
# 6 0.000000 0.000000 0.000000 0.000000 0.000000 0.055959
#
#
# Mechanical properties :
#
#
# Convention : Reuss Voigt Hill
#
# Bulk Modulus (GPa) = 54.46322 69.48509 61.97415
# Shear Modulus (GPa) = 17.36293 24.02428 20.69361
#
# Velocity S-wave (km/s) = 2.95814 3.47963 3.22943
# Velocity P-wave (km/s) = 6.25427 7.15283 6.71859
#
# Compressibility (1/GPa) = 0.01836102
#
# Stress axis : x y z
#
# Youngs Moduli (GPa) = 57.83441 34.70653 96.95493
#
# Poissons Ratio (x) = 0.26534 0.24936
# Poissons Ratio (y) = 0.44215 0.85430
# Poissons Ratio (z) = 0.14875 0.30581
#
# Static dielectric constant tensor:
#      x y z
#    x 1.694210 0.000000 0.000000 
#    y 0.000000 1.731450 0.000000 
#    z 0.000000 0.000000 1.710760 
# 
# From -- ./inp_files/22226.got.cif
#   From: 2010.05.17/outbox.cif.g08.bks.cpg/sg52_12_cif.got.tgz:22226.got - 2010.06.03 12:15:38.
