data_PCOD9411012
_publ_section_title
;
Structure prediction by ZEFSAII (Michael W. Deem and Ramdas Pophale) SiO2 
 PCOD9411012
Probable space group: P N N A
;
_chemical_formula_sum "Si O2"
_cell_formula_units_Z 36
_cell_length_a 12.794730
_cell_length_b 13.223564
_cell_length_c 11.051218
_cell_angle_alpha 90.000000
_cell_angle_beta 90.000000
_cell_angle_gamma 90.000000
_cell_volume 1869.776914
_symmetry_space_group_name_H-M "P N N A"
_symmetry_group_IT_number 52
_symmetry_cell_setting 'orthorhombic'
loop_
_space_group_symop_operation_xyz
x,y,z
1/2-x,-y,z
x,1/2-y,1/2-z
1/2-x,1/2+y,1/2-z
-x,-y,-z
1/2+x,y,-z
-x,1/2+y,1/2+z
1/2+x,1/2-y,1/2+z
loop_
_atom_site_type_symbol
_atom_site_label
_atom_site_fract_x
_atom_site_fract_y
_atom_site_fract_z
Si Si1 0.750000 0.500000 0.540478
Si Si2 0.885840 0.363820 0.714533
Si Si3 0.384156 0.466100 0.025946
Si Si4 0.369872 0.633511 0.640319
Si Si5 0.724277 0.352446 0.097947
O O1 0.807313 0.415395 0.620673
O O2 0.662176 0.450425 0.455341
O O3 0.855918 0.250000 0.750000
O O4 0.879846 0.427591 0.837769
O O5 0.006108 0.360441 0.665851
O O6 0.500000 0.500000 0.000000
O O7 0.324076 0.570921 0.999526
O O8 0.344748 0.377038 0.933875
O O9 0.311908 0.613212 0.768507
O O10 0.321054 0.739759 0.592488
#
# Coordination Sequence:
#
# PCOD9411012 Si02
#       5
#     4   8   8   8   8
#     4  12  26  38  66  94 126 168 222 264 322 392
#     4  12  24  44  63  93 131 170 209 275 332 381
#     4  11  20  37  66  93 122 164 220 262 321 387
#     4  11  22  43  64  92 134 172 213 264 330 393
#     4  10  21  39  65  92 125 170 212 265 321 389
#
# _framework density 19.253634000000002
#
# number of rings (size 3 to 8) (size 9 to 14) (size 15 to 20)
#    0.000    0.889    4.444    4.667    0.000    0.000 
#    0.000    0.000    0.000    0.000    0.000    0.000 
#    0.000    0.000    0.000    0.000    0.000    0.000 
#
# Total GULP energy -200804.599946 kJ/mol
# GULP energy per Si atom -5577.905554 kJ/mol
# Density = 1.920981 g / cm^3
# Si number density = 19.253634 Si / 1000 Ang^3
#
#
#
# Elastic Constant Matrix: (Units=GPa)
#
#
# Indices 1 2 3 4 5 6 
#
# 1 95.3528 39.8107 31.9586 0.0000 0.0000 0.0000
# 2 39.8107 122.5958 59.1027 0.0000 0.0000 0.0000
# 3 31.9586 59.1027 97.9426 0.0000 0.0000 0.0000
# 4 0.0000 0.0000 0.0000 39.0206 0.0000 0.0000
# 5 0.0000 0.0000 0.0000 0.0000 -31.1041 0.0000
# 6 0.0000 0.0000 0.0000 0.0000 0.0000 36.2547
#
#
#
# Elastic Compliance Matrix: (Units=1/GPa)
#
#
# Indices 1 2 3 4 5 6 
#
# 1 0.012488 -0.002949 -0.002295 0.000000 0.000000 0.000000
# 2 -0.002949 0.012200 -0.006400 0.000000 0.000000 0.000000
# 3 -0.002295 -0.006400 0.014821 0.000000 0.000000 0.000000
# 4 0.000000 0.000000 0.000000 0.025627 0.000000 0.000000
# 5 0.000000 0.000000 0.000000 0.000000 -0.032150 0.000000
# 6 0.000000 0.000000 0.000000 0.000000 0.000000 0.027583
#
#
# Mechanical properties :
#
#
# Convention : Reuss Voigt Hill
#
# Bulk Modulus (GPa) = 61.64874 64.18170 62.91522
# Shear Modulus (GPa) = 56.01456 21.16887 38.59172
#
# Velocity S-wave (km/s) = 5.39964 3.31943 4.48189
# Velocity P-wave (km/s) = 8.42399 6.93532 7.71564
#
# Compressibility (1/GPa) = 0.01622093
#
# Stress axis : x y z
#
# Youngs Moduli (GPa) = 80.07840 81.96989 67.47231
#
# Poissons Ratio (x) = 0.24169 0.15488
# Poissons Ratio (y) = 0.23611 0.43180
# Poissons Ratio (z) = 0.18382 0.52458
#
# Static dielectric constant tensor:
#      x y z
#    x 7.266970 0.000000 0.000000 
#    y 0.000000 1.690740 0.000000 
#    z 0.000000 0.000000 1.677630 
# 
# From -- ./inp_files/19177.got.cif
#   From: 2010.05.17/outbox.cif.g08.bks.cpg/sg52_10_cif.got.tgz:19177.got - 2010.06.03 12:15:38.
