data_PCOD9411037
_publ_section_title
;
Structure prediction by ZEFSAII (Michael W. Deem and Ramdas Pophale) SiO2 
 PCOD9411037
Probable space group: P N N A
;
_chemical_formula_sum "Si O2"
_cell_formula_units_Z 60
_cell_length_a 15.985227
_cell_length_b 6.815450
_cell_length_c 27.314943
_cell_angle_alpha 90.000000
_cell_angle_beta 90.000000
_cell_angle_gamma 90.000000
_cell_volume 2975.867857
_symmetry_space_group_name_H-M "P N N A"
_symmetry_group_IT_number 52
_symmetry_cell_setting 'orthorhombic'
loop_
_space_group_symop_operation_xyz
x,y,z
1/2-x,-y,z
x,1/2-y,1/2-z
1/2-x,1/2+y,1/2-z
-x,-y,-z
1/2+x,y,-z
-x,1/2+y,1/2+z
1/2+x,1/2-y,1/2+z
loop_
_atom_site_type_symbol
_atom_site_label
_atom_site_fract_x
_atom_site_fract_y
_atom_site_fract_z
Si Si1 0.321736 0.334441 0.605197
Si Si2 0.440507 0.268358 0.690168
Si Si3 0.452312 0.377486 0.295343
Si Si4 0.109224 0.483619 0.037900
Si Si5 0.096548 0.006259 0.348862
Si Si6 0.957334 0.181488 0.025469
Si Si7 0.750000 0.000000 0.465352
Si Si8 0.196532 0.334996 0.297351
O O1 0.250000 0.500000 0.610095
O O2 0.356560 0.259712 0.657665
O O3 0.403492 0.388517 0.572135
O O4 0.285616 0.161392 0.571497
O O5 0.433117 0.250000 0.750000
O O6 0.476495 0.488194 0.681528
O O7 0.508448 0.114520 0.667086
O O8 0.484343 0.250000 0.250000
O O9 0.384507 0.541535 0.279239
O O10 0.410496 0.214843 0.329495
O O11 0.122691 0.504211 0.094979
O O12 0.028468 0.342149 0.037479
O O13 0.095876 0.698413 0.014505
O O14 0.181629 0.404421 0.002092
O O15 0.165442 0.149503 0.326195
O O16 0.000000 0.000000 0.000000
O O17 0.250000 0.500000 0.324257
O O18 0.243672 0.250000 0.250000
#
# Coordination Sequence:
#
# PCOD9411037 Si02
#       8
#     8   8   8   8   8   8   4   8
#     4  11  24  44  67  95 130 170 214 271 338 390
#     4  11  23  42  65  97 131 166 223 277 322 404
#     4  11  20  38  61  88 125 172 215 271 329 384
#     4  10  22  39  64  93 129 169 214 265 330 389
#     4  11  22  39  63  94 128 167 218 273 324 396
#     4  10  21  39  66  96 122 165 218 265 318 395
#     4  10  24  46  62  94 136 170 214 274 328 396
#     4  11  23  36  55  86 126 169 220 262 320 391
#
# _framework density 20.162185000000001
#
# number of rings (size 3 to 8) (size 9 to 14) (size 15 to 20)
#    0.000    1.333    4.000    2.000    1.867    2.133 
#    1.200    2.000    0.000    0.000    0.000    0.000 
#    0.000    0.000    0.000    0.000    0.000    0.000 
#
# Total GULP energy -334385.935732 kJ/mol
# GULP energy per Si atom -5573.098929 kJ/mol
# Density = 2.011630 g / cm^3
# Si number density = 20.162185 Si / 1000 Ang^3
#
#
#
# Elastic Constant Matrix: (Units=GPa)
#
#
# Indices 1 2 3 4 5 6 
#
# 1 73.2321 21.3335 44.6860 0.0000 0.0000 0.0000
# 2 21.3335 100.5752 44.9184 0.0000 0.0000 0.0000
# 3 44.6860 44.9184 143.7120 0.0000 0.0000 0.0000
# 4 0.0000 0.0000 0.0000 -17.4684 0.0000 0.0000
# 5 0.0000 0.0000 0.0000 0.0000 35.1615 0.0000
# 6 0.0000 0.0000 0.0000 0.0000 0.0000 27.5437
#
#
#
# Elastic Compliance Matrix: (Units=1/GPa)
#
#
# Indices 1 2 3 4 5 6 
#
# 1 0.017033 -0.001450 -0.004843 0.000000 0.000000 0.000000
# 2 -0.001450 0.011679 -0.003200 0.000000 0.000000 0.000000
# 3 -0.004843 -0.003200 0.009464 0.000000 0.000000 0.000000
# 4 0.000000 0.000000 0.000000 -0.057246 0.000000 0.000000
# 5 0.000000 0.000000 0.000000 0.000000 0.028440 0.000000
# 6 0.000000 0.000000 0.000000 0.000000 0.000000 0.036306
#
#
# Mechanical properties :
#
#
# Convention : Reuss Voigt Hill
#
# Bulk Modulus (GPa) = 52.10694 59.93279 56.01986
# Shear Modulus (GPa) = 70.36450 22.81946 46.59198
#
# Velocity S-wave (km/s) = 5.91397 3.36787 4.81236
# Velocity P-wave (km/s) = 8.51665 6.70173 7.66311
#
# Compressibility (1/GPa) = 0.01919130
#
# Stress axis : x y z
#
# Youngs Moduli (GPa) = 58.71030 85.62101 105.65990
#
# Poissons Ratio (x) = 0.12415 0.51171
# Poissons Ratio (y) = 0.08513 0.33807
# Poissons Ratio (z) = 0.28433 0.27396
#
# Static dielectric constant tensor:
#      x y z
#    x 1.821010 0.000000 0.000000 
#    y 0.000000 1.706510 0.000000 
#    z 0.000000 0.000000 1.773400 
# 
# From -- ./inp_files/43228.got.cif
#   From: 2010.05.17/outbox.cif.g08.bks.cpg/sg52_22_cif.got.tgz:43228.got - 2010.06.03 12:15:38.
