data_PCOD9411435
_publ_section_title
;
Structure prediction by ZEFSAII (Michael W. Deem and Ramdas Pophale) SiO2 
 PCOD9411435
Probable space group: P N N A
;
_chemical_formula_sum "Si O2"
_cell_formula_units_Z 48
_cell_length_a 9.882257
_cell_length_b 25.850649
_cell_length_c 8.300761
_cell_angle_alpha 90.000000
_cell_angle_beta 90.000000
_cell_angle_gamma 90.000000
_cell_volume 2120.535291
_symmetry_space_group_name_H-M "P N N A"
_symmetry_group_IT_number 52
_symmetry_cell_setting 'orthorhombic'
loop_
_space_group_symop_operation_xyz
x,y,z
1/2-x,-y,z
x,1/2-y,1/2-z
1/2-x,1/2+y,1/2-z
-x,-y,-z
1/2+x,y,-z
-x,1/2+y,1/2+z
1/2+x,1/2-y,1/2+z
loop_
_atom_site_type_symbol
_atom_site_label
_atom_site_fract_x
_atom_site_fract_y
_atom_site_fract_z
Si Si1 0.053506 0.931361 0.293726
Si Si2 0.750000 0.000000 0.875931
Si Si3 0.796818 0.329028 0.662162
Si Si4 0.716600 0.097339 0.103496
Si Si5 0.365966 0.819021 0.469837
Si Si6 0.377385 0.386004 0.896783
Si Si7 0.476996 0.750000 0.750000
O O1 0.145070 0.882681 0.235462
O O2 0.069476 0.930828 0.485990
O O3 0.910487 0.915920 0.217537
O O4 0.119942 0.983239 0.226820
O O5 0.781880 0.950637 0.983537
O O6 0.722300 0.349060 0.499670
O O7 0.700569 0.305243 0.799303
O O8 0.924420 0.290490 0.656426
O O9 0.850714 0.097953 0.214325
O O10 0.264250 0.861722 0.543412
O O11 0.511081 0.842135 0.424120
O O12 0.389468 0.778033 0.612095
#
# Coordination Sequence:
#
# PCOD9411435 Si02
#       7
#     8   4   8   8   8   8   4
#     4  10  21  45  65  96 138 181 235 295 351 433
#     4  10  24  40  66 110 132 178 242 300 366 428
#     4  10  25  41  69 102 138 186 233 296 348 421
#     4  11  23  44  72  98 145 187 234 298 366 426
#     4  11  23  46  69 101 143 184 237 286 347 430
#     4  11  22  46  70  97 139 192 231 287 358 424
#     4  12  22  46  72 106 142 182 244 288 354 422
#
# _framework density 22.635794000000001
#
# number of rings (size 3 to 8) (size 9 to 14) (size 15 to 20)
#    0.000    1.333    5.000    0.500    4.667    3.333 
#    3.000    1.667    0.000    0.000    0.000    0.000 
#    0.000    0.000    0.000    0.000    0.000    0.000 
#
# Total GULP energy -267930.343347 kJ/mol
# GULP energy per Si atom -5581.882153 kJ/mol
# Density = 2.258427 g / cm^3
# Si number density = 22.635794 Si / 1000 Ang^3
#
#
#
# Elastic Constant Matrix: (Units=GPa)
#
#
# Indices 1 2 3 4 5 6 
#
# 1 71.4930 15.1671 41.4430 0.0000 0.0000 0.0000
# 2 15.1671 73.0728 36.9303 0.0000 0.0000 0.0000
# 3 41.4430 36.9303 108.9458 0.0000 0.0000 0.0000
# 4 0.0000 0.0000 0.0000 24.2671 0.0000 0.0000
# 5 0.0000 0.0000 0.0000 0.0000 -101.9460 0.0000
# 6 0.0000 0.0000 0.0000 0.0000 0.0000 23.7524
#
#
#
# Elastic Compliance Matrix: (Units=1/GPa)
#
#
# Indices 1 2 3 4 5 6 
#
# 1 0.017951 -0.000332 -0.006716 0.000000 0.000000 0.000000
# 2 -0.000332 0.016520 -0.005474 0.000000 0.000000 0.000000
# 3 -0.006716 -0.005474 0.013589 0.000000 0.000000 0.000000
# 4 0.000000 0.000000 0.000000 0.041208 0.000000 0.000000
# 5 0.000000 0.000000 0.000000 0.000000 -0.009809 0.000000
# 6 0.000000 0.000000 0.000000 0.000000 0.000000 0.042101
#
#
# Mechanical properties :
#
#
# Convention : Reuss Voigt Hill
#
# Bulk Modulus (GPa) = 43.44586 48.95470 46.20028
# Shear Modulus (GPa) = 32.40944 -0.12056 16.14444
#
# Velocity S-wave (km/s) = 3.78799 -0.23103 2.67353
# Velocity P-wave (km/s) = 6.19410 4.64789 5.47585
#
# Compressibility (1/GPa) = 0.02301715
#
# Stress axis : x y z
#
# Youngs Moduli (GPa) = 55.70742 60.53175 73.58781
#
# Poissons Ratio (x) = 0.02008 0.49422
# Poissons Ratio (y) = 0.01848 0.40281
# Poissons Ratio (z) = 0.37414 0.33134
#
# Static dielectric constant tensor:
#      x y z
#    x 1.846550 0.000000 0.000000 
#    y 0.000000 1.850570 0.000000 
#    z 0.000000 0.000000 1.926300 
# 
# From -- ./inp_files/7730.got.cif
#   From: 2010.05.17/outbox.cif.g08.bks.cpg/sg52_4_cif.got.tgz:7730.got - 2010.06.03 12:15:38.
