data_PCOD9411180
_publ_section_title
;
Structure prediction by ZEFSAII (Michael W. Deem and Ramdas Pophale) SiO2 
 PCOD9411180
Probable space group: P N N A
;
_chemical_formula_sum "Si O2"
_cell_formula_units_Z 32
_cell_length_a 11.178530
_cell_length_b 8.116088
_cell_length_c 15.478284
_cell_angle_alpha 90.000000
_cell_angle_beta 90.000000
_cell_angle_gamma 90.000000
_cell_volume 1404.281760
_symmetry_space_group_name_H-M "P N N A"
_symmetry_group_IT_number 52
_symmetry_cell_setting 'orthorhombic'
loop_
_space_group_symop_operation_xyz
x,y,z
1/2-x,-y,z
x,1/2-y,1/2-z
1/2-x,1/2+y,1/2-z
-x,-y,-z
1/2+x,y,-z
-x,1/2+y,1/2+z
1/2+x,1/2-y,1/2+z
loop_
_atom_site_type_symbol
_atom_site_label
_atom_site_fract_x
_atom_site_fract_y
_atom_site_fract_z
Si Si1 0.037224 0.441362 0.759132
Si Si2 0.823250 0.659073 0.829615
Si Si3 0.985250 0.112612 0.083797
Si Si4 0.381138 0.455833 0.941900
O O1 0.009606 0.250000 0.750000
O O2 0.067709 0.508538 0.664000
O O3 0.113643 0.461414 0.846643
O O4 0.932364 0.566854 0.783550
O O5 0.750000 0.500000 0.860586
O O6 0.757082 0.750000 0.750000
O O7 0.887596 0.706446 0.608211
O O8 0.894207 0.260449 0.066437
O O9 0.000000 0.000000 0.000000
O O10 0.250000 0.500000 0.974331
O O11 0.500000 0.500000 0.000000
#
# Coordination Sequence:
#
# PCOD9411180 Si02
#       4
#     8   8   8   8
#     4  10  21  40  67  99 136 180 228 286 352 423
#     4   9  18  34  61  95 134 180 232 288 350 418
#     4  10  22  44  68 100 143 190 238 291 358 432
#     4  11  25  46  71 102 140 184 237 299 362 429
#
# _framework density 22.787447
#
# number of rings (size 3 to 8) (size 9 to 14) (size 15 to 20)
#    0.000    2.000    0.000    4.500    0.000    6.000 
#    0.000   26.250    0.000    0.000    0.000    0.000 
#    0.000    0.000    0.000    0.000    0.000    0.000 
#
# Total GULP energy -178181.510425 kJ/mol
# GULP energy per Si atom -5568.172201 kJ/mol
# Density = 2.273558 g / cm^3
# Si number density = 22.787447 Si / 1000 Ang^3
#
#
#
# Elastic Constant Matrix: (Units=GPa)
#
#
# Indices 1 2 3 4 5 6 
#
# 1 110.5484 40.4522 59.7025 0.0000 0.0000 0.0000
# 2 40.4522 182.1596 86.6664 0.0000 0.0000 0.0000
# 3 59.7025 86.6664 199.2516 0.0000 0.0000 0.0000
# 4 0.0000 0.0000 0.0000 9.7727 0.0000 0.0000
# 5 0.0000 0.0000 0.0000 0.0000 4.3054 0.0000
# 6 0.0000 0.0000 0.0000 0.0000 0.0000 22.6915
#
#
#
# Elastic Compliance Matrix: (Units=1/GPa)
#
#
# Indices 1 2 3 4 5 6 
#
# 1 0.010964 -0.001099 -0.002807 0.000000 0.000000 0.000000
# 2 -0.001099 0.007032 -0.002729 0.000000 0.000000 0.000000
# 3 -0.002807 -0.002729 0.007047 0.000000 0.000000 0.000000
# 4 0.000000 0.000000 0.000000 0.102326 0.000000 0.000000
# 5 0.000000 0.000000 0.000000 0.000000 0.232267 0.000000
# 6 0.000000 0.000000 0.000000 0.000000 0.000000 0.044069
#
#
# Mechanical properties :
#
#
# Convention : Reuss Voigt Hill
#
# Bulk Modulus (GPa) = 84.94750 96.17799 90.56275
# Shear Modulus (GPa) = 11.87928 27.69648 19.78788
#
# Velocity S-wave (km/s) = 2.28569 3.49008 2.95000
# Velocity P-wave (km/s) = 6.65770 7.65108 7.17161
#
# Compressibility (1/GPa) = 0.01177198
#
# Stress axis : x y z
#
# Youngs Moduli (GPa) = 91.20732 142.19915 141.90318
#
# Poissons Ratio (x) = 0.15631 0.39833
# Poissons Ratio (y) = 0.10026 0.38731
# Poissons Ratio (z) = 0.25602 0.38812
#
# Static dielectric constant tensor:
#      x y z
#    x 1.902140 0.000000 0.000000 
#    y 0.000000 1.759060 0.000000 
#    z 0.000000 0.000000 2.057190 
# 
# From -- ./inp_files/25597.got.cif
#   From: 2010.05.17/outbox.cif.g08.bks.cpg/sg52_13_cif.got.tgz:25597.got - 2010.06.03 12:15:38.
