data_PCOD9411601
_publ_section_title
;
Structure prediction by ZEFSAII (Michael W. Deem and Ramdas Pophale) SiO2 
 PCOD9411601
Probable space group: P N N A
;
_chemical_formula_sum "Si O2"
_cell_formula_units_Z 56
_cell_length_a 12.579511
_cell_length_b 16.043244
_cell_length_c 10.312130
_cell_angle_alpha 90.000000
_cell_angle_beta 90.000000
_cell_angle_gamma 90.000000
_cell_volume 2081.154523
_symmetry_space_group_name_H-M "P N N A"
_symmetry_group_IT_number 52
_symmetry_cell_setting 'orthorhombic'
loop_
_space_group_symop_operation_xyz
x,y,z
1/2-x,-y,z
x,1/2-y,1/2-z
1/2-x,1/2+y,1/2-z
-x,-y,-z
1/2+x,y,-z
-x,1/2+y,1/2+z
1/2+x,1/2-y,1/2+z
loop_
_atom_site_type_symbol
_atom_site_label
_atom_site_fract_x
_atom_site_fract_y
_atom_site_fract_z
Si Si1 0.093462 0.386955 0.992685
Si Si2 0.617320 0.157979 0.784032
Si Si3 0.292670 0.205079 0.620268
Si Si4 0.430632 0.334017 0.215874
Si Si5 0.096301 0.986365 0.157401
Si Si6 0.869854 0.028493 0.293548
Si Si7 0.946336 0.335694 0.505107
O O1 0.197377 0.334503 0.958104
O O2 0.110011 0.477107 0.927319
O O3 0.997140 0.345186 0.912823
O O4 0.084619 0.381074 0.145389
O O5 0.658902 0.250000 0.750000
O O6 0.659193 0.072500 0.852163
O O7 0.525921 0.322086 0.611468
O O8 0.253924 0.250000 0.750000
O O9 0.360066 0.126177 0.673332
O O10 0.352510 0.272181 0.530705
O O11 0.368884 0.250000 0.250000
O O12 0.365571 0.418649 0.235071
O O13 0.500161 0.328055 0.350887
O O14 0.973123 0.004663 0.206170
O O15 0.904318 0.070092 0.972061
O O16 0.750000 0.000000 0.248285
#
# Coordination Sequence:
#
# PCOD9411601 Si02
#       7
#     8   8   8   8   8   8   8
#     4  10  23  41  65  96 138 183 231 283 354 420
#     4  12  23  39  67  97 136 182 232 288 354 423
#     4  11  22  40  70 100 137 185 235 289 347 434
#     4   9  19  36  60  97 128 173 226 283 337 411
#     4   9  21  37  63 100 137 169 233 287 343 419
#     4   9  19  39  66 101 135 185 230 286 349 423
#     4  10  22  38  65 100 137 175 235 288 347 417
#
# _framework density 26.908141000000001
#
# number of rings (size 3 to 8) (size 9 to 14) (size 15 to 20)
#    0.857    1.143    0.000    3.857    0.000    3.429 
#    0.000    0.714    6.286    4.286    0.000    0.000 
#    0.000    0.000    0.000    0.000    0.000    0.000 
#
# Total GULP energy -312296.722578 kJ/mol
# GULP energy per Si atom -5576.727189 kJ/mol
# Density = 2.684690 g / cm^3
# Si number density = 26.908141 Si / 1000 Ang^3
#
#
#
# Elastic Constant Matrix: (Units=GPa)
#
#
# Indices 1 2 3 4 5 6 
#
# 1 112.6059 19.0286 17.6836 0.0000 0.0000 0.0000
# 2 19.0286 216.6801 -3.4628 0.0000 0.0000 0.0000
# 3 17.6836 -3.4628 130.7251 0.0000 0.0000 0.0000
# 4 0.0000 0.0000 0.0000 51.4181 0.0000 0.0000
# 5 0.0000 0.0000 0.0000 0.0000 5.6080 0.0000
# 6 0.0000 0.0000 0.0000 0.0000 0.0000 1.0394
#
#
#
# Elastic Compliance Matrix: (Units=1/GPa)
#
#
# Indices 1 2 3 4 5 6 
#
# 1 0.009220 -0.000830 -0.001269 0.000000 0.000000 0.000000
# 2 -0.000830 0.004692 0.000237 0.000000 0.000000 0.000000
# 3 -0.001269 0.000237 0.007828 0.000000 0.000000 0.000000
# 4 0.000000 0.000000 0.000000 0.019448 0.000000 0.000000
# 5 0.000000 0.000000 0.000000 0.000000 0.178317 0.000000
# 6 0.000000 0.000000 0.000000 0.000000 0.000000 0.962132
#
#
# Mechanical properties :
#
#
# Convention : Reuss Voigt Hill
#
# Bulk Modulus (GPa) = 55.51184 58.50110 57.00647
# Shear Modulus (GPa) = 4.19686 40.06387 22.13036
#
# Velocity S-wave (km/s) = 1.25023 3.86283 2.87093
# Velocity P-wave (km/s) = 4.77064 6.45628 5.67638
#
# Compressibility (1/GPa) = 0.01801417
#
# Stress axis : x y z
#
# Youngs Moduli (GPa) = 108.45871 213.13930 127.75309
#
# Poissons Ratio (x) = 0.17690 0.16215
# Poissons Ratio (y) = 0.09002 -0.03022
# Poissons Ratio (z) = 0.13766 -0.05042
#
# Static dielectric constant tensor:
#      x y z
#    x 2.119160 0.000000 0.000000 
#    y 0.000000 2.476420 0.000000 
#    z 0.000000 0.000000 2.145800 
# 
# From -- ./inp_files/19602.got.cif
#   From: 2010.05.17/outbox.cif.g08.bks.cpg/sg52_10_cif.got.tgz:19602.got - 2010.06.03 12:15:38.
