data_PCOD9411983
_publ_section_title
;
Structure prediction by ZEFSAII (Michael W. Deem and Ramdas Pophale) SiO2 
 PCOD9411983
Probable space group: P N N A
;
_chemical_formula_sum "Si O2"
_cell_formula_units_Z 32
_cell_length_a 10.349055
_cell_length_b 7.745755
_cell_length_c 17.356088
_cell_angle_alpha 90.000000
_cell_angle_beta 90.000000
_cell_angle_gamma 90.000000
_cell_volume 1391.285614
_symmetry_space_group_name_H-M "P N N A"
_symmetry_group_IT_number 52
_symmetry_cell_setting 'orthorhombic'
loop_
_space_group_symop_operation_xyz
x,y,z
1/2-x,-y,z
x,1/2-y,1/2-z
1/2-x,1/2+y,1/2-z
-x,-y,-z
1/2+x,y,-z
-x,1/2+y,1/2+z
1/2+x,1/2-y,1/2+z
loop_
_atom_site_type_symbol
_atom_site_label
_atom_site_fract_x
_atom_site_fract_y
_atom_site_fract_z
Si Si1 0.384147 0.571280 0.446729
Si Si2 0.025080 0.813197 0.164359
Si Si3 0.799340 0.817582 0.426543
Si Si4 0.565947 0.816330 0.167936
O O1 0.500000 0.500000 0.500000
O O2 0.363729 0.408912 0.386843
O O3 0.295138 0.670133 0.507921
O O4 0.452193 0.714465 0.393355
O O5 0.061244 0.750000 0.250000
O O6 0.941692 0.680284 0.112832
O O7 0.926990 0.976010 0.173648
O O8 0.696735 0.767125 0.361069
O O9 0.750000 0.000000 0.457840
O O10 0.526645 0.750000 0.250000
#
# Coordination Sequence:
#
# PCOD9411983 Si02
#       4
#     8   8   8   8
#     4  10  25  44  66  97 142 181 224 290 359 418
#     4  10  22  42  69  96 135 182 230 292 352 416
#     4  12  24  41  70 103 137 180 240 293 353 416
#     4  10  23  43  70  98 138 180 238 289 350 418
#
# _framework density 23.000311
#
# number of rings (size 3 to 8) (size 9 to 14) (size 15 to 20)
#    1.500    0.000    0.000    5.250    3.500    2.000 
#    4.500    0.000    0.000    0.000    0.000    0.000 
#    0.000    0.000    0.000    0.000    0.000    0.000 
#
# Total GULP energy -178160.237944 kJ/mol
# GULP energy per Si atom -5567.507436 kJ/mol
# Density = 2.294796 g / cm^3
# Si number density = 23.000311 Si / 1000 Ang^3
#
#
#
# Elastic Constant Matrix: (Units=GPa)
#
#
# Indices 1 2 3 4 5 6 
#
# 1 33.5890 12.0747 14.5006 0.0000 0.0000 0.0000
# 2 12.0747 103.2896 30.8328 0.0000 0.0000 0.0000
# 3 14.5006 30.8328 161.1870 0.0000 0.0000 0.0000
# 4 0.0000 0.0000 0.0000 55.0066 0.0000 0.0000
# 5 0.0000 0.0000 0.0000 0.0000 31.0000 0.0000
# 6 0.0000 0.0000 0.0000 0.0000 0.0000 25.4004
#
#
#
# Elastic Compliance Matrix: (Units=1/GPa)
#
#
# Indices 1 2 3 4 5 6 
#
# 1 0.031851 -0.003042 -0.002284 0.000000 0.000000 0.000000
# 2 -0.003042 0.010558 -0.001746 0.000000 0.000000 0.000000
# 3 -0.002284 -0.001746 0.006743 0.000000 0.000000 0.000000
# 4 0.000000 0.000000 0.000000 0.018180 0.000000 0.000000
# 5 0.000000 0.000000 0.000000 0.000000 0.032258 0.000000
# 6 0.000000 0.000000 0.000000 0.000000 0.000000 0.039369
#
#
# Mechanical properties :
#
#
# Convention : Reuss Voigt Hill
#
# Bulk Modulus (GPa) = 28.56321 45.87574 37.21948
# Shear Modulus (GPa) = 30.34489 38.32523 34.33506
#
# Velocity S-wave (km/s) = 3.63619 4.08645 3.86788
# Velocity P-wave (km/s) = 5.48405 6.50034 6.01370
#
# Compressibility (1/GPa) = 0.03501008
#
# Stress axis : x y z
#
# Youngs Moduli (GPa) = 31.39623 94.71222 148.29339
#
# Poissons Ratio (x) = 0.28809 0.33863
# Poissons Ratio (y) = 0.09550 0.25892
# Poissons Ratio (z) = 0.07169 0.16537
#
# Static dielectric constant tensor:
#      x y z
#    x 2.080040 0.000000 0.000000 
#    y 0.000000 1.888620 0.000000 
#    z 0.000000 0.000000 1.860000 
# 
# From -- ./inp_files/32761.got.cif
#   From: 2010.05.17/outbox.cif.g08.bks.cpg/sg52_17_cif.got.tgz:32761.got - 2010.06.03 12:15:38.
