data_PCOD9411423
_publ_section_title
;
Structure prediction by ZEFSAII (Michael W. Deem and Ramdas Pophale) SiO2 
 PCOD9411423
Probable space group: P N N A
;
_chemical_formula_sum "Si O2"
_cell_formula_units_Z 28
_cell_length_a 10.020774
_cell_length_b 14.263657
_cell_length_c 7.809120
_cell_angle_alpha 90.000000
_cell_angle_beta 90.000000
_cell_angle_gamma 90.000000
_cell_volume 1116.180037
_symmetry_space_group_name_H-M "P N N A"
_symmetry_group_IT_number 52
_symmetry_cell_setting 'orthorhombic'
loop_
_space_group_symop_operation_xyz
x,y,z
1/2-x,-y,z
x,1/2-y,1/2-z
1/2-x,1/2+y,1/2-z
-x,-y,-z
1/2+x,y,-z
-x,1/2+y,1/2+z
1/2+x,1/2-y,1/2+z
loop_
_atom_site_type_symbol
_atom_site_label
_atom_site_fract_x
_atom_site_fract_y
_atom_site_fract_z
Si Si1 0.569790 0.123633 0.133189
Si Si2 0.700890 0.107960 0.476713
Si Si3 0.604617 0.448647 0.713440
Si Si4 0.840400 0.250000 0.750000
O O1 0.667490 0.146367 0.290030
O O2 0.439192 0.185650 0.140422
O O3 0.514572 0.019118 0.171475
O O4 0.622802 0.124346 0.940759
O O5 0.572247 0.092878 0.600283
O O6 0.776111 0.179562 0.606871
O O7 0.750000 0.000000 0.450107
O O8 0.750000 0.500000 0.718035
#
# Coordination Sequence:
#
# PCOD9411423 Si02
#       4
#     8   8   8   4
#     4  11  24  42  71  97 136 186 227 287 358 398
#     4  11  24  47  67  96 141 180 231 292 347 418
#     4  10  21  44  70  97 132 179 231 283 340 424
#     4  12  26  42  66 110 138 176 246 284 338 442
#
# _framework density 25.085559
#
# number of rings (size 3 to 8) (size 9 to 14) (size 15 to 20)
#    0.000    1.143    5.714    1.714    4.000    0.000 
#    0.000    2.857    0.000    0.000    0.000    0.000 
#    0.000    0.000    0.000    0.000    0.000    0.000 
#
# Total GULP energy -156061.568686 kJ/mol
# GULP energy per Si atom -5573.627453 kJ/mol
# Density = 2.502846 g / cm^3
# Si number density = 25.085559 Si / 1000 Ang^3
#
#
#
# Elastic Constant Matrix: (Units=GPa)
#
#
# Indices 1 2 3 4 5 6 
#
# 1 40.4582 25.6467 23.7481 0.0000 0.0000 0.0000
# 2 25.6467 126.4805 45.1014 0.0000 0.0000 0.0000
# 3 23.7481 45.1014 162.8044 0.0000 0.0000 0.0000
# 4 0.0000 0.0000 0.0000 18.2814 0.0000 0.0000
# 5 0.0000 0.0000 0.0000 0.0000 26.7274 0.0000
# 6 0.0000 0.0000 0.0000 0.0000 0.0000 34.4121
#
#
#
# Elastic Compliance Matrix: (Units=1/GPa)
#
#
# Indices 1 2 3 4 5 6 
#
# 1 0.029582 -0.004949 -0.002944 0.000000 0.000000 0.000000
# 2 -0.004949 0.009601 -0.001938 0.000000 0.000000 0.000000
# 3 -0.002944 -0.001938 0.007109 0.000000 0.000000 0.000000
# 4 0.000000 0.000000 0.000000 0.054700 0.000000 0.000000
# 5 0.000000 0.000000 0.000000 0.000000 0.037415 0.000000
# 6 0.000000 0.000000 0.000000 0.000000 0.000000 0.029060
#
#
# Mechanical properties :
#
#
# Convention : Reuss Voigt Hill
#
# Bulk Modulus (GPa) = 37.55128 57.63727 47.59427
# Shear Modulus (GPa) = 25.50965 31.56730 28.53848
#
# Velocity S-wave (km/s) = 3.19236 3.55122 3.37656
# Velocity P-wave (km/s) = 5.34696 6.31198 5.84940
#
# Compressibility (1/GPa) = 0.02663025
#
# Stress axis : x y z
#
# Youngs Moduli (GPa) = 33.80435 104.15808 140.67371
#
# Poissons Ratio (x) = 0.51543 0.41417
# Poissons Ratio (y) = 0.16728 0.27260
# Poissons Ratio (z) = 0.09953 0.20184
#
# Static dielectric constant tensor:
#      x y z
#    x 1.989820 0.000000 0.000000 
#    y 0.000000 2.263930 0.000000 
#    z 0.000000 0.000000 2.057440 
# 
# From -- ./inp_files/8118.got.cif
#   From: 2010.05.17/outbox.cif.g08.bks.cpg/sg52_5_cif.got.tgz:8118.got - 2010.06.03 12:15:38.
