data_PCOD9411803
_publ_section_title
;
Structure prediction by ZEFSAII (Michael W. Deem and Ramdas Pophale) SiO2 
 PCOD9411803
Probable space group: P N N A
;
_chemical_formula_sum "Si O2"
_cell_formula_units_Z 52
_cell_length_a 8.639154
_cell_length_b 20.135826
_cell_length_c 14.745853
_cell_angle_alpha 90.000000
_cell_angle_beta 90.000000
_cell_angle_gamma 90.000000
_cell_volume 2565.137003
_symmetry_space_group_name_H-M "P N N A"
_symmetry_group_IT_number 52
_symmetry_cell_setting 'orthorhombic'
loop_
_space_group_symop_operation_xyz
x,y,z
1/2-x,-y,z
x,1/2-y,1/2-z
1/2-x,1/2+y,1/2-z
-x,-y,-z
1/2+x,y,-z
-x,1/2+y,1/2+z
1/2+x,1/2-y,1/2+z
loop_
_atom_site_type_symbol
_atom_site_label
_atom_site_fract_x
_atom_site_fract_y
_atom_site_fract_z
Si Si1 0.413332 0.109477 0.039463
Si Si2 0.836878 0.824711 0.275343
Si Si3 0.750000 0.500000 0.979646
Si Si4 0.904880 0.204747 0.424357
Si Si5 0.004614 0.404585 0.927970
Si Si6 0.194920 0.066588 0.874115
Si Si7 0.827807 0.793929 0.952379
O O1 0.516904 0.058084 0.094290
O O2 0.293084 0.155955 0.094125
O O3 0.312397 0.077905 0.958601
O O4 0.546676 0.159204 0.002582
O O5 0.884575 0.750000 0.250000
O O6 0.683177 0.820080 0.336409
O O7 0.802579 0.868710 0.187951
O O8 0.959025 0.862535 0.338888
O O9 0.651589 0.448489 0.040554
O O10 0.866450 0.456765 0.920043
O O11 0.958697 0.146944 0.492486
O O12 0.778241 0.250581 0.478371
O O13 0.059659 0.245113 0.398903
O O14 0.250000 0.000000 0.824978
#
# Coordination Sequence:
#
# PCOD9411803 Si02
#       7
#     8   8   4   8   8   8   8
#     4   9  19  39  63  92 119 170 220 260 336 395
#     4  12  25  40  66 106 131 169 229 281 343 389
#     4  10  22  40  70  98 124 194 218 262 334 424
#     4  11  19  37  64  98 131 170 213 261 336 410
#     4  11  22  40  69  96 134 174 222 270 332 421
#     4  11  24  41  70  91 128 176 224 284 328 407
#     4   9  17  31  66  90 122 167 199 260 313 398
#
# _framework density 20.271822
#
# number of rings (size 3 to 8) (size 9 to 14) (size 15 to 20)
#    0.000    1.538    3.077    3.231    3.231    0.000 
#    0.000    0.000   32.154    0.000    0.000    0.000 
#    0.000    0.000    0.000    0.000    0.000    0.000 
#
# Total GULP energy -290085.897817 kJ/mol
# GULP energy per Si atom -5578.574958 kJ/mol
# Density = 2.022568 g / cm^3
# Si number density = 20.271822 Si / 1000 Ang^3
#
#
#
# Elastic Constant Matrix: (Units=GPa)
#
#
# Indices 1 2 3 4 5 6 
#
# 1 123.4064 38.8232 21.2058 0.0000 0.0000 0.0000
# 2 38.8232 107.6084 25.0708 0.0000 0.0000 0.0000
# 3 21.2058 25.0708 56.7480 0.0000 0.0000 0.0000
# 4 0.0000 0.0000 0.0000 22.3050 0.0000 0.0000
# 5 0.0000 0.0000 0.0000 0.0000 6.3225 0.0000
# 6 0.0000 0.0000 0.0000 0.0000 0.0000 45.5795
#
#
#
# Elastic Compliance Matrix: (Units=1/GPa)
#
#
# Indices 1 2 3 4 5 6 
#
# 1 0.009390 -0.002865 -0.002243 0.000000 0.000000 0.000000
# 2 -0.002865 0.011233 -0.003892 0.000000 0.000000 0.000000
# 3 -0.002243 -0.003892 0.020180 0.000000 0.000000 0.000000
# 4 0.000000 0.000000 0.000000 0.044833 0.000000 0.000000
# 5 0.000000 0.000000 0.000000 0.000000 0.158165 0.000000
# 6 0.000000 0.000000 0.000000 0.000000 0.000000 0.021940
#
#
# Mechanical properties :
#
#
# Convention : Reuss Voigt Hill
#
# Bulk Modulus (GPa) = 43.85554 50.88472 47.37013
# Shear Modulus (GPa) = 17.16195 28.35227 22.75711
#
# Velocity S-wave (km/s) = 2.91278 3.74385 3.35415
# Velocity P-wave (km/s) = 5.74396 6.62150 6.19828
#
# Compressibility (1/GPa) = 0.02280214
#
# Stress axis : x y z
#
# Youngs Moduli (GPa) = 106.49472 89.01975 49.55521
#
# Poissons Ratio (x) = 0.25506 0.11116
# Poissons Ratio (y) = 0.30513 0.19288
# Poissons Ratio (z) = 0.23888 0.34648
#
# Static dielectric constant tensor:
#      x y z
#    x 1.738080 0.000000 0.000000 
#    y 0.000000 1.798230 0.000000 
#    z 0.000000 0.000000 1.710870 
# 
# From -- ./inp_files/24914.got.cif
#   From: 2010.05.17/outbox.cif.g08.bks.cpg/sg52_13_cif.got.tgz:24914.got - 2010.06.03 12:15:38.
