data_PCOD9411219
_publ_section_title
;
Structure prediction by ZEFSAII (Michael W. Deem and Ramdas Pophale) SiO2 
 PCOD9411219
Probable space group: P N N A
;
_chemical_formula_sum "Si O2"
_cell_formula_units_Z 40
_cell_length_a 8.186839
_cell_length_b 12.655498
_cell_length_c 15.040258
_cell_angle_alpha 90.000000
_cell_angle_beta 90.000000
_cell_angle_gamma 90.000000
_cell_volume 1558.298941
_symmetry_space_group_name_H-M "P N N A"
_symmetry_group_IT_number 52
_symmetry_cell_setting 'orthorhombic'
loop_
_space_group_symop_operation_xyz
x,y,z
1/2-x,-y,z
x,1/2-y,1/2-z
1/2-x,1/2+y,1/2-z
-x,-y,-z
1/2+x,y,-z
-x,1/2+y,1/2+z
1/2+x,1/2-y,1/2+z
loop_
_atom_site_type_symbol
_atom_site_label
_atom_site_fract_x
_atom_site_fract_y
_atom_site_fract_z
Si Si1 0.190526 0.181201 0.126554
Si Si2 0.420542 0.592338 0.201949
Si Si3 0.447920 0.802894 0.949074
Si Si4 0.909113 0.926410 0.392593
Si Si5 0.250674 0.859893 0.779650
O O1 0.120065 0.296348 0.154216
O O2 0.193941 0.106616 0.212445
O O3 0.370713 0.188644 0.087546
O O4 0.076754 0.145388 0.044993
O O5 0.437000 0.502995 0.125364
O O6 0.595115 0.569772 0.254364
O O7 0.416988 0.675540 0.955396
O O8 0.323248 0.853060 0.877075
O O9 0.885498 0.869524 0.296839
O O10 0.750000 0.000000 0.411890
O O11 0.170570 0.750000 0.750000
#
# Coordination Sequence:
#
# PCOD9411219 Si02
#       5
#     8   8   8   8   8
#     4  11  24  38  62  88 130 167 214 254 323 375
#     4  10  21  41  60  92 125 169 206 264 318 389
#     4  11  24  40  63  97 124 172 214 265 312 387
#     4   9  21  38  66  92 123 163 211 262 321 374
#     4   9  17  37  65  82 120 162 211 251 316 379
#
# _framework density 25.669017
#
# number of rings (size 3 to 8) (size 9 to 14) (size 15 to 20)
#    0.000    2.000    2.000    1.200   14.000    1.600 
#    0.000    1.000    0.000    0.000    0.000    0.000 
#    0.000    0.000    0.000    0.000    0.000    0.000 
#
# Total GULP energy -223028.892922 kJ/mol
# GULP energy per Si atom -5575.722323 kJ/mol
# Density = 2.561059 g / cm^3
# Si number density = 25.669017 Si / 1000 Ang^3
#
#
#
# Elastic Constant Matrix: (Units=GPa)
#
#
# Indices 1 2 3 4 5 6 
#
# 1 118.6386 -8.0993 22.9658 0.0000 0.0000 0.0000
# 2 -8.0993 42.4498 0.6957 0.0000 0.0000 0.0000
# 3 22.9658 0.6957 119.0074 0.0000 0.0000 0.0000
# 4 0.0000 0.0000 0.0000 -9.9427 0.0000 0.0000
# 5 0.0000 0.0000 0.0000 0.0000 27.6907 0.0000
# 6 0.0000 0.0000 0.0000 0.0000 0.0000 21.4811
#
#
#
# Elastic Compliance Matrix: (Units=1/GPa)
#
#
# Indices 1 2 3 4 5 6 
#
# 1 0.008880 0.001723 -0.001724 0.000000 0.000000 0.000000
# 2 0.001723 0.023894 -0.000472 0.000000 0.000000 0.000000
# 3 -0.001724 -0.000472 0.008738 0.000000 0.000000 0.000000
# 4 0.000000 0.000000 0.000000 -0.100577 0.000000 0.000000
# 5 0.000000 0.000000 0.000000 0.000000 0.036113 0.000000
# 6 0.000000 0.000000 0.000000 0.000000 0.000000 0.046553
#
#
# Mechanical properties :
#
#
# Convention : Reuss Voigt Hill
#
# Bulk Modulus (GPa) = 24.65147 34.58003 29.61575
# Shear Modulus (GPa) = 131.33842 25.48139 78.40991
#
# Velocity S-wave (km/s) = 7.16081 3.15412 5.53289
# Velocity P-wave (km/s) = 8.83142 5.17352 7.23738
#
# Compressibility (1/GPa) = 0.04056553
#
# Stress axis : x y z
#
# Youngs Moduli (GPa) = 112.60962 41.85215 114.43945
#
# Poissons Ratio (x) = -0.07209 0.19727
# Poissons Ratio (y) = -0.19398 0.05403
# Poissons Ratio (z) = 0.19411 0.01976
#
# Static dielectric constant tensor:
#      x y z
#    x 2.118030 0.000000 0.000000 
#    y 0.000000 1.942130 0.000000 
#    z 0.000000 0.000000 2.053300 
# 
# From -- ./inp_files/24375.got.cif
#   From: 2010.05.17/outbox.cif.g08.bks.cpg/sg52_13_cif.got.tgz:24375.got - 2010.06.03 12:15:38.
