data_PCOD9411784
_publ_section_title
;
Structure prediction by ZEFSAII (Michael W. Deem and Ramdas Pophale) SiO2 
 PCOD9411784
Probable space group: P N N A
;
_chemical_formula_sum "Si O2"
_cell_formula_units_Z 24
_cell_length_a 25.896964
_cell_length_b 7.833731
_cell_length_c 5.541312
_cell_angle_alpha 90.000000
_cell_angle_beta 90.000000
_cell_angle_gamma 90.000000
_cell_volume 1124.165133
_symmetry_space_group_name_H-M "P N N A"
_symmetry_group_IT_number 52
_symmetry_cell_setting 'orthorhombic'
loop_
_space_group_symop_operation_xyz
x,y,z
1/2-x,-y,z
x,1/2-y,1/2-z
1/2-x,1/2+y,1/2-z
-x,-y,-z
1/2+x,y,-z
-x,1/2+y,1/2+z
1/2+x,1/2-y,1/2+z
loop_
_atom_site_type_symbol
_atom_site_label
_atom_site_fract_x
_atom_site_fract_y
_atom_site_fract_z
Si Si1 0.750000 0.000000 0.116087
Si Si2 0.290068 0.250000 0.250000
Si Si3 0.853408 0.431703 0.111391
Si Si4 0.956109 0.855995 0.493292
O O1 0.804243 0.989771 0.252129
O O2 0.755897 0.168637 0.955687
O O3 0.328376 0.109848 0.353785
O O4 0.865743 0.250000 0.250000
O O5 0.902000 0.550328 0.067088
O O6 0.967720 0.750000 0.250000
O O7 0.954612 0.750000 0.750000
O O8 0.000000 0.000000 0.500000
#
# Coordination Sequence:
#
# PCOD9411784 Si02
#       4
#     4   4   8   8
#     4  10  22  42  64 102 142 190 234 292 354 434
#     4  10  22  40  68  94 146 192 236 298 350 434
#     4  10  24  44  69 104 145 190 243 297 362 430
#     4  12  29  50  80 110 144 191 245 309 369 440
#
# _framework density 21.349177000000001
#
# number of rings (size 3 to 8) (size 9 to 14) (size 15 to 20)
#    0.000    1.333    0.000    3.000   11.667    6.667 
#    3.000    0.000    0.000    0.000    0.000    0.000 
#    0.000    0.000    0.000    0.000    0.000    0.000 
#
# Total GULP energy -133995.730057 kJ/mol
# GULP energy per Si atom -5583.155419 kJ/mol
# Density = 2.130059 g / cm^3
# Si number density = 21.349177 Si / 1000 Ang^3
#
#
#
# Elastic Constant Matrix: (Units=GPa)
#
#
# Indices 1 2 3 4 5 6 
#
# 1 191.2882 101.9354 89.1217 0.0000 0.0000 0.0000
# 2 101.9354 119.0734 77.7386 0.0000 0.0000 0.0000
# 3 89.1217 77.7386 152.7897 0.0000 0.0000 0.0000
# 4 0.0000 0.0000 0.0000 -14.4020 0.0000 0.0000
# 5 0.0000 0.0000 0.0000 0.0000 -270.8403 0.0000
# 6 0.0000 0.0000 0.0000 0.0000 0.0000 63.2446
#
#
#
# Elastic Compliance Matrix: (Units=1/GPa)
#
#
# Indices 1 2 3 4 5 6 
#
# 1 0.010098 -0.007186 -0.002234 0.000000 0.000000 0.000000
# 2 -0.007186 0.017689 -0.004809 0.000000 0.000000 0.000000
# 3 -0.002234 -0.004809 0.010294 0.000000 0.000000 0.000000
# 4 0.000000 0.000000 0.000000 -0.069435 0.000000 0.000000
# 5 0.000000 0.000000 0.000000 0.000000 -0.003692 0.000000
# 6 0.000000 0.000000 0.000000 0.000000 0.000000 0.015812
#
#
# Mechanical properties :
#
#
# Convention : Reuss Voigt Hill
#
# Bulk Modulus (GPa) = 103.89955 111.19363 107.54659
# Shear Modulus (GPa) = 402.20340 -31.44250 185.38045
#
# Velocity S-wave (km/s) = 13.74052 -3.84184 9.32851
# Velocity P-wave (km/s) = 17.33518 5.70235 12.90397
#
# Compressibility (1/GPa) = 0.00962468
#
# Stress axis : x y z
#
# Youngs Moduli (GPa) = 99.03096 56.53097 97.13929
#
# Poissons Ratio (x) = 0.40624 0.21699
# Poissons Ratio (y) = 0.71165 0.46711
# Poissons Ratio (z) = 0.22121 0.27184
#
# Static dielectric constant tensor:
#      x y z
#    x 2.051930 0.000000 0.000000 
#    y 0.000000 2.015990 0.000000 
#    z 0.000000 0.000000 1.847980 
# 
# From -- ./inp_files/4720.got.cif
#   From: 2010.05.17/outbox.cif.g08.bks.cpg/sg52_3_cif.got.tgz:4720.got - 2010.06.03 12:15:38.
