data_PCOD9411145
_publ_section_title
;
Structure prediction by ZEFSAII (Michael W. Deem and Ramdas Pophale) SiO2 
 PCOD9411145
Probable space group: P N N A
;
_chemical_formula_sum "Si O2"
_cell_formula_units_Z 28
_cell_length_a 29.104081
_cell_length_b 4.974602
_cell_length_c 8.946857
_cell_angle_alpha 90.000000
_cell_angle_beta 90.000000
_cell_angle_gamma 90.000000
_cell_volume 1295.336868
_symmetry_space_group_name_H-M "P N N A"
_symmetry_group_IT_number 52
_symmetry_cell_setting 'orthorhombic'
loop_
_space_group_symop_operation_xyz
x,y,z
1/2-x,-y,z
x,1/2-y,1/2-z
1/2-x,1/2+y,1/2-z
-x,-y,-z
1/2+x,y,-z
-x,1/2+y,1/2+z
1/2+x,1/2-y,1/2+z
loop_
_atom_site_type_symbol
_atom_site_label
_atom_site_fract_x
_atom_site_fract_y
_atom_site_fract_z
Si Si1 0.750000 0.500000 0.649780
Si Si2 0.619713 0.208431 0.079861
Si Si3 0.975034 0.748508 0.926221
Si Si4 0.318614 0.213325 0.580083
O O1 0.730322 0.250000 0.750000
O O2 0.715292 0.664600 0.542653
O O3 0.603051 0.250000 0.250000
O O4 0.663124 0.410360 0.058957
O O5 0.636920 0.904153 0.070444
O O6 0.578701 0.259615 0.967381
O O7 0.981117 0.750000 0.750000
O O8 0.000000 0.500000 0.000000
O O9 0.000000 0.000000 0.000000
O O10 0.299961 0.250000 0.750000
#
# Coordination Sequence:
#
# PCOD9411145 Si02
#       4
#     4   8   8   8
#     4  12  26  42  64  98 134 166 210 274 326 374
#     4  10  21  40  65  94 125 164 214 266 317 377
#     4  12  25  42  66  96 131 171 213 263 318 381
#     4  10  23  42  66  91 125 171 214 258 318 390
#
# _framework density 21.615998999999999
#
# number of rings (size 3 to 8) (size 9 to 14) (size 15 to 20)
#    0.000    1.143    0.000    6.000    0.000   10.286 
#    0.000    0.000    0.000    0.000    0.000    0.000 
#    0.000    0.000    0.000    0.000    0.000    0.000 
#
# Total GULP energy -156593.289555 kJ/mol
# GULP energy per Si atom -5592.617484 kJ/mol
# Density = 2.156680 g / cm^3
# Si number density = 21.615999 Si / 1000 Ang^3
#
#
#
# Elastic Constant Matrix: (Units=GPa)
#
#
# Indices 1 2 3 4 5 6 
#
# 1 40.2523 4.6253 55.0228 0.0000 0.0000 0.0000
# 2 4.6253 123.5142 46.5948 0.0000 0.0000 0.0000
# 3 55.0228 46.5948 184.5087 0.0000 0.0000 0.0000
# 4 0.0000 0.0000 0.0000 39.0462 0.0000 0.0000
# 5 0.0000 0.0000 0.0000 0.0000 33.3752 0.0000
# 6 0.0000 0.0000 0.0000 0.0000 0.0000 25.3667
#
#
#
# Elastic Compliance Matrix: (Units=1/GPa)
#
#
# Indices 1 2 3 4 5 6 
#
# 1 0.043337 0.003595 -0.013832 0.000000 0.000000 0.000000
# 2 0.003595 0.009247 -0.003407 0.000000 0.000000 0.000000
# 3 -0.013832 -0.003407 0.010405 0.000000 0.000000 0.000000
# 4 0.000000 0.000000 0.000000 0.025611 0.000000 0.000000
# 5 0.000000 0.000000 0.000000 0.000000 0.029962 0.000000
# 6 0.000000 0.000000 0.000000 0.000000 0.000000 0.039422
#
#
# Mechanical properties :
#
#
# Convention : Reuss Voigt Hill
#
# Bulk Modulus (GPa) = 28.01000 62.30680 45.15840
# Shear Modulus (GPa) = 25.35853 35.69309 30.52581
#
# Velocity S-wave (km/s) = 3.42882 4.06795 3.76198
# Velocity P-wave (km/s) = 5.35368 7.13801 6.30924
#
# Compressibility (1/GPa) = 0.03570153
#
# Stress axis : x y z
#
# Youngs Moduli (GPa) = 23.07483 108.14353 96.10764
#
# Poissons Ratio (x) = -0.38877 1.32932
# Poissons Ratio (y) = -0.08295 0.32746
# Poissons Ratio (z) = 0.31916 0.36847
#
# Static dielectric constant tensor:
#      x y z
#    x 1.765950 0.000000 0.000000 
#    y 0.000000 1.735780 0.000000 
#    z 0.000000 0.000000 1.791200 
# 
# From -- ./inp_files/14674.got.cif
#   From: 2010.05.17/outbox.cif.g08.bks.cpg/sg52_8_cif.got.tgz:14674.got - 2010.06.03 12:15:38.
