data_PCOD9411092
_publ_section_title
;
Structure prediction by ZEFSAII (Michael W. Deem and Ramdas Pophale) SiO2 
 PCOD9411092
Probable space group: P N N A
;
_chemical_formula_sum "Si O2"
_cell_formula_units_Z 40
_cell_length_a 25.838875
_cell_length_b 9.535391
_cell_length_c 8.367818
_cell_angle_alpha 90.000000
_cell_angle_beta 90.000000
_cell_angle_gamma 90.000000
_cell_volume 2061.694597
_symmetry_space_group_name_H-M "P N N A"
_symmetry_group_IT_number 52
_symmetry_cell_setting 'orthorhombic'
loop_
_space_group_symop_operation_xyz
x,y,z
1/2-x,-y,z
x,1/2-y,1/2-z
1/2-x,1/2+y,1/2-z
-x,-y,-z
1/2+x,y,-z
-x,1/2+y,1/2+z
1/2+x,1/2-y,1/2+z
loop_
_atom_site_type_symbol
_atom_site_label
_atom_site_fract_x
_atom_site_fract_y
_atom_site_fract_z
Si Si1 0.750000 0.000000 0.053396
Si Si2 0.781788 0.250000 0.250000
Si Si3 0.141386 0.867448 0.482964
Si Si4 0.356925 0.442970 0.376639
Si Si5 0.549532 0.074514 0.422338
Si Si6 0.450849 0.598670 0.538633
O O1 0.747154 0.139213 0.158127
O O2 0.802989 0.017132 0.958010
O O3 0.817121 0.162228 0.376357
O O4 0.123733 0.709004 0.440673
O O5 0.157225 0.927424 0.309805
O O6 0.097917 0.976199 0.534862
O O7 0.402346 0.545525 0.433208
O O8 0.546663 0.233865 0.487094
O O9 0.552835 0.082254 0.230347
O O10 0.500000 0.000000 0.500000
O O11 0.500000 0.500000 0.500000
#
# Coordination Sequence:
#
# PCOD9411092 Si02
#       6
#     4   4   8   8   8   8
#     4  10  22  40  62  90 122 162 202 250 304 358
#     4  10  22  40  64  88 120 162 204 252 304 366
#     4  10  21  40  62  87 118 160 202 247 304 360
#     4  10  22  40  62  89 122 156 201 252 302 361
#     4  11  23  38  60  88 120 161 203 245 301 362
#     4  11  24  40  59  89 124 157 199 251 301 360
#
# _framework density 19.401515
#
# number of rings (size 3 to 8) (size 9 to 14) (size 15 to 20)
#    0.000    1.600    0.000    4.800    0.000   12.000 
#    0.000    6.000    0.000    0.000    0.000    0.000 
#    0.000    0.000    0.000    0.000    0.000    0.000 
#
# Total GULP energy -222967.428200 kJ/mol
# GULP energy per Si atom -5574.185705 kJ/mol
# Density = 1.935736 g / cm^3
# Si number density = 19.401515 Si / 1000 Ang^3
#
#
#
# Elastic Constant Matrix: (Units=GPa)
#
#
# Indices 1 2 3 4 5 6 
#
# 1 82.4686 96.4864 42.3257 0.0000 0.0000 0.0000
# 2 96.4864 177.4339 80.3592 0.0000 0.0000 0.0000
# 3 42.3257 80.3592 105.7167 0.0000 0.0000 0.0000
# 4 0.0000 0.0000 0.0000 31.2638 0.0000 0.0000
# 5 0.0000 0.0000 0.0000 0.0000 -21.0225 0.0000
# 6 0.0000 0.0000 0.0000 0.0000 0.0000 35.5036
#
#
#
# Elastic Compliance Matrix: (Units=1/GPa)
#
#
# Indices 1 2 3 4 5 6 
#
# 1 0.033363 -0.018442 0.000661 0.000000 0.000000 0.000000
# 2 -0.018442 0.018788 -0.006898 0.000000 0.000000 0.000000
# 3 0.000661 -0.006898 0.014438 0.000000 0.000000 0.000000
# 4 0.000000 0.000000 0.000000 0.031986 0.000000 0.000000
# 5 0.000000 0.000000 0.000000 0.000000 -0.047568 0.000000
# 6 0.000000 0.000000 0.000000 0.000000 0.000000 0.028166
#
#
# Mechanical properties :
#
#
# Convention : Reuss Voigt Hill
#
# Bulk Modulus (GPa) = 58.03410 89.32910 73.68160
# Shear Modulus (GPa) = 37.23666 18.91218 28.07442
#
# Velocity S-wave (km/s) = 4.38570 3.12553 3.80810
# Velocity P-wave (km/s) = 7.45807 7.69204 7.57596
#
# Compressibility (1/GPa) = 0.01723125
#
# Stress axis : x y z
#
# Youngs Moduli (GPa) = 29.97332 53.22422 69.25954
#
# Poissons Ratio (x) = 0.98154 -0.04575
# Poissons Ratio (y) = 0.55276 0.47778
# Poissons Ratio (z) = -0.01980 0.36716
#
# Static dielectric constant tensor:
#      x y z
#    x 1.635840 0.000000 0.000000 
#    y 0.000000 1.665850 0.000000 
#    z 0.000000 0.000000 1.481900 
# 
# From -- ./inp_files/14007.got.cif
#   From: 2010.05.17/outbox.cif.g08.bks.cpg/sg52_8_cif.got.tgz:14007.got - 2010.06.03 12:15:38.
