data_PCOD9411472
_publ_section_title
;
Structure prediction by ZEFSAII (Michael W. Deem and Ramdas Pophale) SiO2 
 PCOD9411472
Probable space group: P N N A
;
_chemical_formula_sum "Si O2"
_cell_formula_units_Z 36
_cell_length_a 8.602803
_cell_length_b 20.180764
_cell_length_c 7.729287
_cell_angle_alpha 90.000000
_cell_angle_beta 90.000000
_cell_angle_gamma 90.000000
_cell_volume 1341.890305
_symmetry_space_group_name_H-M "P N N A"
_symmetry_group_IT_number 52
_symmetry_cell_setting 'orthorhombic'
loop_
_space_group_symop_operation_xyz
x,y,z
1/2-x,-y,z
x,1/2-y,1/2-z
1/2-x,1/2+y,1/2-z
-x,-y,-z
1/2+x,y,-z
-x,1/2+y,1/2+z
1/2+x,1/2-y,1/2+z
loop_
_atom_site_type_symbol
_atom_site_label
_atom_site_fract_x
_atom_site_fract_y
_atom_site_fract_z
Si Si1 0.046699 0.750000 0.750000
Si Si2 0.315940 0.661539 0.425697
Si Si3 0.294154 0.853717 0.674193
Si Si4 0.071053 0.474824 0.316481
Si Si5 0.250000 0.000000 0.612186
Si Si6 0.554228 0.750000 0.750000
O O1 0.152875 0.803546 0.654827
O O2 0.942452 0.717461 0.603956
O O3 0.289736 0.631734 0.616956
O O4 0.393547 0.602265 0.321354
O O5 0.166642 0.698168 0.350706
O O6 0.276219 0.920986 0.565003
O O7 0.442069 0.805738 0.662434
O O8 0.250000 0.500000 0.282155
O O9 0.000000 0.500000 0.500000
O O10 0.925684 0.491393 0.193334
#
# Coordination Sequence:
#
# PCOD9411472 Si02
#       6
#     4   8   8   8   4   4
#     4  10  22  34  52  84 118 156 204 226 304 386
#     4  11  21  37  55  83 131 159 198 254 297 382
#     4  11  21  38  59  88 125 159 195 260 314 372
#     4  12  21  32  56  92 123 164 190 239 337 402
#     4  12  22  36  62  92 128 158 198 262 348 380
#     4  10  24  36  56  88 126 172 216 232 320 400
#
# _framework density 26.827826999999999
#
# number of rings (size 3 to 8) (size 9 to 14) (size 15 to 20)
#    0.000    0.889    5.556    2.667    0.000    0.000 
#    0.000    0.000    0.000    0.000    0.000   24.889 
#    6.667    0.000    0.000    0.000    0.000    0.000 
#
# Total GULP energy -200723.289471 kJ/mol
# GULP energy per Si atom -5575.646930 kJ/mol
# Density = 2.676677 g / cm^3
# Si number density = 26.827827 Si / 1000 Ang^3
#
#
#
# Elastic Constant Matrix: (Units=GPa)
#
#
# Indices 1 2 3 4 5 6 
#
# 1 227.8577 77.8296 35.9540 0.0000 0.0000 0.0000
# 2 77.8296 204.6512 31.3825 0.0000 0.0000 0.0000
# 3 35.9540 31.3825 57.7200 0.0000 0.0000 0.0000
# 4 0.0000 0.0000 0.0000 27.3167 0.0000 0.0000
# 5 0.0000 0.0000 0.0000 0.0000 25.6704 0.0000
# 6 0.0000 0.0000 0.0000 0.0000 0.0000 3.0306
#
#
#
# Elastic Compliance Matrix: (Units=1/GPa)
#
#
# Indices 1 2 3 4 5 6 
#
# 1 0.005337 -0.001658 -0.002423 0.000000 0.000000 0.000000
# 2 -0.001658 0.005846 -0.002146 0.000000 0.000000 0.000000
# 3 -0.002423 -0.002146 0.020001 0.000000 0.000000 0.000000
# 4 0.000000 0.000000 0.000000 0.036608 0.000000 0.000000
# 5 0.000000 0.000000 0.000000 0.000000 0.038955 0.000000
# 6 0.000000 0.000000 0.000000 0.000000 0.000000 0.329966
#
#
# Mechanical properties :
#
#
# Convention : Reuss Voigt Hill
#
# Bulk Modulus (GPa) = 53.38881 86.72902 70.05892
# Shear Modulus (GPa) = 10.97909 34.20772 22.59340
#
# Velocity S-wave (km/s) = 2.02517 3.57470 2.90515
# Velocity P-wave (km/s) = 5.04105 7.03109 6.11753
#
# Compressibility (1/GPa) = 0.01873052
#
# Stress axis : x y z
#
# Youngs Moduli (GPa) = 187.35450 171.05632 49.99769
#
# Poissons Ratio (x) = 0.28366 0.12115
# Poissons Ratio (y) = 0.31069 0.10727
# Poissons Ratio (z) = 0.45398 0.36701
#
# Static dielectric constant tensor:
#      x y z
#    x 2.097830 0.000000 0.000000 
#    y 0.000000 2.039480 0.000000 
#    z 0.000000 0.000000 2.715590 
# 
# From -- ./inp_files/7333.got.cif
#   From: 2010.05.17/outbox.cif.g08.bks.cpg/sg52_4_cif.got.tgz:7333.got - 2010.06.03 12:15:38.
