data_PCOD9411154
_publ_section_title
;
Structure prediction by ZEFSAII (Michael W. Deem and Ramdas Pophale) SiO2 
 PCOD9411154
Probable space group: P N N A
;
_chemical_formula_sum "Si O2"
_cell_formula_units_Z 48
_cell_length_a 10.097966
_cell_length_b 15.624185
_cell_length_c 14.311599
_cell_angle_alpha 90.000000
_cell_angle_beta 90.000000
_cell_angle_gamma 90.000000
_cell_volume 2257.976594
_symmetry_space_group_name_H-M "P N N A"
_symmetry_group_IT_number 52
_symmetry_cell_setting 'orthorhombic'
loop_
_space_group_symop_operation_xyz
x,y,z
1/2-x,-y,z
x,1/2-y,1/2-z
1/2-x,1/2+y,1/2-z
-x,-y,-z
1/2+x,y,-z
-x,1/2+y,1/2+z
1/2+x,1/2-y,1/2+z
loop_
_atom_site_type_symbol
_atom_site_label
_atom_site_fract_x
_atom_site_fract_y
_atom_site_fract_z
Si Si1 0.981476 0.118056 0.607001
Si Si2 0.236030 0.598368 0.438727
Si Si3 0.123222 0.960269 0.580141
Si Si4 0.974499 0.796976 0.024110
Si Si5 0.444672 0.195692 0.659814
Si Si6 0.774637 0.850621 0.729288
O O1 0.963452 0.083724 0.500589
O O2 0.033953 0.215176 0.594362
O O3 0.843930 0.120722 0.662502
O O4 0.065203 0.036944 0.642598
O O5 0.250000 0.500000 0.469183
O O6 0.087358 0.636354 0.443798
O O7 0.335821 0.657920 0.499114
O O8 0.277507 0.604531 0.329674
O O9 0.160856 0.877659 0.640350
O O10 0.250000 0.000000 0.530574
O O11 0.029353 0.757683 0.926917
O O12 0.412392 0.250000 0.750000
O O13 0.583076 0.145843 0.679852
O O14 0.753079 0.750000 0.750000
#
# Coordination Sequence:
#
# PCOD9411154 Si02
#       6
#     8   8   8   8   8   8
#     4  10  23  37  65  94 132 165 210 269 326 396
#     4  12  26  42  70  97 133 172 227 270 324 398
#     4  10  24  37  59  97 132 164 208 266 334 385
#     4  11  22  43  66  93 130 174 216 270 330 395
#     4  10  21  40  66  88 127 172 215 262 329 390
#     4  11  21  42  67  95 119 167 221 263 317 391
#
# _framework density 21.25797
#
# number of rings (size 3 to 8) (size 9 to 14) (size 15 to 20)
#    0.000    1.333    5.000    0.500   14.000    0.000 
#    0.000    3.333    0.000    0.000    0.000    0.000 
#    0.000    0.000    0.000    0.000    0.000    0.000 
#
# Total GULP energy -267697.222537 kJ/mol
# GULP energy per Si atom -5577.025470 kJ/mol
# Density = 2.120959 g / cm^3
# Si number density = 21.257970 Si / 1000 Ang^3
#
#
#
# Elastic Constant Matrix: (Units=GPa)
#
#
# Indices 1 2 3 4 5 6 
#
# 1 44.6389 25.7160 1.4747 0.0000 0.0000 0.0000
# 2 25.7160 105.5835 -11.4742 0.0000 0.0000 0.0000
# 3 1.4747 -11.4742 34.0228 0.0000 0.0000 0.0000
# 4 0.0000 0.0000 0.0000 17.0900 0.0000 0.0000
# 5 0.0000 0.0000 0.0000 0.0000 36.0490 0.0000
# 6 0.0000 0.0000 0.0000 0.0000 0.0000 34.6196
#
#
#
# Elastic Compliance Matrix: (Units=1/GPa)
#
#
# Indices 1 2 3 4 5 6 
#
# 1 0.026442 -0.006814 -0.003444 0.000000 0.000000 0.000000
# 2 -0.006814 0.011588 0.004203 0.000000 0.000000 0.000000
# 3 -0.003444 0.004203 0.030959 0.000000 0.000000 0.000000
# 4 0.000000 0.000000 0.000000 0.058514 0.000000 0.000000
# 5 0.000000 0.000000 0.000000 0.000000 0.027740 0.000000
# 6 0.000000 0.000000 0.000000 0.000000 0.000000 0.028885
#
#
# Mechanical properties :
#
#
# Convention : Reuss Voigt Hill
#
# Bulk Modulus (GPa) = 17.58169 23.96426 20.77297
# Shear Modulus (GPa) = 23.23450 28.78695 26.01073
#
# Velocity S-wave (km/s) = 3.30961 3.68390 3.50176
# Velocity P-wave (km/s) = 4.78469 5.42147 5.11300
#
# Compressibility (1/GPa) = 0.05687737
#
# Stress axis : x y z
#
# Youngs Moduli (GPa) = 37.81931 86.29842 32.30087
#
# Poissons Ratio (x) = 0.58807 0.11125
# Poissons Ratio (y) = 0.25772 -0.13577
# Poissons Ratio (z) = 0.13026 -0.36274
#
# Static dielectric constant tensor:
#      x y z
#    x 1.817060 0.000000 0.000000 
#    y 0.000000 1.857570 0.000000 
#    z 0.000000 0.000000 1.776810 
# 
# From -- ./inp_files/26051.got.cif
#   From: 2010.05.17/outbox.cif.g08.bks.cpg/sg52_14_cif.got.tgz:26051.got - 2010.06.03 12:15:38.
