data_PCOD9411625
_publ_section_title
;
Structure prediction by ZEFSAII (Michael W. Deem and Ramdas Pophale) SiO2 
 PCOD9411625
Probable space group: P N N A
;
_chemical_formula_sum "Si O2"
_cell_formula_units_Z 40
_cell_length_a 9.226629
_cell_length_b 8.124871
_cell_length_c 28.256849
_cell_angle_alpha 90.000000
_cell_angle_beta 90.000000
_cell_angle_gamma 90.000000
_cell_volume 2118.279500
_symmetry_space_group_name_H-M "P N N A"
_symmetry_group_IT_number 52
_symmetry_cell_setting 'orthorhombic'
loop_
_space_group_symop_operation_xyz
x,y,z
1/2-x,-y,z
x,1/2-y,1/2-z
1/2-x,1/2+y,1/2-z
-x,-y,-z
1/2+x,y,-z
-x,1/2+y,1/2+z
1/2+x,1/2-y,1/2+z
loop_
_atom_site_type_symbol
_atom_site_label
_atom_site_fract_x
_atom_site_fract_y
_atom_site_fract_z
Si Si1 0.578397 0.504445 0.335118
Si Si2 0.084467 0.949703 0.453516
Si Si3 0.433122 0.647942 0.140601
Si Si4 0.091904 0.562193 0.769372
Si Si5 0.842787 0.166150 0.894565
O O1 0.750000 0.500000 0.342586
O O2 0.523264 0.683344 0.352430
O O3 0.551285 0.472585 0.279371
O O4 0.480698 0.377307 0.363257
O O5 0.095729 0.757546 0.440588
O O6 0.250000 0.000000 0.460845
O O7 0.028507 0.045603 0.406505
O O8 0.000000 0.000000 0.500000
O O9 0.475090 0.553443 0.188770
O O10 0.267756 0.708782 0.132233
O O11 0.250000 0.500000 0.785760
O O12 0.106923 0.750000 0.750000
O O13 0.750000 0.000000 0.903785
#
# Coordination Sequence:
#
# PCOD9411625 Si02
#       5
#     8   8   8   8   8
#     4   9  18  34  56  83 112 146 186 225 268 325
#     4  10  22  39  57  80 107 137 179 230 279 330
#     4   9  19  36  54  77 111 146 180 227 277 325
#     4   9  18  32  52  81 113 145 187 230 267 317
#     4   9  19  39  58  77 112 146 179 226 278 335
#
# _framework density 18.883247999999998
#
# number of rings (size 3 to 8) (size 9 to 14) (size 15 to 20)
#    0.000    2.800    0.000    0.000    0.000    7.200 
#    0.000   33.000    0.000    0.000    0.000    0.000 
#    0.000    0.000    0.000    0.000    0.000    0.000 
#
# Total GULP energy -222869.843804 kJ/mol
# GULP energy per Si atom -5571.746095 kJ/mol
# Density = 1.884027 g / cm^3
# Si number density = 18.883248 Si / 1000 Ang^3
#
#
#
# Elastic Constant Matrix: (Units=GPa)
#
#
# Indices 1 2 3 4 5 6 
#
# 1 87.5172 36.8308 82.7279 0.0000 0.0000 0.0000
# 2 36.8308 53.6426 56.8933 0.0000 0.0000 0.0000
# 3 82.7279 56.8933 140.6303 0.0000 0.0000 0.0000
# 4 0.0000 0.0000 0.0000 15.5767 0.0000 0.0000
# 5 0.0000 0.0000 0.0000 0.0000 21.7627 0.0000
# 6 0.0000 0.0000 0.0000 0.0000 0.0000 20.1301
#
#
#
# Elastic Compliance Matrix: (Units=1/GPa)
#
#
# Indices 1 2 3 4 5 6 
#
# 1 0.025986 -0.002853 -0.014132 0.000000 0.000000 0.000000
# 2 -0.002853 0.032965 -0.011658 0.000000 0.000000 0.000000
# 3 -0.014132 -0.011658 0.020141 0.000000 0.000000 0.000000
# 4 0.000000 0.000000 0.000000 0.064198 0.000000 0.000000
# 5 0.000000 0.000000 0.000000 0.000000 0.045950 0.000000
# 6 0.000000 0.000000 0.000000 0.000000 0.000000 0.049677
#
#
# Mechanical properties :
#
#
# Convention : Reuss Voigt Hill
#
# Bulk Modulus (GPa) = 45.86094 70.52156 58.19125
# Shear Modulus (GPa) = 16.47592 18.51645 17.49618
#
# Velocity S-wave (km/s) = 2.95704 3.13481 3.04722
# Velocity P-wave (km/s) = 5.99984 7.10844 6.57754
#
# Compressibility (1/GPa) = 0.02180505
#
# Stress axis : x y z
#
# Youngs Moduli (GPa) = 38.48216 30.33489 49.65039
#
# Poissons Ratio (x) = 0.08655 0.70168
# Poissons Ratio (y) = 0.10979 0.57883
# Poissons Ratio (z) = 0.54385 0.35365
#
# Static dielectric constant tensor:
#      x y z
#    x 1.636270 0.000000 0.000000 
#    y 0.000000 1.737740 0.000000 
#    z 0.000000 0.000000 1.658270 
# 
# From -- ./inp_files/42092.got.cif
#   From: 2010.05.17/outbox.cif.g08.bks.cpg/sg52_22_cif.got.tgz:42092.got - 2010.06.03 12:15:38.
