data_PCOD9411955
_publ_section_title
;
Structure prediction by ZEFSAII (Michael W. Deem and Ramdas Pophale) SiO2 
 PCOD9411955
Probable space group: P N N A
;
_chemical_formula_sum "Si O2"
_cell_formula_units_Z 56
_cell_length_a 11.087817
_cell_length_b 12.224967
_cell_length_c 20.463994
_cell_angle_alpha 90.000000
_cell_angle_beta 90.000000
_cell_angle_gamma 90.000000
_cell_volume 2773.857489
_symmetry_space_group_name_H-M "P N N A"
_symmetry_group_IT_number 52
_symmetry_cell_setting 'orthorhombic'
loop_
_space_group_symop_operation_xyz
x,y,z
1/2-x,-y,z
x,1/2-y,1/2-z
1/2-x,1/2+y,1/2-z
-x,-y,-z
1/2+x,y,-z
-x,1/2+y,1/2+z
1/2+x,1/2-y,1/2+z
loop_
_atom_site_type_symbol
_atom_site_label
_atom_site_fract_x
_atom_site_fract_y
_atom_site_fract_z
Si Si1 0.932303 0.724464 0.578065
Si Si2 0.436214 0.165428 0.689376
Si Si3 0.389398 0.018895 0.114446
Si Si4 0.711574 0.877635 0.615270
Si Si5 0.332488 0.833533 0.691105
Si Si6 0.429114 0.460907 0.231635
Si Si7 0.985238 0.755052 0.072060
O O1 0.945448 0.595813 0.592305
O O2 0.810537 0.783334 0.604524
O O3 0.037616 0.778901 0.620318
O O4 0.937595 0.745745 0.501298
O O5 0.441973 0.250000 0.750000
O O6 0.301221 0.117141 0.683650
O O7 0.543536 0.079926 0.702304
O O8 0.250000 0.000000 0.095745
O O9 0.398481 0.032048 0.192690
O O10 0.453798 0.126448 0.085922
O O11 0.670510 0.895329 0.690612
O O12 0.590328 0.835218 0.580388
O O13 0.750000 0.000000 0.592525
O O14 0.314702 0.750000 0.750000
O O15 0.442458 0.905271 0.717716
O O16 0.383079 0.774613 0.625719
#
# Coordination Sequence:
#
# PCOD9411955 Si02
#       7
#     8   8   8   8   8   8   8
#     4  12  26  45  67 103 140 176 234 274 350 409
#     4  11  23  40  66  97 137 179 222 285 331 419
#     4  12  24  43  72 101 139 177 229 289 344 404
#     4  11  24  45  69  99 133 179 228 283 342 407
#     4  10  22  42  67  94 136 181 232 276 342 412
#     4  11  22  42  67 104 131 176 232 285 349 399
#     4  11  26  46  69  99 139 180 228 282 344 422
#
# _framework density 20.188493999999999
#
# number of rings (size 3 to 8) (size 9 to 14) (size 15 to 20)
#    0.000    0.857    5.714    1.286    2.000    0.571 
#    2.571    0.714    0.000    0.000    0.000    0.000 
#    0.000    0.000    0.000    0.000    0.000    0.000 
#
# Total GULP energy -312531.339337 kJ/mol
# GULP energy per Si atom -5580.916774 kJ/mol
# Density = 2.014254 g / cm^3
# Si number density = 20.188494 Si / 1000 Ang^3
#
#
#
# Elastic Constant Matrix: (Units=GPa)
#
#
# Indices 1 2 3 4 5 6 
#
# 1 88.2527 8.9951 17.8220 0.0000 0.0000 0.0000
# 2 8.9951 68.5233 14.1444 0.0000 0.0000 0.0000
# 3 17.8220 14.1444 119.8623 0.0000 0.0000 0.0000
# 4 0.0000 0.0000 0.0000 75.0843 0.0000 0.0000
# 5 0.0000 0.0000 0.0000 0.0000 12.1177 0.0000
# 6 0.0000 0.0000 0.0000 0.0000 0.0000 42.1787
#
#
#
# Elastic Compliance Matrix: (Units=1/GPa)
#
#
# Indices 1 2 3 4 5 6 
#
# 1 0.011780 -0.001214 -0.001608 0.000000 0.000000 0.000000
# 2 -0.001214 0.015083 -0.001599 0.000000 0.000000 0.000000
# 3 -0.001608 -0.001599 0.008771 0.000000 0.000000 0.000000
# 4 0.000000 0.000000 0.000000 0.013318 0.000000 0.000000
# 5 0.000000 0.000000 0.000000 0.000000 0.082524 0.000000
# 6 0.000000 0.000000 0.000000 0.000000 0.000000 0.023709
#
#
# Mechanical properties :
#
#
# Convention : Reuss Voigt Hill
#
# Bulk Modulus (GPa) = 37.32767 39.84011 38.58389
# Shear Modulus (GPa) = 28.90875 41.58794 35.24834
#
# Velocity S-wave (km/s) = 3.78821 4.54363 4.18300
# Velocity P-wave (km/s) = 6.13708 6.87772 6.51792
#
# Compressibility (1/GPa) = 0.02678978
#
# Stress axis : x y z
#
# Youngs Moduli (GPa) = 84.89233 66.29927 114.01533
#
# Poissons Ratio (x) = 0.08051 0.18336
# Poissons Ratio (y) = 0.10309 0.18235
# Poissons Ratio (z) = 0.13652 0.10603
#
# Static dielectric constant tensor:
#      x y z
#    x 1.752940 0.000000 0.000000 
#    y 0.000000 1.702520 0.000000 
#    z 0.000000 0.000000 1.672040 
# 
# From -- ./inp_files/36824.got.cif
#   From: 2010.05.17/outbox.cif.g08.bks.cpg/sg52_19_cif.got.tgz:36824.got - 2010.06.03 12:15:38.
