data_PCOD9411704
_publ_section_title
;
Structure prediction by ZEFSAII (Michael W. Deem and Ramdas Pophale) SiO2 
 PCOD9411704
Probable space group: P N N A
;
_chemical_formula_sum "Si O2"
_cell_formula_units_Z 40
_cell_length_a 9.152484
_cell_length_b 8.028399
_cell_length_c 24.065586
_cell_angle_alpha 90.000000
_cell_angle_beta 90.000000
_cell_angle_gamma 90.000000
_cell_volume 1768.334287
_symmetry_space_group_name_H-M "P N N A"
_symmetry_group_IT_number 52
_symmetry_cell_setting 'orthorhombic'
loop_
_space_group_symop_operation_xyz
x,y,z
1/2-x,-y,z
x,1/2-y,1/2-z
1/2-x,1/2+y,1/2-z
-x,-y,-z
1/2+x,y,-z
-x,1/2+y,1/2+z
1/2+x,1/2-y,1/2+z
loop_
_atom_site_type_symbol
_atom_site_label
_atom_site_fract_x
_atom_site_fract_y
_atom_site_fract_z
Si Si1 0.926306 0.194808 0.809352
Si Si2 0.092404 0.206112 0.188893
Si Si3 0.874479 0.878095 0.098591
Si Si4 0.209885 0.690546 0.999080
Si Si5 0.049091 0.193426 0.067102
O O1 0.985943 0.250000 0.750000
O O2 0.761849 0.264422 0.813010
O O3 0.036742 0.234070 0.858598
O O4 0.912071 0.994595 0.812499
O O5 0.032029 0.250000 0.250000
O O6 0.025400 0.262084 0.129916
O O7 0.790346 0.769146 0.054171
O O8 0.750000 0.000000 0.125189
O O9 0.986506 0.006272 0.069133
O O10 0.250000 0.500000 0.008055
O O11 0.042608 0.712795 0.980638
O O12 0.281106 0.790411 0.050656
#
# Coordination Sequence:
#
# PCOD9411704 Si02
#       5
#     8   8   8   8   8
#     4   9  18  35  59  87 113 149 197 245 291 352
#     4   9  19  37  59  86 116 149 195 241 297 352
#     4   9  20  39  59  82 120 158 203 239 296 368
#     4  11  23  39  57  90 122 154 200 248 303 353
#     4  10  22  40  61  86 117 162 195 247 295 363
#
# _framework density 22.620158
#
# number of rings (size 3 to 8) (size 9 to 14) (size 15 to 20)
#    0.000    2.400    0.000    1.200    2.800    1.600 
#   14.400   10.000    0.000    0.000    0.000    0.000 
#    0.000    0.000    0.000    0.000    0.000    0.000 
#
# Total GULP energy -223216.741203 kJ/mol
# GULP energy per Si atom -5580.418530 kJ/mol
# Density = 2.256867 g / cm^3
# Si number density = 22.620158 Si / 1000 Ang^3
#
#
#
# Elastic Constant Matrix: (Units=GPa)
#
#
# Indices 1 2 3 4 5 6 
#
# 1 70.6993 14.6342 36.2778 0.0000 0.0000 0.0000
# 2 14.6342 32.5784 -11.9404 0.0000 0.0000 0.0000
# 3 36.2778 -11.9404 86.4846 0.0000 0.0000 0.0000
# 4 0.0000 0.0000 0.0000 30.6384 0.0000 0.0000
# 5 0.0000 0.0000 0.0000 0.0000 43.4041 0.0000
# 6 0.0000 0.0000 0.0000 0.0000 0.0000 21.5013
#
#
#
# Elastic Compliance Matrix: (Units=1/GPa)
#
#
# Indices 1 2 3 4 5 6 
#
# 1 0.023252 -0.014767 -0.011792 0.000000 0.000000 0.000000
# 2 -0.014767 0.041709 0.011953 0.000000 0.000000 0.000000
# 3 -0.011792 0.011953 0.018160 0.000000 0.000000 0.000000
# 4 0.000000 0.000000 0.000000 0.032639 0.000000 0.000000
# 5 0.000000 0.000000 0.000000 0.000000 0.023039 0.000000
# 6 0.000000 0.000000 0.000000 0.000000 0.000000 0.046509
#
#
# Mechanical properties :
#
#
# Convention : Reuss Voigt Hill
#
# Bulk Modulus (GPa) = 18.55009 29.74507 24.14758
# Shear Modulus (GPa) = 21.50633 29.16147 25.33390
#
# Velocity S-wave (km/s) = 3.08678 3.59441 3.35023
# Velocity P-wave (km/s) = 4.57415 5.51405 5.06594
#
# Compressibility (1/GPa) = 0.05390809
#
# Stress axis : x y z
#
# Youngs Moduli (GPa) = 43.00709 23.97552 55.06751
#
# Poissons Ratio (x) = 0.35404 0.64937
# Poissons Ratio (y) = 0.63508 -0.65821
# Poissons Ratio (z) = 0.50715 -0.28657
#
# Static dielectric constant tensor:
#      x y z
#    x 1.914890 0.000000 0.000000 
#    y 0.000000 1.831790 0.000000 
#    z 0.000000 0.000000 1.884250 
# 
# From -- ./inp_files/39200.got.cif
#   From: 2010.05.17/outbox.cif.g08.bks.cpg/sg52_20_cif.got.tgz:39200.got - 2010.06.03 12:15:38.
