data_PCOD9411300
_publ_section_title
;
Structure prediction by ZEFSAII (Michael W. Deem and Ramdas Pophale) SiO2 
 PCOD9411300
Probable space group: P N N A
;
_chemical_formula_sum "Si O2"
_cell_formula_units_Z 40
_cell_length_a 6.446958
_cell_length_b 15.764949
_cell_length_c 15.652195
_cell_angle_alpha 90.000000
_cell_angle_beta 90.000000
_cell_angle_gamma 90.000000
_cell_volume 1590.825929
_symmetry_space_group_name_H-M "P N N A"
_symmetry_group_IT_number 52
_symmetry_cell_setting 'orthorhombic'
loop_
_space_group_symop_operation_xyz
x,y,z
1/2-x,-y,z
x,1/2-y,1/2-z
1/2-x,1/2+y,1/2-z
-x,-y,-z
1/2+x,y,-z
-x,1/2+y,1/2+z
1/2+x,1/2-y,1/2+z
loop_
_atom_site_type_symbol
_atom_site_label
_atom_site_fract_x
_atom_site_fract_y
_atom_site_fract_z
Si Si1 0.689018 0.090877 0.389039
Si Si2 0.304363 0.181404 0.318037
Si Si3 0.923991 0.115666 0.215735
Si Si4 0.573645 0.753823 0.082122
Si Si5 0.888312 0.064852 0.030706
O O1 0.456530 0.120326 0.369774
O O2 0.783789 0.089514 0.293548
O O3 0.801817 0.168835 0.435985
O O4 0.750000 0.000000 0.428118
O O5 0.395505 0.250000 0.250000
O O6 0.148684 0.128395 0.257425
O O7 0.155676 0.228634 0.386247
O O8 0.844607 0.201719 0.169842
O O9 0.932621 0.056572 0.133168
O O10 0.601161 0.831485 0.017529
O O11 0.629240 0.047443 0.010994
#
# Coordination Sequence:
#
# PCOD9411300 Si02
#       5
#     8   8   8   8   8
#     4  11  19  30  55  89 117 153 184 241 317 372
#     4   9  16  33  57  81 116 162 193 229 312 374
#     4   8  18  35  50  79 118 150 196 241 285 366
#     4   8  19  36  52  80 118 150 201 245 290 371
#     4  10  21  42  54  76 114 155 205 255 290 347
#
# _framework density 25.144172000000001
#
# number of rings (size 3 to 8) (size 9 to 14) (size 15 to 20)
#    1.200    1.600    0.000    3.600    0.000    3.200 
#   10.800    0.000    0.000    0.000    0.000    1.400 
#    0.000    0.000    0.000    0.000    0.000    0.000 
#
# Total GULP energy -222941.185981 kJ/mol
# GULP energy per Si atom -5573.529650 kJ/mol
# Density = 2.508694 g / cm^3
# Si number density = 25.144172 Si / 1000 Ang^3
#
#
#
# Elastic Constant Matrix: (Units=GPa)
#
#
# Indices 1 2 3 4 5 6 
#
# 1 165.2529 97.0626 46.8475 0.0000 0.0000 0.0000
# 2 97.0626 232.8541 40.3285 0.0000 0.0000 0.0000
# 3 46.8475 40.3285 105.7487 0.0000 0.0000 0.0000
# 4 0.0000 0.0000 0.0000 42.2820 0.0000 0.0000
# 5 0.0000 0.0000 0.0000 0.0000 119.5899 0.0000
# 6 0.0000 0.0000 0.0000 0.0000 0.0000 121.0602
#
#
#
# Elastic Compliance Matrix: (Units=1/GPa)
#
#
# Indices 1 2 3 4 5 6 
#
# 1 0.008646 -0.003149 -0.002630 0.000000 0.000000 0.000000
# 2 -0.003149 0.005745 -0.000796 0.000000 0.000000 0.000000
# 3 -0.002630 -0.000796 0.010925 0.000000 0.000000 0.000000
# 4 0.000000 0.000000 0.000000 0.023651 0.000000 0.000000
# 5 0.000000 0.000000 0.000000 0.000000 0.008362 0.000000
# 6 0.000000 0.000000 0.000000 0.000000 0.000000 0.008260
#
#
# Mechanical properties :
#
#
# Convention : Reuss Voigt Hill
#
# Bulk Modulus (GPa) = 82.18606 96.92587 89.55597
# Shear Modulus (GPa) = 60.39150 77.89421 69.14285
#
# Velocity S-wave (km/s) = 4.90614 5.57192 5.24960
# Velocity P-wave (km/s) = 8.05298 8.94577 8.51109
#
# Compressibility (1/GPa) = 0.01216751
#
# Stress axis : x y z
#
# Youngs Moduli (GPa) = 115.65831 174.06839 91.53433
#
# Poissons Ratio (x) = 0.54808 0.24069
# Poissons Ratio (y) = 0.36417 0.07286
# Poissons Ratio (z) = 0.30413 0.13856
#
# Static dielectric constant tensor:
#      x y z
#    x 2.045310 0.000000 0.000000 
#    y 0.000000 -1.331280 0.000000 
#    z 0.000000 0.000000 1.945130 
# 
# From -- ./inp_files/35056.got.cif
#   From: 2010.05.17/outbox.cif.g08.bks.cpg/sg52_18_cif.got.tgz:35056.got - 2010.06.03 12:15:38.
