data_PCOD9411387
_publ_section_title
;
Structure prediction by ZEFSAII (Michael W. Deem and Ramdas Pophale) SiO2 
 PCOD9411387
Probable space group: P N N A
;
_chemical_formula_sum "Si O2"
_cell_formula_units_Z 48
_cell_length_a 8.881692
_cell_length_b 34.113024
_cell_length_c 7.389147
_cell_angle_alpha 90.000000
_cell_angle_beta 90.000000
_cell_angle_gamma 90.000000
_cell_volume 2238.773899
_symmetry_space_group_name_H-M "P N N A"
_symmetry_group_IT_number 52
_symmetry_cell_setting 'orthorhombic'
loop_
_space_group_symop_operation_xyz
x,y,z
1/2-x,-y,z
x,1/2-y,1/2-z
1/2-x,1/2+y,1/2-z
-x,-y,-z
1/2+x,y,-z
-x,1/2+y,1/2+z
1/2+x,1/2-y,1/2+z
loop_
_atom_site_type_symbol
_atom_site_label
_atom_site_fract_x
_atom_site_fract_y
_atom_site_fract_z
Si Si1 0.689421 0.095742 0.910691
Si Si2 0.616607 0.835670 0.527657
Si Si3 0.801940 0.544229 0.230618
Si Si4 0.598698 0.853959 0.139159
Si Si5 0.390986 0.704881 0.209878
Si Si6 0.398836 0.423357 0.086250
O O1 0.528036 0.112083 0.851058
O O2 0.774104 0.075825 0.744230
O O3 0.680484 0.066643 0.079812
O O4 0.788400 0.132159 0.986680
O O5 0.684535 0.847116 0.329162
O O6 0.492452 0.803934 0.469043
O O7 0.738367 0.818106 0.662317
O O8 0.549978 0.877563 0.587569
O O9 0.750000 0.500000 0.259186
O O10 0.962376 0.548939 0.132318
O O11 0.680720 0.564550 0.098995
O O12 0.493340 0.815117 0.132292
O O13 0.365792 0.750000 0.250000
#
# Coordination Sequence:
#
# PCOD9411387 Si02
#       6
#     8   8   8   8   8   8
#     4  12  23  44  71  99 132 178 236 278 334 419
#     4  10  21  43  68  96 133 179 236 265 335 419
#     4  12  27  43  66 101 139 179 225 292 350 398
#     4  10  23  41  67  99 129 178 224 274 338 399
#     4  10  22  41  66 102 138 173 225 283 341 398
#     4  12  23  44  71  93 136 184 231 280 337 416
#
# _framework density 21.440307000000001
#
# number of rings (size 3 to 8) (size 9 to 14) (size 15 to 20)
#    1.000    0.000    5.000    2.500    0.000    2.667 
#    0.000    0.833    0.000    0.000    0.000    0.000 
#    0.000    0.000    0.000    0.000    0.000    0.000 
#
# Total GULP energy -267802.192709 kJ/mol
# GULP energy per Si atom -5579.212348 kJ/mol
# Density = 2.139151 g / cm^3
# Si number density = 21.440307 Si / 1000 Ang^3
#
#
#
# Elastic Constant Matrix: (Units=GPa)
#
#
# Indices 1 2 3 4 5 6 
#
# 1 63.7269 9.1876 14.5198 0.0000 0.0000 0.0000
# 2 9.1876 89.8573 36.0616 0.0000 0.0000 0.0000
# 3 14.5198 36.0616 62.0200 0.0000 0.0000 0.0000
# 4 0.0000 0.0000 0.0000 18.9770 0.0000 0.0000
# 5 0.0000 0.0000 0.0000 0.0000 24.0355 0.0000
# 6 0.0000 0.0000 0.0000 0.0000 0.0000 20.8044
#
#
#
# Elastic Compliance Matrix: (Units=1/GPa)
#
#
# Indices 1 2 3 4 5 6 
#
# 1 0.016578 -0.000179 -0.003777 0.000000 0.000000 0.000000
# 2 -0.000179 0.014518 -0.008400 0.000000 0.000000 0.000000
# 3 -0.003777 -0.008400 0.021892 0.000000 0.000000 0.000000
# 4 0.000000 0.000000 0.000000 0.052695 0.000000 0.000000
# 5 0.000000 0.000000 0.000000 0.000000 0.041605 0.000000
# 6 0.000000 0.000000 0.000000 0.000000 0.000000 0.048067
#
#
# Mechanical properties :
#
#
# Convention : Reuss Voigt Hill
#
# Bulk Modulus (GPa) = 35.36475 37.23801 36.30138
# Shear Modulus (GPa) = 21.78717 23.15240 22.46978
#
# Velocity S-wave (km/s) = 3.19121 3.28968 3.24082
# Velocity P-wave (km/s) = 5.48715 5.64227 5.56525
#
# Compressibility (1/GPa) = 0.02827674
#
# Stress axis : x y z
#
# Youngs Moduli (GPa) = 60.31961 68.88001 45.67875
#
# Poissons Ratio (x) = 0.01235 0.17253
# Poissons Ratio (y) = 0.01081 0.38368
# Poissons Ratio (z) = 0.22783 0.57856
#
# Static dielectric constant tensor:
#      x y z
#    x 1.772950 0.000000 0.000000 
#    y 0.000000 1.767170 0.000000 
#    z 0.000000 0.000000 1.781100 
# 
# From -- ./inp_files/7698.got.cif
#   From: 2010.05.17/outbox.cif.g08.bks.cpg/sg52_4_cif.got.tgz:7698.got - 2010.06.03 12:15:38.
