data_PCOD9411721
_publ_section_title
;
Structure prediction by ZEFSAII (Michael W. Deem and Ramdas Pophale) SiO2 
 PCOD9411721
Probable space group: P N N A
;
_chemical_formula_sum "Si O2"
_cell_formula_units_Z 48
_cell_length_a 19.702863
_cell_length_b 14.828790
_cell_length_c 8.738539
_cell_angle_alpha 90.000000
_cell_angle_beta 90.000000
_cell_angle_gamma 90.000000
_cell_volume 2553.135600
_symmetry_space_group_name_H-M "P N N A"
_symmetry_group_IT_number 52
_symmetry_cell_setting 'orthorhombic'
loop_
_space_group_symop_operation_xyz
x,y,z
1/2-x,-y,z
x,1/2-y,1/2-z
1/2-x,1/2+y,1/2-z
-x,-y,-z
1/2+x,y,-z
-x,1/2+y,1/2+z
1/2+x,1/2-y,1/2+z
loop_
_atom_site_type_symbol
_atom_site_label
_atom_site_fract_x
_atom_site_fract_y
_atom_site_fract_z
Si Si1 0.630775 0.159358 0.649523
Si Si2 0.770209 0.752927 0.066924
Si Si3 0.016830 0.592540 0.916968
Si Si4 0.817862 0.556827 0.568585
Si Si5 0.937866 0.444728 0.428220
Si Si6 0.388299 0.250408 0.937228
O O1 0.632842 0.250000 0.750000
O O2 0.684434 0.176001 0.513917
O O3 0.554211 0.145199 0.595900
O O4 0.650655 0.079589 0.765550
O O5 0.774245 0.750000 0.250000
O O6 0.690980 0.746620 0.020470
O O7 0.799000 0.848643 0.010463
O O8 0.045513 0.566859 0.750166
O O9 0.071168 0.661143 0.990152
O O10 0.000000 0.500000 0.000000
O O11 0.750000 0.500000 0.586679
O O12 0.870908 0.501736 0.466095
O O13 0.924007 0.342813 0.488148
O O14 0.000000 0.500000 0.500000
O O15 0.391133 0.250000 0.750000
#
# Coordination Sequence:
#
# PCOD9411721 Si02
#       6
#     8   8   8   8   8   8
#     4  10  22  41  63  86 125 163 203 257 320 374
#     4  10  22  40  62  92 124 167 209 264 324 380
#     4  11  24  40  61  93 125 162 208 264 317 373
#     4  11  22  39  63  93 125 166 219 260 315 392
#     4  11  21  40  65  89 122 168 210 253 315 384
#     4   9  20  40  62  86 125 164 207 255 313 378
#
# _framework density 18.800412000000001
#
# number of rings (size 3 to 8) (size 9 to 14) (size 15 to 20)
#    0.000    1.667    3.333    1.500    4.667    1.333 
#    0.000    1.667    0.000    0.000    0.000    0.000 
#    0.000    0.000    0.000    0.000    0.000    0.000 
#
# Total GULP energy -267893.352145 kJ/mol
# GULP energy per Si atom -5581.111503 kJ/mol
# Density = 1.875762 g / cm^3
# Si number density = 18.800412 Si / 1000 Ang^3
#
#
#
# Elastic Constant Matrix: (Units=GPa)
#
#
# Indices 1 2 3 4 5 6 
#
# 1 134.0323 55.7545 31.4826 0.0000 0.0000 0.0000
# 2 55.7545 102.2900 31.5373 0.0000 0.0000 0.0000
# 3 31.4826 31.5373 46.9021 0.0000 0.0000 0.0000
# 4 0.0000 0.0000 0.0000 23.2760 0.0000 0.0000
# 5 0.0000 0.0000 0.0000 0.0000 24.2974 0.0000
# 6 0.0000 0.0000 0.0000 0.0000 0.0000 22.0920
#
#
#
# Elastic Compliance Matrix: (Units=1/GPa)
#
#
# Indices 1 2 3 4 5 6 
#
# 1 0.010189 -0.004346 -0.003917 0.000000 0.000000 0.000000
# 2 -0.004346 0.014187 -0.006622 0.000000 0.000000 0.000000
# 3 -0.003917 -0.006622 0.028403 0.000000 0.000000 0.000000
# 4 0.000000 0.000000 0.000000 0.042963 0.000000 0.000000
# 5 0.000000 0.000000 0.000000 0.000000 0.041157 0.000000
# 6 0.000000 0.000000 0.000000 0.000000 0.000000 0.045265
#
#
# Mechanical properties :
#
#
# Convention : Reuss Voigt Hill
#
# Bulk Modulus (GPa) = 43.46201 57.86369 50.66285
# Shear Modulus (GPa) = 22.76848 24.89641 23.83245
#
# Velocity S-wave (km/s) = 3.48381 3.64297 3.56428
# Velocity P-wave (km/s) = 6.27298 6.96704 6.62910
#
# Compressibility (1/GPa) = 0.02300860
#
# Stress axis : x y z
#
# Youngs Moduli (GPa) = 98.14790 70.48934 35.20767
#
# Poissons Ratio (x) = 0.30634 0.13791
# Poissons Ratio (y) = 0.42654 0.23315
# Poissons Ratio (z) = 0.38444 0.46678
#
# Static dielectric constant tensor:
#      x y z
#    x 1.511190 0.000000 0.000000 
#    y 0.000000 1.654040 0.000000 
#    z 0.000000 0.000000 1.652650 
# 
# From -- ./inp_files/12031.got.cif
#   From: 2010.05.17/outbox.cif.g08.bks.cpg/sg52_7_cif.got.tgz:12031.got - 2010.06.03 12:15:38.
