data_PCOD9411786
_publ_section_title
;
Structure prediction by ZEFSAII (Michael W. Deem and Ramdas Pophale) SiO2 
 PCOD9411786
Probable space group: P N N A
;
_chemical_formula_sum "Si O2"
_cell_formula_units_Z 28
_cell_length_a 7.905962
_cell_length_b 7.998847
_cell_length_c 21.234052
_cell_angle_alpha 90.000000
_cell_angle_beta 90.000000
_cell_angle_gamma 90.000000
_cell_volume 1342.811305
_symmetry_space_group_name_H-M "P N N A"
_symmetry_group_IT_number 52
_symmetry_cell_setting 'orthorhombic'
loop_
_space_group_symop_operation_xyz
x,y,z
1/2-x,-y,z
x,1/2-y,1/2-z
1/2-x,1/2+y,1/2-z
-x,-y,-z
1/2+x,y,-z
-x,1/2+y,1/2+z
1/2+x,1/2-y,1/2+z
loop_
_atom_site_type_symbol
_atom_site_label
_atom_site_fract_x
_atom_site_fract_y
_atom_site_fract_z
Si Si1 0.750000 0.000000 0.633865
Si Si2 0.085255 0.402394 0.795276
Si Si3 0.202630 0.181828 0.909915
Si Si4 0.412134 0.323841 0.021301
O O1 0.788628 0.144184 0.581514
O O2 0.919481 0.997466 0.677979
O O3 0.250000 0.500000 0.767606
O O4 0.028083 0.250000 0.750000
O O5 0.166434 0.311753 0.855353
O O6 0.036877 0.184026 0.952796
O O7 0.250000 0.000000 0.886803
O O8 0.336623 0.257997 0.957267
O O9 0.500000 0.500000 0.000000
#
# Coordination Sequence:
#
# PCOD9411786 Si02
#       4
#     4   8   8   8
#     4  10  22  40  68  96 128 174 224 272 338 402
#     4  11  25  44  68  93 131 182 230 277 335 403
#     4  11  22  36  61  98 134 165 215 273 334 397
#     4  11  19  37  63  92 130 173 213 265 339 399
#
# _framework density 20.851776999999998
#
# number of rings (size 3 to 8) (size 9 to 14) (size 15 to 20)
#    0.000    1.143    2.857    5.143    0.000    1.143 
#    0.000    2.857    6.286    0.000    0.000    0.000 
#    0.000    0.000    0.000    0.000    0.000    0.000 
#
# Total GULP energy -155898.025058 kJ/mol
# GULP energy per Si atom -5567.786609 kJ/mol
# Density = 2.080432 g / cm^3
# Si number density = 20.851777 Si / 1000 Ang^3
#
#
#
# Elastic Constant Matrix: (Units=GPa)
#
#
# Indices 1 2 3 4 5 6 
#
# 1 98.0622 47.6736 23.4939 0.0000 0.0000 0.0000
# 2 47.6736 67.2678 9.9116 0.0000 0.0000 0.0000
# 3 23.4939 9.9116 82.3958 0.0000 0.0000 0.0000
# 4 0.0000 0.0000 0.0000 26.8095 0.0000 0.0000
# 5 0.0000 0.0000 0.0000 0.0000 21.6035 0.0000
# 6 0.0000 0.0000 0.0000 0.0000 0.0000 21.3033
#
#
#
# Elastic Compliance Matrix: (Units=1/GPa)
#
#
# Indices 1 2 3 4 5 6 
#
# 1 0.016414 -0.011141 -0.003340 0.000000 0.000000 0.000000
# 2 -0.011141 0.022696 0.000446 0.000000 0.000000 0.000000
# 3 -0.003340 0.000446 0.013035 0.000000 0.000000 0.000000
# 4 0.000000 0.000000 0.000000 0.037300 0.000000 0.000000
# 5 0.000000 0.000000 0.000000 0.000000 0.046289 0.000000
# 6 0.000000 0.000000 0.000000 0.000000 0.000000 0.046941
#
#
# Mechanical properties :
#
#
# Convention : Reuss Voigt Hill
#
# Bulk Modulus (GPa) = 41.53449 45.54266 43.53857
# Shear Modulus (GPa) = 22.85518 25.05303 23.95410
#
# Velocity S-wave (km/s) = 3.31430 3.47000 3.39304
# Velocity P-wave (km/s) = 5.88288 6.15980 6.02293
#
# Compressibility (1/GPa) = 0.02407637
#
# Stress axis : x y z
#
# Youngs Moduli (GPa) = 60.92393 44.06124 76.71535
#
# Poissons Ratio (x) = 0.49087 0.25623
# Poissons Ratio (y) = 0.67873 -0.03425
# Poissons Ratio (z) = 0.20349 -0.01967
#
# Static dielectric constant tensor:
#      x y z
#    x 1.923260 0.000000 0.000000 
#    y 0.000000 2.072650 0.000000 
#    z 0.000000 0.000000 1.740540 
# 
# From -- ./inp_files/35397.got.cif
#   From: 2010.05.17/outbox.cif.g08.bks.cpg/sg52_18_cif.got.tgz:35397.got - 2010.06.03 12:15:38.
