data_PCOD9411059
_publ_section_title
;
Structure prediction by ZEFSAII (Michael W. Deem and Ramdas Pophale) SiO2 
 PCOD9411059
Probable space group: P N N A
;
_chemical_formula_sum "Si O2"
_cell_formula_units_Z 40
_cell_length_a 9.693986
_cell_length_b 13.913682
_cell_length_c 11.289200
_cell_angle_alpha 90.000000
_cell_angle_beta 90.000000
_cell_angle_gamma 90.000000
_cell_volume 1522.676442
_symmetry_space_group_name_H-M "P N N A"
_symmetry_group_IT_number 52
_symmetry_cell_setting 'orthorhombic'
loop_
_space_group_symop_operation_xyz
x,y,z
1/2-x,-y,z
x,1/2-y,1/2-z
1/2-x,1/2+y,1/2-z
-x,-y,-z
1/2+x,y,-z
-x,1/2+y,1/2+z
1/2+x,1/2-y,1/2+z
loop_
_atom_site_type_symbol
_atom_site_label
_atom_site_fract_x
_atom_site_fract_y
_atom_site_fract_z
Si Si1 0.750000 0.500000 0.160255
Si Si2 0.304967 0.867248 0.883284
Si Si3 0.116298 0.750000 0.750000
Si Si4 0.970546 0.925332 0.636075
Si Si5 0.180215 0.871442 0.353022
Si Si6 0.879950 0.165871 0.913156
O O1 0.699745 0.421991 0.257549
O O2 0.620975 0.541670 0.087123
O O3 0.224033 0.768180 0.855404
O O4 0.462437 0.866475 0.918403
O O5 0.207365 0.894870 0.992277
O O6 0.023686 0.844960 0.731040
O O7 0.832126 0.875944 0.587458
O O8 0.904493 0.029574 0.662084
O O9 0.194468 0.847669 0.213078
O O10 0.104956 0.782827 0.416382
#
# Coordination Sequence:
#
# PCOD9411059 Si02
#       6
#     4   8   4   8   8   8
#     4  10  22  40  64  98 128 168 214 268 334 378
#     4  11  25  40  64  93 132 166 220 263 327 380
#     4  10  22  42  66  86 128 170 218 264 322 374
#     4  10  21  39  69  93 122 171 212 262 317 386
#     4  10  22  42  66  90 133 165 213 256 326 377
#     4  11  24  41  64  96 128 171 207 266 318 387
#
# _framework density 26.269532000000002
#
# number of rings (size 3 to 8) (size 9 to 14) (size 15 to 20)
#    0.000    1.600    2.000    2.400   11.200    2.400 
#    0.000    1.000    0.000    0.000    0.000    0.000 
#    0.000    0.000    0.000    0.000    0.000    0.000 
#
# Total GULP energy -222743.980268 kJ/mol
# GULP energy per Si atom -5568.599507 kJ/mol
# Density = 2.620974 g / cm^3
# Si number density = 26.269532 Si / 1000 Ang^3
#
#
#
# Elastic Constant Matrix: (Units=GPa)
#
#
# Indices 1 2 3 4 5 6 
#
# 1 249.0819 34.8689 28.6879 0.0000 0.0000 0.0000
# 2 34.8689 113.5953 21.1199 0.0000 0.0000 0.0000
# 3 28.6879 21.1199 79.5975 0.0000 0.0000 0.0000
# 4 0.0000 0.0000 0.0000 14.0265 0.0000 0.0000
# 5 0.0000 0.0000 0.0000 0.0000 57.4324 0.0000
# 6 0.0000 0.0000 0.0000 0.0000 0.0000 30.0005
#
#
#
# Elastic Compliance Matrix: (Units=1/GPa)
#
#
# Indices 1 2 3 4 5 6 
#
# 1 0.004313 -0.001089 -0.001266 0.000000 0.000000 0.000000
# 2 -0.001089 0.009535 -0.002138 0.000000 0.000000 0.000000
# 3 -0.001266 -0.002138 0.013587 0.000000 0.000000 0.000000
# 4 0.000000 0.000000 0.000000 0.071294 0.000000 0.000000
# 5 0.000000 0.000000 0.000000 0.000000 0.017412 0.000000
# 6 0.000000 0.000000 0.000000 0.000000 0.000000 0.033333
#
#
# Mechanical properties :
#
#
# Convention : Reuss Voigt Hill
#
# Bulk Modulus (GPa) = 54.19845 67.95870 61.07857
# Shear Modulus (GPa) = 30.37556 44.13175 37.25366
#
# Velocity S-wave (km/s) = 3.40414 4.10318 3.76989
# Velocity P-wave (km/s) = 6.01060 6.95514 6.50005
#
# Compressibility (1/GPa) = 0.01845071
#
# Stress axis : x y z
#
# Youngs Moduli (GPa) = 231.86277 104.87951 73.60245
#
# Poissons Ratio (x) = 0.11417 0.09315
# Poissons Ratio (y) = 0.25240 0.15733
# Poissons Ratio (z) = 0.29344 0.22419
#
# Static dielectric constant tensor:
#      x y z
#    x 2.012590 0.000000 0.000000 
#    y 0.000000 2.205980 0.000000 
#    z 0.000000 0.000000 2.258350 
# 
# From -- ./inp_files/24482.got.cif
#   From: 2010.05.17/outbox.cif.g08.bks.cpg/sg52_13_cif.got.tgz:24482.got - 2010.06.03 12:15:38.
