data_PCOD9411657
_publ_section_title
;
Structure prediction by ZEFSAII (Michael W. Deem and Ramdas Pophale) SiO2 
 PCOD9411657
Probable space group: P N N A
;
_chemical_formula_sum "Si O2"
_cell_formula_units_Z 48
_cell_length_a 8.745313
_cell_length_b 20.371578
_cell_length_c 11.285599
_cell_angle_alpha 90.000000
_cell_angle_beta 90.000000
_cell_angle_gamma 90.000000
_cell_volume 2010.595211
_symmetry_space_group_name_H-M "P N N A"
_symmetry_group_IT_number 52
_symmetry_cell_setting 'orthorhombic'
loop_
_space_group_symop_operation_xyz
x,y,z
1/2-x,-y,z
x,1/2-y,1/2-z
1/2-x,1/2+y,1/2-z
-x,-y,-z
1/2+x,y,-z
-x,1/2+y,1/2+z
1/2+x,1/2-y,1/2+z
loop_
_atom_site_type_symbol
_atom_site_label
_atom_site_fract_x
_atom_site_fract_y
_atom_site_fract_z
Si Si1 0.932227 0.776834 0.875298
Si Si2 0.416334 0.469076 0.112589
Si Si3 0.687449 0.632427 0.485412
Si Si4 0.878983 0.321537 0.984623
Si Si5 0.378432 0.803353 0.667257
Si Si6 0.059774 0.075917 0.836217
O O1 0.870858 0.750000 0.750000
O O2 0.069206 0.830746 0.895667
O O3 0.014319 0.708892 0.914055
O O4 0.798839 0.811733 0.955207
O O5 0.250000 0.500000 0.128962
O O6 0.509804 0.476857 0.236600
O O7 0.500000 0.500000 0.000000
O O8 0.396393 0.393536 0.070761
O O9 0.585685 0.597048 0.585380
O O10 0.794766 0.577568 0.423487
O O11 0.719167 0.320245 0.051851
O O12 0.954937 0.279237 0.877463
O O13 0.302649 0.750000 0.750000
O O14 0.395686 0.864558 0.750765
#
# Coordination Sequence:
#
# PCOD9411657 Si02
#       6
#     8   8   8   8   8   8
#     4  11  22  35  59  94 132 172 208 250 323 414
#     4  11  25  45  68  94 124 170 231 290 334 376
#     4  10  22  39  62  98 135 170 211 260 334 423
#     4  11  22  38  61  91 127 165 209 266 326 383
#     4  11  22  37  59  91 129 166 204 256 323 405
#     4  10  22  42  65  92 130 167 212 272 329 397
#
# _framework density 23.873529000000001
#
# number of rings (size 3 to 8) (size 9 to 14) (size 15 to 20)
#    0.000    1.333    0.000    7.500    0.000    8.667 
#    0.000    4.167    0.000    0.000    0.000    0.000 
#    0.000    0.000    0.000    0.000    0.000    0.000 
#
# Total GULP energy -267211.795751 kJ/mol
# GULP energy per Si atom -5566.912411 kJ/mol
# Density = 2.381919 g / cm^3
# Si number density = 23.873529 Si / 1000 Ang^3
#
#
#
# Elastic Constant Matrix: (Units=GPa)
#
#
# Indices 1 2 3 4 5 6 
#
# 1 118.7266 15.6029 65.2730 0.0000 0.0000 0.0000
# 2 15.6029 35.0275 18.8718 0.0000 0.0000 0.0000
# 3 65.2730 18.8718 100.2930 0.0000 0.0000 0.0000
# 4 0.0000 0.0000 0.0000 37.9834 0.0000 0.0000
# 5 0.0000 0.0000 0.0000 0.0000 59.5650 0.0000
# 6 0.0000 0.0000 0.0000 0.0000 0.0000 10.6841
#
#
#
# Elastic Compliance Matrix: (Units=1/GPa)
#
#
# Indices 1 2 3 4 5 6 
#
# 1 0.013176 -0.001390 -0.008314 0.000000 0.000000 0.000000
# 2 -0.001390 0.031916 -0.005101 0.000000 0.000000 0.000000
# 3 -0.008314 -0.005101 0.016341 0.000000 0.000000 0.000000
# 4 0.000000 0.000000 0.000000 0.026327 0.000000 0.000000
# 5 0.000000 0.000000 0.000000 0.000000 0.016788 0.000000
# 6 0.000000 0.000000 0.000000 0.000000 0.000000 0.093597
#
#
# Mechanical properties :
#
#
# Convention : Reuss Voigt Hill
#
# Bulk Modulus (GPa) = 31.42238 50.39361 40.90800
# Shear Modulus (GPa) = 20.97631 31.93313 26.45472
#
# Velocity S-wave (km/s) = 2.96741 3.66128 3.33245
# Velocity P-wave (km/s) = 4.99312 6.24722 5.65504
#
# Compressibility (1/GPa) = 0.03182445
#
# Stress axis : x y z
#
# Youngs Moduli (GPa) = 75.89507 31.33184 61.19435
#
# Poissons Ratio (x) = 0.04355 0.50875
# Poissons Ratio (y) = 0.10550 0.31215
# Poissons Ratio (z) = 0.63097 0.15982
#
# Static dielectric constant tensor:
#      x y z
#    x 2.097460 0.000000 0.000000 
#    y 0.000000 1.997800 0.000000 
#    z 0.000000 0.000000 2.086090 
# 
# From -- ./inp_files/16957.got.cif
#   From: 2010.05.17/outbox.cif.g08.bks.cpg/sg52_9_cif.got.tgz:16957.got - 2010.06.03 12:15:38.
