data_PCOD9411230
_publ_section_title
;
Structure prediction by ZEFSAII (Michael W. Deem and Ramdas Pophale) SiO2 
 PCOD9411230
Probable space group: P N N A
;
_chemical_formula_sum "Si O2"
_cell_formula_units_Z 60
_cell_length_a 14.848487
_cell_length_b 24.771843
_cell_length_c 7.607056
_cell_angle_alpha 90.000000
_cell_angle_beta 90.000000
_cell_angle_gamma 90.000000
_cell_volume 2798.060723
_symmetry_space_group_name_H-M "P N N A"
_symmetry_group_IT_number 52
_symmetry_cell_setting 'orthorhombic'
loop_
_space_group_symop_operation_xyz
x,y,z
1/2-x,-y,z
x,1/2-y,1/2-z
1/2-x,1/2+y,1/2-z
-x,-y,-z
1/2+x,y,-z
-x,1/2+y,1/2+z
1/2+x,1/2-y,1/2+z
loop_
_atom_site_type_symbol
_atom_site_label
_atom_site_fract_x
_atom_site_fract_y
_atom_site_fract_z
Si Si1 0.712300 0.055541 0.490649
Si Si2 0.981340 0.417513 0.434243
Si Si3 0.007374 0.204514 0.390807
Si Si4 0.452031 0.250000 0.250000
Si Si5 0.966375 0.978008 0.292952
Si Si6 0.399578 0.402194 0.999448
Si Si7 0.647720 0.359794 0.720095
Si Si8 0.156554 0.650236 0.373894
O O1 0.632860 0.040488 0.355750
O O2 0.670644 0.093064 0.640777
O O3 0.750000 0.000000 0.573238
O O4 0.696327 0.918226 0.413506
O O5 0.969825 0.459903 0.275261
O O6 0.892008 0.384077 0.476561
O O7 0.006769 0.448303 0.612404
O O8 0.065375 0.378828 0.398894
O O9 0.973771 0.250000 0.250000
O O10 0.107601 0.189512 0.329771
O O11 0.007919 0.224119 0.591798
O O12 0.951838 0.147272 0.403449
O O13 0.389080 0.292079 0.352136
O O14 0.038438 0.953128 0.433736
O O15 0.366822 0.377728 0.187102
O O16 0.736762 0.347242 0.612345
#
# Coordination Sequence:
#
# PCOD9411230 Si02
#       8
#     8   8   8   4   8   8   8   8
#     4  11  23  37  64  97 131 184 225 281 348 431
#     4  10  22  40  65  96 133 182 222 287 349 432
#     4  11  23  42  74 101 131 186 240 296 364 431
#     4  10  22  46  70  92 140 182 228 304 370 414
#     4  10  21  41  63  93 137 181 229 274 355 428
#     4   9  20  41  64  92 137 171 229 287 347 415
#     4  11  23  41  68  97 137 175 237 284 359 432
#     4   9  21  41  66  93 132 177 218 298 355 411
#
# _framework density 21.443422999999999
#
# number of rings (size 3 to 8) (size 9 to 14) (size 15 to 20)
#    0.000    1.867    1.333    1.600    2.800    3.200 
#    2.400    0.000   13.200    0.000    0.000    0.000 
#    0.000    0.000    0.000    0.000    0.000    0.000 
#
# Total GULP energy -334914.293099 kJ/mol
# GULP energy per Si atom -5581.904885 kJ/mol
# Density = 2.139462 g / cm^3
# Si number density = 21.443423 Si / 1000 Ang^3
#
#
#
# Elastic Constant Matrix: (Units=GPa)
#
#
# Indices 1 2 3 4 5 6 
#
# 1 172.5681 51.9804 50.7069 0.0000 0.0000 0.0000
# 2 51.9804 102.2353 31.5146 0.0000 0.0000 0.0000
# 3 50.7069 31.5146 110.8787 0.0000 0.0000 0.0000
# 4 0.0000 0.0000 0.0000 9.7707 0.0000 0.0000
# 5 0.0000 0.0000 0.0000 0.0000 30.6355 0.0000
# 6 0.0000 0.0000 0.0000 0.0000 0.0000 18.5007
#
#
#
# Elastic Compliance Matrix: (Units=1/GPa)
#
#
# Indices 1 2 3 4 5 6 
#
# 1 0.007449 -0.003000 -0.002554 0.000000 0.000000 0.000000
# 2 -0.003000 0.011929 -0.002019 0.000000 0.000000 0.000000
# 3 -0.002554 -0.002019 0.010760 0.000000 0.000000 0.000000
# 4 0.000000 0.000000 0.000000 0.102346 0.000000 0.000000
# 5 0.000000 0.000000 0.000000 0.000000 0.032642 0.000000
# 6 0.000000 0.000000 0.000000 0.000000 0.000000 0.054052
#
#
# Mechanical properties :
#
#
# Convention : Reuss Voigt Hill
#
# Bulk Modulus (GPa) = 66.69565 72.67622 69.68593
# Shear Modulus (GPa) = 20.89243 28.54675 24.71959
#
# Velocity S-wave (km/s) = 3.12477 3.65260 3.39895
# Velocity P-wave (km/s) = 6.64752 7.19405 6.92618
#
# Compressibility (1/GPa) = 0.01499348
#
# Stress axis : x y z
#
# Youngs Moduli (GPa) = 134.24814 83.82984 92.93262
#
# Poissons Ratio (x) = 0.25150 0.23733
# Poissons Ratio (y) = 0.40275 0.18759
# Poissons Ratio (z) = 0.34285 0.16921
#
# Static dielectric constant tensor:
#      x y z
#    x 1.768490 0.000000 0.000000 
#    y 0.000000 1.885470 0.000000 
#    z 0.000000 0.000000 1.823510 
# 
# From -- ./inp_files/10959.got.cif
#   From: 2010.05.17/outbox.cif.g08.bks.cpg/sg52_6_cif.got.tgz:10959.got - 2010.06.03 12:15:38.
