data_PCOD9411246
_publ_section_title
;
Structure prediction by ZEFSAII (Michael W. Deem and Ramdas Pophale) SiO2 
 PCOD9411246
Probable space group: P N N A
;
_chemical_formula_sum "Si O2"
_cell_formula_units_Z 40
_cell_length_a 15.479884
_cell_length_b 13.184736
_cell_length_c 8.167315
_cell_angle_alpha 90.000000
_cell_angle_beta 90.000000
_cell_angle_gamma 90.000000
_cell_volume 1666.934158
_symmetry_space_group_name_H-M "P N N A"
_symmetry_group_IT_number 52
_symmetry_cell_setting 'orthorhombic'
loop_
_space_group_symop_operation_xyz
x,y,z
1/2-x,-y,z
x,1/2-y,1/2-z
1/2-x,1/2+y,1/2-z
-x,-y,-z
1/2+x,y,-z
-x,1/2+y,1/2+z
1/2+x,1/2-y,1/2+z
loop_
_atom_site_type_symbol
_atom_site_label
_atom_site_fract_x
_atom_site_fract_y
_atom_site_fract_z
Si Si1 0.637763 0.357065 0.351455
Si Si2 0.765014 0.615489 0.889689
Si Si3 0.801223 0.332570 0.527427
Si Si4 0.944682 0.594996 0.044519
Si Si5 0.012557 0.791079 0.935702
O O1 0.638359 0.250000 0.250000
O O2 0.733937 0.380635 0.402571
O O3 0.574310 0.348824 0.507588
O O4 0.597828 0.429685 0.217787
O O5 0.750000 0.500000 0.945162
O O6 0.728512 0.628659 0.705950
O O7 0.720402 0.710982 0.979771
O O8 0.868140 0.625905 0.918577
O O9 0.900226 0.349175 0.482767
O O10 0.008417 0.690760 0.049876
O O11 0.000000 0.500000 0.000000
O O12 0.014734 0.750000 0.750000
#
# Coordination Sequence:
#
# PCOD9411246 Si02
#       5
#     8   8   8   8   8
#     4  10  21  41  65  97 128 175 228 278 341 423
#     4  11  24  41  67  99 136 180 231 282 349 418
#     4  11  23  43  70  93 139 180 225 289 347 418
#     4  11  24  43  68  98 139 175 232 293 347 423
#     4  11  23  40  68  95 128 178 226 271 357 412
#
# _framework density 23.996148999999999
#
# number of rings (size 3 to 8) (size 9 to 14) (size 15 to 20)
#    0.000    1.200    4.000    3.000   11.200    0.000 
#    3.600    2.000    0.000    0.000    0.000    0.000 
#    0.000    0.000    0.000    0.000    0.000    0.000 
#
# Total GULP energy -223585.108934 kJ/mol
# GULP energy per Si atom -5589.627723 kJ/mol
# Density = 2.394153 g / cm^3
# Si number density = 23.996149 Si / 1000 Ang^3
#
#
#
# Elastic Constant Matrix: (Units=GPa)
#
#
# Indices 1 2 3 4 5 6 
#
# 1 154.6627 3.9210 41.7294 0.0000 0.0000 0.0000
# 2 3.9210 65.6502 -10.5565 0.0000 0.0000 0.0000
# 3 41.7294 -10.5565 117.9756 0.0000 0.0000 0.0000
# 4 0.0000 0.0000 0.0000 17.8404 0.0000 0.0000
# 5 0.0000 0.0000 0.0000 0.0000 18.2749 0.0000
# 6 0.0000 0.0000 0.0000 0.0000 0.0000 18.4591
#
#
#
# Elastic Compliance Matrix: (Units=1/GPa)
#
#
# Indices 1 2 3 4 5 6 
#
# 1 0.007194 -0.000851 -0.002621 0.000000 0.000000 0.000000
# 2 -0.000851 0.015555 0.001693 0.000000 0.000000 0.000000
# 3 -0.002621 0.001693 0.009555 0.000000 0.000000 0.000000
# 4 0.000000 0.000000 0.000000 0.056052 0.000000 0.000000
# 5 0.000000 0.000000 0.000000 0.000000 0.054720 0.000000
# 6 0.000000 0.000000 0.000000 0.000000 0.000000 0.054174
#
#
# Mechanical properties :
#
#
# Convention : Reuss Voigt Hill
#
# Bulk Modulus (GPa) = 34.78699 45.38628 40.08663
# Shear Modulus (GPa) = 23.76526 31.12785 27.44656
#
# Velocity S-wave (km/s) = 3.15044 3.60558 3.38567
# Velocity P-wave (km/s) = 5.26897 6.02400 5.65909
#
# Compressibility (1/GPa) = 0.02874638
#
# Stress axis : x y z
#
# Youngs Moduli (GPa) = 138.99688 64.28679 104.65870
#
# Poissons Ratio (x) = 0.05472 0.27430
# Poissons Ratio (y) = 0.11831 -0.17718
# Poissons Ratio (z) = 0.36430 -0.10883
#
# Static dielectric constant tensor:
#      x y z
#    x 1.906820 0.000000 0.000000 
#    y 0.000000 1.972420 0.000000 
#    z 0.000000 0.000000 1.981410 
# 
# From -- ./inp_files/10054.got.cif
#   From: 2010.05.17/outbox.cif.g08.bks.cpg/sg52_6_cif.got.tgz:10054.got - 2010.06.03 12:15:38.
