data_PCOD9411008
_publ_section_title
;
Structure prediction by ZEFSAII (Michael W. Deem and Ramdas Pophale) SiO2 
 PCOD9411008
Probable space group: P N N A
;
_chemical_formula_sum "Si O2"
_cell_formula_units_Z 56
_cell_length_a 18.951882
_cell_length_b 8.893097
_cell_length_c 14.085487
_cell_angle_alpha 90.000000
_cell_angle_beta 90.000000
_cell_angle_gamma 90.000000
_cell_volume 2373.981007
_symmetry_space_group_name_H-M "P N N A"
_symmetry_group_IT_number 52
_symmetry_cell_setting 'orthorhombic'
loop_
_space_group_symop_operation_xyz
x,y,z
1/2-x,-y,z
x,1/2-y,1/2-z
1/2-x,1/2+y,1/2-z
-x,-y,-z
1/2+x,y,-z
-x,1/2+y,1/2+z
1/2+x,1/2-y,1/2+z
loop_
_atom_site_type_symbol
_atom_site_label
_atom_site_fract_x
_atom_site_fract_y
_atom_site_fract_z
Si Si1 0.158841 0.670154 0.981219
Si Si2 0.325055 0.561300 0.151362
Si Si3 0.376087 0.518282 0.811666
Si Si4 0.712420 0.144635 0.941255
Si Si5 0.378746 0.842237 0.880653
Si Si6 0.475582 0.875058 0.328216
Si Si7 0.992227 0.320190 0.511332
O O1 0.158401 0.613013 0.873298
O O2 0.226050 0.769234 0.002971
O O3 0.087694 0.760267 0.008989
O O4 0.164228 0.524956 0.050419
O O5 0.250000 0.500000 0.188303
O O6 0.401702 0.545574 0.198445
O O7 0.316104 0.738775 0.134931
O O8 0.349961 0.679241 0.850378
O O9 0.366232 0.532484 0.699007
O O10 0.459014 0.488018 0.831119
O O11 0.653655 0.108562 0.019473
O O12 0.750000 0.000000 0.899597
O O13 0.461424 0.805048 0.894108
O O14 0.492528 0.750000 0.250000
O O15 0.472549 0.784307 0.428553
O O16 0.000000 0.500000 0.500000
#
# Coordination Sequence:
#
# PCOD9411008 Si02
#       7
#     8   8   8   8   8   8   8
#     4  10  21  39  65  90 127 165 216 257 316 390
#     4  10  21  41  66  89 119 166 218 252 316 387
#     4  10  22  39  60  94 123 162 209 255 313 382
#     4  11  22  39  60  94 127 164 208 262 317 378
#     4  11  21  39  62  89 127 160 210 256 313 375
#     4  11  22  39  64  87 126 164 209 270 323 376
#     4  11  21  36  63  92 121 162 207 261 320 373
#
# _framework density 23.589067
#
# number of rings (size 3 to 8) (size 9 to 14) (size 15 to 20)
#    0.000    1.429    2.857    2.571    0.000    3.429 
#    5.143    0.714    6.286    0.000    0.000    0.000 
#    0.000    0.000    0.000    0.000    0.000    0.000 
#
# Total GULP energy -312848.168425 kJ/mol
# GULP energy per Si atom -5586.574436 kJ/mol
# Density = 2.353538 g / cm^3
# Si number density = 23.589067 Si / 1000 Ang^3
#
#
#
# Elastic Constant Matrix: (Units=GPa)
#
#
# Indices 1 2 3 4 5 6 
#
# 1 95.0708 9.6690 3.3433 0.0000 0.0000 0.0000
# 2 9.6690 87.8076 18.5157 0.0000 0.0000 0.0000
# 3 3.3433 18.5157 78.1580 0.0000 0.0000 0.0000
# 4 0.0000 0.0000 0.0000 16.5554 0.0000 0.0000
# 5 0.0000 0.0000 0.0000 0.0000 -0.9115 0.0000
# 6 0.0000 0.0000 0.0000 0.0000 0.0000 38.3533
#
#
#
# Elastic Compliance Matrix: (Units=1/GPa)
#
#
# Indices 1 2 3 4 5 6 
#
# 1 0.010640 -0.001132 -0.000187 0.000000 0.000000 0.000000
# 2 -0.001132 0.012108 -0.002820 0.000000 0.000000 0.000000
# 3 -0.000187 -0.002820 0.013471 0.000000 0.000000 0.000000
# 4 0.000000 0.000000 0.000000 0.060403 0.000000 0.000000
# 5 0.000000 0.000000 0.000000 0.000000 -1.097034 0.000000
# 6 0.000000 0.000000 0.000000 0.000000 0.000000 0.026073
#
#
# Mechanical properties :
#
#
# Convention : Reuss Voigt Hill
#
# Bulk Modulus (GPa) = 35.79033 36.01027 35.90030
# Shear Modulus (GPa) = -5.22604 26.10000 10.43698
#
# Velocity S-wave (km/s) = -1.49005 3.32993 2.10573
# Velocity P-wave (km/s) = 3.49929 5.48484 4.60046
#
# Compressibility (1/GPa) = 0.02794051
#
# Stress axis : x y z
#
# Youngs Moduli (GPa) = 93.98317 82.59112 74.23554
#
# Poissons Ratio (x) = 0.09351 0.01388
# Poissons Ratio (y) = 0.10641 0.20934
# Poissons Ratio (z) = 0.01757 0.23290
#
# Static dielectric constant tensor:
#      x y z
#    x 1.903690 0.000000 0.000000 
#    y 0.000000 1.951320 0.000000 
#    z 0.000000 0.000000 1.902740 
# 
# From -- ./inp_files/28781.got.cif
#   From: 2010.05.17/outbox.cif.g08.bks.cpg/sg52_15_cif.got.tgz:28781.got - 2010.06.03 12:15:38.
