data_PCOD9411446
_publ_section_title
;
Structure prediction by ZEFSAII (Michael W. Deem and Ramdas Pophale) SiO2 
 PCOD9411446
Probable space group: P N N A
;
_chemical_formula_sum "Si O2"
_cell_formula_units_Z 28
_cell_length_a 5.041431
_cell_length_b 11.551980
_cell_length_c 17.739777
_cell_angle_alpha 90.000000
_cell_angle_beta 90.000000
_cell_angle_gamma 90.000000
_cell_volume 1033.138182
_symmetry_space_group_name_H-M "P N N A"
_symmetry_group_IT_number 52
_symmetry_cell_setting 'orthorhombic'
loop_
_space_group_symop_operation_xyz
x,y,z
1/2-x,-y,z
x,1/2-y,1/2-z
1/2-x,1/2+y,1/2-z
-x,-y,-z
1/2+x,y,-z
-x,1/2+y,1/2+z
1/2+x,1/2-y,1/2+z
loop_
_atom_site_type_symbol
_atom_site_label
_atom_site_fract_x
_atom_site_fract_y
_atom_site_fract_z
Si Si1 0.409022 0.307765 0.674186
Si Si2 0.250000 0.000000 0.253443
Si Si3 0.545928 0.337737 0.455297
Si Si4 0.817594 0.379042 0.896629
O O1 0.303097 0.250000 0.750000
O O2 0.602661 0.407664 0.702736
O O3 0.179258 0.364044 0.624023
O O4 0.578448 0.208850 0.628778
O O5 0.423666 0.072422 0.315438
O O6 0.258005 0.374665 0.482172
O O7 0.513426 0.198774 0.445306
O O8 0.250000 0.500000 0.064344
#
# Coordination Sequence:
#
# PCOD9411446 Si02
#       4
#     8   4   8   8
#     4  10  21  45  72 105 141 187 248 299 357 435
#     4   8  20  44  76 104 138 192 250 312 350 422
#     4  12  25  46  72 105 151 191 232 296 368 439
#     4   9  21  42  70 105 140 186 238 298 366 420
#
# _framework density 27.101894999999999
#
# number of rings (size 3 to 8) (size 9 to 14) (size 15 to 20)
#    0.857    1.143    2.857    0.000    0.000    5.714 
#    0.000    5.714    0.000    0.000    0.000    0.000 
#    0.000    0.000    0.000    0.000    0.000    0.000 
#
# Total GULP energy -156502.396704 kJ/mol
# GULP energy per Si atom -5589.371311 kJ/mol
# Density = 2.704021 g / cm^3
# Si number density = 27.101895 Si / 1000 Ang^3
#
#
#
# Elastic Constant Matrix: (Units=GPa)
#
#
# Indices 1 2 3 4 5 6 
#
# 1 77.8453 40.1374 17.6744 0.0000 0.0000 0.0000
# 2 40.1374 191.6352 31.5567 0.0000 0.0000 0.0000
# 3 17.6744 31.5567 103.7623 0.0000 0.0000 0.0000
# 4 0.0000 0.0000 0.0000 26.7543 0.0000 0.0000
# 5 0.0000 0.0000 0.0000 0.0000 241.6901 0.0000
# 6 0.0000 0.0000 0.0000 0.0000 0.0000 29.3476
#
#
#
# Elastic Compliance Matrix: (Units=1/GPa)
#
#
# Indices 1 2 3 4 5 6 
#
# 1 0.014664 -0.002800 -0.001646 0.000000 0.000000 0.000000
# 2 -0.002800 0.006028 -0.001356 0.000000 0.000000 0.000000
# 3 -0.001646 -0.001356 0.010330 0.000000 0.000000 0.000000
# 4 0.000000 0.000000 0.000000 0.037377 0.000000 0.000000
# 5 0.000000 0.000000 0.000000 0.000000 0.004138 0.000000
# 6 0.000000 0.000000 0.000000 0.000000 0.000000 0.034074
#
#
# Mechanical properties :
#
#
# Convention : Reuss Voigt Hill
#
# Bulk Modulus (GPa) = 51.50209 61.33109 56.41659
# Shear Modulus (GPa) = 40.10000 78.48336 59.29168
#
# Velocity S-wave (km/s) = 3.85073 5.38716 4.68239
# Velocity P-wave (km/s) = 6.23019 7.83417 7.07776
#
# Compressibility (1/GPa) = 0.01941669
#
# Stress axis : x y z
#
# Youngs Moduli (GPa) = 68.19651 165.89023 96.80266
#
# Poissons Ratio (x) = 0.46452 0.15935
# Poissons Ratio (y) = 0.19096 0.13130
# Poissons Ratio (z) = 0.11226 0.22500
#
# Static dielectric constant tensor:
#      x y z
#    x 2.162240 0.000000 0.000000 
#    y 0.000000 2.144880 0.000000 
#    z 0.000000 0.000000 2.132540 
# 
# From -- ./inp_files/34748.got.cif
#   From: 2010.05.17/outbox.cif.g08.bks.cpg/sg52_18_cif.got.tgz:34748.got - 2010.06.03 12:15:38.
