data_PCOD9411209
_publ_section_title
;
Structure prediction by ZEFSAII (Michael W. Deem and Ramdas Pophale) SiO2 
 PCOD9411209
Probable space group: P N N A
;
_chemical_formula_sum "Si O2"
_cell_formula_units_Z 48
_cell_length_a 16.435132
_cell_length_b 15.543740
_cell_length_c 8.184182
_cell_angle_alpha 90.000000
_cell_angle_beta 90.000000
_cell_angle_gamma 90.000000
_cell_volume 2090.759113
_symmetry_space_group_name_H-M "P N N A"
_symmetry_group_IT_number 52
_symmetry_cell_setting 'orthorhombic'
loop_
_space_group_symop_operation_xyz
x,y,z
1/2-x,-y,z
x,1/2-y,1/2-z
1/2-x,1/2+y,1/2-z
-x,-y,-z
1/2+x,y,-z
-x,1/2+y,1/2+z
1/2+x,1/2-y,1/2+z
loop_
_atom_site_type_symbol
_atom_site_label
_atom_site_fract_x
_atom_site_fract_y
_atom_site_fract_z
Si Si1 0.250000 0.000000 0.348135
Si Si2 0.899875 0.976921 0.887761
Si Si3 0.942779 0.127578 0.111467
Si Si4 0.874796 0.074038 0.434424
Si Si5 0.147775 0.250000 0.750000
Si Si6 0.985965 0.209954 0.580869
Si Si7 0.676133 0.066465 0.222961
O O1 0.324423 0.971037 0.233762
O O2 0.208995 0.926635 0.462348
O O3 0.978735 0.926674 0.825378
O O4 0.879377 0.934571 0.062180
O O5 0.916386 0.074492 0.948565
O O6 0.880126 0.120925 0.259776
O O7 0.962922 0.223357 0.060358
O O8 0.945508 0.118056 0.541239
O O9 0.874912 0.974234 0.373803
O O10 0.199977 0.165149 0.769042
O O11 0.082731 0.220436 0.610113
O O12 0.951494 0.250000 0.750000
O O13 0.750000 0.000000 0.197452
#
# Coordination Sequence:
#
# PCOD9411209 Si02
#       7
#     4   8   8   8   4   8   8
#     4  12  24  40  64 106 146 196 232 298 382 454
#     4  10  21  40  72 100 134 192 244 304 370 445
#     4  10  21  41  72 103 136 185 254 307 365 441
#     4  11  25  42  67 102 145 191 241 304 379 443
#     4  10  24  42  78 104 142 188 258 316 384 458
#     4  10  21  43  69 104 139 183 251 316 363 442
#     4  11  22  47  68 103 146 197 242 306 392 467
#
# _framework density 22.958169000000002
#
# number of rings (size 3 to 8) (size 9 to 14) (size 15 to 20)
#    0.500    1.000    3.333    1.500    0.000    2.667 
#    6.000    0.000    0.000    0.000    0.000    0.000 
#    0.000    0.000    0.000    0.000    0.000    0.000 
#
# Total GULP energy -267520.536525 kJ/mol
# GULP energy per Si atom -5573.344511 kJ/mol
# Density = 2.290591 g / cm^3
# Si number density = 22.958169 Si / 1000 Ang^3
#
#
#
# Elastic Constant Matrix: (Units=GPa)
#
#
# Indices 1 2 3 4 5 6 
#
# 1 138.3309 43.5624 46.9848 0.0000 0.0000 0.0000
# 2 43.5624 118.8712 11.9041 0.0000 0.0000 0.0000
# 3 46.9848 11.9041 98.1030 0.0000 0.0000 0.0000
# 4 0.0000 0.0000 0.0000 24.8227 0.0000 0.0000
# 5 0.0000 0.0000 0.0000 0.0000 17.0280 0.0000
# 6 0.0000 0.0000 0.0000 0.0000 0.0000 33.7050
#
#
#
# Elastic Compliance Matrix: (Units=1/GPa)
#
#
# Indices 1 2 3 4 5 6 
#
# 1 0.009651 -0.003112 -0.004244 0.000000 0.000000 0.000000
# 2 -0.003112 0.009519 0.000335 0.000000 0.000000 0.000000
# 3 -0.004244 0.000335 0.012185 0.000000 0.000000 0.000000
# 4 0.000000 0.000000 0.000000 0.040286 0.000000 0.000000
# 5 0.000000 0.000000 0.000000 0.000000 0.058727 0.000000
# 6 0.000000 0.000000 0.000000 0.000000 0.000000 0.029669
#
#
# Mechanical properties :
#
#
# Convention : Reuss Voigt Hill
#
# Bulk Modulus (GPa) = 57.75811 62.24530 60.00170
# Shear Modulus (GPa) = 27.80097 31.96805 29.88451
#
# Velocity S-wave (km/s) = 3.48363 3.73560 3.61181
# Velocity P-wave (km/s) = 6.43378 6.76592 6.60194
#
# Compressibility (1/GPa) = 0.01731359
#
# Stress axis : x y z
#
# Youngs Moduli (GPa) = 103.62101 105.05096 82.06486
#
# Poissons Ratio (x) = 0.32687 0.34832
# Poissons Ratio (y) = 0.32242 -0.02750
# Poissons Ratio (z) = 0.43981 -0.03521
#
# Static dielectric constant tensor:
#      x y z
#    x 1.883240 0.000000 0.000000 
#    y 0.000000 1.853320 0.000000 
#    z 0.000000 0.000000 1.915770 
# 
# From -- ./inp_files/12170.got.cif
#   From: 2010.05.17/outbox.cif.g08.bks.cpg/sg52_7_cif.got.tgz:12170.got - 2010.06.03 12:15:38.
