data_PCOD9411802
_publ_section_title
;
Structure prediction by ZEFSAII (Michael W. Deem and Ramdas Pophale) SiO2 
 PCOD9411802
Probable space group: P N N A
;
_chemical_formula_sum "Si O2"
_cell_formula_units_Z 48
_cell_length_a 13.473454
_cell_length_b 14.282175
_cell_length_c 10.414349
_cell_angle_alpha 90.000000
_cell_angle_beta 90.000000
_cell_angle_gamma 90.000000
_cell_volume 2004.035551
_symmetry_space_group_name_H-M "P N N A"
_symmetry_group_IT_number 52
_symmetry_cell_setting 'orthorhombic'
loop_
_space_group_symop_operation_xyz
x,y,z
1/2-x,-y,z
x,1/2-y,1/2-z
1/2-x,1/2+y,1/2-z
-x,-y,-z
1/2+x,y,-z
-x,1/2+y,1/2+z
1/2+x,1/2-y,1/2+z
loop_
_atom_site_type_symbol
_atom_site_label
_atom_site_fract_x
_atom_site_fract_y
_atom_site_fract_z
Si Si1 0.708269 0.309841 0.869308
Si Si2 0.750000 0.000000 0.747778
Si Si3 0.615834 0.027018 0.978000
Si Si4 0.834032 0.250000 0.250000
Si Si5 0.132932 0.672699 0.492393
Si Si6 0.812060 0.905322 0.377776
Si Si7 0.558995 0.154082 0.177169
O O1 0.663135 0.250000 0.750000
O O2 0.768862 0.402531 0.823103
O O3 0.784995 0.237874 0.931364
O O4 0.650508 0.354940 0.990944
O O5 0.844852 0.970340 0.834014
O O6 0.668959 0.932282 0.025083
O O7 0.500000 0.000000 0.000000
O O8 0.624325 0.123142 0.054882
O O9 0.897561 0.283795 0.371654
O O10 0.763636 0.165914 0.303627
O O11 0.049316 0.663528 0.383394
O O12 0.906429 0.921162 0.283940
O O13 0.750000 0.000000 0.402317
O O14 0.578731 0.250000 0.250000
#
# Coordination Sequence:
#
# PCOD9411802 Si02
#       7
#     8   4   8   4   8   8   8
#     4  11  23  42  70 103 144 196 240 297 371 449
#     4  12  24  42  74 106 144 198 250 304 380 454
#     4  10  24  41  68 102 138 190 250 300 365 466
#     4  10  22  40  70  96 136 188 238 292 356 434
#     4  10  22  44  69  96 141 197 237 301 376 443
#     4  11  23  41  68 108 139 177 241 308 355 435
#     4  11  24  40  66 103 139 182 239 301 374 440
#
# _framework density 23.951671000000001
#
# number of rings (size 3 to 8) (size 9 to 14) (size 15 to 20)
#    0.000    1.333    3.333    1.500    8.167    0.000 
#    0.000    3.333    0.000   14.000    0.000    0.000 
#    0.000    0.000    0.000    0.000    0.000    0.000 
#
# Total GULP energy -267552.610865 kJ/mol
# GULP energy per Si atom -5574.012726 kJ/mol
# Density = 2.389716 g / cm^3
# Si number density = 23.951671 Si / 1000 Ang^3
#
#
#
# Elastic Constant Matrix: (Units=GPa)
#
#
# Indices 1 2 3 4 5 6 
#
# 1 74.3198 20.2517 40.7932 0.0000 0.0000 0.0000
# 2 20.2517 159.9405 41.6940 0.0000 0.0000 0.0000
# 3 40.7932 41.6940 140.4750 0.0000 0.0000 0.0000
# 4 0.0000 0.0000 0.0000 62.2610 0.0000 0.0000
# 5 0.0000 0.0000 0.0000 0.0000 21.9514 0.0000
# 6 0.0000 0.0000 0.0000 0.0000 0.0000 11.9142
#
#
#
# Elastic Compliance Matrix: (Units=1/GPa)
#
#
# Indices 1 2 3 4 5 6 
#
# 1 0.016123 -0.000890 -0.004418 0.000000 0.000000 0.000000
# 2 -0.000890 0.006826 -0.001768 0.000000 0.000000 0.000000
# 3 -0.004418 -0.001768 0.008926 0.000000 0.000000 0.000000
# 4 0.000000 0.000000 0.000000 0.016061 0.000000 0.000000
# 5 0.000000 0.000000 0.000000 0.000000 0.045555 0.000000
# 6 0.000000 0.000000 0.000000 0.000000 0.000000 0.083934
#
#
# Mechanical properties :
#
#
# Convention : Reuss Voigt Hill
#
# Bulk Modulus (GPa) = 56.41956 64.46812 60.44384
# Shear Modulus (GPa) = 25.31857 37.35840 31.33848
#
# Velocity S-wave (km/s) = 3.25479 3.95364 3.62111
# Velocity P-wave (km/s) = 6.14260 6.91491 6.54017
#
# Compressibility (1/GPa) = 0.01772435
#
# Stress axis : x y z
#
# Youngs Moduli (GPa) = 62.02419 146.50382 112.02914
#
# Poissons Ratio (x) = 0.13036 0.49493
# Poissons Ratio (y) = 0.05519 0.19802
# Poissons Ratio (z) = 0.27401 0.25895
#
# Static dielectric constant tensor:
#      x y z
#    x 2.012070 0.000000 0.000000 
#    y 0.000000 2.017470 0.000000 
#    z 0.000000 0.000000 2.028360 
# 
# From -- ./inp_files/12174.got.cif
#   From: 2010.05.17/outbox.cif.g08.bks.cpg/sg52_7_cif.got.tgz:12174.got - 2010.06.03 12:15:38.
