data_PCOD9411091
_publ_section_title
;
Structure prediction by ZEFSAII (Michael W. Deem and Ramdas Pophale) SiO2 
 PCOD9411091
Probable space group: P N N A
;
_chemical_formula_sum "Si O2"
_cell_formula_units_Z 40
_cell_length_a 18.078310
_cell_length_b 9.462023
_cell_length_c 12.065108
_cell_angle_alpha 90.000000
_cell_angle_beta 90.000000
_cell_angle_gamma 90.000000
_cell_volume 2063.825824
_symmetry_space_group_name_H-M "P N N A"
_symmetry_group_IT_number 52
_symmetry_cell_setting 'orthorhombic'
loop_
_space_group_symop_operation_xyz
x,y,z
1/2-x,-y,z
x,1/2-y,1/2-z
1/2-x,1/2+y,1/2-z
-x,-y,-z
1/2+x,y,-z
-x,1/2+y,1/2+z
1/2+x,1/2-y,1/2+z
loop_
_atom_site_type_symbol
_atom_site_label
_atom_site_fract_x
_atom_site_fract_y
_atom_site_fract_z
Si Si1 0.833438 0.526080 0.011836
Si Si2 0.940603 0.774817 0.981414
Si Si3 0.686954 0.902012 0.735282
Si Si4 0.447200 0.381838 0.821269
Si Si5 0.534293 0.564294 0.646631
O O1 0.750000 0.500000 0.054064
O O2 0.889795 0.445732 0.092377
O O3 0.865645 0.687071 0.004962
O O4 0.830554 0.457944 0.888513
O O5 0.984206 0.680181 0.891759
O O6 0.938882 0.933958 0.932499
O O7 0.993853 0.805090 0.086397
O O8 0.722470 0.750000 0.750000
O O9 0.609951 0.893069 0.797233
O O10 0.750000 0.000000 0.785460
O O11 0.416639 0.250000 0.750000
O O12 0.478031 0.496318 0.734946
#
# Coordination Sequence:
#
# PCOD9411091 Si02
#       5
#     8   8   8   8   8
#     4  11  24  40  63  91 131 169 211 269 325 388
#     4  10  21  40  65  94 126 162 219 265 313 385
#     4  11  25  38  64  97 131 168 210 264 335 383
#     4  10  21  40  62  85 124 166 213 265 311 379
#     4  10  22  38  66  95 124 169 214 264 319 383
#
# _framework density 19.38148
#
# number of rings (size 3 to 8) (size 9 to 14) (size 15 to 20)
#    0.000    1.600    2.000    1.800    8.400    0.000 
#    3.600    0.000    0.000    0.000    0.000    0.000 
#    0.000    0.000    0.000    0.000    0.000    0.000 
#
# Total GULP energy -223032.148177 kJ/mol
# GULP energy per Si atom -5575.803704 kJ/mol
# Density = 1.933737 g / cm^3
# Si number density = 19.381480 Si / 1000 Ang^3
#
#
#
# Elastic Constant Matrix: (Units=GPa)
#
#
# Indices 1 2 3 4 5 6 
#
# 1 75.1950 34.9387 11.5847 0.0000 0.0000 0.0000
# 2 34.9387 98.0377 13.1167 0.0000 0.0000 0.0000
# 3 11.5847 13.1167 45.4769 0.0000 0.0000 0.0000
# 4 0.0000 0.0000 0.0000 28.3189 0.0000 0.0000
# 5 0.0000 0.0000 0.0000 0.0000 -23.3727 0.0000
# 6 0.0000 0.0000 0.0000 0.0000 0.0000 -14.6361
#
#
#
# Elastic Compliance Matrix: (Units=1/GPa)
#
#
# Indices 1 2 3 4 5 6 
#
# 1 0.016220 -0.005438 -0.002564 0.000000 0.000000 0.000000
# 2 -0.005438 0.012432 -0.002201 0.000000 0.000000 0.000000
# 3 -0.002564 -0.002201 0.023277 0.000000 0.000000 0.000000
# 4 0.000000 0.000000 0.000000 0.035312 0.000000 0.000000
# 5 0.000000 0.000000 0.000000 0.000000 -0.042785 0.000000
# 6 0.000000 0.000000 0.000000 0.000000 0.000000 -0.068324
#
#
# Mechanical properties :
#
#
# Convention : Reuss Voigt Hill
#
# Bulk Modulus (GPa) = 31.71988 37.55441 34.63715
# Shear Modulus (GPa) = 709.73530 8.66667 359.20098
#
# Velocity S-wave (km/s) = 19.15692 2.11692 13.62844
# Velocity P-wave (km/s) = 22.48818 5.03921 16.29589
#
# Compressibility (1/GPa) = 0.03152597
#
# Stress axis : x y z
#
# Youngs Moduli (GPa) = 61.65145 80.43477 42.96098
#
# Poissons Ratio (x) = 0.43737 0.11013
# Poissons Ratio (y) = 0.33523 0.09454
# Poissons Ratio (z) = 0.15805 0.17701
#
# Static dielectric constant tensor:
#      x y z
#    x 1.657240 0.000000 0.000000 
#    y 0.000000 1.698140 0.000000 
#    z 0.000000 0.000000 1.732950 
# 
# From -- ./inp_files/20295.got.cif
#   From: 2010.05.17/outbox.cif.g08.bks.cpg/sg52_11_cif.got.tgz:20295.got - 2010.06.03 12:15:38.
