data_PCOD9411748
_publ_section_title
;
Structure prediction by ZEFSAII (Michael W. Deem and Ramdas Pophale) SiO2 
 PCOD9411748
Probable space group: P N N A
;
_chemical_formula_sum "Si O2"
_cell_formula_units_Z 64
_cell_length_a 11.299753
_cell_length_b 7.268990
_cell_length_c 31.085591
_cell_angle_alpha 90.000000
_cell_angle_beta 90.000000
_cell_angle_gamma 90.000000
_cell_volume 2553.301794
_symmetry_space_group_name_H-M "P N N A"
_symmetry_group_IT_number 52
_symmetry_cell_setting 'orthorhombic'
loop_
_space_group_symop_operation_xyz
x,y,z
1/2-x,-y,z
x,1/2-y,1/2-z
1/2-x,1/2+y,1/2-z
-x,-y,-z
1/2+x,y,-z
-x,1/2+y,1/2+z
1/2+x,1/2-y,1/2+z
loop_
_atom_site_type_symbol
_atom_site_label
_atom_site_fract_x
_atom_site_fract_y
_atom_site_fract_z
Si Si1 0.733466 0.222694 0.045142
Si Si2 0.528264 0.612389 0.079068
Si Si3 0.549419 0.761813 0.330687
Si Si4 0.822629 0.689877 0.549453
Si Si5 0.143645 0.673722 0.114748
Si Si6 0.715002 0.287120 0.294175
Si Si7 0.078563 0.129070 0.873942
Si Si8 0.723223 0.215373 0.801215
O O1 0.644994 0.214614 0.085337
O O2 0.844868 0.351952 0.057526
O O3 0.750000 0.000000 0.041372
O O4 0.688081 0.276206 0.997992
O O5 0.541760 0.599281 0.130333
O O6 0.459598 0.794612 0.061804
O O7 0.433412 0.445305 0.078348
O O8 0.657606 0.811017 0.299381
O O9 0.594436 0.580719 0.357913
O O10 0.418572 0.742200 0.310821
O O11 0.750000 0.500000 0.548326
O O12 0.762813 0.792567 0.589270
O O13 0.193625 0.667459 0.165012
O O14 0.059053 0.847907 0.118999
O O15 0.750000 0.500000 0.291823
O O16 0.650760 0.250000 0.250000
O O17 0.630017 0.258323 0.333848
O O18 0.745360 0.250000 0.750000
O O19 0.750000 0.000000 0.809437
#
# Coordination Sequence:
#
# PCOD9411748 Si02
#       8
#     8   8   8   8   8   8   8   8
#     4  11  24  44  74 105 135 184 242 290 344 426
#     4  12  25  45  72 100 141 183 232 292 353 421
#     4  11  21  44  72  95 135 185 240 283 346 416
#     4  11  26  44  73 102 137 185 235 291 352 423
#     4  12  27  45  68 102 145 185 228 293 360 422
#     4  10  22  40  65  96 132 175 227 287 340 411
#     4  11  22  45  69  99 136 185 233 286 349 419
#     4  12  27  46  72 105 141 186 241 294 351 426
#
# _framework density 25.065581999999999
#
# number of rings (size 3 to 8) (size 9 to 14) (size 15 to 20)
#    0.000    0.750    5.000    2.250    3.500    3.500 
#    2.250    0.000    0.000    0.000    0.000    0.000 
#    0.000    0.000    0.000    0.000    0.000    0.000 
#
# Total GULP energy -356421.967948 kJ/mol
# GULP energy per Si atom -5569.093249 kJ/mol
# Density = 2.500853 g / cm^3
# Si number density = 25.065582 Si / 1000 Ang^3
#
#
#
# Elastic Constant Matrix: (Units=GPa)
#
#
# Indices 1 2 3 4 5 6 
#
# 1 93.7626 7.2228 35.3463 0.0000 0.0000 0.0000
# 2 7.2228 44.1758 -6.9370 0.0000 0.0000 0.0000
# 3 35.3463 -6.9370 174.9553 0.0000 0.0000 0.0000
# 4 0.0000 0.0000 0.0000 -21.2954 0.0000 0.0000
# 5 0.0000 0.0000 0.0000 0.0000 1.4299 0.0000
# 6 0.0000 0.0000 0.0000 0.0000 0.0000 -2.2954
#
#
#
# Elastic Compliance Matrix: (Units=1/GPa)
#
#
# Indices 1 2 3 4 5 6 
#
# 1 0.011775 -0.002313 -0.002471 0.000000 0.000000 0.000000
# 2 -0.002313 0.023233 0.001389 0.000000 0.000000 0.000000
# 3 -0.002471 0.001389 0.006270 0.000000 0.000000 0.000000
# 4 0.000000 0.000000 0.000000 -0.046959 0.000000 0.000000
# 5 0.000000 0.000000 0.000000 0.000000 0.699334 0.000000
# 6 0.000000 0.000000 0.000000 0.000000 0.000000 -0.435652
#
#
# Mechanical properties :
#
#
# Convention : Reuss Voigt Hill
#
# Bulk Modulus (GPa) = 28.99610 42.68419 35.84015
# Shear Modulus (GPa) = 18.09712 14.05194 16.07453
#
# Velocity S-wave (km/s) = 2.68990 2.37028 2.53514
# Velocity P-wave (km/s) = 4.60876 4.95550 4.78527
#
# Compressibility (1/GPa) = 0.03448739
#
# Stress axis : x y z
#
# Youngs Moduli (GPa) = 84.92733 43.04208 159.49136
#
# Poissons Ratio (x) = 0.09956 0.39404
# Poissons Ratio (y) = 0.19645 -0.22146
# Poissons Ratio (z) = 0.20982 -0.05976
#
# Static dielectric constant tensor:
#      x y z
#    x 2.129930 0.000000 0.000000 
#    y 0.000000 2.088340 0.000000 
#    z 0.000000 0.000000 1.979880 
# 
# From -- ./inp_files/44849.got.cif
#   From: 2010.05.17/outbox.cif.g08.bks.cpg/sg52_23_cif.got.tgz:44849.got - 2010.06.03 12:15:38.
