data_PCOD9411524
_publ_section_title
;
Structure prediction by ZEFSAII (Michael W. Deem and Ramdas Pophale) SiO2 
 PCOD9411524
Probable space group: P N N A
;
_chemical_formula_sum "Si O2"
_cell_formula_units_Z 64
_cell_length_a 11.709649
_cell_length_b 14.847910
_cell_length_c 18.854232
_cell_angle_alpha 90.000000
_cell_angle_beta 90.000000
_cell_angle_gamma 90.000000
_cell_volume 3278.068695
_symmetry_space_group_name_H-M "P N N A"
_symmetry_group_IT_number 52
_symmetry_cell_setting 'orthorhombic'
loop_
_space_group_symop_operation_xyz
x,y,z
1/2-x,-y,z
x,1/2-y,1/2-z
1/2-x,1/2+y,1/2-z
-x,-y,-z
1/2+x,y,-z
-x,1/2+y,1/2+z
1/2+x,1/2-y,1/2+z
loop_
_atom_site_type_symbol
_atom_site_label
_atom_site_fract_x
_atom_site_fract_y
_atom_site_fract_z
Si Si1 0.328803 0.079750 0.566553
Si Si2 0.654884 0.257342 0.080636
Si Si3 0.285798 0.395864 0.312783
Si Si4 0.973332 0.507419 0.187747
Si Si5 0.575722 0.869421 0.575746
Si Si6 0.952629 0.658345 0.295394
Si Si7 0.607207 0.163068 0.708798
Si Si8 0.802361 0.748444 0.580554
O O1 0.258033 0.169932 0.586247
O O2 0.420395 0.096451 0.504914
O O3 0.250000 0.000000 0.535156
O O4 0.382526 0.036565 0.635754
O O5 0.538723 0.313598 0.087090
O O6 0.635426 0.181376 0.140857
O O7 0.662516 0.225307 0.999186
O O8 0.250000 0.500000 0.316445
O O9 0.420195 0.373677 0.319178
O O10 0.234236 0.355723 0.239454
O O11 0.220993 0.340151 0.373632
O O12 0.067092 0.555499 0.136696
O O13 0.036009 0.425254 0.225732
O O14 0.918867 0.579283 0.240974
O O15 0.686153 0.806453 0.580232
O O16 0.964690 0.750000 0.250000
O O17 0.561805 0.250000 0.750000
O O18 0.611253 0.189319 0.626097
#
# Coordination Sequence:
#
# PCOD9411524 Si02
#       8
#     8   8   8   8   8   8   8   8
#     4  11  23  37  56  90 127 162 209 253 317 384
#     4  11  23  40  59  88 124 173 206 258 313 376
#     4  11  20  37  64  95 123 158 209 269 318 377
#     4  12  22  37  63  92 127 165 209 261 318 383
#     4  11  21  34  61  89 122 163 201 260 318 384
#     4  12  21  39  64  91 127 167 213 259 319 381
#     4  10  22  37  59  95 130 158 197 264 327 368
#     4  10  22  37  59  90 129 159 207 257 321 381
#
# _framework density 19.523690999999999
#
# number of rings (size 3 to 8) (size 9 to 14) (size 15 to 20)
#    0.000    1.000    5.000    3.000    3.500    0.000 
#    0.000    2.500    0.000    2.250    0.000    0.000 
#    0.000    0.000    0.000    0.000    0.000    0.000 
#
# Total GULP energy -357201.423620 kJ/mol
# GULP energy per Si atom -5581.272244 kJ/mol
# Density = 1.947925 g / cm^3
# Si number density = 19.523691 Si / 1000 Ang^3
#
#
#
# Elastic Constant Matrix: (Units=GPa)
#
#
# Indices 1 2 3 4 5 6 
#
# 1 11.5220 16.7465 23.3175 0.0000 0.0000 0.0000
# 2 16.7465 107.4478 65.7560 0.0000 0.0000 0.0000
# 3 23.3175 65.7560 137.2229 0.0000 0.0000 0.0000
# 4 0.0000 0.0000 0.0000 27.9909 0.0000 0.0000
# 5 0.0000 0.0000 0.0000 0.0000 51.4887 0.0000
# 6 0.0000 0.0000 0.0000 0.0000 0.0000 21.2878
#
#
#
# Elastic Compliance Matrix: (Units=1/GPa)
#
#
# Indices 1 2 3 4 5 6 
#
# 1 0.139844 -0.010263 -0.018845 0.000000 0.000000 0.000000
# 2 -0.010263 0.013922 -0.004927 0.000000 0.000000 0.000000
# 3 -0.018845 -0.004927 0.012851 0.000000 0.000000 0.000000
# 4 0.000000 0.000000 0.000000 0.035726 0.000000 0.000000
# 5 0.000000 0.000000 0.000000 0.000000 0.019422 0.000000
# 6 0.000000 0.000000 0.000000 0.000000 0.000000 0.046975
#
#
# Mechanical properties :
#
#
# Convention : Reuss Voigt Hill
#
# Bulk Modulus (GPa) = 10.14751 51.98140 31.06446
# Shear Modulus (GPa) = 13.52598 30.17834 21.85216
#
# Velocity S-wave (km/s) = 2.63496 3.93584 3.34917
# Velocity P-wave (km/s) = 3.80344 6.88019 5.55892
#
# Compressibility (1/GPa) = 0.09854637
#
# Stress axis : x y z
#
# Youngs Moduli (GPa) = 7.15081 71.82972 77.81659
#
# Poissons Ratio (x) = 0.73719 1.46645
# Poissons Ratio (y) = 0.07339 0.38342
# Poissons Ratio (z) = 0.13476 0.35393
#
# Static dielectric constant tensor:
#      x y z
#    x 1.716540 0.000000 0.000000 
#    y 0.000000 1.707070 0.000000 
#    z 0.000000 0.000000 1.751900 
# 
# From -- ./inp_files/32405.got.cif
#   From: 2010.05.17/outbox.cif.g08.bks.cpg/sg52_17_cif.got.tgz:32405.got - 2010.06.03 12:15:38.
