data_PCOD9411057
_publ_section_title
;
Structure prediction by ZEFSAII (Michael W. Deem and Ramdas Pophale) SiO2 
 PCOD9411057
Probable space group: P N N A
;
_chemical_formula_sum "Si O2"
_cell_formula_units_Z 40
_cell_length_a 16.491398
_cell_length_b 11.707356
_cell_length_c 8.752331
_cell_angle_alpha 90.000000
_cell_angle_beta 90.000000
_cell_angle_gamma 90.000000
_cell_volume 1689.818387
_symmetry_space_group_name_H-M "P N N A"
_symmetry_group_IT_number 52
_symmetry_cell_setting 'orthorhombic'
loop_
_space_group_symop_operation_xyz
x,y,z
1/2-x,-y,z
x,1/2-y,1/2-z
1/2-x,1/2+y,1/2-z
-x,-y,-z
1/2+x,y,-z
-x,1/2+y,1/2+z
1/2+x,1/2-y,1/2+z
loop_
_atom_site_type_symbol
_atom_site_label
_atom_site_fract_x
_atom_site_fract_y
_atom_site_fract_z
Si Si1 0.138000 0.627183 0.206400
Si Si2 0.750000 0.500000 0.370558
Si Si3 0.004309 0.250000 0.250000
Si Si4 0.391135 0.926057 0.050572
Si Si5 0.868713 0.418826 0.119206
Si Si6 0.549131 0.374606 0.230812
O O1 0.172320 0.750000 0.250000
O O2 0.132089 0.531941 0.338053
O O3 0.041838 0.642895 0.176253
O O4 0.173981 0.598849 0.042031
O O5 0.696492 0.412650 0.470055
O O6 0.807934 0.425377 0.261764
O O7 0.941982 0.331732 0.157392
O O8 0.063076 0.171249 0.146262
O O9 0.446161 0.938067 0.895821
O O10 0.906361 0.545405 0.112711
O O11 0.586724 0.250000 0.250000
#
# Coordination Sequence:
#
# PCOD9411057 Si02
#       6
#     8   4   4   8   8   8
#     4  11  23  40  74 108 145 190 255 303 367 442
#     4  10  28  52  66 102 164 202 252 312 414 436
#     4  12  24  44  88 110 148 196 276 304 374 450
#     4  11  25  46  72 112 149 196 250 319 377 460
#     4  11  25  45  72 109 149 199 252 318 376 465
#     4  10  21  39  69 106 146 187 249 306 365 441
#
# _framework density 23.671181000000001
#
# number of rings (size 3 to 8) (size 9 to 14) (size 15 to 20)
#    0.000    1.200    2.000    3.600   11.200    0.800 
#    9.000    0.000    0.000    0.000    0.000    0.000 
#    0.000    0.000    0.000    0.000    0.000    0.000 
#
# Total GULP energy -223220.701517 kJ/mol
# GULP energy per Si atom -5580.517538 kJ/mol
# Density = 2.361730 g / cm^3
# Si number density = 23.671181 Si / 1000 Ang^3
#
#
#
# Elastic Constant Matrix: (Units=GPa)
#
#
# Indices 1 2 3 4 5 6 
#
# 1 80.5456 19.3887 31.9530 0.0000 0.0000 0.0000
# 2 19.3887 123.1847 56.5941 0.0000 0.0000 0.0000
# 3 31.9530 56.5941 138.8614 0.0000 0.0000 0.0000
# 4 0.0000 0.0000 0.0000 12.0107 0.0000 0.0000
# 5 0.0000 0.0000 0.0000 0.0000 67.6002 0.0000
# 6 0.0000 0.0000 0.0000 0.0000 0.0000 12.3490
#
#
#
# Elastic Compliance Matrix: (Units=1/GPa)
#
#
# Indices 1 2 3 4 5 6 
#
# 1 0.013738 -0.000874 -0.002805 0.000000 0.000000 0.000000
# 2 -0.000874 0.010044 -0.003892 0.000000 0.000000 0.000000
# 3 -0.002805 -0.003892 0.009433 0.000000 0.000000 0.000000
# 4 0.000000 0.000000 0.000000 0.083259 0.000000 0.000000
# 5 0.000000 0.000000 0.000000 0.000000 0.014793 0.000000
# 6 0.000000 0.000000 0.000000 0.000000 0.000000 0.080978
#
#
# Mechanical properties :
#
#
# Convention : Reuss Voigt Hill
#
# Bulk Modulus (GPa) = 55.33113 62.05147 58.69130
# Shear Modulus (GPa) = 21.42132 34.03571 27.72851
#
# Velocity S-wave (km/s) = 3.01151 3.79602 3.42629
# Velocity P-wave (km/s) = 5.95969 6.74417 6.36403
#
# Compressibility (1/GPa) = 0.01807301
#
# Stress axis : x y z
#
# Youngs Moduli (GPa) = 72.78825 99.56562 106.00742
#
# Poissons Ratio (x) = 0.08698 0.29738
# Poissons Ratio (y) = 0.06358 0.41262
# Poissons Ratio (z) = 0.20419 0.38754
#
# Static dielectric constant tensor:
#      x y z
#    x 1.929010 0.000000 0.000000 
#    y 0.000000 1.962820 0.000000 
#    z 0.000000 0.000000 1.924270 
# 
# From -- ./inp_files/11688.got.cif
#   From: 2010.05.17/outbox.cif.g08.bks.cpg/sg52_6_cif.got.tgz:11688.got - 2010.06.03 12:15:38.
