data_PCOD9411999
_publ_section_title
;
Structure prediction by ZEFSAII (Michael W. Deem and Ramdas Pophale) SiO2 
 PCOD9411999
Probable space group: P N N A
;
_chemical_formula_sum "Si O2"
_cell_formula_units_Z 56
_cell_length_a 8.754860
_cell_length_b 14.454758
_cell_length_c 20.742757
_cell_angle_alpha 90.000000
_cell_angle_beta 90.000000
_cell_angle_gamma 90.000000
_cell_volume 2624.983092
_symmetry_space_group_name_H-M "P N N A"
_symmetry_group_IT_number 52
_symmetry_cell_setting 'orthorhombic'
loop_
_space_group_symop_operation_xyz
x,y,z
1/2-x,-y,z
x,1/2-y,1/2-z
1/2-x,1/2+y,1/2-z
-x,-y,-z
1/2+x,y,-z
-x,1/2+y,1/2+z
1/2+x,1/2-y,1/2+z
loop_
_atom_site_type_symbol
_atom_site_label
_atom_site_fract_x
_atom_site_fract_y
_atom_site_fract_z
Si Si1 0.932021 0.988087 0.824536
Si Si2 0.262559 0.751300 0.939237
Si Si3 0.007764 0.861064 0.512732
Si Si4 0.405199 0.554228 0.553999
Si Si5 0.085742 0.521447 0.102407
Si Si6 0.353900 0.184655 0.802991
Si Si7 0.877651 0.928102 0.288837
O O1 0.021210 0.888606 0.830617
O O2 0.750000 0.000000 0.824447
O O3 0.993015 0.051814 0.882367
O O4 0.002118 0.024160 0.758525
O O5 0.362798 0.669101 0.970013
O O6 0.345309 0.844365 0.962097
O O7 0.229844 0.763553 0.862571
O O8 0.096780 0.731256 0.968119
O O9 0.106530 0.923313 0.464078
O O10 0.981292 0.923168 0.576817
O O11 0.250000 0.500000 0.569449
O O12 0.500000 0.500000 0.500000
O O13 0.250000 0.500000 0.132690
O O14 0.981344 0.585461 0.148199
O O15 0.434088 0.250000 0.750000
O O16 0.220019 0.138677 0.758401
O O17 0.750000 0.000000 0.312023
#
# Coordination Sequence:
#
# PCOD9411999 Si02
#       7
#     8   8   8   8   8   8   8
#     4  11  23  45  68 100 137 183 232 282 357 435
#     4  12  24  46  67 103 143 178 242 300 348 428
#     4  11  26  41  68 105 144 188 228 294 359 424
#     4  12  23  44  70  97 132 186 232 286 358 420
#     4  11  23  44  68 102 146 187 235 282 361 435
#     4  11  24  45  73 101 135 183 239 297 354 424
#     4  10  22  42  71  97 131 185 234 282 348 428
#
# _framework density 21.333469000000001
#
# number of rings (size 3 to 8) (size 9 to 14) (size 15 to 20)
#    0.000    0.857    4.286    3.000    6.000    0.000 
#    0.000    0.714    0.000    0.000    0.000    0.000 
#    0.000    0.000    0.000    0.000    0.000    0.000 
#
# Total GULP energy -312017.795003 kJ/mol
# GULP energy per Si atom -5571.746339 kJ/mol
# Density = 2.128491 g / cm^3
# Si number density = 21.333469 Si / 1000 Ang^3
#
#
#
# Elastic Constant Matrix: (Units=GPa)
#
#
# Indices 1 2 3 4 5 6 
#
# 1 130.8721 25.6431 41.1163 0.0000 0.0000 0.0000
# 2 25.6431 63.1359 12.7301 0.0000 0.0000 0.0000
# 3 41.1163 12.7301 77.5414 0.0000 0.0000 0.0000
# 4 0.0000 0.0000 0.0000 45.3114 0.0000 0.0000
# 5 0.0000 0.0000 0.0000 0.0000 23.8600 0.0000
# 6 0.0000 0.0000 0.0000 0.0000 0.0000 24.8257
#
#
#
# Elastic Compliance Matrix: (Units=1/GPa)
#
#
# Indices 1 2 3 4 5 6 
#
# 1 0.009688 -0.002998 -0.004645 0.000000 0.000000 0.000000
# 2 -0.002998 0.017309 -0.001252 0.000000 0.000000 0.000000
# 3 -0.004645 -0.001252 0.015565 0.000000 0.000000 0.000000
# 4 0.000000 0.000000 0.000000 0.022069 0.000000 0.000000
# 5 0.000000 0.000000 0.000000 0.000000 0.041911 0.000000
# 6 0.000000 0.000000 0.000000 0.000000 0.000000 0.040281
#
#
# Mechanical properties :
#
#
# Convention : Reuss Voigt Hill
#
# Bulk Modulus (GPa) = 40.36829 47.83649 44.10239
# Shear Modulus (GPa) = 28.92351 31.60343 30.26347
#
# Velocity S-wave (km/s) = 3.68609 3.85307 3.77050
# Velocity P-wave (km/s) = 6.08933 6.50129 6.29868
#
# Compressibility (1/GPa) = 0.02477192
#
# Stress axis : x y z
#
# Youngs Moduli (GPa) = 103.22304 57.77341 64.24799
#
# Poissons Ratio (x) = 0.17322 0.29841
# Poissons Ratio (y) = 0.30949 0.08043
# Poissons Ratio (z) = 0.47944 0.07232
#
# Static dielectric constant tensor:
#      x y z
#    x 1.830830 0.000000 0.000000 
#    y 0.000000 1.869700 0.000000 
#    z 0.000000 0.000000 1.449680 
# 
# From -- ./inp_files/36053.got.cif
#   From: 2010.05.17/outbox.cif.g08.bks.cpg/sg52_19_cif.got.tgz:36053.got - 2010.06.03 12:15:38.
