data_PCOD9411402
_publ_section_title
;
Structure prediction by ZEFSAII (Michael W. Deem and Ramdas Pophale) SiO2 
 PCOD9411402
Probable space group: P N N A
;
_chemical_formula_sum "Si O2"
_cell_formula_units_Z 40
_cell_length_a 17.300847
_cell_length_b 12.741138
_cell_length_c 8.029083
_cell_angle_alpha 90.000000
_cell_angle_beta 90.000000
_cell_angle_gamma 90.000000
_cell_volume 1769.870671
_symmetry_space_group_name_H-M "P N N A"
_symmetry_group_IT_number 52
_symmetry_cell_setting 'orthorhombic'
loop_
_space_group_symop_operation_xyz
x,y,z
1/2-x,-y,z
x,1/2-y,1/2-z
1/2-x,1/2+y,1/2-z
-x,-y,-z
1/2+x,y,-z
-x,1/2+y,1/2+z
1/2+x,1/2-y,1/2+z
loop_
_atom_site_type_symbol
_atom_site_label
_atom_site_fract_x
_atom_site_fract_y
_atom_site_fract_z
Si Si1 0.990685 0.476646 0.801763
Si Si2 0.164806 0.037811 0.127035
Si Si3 0.476399 0.250000 0.250000
Si Si4 0.706685 0.250000 0.750000
Si Si5 0.633818 0.582493 0.309250
Si Si6 0.161458 0.702642 0.998236
O O1 0.903552 0.482308 0.730352
O O2 0.021121 0.360688 0.745543
O O3 0.041927 0.564515 0.708430
O O4 0.000000 0.500000 0.000000
O O5 0.157930 0.160119 0.163539
O O6 0.250000 0.000000 0.180498
O O7 0.160012 0.008859 0.932443
O O8 0.417919 0.278346 0.099145
O O9 0.764899 0.299278 0.884302
O O10 0.662808 0.688290 0.396875
O O11 0.660218 0.601187 0.120008
#
# Coordination Sequence:
#
# PCOD9411402 Si02
#       6
#     8   8   4   4   8   8
#     4  12  26  44  70 111 144 196 248 310 371 456
#     4  12  25  46  72 104 151 193 250 314 384 444
#     4  11  20  42  68  96 148 187 240 284 387 438
#     4  11  24  46  74 108 146 201 248 318 377 464
#     4  11  23  43  75 102 140 191 246 310 369 450
#     4  10  21  43  73 102 140 199 241 291 396 451
#
# _framework density 22.600519999999999
#
# number of rings (size 3 to 8) (size 9 to 14) (size 15 to 20)
#    0.000    0.800    6.000    1.800    0.000    3.200 
#    3.600    0.000    0.000    0.000    0.000    0.000 
#    0.000    0.000    0.000    0.000    0.000    0.000 
#
# Total GULP energy -223154.849355 kJ/mol
# GULP energy per Si atom -5578.871234 kJ/mol
# Density = 2.254908 g / cm^3
# Si number density = 22.600520 Si / 1000 Ang^3
#
#
#
# Elastic Constant Matrix: (Units=GPa)
#
#
# Indices 1 2 3 4 5 6 
#
# 1 73.0091 16.0697 29.4753 0.0000 0.0000 0.0000
# 2 16.0697 130.5839 61.6959 0.0000 0.0000 0.0000
# 3 29.4753 61.6959 125.2479 0.0000 0.0000 0.0000
# 4 0.0000 0.0000 0.0000 55.7302 0.0000 0.0000
# 5 0.0000 0.0000 0.0000 0.0000 17.8986 0.0000
# 6 0.0000 0.0000 0.0000 0.0000 0.0000 29.6707
#
#
#
# Elastic Compliance Matrix: (Units=1/GPa)
#
#
# Indices 1 2 3 4 5 6 
#
# 1 0.015140 -0.000234 -0.003448 0.000000 0.000000 0.000000
# 2 -0.000234 0.009984 -0.004863 0.000000 0.000000 0.000000
# 3 -0.003448 -0.004863 0.011191 0.000000 0.000000 0.000000
# 4 0.000000 0.000000 0.000000 0.017944 0.000000 0.000000
# 5 0.000000 0.000000 0.000000 0.000000 0.055870 0.000000
# 6 0.000000 0.000000 0.000000 0.000000 0.000000 0.033703
#
#
# Mechanical properties :
#
#
# Convention : Reuss Voigt Hill
#
# Bulk Modulus (GPa) = 52.01363 60.36918 56.19140
# Shear Modulus (GPa) = 29.88077 35.43322 32.65699
#
# Velocity S-wave (km/s) = 3.64005 3.96385 3.80540
# Velocity P-wave (km/s) = 6.38208 6.90788 6.65018
#
# Compressibility (1/GPa) = 0.01922573
#
# Stress axis : x y z
#
# Youngs Moduli (GPa) = 66.04857 100.15675 89.35735
#
# Poissons Ratio (x) = 0.02347 0.30807
# Poissons Ratio (y) = 0.01547 0.43455
# Poissons Ratio (z) = 0.22771 0.48707
#
# Static dielectric constant tensor:
#      x y z
#    x 1.826050 0.000000 0.000000 
#    y 0.000000 1.955300 0.000000 
#    z 0.000000 0.000000 1.907090 
# 
# From -- ./inp_files/11659.got.cif
#   From: 2010.05.17/outbox.cif.g08.bks.cpg/sg52_6_cif.got.tgz:11659.got - 2010.06.03 12:15:38.
