data_PCOD9411354
_publ_section_title
;
Structure prediction by ZEFSAII (Michael W. Deem and Ramdas Pophale) SiO2 
 PCOD9411354
Probable space group: P N N A
;
_chemical_formula_sum "Si O2"
_cell_formula_units_Z 48
_cell_length_a 7.930616
_cell_length_b 14.102713
_cell_length_c 18.064511
_cell_angle_alpha 90.000000
_cell_angle_beta 90.000000
_cell_angle_gamma 90.000000
_cell_volume 2020.392741
_symmetry_space_group_name_H-M "P N N A"
_symmetry_group_IT_number 52
_symmetry_cell_setting 'orthorhombic'
loop_
_space_group_symop_operation_xyz
x,y,z
1/2-x,-y,z
x,1/2-y,1/2-z
1/2-x,1/2+y,1/2-z
-x,-y,-z
1/2+x,y,-z
-x,1/2+y,1/2+z
1/2+x,1/2-y,1/2+z
loop_
_atom_site_type_symbol
_atom_site_label
_atom_site_fract_x
_atom_site_fract_y
_atom_site_fract_z
Si Si1 0.520926 0.429739 0.400301
Si Si2 0.001645 0.180522 0.439104
Si Si3 0.157816 0.400811 0.917897
Si Si4 0.336309 0.617987 0.450957
Si Si5 0.369466 0.857006 0.281413
Si Si6 0.498722 0.559046 0.759288
O O1 0.438389 0.534436 0.409694
O O2 0.351691 0.369662 0.419766
O O3 0.657593 0.411187 0.463032
O O4 0.584037 0.411212 0.318043
O O5 0.032288 0.126151 0.516136
O O6 0.063674 0.286305 0.445518
O O7 0.108575 0.140027 0.370308
O O8 0.806428 0.175723 0.418765
O O9 0.250000 0.500000 0.934822
O O10 0.082325 0.410327 0.836342
O O11 0.400372 0.750000 0.250000
O O12 0.183825 0.892760 0.258876
O O13 0.488329 0.944353 0.256893
#
# Coordination Sequence:
#
# PCOD9411354 Si02
#       6
#     8   8   8   8   8   8
#     4  10  21  43  70  96 142 173 231 286 355 419
#     4  12  24  42  71  96 143 180 243 284 341 434
#     4  12  26  45  65 102 135 191 233 287 355 419
#     4  10  21  42  69 105 127 187 228 282 351 426
#     4  11  23  42  71 100 134 183 233 288 358 426
#     4  11  24  44  68  98 140 180 230 292 360 422
#
# _framework density 23.757757000000002
#
# number of rings (size 3 to 8) (size 9 to 14) (size 15 to 20)
#    0.000    1.000    1.667    6.500    2.333    1.333 
#    6.000    2.500    0.000    0.000    0.000    0.000 
#    0.000    0.000    0.000    0.000    0.000    0.000 
#
# Total GULP energy -268686.888992 kJ/mol
# GULP energy per Si atom -5597.643521 kJ/mol
# Density = 2.370368 g / cm^3
# Si number density = 23.757757 Si / 1000 Ang^3
#
#
#
# Elastic Constant Matrix: (Units=GPa)
#
#
# Indices 1 2 3 4 5 6 
#
# 1 63.4680 29.9490 36.6883 0.0000 0.0000 0.0000
# 2 29.9490 71.7534 46.5758 0.0000 0.0000 0.0000
# 3 36.6883 46.5758 208.0429 0.0000 0.0000 0.0000
# 4 0.0000 0.0000 0.0000 -369.8032 0.0000 0.0000
# 5 0.0000 0.0000 0.0000 0.0000 33.5124 0.0000
# 6 0.0000 0.0000 0.0000 0.0000 0.0000 23.1183
#
#
#
# Elastic Compliance Matrix: (Units=1/GPa)
#
#
# Indices 1 2 3 4 5 6 
#
# 1 0.020286 -0.007190 -0.001968 0.000000 0.000000 0.000000
# 2 -0.007190 0.018854 -0.002953 0.000000 0.000000 0.000000
# 3 -0.001968 -0.002953 0.005815 0.000000 0.000000 0.000000
# 4 0.000000 0.000000 0.000000 -0.002704 0.000000 0.000000
# 5 0.000000 0.000000 0.000000 0.000000 0.029840 0.000000
# 6 0.000000 0.000000 0.000000 0.000000 0.000000 0.043256
#
#
# Mechanical properties :
#
#
# Convention : Reuss Voigt Hill
#
# Bulk Modulus (GPa) = 48.23021 63.29895 55.76458
# Shear Modulus (GPa) = 34.13439 -47.29775 -6.58168
#
# Velocity S-wave (km/s) = 3.79458 -4.46672 -1.66624
# Velocity P-wave (km/s) = 6.28835 0.31504 4.45211
#
# Compressibility (1/GPa) = 0.02073389
#
# Stress axis : x y z
#
# Youngs Moduli (GPa) = 49.29451 53.03775 171.97310
#
# Poissons Ratio (x) = 0.38134 0.33841
# Poissons Ratio (y) = 0.35442 0.50786
# Poissons Ratio (z) = 0.09700 0.15663
#
# Static dielectric constant tensor:
#      x y z
#    x 1.906440 0.000000 0.000000 
#    y 0.000000 1.932380 0.000000 
#    z 0.000000 0.000000 1.938470 
# 
# From -- ./inp_files/31240.got.cif
#   From: 2010.05.17/outbox.cif.g08.bks.cpg/sg52_16_cif.got.tgz:31240.got - 2010.06.03 12:15:38.
