data_PCOD9411339
_publ_section_title
;
Structure prediction by ZEFSAII (Michael W. Deem and Ramdas Pophale) SiO2 
 PCOD9411339
Probable space group: P N N A
;
_chemical_formula_sum "Si O2"
_cell_formula_units_Z 32
_cell_length_a 9.552515
_cell_length_b 21.864126
_cell_length_c 6.978117
_cell_angle_alpha 90.000000
_cell_angle_beta 90.000000
_cell_angle_gamma 90.000000
_cell_volume 1457.431315
_symmetry_space_group_name_H-M "P N N A"
_symmetry_group_IT_number 52
_symmetry_cell_setting 'orthorhombic'
loop_
_space_group_symop_operation_xyz
x,y,z
1/2-x,-y,z
x,1/2-y,1/2-z
1/2-x,1/2+y,1/2-z
-x,-y,-z
1/2+x,y,-z
-x,1/2+y,1/2+z
1/2+x,1/2-y,1/2+z
loop_
_atom_site_type_symbol
_atom_site_label
_atom_site_fract_x
_atom_site_fract_y
_atom_site_fract_z
Si Si1 0.838860 0.662087 0.076297
Si Si2 0.094286 0.743722 0.020269
Si Si3 0.238638 0.428370 0.256955
Si Si4 0.985126 0.624856 0.461430
O O1 0.981029 0.690688 0.993650
O O2 0.878420 0.637978 0.285684
O O3 0.734305 0.719093 0.071815
O O4 0.776621 0.610644 0.937358
O O5 0.118151 0.750000 0.250000
O O6 0.035467 0.809281 0.958878
O O7 0.250000 0.500000 0.217592
O O8 0.376993 0.406861 0.372919
O O9 0.101117 0.413111 0.383094
#
# Coordination Sequence:
#
# PCOD9411339 Si02
#       4
#     8   8   8   8
#     4  11  23  45  68 103 139 180 226 293 358 412
#     4  10  21  42  67 103 136 169 232 286 356 410
#     4  12  27  47  69 102 145 192 241 282 343 429
#     4  11  26  45  70 105 138 184 239 292 355 411
#
# _framework density 21.956436
#
# number of rings (size 3 to 8) (size 9 to 14) (size 15 to 20)
#    0.000    1.000    5.000    2.250    3.500    2.000 
#    0.000    0.000    0.000    0.000    0.000    0.000 
#    0.000    0.000    0.000    0.000    0.000    0.000 
#
# Total GULP energy -179194.824590 kJ/mol
# GULP energy per Si atom -5599.838268 kJ/mol
# Density = 2.190646 g / cm^3
# Si number density = 21.956436 Si / 1000 Ang^3
#
#
#
# Elastic Constant Matrix: (Units=GPa)
#
#
# Indices 1 2 3 4 5 6 
#
# 1 81.7152 15.7889 21.3419 0.0000 0.0000 0.0000
# 2 15.7889 129.4540 42.6970 0.0000 0.0000 0.0000
# 3 21.3419 42.6970 85.6038 0.0000 0.0000 0.0000
# 4 0.0000 0.0000 0.0000 -10.3182 0.0000 0.0000
# 5 0.0000 0.0000 0.0000 0.0000 32.8873 0.0000
# 6 0.0000 0.0000 0.0000 0.0000 0.0000 32.5659
#
#
#
# Elastic Compliance Matrix: (Units=1/GPa)
#
#
# Indices 1 2 3 4 5 6 
#
# 1 0.013132 -0.000625 -0.002962 0.000000 0.000000 0.000000
# 2 -0.000625 0.009275 -0.004471 0.000000 0.000000 0.000000
# 3 -0.002962 -0.004471 0.014650 0.000000 0.000000 0.000000
# 4 0.000000 0.000000 0.000000 -0.096916 0.000000 0.000000
# 5 0.000000 0.000000 0.000000 0.000000 0.030407 0.000000
# 6 0.000000 0.000000 0.000000 0.000000 0.000000 0.030707
#
#
# Mechanical properties :
#
#
# Convention : Reuss Voigt Hill
#
# Bulk Modulus (GPa) = 47.75023 50.71430 49.23227
# Shear Modulus (GPa) = 205.32529 25.49002 115.40765
#
# Velocity S-wave (km/s) = 9.68080 3.41095 7.25784
# Velocity P-wave (km/s) = 12.11413 6.21776 9.62841
#
# Compressibility (1/GPa) = 0.02094231
#
# Stress axis : x y z
#
# Youngs Moduli (GPa) = 76.14976 107.81149 68.25880
#
# Poissons Ratio (x) = 0.06734 0.20221
# Poissons Ratio (y) = 0.04756 0.30516
# Poissons Ratio (z) = 0.22559 0.48199
#
# Static dielectric constant tensor:
#      x y z
#    x 1.799930 0.000000 0.000000 
#    y 0.000000 1.754590 0.000000 
#    z 0.000000 0.000000 1.809110 
# 
# From -- ./inp_files/7222.got.cif
#   From: 2010.05.17/outbox.cif.g08.bks.cpg/sg52_4_cif.got.tgz:7222.got - 2010.06.03 12:15:38.
