data_PCOD9411350
_publ_section_title
;
Structure prediction by ZEFSAII (Michael W. Deem and Ramdas Pophale) SiO2 
 PCOD9411350
Probable space group: P N N A
;
_chemical_formula_sum "Si O2"
_cell_formula_units_Z 32
_cell_length_a 15.433564
_cell_length_b 8.315825
_cell_length_c 10.384011
_cell_angle_alpha 90.000000
_cell_angle_beta 90.000000
_cell_angle_gamma 90.000000
_cell_volume 1332.713227
_symmetry_space_group_name_H-M "P N N A"
_symmetry_group_IT_number 52
_symmetry_cell_setting 'orthorhombic'
loop_
_space_group_symop_operation_xyz
x,y,z
1/2-x,-y,z
x,1/2-y,1/2-z
1/2-x,1/2+y,1/2-z
-x,-y,-z
1/2+x,y,-z
-x,1/2+y,1/2+z
1/2+x,1/2-y,1/2+z
loop_
_atom_site_type_symbol
_atom_site_label
_atom_site_fract_x
_atom_site_fract_y
_atom_site_fract_z
Si Si1 0.407462 0.583271 0.993039
Si Si2 0.338741 0.062101 0.767764
Si Si3 0.154656 0.444848 0.268752
Si Si4 0.489744 0.874463 0.869380
O O1 0.353497 0.530581 0.867724
O O2 0.440549 0.767892 0.978484
O O3 0.500000 0.500000 0.000000
O O4 0.359728 0.514223 0.118023
O O5 0.332039 0.250000 0.750000
O O6 0.250000 0.000000 0.828667
O O7 0.424161 0.020799 0.846565
O O8 0.250000 0.500000 0.310139
O O9 0.145682 0.250000 0.250000
O O10 0.084286 0.544731 0.352721
O O11 0.486312 0.750000 0.750000
#
# Coordination Sequence:
#
# PCOD9411350 Si02
#       4
#     8   8   8   8
#     4  11  23  42  72  93 135 180 221 274 344 401
#     4  11  22  41  67  98 132 169 223 282 336 398
#     4  12  26  45  68 101 142 181 227 283 342 410
#     4  10  21  42  68  98 131 175 225 276 337 402
#
# _framework density 24.011167
#
# number of rings (size 3 to 8) (size 9 to 14) (size 15 to 20)
#    0.000    1.000    5.000    4.500    0.000    1.000 
#    0.000    1.250    0.000    0.000    0.000    0.000 
#    0.000    0.000    0.000    0.000    0.000    0.000 
#
# Total GULP energy -178470.726591 kJ/mol
# GULP energy per Si atom -5577.210206 kJ/mol
# Density = 2.395652 g / cm^3
# Si number density = 24.011167 Si / 1000 Ang^3
#
#
#
# Elastic Constant Matrix: (Units=GPa)
#
#
# Indices 1 2 3 4 5 6 
#
# 1 200.6785 49.5041 -0.8362 0.0000 0.0000 0.0000
# 2 49.5041 153.7388 -4.2402 0.0000 0.0000 0.0000
# 3 -0.8362 -4.2402 61.1449 0.0000 0.0000 0.0000
# 4 0.0000 0.0000 0.0000 16.7105 0.0000 0.0000
# 5 0.0000 0.0000 0.0000 0.0000 -39.4102 0.0000
# 6 0.0000 0.0000 0.0000 0.0000 0.0000 39.8307
#
#
#
# Elastic Compliance Matrix: (Units=1/GPa)
#
#
# Indices 1 2 3 4 5 6 
#
# 1 0.005413 -0.001744 -0.000047 0.000000 0.000000 0.000000
# 2 -0.001744 0.007079 0.000467 0.000000 0.000000 0.000000
# 3 -0.000047 0.000467 0.016386 0.000000 0.000000 0.000000
# 4 0.000000 0.000000 0.000000 0.059843 0.000000 0.000000
# 5 0.000000 0.000000 0.000000 0.000000 -0.025374 0.000000
# 6 0.000000 0.000000 0.000000 0.000000 0.000000 0.025106
#
#
# Mechanical properties :
#
#
# Convention : Reuss Voigt Hill
#
# Bulk Modulus (GPa) = 38.12401 56.04640 47.08521
# Shear Modulus (GPa) = 50.07747 28.16849 39.12298
#
# Velocity S-wave (km/s) = 4.57178 3.42883 4.04092
# Velocity P-wave (km/s) = 6.61667 6.25047 6.43617
#
# Compressibility (1/GPa) = 0.02623019
#
# Stress axis : x y z
#
# Youngs Moduli (GPa) = 184.73353 141.26081 61.02642
#
# Poissons Ratio (x) = 0.24641 0.00286
# Poissons Ratio (y) = 0.32224 -0.02850
# Poissons Ratio (z) = 0.00867 -0.06598
#
# Static dielectric constant tensor:
#      x y z
#    x 1.787050 0.000000 0.000000 
#    y 0.000000 1.892870 0.000000 
#    z 0.000000 0.000000 2.075520 
# 
# From -- ./inp_files/18867.got.cif
#   From: 2010.05.17/outbox.cif.g08.bks.cpg/sg52_10_cif.got.tgz:18867.got - 2010.06.03 12:15:38.
