data_PCOD9411109
_publ_section_title
;
Structure prediction by ZEFSAII (Michael W. Deem and Ramdas Pophale) SiO2 
 PCOD9411109
Probable space group: P N N A
;
_chemical_formula_sum "Si O2"
_cell_formula_units_Z 40
_cell_length_a 12.374423
_cell_length_b 7.677084
_cell_length_c 19.235758
_cell_angle_alpha 90.000000
_cell_angle_beta 90.000000
_cell_angle_gamma 90.000000
_cell_volume 1827.387100
_symmetry_space_group_name_H-M "P N N A"
_symmetry_group_IT_number 52
_symmetry_cell_setting 'orthorhombic'
loop_
_space_group_symop_operation_xyz
x,y,z
1/2-x,-y,z
x,1/2-y,1/2-z
1/2-x,1/2+y,1/2-z
-x,-y,-z
1/2+x,y,-z
-x,1/2+y,1/2+z
1/2+x,1/2-y,1/2+z
loop_
_atom_site_type_symbol
_atom_site_label
_atom_site_fract_x
_atom_site_fract_y
_atom_site_fract_z
Si Si1 0.355250 0.880907 0.954180
Si Si2 0.273861 0.702224 0.820235
Si Si3 0.452308 0.357075 0.649278
Si Si4 0.564570 0.096870 0.558441
Si Si5 0.750000 0.500000 0.853272
Si Si6 0.373388 0.750000 0.250000
O O1 0.328900 0.746338 0.892605
O O2 0.250000 0.000000 0.967942
O O3 0.441639 0.005954 0.914331
O O4 0.382606 0.766794 0.021566
O O5 0.250000 0.500000 0.818861
O O6 0.337742 0.750000 0.750000
O O7 0.166740 0.826337 0.819535
O O8 0.484200 0.172335 0.615765
O O9 0.545202 0.379308 0.707501
O O10 0.650198 0.969577 0.594681
O O11 0.500000 0.000000 0.500000
O O12 0.703625 0.348246 0.804415
#
# Coordination Sequence:
#
# PCOD9411109 Si02
#       6
#     8   8   8   8   4   4
#     4  10  23  39  63  95 130 169 216 271 335 388
#     4  11  21  36  62  92 127 167 211 268 327 383
#     4  10  21  40  63  89 127 171 215 274 322 394
#     4  11  24  42  66  95 130 169 222 268 334 398
#     4  10  26  44  66  98 126 180 212 282 328 384
#     4  10  22  46  64  88 134 164 230 270 322 400
#
# _framework density 21.889178999999999
#
# number of rings (size 3 to 8) (size 9 to 14) (size 15 to 20)
#    0.000    1.600    1.000    3.600    7.000    1.600 
#    7.200    0.000    0.000    0.000    0.000    0.000 
#    0.000    0.000    0.000    0.000    0.000    0.000 
#
# Total GULP energy -223197.258187 kJ/mol
# GULP energy per Si atom -5579.931455 kJ/mol
# Density = 2.183936 g / cm^3
# Si number density = 21.889179 Si / 1000 Ang^3
#
#
#
# Elastic Constant Matrix: (Units=GPa)
#
#
# Indices 1 2 3 4 5 6 
#
# 1 82.2294 28.0684 41.3799 0.0000 0.0000 0.0000
# 2 28.0684 60.1421 2.2030 0.0000 0.0000 0.0000
# 3 41.3799 2.2030 84.7661 0.0000 0.0000 0.0000
# 4 0.0000 0.0000 0.0000 37.1449 0.0000 0.0000
# 5 0.0000 0.0000 0.0000 0.0000 29.9841 0.0000
# 6 0.0000 0.0000 0.0000 0.0000 0.0000 26.4511
#
#
#
# Elastic Compliance Matrix: (Units=1/GPa)
#
#
# Indices 1 2 3 4 5 6 
#
# 1 0.020039 -0.009002 -0.009548 0.000000 0.000000 0.000000
# 2 -0.009002 0.020687 0.003857 0.000000 0.000000 0.000000
# 3 -0.009548 0.003857 0.016358 0.000000 0.000000 0.000000
# 4 0.000000 0.000000 0.000000 0.026922 0.000000 0.000000
# 5 0.000000 0.000000 0.000000 0.000000 0.033351 0.000000
# 6 0.000000 0.000000 0.000000 0.000000 0.000000 0.037806
#
#
# Mechanical properties :
#
#
# Convention : Reuss Voigt Hill
#
# Bulk Modulus (GPa) = 36.10506 41.16004 38.63255
# Shear Modulus (GPa) = 25.80207 29.08176 27.44192
#
# Velocity S-wave (km/s) = 3.43703 3.64894 3.54457
# Velocity P-wave (km/s) = 5.68165 6.04960 5.86851
#
# Compressibility (1/GPa) = 0.02769695
#
# Stress axis : x y z
#
# Youngs Moduli (GPa) = 49.90262 48.33847 61.13167
#
# Poissons Ratio (x) = 0.43517 0.58371
# Poissons Ratio (y) = 0.44925 -0.23579
# Poissons Ratio (z) = 0.47649 -0.18644
#
# Static dielectric constant tensor:
#      x y z
#    x 1.837970 0.000000 0.000000 
#    y 0.000000 1.776100 0.000000 
#    z 0.000000 0.000000 1.836840 
# 
# From -- ./inp_files/36682.got.cif
#   From: 2010.05.17/outbox.cif.g08.bks.cpg/sg52_19_cif.got.tgz:36682.got - 2010.06.03 12:15:38.
