data_PCOD9411551
_publ_section_title
;
Structure prediction by ZEFSAII (Michael W. Deem and Ramdas Pophale) SiO2 
 PCOD9411551
Probable space group: P N N A
;
_chemical_formula_sum "Si O2"
_cell_formula_units_Z 60
_cell_length_a 12.163573
_cell_length_b 8.473969
_cell_length_c 28.487526
_cell_angle_alpha 90.000000
_cell_angle_beta 90.000000
_cell_angle_gamma 90.000000
_cell_volume 2936.315863
_symmetry_space_group_name_H-M "P N N A"
_symmetry_group_IT_number 52
_symmetry_cell_setting 'orthorhombic'
loop_
_space_group_symop_operation_xyz
x,y,z
1/2-x,-y,z
x,1/2-y,1/2-z
1/2-x,1/2+y,1/2-z
-x,-y,-z
1/2+x,y,-z
-x,1/2+y,1/2+z
1/2+x,1/2-y,1/2+z
loop_
_atom_site_type_symbol
_atom_site_label
_atom_site_fract_x
_atom_site_fract_y
_atom_site_fract_z
Si Si1 0.250000 0.500000 0.740727
Si Si2 0.975977 0.698642 0.862270
Si Si3 0.016044 0.810463 0.057098
Si Si4 0.568701 0.838755 0.051757
Si Si5 0.219368 0.318083 0.300791
Si Si6 0.214536 0.171201 0.579581
Si Si7 0.706544 0.714360 0.180847
Si Si8 0.855203 0.388191 0.867493
O O1 0.326096 0.414612 0.779498
O O2 0.227341 0.354422 0.706455
O O3 0.878129 0.794055 0.838263
O O4 0.949738 0.514323 0.854784
O O5 0.993008 0.721147 0.917792
O O6 0.089222 0.761201 0.840194
O O7 0.104240 0.732099 0.092284
O O8 0.905447 0.709902 0.062020
O O9 0.056225 0.815097 0.003582
O O10 0.975459 0.989337 0.067134
O O11 0.695057 0.800344 0.064316
O O12 0.250000 0.500000 0.296686
O O13 0.187650 0.250000 0.250000
O O14 0.317490 0.212911 0.322593
O O15 0.221455 0.164161 0.636286
O O16 0.250000 0.000000 0.561604
O O17 0.750000 0.500000 0.881133
#
# Coordination Sequence:
#
# PCOD9411551 Si02
#       8
#     4   8   8   8   8   8   8   8
#     4  10  22  38  58  88 124 156 208 248 302 366
#     4  10  22  41  66  87 128 167 207 259 321 371
#     4  11  23  42  66  93 126 167 209 258 327 380
#     4  10  24  41  63  97 124 164 212 257 317 387
#     4  11  23  43  65  93 127 167 215 266 316 375
#     4  11  23  40  64  90 130 162 206 261 309 380
#     4  10  22  40  59  93 123 163 201 256 305 368
#     4  10  23  42  65  95 125 164 214 267 311 384
#
# _framework density 20.433769999999999
#
# number of rings (size 3 to 8) (size 9 to 14) (size 15 to 20)
#    0.000    1.600    0.667    4.000    5.600    4.800 
#    0.000    2.667    0.000    0.000    0.000    0.000 
#    0.000    0.000    0.000    0.000    0.000    0.000 
#
# Total GULP energy -334446.125755 kJ/mol
# GULP energy per Si atom -5574.102096 kJ/mol
# Density = 2.038726 g / cm^3
# Si number density = 20.433770 Si / 1000 Ang^3
#
#
#
# Elastic Constant Matrix: (Units=GPa)
#
#
# Indices 1 2 3 4 5 6 
#
# 1 34.5862 13.5928 3.1891 0.0000 0.0000 0.0000
# 2 13.5928 81.4594 7.4880 0.0000 0.0000 0.0000
# 3 3.1891 7.4880 41.9761 0.0000 0.0000 0.0000
# 4 0.0000 0.0000 0.0000 30.9021 0.0000 0.0000
# 5 0.0000 0.0000 0.0000 0.0000 4.8415 0.0000
# 6 0.0000 0.0000 0.0000 0.0000 0.0000 26.2458
#
#
#
# Elastic Compliance Matrix: (Units=1/GPa)
#
#
# Indices 1 2 3 4 5 6 
#
# 1 0.031030 -0.005044 -0.001458 0.000000 0.000000 0.000000
# 2 -0.005044 0.013301 -0.001989 0.000000 0.000000 0.000000
# 3 -0.001458 -0.001989 0.024289 0.000000 0.000000 0.000000
# 4 0.000000 0.000000 0.000000 0.032360 0.000000 0.000000
# 5 0.000000 0.000000 0.000000 0.000000 0.206547 0.000000
# 6 0.000000 0.000000 0.000000 0.000000 0.000000 0.038101
#
#
# Mechanical properties :
#
#
# Convention : Reuss Voigt Hill
#
# Bulk Modulus (GPa) = 19.36586 22.95128 21.15857
# Shear Modulus (GPa) = 13.16406 21.31469 17.23937
#
# Velocity S-wave (km/s) = 2.54092 3.23323 2.90775
# Velocity P-wave (km/s) = 4.25515 5.01944 4.65302
#
# Compressibility (1/GPa) = 0.05163727
#
# Stress axis : x y z
#
# Youngs Moduli (GPa) = 32.22687 75.18466 41.17140
#
# Poissons Ratio (x) = 0.37922 0.06001
# Poissons Ratio (y) = 0.16255 0.08191
# Poissons Ratio (z) = 0.04698 0.14958
#
# Static dielectric constant tensor:
#      x y z
#    x 1.708270 0.000000 0.000000 
#    y 0.000000 1.784870 0.000000 
#    z 0.000000 0.000000 1.722120 
# 
# From -- ./inp_files/44818.got.cif
#   From: 2010.05.17/outbox.cif.g08.bks.cpg/sg52_23_cif.got.tgz:44818.got - 2010.06.03 12:15:38.
