data_PCOD9411709
_publ_section_title
;
Structure prediction by ZEFSAII (Michael W. Deem and Ramdas Pophale) SiO2 
 PCOD9411709
Probable space group: P N N A
;
_chemical_formula_sum "Si O2"
_cell_formula_units_Z 56
_cell_length_a 15.952762
_cell_length_b 19.796325
_cell_length_c 8.711473
_cell_angle_alpha 90.000000
_cell_angle_beta 90.000000
_cell_angle_gamma 90.000000
_cell_volume 2751.135975
_symmetry_space_group_name_H-M "P N N A"
_symmetry_group_IT_number 52
_symmetry_cell_setting 'orthorhombic'
loop_
_space_group_symop_operation_xyz
x,y,z
1/2-x,-y,z
x,1/2-y,1/2-z
1/2-x,1/2+y,1/2-z
-x,-y,-z
1/2+x,y,-z
-x,1/2+y,1/2+z
1/2+x,1/2-y,1/2+z
loop_
_atom_site_type_symbol
_atom_site_label
_atom_site_fract_x
_atom_site_fract_y
_atom_site_fract_z
Si Si1 0.753518 0.361709 0.546659
Si Si2 0.432006 0.833240 0.970626
Si Si3 0.538084 0.750000 0.750000
Si Si4 0.359190 0.386552 0.189789
Si Si5 0.593782 0.679713 0.338789
Si Si6 0.889539 0.449831 0.139246
Si Si7 0.250000 0.500000 0.646059
Si Si8 0.500525 0.464173 0.335520
O O1 0.664020 0.326352 0.519077
O O2 0.771201 0.372591 0.727367
O O3 0.834412 0.322959 0.472056
O O4 0.748811 0.433889 0.460451
O O5 0.474812 0.771315 0.883771
O O6 0.441305 0.898088 0.858682
O O7 0.501172 0.841688 0.103949
O O8 0.592724 0.686070 0.809544
O O9 0.409339 0.433078 0.310095
O O10 0.366433 0.429786 0.034084
O O11 0.592069 0.750000 0.250000
O O12 0.617797 0.622091 0.220665
O O13 0.826367 0.496190 0.235506
O O14 0.975134 0.487482 0.192684
O O15 0.500000 0.500000 0.500000
#
# Coordination Sequence:
#
# PCOD9411709 Si02
#       8
#     8   8   4   8   8   8   4   8
#     4  11  23  41  70  96 134 182 223 279 353 418
#     4  11  22  41  70  96 130 178 229 283 338 421
#     4  10  22  44  66  96 136 176 246 286 348 414
#     4  11  24  41  67  98 134 183 222 299 344 408
#     4  11  23  43  65  94 132 185 229 273 342 417
#     4  11  22  39  65  96 139 172 225 285 342 410
#     4  10  22  40  62 100 134 170 222 268 344 432
#     4  11  19  41  67  95 129 176 227 267 349 417
#
# _framework density 20.355229000000001
#
# number of rings (size 3 to 8) (size 9 to 14) (size 15 to 20)
#    0.000    1.143    5.714    2.143    1.000    0.571 
#    1.286    0.000    0.000    0.000    0.000    0.000 
#    0.000    0.000    0.000    0.000    0.000    0.000 
#
# Total GULP energy -311992.655152 kJ/mol
# GULP energy per Si atom -5571.297413 kJ/mol
# Density = 2.030890 g / cm^3
# Si number density = 20.355229 Si / 1000 Ang^3
#
#
#
# Elastic Constant Matrix: (Units=GPa)
#
#
# Indices 1 2 3 4 5 6 
#
# 1 95.5081 19.6901 27.7248 0.0000 0.0000 0.0000
# 2 19.6901 83.4381 30.8846 0.0000 0.0000 0.0000
# 3 27.7248 30.8846 111.4740 0.0000 0.0000 0.0000
# 4 0.0000 0.0000 0.0000 38.3817 0.0000 0.0000
# 5 0.0000 0.0000 0.0000 0.0000 3.1686 0.0000
# 6 0.0000 0.0000 0.0000 0.0000 0.0000 19.8005
#
#
#
# Elastic Compliance Matrix: (Units=1/GPa)
#
#
# Indices 1 2 3 4 5 6 
#
# 1 0.011536 -0.001850 -0.002357 0.000000 0.000000 0.000000
# 2 -0.001850 0.013651 -0.003322 0.000000 0.000000 0.000000
# 3 -0.002357 -0.003322 0.010477 0.000000 0.000000 0.000000
# 4 0.000000 0.000000 0.000000 0.026054 0.000000 0.000000
# 5 0.000000 0.000000 0.000000 0.000000 0.315596 0.000000
# 6 0.000000 0.000000 0.000000 0.000000 0.000000 0.050504
#
#
# Mechanical properties :
#
#
# Convention : Reuss Voigt Hill
#
# Bulk Modulus (GPa) = 48.52715 49.66880 49.09798
# Shear Modulus (GPa) = 11.11744 26.41155 18.76449
#
# Velocity S-wave (km/s) = 2.33957 3.60603 3.03949
# Velocity P-wave (km/s) = 5.58480 6.46467 6.04078
#
# Compressibility (1/GPa) = 0.02060702
#
# Stress axis : x y z
#
# Youngs Moduli (GPa) = 86.68682 73.25390 95.44549
#
# Poissons Ratio (x) = 0.13552 0.22492
# Poissons Ratio (y) = 0.16037 0.31707
# Poissons Ratio (z) = 0.20428 0.24335
#
# Static dielectric constant tensor:
#      x y z
#    x 1.951990 0.000000 0.000000 
#    y 0.000000 1.774990 0.000000 
#    z 0.000000 0.000000 2.907110 
# 
# From -- ./inp_files/12550.got.cif
#   From: 2010.05.17/outbox.cif.g08.bks.cpg/sg52_7_cif.got.tgz:12550.got - 2010.06.03 12:15:38.
