data_PCOD9411890
_publ_section_title
;
Structure prediction by ZEFSAII (Michael W. Deem and Ramdas Pophale) SiO2 
 PCOD9411890
Probable space group: P N N A
;
_chemical_formula_sum "Si O2"
_cell_formula_units_Z 36
_cell_length_a 21.813069
_cell_length_b 10.984829
_cell_length_c 6.081681
_cell_angle_alpha 90.000000
_cell_angle_beta 90.000000
_cell_angle_gamma 90.000000
_cell_volume 1457.248813
_symmetry_space_group_name_H-M "P N N A"
_symmetry_group_IT_number 52
_symmetry_cell_setting 'orthorhombic'
loop_
_space_group_symop_operation_xyz
x,y,z
1/2-x,-y,z
x,1/2-y,1/2-z
1/2-x,1/2+y,1/2-z
-x,-y,-z
1/2+x,y,-z
-x,1/2+y,1/2+z
1/2+x,1/2-y,1/2+z
loop_
_atom_site_type_symbol
_atom_site_label
_atom_site_fract_x
_atom_site_fract_y
_atom_site_fract_z
Si Si1 0.950545 0.383146 0.696025
Si Si2 0.698623 0.136698 0.896842
Si Si3 0.714818 0.750000 0.250000
Si Si4 0.091018 0.429257 0.645205
Si Si5 0.652282 0.962349 0.529847
O O1 0.927534 0.250000 0.750000
O O2 0.924181 0.440598 0.471801
O O3 0.918106 0.456828 0.887979
O O4 0.023557 0.384366 0.700118
O O5 0.716319 0.250000 0.750000
O O6 0.689642 0.017736 0.736892
O O7 0.745625 0.154911 0.100315
O O8 0.628212 0.154398 0.976979
O O9 0.677650 0.838150 0.419865
O O10 0.142160 0.445753 0.830593
#
# Coordination Sequence:
#
# PCOD9411890 Si02
#       5
#     8   8   4   8   8
#     4  10  22  41  70 104 142 185 237 305 380 453
#     4  11  27  46  71 107 145 199 248 312 382 461
#     4  12  28  48  74 110 156 202 258 320 378 456
#     4  10  23  44  68 107 143 185 244 307 375 459
#     4  11  25  47  73 102 146 195 252 307 382 455
#
# _framework density 24.704087000000001
#
# number of rings (size 3 to 8) (size 9 to 14) (size 15 to 20)
#    0.000    1.333    0.000    3.333    4.667    9.778 
#    0.000    0.000    0.000    0.000    0.000    0.000 
#    0.000    0.000    0.000    0.000    0.000    0.000 
#
# Total GULP energy -200705.523728 kJ/mol
# GULP energy per Si atom -5575.153437 kJ/mol
# Density = 2.464786 g / cm^3
# Si number density = 24.704087 Si / 1000 Ang^3
#
#
#
# Elastic Constant Matrix: (Units=GPa)
#
#
# Indices 1 2 3 4 5 6 
#
# 1 134.7690 -8.0568 70.8960 0.0000 0.0000 0.0000
# 2 -8.0568 66.0996 47.2734 0.0000 0.0000 0.0000
# 3 70.8960 47.2734 112.7239 0.0000 0.0000 0.0000
# 4 0.0000 0.0000 0.0000 48.0866 0.0000 0.0000
# 5 0.0000 0.0000 0.0000 0.0000 30.6976 0.0000
# 6 0.0000 0.0000 0.0000 0.0000 0.0000 -16.8701
#
#
#
# Elastic Compliance Matrix: (Units=1/GPa)
#
#
# Indices 1 2 3 4 5 6 
#
# 1 0.016857 0.013766 -0.016375 0.000000 0.000000 0.000000
# 2 0.013766 0.032852 -0.022435 0.000000 0.000000 0.000000
# 3 -0.016375 -0.022435 0.028579 0.000000 0.000000 0.000000
# 4 0.000000 0.000000 0.000000 0.020796 0.000000 0.000000
# 5 0.000000 0.000000 0.000000 0.000000 0.032576 0.000000
# 6 0.000000 0.000000 0.000000 0.000000 0.000000 -0.059276
#
#
# Mechanical properties :
#
#
# Convention : Reuss Voigt Hill
#
# Bulk Modulus (GPa) = 35.46164 59.31310 47.38737
# Shear Modulus (GPa) = 37.91531 25.94813 31.93172
#
# Velocity S-wave (km/s) = 3.92188 3.24444 3.59913
# Velocity P-wave (km/s) = 5.90710 6.17225 6.04113
#
# Compressibility (1/GPa) = 0.02819948
#
# Stress axis : x y z
#
# Youngs Moduli (GPa) = 59.32086 30.43951 34.99059
#
# Poissons Ratio (x) = -0.41904 0.57299
# Poissons Ratio (y) = -0.81662 0.78503
# Poissons Ratio (z) = 0.97141 0.68292
#
# Static dielectric constant tensor:
#      x y z
#    x 1.895870 0.000000 0.000000 
#    y 0.000000 1.988060 0.000000 
#    z 0.000000 0.000000 2.072070 
# 
# From -- ./inp_files/4897.got.cif
#   From: 2010.05.17/outbox.cif.g08.bks.cpg/sg52_3_cif.got.tgz:4897.got - 2010.06.03 12:15:38.
