data_PCOD9411411
_publ_section_title
;
Structure prediction by ZEFSAII (Michael W. Deem and Ramdas Pophale) SiO2 
 PCOD9411411
Probable space group: P N N A
;
_chemical_formula_sum "Si O2"
_cell_formula_units_Z 48
_cell_length_a 11.560158
_cell_length_b 22.572045
_cell_length_c 7.110206
_cell_angle_alpha 90.000000
_cell_angle_beta 90.000000
_cell_angle_gamma 90.000000
_cell_volume 1855.311604
_symmetry_space_group_name_H-M "P N N A"
_symmetry_group_IT_number 52
_symmetry_cell_setting 'orthorhombic'
loop_
_space_group_symop_operation_xyz
x,y,z
1/2-x,-y,z
x,1/2-y,1/2-z
1/2-x,1/2+y,1/2-z
-x,-y,-z
1/2+x,y,-z
-x,1/2+y,1/2+z
1/2+x,1/2-y,1/2+z
loop_
_atom_site_type_symbol
_atom_site_label
_atom_site_fract_x
_atom_site_fract_y
_atom_site_fract_z
Si Si1 0.750000 0.000000 0.675080
Si Si2 0.131626 0.391269 0.766899
Si Si3 0.204396 0.683844 0.220246
Si Si4 0.905224 0.424975 0.617506
Si Si5 0.250000 0.000000 0.828411
Si Si6 0.922059 0.880648 0.684533
Si Si7 0.655229 0.679809 0.217917
O O1 0.639520 0.955766 0.687997
O O2 0.845055 0.940329 0.716828
O O3 0.204237 0.450530 0.812251
O O4 0.221284 0.342109 0.698327
O O5 0.042491 0.417661 0.615383
O O6 0.068954 0.373719 0.957375
O O7 0.167381 0.750000 0.250000
O O8 0.138387 0.641388 0.361239
O O9 0.339443 0.672324 0.251972
O O10 0.180037 0.670536 0.003265
O O11 0.839097 0.465806 0.465683
O O12 0.049468 0.865336 0.761930
O O13 0.633133 0.750000 0.250000
#
# Coordination Sequence:
#
# PCOD9411411 Si02
#       7
#     4   8   8   8   4   8   8
#     4   9  21  38  72  98 133 185 234 286 365 447
#     4  11  24  42  66 102 140 183 242 298 358 438
#     4  10  22  43  68  94 136 192 239 291 366 434
#     4  10  22  44  64  98 144 184 233 296 357 432
#     4  11  25  42  66 106 143 193 240 294 373 431
#     4  10  21  44  68 102 140 185 239 301 371 436
#     4  11  25  44  68 109 145 191 251 302 367 447
#
# _framework density 25.871665
#
# number of rings (size 3 to 8) (size 9 to 14) (size 15 to 20)
#    0.000    1.667    1.667    1.500    4.667    1.333 
#    3.000    0.000    0.000    0.000    0.000    0.000 
#    0.000    0.000    0.000    0.000    0.000    0.000 
#
# Total GULP energy -267214.771027 kJ/mol
# GULP energy per Si atom -5566.974396 kJ/mol
# Density = 2.581278 g / cm^3
# Si number density = 25.871665 Si / 1000 Ang^3
#
#
#
# Elastic Constant Matrix: (Units=GPa)
#
#
# Indices 1 2 3 4 5 6 
#
# 1 149.9803 51.6521 24.2560 0.0000 0.0000 0.0000
# 2 51.6521 166.0493 5.6814 0.0000 0.0000 0.0000
# 3 24.2560 5.6814 93.0089 0.0000 0.0000 0.0000
# 4 0.0000 0.0000 0.0000 29.5339 0.0000 0.0000
# 5 0.0000 0.0000 0.0000 0.0000 51.1403 0.0000
# 6 0.0000 0.0000 0.0000 0.0000 0.0000 27.8671
#
#
#
# Elastic Compliance Matrix: (Units=1/GPa)
#
#
# Indices 1 2 3 4 5 6 
#
# 1 0.007784 -0.002357 -0.001886 0.000000 0.000000 0.000000
# 2 -0.002357 0.006749 0.000202 0.000000 0.000000 0.000000
# 3 -0.001886 0.000202 0.011231 0.000000 0.000000 0.000000
# 4 0.000000 0.000000 0.000000 0.033859 0.000000 0.000000
# 5 0.000000 0.000000 0.000000 0.000000 0.019554 0.000000
# 6 0.000000 0.000000 0.000000 0.000000 0.000000 0.035885
#
#
# Mechanical properties :
#
#
# Convention : Reuss Voigt Hill
#
# Bulk Modulus (GPa) = 56.55200 63.57974 60.06587
# Shear Modulus (GPa) = 38.74843 43.53818 41.14330
#
# Velocity S-wave (km/s) = 3.87423 4.10671 3.99216
# Velocity P-wave (km/s) = 6.47449 6.86405 6.67211
#
# Compressibility (1/GPa) = 0.01768284
#
# Stress axis : x y z
#
# Youngs Moduli (GPa) = 128.46418 148.18050 89.03791
#
# Poissons Ratio (x) = 0.34924 0.16793
# Poissons Ratio (y) = 0.30277 -0.01802
# Poissons Ratio (z) = 0.24230 -0.02999
#
# Static dielectric constant tensor:
#      x y z
#    x 2.081790 0.000000 0.000000 
#    y 0.000000 2.028800 0.000000 
#    z 0.000000 0.000000 2.450660 
# 
# From -- ./inp_files/8964.got.cif
#   From: 2010.05.17/outbox.cif.g08.bks.cpg/sg52_5_cif.got.tgz:8964.got - 2010.06.03 12:15:38.
