data_PCOD9411477
_publ_section_title
;
Structure prediction by ZEFSAII (Michael W. Deem and Ramdas Pophale) SiO2 
 PCOD9411477
Probable space group: P N N A
;
_chemical_formula_sum "Si O2"
_cell_formula_units_Z 48
_cell_length_a 24.197192
_cell_length_b 8.467033
_cell_length_c 9.409589
_cell_angle_alpha 90.000000
_cell_angle_beta 90.000000
_cell_angle_gamma 90.000000
_cell_volume 1927.821757
_symmetry_space_group_name_H-M "P N N A"
_symmetry_group_IT_number 52
_symmetry_cell_setting 'orthorhombic'
loop_
_space_group_symop_operation_xyz
x,y,z
1/2-x,-y,z
x,1/2-y,1/2-z
1/2-x,1/2+y,1/2-z
-x,-y,-z
1/2+x,y,-z
-x,1/2+y,1/2+z
1/2+x,1/2-y,1/2+z
loop_
_atom_site_type_symbol
_atom_site_label
_atom_site_fract_x
_atom_site_fract_y
_atom_site_fract_z
Si Si1 0.833711 0.250000 0.750000
Si Si2 0.212703 0.647288 0.514875
Si Si3 0.365905 0.862129 0.571425
Si Si4 0.605239 0.490227 0.455831
Si Si5 0.595236 0.019151 0.702174
Si Si6 0.750000 0.000000 0.406346
Si Si7 0.024723 0.437217 0.772581
O O1 0.796215 0.361793 0.654848
O O2 0.875422 0.354973 0.841140
O O3 0.250000 0.500000 0.564582
O O4 0.151591 0.620217 0.575964
O O5 0.235539 0.822310 0.536283
O O6 0.370891 0.676487 0.602084
O O7 0.369713 0.866576 0.398460
O O8 0.422509 0.941823 0.624480
O O9 0.312814 0.949166 0.635091
O O10 0.599021 0.476395 0.626346
O O11 0.547834 0.510349 0.374232
O O12 0.530086 0.022270 0.674023
O O13 0.011182 0.250000 0.750000
#
# Coordination Sequence:
#
# PCOD9411477 Si02
#       7
#     4   8   8   8   8   4   8
#     4  10  22  34  62 100 136 170 222 278 344 398
#     4  11  23  41  65  95 138 180 226 277 336 406
#     4  11  23  42  65  99 132 173 229 276 333 404
#     4  10  23  42  64  99 132 174 225 274 342 401
#     4  11  20  40  67  98 135 172 222 281 337 397
#     4  12  24  44  66 100 136 178 224 284 336 400
#     4  10  22  42  66  95 135 180 223 277 337 405
#
# _framework density 24.898565999999999
#
# number of rings (size 3 to 8) (size 9 to 14) (size 15 to 20)
#    0.000    1.333    4.167    1.500    1.167    0.000 
#    1.500    2.500    0.000    0.000    0.000    0.000 
#    0.000    0.000    0.000    0.000    0.000    0.000 
#
# Total GULP energy -267554.690479 kJ/mol
# GULP energy per Si atom -5574.056052 kJ/mol
# Density = 2.484190 g / cm^3
# Si number density = 24.898566 Si / 1000 Ang^3
#
#
#
# Elastic Constant Matrix: (Units=GPa)
#
#
# Indices 1 2 3 4 5 6 
#
# 1 135.7923 58.3048 34.2652 0.0000 0.0000 0.0000
# 2 58.3048 50.8058 22.1873 0.0000 0.0000 0.0000
# 3 34.2652 22.1873 91.2607 0.0000 0.0000 0.0000
# 4 0.0000 0.0000 0.0000 30.8582 0.0000 0.0000
# 5 0.0000 0.0000 0.0000 0.0000 18.3539 0.0000
# 6 0.0000 0.0000 0.0000 0.0000 0.0000 14.3803
#
#
#
# Elastic Compliance Matrix: (Units=1/GPa)
#
#
# Indices 1 2 3 4 5 6 
#
# 1 0.014721 -0.016200 -0.001589 0.000000 0.000000 0.000000
# 2 -0.016200 0.039848 -0.003605 0.000000 0.000000 0.000000
# 3 -0.001589 -0.003605 0.012431 0.000000 0.000000 0.000000
# 4 0.000000 0.000000 0.000000 0.032406 0.000000 0.000000
# 5 0.000000 0.000000 0.000000 0.000000 0.054484 0.000000
# 6 0.000000 0.000000 0.000000 0.000000 0.000000 0.069540
#
#
# Mechanical properties :
#
#
# Convention : Reuss Voigt Hill
#
# Bulk Modulus (GPa) = 41.30203 56.37483 48.83843
# Shear Modulus (GPa) = 18.22903 23.59192 20.91047
#
# Velocity S-wave (km/s) = 2.70873 3.08152 2.90112
# Velocity P-wave (km/s) = 5.13878 5.94575 5.55694
#
# Compressibility (1/GPa) = 0.02421189
#
# Stress axis : x y z
#
# Youngs Moduli (GPa) = 67.93166 25.09530 80.44636
#
# Poissons Ratio (x) = 0.40654 0.12780
# Poissons Ratio (y) = 1.10047 0.29004
# Poissons Ratio (z) = 0.10792 0.09048
#
# Static dielectric constant tensor:
#      x y z
#    x 1.958000 0.000000 0.000000 
#    y 0.000000 2.057940 0.000000 
#    z 0.000000 0.000000 2.116080 
# 
# From -- ./inp_files/22362.got.cif
#   From: 2010.05.17/outbox.cif.g08.bks.cpg/sg52_12_cif.got.tgz:22362.got - 2010.06.03 12:15:38.
