data_PCOD9411618
_publ_section_title
;
Structure prediction by ZEFSAII (Michael W. Deem and Ramdas Pophale) SiO2 
 PCOD9411618
Probable space group: P N N A
;
_chemical_formula_sum "Si O2"
_cell_formula_units_Z 40
_cell_length_a 20.058115
_cell_length_b 10.366501
_cell_length_c 8.855891
_cell_angle_alpha 90.000000
_cell_angle_beta 90.000000
_cell_angle_gamma 90.000000
_cell_volume 1841.427283
_symmetry_space_group_name_H-M "P N N A"
_symmetry_group_IT_number 52
_symmetry_cell_setting 'orthorhombic'
loop_
_space_group_symop_operation_xyz
x,y,z
1/2-x,-y,z
x,1/2-y,1/2-z
1/2-x,1/2+y,1/2-z
-x,-y,-z
1/2+x,y,-z
-x,1/2+y,1/2+z
1/2+x,1/2-y,1/2+z
loop_
_atom_site_type_symbol
_atom_site_label
_atom_site_fract_x
_atom_site_fract_y
_atom_site_fract_z
Si Si1 0.816981 0.250000 0.250000
Si Si2 0.316212 0.452906 0.522185
Si Si3 0.928264 0.379266 0.048196
Si Si4 0.538447 0.250000 0.750000
Si Si5 0.425942 0.601530 0.716697
Si Si6 0.427553 0.459346 0.296558
O O1 0.783697 0.358324 0.351330
O O2 0.863999 0.317126 0.126170
O O3 0.250000 0.500000 0.438685
O O4 0.365690 0.545693 0.617515
O O5 0.369088 0.402879 0.399436
O O6 0.931836 0.518576 0.129519
O O7 0.989679 0.294571 0.113043
O O8 0.924157 0.400077 0.871127
O O9 0.576943 0.383010 0.711190
O O10 0.416175 0.750000 0.750000
O O11 0.498717 0.576757 0.644528
#
# Coordination Sequence:
#
# PCOD9411618 Si02
#       6
#     4   8   8   4   8   8
#     4   9  22  46  64  84 132 175 218 258 316 417
#     4  11  26  44  64  94 131 177 219 268 334 394
#     4   9  20  39  64  97 133 170 205 273 335 376
#     4   9  18  36  62  98 138 163 214 268 320 399
#     4  10  22  38  69  99 127 175 224 262 323 400
#     4  11  23  38  68 102 133 163 220 280 335 370
#
# _framework density 21.722280999999999
#
# number of rings (size 3 to 8) (size 9 to 14) (size 15 to 20)
#    0.000    2.000    0.000    4.200    9.800    0.000 
#    0.000    6.000    0.000    0.000    0.000    0.000 
#    0.000    0.000    0.000    0.000    0.000    0.000 
#
# Total GULP energy -223240.329881 kJ/mol
# GULP energy per Si atom -5581.008247 kJ/mol
# Density = 2.167284 g / cm^3
# Si number density = 21.722281 Si / 1000 Ang^3
#
#
#
# Elastic Constant Matrix: (Units=GPa)
#
#
# Indices 1 2 3 4 5 6 
#
# 1 104.0290 0.2026 38.2548 0.0000 0.0000 0.0000
# 2 0.2026 102.6745 49.4720 0.0000 0.0000 0.0000
# 3 38.2548 49.4720 139.6877 0.0000 0.0000 0.0000
# 4 0.0000 0.0000 0.0000 33.0210 0.0000 0.0000
# 5 0.0000 0.0000 0.0000 0.0000 0.6169 0.0000
# 6 0.0000 0.0000 0.0000 0.0000 0.0000 -0.3485
#
#
#
# Elastic Compliance Matrix: (Units=1/GPa)
#
#
# Indices 1 2 3 4 5 6 
#
# 1 0.010934 0.001714 -0.003601 0.000000 0.000000 0.000000
# 2 0.001714 0.012012 -0.004723 0.000000 0.000000 0.000000
# 3 -0.003601 -0.004723 0.009818 0.000000 0.000000 0.000000
# 4 0.000000 0.000000 0.000000 0.030284 0.000000 0.000000
# 5 0.000000 0.000000 0.000000 0.000000 1.620980 0.000000
# 6 0.000000 0.000000 0.000000 0.000000 0.000000 -2.869810
#
#
# Mechanical properties :
#
#
# Convention : Reuss Voigt Hill
#
# Bulk Modulus (GPa) = 51.17320 58.02777 54.60049
# Shear Modulus (GPa) = -4.28799 23.88868 9.80035
#
# Velocity S-wave (km/s) = -1.40652 3.31982 2.12637
# Velocity P-wave (km/s) = 4.57945 6.43944 5.58739
#
# Compressibility (1/GPa) = 0.01954148
#
# Stress axis : x y z
#
# Youngs Moduli (GPa) = 91.46094 83.24957 101.85456
#
# Poissons Ratio (x) = -0.14266 0.36679
# Poissons Ratio (y) = -0.15673 0.48111
# Poissons Ratio (z) = 0.32937 0.39323
#
# Static dielectric constant tensor:
#      x y z
#    x 1.753300 0.000000 0.000000 
#    y 0.000000 1.971050 0.000000 
#    z 0.000000 0.000000 1.816720 
# 
# From -- ./inp_files/13189.got.cif
#   From: 2010.05.17/outbox.cif.g08.bks.cpg/sg52_7_cif.got.tgz:13189.got - 2010.06.03 12:15:38.
