data_PCOD9411108
_publ_section_title
;
Structure prediction by ZEFSAII (Michael W. Deem and Ramdas Pophale) SiO2 
 PCOD9411108
Probable space group: P N N A
;
_chemical_formula_sum "Si O2"
_cell_formula_units_Z 40
_cell_length_a 10.133804
_cell_length_b 28.942100
_cell_length_c 6.443677
_cell_angle_alpha 90.000000
_cell_angle_beta 90.000000
_cell_angle_gamma 90.000000
_cell_volume 1889.889023
_symmetry_space_group_name_H-M "P N N A"
_symmetry_group_IT_number 52
_symmetry_cell_setting 'orthorhombic'
loop_
_space_group_symop_operation_xyz
x,y,z
1/2-x,-y,z
x,1/2-y,1/2-z
1/2-x,1/2+y,1/2-z
-x,-y,-z
1/2+x,y,-z
-x,1/2+y,1/2+z
1/2+x,1/2-y,1/2+z
loop_
_atom_site_type_symbol
_atom_site_label
_atom_site_fract_x
_atom_site_fract_y
_atom_site_fract_z
Si Si1 0.286085 0.624761 0.510914
Si Si2 0.078188 0.334432 0.129019
Si Si3 0.304585 0.199912 0.670402
Si Si4 0.693211 0.545759 0.784666
Si Si5 0.585262 0.072747 0.388751
O O1 0.383613 0.653752 0.363893
O O2 0.206557 0.661230 0.649587
O O3 0.204593 0.591091 0.359253
O O4 0.362645 0.591898 0.670686
O O5 0.956751 0.300043 0.103912
O O6 0.207613 0.316287 0.011636
O O7 0.037568 0.382624 0.020217
O O8 0.264259 0.250000 0.750000
O O9 0.750000 0.500000 0.674899
O O10 0.541984 0.541188 0.852572
O O11 0.792433 0.552859 0.979390
#
# Coordination Sequence:
#
# PCOD9411108 Si02
#       5
#     8   8   8   8   8
#     4  10  22  40  66  91 124 168 210 260 319 366
#     4  10  22  43  62  91 124 162 208 257 315 373
#     4  11  25  41  65  93 125 164 210 263 317 378
#     4  11  23  39  63  95 128 167 214 260 310 376
#     4  10  21  40  63  89 126 166 205 259 312 368
#
# _framework density 21.165262999999999
#
# number of rings (size 3 to 8) (size 9 to 14) (size 15 to 20)
#    0.000    1.600    0.000    5.400    2.800    4.800 
#    0.000    0.000    0.000    0.000    0.000    0.000 
#    0.000    0.000    0.000    0.000    0.000    0.000 
#
# Total GULP energy -223572.030446 kJ/mol
# GULP energy per Si atom -5589.300761 kJ/mol
# Density = 2.111709 g / cm^3
# Si number density = 21.165263 Si / 1000 Ang^3
#
#
#
# Elastic Constant Matrix: (Units=GPa)
#
#
# Indices 1 2 3 4 5 6 
#
# 1 93.1278 19.6762 44.8564 0.0000 0.0000 0.0000
# 2 19.6762 73.3046 14.4388 0.0000 0.0000 0.0000
# 3 44.8564 14.4388 91.0023 0.0000 0.0000 0.0000
# 4 0.0000 0.0000 0.0000 16.6176 0.0000 0.0000
# 5 0.0000 0.0000 0.0000 0.0000 1.7489 0.0000
# 6 0.0000 0.0000 0.0000 0.0000 0.0000 22.8737
#
#
#
# Elastic Compliance Matrix: (Units=1/GPa)
#
#
# Indices 1 2 3 4 5 6 
#
# 1 0.014536 -0.002571 -0.006757 0.000000 0.000000 0.000000
# 2 -0.002571 0.014536 -0.001039 0.000000 0.000000 0.000000
# 3 -0.006757 -0.001039 0.014484 0.000000 0.000000 0.000000
# 4 0.000000 0.000000 0.000000 0.060177 0.000000 0.000000
# 5 0.000000 0.000000 0.000000 0.000000 0.571776 0.000000
# 6 0.000000 0.000000 0.000000 0.000000 0.000000 0.043718
#
#
# Mechanical properties :
#
#
# Convention : Reuss Voigt Hill
#
# Bulk Modulus (GPa) = 43.81651 46.15306 44.98478
# Shear Modulus (GPa) = 6.68834 20.14559 13.41697
#
# Velocity S-wave (km/s) = 1.77958 3.08851 2.52050
# Velocity P-wave (km/s) = 4.99696 5.87979 5.45626
#
# Compressibility (1/GPa) = 0.02282245
#
# Stress axis : x y z
#
# Youngs Moduli (GPa) = 68.79622 68.79264 69.04049
#
# Poissons Ratio (x) = 0.17685 0.46651
# Poissons Ratio (y) = 0.17685 0.07175
# Poissons Ratio (z) = 0.46485 0.07149
#
# Static dielectric constant tensor:
#      x y z
#    x 1.739440 0.000000 0.000000 
#    y 0.000000 1.791290 0.000000 
#    z 0.000000 0.000000 1.751660 
# 
# From -- ./inp_files/1494.got.cif
#   From: 2010.05.17/outbox.cif.g08.bks.cpg/sg52_1_cif.got.tgz:1494.got - 2010.06.03 12:15:38.
