data_PCOD9411351
_publ_section_title
;
Structure prediction by ZEFSAII (Michael W. Deem and Ramdas Pophale) SiO2 
 PCOD9411351
Probable space group: P N N A
;
_chemical_formula_sum "Si O2"
_cell_formula_units_Z 28
_cell_length_a 8.066108
_cell_length_b 17.312212
_cell_length_c 7.265839
_cell_angle_alpha 90.000000
_cell_angle_beta 90.000000
_cell_angle_gamma 90.000000
_cell_volume 1014.617537
_symmetry_space_group_name_H-M "P N N A"
_symmetry_group_IT_number 52
_symmetry_cell_setting 'orthorhombic'
loop_
_space_group_symop_operation_xyz
x,y,z
1/2-x,-y,z
x,1/2-y,1/2-z
1/2-x,1/2+y,1/2-z
-x,-y,-z
1/2+x,y,-z
-x,1/2+y,1/2+z
1/2+x,1/2-y,1/2+z
loop_
_atom_site_type_symbol
_atom_site_label
_atom_site_fract_x
_atom_site_fract_y
_atom_site_fract_z
Si Si1 0.953565 0.392057 0.165731
Si Si2 0.077068 0.545922 0.241114
Si Si3 0.784219 0.750000 0.250000
Si Si4 0.240617 0.816261 0.130488
O O1 0.812604 0.329479 0.197143
O O2 0.945709 0.476818 0.262439
O O3 0.116404 0.350040 0.240670
O O4 0.964630 0.411365 0.949417
O O5 0.250000 0.500000 0.215414
O O6 0.114260 0.611945 0.391120
O O7 0.830517 0.721149 0.455531
O O8 0.150652 0.750000 0.250000
#
# Coordination Sequence:
#
# PCOD9411351 Si02
#       4
#     8   8   4   8
#     4  10  21  42  68  99 135 184 226 285 353 402
#     4   9  20  42  74  98 137 180 233 287 341 420
#     4  12  24  40  68 100 140 184 228 282 346 414
#     4  11  22  42  66 101 138 174 233 284 340 413
#
# _framework density 27.596606000000001
#
# number of rings (size 3 to 8) (size 9 to 14) (size 15 to 20)
#    0.000    1.714    4.286    0.000    0.000    1.143 
#    7.714    4.286    0.000    0.000    0.000    0.000 
#    0.000    0.000    0.000    0.000    0.000    0.000 
#
# Total GULP energy -156497.764593 kJ/mol
# GULP energy per Si atom -5589.205878 kJ/mol
# Density = 2.753379 g / cm^3
# Si number density = 27.596606 Si / 1000 Ang^3
#
#
#
# Elastic Constant Matrix: (Units=GPa)
#
#
# Indices 1 2 3 4 5 6 
#
# 1 25.4948 47.0215 35.9100 0.0000 0.0000 0.0000
# 2 47.0215 190.4291 90.0422 0.0000 0.0000 0.0000
# 3 35.9100 90.0422 142.8638 0.0000 0.0000 0.0000
# 4 0.0000 0.0000 0.0000 79.4529 0.0000 0.0000
# 5 0.0000 0.0000 0.0000 0.0000 38.2934 0.0000
# 6 0.0000 0.0000 0.0000 0.0000 0.0000 52.7118
#
#
#
# Elastic Compliance Matrix: (Units=1/GPa)
#
#
# Indices 1 2 3 4 5 6 
#
# 1 0.083202 -0.015180 -0.011346 0.000000 0.000000 0.000000
# 2 -0.015180 0.010250 -0.002645 0.000000 0.000000 0.000000
# 3 -0.011346 -0.002645 0.011519 0.000000 0.000000 0.000000
# 4 0.000000 0.000000 0.000000 0.012586 0.000000 0.000000
# 5 0.000000 0.000000 0.000000 0.000000 0.026114 0.000000
# 6 0.000000 0.000000 0.000000 0.000000 0.000000 0.018971
#
#
# Mechanical properties :
#
#
# Convention : Reuss Voigt Hill
#
# Bulk Modulus (GPa) = 21.44584 78.30392 49.87488
# Shear Modulus (GPa) = 21.13935 46.47920 33.80928
#
# Velocity S-wave (km/s) = 2.77070 4.10840 3.50397
# Velocity P-wave (km/s) = 4.24544 7.13732 5.87218
#
# Compressibility (1/GPa) = 0.04662909
#
# Stress axis : x y z
#
# Youngs Moduli (GPa) = 12.01900 97.56080 86.81642
#
# Poissons Ratio (x) = 1.48092 0.98505
# Poissons Ratio (y) = 0.18244 0.22961
# Poissons Ratio (z) = 0.13637 0.25802
#
# Static dielectric constant tensor:
#      x y z
#    x 2.237360 0.000000 0.000000 
#    y 0.000000 2.153620 0.000000 
#    z 0.000000 0.000000 2.197760 
# 
# From -- ./inp_files/1050.got.cif
#   From: 2010.05.17/outbox.cif.g08.bks.cpg/sg52_1_cif.got.tgz:1050.got - 2010.06.03 12:15:38.
