data_PCOD9411791
_publ_section_title
;
Structure prediction by ZEFSAII (Michael W. Deem and Ramdas Pophale) SiO2 
 PCOD9411791
Probable space group: P N N A
;
_chemical_formula_sum "Si O2"
_cell_formula_units_Z 56
_cell_length_a 14.891949
_cell_length_b 19.694819
_cell_length_c 8.363790
_cell_angle_alpha 90.000000
_cell_angle_beta 90.000000
_cell_angle_gamma 90.000000
_cell_volume 2453.051433
_symmetry_space_group_name_H-M "P N N A"
_symmetry_group_IT_number 52
_symmetry_cell_setting 'orthorhombic'
loop_
_space_group_symop_operation_xyz
x,y,z
1/2-x,-y,z
x,1/2-y,1/2-z
1/2-x,1/2+y,1/2-z
-x,-y,-z
1/2+x,y,-z
-x,1/2+y,1/2+z
1/2+x,1/2-y,1/2+z
loop_
_atom_site_type_symbol
_atom_site_label
_atom_site_fract_x
_atom_site_fract_y
_atom_site_fract_z
Si Si1 0.027310 0.914489 0.214158
Si Si2 0.360889 0.298746 0.117719
Si Si3 0.591957 0.415825 0.002761
Si Si4 0.362517 0.653407 0.522338
Si Si5 0.152059 0.026617 0.189458
Si Si6 0.023372 0.273576 0.079479
Si Si7 0.734849 0.175659 0.312628
O O1 0.104065 0.865981 0.291395
O O2 0.971237 0.946460 0.361563
O O3 0.951564 0.872345 0.118941
O O4 0.078439 0.974224 0.122671
O O5 0.314356 0.250000 0.250000
O O6 0.451573 0.261320 0.059587
O O7 0.310823 0.313016 0.948414
O O8 0.634562 0.466997 0.878622
O O9 0.538044 0.354321 0.917649
O O10 0.667547 0.372630 0.093177
O O11 0.354977 0.601929 0.377457
O O12 0.388664 0.728342 0.458180
O O13 0.272882 0.644157 0.632236
O O14 0.250000 0.000000 0.155050
O O15 0.987685 0.250000 0.250000
O O16 0.704191 0.250000 0.250000
#
# Coordination Sequence:
#
# PCOD9411791 Si02
#       7
#     8   8   8   8   8   8   8
#     4  10  23  44  70  94 131 182 237 275 345 418
#     4  11  23  40  68 102 138 172 218 299 351 404
#     4  10  22  40  69  93 130 183 228 278 343 416
#     4  11  23  44  69  96 139 183 232 277 345 420
#     4  12  25  44  65  98 139 182 235 289 345 412
#     4  11  20  40  68 102 128 176 232 281 338 419
#     4  11  23  39  63 101 139 168 217 284 354 405
#
# _framework density 22.828710999999998
#
# number of rings (size 3 to 8) (size 9 to 14) (size 15 to 20)
#    0.000    1.143    4.286    2.143    0.000    2.857 
#    2.571    7.143    0.000    0.000    0.000    0.000 
#    0.000    0.000    0.000    0.000    0.000    0.000 
#
# Total GULP energy -312052.728070 kJ/mol
# GULP energy per Si atom -5572.370144 kJ/mol
# Density = 2.277675 g / cm^3
# Si number density = 22.828711 Si / 1000 Ang^3
#
#
#
# Elastic Constant Matrix: (Units=GPa)
#
#
# Indices 1 2 3 4 5 6 
#
# 1 63.1699 14.3128 20.9910 0.0000 0.0000 0.0000
# 2 14.3128 13.2757 -12.1768 0.0000 0.0000 0.0000
# 3 20.9910 -12.1768 47.9257 0.0000 0.0000 0.0000
# 4 0.0000 0.0000 0.0000 33.8875 0.0000 0.0000
# 5 0.0000 0.0000 0.0000 0.0000 26.0880 0.0000
# 6 0.0000 0.0000 0.0000 0.0000 0.0000 8.1803
#
#
#
# Elastic Compliance Matrix: (Units=1/GPa)
#
#
# Indices 1 2 3 4 5 6 
#
# 1 0.062234 -0.120083 -0.057768 0.000000 0.000000 0.000000
# 2 -0.120083 0.329917 0.136420 0.000000 0.000000 0.000000
# 3 -0.057768 0.136420 0.080829 0.000000 0.000000 0.000000
# 4 0.000000 0.000000 0.000000 0.029509 0.000000 0.000000
# 5 0.000000 0.000000 0.000000 0.000000 0.038332 0.000000
# 6 0.000000 0.000000 0.000000 0.000000 0.000000 0.122245
#
#
# Mechanical properties :
#
#
# Convention : Reuss Voigt Hill
#
# Bulk Modulus (GPa) = 2.56333 18.95836 10.76085
# Shear Modulus (GPa) = 5.70796 20.38079 13.04437
#
# Velocity S-wave (km/s) = 1.58296 2.99117 2.39300
# Velocity P-wave (km/s) = 2.11337 4.50023 3.51557
#
# Compressibility (1/GPa) = 0.39011710
#
# Stress axis : x y z
#
# Youngs Moduli (GPa) = 16.06826 3.03106 12.37182
#
# Poissons Ratio (x) = 0.36398 0.71470
# Poissons Ratio (y) = 1.92953 -1.68776
# Poissons Ratio (z) = 0.92824 -0.41350
#
# Static dielectric constant tensor:
#      x y z
#    x 1.880410 0.000000 0.000000 
#    y 0.000000 1.900270 0.000000 
#    z 0.000000 0.000000 1.876800 
# 
# From -- ./inp_files/10792.got.cif
#   From: 2010.05.17/outbox.cif.g08.bks.cpg/sg52_6_cif.got.tgz:10792.got - 2010.06.03 12:15:38.
