data_PCOD9411033
_publ_section_title
;
Structure prediction by ZEFSAII (Michael W. Deem and Ramdas Pophale) SiO2 
 PCOD9411033
Probable space group: P N N A
;
_chemical_formula_sum "Si O2"
_cell_formula_units_Z 32
_cell_length_a 12.985740
_cell_length_b 8.160308
_cell_length_c 14.756519
_cell_angle_alpha 90.000000
_cell_angle_beta 90.000000
_cell_angle_gamma 90.000000
_cell_volume 1563.713464
_symmetry_space_group_name_H-M "P N N A"
_symmetry_group_IT_number 52
_symmetry_cell_setting 'orthorhombic'
loop_
_space_group_symop_operation_xyz
x,y,z
1/2-x,-y,z
x,1/2-y,1/2-z
1/2-x,1/2+y,1/2-z
-x,-y,-z
1/2+x,y,-z
-x,1/2+y,1/2+z
1/2+x,1/2-y,1/2+z
loop_
_atom_site_type_symbol
_atom_site_label
_atom_site_fract_x
_atom_site_fract_y
_atom_site_fract_z
Si Si1 0.985450 0.124812 0.084309
Si Si2 0.215312 0.684094 0.963948
Si Si3 0.712367 0.187121 0.851747
Si Si4 0.841387 0.890291 0.181770
O O1 0.900509 0.263643 0.062682
O O2 0.093138 0.193927 0.118098
O O3 0.934180 0.009416 0.159631
O O4 0.000000 0.000000 0.000000
O O5 0.250000 0.500000 0.942846
O O6 0.290804 0.808208 0.908413
O O7 0.227022 0.714277 0.071009
O O8 0.726430 0.250000 0.750000
O O9 0.750000 0.000000 0.857483
O O10 0.872080 0.750000 0.250000
O O11 0.750000 0.000000 0.222883
#
# Coordination Sequence:
#
# PCOD9411033 Si02
#       4
#     8   8   8   8
#     4  11  22  45  68  91 136 183 223 279 350 412
#     4  11  23  42  69  96 132 175 226 286 346 416
#     4  12  25  44  67  99 138 181 228 286 350 416
#     4  10  21  39  66  94 128 165 217 281 339 407
#
# _framework density 20.464108
#
# number of rings (size 3 to 8) (size 9 to 14) (size 15 to 20)
#    0.000    1.000    5.000    2.250    0.000    8.000 
#    4.500    0.000    0.000    0.000    0.000    0.000 
#    0.000    0.000    0.000    0.000    0.000    0.000 
#
# Total GULP energy -178934.591244 kJ/mol
# GULP energy per Si atom -5591.705976 kJ/mol
# Density = 2.041753 g / cm^3
# Si number density = 20.464108 Si / 1000 Ang^3
#
#
#
# Elastic Constant Matrix: (Units=GPa)
#
#
# Indices 1 2 3 4 5 6 
#
# 1 99.7123 36.6404 25.0490 0.0000 0.0000 0.0000
# 2 36.6404 117.0226 24.0121 0.0000 0.0000 0.0000
# 3 25.0490 24.0121 105.9756 0.0000 0.0000 0.0000
# 4 0.0000 0.0000 0.0000 35.0585 0.0000 0.0000
# 5 0.0000 0.0000 0.0000 0.0000 11.5367 0.0000
# 6 0.0000 0.0000 0.0000 0.0000 0.0000 25.9168
#
#
#
# Elastic Compliance Matrix: (Units=1/GPa)
#
#
# Indices 1 2 3 4 5 6 
#
# 1 0.011737 -0.003257 -0.002036 0.000000 0.000000 0.000000
# 2 -0.003257 0.009866 -0.001466 0.000000 0.000000 0.000000
# 3 -0.002036 -0.001466 0.010250 0.000000 0.000000 0.000000
# 4 0.000000 0.000000 0.000000 0.028524 0.000000 0.000000
# 5 0.000000 0.000000 0.000000 0.000000 0.086680 0.000000
# 6 0.000000 0.000000 0.000000 0.000000 0.000000 0.038585
#
#
# Mechanical properties :
#
#
# Convention : Reuss Voigt Hill
#
# Bulk Modulus (GPa) = 54.54139 54.90151 54.72145
# Shear Modulus (GPa) = 24.35808 30.30299 27.33053
#
# Velocity S-wave (km/s) = 3.45379 3.85227 3.65846
# Velocity P-wave (km/s) = 6.52801 6.83177 6.68162
#
# Compressibility (1/GPa) = 0.01833470
#
# Stress axis : x y z
#
# Youngs Moduli (GPa) = 85.19858 101.35904 97.56562
#
# Poissons Ratio (x) = 0.33014 0.19867
# Poissons Ratio (y) = 0.27751 0.14299
# Poissons Ratio (z) = 0.17349 0.14855
#
# Static dielectric constant tensor:
#      x y z
#    x 1.738620 0.000000 0.000000 
#    y 0.000000 1.693610 0.000000 
#    z 0.000000 0.000000 1.747510 
# 
# From -- ./inp_files/25459.got.cif
#   From: 2010.05.17/outbox.cif.g08.bks.cpg/sg52_13_cif.got.tgz:25459.got - 2010.06.03 12:15:38.
