data_PCOD9411777
_publ_section_title
;
Structure prediction by ZEFSAII (Michael W. Deem and Ramdas Pophale) SiO2 
 PCOD9411777
Probable space group: P N N A
;
_chemical_formula_sum "Si O2"
_cell_formula_units_Z 32
_cell_length_a 21.598956
_cell_length_b 8.088327
_cell_length_c 8.334193
_cell_angle_alpha 90.000000
_cell_angle_beta 90.000000
_cell_angle_gamma 90.000000
_cell_volume 1455.978675
_symmetry_space_group_name_H-M "P N N A"
_symmetry_group_IT_number 52
_symmetry_cell_setting 'orthorhombic'
loop_
_space_group_symop_operation_xyz
x,y,z
1/2-x,-y,z
x,1/2-y,1/2-z
1/2-x,1/2+y,1/2-z
-x,-y,-z
1/2+x,y,-z
-x,1/2+y,1/2+z
1/2+x,1/2-y,1/2+z
loop_
_atom_site_type_symbol
_atom_site_label
_atom_site_fract_x
_atom_site_fract_y
_atom_site_fract_z
Si Si1 0.750000 0.000000 0.479462
Si Si2 0.187252 0.750000 0.750000
Si Si3 0.466677 0.444654 0.258765
Si Si4 0.126435 0.345409 0.083164
Si Si5 0.902688 0.972057 0.099341
O O1 0.730833 0.843648 0.374005
O O2 0.812733 0.956149 0.570331
O O3 0.146260 0.607506 0.661933
O O4 0.459827 0.250000 0.250000
O O5 0.434476 0.543225 0.113574
O O6 0.538991 0.482266 0.281189
O O7 0.431414 0.488289 0.424370
O O8 0.133360 0.250000 0.250000
O O9 0.121306 0.214918 0.936660
#
# Coordination Sequence:
#
# PCOD9411777 Si02
#       5
#     4   4   8   8   8
#     4  12  26  44  68  92 134 178 220 266 320 404
#     4  12  26  42  66  96 130 176 222 270 334 402
#     4  10  22  40  67  95 134 169 216 274 335 393
#     4  10  24  44  66  96 130 174 224 272 330 393
#     4  10  24  40  64  99 132 168 217 274 336 395
#
# _framework density 21.978342999999999
#
# number of rings (size 3 to 8) (size 9 to 14) (size 15 to 20)
#    0.000    1.500    0.000    3.000   12.250    6.000 
#    0.000    0.000    0.000    0.000    0.000    0.000 
#    0.000    0.000    0.000    0.000    0.000    0.000 
#
# Total GULP energy -178840.000609 kJ/mol
# GULP energy per Si atom -5588.750019 kJ/mol
# Density = 2.192832 g / cm^3
# Si number density = 21.978343 Si / 1000 Ang^3
#
#
#
# Elastic Constant Matrix: (Units=GPa)
#
#
# Indices 1 2 3 4 5 6 
#
# 1 120.7102 43.9145 34.6392 0.0000 0.0000 0.0000
# 2 43.9145 105.0269 27.4164 0.0000 0.0000 0.0000
# 3 34.6392 27.4164 72.2618 0.0000 0.0000 0.0000
# 4 0.0000 0.0000 0.0000 39.2652 0.0000 0.0000
# 5 0.0000 0.0000 0.0000 0.0000 15.8759 0.0000
# 6 0.0000 0.0000 0.0000 0.0000 0.0000 57.3734
#
#
#
# Elastic Compliance Matrix: (Units=1/GPa)
#
#
# Indices 1 2 3 4 5 6 
#
# 1 0.010627 -0.003456 -0.003783 0.000000 0.000000 0.000000
# 2 -0.003456 0.011692 -0.002779 0.000000 0.000000 0.000000
# 3 -0.003783 -0.002779 0.016706 0.000000 0.000000 0.000000
# 4 0.000000 0.000000 0.000000 0.025468 0.000000 0.000000
# 5 0.000000 0.000000 0.000000 0.000000 0.062989 0.000000
# 6 0.000000 0.000000 0.000000 0.000000 0.000000 0.017430
#
#
# Mechanical properties :
#
#
# Convention : Reuss Voigt Hill
#
# Bulk Modulus (GPa) = 52.66214 56.65991 54.66103
# Shear Modulus (GPa) = 29.19234 35.30482 32.24858
#
# Velocity S-wave (km/s) = 3.64845 4.01227 3.83468
# Velocity P-wave (km/s) = 6.46229 6.87752 6.67313
#
# Compressibility (1/GPa) = 0.01898897
#
# Stress axis : x y z
#
# Youngs Moduli (GPa) = 94.09843 85.52911 59.85710
#
# Poissons Ratio (x) = 0.29559 0.22644
# Poissons Ratio (y) = 0.32520 0.16636
# Poissons Ratio (z) = 0.35597 0.23771
#
# Static dielectric constant tensor:
#      x y z
#    x 1.806900 0.000000 0.000000 
#    y 0.000000 1.859400 0.000000 
#    z 0.000000 0.000000 1.812150 
# 
# From -- ./inp_files/12840.got.cif
#   From: 2010.05.17/outbox.cif.g08.bks.cpg/sg52_7_cif.got.tgz:12840.got - 2010.06.03 12:15:38.
