data_PCOD9411702
_publ_section_title
;
Structure prediction by ZEFSAII (Michael W. Deem and Ramdas Pophale) SiO2 
 PCOD9411702
Probable space group: P N N A
;
_chemical_formula_sum "Si O2"
_cell_formula_units_Z 40
_cell_length_a 13.335854
_cell_length_b 9.624323
_cell_length_c 12.867679
_cell_angle_alpha 90.000000
_cell_angle_beta 90.000000
_cell_angle_gamma 90.000000
_cell_volume 1651.548152
_symmetry_space_group_name_H-M "P N N A"
_symmetry_group_IT_number 52
_symmetry_cell_setting 'orthorhombic'
loop_
_space_group_symop_operation_xyz
x,y,z
1/2-x,-y,z
x,1/2-y,1/2-z
1/2-x,1/2+y,1/2-z
-x,-y,-z
1/2+x,y,-z
-x,1/2+y,1/2+z
1/2+x,1/2-y,1/2+z
loop_
_atom_site_type_symbol
_atom_site_label
_atom_site_fract_x
_atom_site_fract_y
_atom_site_fract_z
Si Si1 0.923029 0.055693 0.657945
Si Si2 0.090333 0.852740 0.906006
Si Si3 0.637519 0.549459 0.180029
Si Si4 0.160800 0.855190 0.120391
Si Si5 0.884246 0.749918 0.631636
O O1 0.888047 0.070322 0.779484
O O2 0.886363 0.200723 0.613561
O O3 0.875134 0.915120 0.610109
O O4 0.042281 0.040290 0.642582
O O5 0.129378 0.699596 0.873878
O O6 0.114973 0.940155 0.803483
O O7 0.972738 0.825699 0.928841
O O8 0.140471 0.915208 0.007561
O O9 0.750000 0.500000 0.162666
O O10 0.278572 0.826832 0.134537
O O11 0.925534 0.750000 0.750000
#
# Coordination Sequence:
#
# PCOD9411702 Si02
#       5
#     8   8   8   8   8
#     4  10  22  40  60  91 123 159 209 252 303 365
#     4  10  23  42  58  93 121 163 211 247 313 373
#     4  10  22  41  63  80 127 170 200 255 311 365
#     4  11  24  36  66  98 120 155 213 262 295 368
#     4  11  20  42  66  83 128 171 191 255 316 364
#
# _framework density 24.219698000000001
#
# number of rings (size 3 to 8) (size 9 to 14) (size 15 to 20)
#    0.000    1.600    6.000    0.600    0.000   12.000 
#    3.600    0.000    0.000    0.000    0.000    0.000 
#    0.000    0.000    0.000    0.000    0.000    0.000 
#
# Total GULP energy -223834.486328 kJ/mol
# GULP energy per Si atom -5595.862158 kJ/mol
# Density = 2.416457 g / cm^3
# Si number density = 24.219698 Si / 1000 Ang^3
#
#
#
# Elastic Constant Matrix: (Units=GPa)
#
#
# Indices 1 2 3 4 5 6 
#
# 1 180.4959 35.3785 -0.2278 0.0000 0.0000 0.0000
# 2 35.3785 75.2884 -7.2041 0.0000 0.0000 0.0000
# 3 -0.2278 -7.2041 93.7859 0.0000 0.0000 0.0000
# 4 0.0000 0.0000 0.0000 3.4493 0.0000 0.0000
# 5 0.0000 0.0000 0.0000 0.0000 27.1340 0.0000
# 6 0.0000 0.0000 0.0000 0.0000 0.0000 37.0375
#
#
#
# Elastic Compliance Matrix: (Units=1/GPa)
#
#
# Indices 1 2 3 4 5 6 
#
# 1 0.006106 -0.002889 -0.000207 0.000000 0.000000 0.000000
# 2 -0.002889 0.014748 0.001126 0.000000 0.000000 0.000000
# 3 -0.000207 0.001126 0.010749 0.000000 0.000000 0.000000
# 4 0.000000 0.000000 0.000000 0.289913 0.000000 0.000000
# 5 0.000000 0.000000 0.000000 0.000000 0.036854 0.000000
# 6 0.000000 0.000000 0.000000 0.000000 0.000000 0.027000
#
#
# Mechanical properties :
#
#
# Convention : Reuss Voigt Hill
#
# Bulk Modulus (GPa) = 36.15132 45.05149 40.60140
# Shear Modulus (GPa) = 12.54609 34.96574 23.75592
#
# Velocity S-wave (km/s) = 2.27846 3.80371 3.13525
# Velocity P-wave (km/s) = 4.67767 6.15894 5.46869
#
# Compressibility (1/GPa) = 0.02766151
#
# Stress axis : x y z
#
# Youngs Moduli (GPa) = 163.76427 67.80747 93.03576
#
# Poissons Ratio (x) = 0.19591 0.01927
# Poissons Ratio (y) = 0.47315 -0.10474
# Poissons Ratio (z) = 0.03392 -0.07634
#
# Static dielectric constant tensor:
#      x y z
#    x 1.899960 0.000000 0.000000 
#    y 0.000000 1.994070 0.000000 
#    z 0.000000 0.000000 1.962400 
# 
# From -- ./inp_files/27014.got.cif
#   From: 2010.05.17/outbox.cif.g08.bks.cpg/sg52_14_cif.got.tgz:27014.got - 2010.06.03 12:15:38.
