data_PCOD9411902
_publ_section_title
;
Structure prediction by ZEFSAII (Michael W. Deem and Ramdas Pophale) SiO2 
 PCOD9411902
Probable space group: P N N A
;
_chemical_formula_sum "Si O2"
_cell_formula_units_Z 48
_cell_length_a 26.856268
_cell_length_b 9.204583
_cell_length_c 9.011959
_cell_angle_alpha 90.000000
_cell_angle_beta 90.000000
_cell_angle_gamma 90.000000
_cell_volume 2227.763005
_symmetry_space_group_name_H-M "P N N A"
_symmetry_group_IT_number 52
_symmetry_cell_setting 'orthorhombic'
loop_
_space_group_symop_operation_xyz
x,y,z
1/2-x,-y,z
x,1/2-y,1/2-z
1/2-x,1/2+y,1/2-z
-x,-y,-z
1/2+x,y,-z
-x,1/2+y,1/2+z
1/2+x,1/2-y,1/2+z
loop_
_atom_site_type_symbol
_atom_site_label
_atom_site_fract_x
_atom_site_fract_y
_atom_site_fract_z
Si Si1 0.807074 0.815226 0.415823
Si Si2 0.402704 0.810433 0.083941
Si Si3 0.463245 0.088077 0.102818
Si Si4 0.410123 0.180860 0.587810
Si Si5 0.967500 0.902968 0.392075
Si Si6 0.197685 0.833471 0.591838
O O1 0.812429 0.750000 0.250000
O O2 0.849564 0.741961 0.517807
O O3 0.750705 0.787549 0.475442
O O4 0.806492 0.990968 0.398217
O O5 0.409770 0.750000 0.250000
O O6 0.415057 0.981182 0.105229
O O7 0.442824 0.736150 0.971252
O O8 0.496716 0.104360 0.249681
O O9 0.446731 0.236677 0.024453
O O10 0.500000 0.000000 0.000000
O O11 0.415677 0.250000 0.750000
O O12 0.355229 0.206448 0.522032
O O13 0.420439 0.012256 0.624368
O O14 0.000000 0.000000 0.500000
O O15 0.197177 0.750000 0.750000
#
# Coordination Sequence:
#
# PCOD9411902 Si02
#       6
#     8   8   8   8   8   8
#     4  10  22  41  73 104 134 178 226 284 352 415
#     4  12  27  47  67  98 137 181 236 285 343 412
#     4  12  27  43  67 101 136 179 232 279 342 412
#     4  11  23  43  68 101 137 177 227 284 347 415
#     4  12  25  46  66  94 137 183 223 283 340 404
#     4   9  20  41  69 105 141 170 224 288 348 418
#
# _framework density 21.546277
#
# number of rings (size 3 to 8) (size 9 to 14) (size 15 to 20)
#    0.000    1.000    5.000    1.000    7.000    2.000 
#    0.000    0.000   11.000    0.000    0.000    0.000 
#    0.000    0.000    0.000    0.000    0.000    0.000 
#
# Total GULP energy -267447.280736 kJ/mol
# GULP energy per Si atom -5571.818349 kJ/mol
# Density = 2.149724 g / cm^3
# Si number density = 21.546277 Si / 1000 Ang^3
#
#
#
# Elastic Constant Matrix: (Units=GPa)
#
#
# Indices 1 2 3 4 5 6 
#
# 1 173.8085 46.3161 58.1788 0.0000 0.0000 0.0000
# 2 46.3161 125.5732 48.2384 0.0000 0.0000 0.0000
# 3 58.1788 48.2384 122.2273 0.0000 0.0000 0.0000
# 4 0.0000 0.0000 0.0000 27.0740 0.0000 0.0000
# 5 0.0000 0.0000 0.0000 0.0000 22.3308 0.0000
# 6 0.0000 0.0000 0.0000 0.0000 0.0000 28.4685
#
#
#
# Elastic Compliance Matrix: (Units=1/GPa)
#
#
# Indices 1 2 3 4 5 6 
#
# 1 0.007092 -0.001555 -0.002762 0.000000 0.000000 0.000000
# 2 -0.001555 0.009727 -0.003099 0.000000 0.000000 0.000000
# 3 -0.002762 -0.003099 0.010719 0.000000 0.000000 0.000000
# 4 0.000000 0.000000 0.000000 0.036936 0.000000 0.000000
# 5 0.000000 0.000000 0.000000 0.000000 0.044781 0.000000
# 6 0.000000 0.000000 0.000000 0.000000 0.000000 0.035127
#
#
# Mechanical properties :
#
#
# Convention : Reuss Voigt Hill
#
# Bulk Modulus (GPa) = 78.69658 80.78617 79.74138
# Shear Modulus (GPa) = 30.59029 33.49970 32.04499
#
# Velocity S-wave (km/s) = 3.77204 3.94735 3.86069
# Velocity P-wave (km/s) = 7.45485 7.63879 7.54738
#
# Compressibility (1/GPa) = 0.01270703
#
# Stress axis : x y z
#
# Youngs Moduli (GPa) = 140.99605 102.80227 93.28949
#
# Poissons Ratio (x) = 0.15984 0.25769
# Poissons Ratio (y) = 0.21922 0.28910
# Poissons Ratio (z) = 0.38947 0.31858
#
# Static dielectric constant tensor:
#      x y z
#    x 1.953680 0.000000 0.000000 
#    y 0.000000 1.300210 0.000000 
#    z 0.000000 0.000000 1.819000 
# 
# From -- ./inp_files/15505.got.cif
#   From: 2010.05.17/outbox.cif.g08.bks.cpg/sg52_8_cif.got.tgz:15505.got - 2010.06.03 12:15:38.
