data_PCOD9411879
_publ_section_title
;
Structure prediction by ZEFSAII (Michael W. Deem and Ramdas Pophale) SiO2 
 PCOD9411879
Probable space group: P N N A
;
_chemical_formula_sum "Si O2"
_cell_formula_units_Z 36
_cell_length_a 19.725949
_cell_length_b 7.379969
_cell_length_c 10.486198
_cell_angle_alpha 90.000000
_cell_angle_beta 90.000000
_cell_angle_gamma 90.000000
_cell_volume 1526.548115
_symmetry_space_group_name_H-M "P N N A"
_symmetry_group_IT_number 52
_symmetry_cell_setting 'orthorhombic'
loop_
_space_group_symop_operation_xyz
x,y,z
1/2-x,-y,z
x,1/2-y,1/2-z
1/2-x,1/2+y,1/2-z
-x,-y,-z
1/2+x,y,-z
-x,1/2+y,1/2+z
1/2+x,1/2-y,1/2+z
loop_
_atom_site_type_symbol
_atom_site_label
_atom_site_fract_x
_atom_site_fract_y
_atom_site_fract_z
Si Si1 0.935190 0.710170 0.892346
Si Si2 0.250000 0.500000 0.582629
Si Si3 0.499611 0.345591 0.131484
Si Si4 0.290305 0.849110 0.465683
Si Si5 0.639306 0.964506 0.287545
O O1 0.959334 0.750000 0.750000
O O2 0.855981 0.743497 0.904079
O O3 0.947456 0.496224 0.915017
O O4 0.976967 0.781262 0.014304
O O5 0.242041 0.683985 0.505184
O O6 0.315094 0.538716 0.671598
O O7 0.465574 0.250000 0.250000
O O8 0.566070 0.443960 0.192692
O O9 0.250000 0.000000 0.386256
O O10 0.319860 0.966464 0.586631
O O11 0.634095 0.750000 0.250000
#
# Coordination Sequence:
#
# PCOD9411879 Si02
#       5
#     8   4   8   8   8
#     4  10  23  45  63  93 140 177 221 282 337 414
#     4  12  20  36  64 100 132 174 224 288 342 386
#     4  10  22  41  68  98 130 178 230 282 337 404
#     4  11  22  40  60  93 135 174 223 274 335 406
#     4  11  18  33  63  96 133 165 214 290 341 377
#
# _framework density 23.582616999999999
#
# number of rings (size 3 to 8) (size 9 to 14) (size 15 to 20)
#    0.000    1.333    3.333    4.000    0.000    0.889 
#    6.000    0.000    0.000    0.000    0.000    0.000 
#    0.000    0.000    0.000    0.000    0.000    0.000 
#
# Total GULP energy -200772.913274 kJ/mol
# GULP energy per Si atom -5577.025369 kJ/mol
# Density = 2.352894 g / cm^3
# Si number density = 23.582617 Si / 1000 Ang^3
#
#
#
# Elastic Constant Matrix: (Units=GPa)
#
#
# Indices 1 2 3 4 5 6 
#
# 1 42.8307 -3.4448 -1.9390 0.0000 0.0000 0.0000
# 2 -3.4448 89.4208 13.4171 0.0000 0.0000 0.0000
# 3 -1.9390 13.4171 112.2105 0.0000 0.0000 0.0000
# 4 0.0000 0.0000 0.0000 17.6860 0.0000 0.0000
# 5 0.0000 0.0000 0.0000 0.0000 91.2763 0.0000
# 6 0.0000 0.0000 0.0000 0.0000 0.0000 72.6401
#
#
#
# Elastic Compliance Matrix: (Units=1/GPa)
#
#
# Indices 1 2 3 4 5 6 
#
# 1 0.023430 0.000857 0.000302 0.000000 0.000000 0.000000
# 2 0.000857 0.011419 -0.001351 0.000000 0.000000 0.000000
# 3 0.000302 -0.001351 0.009079 0.000000 0.000000 0.000000
# 4 0.000000 0.000000 0.000000 0.056542 0.000000 0.000000
# 5 0.000000 0.000000 0.000000 0.000000 0.010956 0.000000
# 6 0.000000 0.000000 0.000000 0.000000 0.000000 0.013766
#
#
# Mechanical properties :
#
#
# Convention : Reuss Voigt Hill
#
# Bulk Modulus (GPa) = 22.96431 28.94763 25.95597
# Shear Modulus (GPa) = 35.69163 52.08240 43.88702
#
# Velocity S-wave (km/s) = 3.89456 4.70457 4.31860
# Velocity P-wave (km/s) = 5.47562 6.46625 5.99144
#
# Compressibility (1/GPa) = 0.04354583
#
# Stress axis : x y z
#
# Youngs Moduli (GPa) = 42.67962 87.57528 110.14996
#
# Poissons Ratio (x) = -0.07507 -0.03331
# Poissons Ratio (y) = -0.03659 0.14876
# Poissons Ratio (z) = -0.01291 0.11827
#
# Static dielectric constant tensor:
#      x y z
#    x 1.892000 0.000000 0.000000 
#    y 0.000000 2.025010 0.000000 
#    z 0.000000 0.000000 2.013370 
# 
# From -- ./inp_files/12908.got.cif
#   From: 2010.05.17/outbox.cif.g08.bks.cpg/sg52_7_cif.got.tgz:12908.got - 2010.06.03 12:15:38.
