data_PCOD9411532
_publ_section_title
;
Structure prediction by ZEFSAII (Michael W. Deem and Ramdas Pophale) SiO2 
 PCOD9411532
Probable space group: P N N A
;
_chemical_formula_sum "Si O2"
_cell_formula_units_Z 56
_cell_length_a 15.778734
_cell_length_b 10.785468
_cell_length_c 14.957773
_cell_angle_alpha 90.000000
_cell_angle_beta 90.000000
_cell_angle_gamma 90.000000
_cell_volume 2545.529225
_symmetry_space_group_name_H-M "P N N A"
_symmetry_group_IT_number 52
_symmetry_cell_setting 'orthorhombic'
loop_
_space_group_symop_operation_xyz
x,y,z
1/2-x,-y,z
x,1/2-y,1/2-z
1/2-x,1/2+y,1/2-z
-x,-y,-z
1/2+x,y,-z
-x,1/2+y,1/2+z
1/2+x,1/2-y,1/2+z
loop_
_atom_site_type_symbol
_atom_site_label
_atom_site_fract_x
_atom_site_fract_y
_atom_site_fract_z
Si Si1 0.900883 0.750092 0.149929
Si Si2 0.065120 0.615196 0.364262
Si Si3 0.243053 0.133403 0.194437
Si Si4 0.796823 0.626455 0.494544
Si Si5 0.624457 0.731228 0.458817
Si Si6 0.038657 0.619657 0.711900
Si Si7 0.146866 0.982626 0.621659
O O1 0.860113 0.750000 0.250000
O O2 0.868037 0.849916 0.078024
O O3 0.887155 0.619160 0.103740
O O4 0.997833 0.782058 0.162482
O O5 0.158399 0.649367 0.330504
O O6 0.077144 0.642647 0.470086
O O7 0.026350 0.485174 0.326426
O O8 0.213119 0.250000 0.250000
O O9 0.250000 0.000000 0.242245
O O10 0.189741 0.121731 0.101563
O O11 0.750000 0.500000 0.472172
O O12 0.724340 0.727051 0.478287
O O13 0.599646 0.669670 0.365680
O O14 0.612443 0.879147 0.448038
O O15 0.999330 0.750000 0.750000
O O16 0.100398 0.557915 0.785837
O O17 0.250000 0.000000 0.628141
#
# Coordination Sequence:
#
# PCOD9411532 Si02
#       7
#     8   8   8   8   8   8   8
#     4  12  24  38  69  99 136 179 222 282 358 418
#     4  11  23  43  66  97 134 179 227 285 352 418
#     4  10  24  48  72  98 132 178 236 289 345 412
#     4  10  22  40  65  97 130 175 228 271 341 417
#     4  10  22  39  60  90 140 179 225 282 339 422
#     4  10  22  37  62  96 133 179 222 280 347 409
#     4  11  23  39  62 101 141 176 229 282 352 429
#
# _framework density 21.999354
#
# number of rings (size 3 to 8) (size 9 to 14) (size 15 to 20)
#    0.000    1.429    2.857    1.714    2.000    3.429 
#    5.143    1.429    0.000    0.000    0.000    0.000 
#    0.000    0.000    0.000    0.000    0.000    0.000 
#
# Total GULP energy -311978.700721 kJ/mol
# GULP energy per Si atom -5571.048227 kJ/mol
# Density = 2.194928 g / cm^3
# Si number density = 21.999354 Si / 1000 Ang^3
#
#
#
# Elastic Constant Matrix: (Units=GPa)
#
#
# Indices 1 2 3 4 5 6 
#
# 1 79.8891 7.4905 22.4492 0.0000 0.0000 0.0000
# 2 7.4905 87.5317 19.2763 0.0000 0.0000 0.0000
# 3 22.4492 19.2763 57.5454 0.0000 0.0000 0.0000
# 4 0.0000 0.0000 0.0000 40.1092 0.0000 0.0000
# 5 0.0000 0.0000 0.0000 0.0000 32.6715 0.0000
# 6 0.0000 0.0000 0.0000 0.0000 0.0000 27.0915
#
#
#
# Elastic Compliance Matrix: (Units=1/GPa)
#
#
# Indices 1 2 3 4 5 6 
#
# 1 0.014058 0.000005 -0.005486 0.000000 0.000000 0.000000
# 2 0.000005 0.012334 -0.004134 0.000000 0.000000 0.000000
# 3 -0.005486 -0.004134 0.020902 0.000000 0.000000 0.000000
# 4 0.000000 0.000000 0.000000 0.024932 0.000000 0.000000
# 5 0.000000 0.000000 0.000000 0.000000 0.030608 0.000000
# 6 0.000000 0.000000 0.000000 0.000000 0.000000 0.036912
#
#
# Mechanical properties :
#
#
# Convention : Reuss Voigt Hill
#
# Bulk Modulus (GPa) = 35.63045 35.93315 35.78180
# Shear Modulus (GPa) = 29.70328 31.69111 30.69719
#
# Velocity S-wave (km/s) = 3.67848 3.79957 3.73951
# Velocity P-wave (km/s) = 5.85431 5.96810 5.91147
#
# Compressibility (1/GPa) = 0.02806589
#
# Stress axis : x y z
#
# Youngs Moduli (GPa) = 71.13135 81.07462 47.84128
#
# Poissons Ratio (x) = -0.00041 0.26246
# Poissons Ratio (y) = -0.00036 0.19776
# Poissons Ratio (z) = 0.39023 0.33514
#
# Static dielectric constant tensor:
#      x y z
#    x 1.839760 0.000000 0.000000 
#    y 0.000000 1.987250 0.000000 
#    z 0.000000 0.000000 1.885860 
# 
# From -- ./inp_files/27257.got.cif
#   From: 2010.05.17/outbox.cif.g08.bks.cpg/sg52_14_cif.got.tgz:27257.got - 2010.06.03 12:15:38.
