data_PCOD9411787
_publ_section_title
;
Structure prediction by ZEFSAII (Michael W. Deem and Ramdas Pophale) SiO2 
 PCOD9411787
Probable space group: P N N A
;
_chemical_formula_sum "Si O2"
_cell_formula_units_Z 40
_cell_length_a 19.678357
_cell_length_b 5.546728
_cell_length_c 17.207910
_cell_angle_alpha 90.000000
_cell_angle_beta 90.000000
_cell_angle_gamma 90.000000
_cell_volume 1878.251873
_symmetry_space_group_name_H-M "P N N A"
_symmetry_group_IT_number 52
_symmetry_cell_setting 'orthorhombic'
loop_
_space_group_symop_operation_xyz
x,y,z
1/2-x,-y,z
x,1/2-y,1/2-z
1/2-x,1/2+y,1/2-z
-x,-y,-z
1/2+x,y,-z
-x,1/2+y,1/2+z
1/2+x,1/2-y,1/2+z
loop_
_atom_site_type_symbol
_atom_site_label
_atom_site_fract_x
_atom_site_fract_y
_atom_site_fract_z
Si Si1 0.250000 0.500000 0.709442
Si Si2 0.013598 0.250000 0.250000
Si Si3 0.789391 0.250847 0.656071
Si Si4 0.048126 0.281073 0.525757
Si Si5 0.424329 0.475389 0.111304
Si Si6 0.603414 0.058326 0.179351
O O1 0.269129 0.750000 0.750000
O O2 0.323884 0.427629 0.676747
O O3 0.059588 0.420366 0.196481
O O4 0.961885 0.388270 0.307471
O O5 0.750000 0.500000 0.635424
O O6 0.796516 0.250000 0.750000
O O7 0.750000 0.000000 0.636397
O O8 0.864123 0.217494 0.618596
O O9 0.089571 0.183396 0.451802
O O10 0.099717 0.333454 0.594312
O O11 0.000000 0.500000 0.500000
O O12 0.994110 0.116364 0.572968
O O13 0.596236 0.250000 0.250000
#
# Coordination Sequence:
#
# PCOD9411787 Si02
#       6
#     4   4   8   8   8   8
#     4  10  22  40  68  96 136 176 234 294 340 422
#     4  12  22  38  72 104 132 182 244 298 360 438
#     4  10  25  45  71 103 139 184 243 294 347 433
#     4  11  24  42  64 101 145 175 230 305 356 428
#     4  11  26  41  70 102 137 187 233 297 368 420
#     4  11  22  41  66  99 134 184 236 289 358 428
#
# _framework density 21.296396999999999
#
# number of rings (size 3 to 8) (size 9 to 14) (size 15 to 20)
#    0.000    1.200    5.000    0.000    9.800    0.000 
#    0.000    2.000    2.200    0.000    0.000    0.000 
#    0.000    0.000    0.000    0.000    0.000    0.000 
#
# Total GULP energy -222738.227745 kJ/mol
# GULP energy per Si atom -5568.455694 kJ/mol
# Density = 2.124793 g / cm^3
# Si number density = 21.296397 Si / 1000 Ang^3
#
#
#
# Elastic Constant Matrix: (Units=GPa)
#
#
# Indices 1 2 3 4 5 6 
#
# 1 95.3487 34.3795 28.4561 0.0000 0.0000 0.0000
# 2 34.3795 85.5850 23.7136 0.0000 0.0000 0.0000
# 3 28.4561 23.7136 77.3841 0.0000 0.0000 0.0000
# 4 0.0000 0.0000 0.0000 25.8214 0.0000 0.0000
# 5 0.0000 0.0000 0.0000 0.0000 -13.0778 0.0000
# 6 0.0000 0.0000 0.0000 0.0000 0.0000 57.4857
#
#
#
# Elastic Compliance Matrix: (Units=1/GPa)
#
#
# Indices 1 2 3 4 5 6 
#
# 1 0.013076 -0.004284 -0.003495 0.000000 0.000000 0.000000
# 2 -0.004284 0.014172 -0.002768 0.000000 0.000000 0.000000
# 3 -0.003495 -0.002768 0.015056 0.000000 0.000000 0.000000
# 4 0.000000 0.000000 0.000000 0.038728 0.000000 0.000000
# 5 0.000000 0.000000 0.000000 0.000000 -0.076465 0.000000
# 6 0.000000 0.000000 0.000000 0.000000 0.000000 0.017396
#
#
# Mechanical properties :
#
#
# Convention : Reuss Voigt Hill
#
# Bulk Modulus (GPa) = 47.14827 47.93514 47.54171
# Shear Modulus (GPa) = 99.74987 25.49710 62.62349
#
# Velocity S-wave (km/s) = 6.85132 3.46388 5.42858
# Velocity P-wave (km/s) = 9.20731 6.20930 7.85270
#
# Compressibility (1/GPa) = 0.02120968
#
# Stress axis : x y z
#
# Youngs Moduli (GPa) = 76.47790 70.56176 66.41864
#
# Poissons Ratio (x) = 0.30229 0.23216
# Poissons Ratio (y) = 0.32763 0.18382
# Poissons Ratio (z) = 0.26733 0.19528
#
# Static dielectric constant tensor:
#      x y z
#    x 1.805040 0.000000 0.000000 
#    y 0.000000 1.884440 0.000000 
#    z 0.000000 0.000000 1.762750 
# 
# From -- ./inp_files/33526.got.cif
#   From: 2010.05.17/outbox.cif.g08.bks.cpg/sg52_17_cif.got.tgz:33526.got - 2010.06.03 12:15:38.
