data_PCOD9411771
_publ_section_title
;
Structure prediction by ZEFSAII (Michael W. Deem and Ramdas Pophale) SiO2 
 PCOD9411771
Probable space group: P N N A
;
_chemical_formula_sum "Si O2"
_cell_formula_units_Z 64
_cell_length_a 14.521944
_cell_length_b 18.592158
_cell_length_c 11.881254
_cell_angle_alpha 90.000000
_cell_angle_beta 90.000000
_cell_angle_gamma 90.000000
_cell_volume 3207.870587
_symmetry_space_group_name_H-M "P N N A"
_symmetry_group_IT_number 52
_symmetry_cell_setting 'orthorhombic'
loop_
_space_group_symop_operation_xyz
x,y,z
1/2-x,-y,z
x,1/2-y,1/2-z
1/2-x,1/2+y,1/2-z
-x,-y,-z
1/2+x,y,-z
-x,1/2+y,1/2+z
1/2+x,1/2-y,1/2+z
loop_
_atom_site_type_symbol
_atom_site_label
_atom_site_fract_x
_atom_site_fract_y
_atom_site_fract_z
Si Si1 0.845129 0.235425 0.981692
Si Si2 0.336010 0.796432 0.142030
Si Si3 0.315425 0.442243 0.765890
Si Si4 0.908289 0.955686 0.849335
Si Si5 0.007805 0.449474 0.111156
Si Si6 0.708315 0.191462 0.338027
Si Si7 0.456337 0.802927 0.508618
Si Si8 0.604977 0.929065 0.033175
O O1 0.785170 0.276631 0.076893
O O2 0.871794 0.154760 0.018947
O O3 0.940311 0.278322 0.958252
O O4 0.769414 0.224758 0.884351
O O5 0.365378 0.750000 0.250000
O O6 0.348589 0.882291 0.152031
O O7 0.402480 0.765491 0.043842
O O8 0.250000 0.500000 0.821547
O O9 0.407425 0.439389 0.836453
O O10 0.259986 0.369251 0.769378
O O11 0.338887 0.461044 0.638000
O O12 0.931944 0.975198 0.719165
O O13 0.000451 0.934595 0.920231
O O14 0.875171 0.024484 0.921341
O O15 0.038337 0.369374 0.077069
O O16 0.000000 0.500000 0.000000
O O17 0.677660 0.250000 0.250000
O O18 0.614590 0.167806 0.398118
#
# Coordination Sequence:
#
# PCOD9411771 Si02
#       8
#     8   8   8   8   8   8   8   8
#     4  11  23  41  67  99 131 172 224 283 339 408
#     4  11  23  41  69  95 128 173 225 275 336 404
#     4  11  23  39  67  97 134 171 225 284 332 413
#     4  10  22  41  67  99 131 175 223 273 338 409
#     4  11  23  44  67  93 133 183 225 274 338 409
#     4  11  23  41  67 102 130 175 227 282 338 408
#     4  11  23  42  69  94 132 174 225 280 338 409
#     4  10  22  40  66  99 134 170 219 277 347 395
#
# _framework density 19.95093
#
# number of rings (size 3 to 8) (size 9 to 14) (size 15 to 20)
#    0.000    1.250    5.000    0.750    1.750    1.000 
#    6.750    0.000    2.750    0.000    0.000    0.000 
#    0.000    0.000    0.000    0.000    0.000    0.000 
#
# Total GULP energy -356823.659026 kJ/mol
# GULP energy per Si atom -5575.369672 kJ/mol
# Density = 1.990552 g / cm^3
# Si number density = 19.950930 Si / 1000 Ang^3
#
#
#
# Elastic Constant Matrix: (Units=GPa)
#
#
# Indices 1 2 3 4 5 6 
#
# 1 105.2828 11.4921 33.9008 0.0000 0.0000 0.0000
# 2 11.4921 49.4532 14.7903 0.0000 0.0000 0.0000
# 3 33.9008 14.7903 87.9264 0.0000 0.0000 0.0000
# 4 0.0000 0.0000 0.0000 -138.8450 0.0000 0.0000
# 5 0.0000 0.0000 0.0000 0.0000 16.2471 0.0000
# 6 0.0000 0.0000 0.0000 0.0000 0.0000 13.6025
#
#
#
# Elastic Compliance Matrix: (Units=1/GPa)
#
#
# Indices 1 2 3 4 5 6 
#
# 1 0.010929 -0.001347 -0.003987 0.000000 0.000000 0.000000
# 2 -0.001347 0.021458 -0.003090 0.000000 0.000000 0.000000
# 3 -0.003987 -0.003090 0.013430 0.000000 0.000000 0.000000
# 4 0.000000 0.000000 0.000000 -0.007202 0.000000 0.000000
# 5 0.000000 0.000000 0.000000 0.000000 0.061550 0.000000
# 6 0.000000 0.000000 0.000000 0.000000 0.000000 0.073516
#
#
# Mechanical properties :
#
#
# Convention : Reuss Voigt Hill
#
# Bulk Modulus (GPa) = 34.52012 40.33655 37.42834
# Shear Modulus (GPa) = 24.97672 -9.63380 7.67146
#
# Velocity S-wave (km/s) = 3.54207 -2.19982 1.96304
# Velocity P-wave (km/s) = 5.83682 3.71611 4.89274
#
# Compressibility (1/GPa) = 0.02896861
#
# Stress axis : x y z
#
# Youngs Moduli (GPa) = 91.49837 46.60182 74.45884
#
# Poissons Ratio (x) = 0.06279 0.29688
# Poissons Ratio (y) = 0.12327 0.23009
# Poissons Ratio (z) = 0.36482 0.14400
#
# Static dielectric constant tensor:
#      x y z
#    x 1.707180 0.000000 0.000000 
#    y 0.000000 1.691950 0.000000 
#    z 0.000000 0.000000 1.723000 
# 
# From -- ./inp_files/19868.got.cif
#   From: 2010.05.17/outbox.cif.g08.bks.cpg/sg52_10_cif.got.tgz:19868.got - 2010.06.03 12:15:38.
