data_PCOD9411053
_publ_section_title
;
Structure prediction by ZEFSAII (Michael W. Deem and Ramdas Pophale) SiO2 
 PCOD9411053
Probable space group: P N N A
;
_chemical_formula_sum "Si O2"
_cell_formula_units_Z 64
_cell_length_a 15.104427
_cell_length_b 11.299833
_cell_length_c 18.755789
_cell_angle_alpha 90.000000
_cell_angle_beta 90.000000
_cell_angle_gamma 90.000000
_cell_volume 3201.191227
_symmetry_space_group_name_H-M "P N N A"
_symmetry_group_IT_number 52
_symmetry_cell_setting 'orthorhombic'
loop_
_space_group_symop_operation_xyz
x,y,z
1/2-x,-y,z
x,1/2-y,1/2-z
1/2-x,1/2+y,1/2-z
-x,-y,-z
1/2+x,y,-z
-x,1/2+y,1/2+z
1/2+x,1/2-y,1/2+z
loop_
_atom_site_type_symbol
_atom_site_label
_atom_site_fract_x
_atom_site_fract_y
_atom_site_fract_z
Si Si1 0.390346 0.664163 0.089843
Si Si2 0.166054 0.299975 0.937214
Si Si3 0.497445 0.143401 0.069493
Si Si4 0.832087 0.264655 0.167388
Si Si5 0.565948 0.676484 0.818369
Si Si6 0.984866 0.120798 0.097915
Si Si7 0.233836 0.124946 0.283392
Si Si8 0.448636 0.483777 0.878009
O O1 0.434647 0.788837 0.113167
O O2 0.334263 0.606083 0.152415
O O3 0.477124 0.582864 0.073591
O O4 0.326771 0.684604 0.022351
O O5 0.098490 0.190022 0.928804
O O6 0.251146 0.277819 0.888261
O O7 0.116182 0.420691 0.913659
O O8 0.446370 0.244160 0.111719
O O9 0.490035 0.015990 0.106343
O O10 0.467490 0.135343 0.987303
O O11 0.804496 0.250000 0.250000
O O12 0.899092 0.160847 0.142196
O O13 0.890723 0.383064 0.158823
O O14 0.535373 0.750000 0.750000
O O15 0.668627 0.652591 0.811157
O O16 0.506878 0.560341 0.823821
O O17 0.204075 0.250000 0.250000
O O18 0.250000 0.000000 0.242023
#
# Coordination Sequence:
#
# PCOD9411053 Si02
#       8
#     8   8   8   8   8   8   8   8
#     4  10  21  39  68  89 124 164 212 258 321 370
#     4  10  22  40  62  95 122 162 207 267 310 373
#     4   9  20  41  65  88 125 163 216 262 307 386
#     4  11  25  40  61  93 129 168 208 260 323 384
#     4  10  22  37  62  92 122 162 208 257 324 375
#     4   9  21  41  63  93 119 169 215 257 315 380
#     4  11  24  41  61  97 131 165 207 269 329 390
#     4  10  21  42  60  90 120 165 215 255 307 380
#
# _framework density 19.992557000000001
#
# number of rings (size 3 to 8) (size 9 to 14) (size 15 to 20)
#    0.000    2.000    1.250    0.750    3.500    8.500 
#    2.250    0.000    0.000    0.000    0.000    0.000 
#    0.000    0.000    0.000    0.000    0.000    0.000 
#
# Total GULP energy -356790.554056 kJ/mol
# GULP energy per Si atom -5574.852407 kJ/mol
# Density = 1.994705 g / cm^3
# Si number density = 19.992557 Si / 1000 Ang^3
#
#
#
# Elastic Constant Matrix: (Units=GPa)
#
#
# Indices 1 2 3 4 5 6 
#
# 1 55.8313 7.5468 33.3735 0.0000 0.0000 0.0000
# 2 7.5468 75.8841 15.6338 0.0000 0.0000 0.0000
# 3 33.3735 15.6338 57.1367 0.0000 0.0000 0.0000
# 4 0.0000 0.0000 0.0000 22.6785 0.0000 0.0000
# 5 0.0000 0.0000 0.0000 0.0000 15.3309 0.0000
# 6 0.0000 0.0000 0.0000 0.0000 0.0000 18.2162
#
#
#
# Elastic Compliance Matrix: (Units=1/GPa)
#
#
# Indices 1 2 3 4 5 6 
#
# 1 0.027546 0.000610 -0.016257 0.000000 0.000000 0.000000
# 2 0.000610 0.013979 -0.004181 0.000000 0.000000 0.000000
# 3 -0.016257 -0.004181 0.028141 0.000000 0.000000 0.000000
# 4 0.000000 0.000000 0.000000 0.044095 0.000000 0.000000
# 5 0.000000 0.000000 0.000000 0.000000 0.065228 0.000000
# 6 0.000000 0.000000 0.000000 0.000000 0.000000 0.054896
#
#
# Mechanical properties :
#
#
# Convention : Reuss Voigt Hill
#
# Bulk Modulus (GPa) = 33.32161 33.55114 33.43637
# Shear Modulus (GPa) = 17.63394 20.06497 18.84946
#
# Velocity S-wave (km/s) = 2.97311 3.17144 3.07387
# Velocity P-wave (km/s) = 5.33751 5.49808 5.41839
#
# Compressibility (1/GPa) = 0.03001056
#
# Stress axis : x y z
#
# Youngs Moduli (GPa) = 36.30269 71.53723 35.53489
#
# Poissons Ratio (x) = -0.04362 0.57767
# Poissons Ratio (y) = -0.02213 0.14857
# Poissons Ratio (z) = 0.59016 0.29910
#
# Static dielectric constant tensor:
#      x y z
#    x 1.686140 0.000000 0.000000 
#    y 0.000000 1.775140 0.000000 
#    z 0.000000 0.000000 1.728200 
# 
# From -- ./inp_files/33301.got.cif
#   From: 2010.05.17/outbox.cif.g08.bks.cpg/sg52_17_cif.got.tgz:33301.got - 2010.06.03 12:15:38.
