data_PCOD9411478
_publ_section_title
;
Structure prediction by ZEFSAII (Michael W. Deem and Ramdas Pophale) SiO2 
 PCOD9411478
Probable space group: P N N A
;
_chemical_formula_sum "Si O2"
_cell_formula_units_Z 40
_cell_length_a 5.333307
_cell_length_b 17.432848
_cell_length_c 18.002564
_cell_angle_alpha 90.000000
_cell_angle_beta 90.000000
_cell_angle_gamma 90.000000
_cell_volume 1673.783532
_symmetry_space_group_name_H-M "P N N A"
_symmetry_group_IT_number 52
_symmetry_cell_setting 'orthorhombic'
loop_
_space_group_symop_operation_xyz
x,y,z
1/2-x,-y,z
x,1/2-y,1/2-z
1/2-x,1/2+y,1/2-z
-x,-y,-z
1/2+x,y,-z
-x,1/2+y,1/2+z
1/2+x,1/2-y,1/2+z
loop_
_atom_site_type_symbol
_atom_site_label
_atom_site_fract_x
_atom_site_fract_y
_atom_site_fract_z
Si Si1 0.632977 0.892023 0.955638
Si Si2 0.091090 0.601502 0.288324
Si Si3 0.051330 0.139854 0.332144
Si Si4 0.719376 0.250000 0.250000
Si Si5 0.373804 0.293413 0.043941
Si Si6 0.750000 0.000000 0.318233
O O1 0.605831 0.923397 0.872775
O O2 0.635698 0.798726 0.947332
O O3 0.393528 0.912892 0.005358
O O4 0.358180 0.616441 0.250335
O O5 0.945871 0.681915 0.282481
O O6 0.944839 0.543888 0.234805
O O7 0.288315 0.163582 0.381382
O O8 0.882725 0.214163 0.316831
O O9 0.898897 0.066571 0.361672
O O10 0.647761 0.313239 0.013282
#
# Coordination Sequence:
#
# PCOD9411478 Si02
#       6
#     8   8   8   4   8   4
#     4  10  23  39  65 101 138 172 213 277 344 400
#     4  11  23  42  66  95 130 175 223 280 326 401
#     4  11  23  42  66  95 130 175 223 280 326 401
#     4  10  22  34  68 100 120 166 232 270 334 390
#     4  10  23  39  65 101 138 172 213 277 344 400
#     4  10  26  42  68  88 132 174 240 266 338 382
#
# _framework density 23.897953000000001
#
# number of rings (size 3 to 8) (size 9 to 14) (size 15 to 20)
#    0.000    1.600    0.000    3.600   19.600    0.000 
#    0.000    2.000    0.000    0.000    0.000    0.000 
#    0.000    0.000    0.000    0.000    0.000    0.000 
#
# Total GULP energy -224112.633926 kJ/mol
# GULP energy per Si atom -5602.815848 kJ/mol
# Density = 2.384356 g / cm^3
# Si number density = 23.897953 Si / 1000 Ang^3
#
#
#
# Elastic Constant Matrix: (Units=GPa)
#
#
# Indices 1 2 3 4 5 6 
#
# 1 94.2421 28.1959 14.1430 0.0000 0.0000 0.0000
# 2 28.1959 105.4683 -1.4910 0.0000 0.0000 0.0000
# 3 14.1430 -1.4910 74.1906 0.0000 0.0000 0.0000
# 4 0.0000 0.0000 0.0000 10.0830 0.0000 0.0000
# 5 0.0000 0.0000 0.0000 0.0000 42.0472 0.0000
# 6 0.0000 0.0000 0.0000 0.0000 0.0000 33.8686
#
#
#
# Elastic Compliance Matrix: (Units=1/GPa)
#
#
# Indices 1 2 3 4 5 6 
#
# 1 0.011926 -0.003221 -0.002338 0.000000 0.000000 0.000000
# 2 -0.003221 0.010354 0.000822 0.000000 0.000000 0.000000
# 3 -0.002338 0.000822 0.013941 0.000000 0.000000 0.000000
# 4 0.000000 0.000000 0.000000 0.099177 0.000000 0.000000
# 5 0.000000 0.000000 0.000000 0.000000 0.023783 0.000000
# 6 0.000000 0.000000 0.000000 0.000000 0.000000 0.029526
#
#
# Mechanical properties :
#
#
# Convention : Reuss Voigt Hill
#
# Bulk Modulus (GPa) = 37.38802 39.51075 38.44938
# Shear Modulus (GPa) = 24.14338 32.73664 28.44001
#
# Velocity S-wave (km/s) = 3.18192 3.70517 3.45347
# Velocity P-wave (km/s) = 5.40170 5.90537 5.65914
#
# Compressibility (1/GPa) = 0.02674654
#
# Stress axis : x y z
#
# Youngs Moduli (GPa) = 83.85320 96.57810 71.73066
#
# Poissons Ratio (x) = 0.31110 0.16772
# Poissons Ratio (y) = 0.27011 -0.05897
# Poissons Ratio (z) = 0.19606 -0.07940
#
# Static dielectric constant tensor:
#      x y z
#    x 1.936870 0.000000 0.000000 
#    y 0.000000 1.931040 0.000000 
#    z 0.000000 0.000000 1.911780 
# 
# From -- ./inp_files/3244.got.cif
#   From: 2010.05.17/outbox.cif.g08.bks.cpg/sg52_2_cif.got.tgz:3244.got - 2010.06.03 12:15:38.
