data_PCOD9411959
_publ_section_title
;
Structure prediction by ZEFSAII (Michael W. Deem and Ramdas Pophale) SiO2 
 PCOD9411959
Probable space group: P N N A
;
_chemical_formula_sum "Si O2"
_cell_formula_units_Z 40
_cell_length_a 27.654338
_cell_length_b 11.108814
_cell_length_c 6.430742
_cell_angle_alpha 90.000000
_cell_angle_beta 90.000000
_cell_angle_gamma 90.000000
_cell_volume 1975.568296
_symmetry_space_group_name_H-M "P N N A"
_symmetry_group_IT_number 52
_symmetry_cell_setting 'orthorhombic'
loop_
_space_group_symop_operation_xyz
x,y,z
1/2-x,-y,z
x,1/2-y,1/2-z
1/2-x,1/2+y,1/2-z
-x,-y,-z
1/2+x,y,-z
-x,1/2+y,1/2+z
1/2+x,1/2-y,1/2+z
loop_
_atom_site_type_symbol
_atom_site_label
_atom_site_fract_x
_atom_site_fract_y
_atom_site_fract_z
Si Si1 0.733722 0.365682 0.392043
Si Si2 0.420946 0.250000 0.750000
Si Si3 0.625071 0.384019 0.273178
Si Si4 0.295506 0.250000 0.250000
Si Si5 0.624076 0.570881 0.930910
Si Si6 0.946571 0.049402 0.960621
O O1 0.750000 0.500000 0.323616
O O2 0.746048 0.250000 0.250000
O O3 0.675833 0.373598 0.394104
O O4 0.760700 0.326276 0.599996
O O5 0.389768 0.154804 0.624790
O O6 0.448544 0.320716 0.570806
O O7 0.605047 0.250000 0.250000
O O8 0.588988 0.464155 0.407184
O O9 0.634315 0.444288 0.046137
O O10 0.331429 0.355253 0.166509
O O11 0.579779 0.559794 0.764928
O O12 0.000000 0.000000 0.000000
#
# Coordination Sequence:
#
# PCOD9411959 Si02
#       6
#     8   4   8   4   8   8
#     4  11  25  42  65  99 139 186 237 292 359 431
#     4  10  22  42  67  98 138 167 238 290 350 418
#     4  10  25  43  62  94 145 177 222 288 353 423
#     4  12  24  40  75 100 136 187 250 290 362 436
#     4  11  23  43  71  98 133 188 234 298 351 428
#     4  11  24  42  71 101 135 180 238 297 358 426
#
# _framework density 20.247337999999999
#
# number of rings (size 3 to 8) (size 9 to 14) (size 15 to 20)
#    0.000    1.200    2.000    2.400    4.200   14.400 
#    0.000    0.000    0.000    0.000    0.000    0.000 
#    0.000    0.000    0.000    0.000    0.000    0.000 
#
# Total GULP energy -222914.692291 kJ/mol
# GULP energy per Si atom -5572.867307 kJ/mol
# Density = 2.020125 g / cm^3
# Si number density = 20.247338 Si / 1000 Ang^3
#
#
#
# Elastic Constant Matrix: (Units=GPa)
#
#
# Indices 1 2 3 4 5 6 
#
# 1 92.5319 28.2392 68.4712 0.0000 0.0000 0.0000
# 2 28.2392 144.4847 45.4634 0.0000 0.0000 0.0000
# 3 68.4712 45.4634 100.2491 0.0000 0.0000 0.0000
# 4 0.0000 0.0000 0.0000 23.9158 0.0000 0.0000
# 5 0.0000 0.0000 0.0000 0.0000 49.0810 0.0000
# 6 0.0000 0.0000 0.0000 0.0000 0.0000 20.3206
#
#
#
# Elastic Compliance Matrix: (Units=1/GPa)
#
#
# Indices 1 2 3 4 5 6 
#
# 1 0.021881 0.000497 -0.015170 0.000000 0.000000 0.000000
# 2 0.000497 0.008084 -0.004006 0.000000 0.000000 0.000000
# 3 -0.015170 -0.004006 0.022153 0.000000 0.000000 0.000000
# 4 0.000000 0.000000 0.000000 0.041813 0.000000 0.000000
# 5 0.000000 0.000000 0.000000 0.000000 0.020375 0.000000
# 6 0.000000 0.000000 0.000000 0.000000 0.000000 0.049211
#
#
# Mechanical properties :
#
#
# Convention : Reuss Voigt Hill
#
# Bulk Modulus (GPa) = 67.74858 69.06815 68.40836
# Shear Modulus (GPa) = 24.29585 31.66960 27.98272
#
# Velocity S-wave (km/s) = 3.46779 3.95921 3.72162
# Velocity P-wave (km/s) = 7.04040 7.42204 7.23374
#
# Compressibility (1/GPa) = 0.01476046
#
# Stress axis : x y z
#
# Youngs Moduli (GPa) = 45.70152 123.69399 45.14006
#
# Poissons Ratio (x) = -0.06146 0.68479
# Poissons Ratio (y) = -0.02271 0.18082
# Poissons Ratio (z) = 0.69331 0.49548
#
# Static dielectric constant tensor:
#      x y z
#    x 1.727780 0.000000 0.000000 
#    y 0.000000 1.874910 0.000000 
#    z 0.000000 0.000000 1.799650 
# 
# From -- ./inp_files/5635.got.cif
#   From: 2010.05.17/outbox.cif.g08.bks.cpg/sg52_3_cif.got.tgz:5635.got - 2010.06.03 12:15:38.
