data_PCOD9411869
_publ_section_title
;
Structure prediction by ZEFSAII (Michael W. Deem and Ramdas Pophale) SiO2 
 PCOD9411869
Probable space group: P N N A
;
_chemical_formula_sum "Si O2"
_cell_formula_units_Z 40
_cell_length_a 5.501473
_cell_length_b 11.564436
_cell_length_c 26.652483
_cell_angle_alpha 90.000000
_cell_angle_beta 90.000000
_cell_angle_gamma 90.000000
_cell_volume 1695.669146
_symmetry_space_group_name_H-M "P N N A"
_symmetry_group_IT_number 52
_symmetry_cell_setting 'orthorhombic'
loop_
_space_group_symop_operation_xyz
x,y,z
1/2-x,-y,z
x,1/2-y,1/2-z
1/2-x,1/2+y,1/2-z
-x,-y,-z
1/2+x,y,-z
-x,1/2+y,1/2+z
1/2+x,1/2-y,1/2+z
loop_
_atom_site_type_symbol
_atom_site_label
_atom_site_fract_x
_atom_site_fract_y
_atom_site_fract_z
Si Si1 0.301744 0.122894 0.582047
Si Si2 0.006285 0.783768 0.149621
Si Si3 0.403931 0.614822 0.182344
Si Si4 0.999259 0.664200 0.528857
Si Si5 0.750000 0.500000 0.392602
Si Si6 0.303019 0.250000 0.750000
O O1 0.080461 0.203513 0.602398
O O2 0.430962 0.091331 0.634299
O O3 0.466861 0.204954 0.548024
O O4 0.250000 0.000000 0.556971
O O5 0.851370 0.763413 0.200016
O O6 0.265096 0.732729 0.165791
O O7 0.933978 0.913794 0.135743
O O8 0.250000 0.500000 0.188645
O O9 0.533119 0.641264 0.234771
O O10 0.225153 0.644869 0.490120
O O11 0.075110 0.580517 0.573954
#
# Coordination Sequence:
#
# PCOD9411869 Si02
#       6
#     8   8   8   8   4   4
#     4  10  22  41  66  99 133 176 230 285 361 424
#     4  10  22  42  63  96 136 182 232 284 349 424
#     4  11  22  40  71  94 137 188 230 298 354 430
#     4  11  26  46  72 105 141 183 237 299 361 432
#     4  10  24  46  70  96 142 190 232 292 350 438
#     4  10  24  38  58 106 132 176 236 284 354 412
#
# _framework density 23.589507000000001
#
# number of rings (size 3 to 8) (size 9 to 14) (size 15 to 20)
#    0.000    1.600    2.000    1.200    5.600    4.000 
#    7.200    0.000    0.000    0.000    0.000    0.000 
#    0.000    0.000    0.000    0.000    0.000    0.000 
#
# Total GULP energy -223466.908643 kJ/mol
# GULP energy per Si atom -5586.672716 kJ/mol
# Density = 2.353582 g / cm^3
# Si number density = 23.589507 Si / 1000 Ang^3
#
#
#
# Elastic Constant Matrix: (Units=GPa)
#
#
# Indices 1 2 3 4 5 6 
#
# 1 65.3055 13.1472 10.5974 0.0000 0.0000 0.0000
# 2 13.1472 150.3648 23.1855 0.0000 0.0000 0.0000
# 3 10.5974 23.1855 33.6999 0.0000 0.0000 0.0000
# 4 0.0000 0.0000 0.0000 19.8366 0.0000 0.0000
# 5 0.0000 0.0000 0.0000 0.0000 26.3454 0.0000
# 6 0.0000 0.0000 0.0000 0.0000 0.0000 25.1860
#
#
#
# Elastic Compliance Matrix: (Units=1/GPa)
#
#
# Indices 1 2 3 4 5 6 
#
# 1 0.016203 -0.000706 -0.004609 0.000000 0.000000 0.000000
# 2 -0.000706 0.007471 -0.004918 0.000000 0.000000 0.000000
# 3 -0.004609 -0.004918 0.034507 0.000000 0.000000 0.000000
# 4 0.000000 0.000000 0.000000 0.050412 0.000000 0.000000
# 5 0.000000 0.000000 0.000000 0.000000 0.037957 0.000000
# 6 0.000000 0.000000 0.000000 0.000000 0.000000 0.039705
#
#
# Mechanical properties :
#
#
# Convention : Reuss Voigt Hill
#
# Bulk Modulus (GPa) = 26.51564 38.13672 32.32618
# Shear Modulus (GPa) = 22.80075 27.76962 25.28519
#
# Velocity S-wave (km/s) = 3.11233 3.43476 3.27751
# Velocity P-wave (km/s) = 4.91735 5.65084 5.29681
#
# Compressibility (1/GPa) = 0.03771360
#
# Stress axis : x y z
#
# Youngs Moduli (GPa) = 61.71791 133.85976 28.97994
#
# Poissons Ratio (x) = 0.09450 0.13358
# Poissons Ratio (y) = 0.04357 0.14252
# Poissons Ratio (z) = 0.28449 0.65829
#
# Static dielectric constant tensor:
#      x y z
#    x 1.977100 0.000000 0.000000 
#    y 0.000000 1.906470 0.000000 
#    z 0.000000 0.000000 1.855870 
# 
# From -- ./inp_files/41522.got.cif
#   From: 2010.05.17/outbox.cif.g08.bks.cpg/sg52_21_cif.got.tgz:41522.got - 2010.06.03 12:15:38.
