data_PCOD9411428
_publ_section_title
;
Structure prediction by ZEFSAII (Michael W. Deem and Ramdas Pophale) SiO2 
 PCOD9411428
Probable space group: P N N A
;
_chemical_formula_sum "Si O2"
_cell_formula_units_Z 48
_cell_length_a 12.688158
_cell_length_b 9.385895
_cell_length_c 16.092138
_cell_angle_alpha 90.000000
_cell_angle_beta 90.000000
_cell_angle_gamma 90.000000
_cell_volume 1916.408188
_symmetry_space_group_name_H-M "P N N A"
_symmetry_group_IT_number 52
_symmetry_cell_setting 'orthorhombic'
loop_
_space_group_symop_operation_xyz
x,y,z
1/2-x,-y,z
x,1/2-y,1/2-z
1/2-x,1/2+y,1/2-z
-x,-y,-z
1/2+x,y,-z
-x,1/2+y,1/2+z
1/2+x,1/2-y,1/2+z
loop_
_atom_site_type_symbol
_atom_site_label
_atom_site_fract_x
_atom_site_fract_y
_atom_site_fract_z
Si Si1 0.250000 0.500000 0.498838
Si Si2 0.235001 0.297384 0.077367
Si Si3 0.426992 0.608440 0.948989
Si Si4 0.958318 0.576629 0.401335
Si Si5 0.353837 0.587823 0.766541
Si Si6 0.569332 0.153501 0.819980
Si Si7 0.250000 0.500000 0.211573
O O1 0.276421 0.358581 0.445987
O O2 0.152304 0.463499 0.557798
O O3 0.129496 0.277188 0.130691
O O4 0.300821 0.388249 0.144373
O O5 0.186013 0.367062 0.994806
O O6 0.480525 0.764478 0.933129
O O7 0.398302 0.556368 0.857027
O O8 0.500000 0.500000 0.000000
O O9 0.944326 0.568045 0.301228
O O10 0.032257 0.439204 0.401042
O O11 0.250000 0.500000 0.749689
O O12 0.321916 0.750000 0.750000
O O13 0.506408 0.250000 0.750000
O O14 0.660561 0.064866 0.771644
#
# Coordination Sequence:
#
# PCOD9411428 Si02
#       7
#     4   8   8   8   8   8   4
#     4  10  21  44  73 100 140 180 238 294 349 424
#     4  10  23  46  64 101 136 176 238 287 359 415
#     4  10  24  44  63 103 142 176 236 295 353 429
#     4  10  22  46  70 101 143 188 236 286 357 428
#     4  10  22  43  66  97 134 179 230 281 345 424
#     4  10  23  45  70 103 137 186 240 287 352 436
#     4  10  23  46  69  98 142 178 236 288 349 426
#
# _framework density 25.046858
#
# number of rings (size 3 to 8) (size 9 to 14) (size 15 to 20)
#    0.000    2.000    0.833    0.500    5.833    3.333 
#   15.000    0.000    0.000    0.000    0.000    0.000 
#    0.000    0.000    0.000    0.000    0.000    0.000 
#
# Total GULP energy -267747.525586 kJ/mol
# GULP energy per Si atom -5578.073450 kJ/mol
# Density = 2.498985 g / cm^3
# Si number density = 25.046858 Si / 1000 Ang^3
#
#
#
# Elastic Constant Matrix: (Units=GPa)
#
#
# Indices 1 2 3 4 5 6 
#
# 1 42.7477 26.2061 15.2492 0.0000 0.0000 0.0000
# 2 26.2061 -56.8590 1.2366 0.0000 0.0000 0.0000
# 3 15.2492 1.2366 127.3724 0.0000 0.0000 0.0000
# 4 0.0000 0.0000 0.0000 60.5172 0.0000 0.0000
# 5 0.0000 0.0000 0.0000 0.0000 31.2927 0.0000
# 6 0.0000 0.0000 0.0000 0.0000 0.0000 68.8612
#
#
#
# Elastic Compliance Matrix: (Units=1/GPa)
#
#
# Indices 1 2 3 4 5 6 
#
# 1 0.018917 0.008668 -0.002349 0.000000 0.000000 0.000000
# 2 0.008668 -0.013612 -0.000906 0.000000 0.000000 0.000000
# 3 -0.002349 -0.000906 0.008141 0.000000 0.000000 0.000000
# 4 0.000000 0.000000 0.000000 0.016524 0.000000 0.000000
# 5 0.000000 0.000000 0.000000 0.000000 0.031956 0.000000
# 6 0.000000 0.000000 0.000000 0.000000 0.000000 0.014522
#
#
# Mechanical properties :
#
#
# Convention : Reuss Voigt Hill
#
# Bulk Modulus (GPa) = 41.19845 22.07168 31.63507
# Shear Modulus (GPa) = 67.83061 36.83884 52.33473
#
# Velocity S-wave (km/s) = 5.20963 3.83926 4.57603
# Velocity P-wave (km/s) = 7.25750 5.33709 6.37008
#
# Compressibility (1/GPa) = 0.02427276
#
# Stress axis : x y z
#
# Youngs Moduli (GPa) = 52.86178 -73.46414 122.83491
#
# Poissons Ratio (x) = 0.63677 0.28853
# Poissons Ratio (y) = -0.45820 0.11124
# Poissons Ratio (z) = 0.12417 -0.06653
#
# Static dielectric constant tensor:
#      x y z
#    x 1.679870 0.000000 0.000000 
#    y 0.000000 1.821540 0.000000 
#    z 0.000000 0.000000 2.051220 
# 
# From -- ./inp_files/33089.got.cif
#   From: 2010.05.17/outbox.cif.g08.bks.cpg/sg52_17_cif.got.tgz:33089.got - 2010.06.03 12:15:38.
