data_PCOD9411039
_publ_section_title
;
Structure prediction by ZEFSAII (Michael W. Deem and Ramdas Pophale) SiO2 
 PCOD9411039
Probable space group: P N N A
;
_chemical_formula_sum "Si O2"
_cell_formula_units_Z 48
_cell_length_a 18.810962
_cell_length_b 20.392766
_cell_length_c 5.307602
_cell_angle_alpha 90.000000
_cell_angle_beta 90.000000
_cell_angle_gamma 90.000000
_cell_volume 2036.036180
_symmetry_space_group_name_H-M "P N N A"
_symmetry_group_IT_number 52
_symmetry_cell_setting 'orthorhombic'
loop_
_space_group_symop_operation_xyz
x,y,z
1/2-x,-y,z
x,1/2-y,1/2-z
1/2-x,1/2+y,1/2-z
-x,-y,-z
1/2+x,y,-z
-x,1/2+y,1/2+z
1/2+x,1/2-y,1/2+z
loop_
_atom_site_type_symbol
_atom_site_label
_atom_site_fract_x
_atom_site_fract_y
_atom_site_fract_z
Si Si1 0.464703 0.071718 0.549994
Si Si2 0.252385 0.428770 0.809431
Si Si3 0.118670 0.553092 0.436111
Si Si4 0.056642 0.182858 0.664589
Si Si5 0.293182 0.685236 0.104941
Si Si6 0.125419 0.093841 0.019078
O O1 0.430838 0.069887 0.825915
O O2 0.518921 0.132334 0.522811
O O3 0.500000 0.000000 0.500000
O O4 0.405816 0.084197 0.327904
O O5 0.250000 0.500000 0.949081
O O6 0.303564 0.435649 0.564221
O O7 0.170525 0.423514 0.729108
O O8 0.262253 0.358798 0.946036
O O9 0.107475 0.476266 0.376165
O O10 0.020047 0.250000 0.750000
O O11 0.134736 0.202139 0.552548
O O12 0.064828 0.140109 0.916756
O O13 0.267038 0.750000 0.250000
O O14 0.322575 0.634677 0.308906
#
# Coordination Sequence:
#
# PCOD9411039 Si02
#       6
#     8   8   8   8   8   8
#     4  12  25  42  69  97 136 179 230 277 332 406
#     4   9  23  40  62  99 133 178 226 283 352 419
#     4  11  25  43  67  99 134 179 224 278 337 410
#     4  11  23  40  62  97 133 170 226 284 343 400
#     4  11  22  38  71 101 134 173 228 295 353 406
#     4  10  21  39  66  96 129 168 219 291 339 399
#
# _framework density 23.575220999999999
#
# number of rings (size 3 to 8) (size 9 to 14) (size 15 to 20)
#    0.000    1.333    3.333    1.500    9.333    0.667 
#    0.000    0.833    3.667    0.000    0.000    0.000 
#    0.000    0.000    0.000    0.000    0.000    0.000 
#
# Total GULP energy -267885.630482 kJ/mol
# GULP energy per Si atom -5580.950635 kJ/mol
# Density = 2.352156 g / cm^3
# Si number density = 23.575221 Si / 1000 Ang^3
#
#
#
# Elastic Constant Matrix: (Units=GPa)
#
#
# Indices 1 2 3 4 5 6 
#
# 1 59.7894 44.6712 16.1145 0.0000 0.0000 0.0000
# 2 44.6712 159.2819 58.0473 0.0000 0.0000 0.0000
# 3 16.1145 58.0473 86.9534 0.0000 0.0000 0.0000
# 4 0.0000 0.0000 0.0000 44.2427 0.0000 0.0000
# 5 0.0000 0.0000 0.0000 0.0000 53.4875 0.0000
# 6 0.0000 0.0000 0.0000 0.0000 0.0000 -70.2097
#
#
#
# Elastic Compliance Matrix: (Units=1/GPa)
#
#
# Indices 1 2 3 4 5 6 
#
# 1 0.021159 -0.005954 0.000053 0.000000 0.000000 0.000000
# 2 -0.005954 0.009972 -0.005553 0.000000 0.000000 0.000000
# 3 0.000053 -0.005553 0.015198 0.000000 0.000000 0.000000
# 4 0.000000 0.000000 0.000000 0.022603 0.000000 0.000000
# 5 0.000000 0.000000 0.000000 0.000000 0.018696 0.000000
# 6 0.000000 0.000000 0.000000 0.000000 0.000000 -0.014243
#
#
# Mechanical properties :
#
#
# Convention : Reuss Voigt Hill
#
# Bulk Modulus (GPa) = 42.69675 60.41007 51.55341
# Shear Modulus (GPa) = 48.03113 17.98354 33.00733
#
# Velocity S-wave (km/s) = 4.51861 2.76491 3.74583
# Velocity P-wave (km/s) = 6.73602 5.98940 6.37365
#
# Compressibility (1/GPa) = 0.02342099
#
# Stress axis : x y z
#
# Youngs Moduli (GPa) = 47.26080 100.28353 65.79855
#
# Poissons Ratio (x) = 0.59704 -0.00349
# Poissons Ratio (y) = 0.28137 0.36541
# Poissons Ratio (z) = -0.00251 0.55692
#
# Static dielectric constant tensor:
#      x y z
#    x 1.988450 0.000000 0.000000 
#    y 0.000000 2.084200 0.000000 
#    z 0.000000 0.000000 2.006180 
# 
# From -- ./inp_files/4353.got.cif
#   From: 2010.05.17/outbox.cif.g08.bks.cpg/sg52_3_cif.got.tgz:4353.got - 2010.06.03 12:15:38.
