data_PCOD9411359
_publ_section_title
;
Structure prediction by ZEFSAII (Michael W. Deem and Ramdas Pophale) SiO2 
 PCOD9411359
Probable space group: P N N A
;
_chemical_formula_sum "Si O2"
_cell_formula_units_Z 40
_cell_length_a 20.051978
_cell_length_b 10.771161
_cell_length_c 8.378586
_cell_angle_alpha 90.000000
_cell_angle_beta 90.000000
_cell_angle_gamma 90.000000
_cell_volume 1809.632839
_symmetry_space_group_name_H-M "P N N A"
_symmetry_group_IT_number 52
_symmetry_cell_setting 'orthorhombic'
loop_
_space_group_symop_operation_xyz
x,y,z
1/2-x,-y,z
x,1/2-y,1/2-z
1/2-x,1/2+y,1/2-z
-x,-y,-z
1/2+x,y,-z
-x,1/2+y,1/2+z
1/2+x,1/2-y,1/2+z
loop_
_atom_site_type_symbol
_atom_site_label
_atom_site_fract_x
_atom_site_fract_y
_atom_site_fract_z
Si Si1 0.779982 0.783831 0.432864
Si Si2 0.396733 0.557388 0.030351
Si Si3 0.649236 0.792544 0.931159
Si Si4 0.027684 0.690280 0.925057
Si Si5 0.680460 0.048868 0.849450
O O1 0.788655 0.750000 0.250000
O O2 0.826610 0.901691 0.458817
O O3 0.701197 0.789806 0.468516
O O4 0.806936 0.678110 0.559492
O O5 0.452485 0.664857 0.021564
O O6 0.377861 0.544142 0.218296
O O7 0.431672 0.439544 0.947748
O O8 0.661995 0.750000 0.750000
O O9 0.666502 0.935186 0.968181
O O10 0.571725 0.777588 0.964186
O O11 0.029043 0.750000 0.750000
O O12 0.750000 0.000000 0.771877
#
# Coordination Sequence:
#
# PCOD9411359 Si02
#       5
#     8   8   8   8   8
#     4  11  24  40  65  99 132 168 222 285 335 397
#     4  11  24  45  66  94 134 181 219 276 346 408
#     4  11  22  43  67  96 129 176 223 272 343 415
#     4  11  25  42  65  97 133 174 225 279 336 405
#     4  10  21  42  69  95 127 177 229 276 340 420
#
# _framework density 22.103932
#
# number of rings (size 3 to 8) (size 9 to 14) (size 15 to 20)
#    0.000    1.200    2.000    4.800    2.800    0.800 
#    3.600    2.000    0.000    0.000    0.000    0.000 
#    0.000    0.000    0.000    0.000    0.000    0.000 
#
# Total GULP energy -223183.459420 kJ/mol
# GULP energy per Si atom -5579.586486 kJ/mol
# Density = 2.205362 g / cm^3
# Si number density = 22.103932 Si / 1000 Ang^3
#
#
#
# Elastic Constant Matrix: (Units=GPa)
#
#
# Indices 1 2 3 4 5 6 
#
# 1 99.5993 6.2717 -7.8398 0.0000 0.0000 0.0000
# 2 6.2717 26.7166 -9.7109 0.0000 0.0000 0.0000
# 3 -7.8398 -9.7109 66.7695 0.0000 0.0000 0.0000
# 4 0.0000 0.0000 0.0000 19.5555 0.0000 0.0000
# 5 0.0000 0.0000 0.0000 0.0000 47.3473 0.0000
# 6 0.0000 0.0000 0.0000 0.0000 0.0000 39.7487
#
#
#
# Elastic Compliance Matrix: (Units=1/GPa)
#
#
# Indices 1 2 3 4 5 6 
#
# 1 0.010242 -0.002077 0.000900 0.000000 0.000000 0.000000
# 2 -0.002077 0.039940 0.005565 0.000000 0.000000 0.000000
# 3 0.000900 0.005565 0.015892 0.000000 0.000000 0.000000
# 4 0.000000 0.000000 0.000000 0.051137 0.000000 0.000000
# 5 0.000000 0.000000 0.000000 0.000000 0.021121 0.000000
# 6 0.000000 0.000000 0.000000 0.000000 0.000000 0.025158
#
#
# Mechanical properties :
#
#
# Convention : Reuss Voigt Hill
#
# Bulk Modulus (GPa) = 13.35985 18.94748 16.15367
# Shear Modulus (GPa) = 27.82996 34.95460 31.39228
#
# Velocity S-wave (km/s) = 3.55216 3.98096 3.77266
# Velocity P-wave (km/s) = 4.78341 5.45173 5.12847
#
# Compressibility (1/GPa) = 0.07485112
#
# Stress axis : x y z
#
# Youngs Moduli (GPa) = 97.63815 25.03745 62.92471
#
# Poissons Ratio (x) = 0.05200 -0.05666
# Poissons Ratio (y) = 0.20279 -0.35018
# Poissons Ratio (z) = -0.08792 -0.13933
#
# Static dielectric constant tensor:
#      x y z
#    x 1.799950 0.000000 0.000000 
#    y 0.000000 1.567400 0.000000 
#    z 0.000000 0.000000 1.828610 
# 
# From -- ./inp_files/11606.got.cif
#   From: 2010.05.17/outbox.cif.g08.bks.cpg/sg52_6_cif.got.tgz:11606.got - 2010.06.03 12:15:38.
