data_PCOD9411172
_publ_section_title
;
Structure prediction by ZEFSAII (Michael W. Deem and Ramdas Pophale) SiO2 
 PCOD9411172
Probable space group: P N N A
;
_chemical_formula_sum "Si O2"
_cell_formula_units_Z 32
_cell_length_a 15.153225
_cell_length_b 5.072546
_cell_length_c 18.657886
_cell_angle_alpha 90.000000
_cell_angle_beta 90.000000
_cell_angle_gamma 90.000000
_cell_volume 1434.146446
_symmetry_space_group_name_H-M "P N N A"
_symmetry_group_IT_number 52
_symmetry_cell_setting 'orthorhombic'
loop_
_space_group_symop_operation_xyz
x,y,z
1/2-x,-y,z
x,1/2-y,1/2-z
1/2-x,1/2+y,1/2-z
-x,-y,-z
1/2+x,y,-z
-x,1/2+y,1/2+z
1/2+x,1/2-y,1/2+z
loop_
_atom_site_type_symbol
_atom_site_label
_atom_site_fract_x
_atom_site_fract_y
_atom_site_fract_z
Si Si1 0.145839 0.501699 0.300575
Si Si2 0.582206 0.603731 0.546195
Si Si3 0.653577 0.376430 0.021082
Si Si4 0.315059 0.747032 0.827408
O O1 0.250000 0.500000 0.323516
O O2 0.129121 0.250000 0.250000
O O3 0.084037 0.545263 0.369469
O O4 0.135439 0.750000 0.250000
O O5 0.500000 0.500000 0.500000
O O6 0.656079 0.401827 0.517685
O O7 0.599422 0.905288 0.523462
O O8 0.750000 0.500000 0.026485
O O9 0.625698 0.313071 0.103152
O O10 0.250000 0.500000 0.819677
O O11 0.362255 0.750000 0.750000
O O12 0.250000 0.000000 0.839560
#
# Coordination Sequence:
#
# PCOD9411172 Si02
#       4
#     8   8   8   8
#     4  10  21  40  67  94 121 162 217 269 313 373
#     4  12  25  41  61  93 132 162 199 264 339 395
#     4  11  21  38  63  88 117 163 214 256 307 383
#     4   9  17  31  53  83 116 149 195 251 293 341
#
# _framework density 22.312925
#
# number of rings (size 3 to 8) (size 9 to 14) (size 15 to 20)
#    0.000    1.500    0.000    7.500    0.000    2.000 
#    0.000    3.750    0.000    0.000    0.000    0.000 
#    0.000    0.000    0.000    0.000    0.000    0.000 
#
# Total GULP energy -178538.860337 kJ/mol
# GULP energy per Si atom -5579.339386 kJ/mol
# Density = 2.226214 g / cm^3
# Si number density = 22.312925 Si / 1000 Ang^3
#
#
#
# Elastic Constant Matrix: (Units=GPa)
#
#
# Indices 1 2 3 4 5 6 
#
# 1 59.8714 18.1780 38.0250 0.0000 0.0000 0.0000
# 2 18.1780 152.5474 45.4732 0.0000 0.0000 0.0000
# 3 38.0250 45.4732 193.9083 0.0000 0.0000 0.0000
# 4 0.0000 0.0000 0.0000 19.4198 0.0000 0.0000
# 5 0.0000 0.0000 0.0000 0.0000 30.4495 0.0000
# 6 0.0000 0.0000 0.0000 0.0000 0.0000 19.9373
#
#
#
# Elastic Compliance Matrix: (Units=1/GPa)
#
#
# Indices 1 2 3 4 5 6 
#
# 1 0.019301 -0.001260 -0.003489 0.000000 0.000000 0.000000
# 2 -0.001260 0.007130 -0.001425 0.000000 0.000000 0.000000
# 3 -0.003489 -0.001425 0.006176 0.000000 0.000000 0.000000
# 4 0.000000 0.000000 0.000000 0.051494 0.000000 0.000000
# 5 0.000000 0.000000 0.000000 0.000000 0.032841 0.000000
# 6 0.000000 0.000000 0.000000 0.000000 0.000000 0.050157
#
#
# Mechanical properties :
#
#
# Convention : Reuss Voigt Hill
#
# Bulk Modulus (GPa) = 49.36252 67.74219 58.55236
# Shear Modulus (GPa) = 26.85271 34.27136 30.56204
#
# Velocity S-wave (km/s) = 3.47286 3.92336 3.70496
# Velocity P-wave (km/s) = 6.18481 7.13790 6.67838
#
# Compressibility (1/GPa) = 0.02025828
#
# Stress axis : x y z
#
# Youngs Moduli (GPa) = 51.81029 140.24733 161.92891
#
# Poissons Ratio (x) = 0.17668 0.56505
# Poissons Ratio (y) = 0.06527 0.23076
# Poissons Ratio (z) = 0.18079 0.19986
#
# Static dielectric constant tensor:
#      x y z
#    x 1.838290 0.000000 0.000000 
#    y 0.000000 1.804070 0.000000 
#    z 0.000000 0.000000 1.866930 
# 
# From -- ./inp_files/32701.got.cif
#   From: 2010.05.17/outbox.cif.g08.bks.cpg/sg52_17_cif.got.tgz:32701.got - 2010.06.03 12:15:38.
