data_PCOD9411840
_publ_section_title
;
Structure prediction by ZEFSAII (Michael W. Deem and Ramdas Pophale) SiO2 
 PCOD9411840
Probable space group: P N N A
;
_chemical_formula_sum "Si O2"
_cell_formula_units_Z 48
_cell_length_a 28.131199
_cell_length_b 9.919254
_cell_length_c 8.265518
_cell_angle_alpha 90.000000
_cell_angle_beta 90.000000
_cell_angle_gamma 90.000000
_cell_volume 2306.414343
_symmetry_space_group_name_H-M "P N N A"
_symmetry_group_IT_number 52
_symmetry_cell_setting 'orthorhombic'
loop_
_space_group_symop_operation_xyz
x,y,z
1/2-x,-y,z
x,1/2-y,1/2-z
1/2-x,1/2+y,1/2-z
-x,-y,-z
1/2+x,y,-z
-x,1/2+y,1/2+z
1/2+x,1/2-y,1/2+z
loop_
_atom_site_type_symbol
_atom_site_label
_atom_site_fract_x
_atom_site_fract_y
_atom_site_fract_z
Si Si1 0.850703 0.459621 0.750056
Si Si2 0.469861 0.906557 0.739595
Si Si3 0.061396 0.599798 0.046384
Si Si4 0.230155 0.644301 0.037340
Si Si5 0.912247 0.111559 0.061806
Si Si6 0.164717 0.750000 0.750000
Si Si7 0.190424 0.250000 0.250000
O O1 0.885544 0.424297 0.896073
O O2 0.801171 0.392142 0.802953
O O3 0.879112 0.411074 0.593844
O O4 0.840721 0.617151 0.734227
O O5 0.455689 0.750000 0.750000
O O6 0.526445 0.908417 0.702054
O O7 0.451308 0.983734 0.580125
O O8 0.448209 0.993124 0.886931
O O9 0.059090 0.748402 0.966519
O O10 0.250000 0.500000 0.976826
O O11 0.275031 0.730623 0.095860
O O12 0.197890 0.712537 0.901240
O O13 0.872460 0.132668 0.201289
#
# Coordination Sequence:
#
# PCOD9411840 Si02
#       7
#     8   8   8   8   8   4   4
#     4  11  23  41  70  93 132 179 226 277 335 411
#     4  11  25  43  67 102 140 174 226 280 326 386
#     4  11  24  45  68  96 140 178 222 278 330 403
#     4  10  22  41  64  95 134 170 223 280 341 402
#     4  12  23  43  69  98 131 186 228 264 343 407
#     4  12  22  40  71  94 130 180 221 270 338 414
#     4  10  24  42  61 102 130 170 225 288 340 396
#
# _framework density 20.811523999999999
#
# number of rings (size 3 to 8) (size 9 to 14) (size 15 to 20)
#    0.000    1.000    3.333    2.500    2.333    4.000 
#    3.000    0.000    0.000    0.000    0.000    0.000 
#    0.000    0.000    0.000    0.000    0.000    0.000 
#
# Total GULP energy -268116.365843 kJ/mol
# GULP energy per Si atom -5585.757622 kJ/mol
# Density = 2.076416 g / cm^3
# Si number density = 20.811524 Si / 1000 Ang^3
#
#
#
# Elastic Constant Matrix: (Units=GPa)
#
#
# Indices 1 2 3 4 5 6 
#
# 1 75.0242 44.3456 17.9094 0.0000 0.0000 0.0000
# 2 44.3456 164.8406 30.9185 0.0000 0.0000 0.0000
# 3 17.9094 30.9185 74.8390 0.0000 0.0000 0.0000
# 4 0.0000 0.0000 0.0000 28.0950 0.0000 0.0000
# 5 0.0000 0.0000 0.0000 0.0000 -16.6778 0.0000
# 6 0.0000 0.0000 0.0000 0.0000 0.0000 35.2800
#
#
#
# Elastic Compliance Matrix: (Units=1/GPa)
#
#
# Indices 1 2 3 4 5 6 
#
# 1 0.016191 -0.003934 -0.002249 0.000000 0.000000 0.000000
# 2 -0.003934 0.007532 -0.002170 0.000000 0.000000 0.000000
# 3 -0.002249 -0.002170 0.014797 0.000000 0.000000 0.000000
# 4 0.000000 0.000000 0.000000 0.035594 0.000000 0.000000
# 5 0.000000 0.000000 0.000000 0.000000 -0.059960 0.000000
# 6 0.000000 0.000000 0.000000 0.000000 0.000000 0.028345
#
#
# Mechanical properties :
#
#
# Convention : Reuss Voigt Hill
#
# Bulk Modulus (GPa) = 45.84449 55.67231 50.75840
# Shear Modulus (GPa) = 75.21482 24.10813 49.66148
#
# Velocity S-wave (km/s) = 6.01826 3.40722 4.89022
# Velocity P-wave (km/s) = 8.38861 6.50290 7.50521
#
# Compressibility (1/GPa) = 0.02181287
#
# Stress axis : x y z
#
# Youngs Moduli (GPa) = 61.76178 132.76993 67.58165
#
# Poissons Ratio (x) = 0.52230 0.15202
# Poissons Ratio (y) = 0.24296 0.14667
# Poissons Ratio (z) = 0.13893 0.28815
#
# Static dielectric constant tensor:
#      x y z
#    x 1.741870 0.000000 0.000000 
#    y 0.000000 1.738660 0.000000 
#    z 0.000000 0.000000 1.791600 
# 
# From -- ./inp_files/15583.got.cif
#   From: 2010.05.17/outbox.cif.g08.bks.cpg/sg52_8_cif.got.tgz:15583.got - 2010.06.03 12:15:38.
