data_PCOD9411279
_publ_section_title
;
Structure prediction by ZEFSAII (Michael W. Deem and Ramdas Pophale) SiO2 
 PCOD9411279
Probable space group: P N N A
;
_chemical_formula_sum "Si O2"
_cell_formula_units_Z 40
_cell_length_a 12.037780
_cell_length_b 24.345138
_cell_length_c 6.027697
_cell_angle_alpha 90.000000
_cell_angle_beta 90.000000
_cell_angle_gamma 90.000000
_cell_volume 1766.485414
_symmetry_space_group_name_H-M "P N N A"
_symmetry_group_IT_number 52
_symmetry_cell_setting 'orthorhombic'
loop_
_space_group_symop_operation_xyz
x,y,z
1/2-x,-y,z
x,1/2-y,1/2-z
1/2-x,1/2+y,1/2-z
-x,-y,-z
1/2+x,y,-z
-x,1/2+y,1/2+z
1/2+x,1/2-y,1/2+z
loop_
_atom_site_type_symbol
_atom_site_label
_atom_site_fract_x
_atom_site_fract_y
_atom_site_fract_z
Si Si1 0.262836 0.695877 0.637695
Si Si2 0.583777 0.145301 0.525662
Si Si3 0.914972 0.049181 0.537964
Si Si4 0.411039 0.750000 0.250000
Si Si5 0.249719 0.908600 0.116401
Si Si6 0.250000 0.500000 0.688839
O O1 0.207887 0.750000 0.750000
O O2 0.335146 0.723161 0.441240
O O3 0.203134 0.644117 0.519772
O O4 0.343906 0.667101 0.818407
O O5 0.486275 0.104057 0.473094
O O6 0.529706 0.198845 0.638805
O O7 0.667927 0.115323 0.696762
O O8 0.845372 0.056060 0.763073
O O9 0.827401 0.037010 0.344060
O O10 0.000000 0.000000 0.500000
O O11 0.309469 0.952943 0.957797
#
# Coordination Sequence:
#
# PCOD9411279 Si02
#       6
#     8   8   8   4   8   4
#     4   9  18  38  69  92 127 170 214 269 330 396
#     4  10  21  41  69  92 131 172 218 275 331 399
#     4  12  25  41  64  95 132 175 222 276 337 399
#     4   8  18  36  68  94 122 170 214 260 336 384
#     4  11  23  40  65  96 129 173 224 269 339 400
#     4  12  26  44  64  92 130 168 226 276 330 412
#
# _framework density 22.643833999999998
#
# number of rings (size 3 to 8) (size 9 to 14) (size 15 to 20)
#    0.000    1.600    0.000    5.400    0.000    6.400 
#    0.000    0.000   94.600    0.000    0.000    0.000 
#    0.000    0.000    0.000    0.000    0.000    0.000 
#
# Total GULP energy -223227.579939 kJ/mol
# GULP energy per Si atom -5580.689498 kJ/mol
# Density = 2.259230 g / cm^3
# Si number density = 22.643834 Si / 1000 Ang^3
#
#
#
# Elastic Constant Matrix: (Units=GPa)
#
#
# Indices 1 2 3 4 5 6 
#
# 1 51.1755 30.9012 25.9991 0.0000 0.0000 0.0000
# 2 30.9012 161.6730 59.2536 0.0000 0.0000 0.0000
# 3 25.9991 59.2536 109.9986 0.0000 0.0000 0.0000
# 4 0.0000 0.0000 0.0000 67.0834 0.0000 0.0000
# 5 0.0000 0.0000 0.0000 0.0000 -22.8370 0.0000
# 6 0.0000 0.0000 0.0000 0.0000 0.0000 42.4006
#
#
#
# Elastic Compliance Matrix: (Units=1/GPa)
#
#
# Indices 1 2 3 4 5 6 
#
# 1 0.023348 -0.003040 -0.003881 0.000000 0.000000 0.000000
# 2 -0.003040 0.008103 -0.003646 0.000000 0.000000 0.000000
# 3 -0.003881 -0.003646 0.011972 0.000000 0.000000 0.000000
# 4 0.000000 0.000000 0.000000 0.014907 0.000000 0.000000
# 5 0.000000 0.000000 0.000000 0.000000 -0.043789 0.000000
# 6 0.000000 0.000000 0.000000 0.000000 0.000000 0.023585
#
#
# Mechanical properties :
#
#
# Convention : Reuss Voigt Hill
#
# Bulk Modulus (GPa) = 44.86579 61.68388 53.27483
# Shear Modulus (GPa) = 74.97385 31.10895 53.04140
#
# Velocity S-wave (km/s) = 5.76038 3.71055 4.84511
# Velocity P-wave (km/s) = 8.00620 6.75704 7.40800
#
# Compressibility (1/GPa) = 0.02228870
#
# Stress axis : x y z
#
# Youngs Moduli (GPa) = 42.83025 123.41484 83.52565
#
# Poissons Ratio (x) = 0.37522 0.32414
# Poissons Ratio (y) = 0.13022 0.30455
# Poissons Ratio (z) = 0.16621 0.44999
#
# Static dielectric constant tensor:
#      x y z
#    x 1.841340 0.000000 0.000000 
#    y 0.000000 1.860690 0.000000 
#    z 0.000000 0.000000 1.867450 
# 
# From -- ./inp_files/2297.got.cif
#   From: 2010.05.17/outbox.cif.g08.bks.cpg/sg52_2_cif.got.tgz:2297.got - 2010.06.03 12:15:38.
