data_PCOD9411422
_publ_section_title
;
Structure prediction by ZEFSAII (Michael W. Deem and Ramdas Pophale) SiO2 
 PCOD9411422
Probable space group: P N N A
;
_chemical_formula_sum "Si O2"
_cell_formula_units_Z 48
_cell_length_a 5.468783
_cell_length_b 21.863739
_cell_length_c 17.554715
_cell_angle_alpha 90.000000
_cell_angle_beta 90.000000
_cell_angle_gamma 90.000000
_cell_volume 2098.982938
_symmetry_space_group_name_H-M "P N N A"
_symmetry_group_IT_number 52
_symmetry_cell_setting 'orthorhombic'
loop_
_space_group_symop_operation_xyz
x,y,z
1/2-x,-y,z
x,1/2-y,1/2-z
1/2-x,1/2+y,1/2-z
-x,-y,-z
1/2+x,y,-z
-x,1/2+y,1/2+z
1/2+x,1/2-y,1/2+z
loop_
_atom_site_type_symbol
_atom_site_label
_atom_site_fract_x
_atom_site_fract_y
_atom_site_fract_z
Si Si1 0.712096 0.693363 0.804718
Si Si2 0.943567 0.875374 0.040499
Si Si3 0.750000 0.500000 0.789755
Si Si4 0.460447 0.727135 0.957321
Si Si5 0.250000 0.000000 0.547490
Si Si6 0.567786 0.600760 0.153744
Si Si7 0.426202 0.591310 0.713395
O O1 0.771885 0.750000 0.750000
O O2 0.510926 0.707138 0.870024
O O3 0.609694 0.642517 0.746973
O O4 0.944290 0.666890 0.850895
O O5 0.950746 0.801171 0.042655
O O6 0.897693 0.899831 0.124766
O O7 0.211059 0.894370 0.010472
O O8 0.657687 0.446209 0.843179
O O9 0.539029 0.526583 0.736855
O O10 0.202939 0.707138 0.994859
O O11 0.253882 0.063465 0.597324
O O12 0.500000 0.000000 0.500000
O O13 0.685455 0.600625 0.237273
#
# Coordination Sequence:
#
# PCOD9411422 Si02
#       7
#     8   8   4   8   4   8   8
#     4  11  25  42  68 108 141 191 252 298 369 450
#     4  10  23  42  67  99 139 182 225 280 364 424
#     4  10  21  44  70  97 132 174 238 286 365 402
#     4  10  23  43  63  92 145 188 226 288 355 427
#     4  12  27  48  76 109 152 196 256 318 381 442
#     4  11  25  44  73 102 143 193 244 310 366 438
#     4  11  23  42  73  97 136 182 238 300 352 440
#
# _framework density 22.868219
#
# number of rings (size 3 to 8) (size 9 to 14) (size 15 to 20)
#    0.000    1.333    3.333    0.500    9.333    3.333 
#    0.000    0.833    0.000    0.000    0.000    0.000 
#    0.000    0.000    0.000    0.000    0.000    0.000 
#
# Total GULP energy -268152.405599 kJ/mol
# GULP energy per Si atom -5586.508450 kJ/mol
# Density = 2.281617 g / cm^3
# Si number density = 22.868219 Si / 1000 Ang^3
#
#
#
# Elastic Constant Matrix: (Units=GPa)
#
#
# Indices 1 2 3 4 5 6 
#
# 1 114.2956 14.7320 43.1832 0.0000 0.0000 0.0000
# 2 14.7320 59.8855 15.6531 0.0000 0.0000 0.0000
# 3 43.1832 15.6531 132.5350 0.0000 0.0000 0.0000
# 4 0.0000 0.0000 0.0000 13.0093 0.0000 0.0000
# 5 0.0000 0.0000 0.0000 0.0000 1.4614 0.0000
# 6 0.0000 0.0000 0.0000 0.0000 0.0000 -29.1250
#
#
#
# Elastic Compliance Matrix: (Units=1/GPa)
#
#
# Indices 1 2 3 4 5 6 
#
# 1 0.010139 -0.001683 -0.003105 0.000000 0.000000 0.000000
# 2 -0.001683 0.017510 -0.001520 0.000000 0.000000 0.000000
# 3 -0.003105 -0.001520 0.008736 0.000000 0.000000 0.000000
# 4 0.000000 0.000000 0.000000 0.076868 0.000000 0.000000
# 5 0.000000 0.000000 0.000000 0.000000 0.684255 0.000000
# 6 0.000000 0.000000 0.000000 0.000000 0.000000 -0.034335
#
#
# Mechanical properties :
#
#
# Convention : Reuss Voigt Hill
#
# Bulk Modulus (GPa) = 42.06871 50.42806 46.24839
# Shear Modulus (GPa) = 6.37990 12.61233 9.49612
#
# Velocity S-wave (km/s) = 1.67210 2.35100 2.03999
# Velocity P-wave (km/s) = 4.70786 5.42854 5.08100
#
# Compressibility (1/GPa) = 0.02377063
#
# Stress axis : x y z
#
# Youngs Moduli (GPa) = 98.62692 57.11117 114.46487
#
# Poissons Ratio (x) = 0.09610 0.35540
# Poissons Ratio (y) = 0.16596 0.17395
# Poissons Ratio (z) = 0.30622 0.08679
#
# Static dielectric constant tensor:
#      x y z
#    x 1.909690 0.000000 0.000000 
#    y 0.000000 1.992220 0.000000 
#    z 0.000000 0.000000 1.829590 
# 
# From -- ./inp_files/23723.got.cif
#   From: 2010.05.17/outbox.cif.g08.bks.cpg/sg52_12_cif.got.tgz:23723.got - 2010.06.03 12:15:38.
