data_PCOD9412270
_publ_section_title
;
Structure prediction by ZEFSAII (Michael W. Deem and Ramdas Pophale) SiO2 
 PCOD9412270
Probable space group: P N N A
;
_chemical_formula_sum "Si O2"
_cell_formula_units_Z 52
_cell_length_a 10.871886
_cell_length_b 7.994664
_cell_length_c 26.461811
_cell_angle_alpha 90.000000
_cell_angle_beta 90.000000
_cell_angle_gamma 90.000000
_cell_volume 2299.983228
_symmetry_space_group_name_H-M "P N N A"
_symmetry_group_IT_number 52
_symmetry_cell_setting 'orthorhombic'
loop_
_space_group_symop_operation_xyz
x,y,z
1/2-x,-y,z
x,1/2-y,1/2-z
1/2-x,1/2+y,1/2-z
-x,-y,-z
1/2+x,y,-z
-x,1/2+y,1/2+z
1/2+x,1/2-y,1/2+z
loop_
_atom_site_type_symbol
_atom_site_label
_atom_site_fract_x
_atom_site_fract_y
_atom_site_fract_z
Si Si1 0.750000 0.500000 0.169499
Si Si2 0.391213 0.000384 0.844026
Si Si3 0.750000 0.000000 0.497255
Si Si4 0.839823 0.852556 0.848279
Si Si5 0.506241 0.134306 0.317746
Si Si6 0.577216 0.437424 0.915289
Si Si7 0.825887 0.254201 0.080907
Si Si8 0.694508 0.750000 0.750000
O O1 0.626596 0.466117 0.199619
O O2 0.775563 0.343138 0.132256
O O3 0.515485 0.112583 0.835913
O O4 0.361086 0.066504 0.901731
O O5 0.250000 0.000000 0.821491
O O6 0.448784 0.821679 0.829656
O O7 0.637774 0.984158 0.535947
O O8 0.739481 0.167477 0.462589
O O9 0.837314 0.700315 0.887779
O O10 0.776189 0.809709 0.795683
O O11 0.750000 0.000000 0.868677
O O12 0.400149 0.121824 0.276450
O O13 0.460130 0.062758 0.370787
O O14 0.454030 0.342918 0.931178
#
# Coordination Sequence:
#
# PCOD9412270 Si02
#       8
#     4   8   4   8   8   8   8   4
#     4   9  18  40  62  92 132 182 232 264 342 409
#     4  11  22  44  70  95 134 185 229 282 345 413
#     4  11  20  38  68 102 134 178 232 284 344 415
#     4  11  25  45  69  98 140 180 229 286 356 418
#     4  11  23  41  70  99 135 184 235 278 356 418
#     4  10  23  40  67  95 134 182 224 281 347 420
#     4   9  20  38  64  92 131 175 227 283 330 407
#     4  12  26  44  68 106 136 174 230 296 346 422
#
# _framework density 22.608858999999999
#
# number of rings (size 3 to 8) (size 9 to 14) (size 15 to 20)
#    0.000    1.538    3.077    1.385    2.154    0.000 
#    1.385    2.308    0.000    0.000    0.000    0.000 
#    0.000    0.000    0.000    0.000    0.000    0.000 
#
# Total GULP energy -289635.160903 kJ/mol
# GULP energy per Si atom -5569.906940 kJ/mol
# Density = 2.255740 g / cm^3
# Si number density = 22.608859 Si / 1000 Ang^3
#
#
#
# Elastic Constant Matrix: (Units=GPa)
#
#
# Indices 1 2 3 4 5 6 
#
# 1 152.8019 4.3452 43.2443 0.0000 0.0000 0.0000
# 2 4.3452 39.1124 28.0981 0.0000 0.0000 0.0000
# 3 43.2443 28.0981 83.2803 0.0000 0.0000 0.0000
# 4 0.0000 0.0000 0.0000 21.7684 0.0000 0.0000
# 5 0.0000 0.0000 0.0000 0.0000 24.3328 0.0000
# 6 0.0000 0.0000 0.0000 0.0000 0.0000 41.9747
#
#
#
# Elastic Compliance Matrix: (Units=1/GPa)
#
#
# Indices 1 2 3 4 5 6 
#
# 1 0.007886 0.002727 -0.005015 0.000000 0.000000 0.000000
# 2 0.002727 0.034690 -0.013120 0.000000 0.000000 0.000000
# 3 -0.005015 -0.013120 0.019038 0.000000 0.000000 0.000000
# 4 0.000000 0.000000 0.000000 0.045938 0.000000 0.000000
# 5 0.000000 0.000000 0.000000 0.000000 0.041097 0.000000
# 6 0.000000 0.000000 0.000000 0.000000 0.000000 0.023824
#
#
# Mechanical properties :
#
#
# Convention : Reuss Voigt Hill
#
# Bulk Modulus (GPa) = 32.46993 47.39663 39.93328
# Shear Modulus (GPa) = 23.41318 30.91565 27.16442
#
# Velocity S-wave (km/s) = 3.22153 3.70187 3.47002
# Velocity P-wave (km/s) = 5.31323 6.26746 5.80997
#
# Compressibility (1/GPa) = 0.03079772
#
# Stress axis : x y z
#
# Youngs Moduli (GPa) = 126.80467 28.82705 52.52602
#
# Poissons Ratio (x) = -0.07860 0.26341
# Poissons Ratio (y) = -0.34574 0.68913
# Poissons Ratio (z) = 0.63591 0.37820
#
# Static dielectric constant tensor:
#      x y z
#    x 1.910160 0.000000 0.000000 
#    y 0.000000 2.031410 0.000000 
#    z 0.000000 0.000000 1.808580 
# 
# From -- ./inp_files/42758.got.cif
#   From: 2010.05.17/outbox.cif.g08.bks.cpg/sg52_22_cif.got.tgz:42758.got - 2010.06.03 12:15:38.
