data_PCOD9412013
_publ_section_title
;
Structure prediction by ZEFSAII (Michael W. Deem and Ramdas Pophale) SiO2 
 PCOD9412013
Probable space group: P N N A
;
_chemical_formula_sum "Si O2"
_cell_formula_units_Z 24
_cell_length_a 26.879767
_cell_length_b 4.712651
_cell_length_c 7.532566
_cell_angle_alpha 90.000000
_cell_angle_beta 90.000000
_cell_angle_gamma 90.000000
_cell_volume 954.187503
_symmetry_space_group_name_H-M "P N N A"
_symmetry_group_IT_number 52
_symmetry_cell_setting 'orthorhombic'
loop_
_space_group_symop_operation_xyz
x,y,z
1/2-x,-y,z
x,1/2-y,1/2-z
1/2-x,1/2+y,1/2-z
-x,-y,-z
1/2+x,y,-z
-x,1/2+y,1/2+z
1/2+x,1/2-y,1/2+z
loop_
_atom_site_type_symbol
_atom_site_label
_atom_site_fract_x
_atom_site_fract_y
_atom_site_fract_z
Si Si1 0.927537 0.250000 0.750000
Si Si2 0.750000 0.000000 0.612214
Si Si3 0.355783 0.875042 0.447459
Si Si4 0.501627 0.750000 0.250000
Si Si5 0.923414 0.750000 0.250000
O O1 0.891664 0.362124 0.903348
O O2 0.961796 0.512531 0.678955
O O3 0.763153 0.250000 0.750000
O O4 0.700572 0.057838 0.499215
O O5 0.350104 0.750000 0.250000
O O6 0.385654 0.692192 0.589467
O O7 0.540743 0.507999 0.185978
#
# Coordination Sequence:
#
# PCOD9412013 Si02
#       5
#     4   4   8   4   4
#     4  11  22  44  73  98 141 186 232 277 358 406
#     4  10  22  42  74 100 130 178 230 280 352 418
#     4  11  25  47  72 103 137 185 228 295 344 423
#     4  10  26  44  68 104 138 188 232 284 338 424
#     4  11  28  44  69 102 145 176 236 285 344 408
#
# _framework density 25.152291999999999
#
# number of rings (size 3 to 8) (size 9 to 14) (size 15 to 20)
#    0.000    1.333    3.333    0.000    4.667    8.000 
#    0.000    8.333    0.000    0.000    0.000    0.000 
#    0.000    0.000    0.000    0.000    0.000    0.000 
#
# Total GULP energy -133609.506124 kJ/mol
# GULP energy per Si atom -5567.062755 kJ/mol
# Density = 2.509504 g / cm^3
# Si number density = 25.152292 Si / 1000 Ang^3
#
#
#
# Elastic Constant Matrix: (Units=GPa)
#
#
# Indices 1 2 3 4 5 6 
#
# 1 250.1383 41.9019 54.3542 0.0000 0.0000 0.0000
# 2 41.9019 138.2992 8.1139 0.0000 0.0000 0.0000
# 3 54.3542 8.1139 57.5544 0.0000 0.0000 0.0000
# 4 0.0000 0.0000 0.0000 13.9310 0.0000 0.0000
# 5 0.0000 0.0000 0.0000 0.0000 -31.7268 0.0000
# 6 0.0000 0.0000 0.0000 0.0000 0.0000 105.7904
#
#
#
# Elastic Compliance Matrix: (Units=1/GPa)
#
#
# Indices 1 2 3 4 5 6 
#
# 1 0.005256 -0.001312 -0.004779 0.000000 0.000000 0.000000
# 2 -0.001312 0.007619 0.000165 0.000000 0.000000 0.000000
# 3 -0.004779 0.000165 0.021865 0.000000 0.000000 0.000000
# 4 0.000000 0.000000 0.000000 0.071782 0.000000 0.000000
# 5 0.000000 0.000000 0.000000 0.000000 -0.031519 0.000000
# 6 0.000000 0.000000 0.000000 0.000000 0.000000 0.009453
#
#
# Mechanical properties :
#
#
# Convention : Reuss Voigt Hill
#
# Bulk Modulus (GPa) = 43.69170 72.74800 58.21985
# Shear Modulus (GPa) = 48.10667 40.37371 44.24019
#
# Velocity S-wave (km/s) = 4.37809 4.01080 4.19847
# Velocity P-wave (km/s) = 6.55481 7.10173 6.83374
#
# Compressibility (1/GPa) = 0.02288764
#
# Stress axis : x y z
#
# Youngs Moduli (GPa) = 190.25900 131.25849 45.73596
#
# Poissons Ratio (x) = 0.17222 0.21856
# Poissons Ratio (y) = 0.24964 -0.00755
# Poissons Ratio (z) = 0.90920 -0.02167
#
# Static dielectric constant tensor:
#      x y z
#    x 2.023150 0.000000 0.000000 
#    y 0.000000 1.891890 0.000000 
#    z 0.000000 0.000000 2.305410 
# 
# From -- ./inp_files/13819.got.cif
#   From: 2010.05.17/outbox.cif.g08.bks.cpg/sg52_7_cif.got.tgz:13819.got - 2010.06.03 12:15:38.
