data_PCOD9412672
_publ_section_title
;
Structure prediction by ZEFSAII (Michael W. Deem and Ramdas Pophale) SiO2 
 PCOD9412672
Probable space group: P N N A
;
_chemical_formula_sum "Si O2"
_cell_formula_units_Z 44
_cell_length_a 33.125781
_cell_length_b 8.310192
_cell_length_c 7.463465
_cell_angle_alpha 90.000000
_cell_angle_beta 90.000000
_cell_angle_gamma 90.000000
_cell_volume 2054.554589
_symmetry_space_group_name_H-M "P N N A"
_symmetry_group_IT_number 52
_symmetry_cell_setting 'orthorhombic'
loop_
_space_group_symop_operation_xyz
x,y,z
1/2-x,-y,z
x,1/2-y,1/2-z
1/2-x,1/2+y,1/2-z
-x,-y,-z
1/2+x,y,-z
-x,1/2+y,1/2+z
1/2+x,1/2-y,1/2+z
loop_
_atom_site_type_symbol
_atom_site_label
_atom_site_fract_x
_atom_site_fract_y
_atom_site_fract_z
Si Si1 0.323569 0.750000 0.750000
Si Si2 0.285161 0.622647 0.387869
Si Si3 0.375236 0.439234 0.727839
Si Si4 0.049024 0.562960 0.289821
Si Si5 0.534986 0.563641 0.284694
Si Si6 0.135619 0.938524 0.197249
O O1 0.299296 0.702962 0.572454
O O2 0.348753 0.587559 0.797462
O O3 0.250000 0.500000 0.433054
O O4 0.267640 0.750000 0.250000
O O5 0.323384 0.539645 0.285454
O O6 0.363957 0.250000 0.750000
O O7 0.420876 0.467245 0.796762
O O8 0.372809 0.450531 0.514035
O O9 0.054319 0.750000 0.250000
O O10 0.041981 0.532300 0.502646
O O11 0.092625 0.494689 0.226359
O O12 0.005237 0.519447 0.211972
O O13 0.527358 0.750000 0.250000
O O14 0.141434 0.750000 0.250000
#
# Coordination Sequence:
#
# PCOD9412672 Si02
#       6
#     4   8   8   8   8   8
#     4  10  24  44  66 100 130 168 214 258 324 390
#     4  11  25  45  67  99 127 164 212 263 328 394
#     4   9  19  36  60  89 121 166 209 257 314 370
#     4   9  18  32  51  77 115 156 196 253 301 357
#     4   9  18  32  50  79 116 154 204 248 298 362
#     4   9  19  37  59  85 119 160 205 257 320 377
#
# _framework density 21.415835000000001
#
# number of rings (size 3 to 8) (size 9 to 14) (size 15 to 20)
#    0.000    2.545    0.000    0.545    3.818    2.182 
#    6.545    0.000    0.000    0.000    0.000    0.000 
#    0.000    0.000    0.000    0.000    0.000    0.000 
#
# Total GULP energy -244961.442393 kJ/mol
# GULP energy per Si atom -5567.305509 kJ/mol
# Density = 2.136709 g / cm^3
# Si number density = 21.415835 Si / 1000 Ang^3
#
#
#
# Elastic Constant Matrix: (Units=GPa)
#
#
# Indices 1 2 3 4 5 6 
#
# 1 104.9979 76.6580 29.5902 0.0000 0.0000 0.0000
# 2 76.6580 91.8538 29.7535 0.0000 0.0000 0.0000
# 3 29.5902 29.7535 53.7641 0.0000 0.0000 0.0000
# 4 0.0000 0.0000 0.0000 32.1421 0.0000 0.0000
# 5 0.0000 0.0000 0.0000 0.0000 -55.6935 0.0000
# 6 0.0000 0.0000 0.0000 0.0000 0.0000 183.3816
#
#
#
# Elastic Compliance Matrix: (Units=1/GPa)
#
#
# Indices 1 2 3 4 5 6 
#
# 1 0.024686 -0.019740 -0.002662 0.000000 0.000000 0.000000
# 2 -0.019740 0.029049 -0.005212 0.000000 0.000000 0.000000
# 3 -0.002662 -0.005212 0.022949 0.000000 0.000000 0.000000
# 4 0.000000 0.000000 0.000000 0.031112 0.000000 0.000000
# 5 0.000000 0.000000 0.000000 0.000000 -0.017955 0.000000
# 6 0.000000 0.000000 0.000000 0.000000 0.000000 0.005453
#
#
# Mechanical properties :
#
#
# Convention : Reuss Voigt Hill
#
# Bulk Modulus (GPa) = 46.60559 58.06878 52.33718
# Shear Modulus (GPa) = 31.71089 39.60700 35.65894
#
# Velocity S-wave (km/s) = 3.85219 4.30516 4.08496
# Velocity P-wave (km/s) = 6.44944 7.20321 6.83672
#
# Compressibility (1/GPa) = 0.02145665
#
# Stress axis : x y z
#
# Youngs Moduli (GPa) = 40.50855 34.42430 43.57425
#
# Poissons Ratio (x) = 0.67953 0.11601
# Poissons Ratio (y) = 0.79963 0.22710
# Poissons Ratio (z) = 0.10785 0.17941
#
# Static dielectric constant tensor:
#      x y z
#    x 1.899380 0.000000 0.000000 
#    y 0.000000 2.172720 0.000000 
#    z 0.000000 0.000000 1.801650 
# 
# From -- ./inp_files/15401.got.cif
#   From: 2010.05.17/outbox.cif.g08.bks.cpg/sg52_8_cif.got.tgz:15401.got - 2010.06.03 12:15:38.
