data_PCOD9412774
_publ_section_title
;
Structure prediction by ZEFSAII (Michael W. Deem and Ramdas Pophale) SiO2 
 PCOD9412774
Probable space group: P N N A
;
_chemical_formula_sum "Si O2"
_cell_formula_units_Z 28
_cell_length_a 4.916158
_cell_length_b 15.646534
_cell_length_c 13.962241
_cell_angle_alpha 90.000000
_cell_angle_beta 90.000000
_cell_angle_gamma 90.000000
_cell_volume 1073.987212
_symmetry_space_group_name_H-M "P N N A"
_symmetry_group_IT_number 52
_symmetry_cell_setting 'orthorhombic'
loop_
_space_group_symop_operation_xyz
x,y,z
1/2-x,-y,z
x,1/2-y,1/2-z
1/2-x,1/2+y,1/2-z
-x,-y,-z
1/2+x,y,-z
-x,1/2+y,1/2+z
1/2+x,1/2-y,1/2+z
loop_
_atom_site_type_symbol
_atom_site_label
_atom_site_fract_x
_atom_site_fract_y
_atom_site_fract_z
Si Si1 0.250000 0.000000 0.654758
Si Si2 0.565210 0.340129 0.759971
Si Si3 0.046558 0.643179 0.063407
Si Si4 0.792761 0.102059 0.940145
O O1 0.481827 0.955426 0.591475
O O2 0.119376 0.922246 0.714503
O O3 0.410793 0.250000 0.750000
O O4 0.794308 0.327550 0.842048
O O5 0.707826 0.360016 0.660000
O O6 0.248030 0.666592 0.976008
O O7 0.750000 0.000000 0.931049
O O8 0.592576 0.126404 0.026995
#
# Coordination Sequence:
#
# PCOD9412774 Si02
#       4
#     4   8   8   8
#     4  12  26  50  82 116 168 210 268 330 404 484
#     4  12  30  49  78 118 167 210 273 333 405 475
#     4  12  26  49  82 116 155 205 260 327 408 483
#     4  10  24  47  77 105 143 202 263 322 386 460
#
# _framework density 26.071072999999998
#
# number of rings (size 3 to 8) (size 9 to 14) (size 15 to 20)
#    0.000    0.571    2.857    3.429   10.000    3.429 
#    0.000    0.000    0.000    0.000    0.000    0.000 
#    0.000    0.000    0.000    0.000    0.000    0.000 
#
# Total GULP energy -156728.041547 kJ/mol
# GULP energy per Si atom -5597.430055 kJ/mol
# Density = 2.601173 g / cm^3
# Si number density = 26.071073 Si / 1000 Ang^3
#
#
#
# Elastic Constant Matrix: (Units=GPa)
#
#
# Indices 1 2 3 4 5 6 
#
# 1 100.7412 48.1733 3.7458 0.0000 0.0000 0.0000
# 2 48.1733 155.2800 49.2018 0.0000 0.0000 0.0000
# 3 3.7458 49.2018 135.0094 0.0000 0.0000 0.0000
# 4 0.0000 0.0000 0.0000 -19.1390 0.0000 0.0000
# 5 0.0000 0.0000 0.0000 0.0000 21.5960 0.0000
# 6 0.0000 0.0000 0.0000 0.0000 0.0000 13.8256
#
#
#
# Elastic Compliance Matrix: (Units=1/GPa)
#
#
# Indices 1 2 3 4 5 6 
#
# 1 0.011808 -0.004024 0.001139 0.000000 0.000000 0.000000
# 2 -0.004024 0.008652 -0.003041 0.000000 0.000000 0.000000
# 3 0.001139 -0.003041 0.008484 0.000000 0.000000 0.000000
# 4 0.000000 0.000000 0.000000 -0.052249 0.000000 0.000000
# 5 0.000000 0.000000 0.000000 0.000000 0.046305 0.000000
# 6 0.000000 0.000000 0.000000 0.000000 0.000000 0.072330
#
#
# Mechanical properties :
#
#
# Convention : Reuss Voigt Hill
#
# Bulk Modulus (GPa) = 58.51134 65.91918 62.21526
# Shear Modulus (GPa) = 44.29478 22.58382 33.43930
#
# Velocity S-wave (km/s) = 4.12637 2.94639 3.58525
# Velocity P-wave (km/s) = 6.72267 6.07571 6.40736
#
# Compressibility (1/GPa) = 0.01709071
#
# Stress axis : x y z
#
# Youngs Moduli (GPa) = 84.68513 115.57786 117.87301
#
# Poissons Ratio (x) = 0.46512 -0.13425
# Poissons Ratio (y) = 0.34080 0.35851
# Poissons Ratio (z) = -0.09645 0.35153
#
# Static dielectric constant tensor:
#      x y z
#    x 2.038930 0.000000 0.000000 
#    y 0.000000 2.113520 0.000000 
#    z 0.000000 0.000000 2.000270 
# 
# From -- ./inp_files/23430.got.cif
#   From: 2010.05.17/outbox.cif.g08.bks.cpg/sg52_12_cif.got.tgz:23430.got - 2010.06.03 12:15:38.
