data_PCOD9412505
_publ_section_title
;
Structure prediction by ZEFSAII (Michael W. Deem and Ramdas Pophale) SiO2 
 PCOD9412505
Probable space group: P N N A
;
_chemical_formula_sum "Si O2"
_cell_formula_units_Z 24
_cell_length_a 8.372848
_cell_length_b 9.241709
_cell_length_c 12.468040
_cell_angle_alpha 90.000000
_cell_angle_beta 90.000000
_cell_angle_gamma 90.000000
_cell_volume 964.769763
_symmetry_space_group_name_H-M "P N N A"
_symmetry_group_IT_number 52
_symmetry_cell_setting 'orthorhombic'
loop_
_space_group_symop_operation_xyz
x,y,z
1/2-x,-y,z
x,1/2-y,1/2-z
1/2-x,1/2+y,1/2-z
-x,-y,-z
1/2+x,y,-z
-x,1/2+y,1/2+z
1/2+x,1/2-y,1/2+z
loop_
_atom_site_type_symbol
_atom_site_label
_atom_site_fract_x
_atom_site_fract_y
_atom_site_fract_z
Si Si1 0.744024 0.750000 0.750000
Si Si2 0.299915 0.837012 0.644616
Si Si3 0.037956 0.245054 0.441544
Si Si4 0.250000 0.000000 0.111043
O O1 0.860468 0.818264 0.658650
O O2 0.663756 0.881521 0.812633
O O3 0.342995 0.750000 0.750000
O O4 0.433128 0.836267 0.552421
O O5 0.145004 0.759669 0.591504
O O6 0.250000 0.000000 0.670899
O O7 0.119688 0.403755 0.449312
#
# Coordination Sequence:
#
# PCOD9412505 Si02
#       4
#     4   8   8   4
#     4   8  18  40  68 106 142 196 242 302 368 442
#     4  12  27  50  74 110 154 198 256 321 375 461
#     4  10  23  46  74 104 156 190 256 306 382 448
#     4   8  18  38  72 102 152 192 248 302 366 458
#
# _framework density 24.876401000000001
#
# number of rings (size 3 to 8) (size 9 to 14) (size 15 to 20)
#    2.000    0.000    1.667    1.000    4.667    1.333 
#   15.000    0.000    0.000    0.000    0.000    0.000 
#    0.000    0.000    0.000    0.000    0.000    0.000 
#
# Total GULP energy -134082.688149 kJ/mol
# GULP energy per Si atom -5586.778673 kJ/mol
# Density = 2.481978 g / cm^3
# Si number density = 24.876401 Si / 1000 Ang^3
#
#
#
# Elastic Constant Matrix: (Units=GPa)
#
#
# Indices 1 2 3 4 5 6 
#
# 1 76.6725 23.9647 13.9986 0.0000 0.0000 0.0000
# 2 23.9647 109.1462 34.5615 0.0000 0.0000 0.0000
# 3 13.9986 34.5615 147.3455 0.0000 0.0000 0.0000
# 4 0.0000 0.0000 0.0000 -36.9878 0.0000 0.0000
# 5 0.0000 0.0000 0.0000 0.0000 13.7965 0.0000
# 6 0.0000 0.0000 0.0000 0.0000 0.0000 8.2074
#
#
#
# Elastic Compliance Matrix: (Units=1/GPa)
#
#
# Indices 1 2 3 4 5 6 
#
# 1 0.014063 -0.002878 -0.000661 0.000000 0.000000 0.000000
# 2 -0.002878 0.010486 -0.002186 0.000000 0.000000 0.000000
# 3 -0.000661 -0.002186 0.007362 0.000000 0.000000 0.000000
# 4 0.000000 0.000000 0.000000 -0.027036 0.000000 0.000000
# 5 0.000000 0.000000 0.000000 0.000000 0.072482 0.000000
# 6 0.000000 0.000000 0.000000 0.000000 0.000000 0.121842
#
#
# Mechanical properties :
#
#
# Convention : Reuss Voigt Hill
#
# Bulk Modulus (GPa) = 48.87478 53.13484 51.00481
# Shear Modulus (GPa) = 22.99161 14.37917 18.68539
#
# Velocity S-wave (km/s) = 3.04342 2.40682 2.74365
# Velocity P-wave (km/s) = 5.66035 5.39719 5.53033
#
# Compressibility (1/GPa) = 0.02046045
#
# Stress axis : x y z
#
# Youngs Moduli (GPa) = 71.10943 95.36257 135.82608
#
# Poissons Ratio (x) = 0.27450 0.08976
# Poissons Ratio (y) = 0.20468 0.29694
# Poissons Ratio (z) = 0.04699 0.20848
#
# Static dielectric constant tensor:
#      x y z
#    x 1.989330 0.000000 0.000000 
#    y 0.000000 1.968760 0.000000 
#    z 0.000000 0.000000 1.932250 
# 
# From -- ./inp_files/16287.got.cif
#   From: 2010.05.17/outbox.cif.g08.bks.cpg/sg52_9_cif.got.tgz:16287.got - 2010.06.03 12:15:38.
