data_PCOD9412660
_publ_section_title
;
Structure prediction by ZEFSAII (Michael W. Deem and Ramdas Pophale) SiO2 
 PCOD9412660
Probable space group: P N N A
;
_chemical_formula_sum "Si O2"
_cell_formula_units_Z 48
_cell_length_a 30.569066
_cell_length_b 9.069174
_cell_length_c 7.629361
_cell_angle_alpha 90.000000
_cell_angle_beta 90.000000
_cell_angle_gamma 90.000000
_cell_volume 2115.134889
_symmetry_space_group_name_H-M "P N N A"
_symmetry_group_IT_number 52
_symmetry_cell_setting 'orthorhombic'
loop_
_space_group_symop_operation_xyz
x,y,z
1/2-x,-y,z
x,1/2-y,1/2-z
1/2-x,1/2+y,1/2-z
-x,-y,-z
1/2+x,y,-z
-x,1/2+y,1/2+z
1/2+x,1/2-y,1/2+z
loop_
_atom_site_type_symbol
_atom_site_label
_atom_site_fract_x
_atom_site_fract_y
_atom_site_fract_z
Si Si1 0.795773 0.587158 0.506211
Si Si2 0.437007 0.811899 0.006194
Si Si3 0.144201 0.250000 0.250000
Si Si4 0.736736 0.664359 0.931903
Si Si5 0.067830 0.010911 0.663759
Si Si6 0.158260 0.593568 0.807706
Si Si7 0.009608 0.750000 0.750000
O O1 0.750000 0.500000 0.520161
O O2 0.823427 0.616906 0.685488
O O3 0.777079 0.751984 0.471956
O O4 0.822493 0.504728 0.352813
O O5 0.429858 0.941195 0.867908
O O6 0.451991 0.656353 0.923103
O O7 0.390967 0.768283 0.093701
O O8 0.475620 0.849659 0.139543
O O9 0.750000 0.500000 0.892744
O O10 0.726664 0.750000 0.750000
O O11 0.696461 0.646698 0.063264
O O12 0.117953 0.990115 0.604013
O O13 0.040161 0.863112 0.644760
O O14 0.138168 0.750000 0.750000
#
# Coordination Sequence:
#
# PCOD9412660 Si02
#       7
#     8   8   4   8   8   8   4
#     4  12  25  45  71 101 142 196 248 299 363 422
#     4  10  24  43  71 100 137 179 231 282 364 440
#     4  11  24  44  70 100 138 190 240 292 352 431
#     4  12  29  45  71 102 143 198 250 309 355 430
#     4  11  23  43  70 102 139 176 227 294 355 441
#     4  12  26  45  71 104 146 188 243 301 367 424
#     4  11  22  44  72 102 132 178 222 290 358 437
#
# _framework density 22.693588999999999
#
# number of rings (size 3 to 8) (size 9 to 14) (size 15 to 20)
#    0.000    0.667    5.000    2.000    2.333    0.000 
#    0.000    0.000    3.667    0.000    0.000    0.000 
#    0.000    0.000    0.000    0.000    0.000    0.000 
#
# Total GULP energy -267627.080716 kJ/mol
# GULP energy per Si atom -5575.564182 kJ/mol
# Density = 2.264194 g / cm^3
# Si number density = 22.693589 Si / 1000 Ang^3
#
#
#
# Elastic Constant Matrix: (Units=GPa)
#
#
# Indices 1 2 3 4 5 6 
#
# 1 120.3016 21.2472 17.0618 0.0000 0.0000 0.0000
# 2 21.2472 96.0236 4.1515 0.0000 0.0000 0.0000
# 3 17.0618 4.1515 47.7176 0.0000 0.0000 0.0000
# 4 0.0000 0.0000 0.0000 32.9257 0.0000 0.0000
# 5 0.0000 0.0000 0.0000 0.0000 20.6322 0.0000
# 6 0.0000 0.0000 0.0000 0.0000 0.0000 35.4039
#
#
#
# Elastic Compliance Matrix: (Units=1/GPa)
#
#
# Indices 1 2 3 4 5 6 
#
# 1 0.009081 -0.001876 -0.003084 0.000000 0.000000 0.000000
# 2 -0.001876 0.010841 -0.000272 0.000000 0.000000 0.000000
# 3 -0.003084 -0.000272 0.022083 0.000000 0.000000 0.000000
# 4 0.000000 0.000000 0.000000 0.030371 0.000000 0.000000
# 5 0.000000 0.000000 0.000000 0.000000 0.048468 0.000000
# 6 0.000000 0.000000 0.000000 0.000000 0.000000 0.028245
#
#
# Mechanical properties :
#
#
# Convention : Reuss Voigt Hill
#
# Bulk Modulus (GPa) = 31.70518 38.77375 35.23946
# Shear Modulus (GPa) = 29.40000 32.56452 30.98226
#
# Velocity S-wave (km/s) = 3.60324 3.79220 3.69893
# Velocity P-wave (km/s) = 5.59575 6.02472 5.81419
#
# Compressibility (1/GPa) = 0.03154059
#
# Stress axis : x y z
#
# Youngs Moduli (GPa) = 110.11823 92.24242 45.28377
#
# Poissons Ratio (x) = 0.17305 0.13965
# Poissons Ratio (y) = 0.20659 0.01233
# Poissons Ratio (z) = 0.33958 0.02513
#
# Static dielectric constant tensor:
#      x y z
#    x 1.860370 0.000000 0.000000 
#    y 0.000000 1.898390 0.000000 
#    z 0.000000 0.000000 1.945970 
# 
# From -- ./inp_files/15597.got.cif
#   From: 2010.05.17/outbox.cif.g08.bks.cpg/sg52_8_cif.got.tgz:15597.got - 2010.06.03 12:15:38.
