data_PCOD9412843
_publ_section_title
;
Structure prediction by ZEFSAII (Michael W. Deem and Ramdas Pophale) SiO2 
 PCOD9412843
Probable space group: P N N A
;
_chemical_formula_sum "Si O2"
_cell_formula_units_Z 32
_cell_length_a 10.457203
_cell_length_b 8.487245
_cell_length_c 13.460416
_cell_angle_alpha 90.000000
_cell_angle_beta 90.000000
_cell_angle_gamma 90.000000
_cell_volume 1194.650200
_symmetry_space_group_name_H-M "P N N A"
_symmetry_group_IT_number 52
_symmetry_cell_setting 'orthorhombic'
loop_
_space_group_symop_operation_xyz
x,y,z
1/2-x,-y,z
x,1/2-y,1/2-z
1/2-x,1/2+y,1/2-z
-x,-y,-z
1/2+x,y,-z
-x,1/2+y,1/2+z
1/2+x,1/2-y,1/2+z
loop_
_atom_site_type_symbol
_atom_site_label
_atom_site_fract_x
_atom_site_fract_y
_atom_site_fract_z
Si Si1 0.374309 0.726536 0.864922
Si Si2 0.491312 0.390827 0.817274
Si Si3 0.375836 0.083036 0.146839
Si Si4 0.781384 0.819579 0.560597
O O1 0.342110 0.750000 0.750000
O O2 0.417553 0.541108 0.863486
O O3 0.483745 0.858372 0.889202
O O4 0.268215 0.746158 0.949136
O O5 0.431795 0.250000 0.750000
O O6 0.590363 0.474630 0.740106
O O7 0.572294 0.307351 0.903913
O O8 0.310793 0.253784 0.144787
O O9 0.250000 0.000000 0.096428
O O10 0.750000 0.000000 0.552835
#
# Coordination Sequence:
#
# PCOD9412843 Si02
#       4
#     8   8   8   8
#     4  10  25  46  64  98 139 179 230 280 336 415
#     4  11  22  39  68 101 132 162 223 285 345 391
#     4  11  23  38  66  98 135 169 221 286 334 396
#     4  12  24  40  72  96 136 179 223 277 348 405
#
# _framework density 26.786086000000001
#
# number of rings (size 3 to 8) (size 9 to 14) (size 15 to 20)
#    0.000    1.000    5.000    1.500    7.000    1.000 
#    0.000    2.500    0.000    0.000    0.000    0.000 
#    0.000    0.000    0.000    0.000    0.000    0.000 
#
# Total GULP energy -178248.903774 kJ/mol
# GULP energy per Si atom -5570.278243 kJ/mol
# Density = 2.672512 g / cm^3
# Si number density = 26.786086 Si / 1000 Ang^3
#
#
#
# Elastic Constant Matrix: (Units=GPa)
#
#
# Indices 1 2 3 4 5 6 
#
# 1 69.3152 12.1936 9.8997 0.0000 0.0000 0.0000
# 2 12.1936 80.5426 28.0399 0.0000 0.0000 0.0000
# 3 9.8997 28.0399 119.5634 0.0000 0.0000 0.0000
# 4 0.0000 0.0000 0.0000 49.5737 0.0000 0.0000
# 5 0.0000 0.0000 0.0000 0.0000 302.7838 0.0000
# 6 0.0000 0.0000 0.0000 0.0000 0.0000 1.3462
#
#
#
# Elastic Compliance Matrix: (Units=1/GPa)
#
#
# Indices 1 2 3 4 5 6 
#
# 1 0.014886 -0.001987 -0.000767 0.000000 0.000000 0.000000
# 2 -0.001987 0.013785 -0.003068 0.000000 0.000000 0.000000
# 3 -0.000767 -0.003068 0.009147 0.000000 0.000000 0.000000
# 4 0.000000 0.000000 0.000000 0.020172 0.000000 0.000000
# 5 0.000000 0.000000 0.000000 0.000000 0.003303 0.000000
# 6 0.000000 0.000000 0.000000 0.000000 0.000000 0.742847
#
#
# Mechanical properties :
#
#
# Convention : Reuss Voigt Hill
#
# Bulk Modulus (GPa) = 38.20563 41.07640 39.64102
# Shear Modulus (GPa) = 6.06423 85.35995 45.71209
#
# Velocity S-wave (km/s) = 1.50627 5.65123 4.13554
# Velocity P-wave (km/s) = 4.16165 7.61250 6.13472
#
# Compressibility (1/GPa) = 0.02617415
#
# Stress axis : x y z
#
# Youngs Moduli (GPa) = 67.17798 72.54396 109.32783
#
# Poissons Ratio (x) = 0.14413 0.08381
# Poissons Ratio (y) = 0.13346 0.33545
# Poissons Ratio (z) = 0.05150 0.22259
#
# Static dielectric constant tensor:
#      x y z
#    x 2.104510 0.000000 0.000000 
#    y 0.000000 2.478360 0.000000 
#    z 0.000000 0.000000 2.054400 
# 
# From -- ./inp_files/18830.got.cif
#   From: 2010.05.17/outbox.cif.g08.bks.cpg/sg52_10_cif.got.tgz:18830.got - 2010.06.03 12:15:38.
