data_PCOD9412855
_publ_section_title
;
Structure prediction by ZEFSAII (Michael W. Deem and Ramdas Pophale) SiO2 
 PCOD9412855
Probable space group: P N N A
;
_chemical_formula_sum "Si O2"
_cell_formula_units_Z 56
_cell_length_a 13.693891
_cell_length_b 9.009128
_cell_length_c 22.920294
_cell_angle_alpha 90.000000
_cell_angle_beta 90.000000
_cell_angle_gamma 90.000000
_cell_volume 2827.677057
_symmetry_space_group_name_H-M "P N N A"
_symmetry_group_IT_number 52
_symmetry_cell_setting 'orthorhombic'
loop_
_space_group_symop_operation_xyz
x,y,z
1/2-x,-y,z
x,1/2-y,1/2-z
1/2-x,1/2+y,1/2-z
-x,-y,-z
1/2+x,y,-z
-x,1/2+y,1/2+z
1/2+x,1/2-y,1/2+z
loop_
_atom_site_type_symbol
_atom_site_label
_atom_site_fract_x
_atom_site_fract_y
_atom_site_fract_z
Si Si1 0.632880 0.014499 0.407730
Si Si2 0.433665 0.680988 0.535387
Si Si3 0.045453 0.683979 0.812277
Si Si4 0.863251 0.262486 0.007711
Si Si5 0.210314 0.170069 0.073008
Si Si6 0.846476 0.428203 0.387746
Si Si7 0.686346 0.154490 0.692673
O O1 0.594576 0.171570 0.428779
O O2 0.750000 0.000000 0.408466
O O3 0.596629 0.954550 0.345126
O O4 0.596856 0.903930 0.458673
O O5 0.546713 0.676823 0.519381
O O6 0.378180 0.672725 0.473234
O O7 0.407438 0.552821 0.580182
O O8 0.078045 0.750000 0.750000
O O9 0.079719 0.821814 0.853265
O O10 0.932129 0.635980 0.805180
O O11 0.787512 0.282982 0.956596
O O12 0.807426 0.169676 0.057817
O O13 0.195570 0.238131 0.136515
O O14 0.250000 0.000000 0.075061
O O15 0.750000 0.500000 0.357964
O O16 0.715490 0.250000 0.750000
O O17 0.750000 0.000000 0.689082
#
# Coordination Sequence:
#
# PCOD9412855 Si02
#       7
#     8   8   8   8   8   8   8
#     4  11  22  40  61  92 134 169 212 284 332 395
#     4  12  22  36  60  96 135 171 214 268 334 394
#     4  10  25  47  68  91 126 175 226 275 337 397
#     4  11  22  35  58  92 132 171 212 258 328 397
#     4  12  23  38  65  98 132 175 220 261 334 408
#     4  11  20  42  63  93 135 173 211 276 329 396
#     4  11  27  50  71  95 132 176 229 286 333 392
#
# _framework density 19.804241999999999
#
# number of rings (size 3 to 8) (size 9 to 14) (size 15 to 20)
#    0.000    0.857    4.286    3.857    6.000    0.571 
#    0.000    0.714    0.000    0.000    0.000    0.000 
#    0.000    0.000    0.000    0.000    0.000    0.000 
#
# Total GULP energy -312152.270205 kJ/mol
# GULP energy per Si atom -5574.147682 kJ/mol
# Density = 1.975917 g / cm^3
# Si number density = 19.804242 Si / 1000 Ang^3
#
#
#
# Elastic Constant Matrix: (Units=GPa)
#
#
# Indices 1 2 3 4 5 6 
#
# 1 72.5721 7.0523 13.9399 0.0000 0.0000 0.0000
# 2 7.0523 103.3852 40.1253 0.0000 0.0000 0.0000
# 3 13.9399 40.1253 122.1305 0.0000 0.0000 0.0000
# 4 0.0000 0.0000 0.0000 16.5237 0.0000 0.0000
# 5 0.0000 0.0000 0.0000 0.0000 21.4743 0.0000
# 6 0.0000 0.0000 0.0000 0.0000 0.0000 29.8582
#
#
#
# Elastic Compliance Matrix: (Units=1/GPa)
#
#
# Indices 1 2 3 4 5 6 
#
# 1 0.014102 -0.000387 -0.001483 0.000000 0.000000 0.000000
# 2 -0.000387 0.011097 -0.003602 0.000000 0.000000 0.000000
# 3 -0.001483 -0.003602 0.009540 0.000000 0.000000 0.000000
# 4 0.000000 0.000000 0.000000 0.060519 0.000000 0.000000
# 5 0.000000 0.000000 0.000000 0.000000 0.046567 0.000000
# 6 0.000000 0.000000 0.000000 0.000000 0.000000 0.033492
#
#
# Mechanical properties :
#
#
# Convention : Reuss Voigt Hill
#
# Bulk Modulus (GPa) = 42.02126 46.70253 44.36189
# Shear Modulus (GPa) = 25.74783 29.36927 27.55855
#
# Velocity S-wave (km/s) = 3.60963 3.85512 3.73439
# Velocity P-wave (km/s) = 6.21586 6.59160 6.40649
#
# Compressibility (1/GPa) = 0.02379748
#
# Stress axis : x y z
#
# Youngs Moduli (GPa) = 70.91326 90.11620 104.81637
#
# Poissons Ratio (x) = 0.03483 0.15540
# Poissons Ratio (y) = 0.02741 0.37751
# Poissons Ratio (z) = 0.10513 0.32457
#
# Static dielectric constant tensor:
#      x y z
#    x 1.716200 0.000000 0.000000 
#    y 0.000000 1.778750 0.000000 
#    z 0.000000 0.000000 1.684000 
# 
# From -- ./inp_files/37305.got.cif
#   From: 2010.05.17/outbox.cif.g08.bks.cpg/sg52_19_cif.got.tgz:37305.got - 2010.06.03 12:15:38.
