data_PCOD9412391
_publ_section_title
;
Structure prediction by ZEFSAII (Michael W. Deem and Ramdas Pophale) SiO2 
 PCOD9412391
Probable space group: P N N A
;
_chemical_formula_sum "Si O2"
_cell_formula_units_Z 40
_cell_length_a 12.543376
_cell_length_b 5.494023
_cell_length_c 27.139456
_cell_angle_alpha 90.000000
_cell_angle_beta 90.000000
_cell_angle_gamma 90.000000
_cell_volume 1870.277513
_symmetry_space_group_name_H-M "P N N A"
_symmetry_group_IT_number 52
_symmetry_cell_setting 'orthorhombic'
loop_
_space_group_symop_operation_xyz
x,y,z
1/2-x,-y,z
x,1/2-y,1/2-z
1/2-x,1/2+y,1/2-z
-x,-y,-z
1/2+x,y,-z
-x,1/2+y,1/2+z
1/2+x,1/2-y,1/2+z
loop_
_atom_site_type_symbol
_atom_site_label
_atom_site_fract_x
_atom_site_fract_y
_atom_site_fract_z
Si Si1 0.950027 0.695054 0.462655
Si Si2 0.494462 0.097946 0.874254
Si Si3 0.634796 0.410221 0.947321
Si Si4 0.376328 0.003671 0.220252
Si Si5 0.816311 0.246275 0.307061
O O1 0.857926 0.808427 0.496555
O O2 0.000000 0.500000 0.500000
O O3 0.926090 0.570953 0.410948
O O4 0.044530 0.883947 0.451555
O O5 0.583481 0.223331 0.908616
O O6 0.557084 0.974435 0.829733
O O7 0.411621 0.268525 0.846080
O O8 0.750000 0.500000 0.931038
O O9 0.397765 0.750000 0.250000
O O10 0.250000 0.000000 0.209269
O O11 0.399428 0.250000 0.250000
O O12 0.750000 0.500000 0.313958
O O13 0.854342 0.250000 0.250000
O O14 0.750000 0.000000 0.312400
#
# Coordination Sequence:
#
# PCOD9412391 Si02
#       5
#     8   8   8   8   8
#     4   9  22  44  61  97 132 175 224 277 348 407
#     4  11  24  40  69  98 131 179 234 280 345 418
#     4  10  23  43  68  97 138 178 223 288 354 419
#     4  10  24  41  63 102 145 181 222 278 345 416
#     4  10  24  46  68  97 137 181 229 287 345 400
#
# _framework density 21.387198999999999
#
# number of rings (size 3 to 8) (size 9 to 14) (size 15 to 20)
#    0.000    2.000    0.000    0.600    8.400    5.600 
#   10.800    0.000    0.000    0.000    0.000    0.000 
#    0.000    0.000    0.000    0.000    0.000    0.000 
#
# Total GULP energy -223212.143316 kJ/mol
# GULP energy per Si atom -5580.303583 kJ/mol
# Density = 2.133852 g / cm^3
# Si number density = 21.387199 Si / 1000 Ang^3
#
#
#
# Elastic Constant Matrix: (Units=GPa)
#
#
# Indices 1 2 3 4 5 6 
#
# 1 76.0845 15.1344 49.8245 0.0000 0.0000 0.0000
# 2 15.1344 85.1879 43.5534 0.0000 0.0000 0.0000
# 3 49.8245 43.5534 156.0834 0.0000 0.0000 0.0000
# 4 0.0000 0.0000 0.0000 28.6588 0.0000 0.0000
# 5 0.0000 0.0000 0.0000 0.0000 30.2956 0.0000
# 6 0.0000 0.0000 0.0000 0.0000 0.0000 13.8540
#
#
#
# Elastic Compliance Matrix: (Units=1/GPa)
#
#
# Indices 1 2 3 4 5 6 
#
# 1 0.016623 -0.000280 -0.005228 0.000000 0.000000 0.000000
# 2 -0.000280 0.013697 -0.003732 0.000000 0.000000 0.000000
# 3 -0.005228 -0.003732 0.009117 0.000000 0.000000 0.000000
# 4 0.000000 0.000000 0.000000 0.034893 0.000000 0.000000
# 5 0.000000 0.000000 0.000000 0.000000 0.033008 0.000000
# 6 0.000000 0.000000 0.000000 0.000000 0.000000 0.072181
#
#
# Mechanical properties :
#
#
# Convention : Reuss Voigt Hill
#
# Bulk Modulus (GPa) = 47.72101 59.37561 53.54831
# Shear Modulus (GPa) = 24.39192 28.48458 26.43825
#
# Velocity S-wave (km/s) = 3.38078 3.65341 3.51974
# Velocity P-wave (km/s) = 6.13196 6.75419 6.45058
#
# Compressibility (1/GPa) = 0.02095513
#
# Stress axis : x y z
#
# Youngs Moduli (GPa) = 60.15885 73.00963 109.68250
#
# Poissons Ratio (x) = 0.02046 0.57342
# Poissons Ratio (y) = 0.01686 0.40939
# Poissons Ratio (z) = 0.31451 0.27251
#
# Static dielectric constant tensor:
#      x y z
#    x 1.790280 0.000000 0.000000 
#    y 0.000000 1.837250 0.000000 
#    z 0.000000 0.000000 1.748420 
# 
# From -- ./inp_files/42507.got.cif
#   From: 2010.05.17/outbox.cif.g08.bks.cpg/sg52_22_cif.got.tgz:42507.got - 2010.06.03 12:15:38.
