data_PCOD9412051
_publ_section_title
;
Structure prediction by ZEFSAII (Michael W. Deem and Ramdas Pophale) SiO2 
 PCOD9412051
Probable space group: P N N A
;
_chemical_formula_sum "Si O2"
_cell_formula_units_Z 60
_cell_length_a 13.886075
_cell_length_b 17.477346
_cell_length_c 9.188659
_cell_angle_alpha 90.000000
_cell_angle_beta 90.000000
_cell_angle_gamma 90.000000
_cell_volume 2230.011617
_symmetry_space_group_name_H-M "P N N A"
_symmetry_group_IT_number 52
_symmetry_cell_setting 'orthorhombic'
loop_
_space_group_symop_operation_xyz
x,y,z
1/2-x,-y,z
x,1/2-y,1/2-z
1/2-x,1/2+y,1/2-z
-x,-y,-z
1/2+x,y,-z
-x,1/2+y,1/2+z
1/2+x,1/2-y,1/2+z
loop_
_atom_site_type_symbol
_atom_site_label
_atom_site_fract_x
_atom_site_fract_y
_atom_site_fract_z
Si Si1 0.789481 0.608336 0.937064
Si Si2 0.988446 0.563705 0.824295
Si Si3 0.694249 0.922647 0.833592
Si Si4 0.238541 0.271901 0.478202
Si Si5 0.614127 0.250000 0.250000
Si Si6 0.896225 0.586777 0.210434
Si Si7 0.490627 0.610730 0.512063
Si Si8 0.051084 0.727511 0.920242
O O1 0.697487 0.587831 0.841510
O O2 0.812605 0.697978 0.910627
O O3 0.876911 0.562608 0.865184
O O4 0.799542 0.592723 0.110714
O O5 0.044827 0.485102 0.850020
O O6 0.993357 0.580361 0.651308
O O7 0.027779 0.637701 0.910646
O O8 0.754587 0.849571 0.891148
O O9 0.589382 0.913058 0.904946
O O10 0.750000 0.000000 0.873699
O O11 0.188915 0.282855 0.632274
O O12 0.345794 0.240880 0.506335
O O13 0.560360 0.326418 0.195267
O O14 0.906092 0.577829 0.384913
O O15 0.488472 0.703670 0.494017
O O16 0.056683 0.750000 0.750000
#
# Coordination Sequence:
#
# PCOD9412051 Si02
#       8
#     8   8   8   8   4   8   8   8
#     4  11  26  44  66 102 142 191 231 302 360 426
#     4  11  24  44  74 105 142 186 240 299 362 430
#     4  11  25  44  72 102 145 187 246 294 359 428
#     4  10  22  43  68  99 141 187 235 292 362 428
#     4  10  24  40  70 102 140 178 236 302 352 428
#     4  11  25  45  69 105 141 185 239 297 362 422
#     4  10  24  44  71 104 139 190 237 299 354 440
#     4   9  20  40  65 100 138 178 230 291 356 425
#
# _framework density 26.905688000000001
#
# number of rings (size 3 to 8) (size 9 to 14) (size 15 to 20)
#    0.000    1.600    0.667    2.000    7.467    4.267 
#    2.400    2.000    0.000    0.000    0.000    0.000 
#    0.000    0.000    0.000    0.000    0.000    0.000 
#
# Total GULP energy -335700.320122 kJ/mol
# GULP energy per Si atom -5595.005335 kJ/mol
# Density = 2.684445 g / cm^3
# Si number density = 26.905688 Si / 1000 Ang^3
#
#
#
# Elastic Constant Matrix: (Units=GPa)
#
#
# Indices 1 2 3 4 5 6 
#
# 1 45.0512 35.2124 54.4531 0.0000 0.0000 0.0000
# 2 35.2124 247.8247 50.7142 0.0000 0.0000 0.0000
# 3 54.4531 50.7142 181.1293 0.0000 0.0000 0.0000
# 4 0.0000 0.0000 0.0000 39.6556 0.0000 0.0000
# 5 0.0000 0.0000 0.0000 0.0000 41.4351 0.0000
# 6 0.0000 0.0000 0.0000 0.0000 0.0000 49.2430
#
#
#
# Elastic Compliance Matrix: (Units=1/GPa)
#
#
# Indices 1 2 3 4 5 6 
#
# 1 0.037072 -0.003168 -0.010258 0.000000 0.000000 0.000000
# 2 -0.003168 0.004551 -0.000322 0.000000 0.000000 0.000000
# 3 -0.010258 -0.000322 0.008695 0.000000 0.000000 0.000000
# 4 0.000000 0.000000 0.000000 0.025217 0.000000 0.000000
# 5 0.000000 0.000000 0.000000 0.000000 0.024134 0.000000
# 6 0.000000 0.000000 0.000000 0.000000 0.000000 0.020307
#
#
# Mechanical properties :
#
#
# Convention : Reuss Voigt Hill
#
# Bulk Modulus (GPa) = 43.81727 83.86272 63.83999
# Shear Modulus (GPa) = 32.24144 48.30844 40.27494
#
# Velocity S-wave (km/s) = 3.46542 4.24190 3.87317
# Velocity P-wave (km/s) = 5.68622 7.43158 6.61670
#
# Compressibility (1/GPa) = 0.02282205
#
# Stress axis : x y z
#
# Youngs Moduli (GPa) = 26.97456 219.72599 115.01037
#
# Poissons Ratio (x) = 0.69615 1.17977
# Poissons Ratio (y) = 0.08546 0.03701
# Poissons Ratio (z) = 0.27670 0.07071
#
# Static dielectric constant tensor:
#      x y z
#    x 2.125830 0.000000 0.000000 
#    y 0.000000 2.143630 0.000000 
#    z 0.000000 0.000000 2.159640 
# 
# From -- ./inp_files/12442.got.cif
#   From: 2010.05.17/outbox.cif.g08.bks.cpg/sg52_7_cif.got.tgz:12442.got - 2010.06.03 12:15:38.
