data_PCOD9412628
_publ_section_title
;
Structure prediction by ZEFSAII (Michael W. Deem and Ramdas Pophale) SiO2 
 PCOD9412628
Probable space group: P N N A
;
_chemical_formula_sum "Si O2"
_cell_formula_units_Z 32
_cell_length_a 13.431974
_cell_length_b 18.231712
_cell_length_c 6.024120
_cell_angle_alpha 90.000000
_cell_angle_beta 90.000000
_cell_angle_gamma 90.000000
_cell_volume 1475.233985
_symmetry_space_group_name_H-M "P N N A"
_symmetry_group_IT_number 52
_symmetry_cell_setting 'orthorhombic'
loop_
_space_group_symop_operation_xyz
x,y,z
1/2-x,-y,z
x,1/2-y,1/2-z
1/2-x,1/2+y,1/2-z
-x,-y,-z
1/2+x,y,-z
-x,1/2+y,1/2+z
1/2+x,1/2-y,1/2+z
loop_
_atom_site_type_symbol
_atom_site_label
_atom_site_fract_x
_atom_site_fract_y
_atom_site_fract_z
Si Si1 0.302402 0.631184 0.740175
Si Si2 0.456681 0.688804 0.084653
Si Si3 0.750000 0.500000 0.937197
Si Si4 0.856387 0.250000 0.250000
Si Si5 0.079558 0.453215 0.363943
O O1 0.214814 0.685352 0.671715
O O2 0.349833 0.588595 0.536617
O O3 0.389456 0.674379 0.871994
O O4 0.259832 0.571479 0.911399
O O5 0.408094 0.750000 0.250000
O O6 0.567499 0.721356 0.060841
O O7 0.466538 0.611077 0.211755
O O8 0.849032 0.497355 0.788013
O O9 0.000000 0.500000 0.500000
#
# Coordination Sequence:
#
# PCOD9412628 Si02
#       5
#     8   8   4   4   8
#     4  11  23  44  67  96 134 173 224 275 335 405
#     4   9  23  42  62  97 128 167 226 268 329 403
#     4  10  26  40  66  98 128 170 220 272 334 400
#     4  10  24  42  70  90 132 178 212 274 334 390
#     4  11  25  41  67  96 130 172 221 275 337 401
#
# _framework density 21.691475000000001
#
# number of rings (size 3 to 8) (size 9 to 14) (size 15 to 20)
#    0.750    1.000    0.000    2.250   10.500    2.000 
#    0.000    5.000    0.000    0.000    0.000    0.000 
#    0.000    0.000    0.000    0.000    0.000    0.000 
#
# Total GULP energy -178865.221951 kJ/mol
# GULP energy per Si atom -5589.538186 kJ/mol
# Density = 2.164210 g / cm^3
# Si number density = 21.691475 Si / 1000 Ang^3
#
#
#
# Elastic Constant Matrix: (Units=GPa)
#
#
# Indices 1 2 3 4 5 6 
#
# 1 146.3093 76.0712 46.7510 0.0000 0.0000 0.0000
# 2 76.0712 104.0568 31.7686 0.0000 0.0000 0.0000
# 3 46.7510 31.7686 63.2190 0.0000 0.0000 0.0000
# 4 0.0000 0.0000 0.0000 23.4618 0.0000 0.0000
# 5 0.0000 0.0000 0.0000 0.0000 -11.2087 0.0000
# 6 0.0000 0.0000 0.0000 0.0000 0.0000 51.7694
#
#
#
# Elastic Compliance Matrix: (Units=1/GPa)
#
#
# Indices 1 2 3 4 5 6 
#
# 1 0.012445 -0.007428 -0.005470 0.000000 0.000000 0.000000
# 2 -0.007428 0.015785 -0.002439 0.000000 0.000000 0.000000
# 3 -0.005470 -0.002439 0.021089 0.000000 0.000000 0.000000
# 4 0.000000 0.000000 0.000000 0.042622 0.000000 0.000000
# 5 0.000000 0.000000 0.000000 0.000000 -0.089216 0.000000
# 6 0.000000 0.000000 0.000000 0.000000 0.000000 0.019316
#
#
# Mechanical properties :
#
#
# Convention : Reuss Voigt Hill
#
# Bulk Modulus (GPa) = 53.63662 69.19629 61.41646
# Shear Modulus (GPa) = 84.84515 23.40413 54.12464
#
# Velocity S-wave (km/s) = 6.26094 3.28831 5.00062
# Velocity P-wave (km/s) = 8.77762 6.81078 7.85600
#
# Compressibility (1/GPa) = 0.01864398
#
# Stress axis : x y z
#
# Youngs Moduli (GPa) = 80.35531 63.35177 47.41738
#
# Poissons Ratio (x) = 0.47055 0.25940
# Poissons Ratio (y) = 0.59685 0.11567
# Poissons Ratio (z) = 0.43958 0.15454
#
# Static dielectric constant tensor:
#      x y z
#    x 1.774250 0.000000 0.000000 
#    y 0.000000 1.783400 0.000000 
#    z 0.000000 0.000000 1.699400 
# 
# From -- ./inp_files/1094.got.cif
#   From: 2010.05.17/outbox.cif.g08.bks.cpg/sg52_1_cif.got.tgz:1094.got - 2010.06.03 12:15:38.
