data_PCOD9412853
_publ_section_title
;
Structure prediction by ZEFSAII (Michael W. Deem and Ramdas Pophale) SiO2 
 PCOD9412853
Probable space group: P N N A
;
_chemical_formula_sum "Si O2"
_cell_formula_units_Z 56
_cell_length_a 18.493041
_cell_length_b 13.122320
_cell_length_c 10.810499
_cell_angle_alpha 90.000000
_cell_angle_beta 90.000000
_cell_angle_gamma 90.000000
_cell_volume 2623.401108
_symmetry_space_group_name_H-M "P N N A"
_symmetry_group_IT_number 52
_symmetry_cell_setting 'orthorhombic'
loop_
_space_group_symop_operation_xyz
x,y,z
1/2-x,-y,z
x,1/2-y,1/2-z
1/2-x,1/2+y,1/2-z
-x,-y,-z
1/2+x,y,-z
-x,1/2+y,1/2+z
1/2+x,1/2-y,1/2+z
loop_
_atom_site_type_symbol
_atom_site_label
_atom_site_fract_x
_atom_site_fract_y
_atom_site_fract_z
Si Si1 0.709261 0.893414 0.333188
Si Si2 0.337572 0.995008 0.315934
Si Si3 0.602265 0.827015 0.527185
Si Si4 0.547609 0.100349 0.506137
Si Si5 0.674676 0.877128 0.052318
Si Si6 0.162761 0.086279 0.036439
Si Si7 0.845790 0.716959 0.110111
O O1 0.638735 0.892978 0.416846
O O2 0.689291 0.854738 0.196570
O O3 0.766431 0.827900 0.413805
O O4 0.750000 0.000000 0.314747
O O5 0.372826 0.105960 0.352513
O O6 0.250000 0.000000 0.343733
O O7 0.388699 0.916722 0.393595
O O8 0.517547 0.818723 0.494896
O O9 0.634085 0.713763 0.516330
O O10 0.345655 0.547155 0.323535
O O11 0.595118 0.128844 0.389117
O O12 0.500000 0.000000 0.500000
O O13 0.752184 0.893539 0.988082
O O14 0.638323 0.988721 0.044150
O O15 0.131862 0.193057 0.984103
O O16 0.840039 0.750000 0.250000
#
# Coordination Sequence:
#
# PCOD9412853 Si02
#       7
#     8   8   8   8   8   8   8
#     4  12  20  38  75 102 130 173 236 296 345 402
#     4  11  23  43  69  99 137 179 229 289 347 416
#     4  11  23  42  68  98 134 188 232 279 356 426
#     4  10  25  47  65  98 141 176 233 282 338 430
#     4  11  21  41  66 103 139 169 229 299 345 409
#     4  11  23  42  63 104 144 170 225 299 347 413
#     4  12  22  43  72  98 129 181 230 289 350 400
#
# _framework density 21.346335
#
# number of rings (size 3 to 8) (size 9 to 14) (size 15 to 20)
#    0.000    0.857    5.714    3.429    0.000    1.143 
#   10.286    0.714    0.000    0.000    0.000    0.000 
#    0.000    0.000    0.000    0.000    0.000    0.000 
#
# Total GULP energy -311856.716487 kJ/mol
# GULP energy per Si atom -5568.869937 kJ/mol
# Density = 2.129775 g / cm^3
# Si number density = 21.346335 Si / 1000 Ang^3
#
#
#
# Elastic Constant Matrix: (Units=GPa)
#
#
# Indices 1 2 3 4 5 6 
#
# 1 114.9207 21.1899 30.0385 0.0000 0.0000 0.0000
# 2 21.1899 116.1661 17.8950 0.0000 0.0000 0.0000
# 3 30.0385 17.8950 90.9130 0.0000 0.0000 0.0000
# 4 0.0000 0.0000 0.0000 33.3584 0.0000 0.0000
# 5 0.0000 0.0000 0.0000 0.0000 -4.1337 0.0000
# 6 0.0000 0.0000 0.0000 0.0000 0.0000 30.6148
#
#
#
# Elastic Compliance Matrix: (Units=1/GPa)
#
#
# Indices 1 2 3 4 5 6 
#
# 1 0.009716 -0.001318 -0.002951 0.000000 0.000000 0.000000
# 2 -0.001318 0.009056 -0.001347 0.000000 0.000000 0.000000
# 3 -0.002951 -0.001347 0.012240 0.000000 0.000000 0.000000
# 4 0.000000 0.000000 0.000000 0.029977 0.000000 0.000000
# 5 0.000000 0.000000 0.000000 0.000000 -0.241913 0.000000
# 6 0.000000 0.000000 0.000000 0.000000 0.000000 0.032664
#
#
# Mechanical properties :
#
#
# Convention : Reuss Voigt Hill
#
# Bulk Modulus (GPa) = 50.55532 51.13850 50.84691
# Shear Modulus (GPa) = -38.33340 28.82633 -4.75353
#
# Velocity S-wave (km/s) = -4.24227 3.67878 -1.49389
# Velocity P-wave (km/s) = 0.51086 6.48484 4.57122
#
# Compressibility (1/GPa) = 0.01978031
#
# Stress axis : x y z
#
# Youngs Moduli (GPa) = 102.92380 110.42084 81.70140
#
# Poissons Ratio (x) = 0.14550 0.24109
# Poissons Ratio (y) = 0.13562 0.11007
# Poissons Ratio (z) = 0.30371 0.14876
#
# Static dielectric constant tensor:
#      x y z
#    x 1.833120 0.000000 0.000000 
#    y 0.000000 1.960250 0.000000 
#    z 0.000000 0.000000 1.833030 
# 
# From -- ./inp_files/33316.got.cif
#   From: 2010.05.17/outbox.cif.g08.bks.cpg/sg52_17_cif.got.tgz:33316.got - 2010.06.03 12:15:38.
