data_PCOD9412087
_publ_section_title
;
Structure prediction by ZEFSAII (Michael W. Deem and Ramdas Pophale) SiO2 
 PCOD9412087
Probable space group: P N N A
;
_chemical_formula_sum "Si O2"
_cell_formula_units_Z 40
_cell_length_a 16.809594
_cell_length_b 12.061612
_cell_length_c 8.588785
_cell_angle_alpha 90.000000
_cell_angle_beta 90.000000
_cell_angle_gamma 90.000000
_cell_volume 1741.383036
_symmetry_space_group_name_H-M "P N N A"
_symmetry_group_IT_number 52
_symmetry_cell_setting 'orthorhombic'
loop_
_space_group_symop_operation_xyz
x,y,z
1/2-x,-y,z
x,1/2-y,1/2-z
1/2-x,1/2+y,1/2-z
-x,-y,-z
1/2+x,y,-z
-x,1/2+y,1/2+z
1/2+x,1/2-y,1/2+z
loop_
_atom_site_type_symbol
_atom_site_label
_atom_site_fract_x
_atom_site_fract_y
_atom_site_fract_z
Si Si1 0.893695 0.976272 0.314473
Si Si2 0.052992 0.605168 0.336011
Si Si3 0.888323 0.318212 0.983364
Si Si4 0.832192 0.949160 0.984724
Si Si5 0.294907 0.787366 0.570324
O O1 0.838436 0.993688 0.163426
O O2 0.845104 0.900354 0.436457
O O3 0.967406 0.908624 0.242096
O O4 0.920204 0.089712 0.396460
O O5 0.109166 0.633661 0.190318
O O6 0.063131 0.703499 0.462282
O O7 0.088098 0.494157 0.407187
O O8 0.797411 0.299065 0.030677
O O9 0.828523 0.817172 0.977544
O O10 0.750000 0.000000 0.920024
O O11 0.300909 0.750000 0.750000
#
# Coordination Sequence:
#
# PCOD9412087 Si02
#       5
#     8   8   8   8   8
#     4  11  24  45  72  99 134 189 239 281 352 434
#     4  11  26  44  67 104 146 176 225 308 361 411
#     4  11  24  44  69  96 141 184 229 291 356 419
#     4  11  22  43  70 100 139 178 236 292 348 424
#     4  10  22  43  74 100 130 183 244 283 331 438
#
# _framework density 22.970248000000002
#
# number of rings (size 3 to 8) (size 9 to 14) (size 15 to 20)
#    0.000    1.200    2.000    4.200    8.400    1.600 
#    0.000    0.000    0.000    0.000    0.000    0.000 
#    0.000    0.000    0.000    0.000    0.000    0.000 
#
# Total GULP energy -223650.421816 kJ/mol
# GULP energy per Si atom -5591.260545 kJ/mol
# Density = 2.291797 g / cm^3
# Si number density = 22.970248 Si / 1000 Ang^3
#
#
#
# Elastic Constant Matrix: (Units=GPa)
#
#
# Indices 1 2 3 4 5 6 
#
# 1 113.9765 63.5167 14.4586 0.0000 0.0000 0.0000
# 2 63.5167 94.4683 16.7968 0.0000 0.0000 0.0000
# 3 14.4586 16.7968 8.2832 0.0000 0.0000 0.0000
# 4 0.0000 0.0000 0.0000 38.2156 0.0000 0.0000
# 5 0.0000 0.0000 0.0000 0.0000 4.7981 0.0000
# 6 0.0000 0.0000 0.0000 0.0000 0.0000 30.8874
#
#
#
# Elastic Compliance Matrix: (Units=1/GPa)
#
#
# Indices 1 2 3 4 5 6 
#
# 1 0.014414 -0.008160 -0.008613 0.000000 0.000000 0.000000
# 2 -0.008160 0.021174 -0.028693 0.000000 0.000000 0.000000
# 3 -0.008613 -0.028693 0.193945 0.000000 0.000000 0.000000
# 4 0.000000 0.000000 0.000000 0.026167 0.000000 0.000000
# 5 0.000000 0.000000 0.000000 0.000000 0.208415 0.000000
# 6 0.000000 0.000000 0.000000 0.000000 0.000000 0.032376
#
#
# Mechanical properties :
#
#
# Convention : Reuss Voigt Hill
#
# Bulk Modulus (GPa) = 7.21498 45.14134 26.17816
# Shear Modulus (GPa) = 7.89114 22.91062 15.40088
#
# Velocity S-wave (km/s) = 1.85549 3.16160 2.59215
# Velocity P-wave (km/s) = 2.78177 5.74651 4.51446
#
# Compressibility (1/GPa) = 0.13860058
#
# Stress axis : x y z
#
# Youngs Moduli (GPa) = 69.37912 47.22877 5.15610
#
# Poissons Ratio (x) = 0.38537 0.04441
# Poissons Ratio (y) = 0.56611 0.14794
# Poissons Ratio (z) = 0.59756 1.35514
#
# Static dielectric constant tensor:
#      x y z
#    x 1.882760 0.000000 0.000000 
#    y 0.000000 1.917710 0.000000 
#    z 0.000000 0.000000 1.867870 
# 
# From -- ./inp_files/11633.got.cif
#   From: 2010.05.17/outbox.cif.g08.bks.cpg/sg52_6_cif.got.tgz:11633.got - 2010.06.03 12:15:38.
