data_PCOD9412392
_publ_section_title
;
Structure prediction by ZEFSAII (Michael W. Deem and Ramdas Pophale) SiO2 
 PCOD9412392
Probable space group: P N N A
;
_chemical_formula_sum "Si O2"
_cell_formula_units_Z 40
_cell_length_a 7.775435
_cell_length_b 15.994952
_cell_length_c 15.100312
_cell_angle_alpha 90.000000
_cell_angle_beta 90.000000
_cell_angle_gamma 90.000000
_cell_volume 1877.991218
_symmetry_space_group_name_H-M "P N N A"
_symmetry_group_IT_number 52
_symmetry_cell_setting 'orthorhombic'
loop_
_space_group_symop_operation_xyz
x,y,z
1/2-x,-y,z
x,1/2-y,1/2-z
1/2-x,1/2+y,1/2-z
-x,-y,-z
1/2+x,y,-z
-x,1/2+y,1/2+z
1/2+x,1/2-y,1/2+z
loop_
_atom_site_type_symbol
_atom_site_label
_atom_site_fract_x
_atom_site_fract_y
_atom_site_fract_z
Si Si1 0.250000 0.000000 0.947297
Si Si2 0.750000 0.500000 0.751038
Si Si3 0.583723 0.218324 0.650856
Si Si4 0.205280 0.906989 0.589345
Si Si5 0.437113 0.600497 0.399004
Si Si6 0.413284 0.116348 0.390813
O O1 0.381620 0.053907 0.890863
O O2 0.149792 0.062790 0.012966
O O3 0.673600 0.429597 0.685465
O O4 0.616295 0.545513 0.816349
O O5 0.563008 0.250000 0.750000
O O6 0.450607 0.143494 0.633058
O O7 0.545531 0.300507 0.593123
O O8 0.777925 0.188433 0.633599
O O9 0.148651 0.915418 0.486863
O O10 0.387319 0.859325 0.600113
O O11 0.250000 0.000000 0.622140
#
# Coordination Sequence:
#
# PCOD9412392 Si02
#       6
#     4   4   8   8   8   8
#     4   9  22  44  70  97 132 190 242 273 356 420
#     4  11  22  44  68  93 138 176 228 291 346 408
#     4  12  27  46  67 106 144 179 238 298 347 418
#     4  12  26  44  74 104 140 189 233 280 359 433
#     4  10  23  43  68  98 135 185 232 294 342 416
#     4  12  24  44  71 102 138 185 227 292 350 424
#
# _framework density 21.299353
#
# number of rings (size 3 to 8) (size 9 to 14) (size 15 to 20)
#    0.000    0.800    5.000    1.800    2.800    2.400 
#    7.200    0.000    0.000    0.000    0.000    0.000 
#    0.000    0.000    0.000    0.000    0.000    0.000 
#
# Total GULP energy -223635.578148 kJ/mol
# GULP energy per Si atom -5590.889454 kJ/mol
# Density = 2.125088 g / cm^3
# Si number density = 21.299353 Si / 1000 Ang^3
#
#
#
# Elastic Constant Matrix: (Units=GPa)
#
#
# Indices 1 2 3 4 5 6 
#
# 1 108.5514 24.8805 29.4088 0.0000 0.0000 0.0000
# 2 24.8805 124.0137 22.1871 0.0000 0.0000 0.0000
# 3 29.4088 22.1871 57.2756 0.0000 0.0000 0.0000
# 4 0.0000 0.0000 0.0000 17.7115 0.0000 0.0000
# 5 0.0000 0.0000 0.0000 0.0000 8.6476 0.0000
# 6 0.0000 0.0000 0.0000 0.0000 0.0000 32.2773
#
#
#
# Elastic Compliance Matrix: (Units=1/GPa)
#
#
# Indices 1 2 3 4 5 6 
#
# 1 0.010884 -0.001272 -0.005096 0.000000 0.000000 0.000000
# 2 -0.001272 0.008813 -0.002761 0.000000 0.000000 0.000000
# 3 -0.005096 -0.002761 0.021145 0.000000 0.000000 0.000000
# 4 0.000000 0.000000 0.000000 0.056460 0.000000 0.000000
# 5 0.000000 0.000000 0.000000 0.000000 0.115639 0.000000
# 6 0.000000 0.000000 0.000000 0.000000 0.000000 0.030981
#
#
# Mechanical properties :
#
#
# Convention : Reuss Voigt Hill
#
# Bulk Modulus (GPa) = 44.27673 49.19928 46.73800
# Shear Modulus (GPa) = 18.53850 25.95158 22.24504
#
# Velocity S-wave (km/s) = 2.95342 3.49438 3.23522
# Velocity P-wave (km/s) = 5.69765 6.27933 5.99555
#
# Compressibility (1/GPa) = 0.02258523
#
# Stress axis : x y z
#
# Youngs Moduli (GPa) = 91.87488 113.47215 47.29151
#
# Poissons Ratio (x) = 0.14433 0.24100
# Poissons Ratio (y) = 0.11686 0.13056
# Poissons Ratio (z) = 0.46819 0.31326
#
# Static dielectric constant tensor:
#      x y z
#    x 1.777550 0.000000 0.000000 
#    y 0.000000 1.793860 0.000000 
#    z 0.000000 0.000000 1.759150 
# 
# From -- ./inp_files/24472.got.cif
#   From: 2010.05.17/outbox.cif.g08.bks.cpg/sg52_13_cif.got.tgz:24472.got - 2010.06.03 12:15:38.
