data_PCOD9412782
_publ_section_title
;
Structure prediction by ZEFSAII (Michael W. Deem and Ramdas Pophale) SiO2 
 PCOD9412782
Probable space group: P N N A
;
_chemical_formula_sum "Si O2"
_cell_formula_units_Z 40
_cell_length_a 14.919647
_cell_length_b 4.910665
_cell_length_c 21.499380
_cell_angle_alpha 90.000000
_cell_angle_beta 90.000000
_cell_angle_gamma 90.000000
_cell_volume 1575.160425
_symmetry_space_group_name_H-M "P N N A"
_symmetry_group_IT_number 52
_symmetry_cell_setting 'orthorhombic'
loop_
_space_group_symop_operation_xyz
x,y,z
1/2-x,-y,z
x,1/2-y,1/2-z
1/2-x,1/2+y,1/2-z
-x,-y,-z
1/2+x,y,-z
-x,1/2+y,1/2+z
1/2+x,1/2-y,1/2+z
loop_
_atom_site_type_symbol
_atom_site_label
_atom_site_fract_x
_atom_site_fract_y
_atom_site_fract_z
Si Si1 0.068736 0.564730 0.935831
Si Si2 0.411014 0.277691 0.367364
Si Si3 0.491914 0.750000 0.750000
Si Si4 0.642452 0.048618 0.989477
Si Si5 0.250000 0.500000 0.203715
Si Si6 0.148894 0.586968 0.812502
O O1 0.122820 0.699534 0.878332
O O2 0.980868 0.422909 0.904998
O O3 0.075632 0.821819 0.981023
O O4 0.119276 0.327810 0.974581
O O5 0.446799 0.404410 0.300886
O O6 0.378387 0.506371 0.415985
O O7 0.330371 0.093769 0.341369
O O8 0.421121 0.648101 0.800750
O O9 0.750000 0.000000 0.997892
O O10 0.227916 0.250000 0.250000
O O11 0.250000 0.500000 0.814482
O O12 0.135581 0.750000 0.750000
#
# Coordination Sequence:
#
# PCOD9412782 Si02
#       6
#     8   8   4   8   4   8
#     4  11  28  49  77 112 157 202 265 321 391 481
#     4  11  27  50  80 109 158 206 263 326 406 467
#     4  10  24  48  68 114 144 198 252 318 384 474
#     4  12  27  50  78 113 154 206 261 326 393 473
#     4  12  30  52  84 120 162 204 272 336 396 476
#     4  11  23  41  74 108 151 201 247 314 389 469
#
# _framework density 25.394238999999999
#
# number of rings (size 3 to 8) (size 9 to 14) (size 15 to 20)
#    0.000    0.800    2.000    3.000    9.800    5.600 
#    3.600    0.000    0.000    0.000    0.000    0.000 
#    0.000    0.000    0.000    0.000    0.000    0.000 
#
# Total GULP energy -223032.396531 kJ/mol
# GULP energy per Si atom -5575.809913 kJ/mol
# Density = 2.533644 g / cm^3
# Si number density = 25.394239 Si / 1000 Ang^3
#
#
#
# Elastic Constant Matrix: (Units=GPa)
#
#
# Indices 1 2 3 4 5 6 
#
# 1 144.0958 38.6781 70.9583 0.0000 0.0000 0.0000
# 2 38.6781 109.3738 30.8537 0.0000 0.0000 0.0000
# 3 70.9583 30.8537 206.0158 0.0000 0.0000 0.0000
# 4 0.0000 0.0000 0.0000 49.4927 0.0000 0.0000
# 5 0.0000 0.0000 0.0000 0.0000 30.7745 0.0000
# 6 0.0000 0.0000 0.0000 0.0000 0.0000 21.8480
#
#
#
# Elastic Compliance Matrix: (Units=1/GPa)
#
#
# Indices 1 2 3 4 5 6 
#
# 1 0.008917 -0.002388 -0.002714 0.000000 0.000000 0.000000
# 2 -0.002388 0.010186 -0.000703 0.000000 0.000000 0.000000
# 3 -0.002714 -0.000703 0.005894 0.000000 0.000000 0.000000
# 4 0.000000 0.000000 0.000000 0.020205 0.000000 0.000000
# 5 0.000000 0.000000 0.000000 0.000000 0.032494 0.000000
# 6 0.000000 0.000000 0.000000 0.000000 0.000000 0.045771
#
#
# Mechanical properties :
#
#
# Convention : Reuss Voigt Hill
#
# Bulk Modulus (GPa) = 74.69579 82.27397 78.48488
# Shear Modulus (GPa) = 35.83238 41.68940 38.76089
#
# Velocity S-wave (km/s) = 3.76046 4.05617 3.91111
# Velocity P-wave (km/s) = 6.95220 7.37602 7.16724
#
# Compressibility (1/GPa) = 0.01338763
#
# Stress axis : x y z
#
# Youngs Moduli (GPa) = 112.14395 98.17693 169.66494
#
# Poissons Ratio (x) = 0.23443 0.46042
# Poissons Ratio (y) = 0.26778 0.11927
# Poissons Ratio (z) = 0.30433 0.06902
#
# Static dielectric constant tensor:
#      x y z
#    x 2.012430 0.000000 0.000000 
#    y 0.000000 2.089980 0.000000 
#    z 0.000000 0.000000 2.078960 
# 
# From -- ./inp_files/40520.got.cif
#   From: 2010.05.17/outbox.cif.g08.bks.cpg/sg52_21_cif.got.tgz:40520.got - 2010.06.03 12:15:38.
