data_PCOD9412964
_publ_section_title
;
Structure prediction by ZEFSAII (Michael W. Deem and Ramdas Pophale) SiO2 
 PCOD9412964
Probable space group: P N N A
;
_chemical_formula_sum "Si O2"
_cell_formula_units_Z 44
_cell_length_a 12.813047
_cell_length_b 12.696384
_cell_length_c 12.876381
_cell_angle_alpha 90.000000
_cell_angle_beta 90.000000
_cell_angle_gamma 90.000000
_cell_volume 2094.721484
_symmetry_space_group_name_H-M "P N N A"
_symmetry_group_IT_number 52
_symmetry_cell_setting 'orthorhombic'
loop_
_space_group_symop_operation_xyz
x,y,z
1/2-x,-y,z
x,1/2-y,1/2-z
1/2-x,1/2+y,1/2-z
-x,-y,-z
1/2+x,y,-z
-x,1/2+y,1/2+z
1/2+x,1/2-y,1/2+z
loop_
_atom_site_type_symbol
_atom_site_label
_atom_site_fract_x
_atom_site_fract_y
_atom_site_fract_z
Si Si1 0.485728 0.896607 0.674520
Si Si2 0.195860 0.750000 0.750000
Si Si3 0.330150 0.597859 0.628985
Si Si4 0.107850 0.257979 0.014208
Si Si5 0.432908 0.379437 0.891983
Si Si6 0.299001 0.387306 0.099389
O O1 0.418095 0.904189 0.779985
O O2 0.422438 0.829457 0.587919
O O3 0.605221 0.856260 0.675796
O O4 0.494783 0.014798 0.630524
O O5 0.261528 0.700404 0.657757
O O6 0.132826 0.652171 0.793015
O O7 0.250000 0.500000 0.624538
O O8 0.380554 0.637243 0.521447
O O9 0.207424 0.303828 0.075810
O O10 0.007338 0.281452 0.084332
O O11 0.356202 0.399612 0.987809
O O12 0.250000 0.500000 0.129383
#
# Coordination Sequence:
#
# PCOD9412964 Si02
#       6
#     8   4   8   8   8   8
#     4  11  20  32  60  94 121 152 206 263 308 362
#     4  12  22  36  62  86 122 158 200 266 302 364
#     4  12  23  37  62  93 123 161 211 258 313 372
#     4  11  21  37  59  89 123 159 199 263 312 373
#     4  11  21  34  60  91 121 156 208 252 315 362
#     4  11  18  32  58  94 118 149 192 265 317 355
#
# _framework density 21.005178999999998
#
# number of rings (size 3 to 8) (size 9 to 14) (size 15 to 20)
#    0.000    0.727    9.091    1.091    0.000    0.000 
#    0.000    0.909    8.000    0.000    0.000    0.000 
#    0.000    0.000    0.000    0.000    0.000    0.000 
#
# Total GULP energy -245363.688416 kJ/mol
# GULP energy per Si atom -5576.447464 kJ/mol
# Density = 2.095737 g / cm^3
# Si number density = 21.005179 Si / 1000 Ang^3
#
#
#
# Elastic Constant Matrix: (Units=GPa)
#
#
# Indices 1 2 3 4 5 6 
#
# 1 109.3668 17.8628 17.7291 0.0000 0.0000 0.0000
# 2 17.8628 51.2304 6.4500 0.0000 0.0000 0.0000
# 3 17.7291 6.4500 23.3040 0.0000 0.0000 0.0000
# 4 0.0000 0.0000 0.0000 26.0763 0.0000 0.0000
# 5 0.0000 0.0000 0.0000 0.0000 11.8722 0.0000
# 6 0.0000 0.0000 0.0000 0.0000 0.0000 -0.0954
#
#
#
# Elastic Compliance Matrix: (Units=1/GPa)
#
#
# Indices 1 2 3 4 5 6 
#
# 1 0.010813 -0.002833 -0.007442 0.000000 0.000000 0.000000
# 2 -0.002833 0.020967 -0.003648 0.000000 0.000000 0.000000
# 3 -0.007442 -0.003648 0.049582 0.000000 0.000000 0.000000
# 4 0.000000 0.000000 0.000000 0.038349 0.000000 0.000000
# 5 0.000000 0.000000 0.000000 0.000000 0.084231 0.000000
# 6 0.000000 0.000000 0.000000 0.000000 0.000000-10.485750
#
#
# Mechanical properties :
#
#
# Convention : Reuss Voigt Hill
#
# Bulk Modulus (GPa) = 18.68593 29.77610 24.23102
# Shear Modulus (GPa) = -0.48847 17.02792 8.26973
#
# Velocity S-wave (km/s) = -0.48275 2.85029 1.98634
# Velocity P-wave (km/s) = 2.93333 5.00385 4.10140
#
# Compressibility (1/GPa) = 0.05351621
#
# Stress axis : x y z
#
# Youngs Moduli (GPa) = 92.48430 47.69448 20.16852
#
# Poissons Ratio (x) = 0.13513 0.15009
# Poissons Ratio (y) = 0.26202 0.07357
# Poissons Ratio (z) = 0.68825 0.17398
#
# Static dielectric constant tensor:
#      x y z
#    x 1.782580 0.000000 0.000000 
#    y 0.000000 1.342090 0.000000 
#    z 0.000000 0.000000 1.752260 
# 
# From -- ./inp_files/26022.got.cif
#   From: 2010.05.17/outbox.cif.g08.bks.cpg/sg52_14_cif.got.tgz:26022.got - 2010.06.03 12:15:38.
