data_PCOD9412876
_publ_section_title
;
Structure prediction by ZEFSAII (Michael W. Deem and Ramdas Pophale) SiO2 
 PCOD9412876
Probable space group: P N N A
;
_chemical_formula_sum "Si O2"
_cell_formula_units_Z 60
_cell_length_a 9.358282
_cell_length_b 25.435837
_cell_length_c 11.296281
_cell_angle_alpha 90.000000
_cell_angle_beta 90.000000
_cell_angle_gamma 90.000000
_cell_volume 2688.918557
_symmetry_space_group_name_H-M "P N N A"
_symmetry_group_IT_number 52
_symmetry_cell_setting 'orthorhombic'
loop_
_space_group_symop_operation_xyz
x,y,z
1/2-x,-y,z
x,1/2-y,1/2-z
1/2-x,1/2+y,1/2-z
-x,-y,-z
1/2+x,y,-z
-x,1/2+y,1/2+z
1/2+x,1/2-y,1/2+z
loop_
_atom_site_type_symbol
_atom_site_label
_atom_site_fract_x
_atom_site_fract_y
_atom_site_fract_z
Si Si1 0.619154 0.638345 0.590397
Si Si2 0.765810 0.250000 0.250000
Si Si3 0.617886 0.399102 0.938846
Si Si4 0.639609 0.296606 0.476131
Si Si5 0.065547 0.592790 0.154580
Si Si6 0.616452 0.963061 0.060581
Si Si7 0.083841 0.517423 0.818394
Si Si8 0.459445 0.788362 0.353318
O O1 0.731840 0.683189 0.557160
O O2 0.474730 0.657333 0.527953
O O3 0.596753 0.627065 0.728569
O O4 0.657993 0.584854 0.523053
O O5 0.682722 0.285168 0.342001
O O6 0.871796 0.213567 0.327446
O O7 0.784229 0.412733 0.917428
O O8 0.510930 0.447073 0.906565
O O9 0.592425 0.347439 0.859312
O O10 0.560241 0.384797 0.070099
O O11 0.575112 0.243274 0.528329
O O12 0.004396 0.536566 0.196997
O O13 0.577917 0.949625 0.195756
O O14 0.750000 0.000000 0.077307
O O15 0.500000 0.000000 0.000000
O O16 0.250000 0.500000 0.847915
O O17 0.399873 0.750000 0.250000
#
# Coordination Sequence:
#
# PCOD9412876 Si02
#       8
#     8   4   8   8   8   8   8   8
#     4  12  27  46  79 113 150 199 246 309 388 449
#     4  10  26  48  74 102 158 188 244 312 372 428
#     4  12  28  47  78  99 155 195 259 308 376 450
#     4  12  26  49  76 110 153 193 251 311 373 452
#     4  12  28  47  74 113 144 201 254 308 380 454
#     4  11  24  43  70 108 148 188 243 307 374 451
#     4  11  26  48  74 108 151 196 246 316 378 462
#     4  10  25  50  70 108 144 196 244 310 368 436
#
# _framework density 22.313804000000001
#
# number of rings (size 3 to 8) (size 9 to 14) (size 15 to 20)
#    0.400    0.267    2.667    3.200   13.067    0.000 
#    1.200    0.000    0.000    0.000    0.000    0.000 
#    0.000    0.000    0.000    0.000    0.000    0.000 
#
# Total GULP energy -335169.094559 kJ/mol
# GULP energy per Si atom -5586.151576 kJ/mol
# Density = 2.226302 g / cm^3
# Si number density = 22.313804 Si / 1000 Ang^3
#
#
#
# Elastic Constant Matrix: (Units=GPa)
#
#
# Indices 1 2 3 4 5 6 
#
# 1 74.2037 3.8522 31.3196 0.0000 0.0000 0.0000
# 2 3.8522 65.0500 5.6118 0.0000 0.0000 0.0000
# 3 31.3196 5.6118 65.5294 0.0000 0.0000 0.0000
# 4 0.0000 0.0000 0.0000 34.1889 0.0000 0.0000
# 5 0.0000 0.0000 0.0000 0.0000 34.0966 0.0000
# 6 0.0000 0.0000 0.0000 0.0000 0.0000 6.0514
#
#
#
# Elastic Compliance Matrix: (Units=1/GPa)
#
#
# Indices 1 2 3 4 5 6 
#
# 1 0.016888 -0.000306 -0.008045 0.000000 0.000000 0.000000
# 2 -0.000306 0.015493 -0.001181 0.000000 0.000000 0.000000
# 3 -0.008045 -0.001181 0.019207 0.000000 0.000000 0.000000
# 4 0.000000 0.000000 0.000000 0.029249 0.000000 0.000000
# 5 0.000000 0.000000 0.000000 0.000000 0.029328 0.000000
# 6 0.000000 0.000000 0.000000 0.000000 0.000000 0.165252
#
#
# Mechanical properties :
#
#
# Convention : Reuss Voigt Hill
#
# Bulk Modulus (GPa) = 30.74684 31.81670 31.28177
# Shear Modulus (GPa) = 16.37614 25.80069 21.08841
#
# Velocity S-wave (km/s) = 2.71200 3.40408 3.07756
# Velocity P-wave (km/s) = 4.85961 5.45344 5.16507
#
# Compressibility (1/GPa) = 0.03252367
#
# Stress axis : x y z
#
# Youngs Moduli (GPa) = 59.21341 64.54628 52.06515
#
# Poissons Ratio (x) = 0.01975 0.41889
# Poissons Ratio (y) = 0.01812 0.06146
# Poissons Ratio (z) = 0.47640 0.07620
#
# Static dielectric constant tensor:
#      x y z
#    x 1.813440 0.000000 0.000000 
#    y 0.000000 1.770650 0.000000 
#    z 0.000000 0.000000 1.853600 
# 
# From -- ./inp_files/17120.got.cif
#   From: 2010.05.17/outbox.cif.g08.bks.cpg/sg52_9_cif.got.tgz:17120.got - 2010.06.03 12:15:38.
