data_PCOD9412994
_publ_section_title
;
Structure prediction by ZEFSAII (Michael W. Deem and Ramdas Pophale) SiO2 
 PCOD9412994
Probable space group: P N N A
;
_chemical_formula_sum "Si O2"
_cell_formula_units_Z 48
_cell_length_a 17.173304
_cell_length_b 11.176496
_cell_length_c 13.852754
_cell_angle_alpha 90.000000
_cell_angle_beta 90.000000
_cell_angle_gamma 90.000000
_cell_volume 2658.861079
_symmetry_space_group_name_H-M "P N N A"
_symmetry_group_IT_number 52
_symmetry_cell_setting 'orthorhombic'
loop_
_space_group_symop_operation_xyz
x,y,z
1/2-x,-y,z
x,1/2-y,1/2-z
1/2-x,1/2+y,1/2-z
-x,-y,-z
1/2+x,y,-z
-x,1/2+y,1/2+z
1/2+x,1/2-y,1/2+z
loop_
_atom_site_type_symbol
_atom_site_label
_atom_site_fract_x
_atom_site_fract_y
_atom_site_fract_z
Si Si1 0.416036 0.275758 0.857119
Si Si2 0.830738 0.063058 0.511457
Si Si3 0.906857 0.624373 0.846999
Si Si4 0.917458 0.439062 0.505720
Si Si5 0.164736 0.714207 0.354913
Si Si6 0.832531 0.882940 0.860565
O O1 0.385984 0.250000 0.750000
O O2 0.503668 0.330292 0.846331
O O3 0.409311 0.147867 0.913216
O O4 0.370092 0.373708 0.919858
O O5 0.811219 0.170151 0.584981
O O6 0.750000 0.000000 0.485592
O O7 0.886760 0.973248 0.571457
O O8 0.860161 0.745613 0.870841
O O9 0.875813 0.580474 0.740740
O O10 0.907432 0.345123 0.591953
O O11 0.858424 0.542343 0.544652
O O12 0.000000 0.500000 0.500000
O O13 0.141307 0.750000 0.250000
O O14 0.239570 0.627409 0.348709
#
# Coordination Sequence:
#
# PCOD9412994 Si02
#       6
#     8   8   8   8   8   8
#     4  11  23  41  59  80 113 162 202 241 290 348
#     4  11  22  36  58  84 115 150 197 243 285 354
#     4  11  19  37  62  86 120 151 183 239 312 363
#     4  11  22  36  58  85 120 157 196 236 287 362
#     4  11  21  35  58  94 122 149 187 243 310 362
#     4  11  19  35  62  89 120 151 185 243 309 362
#
# _framework density 18.052841999999998
#
# number of rings (size 3 to 8) (size 9 to 14) (size 15 to 20)
#    0.000    1.000    6.667    2.000    0.000    0.000 
#    0.000    3.333    0.000    0.000    0.000    1.167 
#    0.000    0.000    0.000    0.000    0.000    0.000 
#
# Total GULP energy -267472.361503 kJ/mol
# GULP energy per Si atom -5572.340865 kJ/mol
# Density = 1.801175 g / cm^3
# Si number density = 18.052842 Si / 1000 Ang^3
#
#
#
# Elastic Constant Matrix: (Units=GPa)
#
#
# Indices 1 2 3 4 5 6 
#
# 1 54.7433 23.7438 51.2468 0.0000 0.0000 0.0000
# 2 23.7438 96.4047 64.5580 0.0000 0.0000 0.0000
# 3 51.2468 64.5580 156.8915 0.0000 0.0000 0.0000
# 4 0.0000 0.0000 0.0000 18.8733 0.0000 0.0000
# 5 0.0000 0.0000 0.0000 0.0000 -25.9388 0.0000
# 6 0.0000 0.0000 0.0000 0.0000 0.0000 3.0717
#
#
#
# Elastic Compliance Matrix: (Units=1/GPa)
#
#
# Indices 1 2 3 4 5 6 
#
# 1 0.026383 -0.001004 -0.008205 0.000000 0.000000 0.000000
# 2 -0.001004 0.014357 -0.005580 0.000000 0.000000 0.000000
# 3 -0.008205 -0.005580 0.011350 0.000000 0.000000 0.000000
# 4 0.000000 0.000000 0.000000 0.052985 0.000000 0.000000
# 5 0.000000 0.000000 0.000000 0.000000 -0.038552 0.000000
# 6 0.000000 0.000000 0.000000 0.000000 0.000000 0.325551
#
#
# Mechanical properties :
#
#
# Convention : Reuss Voigt Hill
#
# Bulk Modulus (GPa) = 44.41806 65.23743 54.82775
# Shear Modulus (GPa) = 11.65085 10.43396 11.04240
#
# Velocity S-wave (km/s) = 2.54318 2.40670 2.47588
# Velocity P-wave (km/s) = 5.76902 6.62860 6.21369
#
# Compressibility (1/GPa) = 0.02251336
#
# Stress axis : x y z
#
# Youngs Moduli (GPa) = 37.90307 69.65451 88.10761
#
# Poissons Ratio (x) = 0.06990 0.72290
# Poissons Ratio (y) = 0.03804 0.49161
# Poissons Ratio (z) = 0.31099 0.38865
#
# Static dielectric constant tensor:
#      x y z
#    x 1.630910 0.000000 0.000000 
#    y 0.000000 1.686690 0.000000 
#    z 0.000000 0.000000 1.612240 
# 
# From -- ./inp_files/20621.got.cif
#   From: 2010.05.17/outbox.cif.g08.bks.cpg/sg52_11_cif.got.tgz:20621.got - 2010.06.03 12:15:38.
