data_PCOD9412638
_publ_section_title
;
Structure prediction by ZEFSAII (Michael W. Deem and Ramdas Pophale) SiO2 
 PCOD9412638
Probable space group: P N N A
;
_chemical_formula_sum "Si O2"
_cell_formula_units_Z 36
_cell_length_a 9.247358
_cell_length_b 8.377592
_cell_length_c 20.583412
_cell_angle_alpha 90.000000
_cell_angle_beta 90.000000
_cell_angle_gamma 90.000000
_cell_volume 1594.609121
_symmetry_space_group_name_H-M "P N N A"
_symmetry_group_IT_number 52
_symmetry_cell_setting 'orthorhombic'
loop_
_space_group_symop_operation_xyz
x,y,z
1/2-x,-y,z
x,1/2-y,1/2-z
1/2-x,1/2+y,1/2-z
-x,-y,-z
1/2+x,y,-z
-x,1/2+y,1/2+z
1/2+x,1/2-y,1/2+z
loop_
_atom_site_type_symbol
_atom_site_label
_atom_site_fract_x
_atom_site_fract_y
_atom_site_fract_z
Si Si1 0.006645 0.344536 0.914595
Si Si2 0.582708 0.506721 0.432714
Si Si3 0.115158 0.620557 0.696099
Si Si4 0.750000 0.000000 0.505010
Si Si5 0.596748 0.926047 0.720052
O O1 0.028554 0.157658 0.900454
O O2 0.856574 0.388758 0.951562
O O3 0.001729 0.425467 0.844275
O O4 0.139326 0.401138 0.959646
O O5 0.750000 0.500000 0.450104
O O6 0.500000 0.500000 0.500000
O O7 0.571895 0.649861 0.379641
O O8 0.250000 0.500000 0.691083
O O9 0.158503 0.750000 0.750000
O O10 0.976952 0.537557 0.727230
O O11 0.612010 0.750000 0.750000
O O12 0.750000 0.000000 0.701876
#
# Coordination Sequence:
#
# PCOD9412638 Si02
#       5
#     8   8   8   4   8
#     4  11  23  45  68 105 138 189 230 295 358 435
#     4  11  25  45  71 103 143 186 241 295 363 430
#     4  11  26  45  73 105 141 192 242 298 367 438
#     4  10  24  42  74 104 146 180 238 292 370 438
#     4  12  25  46  70 102 141 183 237 296 357 434
#
# _framework density 22.576065
#
# number of rings (size 3 to 8) (size 9 to 14) (size 15 to 20)
#    0.000    0.889    3.333    2.667    4.667    4.444 
#    8.000    0.000    0.000    0.000    0.000    0.000 
#    0.000    0.000    0.000    0.000    0.000    0.000 
#
# Total GULP energy -201134.312243 kJ/mol
# GULP energy per Si atom -5587.064229 kJ/mol
# Density = 2.252468 g / cm^3
# Si number density = 22.576065 Si / 1000 Ang^3
#
#
#
# Elastic Constant Matrix: (Units=GPa)
#
#
# Indices 1 2 3 4 5 6 
#
# 1 98.5722 11.7087 45.3367 0.0000 0.0000 0.0000
# 2 11.7087 40.5879 17.0841 0.0000 0.0000 0.0000
# 3 45.3367 17.0841 174.1648 0.0000 0.0000 0.0000
# 4 0.0000 0.0000 0.0000 22.2675 0.0000 0.0000
# 5 0.0000 0.0000 0.0000 0.0000 24.9360 0.0000
# 6 0.0000 0.0000 0.0000 0.0000 0.0000 28.3828
#
#
#
# Elastic Compliance Matrix: (Units=1/GPa)
#
#
# Indices 1 2 3 4 5 6 
#
# 1 0.011707 -0.002185 -0.002833 0.000000 0.000000 0.000000
# 2 -0.002185 0.026107 -0.001992 0.000000 0.000000 0.000000
# 3 -0.002833 -0.001992 0.006675 0.000000 0.000000 0.000000
# 4 0.000000 0.000000 0.000000 0.044909 0.000000 0.000000
# 5 0.000000 0.000000 0.000000 0.000000 0.040103 0.000000
# 6 0.000000 0.000000 0.000000 0.000000 0.000000 0.035233
#
#
# Mechanical properties :
#
#
# Convention : Reuss Voigt Hill
#
# Bulk Modulus (GPa) = 32.82085 51.28710 42.05397
# Shear Modulus (GPa) = 26.46776 31.06361 28.76569
#
# Velocity S-wave (km/s) = 3.42772 3.71341 3.57342
# Velocity P-wave (km/s) = 5.49865 6.41503 5.97444
#
# Compressibility (1/GPa) = 0.03046844
#
# Stress axis : x y z
#
# Youngs Moduli (GPa) = 85.41550 38.30437 149.82120
#
# Poissons Ratio (x) = 0.08369 0.42448
# Poissons Ratio (y) = 0.18662 0.29846
# Poissons Ratio (z) = 0.24200 0.07631
#
# Static dielectric constant tensor:
#      x y z
#    x 1.801760 0.000000 0.000000 
#    y 0.000000 1.882500 0.000000 
#    z 0.000000 0.000000 2.029760 
# 
# From -- ./inp_files/35551.got.cif
#   From: 2010.05.17/outbox.cif.g08.bks.cpg/sg52_18_cif.got.tgz:35551.got - 2010.06.03 12:15:38.
