data_PCOD9412838
_publ_section_title
;
Structure prediction by ZEFSAII (Michael W. Deem and Ramdas Pophale) SiO2 
 PCOD9412838
Probable space group: P N N A
;
_chemical_formula_sum "Si O2"
_cell_formula_units_Z 40
_cell_length_a 9.354546
_cell_length_b 13.313309
_cell_length_c 14.329688
_cell_angle_alpha 90.000000
_cell_angle_beta 90.000000
_cell_angle_gamma 90.000000
_cell_volume 1784.618791
_symmetry_space_group_name_H-M "P N N A"
_symmetry_group_IT_number 52
_symmetry_cell_setting 'orthorhombic'
loop_
_space_group_symop_operation_xyz
x,y,z
1/2-x,-y,z
x,1/2-y,1/2-z
1/2-x,1/2+y,1/2-z
-x,-y,-z
1/2+x,y,-z
-x,1/2+y,1/2+z
1/2+x,1/2-y,1/2+z
loop_
_atom_site_type_symbol
_atom_site_label
_atom_site_fract_x
_atom_site_fract_y
_atom_site_fract_z
Si Si1 0.748187 0.749583 0.516744
Si Si2 0.897368 0.940113 0.072930
Si Si3 0.106089 0.844692 0.189156
Si Si4 0.158700 0.406366 0.166674
Si Si5 0.895529 0.059755 0.425774
O O1 0.845516 0.670710 0.461966
O O2 0.647184 0.687044 0.585220
O O3 0.832976 0.817514 0.591551
O O4 0.655689 0.829988 0.458984
O O5 0.985063 0.925554 0.168881
O O6 0.750000 0.000000 0.083938
O O7 0.000000 0.000000 0.000000
O O8 0.053943 0.750000 0.250000
O O9 0.251092 0.879071 0.241514
O O10 0.250000 0.500000 0.128065
O O11 0.993484 0.432797 0.166187
O O12 0.750000 0.000000 0.411023
O O13 0.000000 0.000000 0.500000
#
# Coordination Sequence:
#
# PCOD9412838 Si02
#       5
#     8   8   8   8   8
#     4  11  22  44  76 103 142 187 258 296 367 449
#     4  12  26  46  78 107 142 199 260 304 358 462
#     4  10  25  45  73 101 148 193 239 307 377 433
#     4  11  23  42  71 105 148 192 230 307 387 435
#     4  12  22  40  74 114 145 184 246 305 372 449
#
# _framework density 22.41375
#
# number of rings (size 3 to 8) (size 9 to 14) (size 15 to 20)
#    0.000    0.800    6.000    1.200    2.800    0.000 
#    0.000    3.000    0.000    0.000    0.000    0.000 
#    0.000    0.000    0.000    0.000    0.000    0.000 
#
# Total GULP energy -223274.721289 kJ/mol
# GULP energy per Si atom -5581.868032 kJ/mol
# Density = 2.236274 g / cm^3
# Si number density = 22.413750 Si / 1000 Ang^3
#
#
#
# Elastic Constant Matrix: (Units=GPa)
#
#
# Indices 1 2 3 4 5 6 
#
# 1 219.2348 78.6113 82.9386 0.0000 0.0000 0.0000
# 2 78.6113 135.3971 60.9890 0.0000 0.0000 0.0000
# 3 82.9386 60.9890 98.7096 0.0000 0.0000 0.0000
# 4 0.0000 0.0000 0.0000 30.5720 0.0000 0.0000
# 5 0.0000 0.0000 0.0000 0.0000 8.6576 0.0000
# 6 0.0000 0.0000 0.0000 0.0000 0.0000 45.9502
#
#
#
# Elastic Compliance Matrix: (Units=1/GPa)
#
#
# Indices 1 2 3 4 5 6 
#
# 1 0.007048 -0.001974 -0.004702 0.000000 0.000000 0.000000
# 2 -0.001974 0.010787 -0.005006 0.000000 0.000000 0.000000
# 3 -0.004702 -0.005006 0.017175 0.000000 0.000000 0.000000
# 4 0.000000 0.000000 0.000000 0.032710 0.000000 0.000000
# 5 0.000000 0.000000 0.000000 0.000000 0.115506 0.000000
# 6 0.000000 0.000000 0.000000 0.000000 0.000000 0.021763
#
#
# Mechanical properties :
#
#
# Convention : Reuss Voigt Hill
#
# Bulk Modulus (GPa) = 85.87536 99.82436 92.84986
# Shear Modulus (GPa) = 21.52998 32.42279 26.97639
#
# Velocity S-wave (km/s) = 3.10267 3.80749 3.47301
# Velocity P-wave (km/s) = 7.15767 7.99769 7.58931
#
# Compressibility (1/GPa) = 0.01164478
#
# Stress axis : x y z
#
# Youngs Moduli (GPa) = 141.88285 92.70621 58.22437
#
# Poissons Ratio (x) = 0.18300 0.27379
# Poissons Ratio (y) = 0.28007 0.29148
# Poissons Ratio (z) = 0.66719 0.46410
#
# Static dielectric constant tensor:
#      x y z
#    x 1.937820 0.000000 0.000000 
#    y 0.000000 2.296310 0.000000 
#    z 0.000000 0.000000 1.877530 
# 
# From -- ./inp_files/24416.got.cif
#   From: 2010.05.17/outbox.cif.g08.bks.cpg/sg52_13_cif.got.tgz:24416.got - 2010.06.03 12:15:38.
