data_PCOD9412951
_publ_section_title
;
Structure prediction by ZEFSAII (Michael W. Deem and Ramdas Pophale) SiO2 
 PCOD9412951
Probable space group: P N N A
;
_chemical_formula_sum "Si O2"
_cell_formula_units_Z 60
_cell_length_a 9.372128
_cell_length_b 11.128021
_cell_length_c 25.314888
_cell_angle_alpha 90.000000
_cell_angle_beta 90.000000
_cell_angle_gamma 90.000000
_cell_volume 2640.171619
_symmetry_space_group_name_H-M "P N N A"
_symmetry_group_IT_number 52
_symmetry_cell_setting 'orthorhombic'
loop_
_space_group_symop_operation_xyz
x,y,z
1/2-x,-y,z
x,1/2-y,1/2-z
1/2-x,1/2+y,1/2-z
-x,-y,-z
1/2+x,y,-z
-x,1/2+y,1/2+z
1/2+x,1/2-y,1/2+z
loop_
_atom_site_type_symbol
_atom_site_label
_atom_site_fract_x
_atom_site_fract_y
_atom_site_fract_z
Si Si1 0.711569 0.133493 0.588634
Si Si2 0.585905 0.611894 0.477665
Si Si3 0.701244 0.138002 0.362736
Si Si4 0.069836 0.722835 0.343243
Si Si5 0.913207 0.473580 0.357533
Si Si6 0.998512 0.272743 0.169620
Si Si7 0.842741 0.765199 0.482019
Si Si8 0.218570 0.250000 0.250000
O O1 0.564467 0.177541 0.615112
O O2 0.702997 0.139252 0.525815
O O3 0.828873 0.225264 0.611072
O O4 0.750000 0.000000 0.606365
O O5 0.500000 0.500000 0.500000
O O6 0.590459 0.587278 0.415232
O O7 0.747302 0.645691 0.491332
O O8 0.499813 0.725709 0.500668
O O9 0.553096 0.176081 0.334629
O O10 0.680890 0.190134 0.422409
O O11 0.832362 0.196931 0.331057
O O12 0.750000 0.000000 0.366298
O O13 0.992984 0.600038 0.359275
O O14 0.172527 0.698081 0.293506
O O15 0.750000 0.500000 0.340429
O O16 0.998947 0.372199 0.325386
O O17 0.106408 0.323933 0.213600
#
# Coordination Sequence:
#
# PCOD9412951 Si02
#       8
#     8   8   8   8   8   8   8   4
#     4  11  23  42  66 101 147 189 236 284 337 414
#     4  12  23  35  62 100 143 190 231 279 334 411
#     4  12  24  44  71 102 142 189 236 286 348 425
#     4  11  25  47  73 102 139 182 234 300 355 418
#     4  12  22  46  73 104 147 180 235 294 355 416
#     4  11  24  49  71 100 140 181 231 296 359 418
#     4  12  22  40  62 101 145 188 240 275 337 413
#     4  10  28  52  72 102 132 168 242 284 376 436
#
# _framework density 22.725795999999999
#
# number of rings (size 3 to 8) (size 9 to 14) (size 15 to 20)
#    0.000    0.533    4.000    4.800    0.000    2.667 
#   14.400    4.000    0.000    0.000    0.000    0.000 
#    0.000    0.000    0.000    0.000    0.000    0.000 
#
# Total GULP energy -335015.137362 kJ/mol
# GULP energy per Si atom -5583.585623 kJ/mol
# Density = 2.267407 g / cm^3
# Si number density = 22.725796 Si / 1000 Ang^3
#
#
#
# Elastic Constant Matrix: (Units=GPa)
#
#
# Indices 1 2 3 4 5 6 
#
# 1 122.0668 5.6268 34.2586 0.0000 0.0000 0.0000
# 2 5.6268 95.4617 14.2400 0.0000 0.0000 0.0000
# 3 34.2586 14.2400 83.1557 0.0000 0.0000 0.0000
# 4 0.0000 0.0000 0.0000 11.0248 0.0000 0.0000
# 5 0.0000 0.0000 0.0000 0.0000 23.0731 0.0000
# 6 0.0000 0.0000 0.0000 0.0000 0.0000 26.6833
#
#
#
# Elastic Compliance Matrix: (Units=1/GPa)
#
#
# Indices 1 2 3 4 5 6 
#
# 1 0.009263 0.000024 -0.003820 0.000000 0.000000 0.000000
# 2 0.000024 0.010750 -0.001851 0.000000 0.000000 0.000000
# 3 -0.003820 -0.001851 0.013917 0.000000 0.000000 0.000000
# 4 0.000000 0.000000 0.000000 0.090705 0.000000 0.000000
# 5 0.000000 0.000000 0.000000 0.000000 0.043341 0.000000
# 6 0.000000 0.000000 0.000000 0.000000 0.000000 0.037477
#
#
# Mechanical properties :
#
#
# Convention : Reuss Voigt Hill
#
# Bulk Modulus (GPa) = 44.17861 45.43721 44.80791
# Shear Modulus (GPa) = 22.29241 28.59349 25.44295
#
# Velocity S-wave (km/s) = 3.13538 3.55095 3.34962
# Velocity P-wave (km/s) = 5.70872 6.07037 5.89232
#
# Compressibility (1/GPa) = 0.02263539
#
# Stress axis : x y z
#
# Youngs Moduli (GPa) = 107.95227 93.02262 71.85715
#
# Poissons Ratio (x) = -0.00222 0.27452
# Poissons Ratio (y) = -0.00258 0.13299
# Poissons Ratio (z) = 0.41242 0.17216
#
# Static dielectric constant tensor:
#      x y z
#    x 1.858440 0.000000 0.000000 
#    y 0.000000 1.873850 0.000000 
#    z 0.000000 0.000000 1.889360 
# 
# From -- ./inp_files/42353.got.cif
#   From: 2010.05.17/outbox.cif.g08.bks.cpg/sg52_22_cif.got.tgz:42353.got - 2010.06.03 12:15:38.
