data_PCOD9412174
_publ_section_title
;
Structure prediction by ZEFSAII (Michael W. Deem and Ramdas Pophale) SiO2 
 PCOD9412174
Probable space group: P N N A
;
_chemical_formula_sum "Si O2"
_cell_formula_units_Z 64
_cell_length_a 14.338098
_cell_length_b 19.168335
_cell_length_c 8.793708
_cell_angle_alpha 90.000000
_cell_angle_beta 90.000000
_cell_angle_gamma 90.000000
_cell_volume 2416.840421
_symmetry_space_group_name_H-M "P N N A"
_symmetry_group_IT_number 52
_symmetry_cell_setting 'orthorhombic'
loop_
_space_group_symop_operation_xyz
x,y,z
1/2-x,-y,z
x,1/2-y,1/2-z
1/2-x,1/2+y,1/2-z
-x,-y,-z
1/2+x,y,-z
-x,1/2+y,1/2+z
1/2+x,1/2-y,1/2+z
loop_
_atom_site_type_symbol
_atom_site_label
_atom_site_fract_x
_atom_site_fract_y
_atom_site_fract_z
Si Si1 0.312541 0.220346 0.919924
Si Si2 0.963730 0.803593 0.615074
Si Si3 0.163729 0.072118 0.477422
Si Si4 0.135767 0.633177 0.991729
Si Si5 0.163818 0.064639 0.137584
Si Si6 0.096681 0.316335 0.556049
Si Si7 0.132875 0.575221 0.453175
Si Si8 0.479794 0.918176 0.718706
O O1 0.328790 0.250000 0.750000
O O2 0.203323 0.206546 0.934859
O O3 0.332304 0.287542 0.024980
O O4 0.365557 0.146902 0.951710
O O5 0.945453 0.750000 0.750000
O O6 0.054146 0.852738 0.634356
O O7 0.879139 0.852493 0.566241
O O8 0.971789 0.747095 0.478578
O O9 0.271238 0.085650 0.528022
O O10 0.932142 0.103723 0.618730
O O11 0.094938 0.042958 0.609654
O O12 0.228389 0.588913 0.356978
O O13 0.345502 0.994318 0.005399
O O14 0.149540 0.037514 0.310276
O O15 0.098939 0.127069 0.082088
O O16 0.076484 0.352916 0.714960
O O17 0.035427 0.560239 0.369666
#
# Coordination Sequence:
#
# PCOD9412174 Si02
#       8
#     8   8   8   8   8   8   8   8
#     4  11  23  41  69 104 145 183 231 306 377 437
#     4  11  22  37  62 100 137 177 237 294 367 453
#     4  11  22  42  68  98 139 189 236 302 374 436
#     4  11  23  39  64  99 143 180 225 295 373 436
#     4  10  22  45  73  92 144 198 247 300 364 454
#     4  11  23  40  65 104 143 185 235 301 370 445
#     4  10  23  44  70 104 135 196 254 296 371 451
#     4  11  25  41  68 104 139 182 243 304 365 445
#
# _framework density 26.480854999999998
#
# number of rings (size 3 to 8) (size 9 to 14) (size 15 to 20)
#    0.000    1.250    3.750    1.875    1.750    3.500 
#    2.250    0.000    2.750    1.500    0.000    0.000 
#    0.000    0.000    0.000    0.000    0.000    0.000 
#
# Total GULP energy -356575.911208 kJ/mol
# GULP energy per Si atom -5571.498613 kJ/mol
# Density = 2.642058 g / cm^3
# Si number density = 26.480855 Si / 1000 Ang^3
#
#
#
# Elastic Constant Matrix: (Units=GPa)
#
#
# Indices 1 2 3 4 5 6 
#
# 1 180.6890 39.7749 28.8402 0.0000 0.0000 0.0000
# 2 39.7749 113.4297 32.7552 0.0000 0.0000 0.0000
# 3 28.8402 32.7552 82.2747 0.0000 0.0000 0.0000
# 4 0.0000 0.0000 0.0000 33.2952 0.0000 0.0000
# 5 0.0000 0.0000 0.0000 0.0000 32.6450 0.0000
# 6 0.0000 0.0000 0.0000 0.0000 0.0000 32.1910
#
#
#
# Elastic Compliance Matrix: (Units=1/GPa)
#
#
# Indices 1 2 3 4 5 6 
#
# 1 0.006150 -0.001733 -0.001466 0.000000 0.000000 0.000000
# 2 -0.001733 0.010450 -0.003553 0.000000 0.000000 0.000000
# 3 -0.001466 -0.003553 0.014083 0.000000 0.000000 0.000000
# 4 0.000000 0.000000 0.000000 0.030034 0.000000 0.000000
# 5 0.000000 0.000000 0.000000 0.000000 0.030633 0.000000
# 6 0.000000 0.000000 0.000000 0.000000 0.000000 0.031065
#
#
# Mechanical properties :
#
#
# Convention : Reuss Voigt Hill
#
# Bulk Modulus (GPa) = 58.21091 64.34822 61.27956
# Shear Modulus (GPa) = 35.29996 37.96111 36.63054
#
# Velocity S-wave (km/s) = 3.65504 3.79031 3.72329
# Velocity P-wave (km/s) = 6.31208 6.59605 6.45563
#
# Compressibility (1/GPa) = 0.01717891
#
# Stress axis : x y z
#
# Youngs Moduli (GPa) = 162.60552 95.69642 71.00969
#
# Poissons Ratio (x) = 0.16586 0.10408
# Poissons Ratio (y) = 0.28183 0.25227
# Poissons Ratio (z) = 0.23833 0.33998
#
# Static dielectric constant tensor:
#      x y z
#    x 2.119750 0.000000 0.000000 
#    y 0.000000 2.160730 0.000000 
#    z 0.000000 0.000000 2.222520 
# 
# From -- ./inp_files/12604.got.cif
#   From: 2010.05.17/outbox.cif.g08.bks.cpg/sg52_7_cif.got.tgz:12604.got - 2010.06.03 12:15:38.
