data_PCOD9412521
_publ_section_title
;
Structure prediction by ZEFSAII (Michael W. Deem and Ramdas Pophale) SiO2 
 PCOD9412521
Probable space group: P N N A
;
_chemical_formula_sum "Si O2"
_cell_formula_units_Z 20
_cell_length_a 11.095817
_cell_length_b 5.047837
_cell_length_c 15.652760
_cell_angle_alpha 90.000000
_cell_angle_beta 90.000000
_cell_angle_gamma 90.000000
_cell_volume 876.709140
_symmetry_space_group_name_H-M "P N N A"
_symmetry_group_IT_number 52
_symmetry_cell_setting 'orthorhombic'
loop_
_space_group_symop_operation_xyz
x,y,z
1/2-x,-y,z
x,1/2-y,1/2-z
1/2-x,1/2+y,1/2-z
-x,-y,-z
1/2+x,y,-z
-x,1/2+y,1/2+z
1/2+x,1/2-y,1/2+z
loop_
_atom_site_type_symbol
_atom_site_label
_atom_site_fract_x
_atom_site_fract_y
_atom_site_fract_z
Si Si1 0.250000 0.500000 0.953622
Si Si2 0.041048 0.250000 0.750000
Si Si3 0.670525 0.770194 0.617978
Si Si4 0.250000 0.000000 0.832185
O O1 0.229164 0.250137 0.893747
O O2 0.347463 0.390655 0.022726
O O3 0.133344 0.014384 0.771662
O O4 0.952158 0.245003 0.669287
O O5 0.750000 0.500000 0.613316
O O6 0.750000 0.000000 0.663034
#
# Coordination Sequence:
#
# PCOD9412521 Si02
#       4
#     4   4   8   4
#     4  10  23  50  69 106 142 180 252 274 371 400
#     4  12  28  46  74 104 152 182 246 282 366 416
#     4  10  23  47  77 105 132 189 243 302 335 419
#     4  12  27  46  67 108 146 196 216 298 357 438
#
# _framework density 22.812583
#
# number of rings (size 3 to 8) (size 9 to 14) (size 15 to 20)
#    1.200    0.000    2.000    2.400    0.000   12.800 
#    0.000    0.000    0.000    0.000    0.000    0.000 
#    0.000    0.000    0.000    0.000    0.000    0.000 
#
# Total GULP energy -111389.793236 kJ/mol
# GULP energy per Si atom -5569.489662 kJ/mol
# Density = 2.276066 g / cm^3
# Si number density = 22.812583 Si / 1000 Ang^3
#
#
#
# Elastic Constant Matrix: (Units=GPa)
#
#
# Indices 1 2 3 4 5 6 
#
# 1 170.2764 76.2845 63.7235 0.0000 0.0000 0.0000
# 2 76.2845 209.9933 74.9898 0.0000 0.0000 0.0000
# 3 63.7235 74.9898 152.9682 0.0000 0.0000 0.0000
# 4 0.0000 0.0000 0.0000 19.8546 0.0000 0.0000
# 5 0.0000 0.0000 0.0000 0.0000 2602.7056 0.0000
# 6 0.0000 0.0000 0.0000 0.0000 0.0000 23.8668
#
#
#
# Elastic Compliance Matrix: (Units=1/GPa)
#
#
# Indices 1 2 3 4 5 6 
#
# 1 0.007575 -0.001970 -0.002190 0.000000 0.000000 0.000000
# 2 -0.001970 0.006285 -0.002260 0.000000 0.000000 0.000000
# 3 -0.002190 -0.002260 0.008558 0.000000 0.000000 0.000000
# 4 0.000000 0.000000 0.000000 0.050366 0.000000 0.000000
# 5 0.000000 0.000000 0.000000 0.000000 0.000384 0.000000
# 6 0.000000 0.000000 0.000000 0.000000 0.000000 0.041899
#
#
# Mechanical properties :
#
#
# Convention : Reuss Voigt Hill
#
# Bulk Modulus (GPa) = 104.41466 107.02595 105.72030
# Shear Modulus (GPa) = 38.13903 550.50141 294.32022
#
# Velocity S-wave (km/s) = 4.09325 15.55116 11.37087
# Velocity P-wave (km/s) = 8.25891 19.22157 14.79321
#
# Compressibility (1/GPa) = 0.00957720
#
# Stress axis : x y z
#
# Youngs Moduli (GPa) = 132.01735 159.11372 116.85332
#
# Poissons Ratio (x) = 0.31340 0.25590
# Poissons Ratio (y) = 0.26003 0.26415
# Poissons Ratio (z) = 0.28910 0.35968
#
# Static dielectric constant tensor:
#      x y z
#    x 1.875220 0.000000 0.000000 
#    y 0.000000 1.886090 0.000000 
#    z 0.000000 0.000000 1.911630 
# 
# From -- ./inp_files/25305.got.cif
#   From: 2010.05.17/outbox.cif.g08.bks.cpg/sg52_13_cif.got.tgz:25305.got - 2010.06.03 12:15:38.
