data_PCOD9412983
_publ_section_title
;
Structure prediction by ZEFSAII (Michael W. Deem and Ramdas Pophale) SiO2 
 PCOD9412983
Probable space group: P N N A
;
_chemical_formula_sum "Si O2"
_cell_formula_units_Z 48
_cell_length_a 20.144842
_cell_length_b 26.828421
_cell_length_c 4.974468
_cell_angle_alpha 90.000000
_cell_angle_beta 90.000000
_cell_angle_gamma 90.000000
_cell_volume 2688.472632
_symmetry_space_group_name_H-M "P N N A"
_symmetry_group_IT_number 52
_symmetry_cell_setting 'orthorhombic'
loop_
_space_group_symop_operation_xyz
x,y,z
1/2-x,-y,z
x,1/2-y,1/2-z
1/2-x,1/2+y,1/2-z
-x,-y,-z
1/2+x,y,-z
-x,1/2+y,1/2+z
1/2+x,1/2-y,1/2+z
loop_
_atom_site_type_symbol
_atom_site_label
_atom_site_fract_x
_atom_site_fract_y
_atom_site_fract_z
Si Si1 0.480955 0.402579 0.973945
Si Si2 0.889875 0.695897 0.193866
Si Si3 0.861187 0.911153 0.447531
Si Si4 0.680036 0.027428 0.932687
Si Si5 0.558527 0.959331 0.980083
Si Si6 0.015816 0.303217 0.296949
O O1 0.439105 0.438532 0.781174
O O2 0.475585 0.348690 0.833050
O O3 0.560424 0.413767 0.974210
O O4 0.460013 0.414518 0.277421
O O5 0.857986 0.750000 0.250000
O O6 0.850153 0.644304 0.174535
O O7 0.951614 0.689823 0.407344
O O8 0.920738 0.700277 0.898718
O O9 0.822389 0.928671 0.711703
O O10 0.842067 0.949275 0.215120
O O11 0.750000 0.000000 0.944218
O O12 0.623489 0.986617 0.872898
O O13 0.500000 0.000000 0.000000
O O14 0.980880 0.250000 0.250000
#
# Coordination Sequence:
#
# PCOD9412983 Si02
#       6
#     8   8   8   8   8   8
#     4  11  19  32  55  80 101 138 174 219 265 306
#     4   9  17  29  49  77 106 134 166 212 268 319
#     4  11  19  35  54  76 107 138 171 216 268 310
#     4  12  25  37  51  75 107 147 178 216 262 311
#     4  12  21  35  53  77 104 136 182 215 254 310
#     4   9  17  29  46  76 112 134 160 209 274 326
#
# _framework density 17.854002999999999
#
# number of rings (size 3 to 8) (size 9 to 14) (size 15 to 20)
#    0.000    1.333    3.333    6.000    0.000    0.000 
#    0.000    0.000    0.000    0.000    0.000    7.000 
#    0.000    0.000    0.000    0.000    0.000    0.000 
#
# Total GULP energy -267327.537937 kJ/mol
# GULP energy per Si atom -5569.323707 kJ/mol
# Density = 1.781337 g / cm^3
# Si number density = 17.854003 Si / 1000 Ang^3
#
#
#
# Elastic Constant Matrix: (Units=GPa)
#
#
# Indices 1 2 3 4 5 6 
#
# 1 47.1824 45.3378 0.0270 0.0000 0.0000 0.0000
# 2 45.3378 106.6071 19.6124 0.0000 0.0000 0.0000
# 3 0.0270 19.6124 89.1876 0.0000 0.0000 0.0000
# 4 0.0000 0.0000 0.0000 32.9122 0.0000 0.0000
# 5 0.0000 0.0000 0.0000 0.0000 -1.8732 0.0000
# 6 0.0000 0.0000 0.0000 0.0000 0.0000 12.7446
#
#
#
# Elastic Compliance Matrix: (Units=1/GPa)
#
#
# Indices 1 2 3 4 5 6 
#
# 1 0.036909 -0.016356 0.003586 0.000000 0.000000 0.000000
# 2 -0.016356 0.017024 -0.003739 0.000000 0.000000 0.000000
# 3 0.003586 -0.003739 0.012033 0.000000 0.000000 0.000000
# 4 0.000000 0.000000 0.000000 0.030384 0.000000 0.000000
# 5 0.000000 0.000000 0.000000 0.000000 -0.533837 0.000000
# 6 0.000000 0.000000 0.000000 0.000000 0.000000 0.078464
#
#
# Mechanical properties :
#
#
# Convention : Reuss Voigt Hill
#
# Bulk Modulus (GPa) = 30.35103 41.43683 35.89393
# Shear Modulus (GPa) = -15.87195 20.62338 2.37572
#
# Velocity S-wave (km/s) = -2.98482 3.40238 1.15478
# Velocity P-wave (km/s) = 2.27104 6.22045 4.68250
#
# Compressibility (1/GPa) = 0.03294781
#
# Stress axis : x y z
#
# Youngs Moduli (GPa) = 27.09353 58.74046 83.10226
#
# Poissons Ratio (x) = 0.96078 -0.29797
# Poissons Ratio (y) = 0.44315 0.31069
# Poissons Ratio (z) = -0.09715 0.21961
#
# Static dielectric constant tensor:
#      x y z
#    x 1.565600 0.000000 0.000000 
#    y 0.000000 1.752060 0.000000 
#    z 0.000000 0.000000 1.631560 
# 
# From -- ./inp_files/4491.got.cif
#   From: 2010.05.17/outbox.cif.g08.bks.cpg/sg52_3_cif.got.tgz:4491.got - 2010.06.03 12:15:38.
