data_PCOD9412645
_publ_section_title
;
Structure prediction by ZEFSAII (Michael W. Deem and Ramdas Pophale) SiO2 
 PCOD9412645
Probable space group: P N N A
;
_chemical_formula_sum "Si O2"
_cell_formula_units_Z 40
_cell_length_a 23.497283
_cell_length_b 10.048412
_cell_length_c 8.890164
_cell_angle_alpha 90.000000
_cell_angle_beta 90.000000
_cell_angle_gamma 90.000000
_cell_volume 2099.060004
_symmetry_space_group_name_H-M "P N N A"
_symmetry_group_IT_number 52
_symmetry_cell_setting 'orthorhombic'
loop_
_space_group_symop_operation_xyz
x,y,z
1/2-x,-y,z
x,1/2-y,1/2-z
1/2-x,1/2+y,1/2-z
-x,-y,-z
1/2+x,y,-z
-x,1/2+y,1/2+z
1/2+x,1/2-y,1/2+z
loop_
_atom_site_type_symbol
_atom_site_label
_atom_site_fract_x
_atom_site_fract_y
_atom_site_fract_z
Si Si1 0.875098 0.741351 0.430863
Si Si2 0.135664 0.771967 0.428150
Si Si3 0.749411 0.162701 0.401816
Si Si4 0.935627 0.010188 0.940100
Si Si5 0.440315 0.523672 0.080478
O O1 0.881960 0.750000 0.250000
O O2 0.811421 0.791104 0.467982
O O3 0.893123 0.596186 0.485379
O O4 0.917181 0.838518 0.518269
O O5 0.142791 0.750000 0.250000
O O6 0.197437 0.788129 0.500336
O O7 0.094056 0.651447 0.474293
O O8 0.102796 0.907188 0.465535
O O9 0.753921 0.250000 0.250000
O O10 0.750000 0.000000 0.381950
O O11 0.941156 0.984251 0.761213
O O12 0.000000 0.000000 0.000000
O O13 0.500000 0.500000 0.000000
#
# Coordination Sequence:
#
# PCOD9412645 Si02
#       5
#     8   8   8   8   8
#     4  11  24  41  63  94 130 170 218 268 320 389
#     4  10  24  43  64  93 130 168 213 267 326 390
#     4  11  25  44  68  97 130 170 220 270 327 388
#     4  11  24  41  65  99 130 169 218 265 328 394
#     4  11  22  41  66  93 130 171 214 270 328 388
#
# _framework density 19.056149000000001
#
# number of rings (size 3 to 8) (size 9 to 14) (size 15 to 20)
#    0.000    1.200    2.000    3.000    5.600    4.800 
#    0.000    0.000    0.000    0.000    0.000    0.000 
#    0.000    0.000    0.000    0.000    0.000    0.000 
#
# Total GULP energy -223303.020682 kJ/mol
# GULP energy per Si atom -5582.575517 kJ/mol
# Density = 1.901278 g / cm^3
# Si number density = 19.056149 Si / 1000 Ang^3
#
#
#
# Elastic Constant Matrix: (Units=GPa)
#
#
# Indices 1 2 3 4 5 6 
#
# 1 104.9184 -1.7478 19.5552 0.0000 0.0000 0.0000
# 2 -1.7478 73.6504 5.7326 0.0000 0.0000 0.0000
# 3 19.5552 5.7326 35.9723 0.0000 0.0000 0.0000
# 4 0.0000 0.0000 0.0000 28.8991 0.0000 0.0000
# 5 0.0000 0.0000 0.0000 0.0000 22.8872 0.0000
# 6 0.0000 0.0000 0.0000 0.0000 0.0000 29.0000
#
#
#
# Elastic Compliance Matrix: (Units=1/GPa)
#
#
# Indices 1 2 3 4 5 6 
#
# 1 0.010643 0.000712 -0.005899 0.000000 0.000000 0.000000
# 2 0.000712 0.013796 -0.002585 0.000000 0.000000 0.000000
# 3 -0.005899 -0.002585 0.031418 0.000000 0.000000 0.000000
# 4 0.000000 0.000000 0.000000 0.034603 0.000000 0.000000
# 5 0.000000 0.000000 0.000000 0.000000 0.043693 0.000000
# 6 0.000000 0.000000 0.000000 0.000000 0.000000 0.034483
#
#
# Mechanical properties :
#
#
# Convention : Reuss Voigt Hill
#
# Bulk Modulus (GPa) = 24.80710 29.06902 26.93806
# Shear Modulus (GPa) = 25.30148 28.89068 27.09608
#
# Velocity S-wave (km/s) = 3.64776 3.89791 3.77491
# Velocity P-wave (km/s) = 5.54867 5.96203 5.75906
#
# Compressibility (1/GPa) = 0.04031103
#
# Stress axis : x y z
#
# Youngs Moduli (GPa) = 93.96253 72.48593 31.82891
#
# Poissons Ratio (x) = -0.05159 0.18776
# Poissons Ratio (y) = -0.06687 0.08229
# Poissons Ratio (z) = 0.55428 0.18741
#
# Static dielectric constant tensor:
#      x y z
#    x 1.700560 0.000000 0.000000 
#    y 0.000000 1.644530 0.000000 
#    z 0.000000 0.000000 1.615240 
# 
# From -- ./inp_files/13947.got.cif
#   From: 2010.05.17/outbox.cif.g08.bks.cpg/sg52_7_cif.got.tgz:13947.got - 2010.06.03 12:15:38.
