data_PCOD9412142
_publ_section_title
;
Structure prediction by ZEFSAII (Michael W. Deem and Ramdas Pophale) SiO2 
 PCOD9412142
Probable space group: P N N A
;
_chemical_formula_sum "Si O2"
_cell_formula_units_Z 64
_cell_length_a 8.509603
_cell_length_b 29.235144
_cell_length_c 11.064195
_cell_angle_alpha 90.000000
_cell_angle_beta 90.000000
_cell_angle_gamma 90.000000
_cell_volume 2752.544558
_symmetry_space_group_name_H-M "P N N A"
_symmetry_group_IT_number 52
_symmetry_cell_setting 'orthorhombic'
loop_
_space_group_symop_operation_xyz
x,y,z
1/2-x,-y,z
x,1/2-y,1/2-z
1/2-x,1/2+y,1/2-z
-x,-y,-z
1/2+x,y,-z
-x,1/2+y,1/2+z
1/2+x,1/2-y,1/2+z
loop_
_atom_site_type_symbol
_atom_site_label
_atom_site_fract_x
_atom_site_fract_y
_atom_site_fract_z
Si Si1 0.344059 0.939418 0.429129
Si Si2 0.800726 0.206633 0.040536
Si Si3 0.940815 0.770109 0.507026
Si Si4 0.032800 0.908600 0.143151
Si Si5 0.855726 0.877913 0.908444
Si Si6 0.474583 0.146156 0.664113
Si Si7 0.506500 0.528647 0.842855
Si Si8 0.139725 0.171197 0.717717
O O1 0.425642 0.890597 0.411654
O O2 0.370561 0.957978 0.564212
O O3 0.162728 0.944224 0.391660
O O4 0.444594 0.975960 0.350352
O O5 0.740198 0.255086 0.988101
O O6 0.727287 0.199329 0.173933
O O7 0.750588 0.162878 0.964584
O O8 0.982046 0.219882 0.026510
O O9 0.947759 0.796682 0.378981
O O10 0.984657 0.803952 0.613621
O O11 0.220766 0.911467 0.139224
O O12 0.969365 0.953002 0.211120
O O13 0.978361 0.864872 0.222874
O O14 0.958065 0.900563 0.012863
O O15 0.967104 0.861215 0.800832
O O16 0.285679 0.143674 0.657442
#
# Coordination Sequence:
#
# PCOD9412142 Si02
#       8
#     8   8   8   8   8   8   8   8
#     4  10  23  42  73 104 141 174 224 288 354 423
#     4  11  24  44  63  90 131 179 234 281 348 404
#     4  12  25  40  66  95 130 175 231 290 346 406
#     4  11  23  45  70  98 138 186 225 281 345 417
#     4  11  24  43  69  96 136 187 232 282 341 410
#     4  12  25  42  66 100 135 182 230 289 348 415
#     4  10  22  44  72 106 140 177 222 288 353 422
#     4  11  25  44  65  94 138 179 231 296 345 418
#
# _framework density 23.251211999999999
#
# number of rings (size 3 to 8) (size 9 to 14) (size 15 to 20)
#    0.000    1.000    2.500    4.875    5.250    1.500 
#    0.000    0.625    0.000    0.000    0.000    0.000 
#    0.000    0.000    0.000    0.000    0.000    0.000 
#
# Total GULP energy -357898.925706 kJ/mol
# GULP energy per Si atom -5592.170714 kJ/mol
# Density = 2.319829 g / cm^3
# Si number density = 23.251212 Si / 1000 Ang^3
#
#
#
# Elastic Constant Matrix: (Units=GPa)
#
#
# Indices 1 2 3 4 5 6 
#
# 1 58.5297 2.5522 16.8519 0.0000 0.0000 0.0000
# 2 2.5522 46.2860 13.1318 0.0000 0.0000 0.0000
# 3 16.8519 13.1318 98.5712 0.0000 0.0000 0.0000
# 4 0.0000 0.0000 0.0000 26.8454 0.0000 0.0000
# 5 0.0000 0.0000 0.0000 0.0000 34.7897 0.0000
# 6 0.0000 0.0000 0.0000 0.0000 0.0000 27.9388
#
#
#
# Elastic Compliance Matrix: (Units=1/GPa)
#
#
# Indices 1 2 3 4 5 6 
#
# 1 0.017971 -0.000124 -0.003056 0.000000 0.000000 0.000000
# 2 -0.000124 0.022454 -0.002970 0.000000 0.000000 0.000000
# 3 -0.003056 -0.002970 0.011063 0.000000 0.000000 0.000000
# 4 0.000000 0.000000 0.000000 0.037250 0.000000 0.000000
# 5 0.000000 0.000000 0.000000 0.000000 0.028744 0.000000
# 6 0.000000 0.000000 0.000000 0.000000 0.000000 0.035792
#
#
# Mechanical properties :
#
#
# Convention : Reuss Voigt Hill
#
# Bulk Modulus (GPa) = 25.51796 29.82877 27.67336
# Shear Modulus (GPa) = 27.98966 29.30486 28.64726
#
# Velocity S-wave (km/s) = 3.47334 3.55400 3.51390
# Velocity P-wave (km/s) = 5.20424 5.44959 5.32833
#
# Compressibility (1/GPa) = 0.03918809
#
# Stress axis : x y z
#
# Youngs Moduli (GPa) = 55.64655 44.53491 90.39084
#
# Poissons Ratio (x) = 0.00552 0.27621
# Poissons Ratio (y) = 0.00690 0.26848
# Poissons Ratio (z) = 0.17004 0.13228
#
# Static dielectric constant tensor:
#      x y z
#    x 1.858260 0.000000 0.000000 
#    y 0.000000 1.862590 0.000000 
#    z 0.000000 0.000000 1.885200 
# 
# From -- ./inp_files/17249.got.cif
#   From: 2010.05.17/outbox.cif.g08.bks.cpg/sg52_9_cif.got.tgz:17249.got - 2010.06.03 12:15:38.
