data_PCOD9412370
_publ_section_title
;
Structure prediction by ZEFSAII (Michael W. Deem and Ramdas Pophale) SiO2 
 PCOD9412370
Probable space group: P N N A
;
_chemical_formula_sum "Si O2"
_cell_formula_units_Z 48
_cell_length_a 19.342535
_cell_length_b 13.869917
_cell_length_c 8.811995
_cell_angle_alpha 90.000000
_cell_angle_beta 90.000000
_cell_angle_gamma 90.000000
_cell_volume 2364.076335
_symmetry_space_group_name_H-M "P N N A"
_symmetry_group_IT_number 52
_symmetry_cell_setting 'orthorhombic'
loop_
_space_group_symop_operation_xyz
x,y,z
1/2-x,-y,z
x,1/2-y,1/2-z
1/2-x,1/2+y,1/2-z
-x,-y,-z
1/2+x,y,-z
-x,1/2+y,1/2+z
1/2+x,1/2-y,1/2+z
loop_
_atom_site_type_symbol
_atom_site_label
_atom_site_fract_x
_atom_site_fract_y
_atom_site_fract_z
Si Si1 0.023074 0.390675 0.058297
Si Si2 0.807208 0.572365 0.595896
Si Si3 0.584635 0.837900 0.645946
Si Si4 0.955720 0.501708 0.650652
Si Si5 0.237560 0.605316 0.075381
Si Si6 0.847241 0.731514 0.072290
O O1 0.028275 0.409096 0.237440
O O2 0.093607 0.340895 0.995996
O O3 0.000000 0.500000 0.000000
O O4 0.962300 0.321261 0.000833
O O5 0.750000 0.500000 0.524782
O O6 0.874310 0.507339 0.621225
O O7 0.774029 0.606761 0.757225
O O8 0.837146 0.664617 0.507699
O O9 0.604721 0.750000 0.750000
O O10 0.656052 0.884072 0.594259
O O11 0.536551 0.903625 0.754372
O O12 0.000000 0.500000 0.500000
O O13 0.250000 0.500000 0.010457
O O14 0.274525 0.680614 0.966771
O O15 0.859775 0.750000 0.250000
#
# Coordination Sequence:
#
# PCOD9412370 Si02
#       6
#     8   8   8   8   8   8
#     4  10  23  43  64  97 138 180 222 285 357 430
#     4  11  23  45  70  97 133 181 243 291 354 431
#     4  11  22  41  68  95 135 177 229 284 359 431
#     4  11  24  42  67  98 133 179 231 296 357 427
#     4  11  21  45  72  95 130 189 237 290 357 430
#     4  12  26  42  70 104 141 184 236 292 363 431
#
# _framework density 20.303913999999999
#
# number of rings (size 3 to 8) (size 9 to 14) (size 15 to 20)
#    0.000    1.000    5.000    3.000    7.000    0.667 
#    3.000    0.000    0.000    0.000    0.000    0.000 
#    0.000    0.000    0.000    0.000    0.000    0.000 
#
# Total GULP energy -267530.139674 kJ/mol
# GULP energy per Si atom -5573.544577 kJ/mol
# Density = 2.025770 g / cm^3
# Si number density = 20.303914 Si / 1000 Ang^3
#
#
#
# Elastic Constant Matrix: (Units=GPa)
#
#
# Indices 1 2 3 4 5 6 
#
# 1 108.5015 -3.6657 41.5082 0.0000 0.0000 0.0000
# 2 -3.6657 64.1244 17.2500 0.0000 0.0000 0.0000
# 3 41.5082 17.2500 98.4851 0.0000 0.0000 0.0000
# 4 0.0000 0.0000 0.0000 22.1747 0.0000 0.0000
# 5 0.0000 0.0000 0.0000 0.0000 21.2215 0.0000
# 6 0.0000 0.0000 0.0000 0.0000 0.0000 33.5435
#
#
#
# Elastic Compliance Matrix: (Units=1/GPa)
#
#
# Indices 1 2 3 4 5 6 
#
# 1 0.011230 0.002010 -0.005085 0.000000 0.000000 0.000000
# 2 0.002010 0.016726 -0.003777 0.000000 0.000000 0.000000
# 3 -0.005085 -0.003777 0.012958 0.000000 0.000000 0.000000
# 4 0.000000 0.000000 0.000000 0.045097 0.000000 0.000000
# 5 0.000000 0.000000 0.000000 0.000000 0.047122 0.000000
# 6 0.000000 0.000000 0.000000 0.000000 0.000000 0.029812
#
#
# Mechanical properties :
#
#
# Convention : Reuss Voigt Hill
#
# Bulk Modulus (GPa) = 36.75097 42.36623 39.55860
# Shear Modulus (GPa) = 26.92259 29.78917 28.35588
#
# Velocity S-wave (km/s) = 3.64535 3.83451 3.74113
# Velocity P-wave (km/s) = 5.98814 6.36522 6.17956
#
# Compressibility (1/GPa) = 0.02721017
#
# Stress axis : x y z
#
# Youngs Moduli (GPa) = 89.04984 59.78889 77.16977
#
# Poissons Ratio (x) = -0.12017 0.39241
# Poissons Ratio (y) = -0.17898 0.29144
# Poissons Ratio (z) = 0.45282 0.22580
#
# Static dielectric constant tensor:
#      x y z
#    x 1.146200 0.000000 0.000000 
#    y 0.000000 1.843100 0.000000 
#    z 0.000000 0.000000 1.789680 
# 
# From -- ./inp_files/12126.got.cif
#   From: 2010.05.17/outbox.cif.g08.bks.cpg/sg52_7_cif.got.tgz:12126.got - 2010.06.03 12:15:38.
