data_PCOD9412474
_publ_section_title
;
Structure prediction by ZEFSAII (Michael W. Deem and Ramdas Pophale) SiO2 
 PCOD9412474
Probable space group: P N N A
;
_chemical_formula_sum "Si O2"
_cell_formula_units_Z 32
_cell_length_a 14.924263
_cell_length_b 7.577113
_cell_length_c 12.214391
_cell_angle_alpha 90.000000
_cell_angle_beta 90.000000
_cell_angle_gamma 90.000000
_cell_volume 1381.237867
_symmetry_space_group_name_H-M "P N N A"
_symmetry_group_IT_number 52
_symmetry_cell_setting 'orthorhombic'
loop_
_space_group_symop_operation_xyz
x,y,z
1/2-x,-y,z
x,1/2-y,1/2-z
1/2-x,1/2+y,1/2-z
-x,-y,-z
1/2+x,y,-z
-x,1/2+y,1/2+z
1/2+x,1/2-y,1/2+z
loop_
_atom_site_type_symbol
_atom_site_label
_atom_site_fract_x
_atom_site_fract_y
_atom_site_fract_z
Si Si1 0.416867 0.970316 0.081940
Si Si2 0.750000 0.000000 0.068763
Si Si3 0.833780 0.250000 0.750000
Si Si4 0.011372 0.750000 0.750000
Si Si5 0.750000 0.500000 0.920818
Si Si6 0.327584 0.114498 0.631255
O O1 0.331057 0.936133 0.007905
O O2 0.393226 0.121020 0.172637
O O3 0.448671 0.808599 0.153445
O O4 0.500000 0.000000 0.000000
O O5 0.707555 0.816721 0.118294
O O6 0.768875 0.344351 0.836665
O O7 0.080642 0.890244 0.697198
O O8 0.669842 0.526433 0.010132
O O9 0.250000 0.000000 0.687820
#
# Coordination Sequence:
#
# PCOD9412474 Si02
#       6
#     8   4   4   4   4   8
#     4  12  27  47  71 111 151 194 259 320 375 466
#     4  12  23  49  76 102 158 200 245 327 382 438
#     4  12  24  41  75 112 144 208 250 315 395 448
#     4  12  26  47  75 114 154 204 258 311 395 458
#     4  10  23  45  70 108 146 190 265 303 378 464
#     4  10  25  46  74 110 150 199 256 314 381 455
#
# _framework density 23.167624
#
# number of rings (size 3 to 8) (size 9 to 14) (size 15 to 20)
#    0.750    0.000    5.000    0.750    5.250    3.000 
#    0.000    3.750    0.000    0.000    0.000    0.000 
#    0.000    0.000    0.000    0.000    0.000    0.000 
#
# Total GULP energy -178391.561288 kJ/mol
# GULP energy per Si atom -5574.736290 kJ/mol
# Density = 2.311489 g / cm^3
# Si number density = 23.167624 Si / 1000 Ang^3
#
#
#
# Elastic Constant Matrix: (Units=GPa)
#
#
# Indices 1 2 3 4 5 6 
#
# 1 122.1370 26.7123 24.1762 0.0000 0.0000 0.0000
# 2 26.7123 59.2401 10.6661 0.0000 0.0000 0.0000
# 3 24.1762 10.6661 79.8535 0.0000 0.0000 0.0000
# 4 0.0000 0.0000 0.0000 44.8141 0.0000 0.0000
# 5 0.0000 0.0000 0.0000 0.0000 10.6288 0.0000
# 6 0.0000 0.0000 0.0000 0.0000 0.0000 39.2137
#
#
#
# Elastic Compliance Matrix: (Units=1/GPa)
#
#
# Indices 1 2 3 4 5 6 
#
# 1 0.009499 -0.003858 -0.002360 0.000000 0.000000 0.000000
# 2 -0.003858 0.018863 -0.001352 0.000000 0.000000 0.000000
# 3 -0.002360 -0.001352 0.013418 0.000000 0.000000 0.000000
# 4 0.000000 0.000000 0.000000 0.022314 0.000000 0.000000
# 5 0.000000 0.000000 0.000000 0.000000 0.094084 0.000000
# 6 0.000000 0.000000 0.000000 0.000000 0.000000 0.025501
#
#
# Mechanical properties :
#
#
# Convention : Reuss Voigt Hill
#
# Bulk Modulus (GPa) = 37.53750 42.70441 40.12096
# Shear Modulus (GPa) = 24.07325 32.24307 28.15816
#
# Velocity S-wave (km/s) = 3.22699 3.73464 3.49006
# Velocity P-wave (km/s) = 5.48838 6.08847 5.79620
#
# Compressibility (1/GPa) = 0.02664003
#
# Stress axis : x y z
#
# Youngs Moduli (GPa) = 105.27930 53.01260 74.52627
#
# Poissons Ratio (x) = 0.20453 0.17591
# Poissons Ratio (y) = 0.40617 0.10073
# Poissons Ratio (z) = 0.24850 0.07165
#
# Static dielectric constant tensor:
#      x y z
#    x 1.829260 0.000000 0.000000 
#    y 0.000000 1.933440 0.000000 
#    z 0.000000 0.000000 1.973050 
# 
# From -- ./inp_files/18966.got.cif
#   From: 2010.05.17/outbox.cif.g08.bks.cpg/sg52_10_cif.got.tgz:18966.got - 2010.06.03 12:15:38.
