data_PCOD9412198
_publ_section_title
;
Structure prediction by ZEFSAII (Michael W. Deem and Ramdas Pophale) SiO2 
 PCOD9412198
Probable space group: P N N A
;
_chemical_formula_sum "Si O2"
_cell_formula_units_Z 60
_cell_length_a 9.190786
_cell_length_b 18.709814
_cell_length_c 15.966854
_cell_angle_alpha 90.000000
_cell_angle_beta 90.000000
_cell_angle_gamma 90.000000
_cell_volume 2745.626629
_symmetry_space_group_name_H-M "P N N A"
_symmetry_group_IT_number 52
_symmetry_cell_setting 'orthorhombic'
loop_
_space_group_symop_operation_xyz
x,y,z
1/2-x,-y,z
x,1/2-y,1/2-z
1/2-x,1/2+y,1/2-z
-x,-y,-z
1/2+x,y,-z
-x,1/2+y,1/2+z
1/2+x,1/2-y,1/2+z
loop_
_atom_site_type_symbol
_atom_site_label
_atom_site_fract_x
_atom_site_fract_y
_atom_site_fract_z
Si Si1 0.242789 0.581452 0.325837
Si Si2 0.885582 0.531497 0.104552
Si Si3 0.985912 0.157172 0.705104
Si Si4 0.209337 0.281087 0.156654
Si Si5 0.507946 0.828617 0.131028
Si Si6 0.239177 0.750000 0.750000
Si Si7 0.352057 0.565370 0.079661
Si Si8 0.865001 0.447271 0.486684
O O1 0.250000 0.500000 0.295224
O O2 0.403321 0.615832 0.318583
O O3 0.201388 0.576089 0.423994
O O4 0.119288 0.628069 0.279410
O O5 0.750000 0.500000 0.155073
O O6 0.983393 0.588705 0.149606
O O7 0.984907 0.463556 0.084710
O O8 0.825270 0.569707 0.020349
O O9 0.144135 0.189069 0.724310
O O10 0.884854 0.215296 0.657101
O O11 0.172013 0.250000 0.250000
O O12 0.113817 0.228411 0.099458
O O13 0.168901 0.361788 0.130134
O O14 0.630373 0.784678 0.181663
O O15 0.586685 0.877654 0.063119
O O16 0.250000 0.500000 0.108270
O O17 0.750000 0.500000 0.441874
O O18 0.000000 0.500000 0.500000
#
# Coordination Sequence:
#
# PCOD9412198 Si02
#       8
#     8   8   8   8   8   4   8   8
#     4  11  24  45  77 108 142 197 252 303 381 450
#     4  10  24  43  70 105 133 176 252 307 366 422
#     4  12  25  45  69 105 147 190 248 310 368 452
#     4  12  24  47  70 104 148 193 244 296 387 458
#     4  12  25  48  73  99 153 197 242 314 367 458
#     4  12  28  44  64 104 152 190 246 304 376 442
#     4  10  22  46  73  99 139 191 244 304 366 450
#     4  11  24  49  75 113 146 190 257 308 375 461
#
# _framework density 21.852937000000001
#
# number of rings (size 3 to 8) (size 9 to 14) (size 15 to 20)
#    0.000    0.800    6.667    0.000    5.600    1.067 
#    7.200    0.000    0.000    0.000    0.000    0.000 
#    0.000    0.000    0.000    0.000    0.000    0.000 
#
# Total GULP energy -334619.111025 kJ/mol
# GULP energy per Si atom -5576.985184 kJ/mol
# Density = 2.180320 g / cm^3
# Si number density = 21.852937 Si / 1000 Ang^3
#
#
#
# Elastic Constant Matrix: (Units=GPa)
#
#
# Indices 1 2 3 4 5 6 
#
# 1 152.7582 49.6914 23.3216 0.0000 0.0000 0.0000
# 2 49.6914 145.5429 35.6232 0.0000 0.0000 0.0000
# 3 23.3216 35.6232 71.0136 0.0000 0.0000 0.0000
# 4 0.0000 0.0000 0.0000 2.1686 0.0000 0.0000
# 5 0.0000 0.0000 0.0000 0.0000 23.5879 0.0000
# 6 0.0000 0.0000 0.0000 0.0000 0.0000 61.1957
#
#
#
# Elastic Compliance Matrix: (Units=1/GPa)
#
#
# Indices 1 2 3 4 5 6 
#
# 1 0.007474 -0.002224 -0.001339 0.000000 0.000000 0.000000
# 2 -0.002224 0.008494 -0.003531 0.000000 0.000000 0.000000
# 3 -0.001339 -0.003531 0.016293 0.000000 0.000000 0.000000
# 4 0.000000 0.000000 0.000000 0.461132 0.000000 0.000000
# 5 0.000000 0.000000 0.000000 0.000000 0.042395 0.000000
# 6 0.000000 0.000000 0.000000 0.000000 0.000000 0.016341
#
#
# Mechanical properties :
#
#
# Convention : Reuss Voigt Hill
#
# Bulk Modulus (GPa) = 55.32876 65.17636 60.25256
# Shear Modulus (GPa) = 8.73606 34.76901 21.75253
#
# Velocity S-wave (km/s) = 2.00158 3.99312 3.15843
# Velocity P-wave (km/s) = 5.54215 7.15190 6.39786
#
# Compressibility (1/GPa) = 0.01807378
#
# Stress axis : x y z
#
# Youngs Moduli (GPa) = 133.79355 117.72507 61.37742
#
# Poissons Ratio (x) = 0.26184 0.08218
# Poissons Ratio (y) = 0.29758 0.21670
# Poissons Ratio (z) = 0.17914 0.41565
#
# Static dielectric constant tensor:
#      x y z
#    x 1.897490 0.000000 0.000000 
#    y 0.000000 1.846250 0.000000 
#    z 0.000000 0.000000 1.870650 
# 
# From -- ./inp_files/31494.got.cif
#   From: 2010.05.17/outbox.cif.g08.bks.cpg/sg52_16_cif.got.tgz:31494.got - 2010.06.03 12:15:38.
