data_PCOD9412975
_publ_section_title
;
Structure prediction by ZEFSAII (Michael W. Deem and Ramdas Pophale) SiO2 
 PCOD9412975
Probable space group: P N N A
;
_chemical_formula_sum "Si O2"
_cell_formula_units_Z 32
_cell_length_a 8.709717
_cell_length_b 11.036690
_cell_length_c 14.832216
_cell_angle_alpha 90.000000
_cell_angle_beta 90.000000
_cell_angle_gamma 90.000000
_cell_volume 1425.768218
_symmetry_space_group_name_H-M "P N N A"
_symmetry_group_IT_number 52
_symmetry_cell_setting 'orthorhombic'
loop_
_space_group_symop_operation_xyz
x,y,z
1/2-x,-y,z
x,1/2-y,1/2-z
1/2-x,1/2+y,1/2-z
-x,-y,-z
1/2+x,y,-z
-x,1/2+y,1/2+z
1/2+x,1/2-y,1/2+z
loop_
_atom_site_type_symbol
_atom_site_label
_atom_site_fract_x
_atom_site_fract_y
_atom_site_fract_z
Si Si1 0.643194 0.244462 0.558078
Si Si2 0.126007 0.913269 0.543540
Si Si3 0.320308 0.118158 0.205499
Si Si4 0.909942 0.933286 0.081393
O O1 0.483216 0.186137 0.591819
O O2 0.778823 0.150052 0.537409
O O3 0.708456 0.350588 0.620841
O O4 0.614657 0.299994 0.459312
O O5 0.250000 0.000000 0.592997
O O6 0.000000 0.000000 0.500000
O O7 0.328426 0.250000 0.250000
O O8 0.484511 0.078723 0.168105
O O9 0.250000 0.000000 0.254676
O O10 0.750000 0.000000 0.096878
O O11 0.000000 0.000000 0.000000
#
# Coordination Sequence:
#
# PCOD9412975 Si02
#       4
#     8   8   8   8
#     4  11  18  37  68 100 129 180 247 300 337 430
#     4   9  19  31  55  99 139 172 225 295 354 408
#     4  12  27  46  71 106 149 192 235 312 382 436
#     4  12  20  40  78 104 129 181 260 296 337 436
#
# _framework density 22.444043000000001
#
# number of rings (size 3 to 8) (size 9 to 14) (size 15 to 20)
#    0.000    1.000    7.500    0.000    0.000    3.000 
#    0.000    1.250    5.500    0.000    0.000    0.000 
#    0.000    0.000    0.000    0.000    0.000    0.000 
#
# Total GULP energy -178516.478721 kJ/mol
# GULP energy per Si atom -5578.639960 kJ/mol
# Density = 2.239296 g / cm^3
# Si number density = 22.444043 Si / 1000 Ang^3
#
#
#
# Elastic Constant Matrix: (Units=GPa)
#
#
# Indices 1 2 3 4 5 6 
#
# 1 173.0204 69.6222 20.0922 0.0000 0.0000 0.0000
# 2 69.6222 129.9223 17.8815 0.0000 0.0000 0.0000
# 3 20.0922 17.8815 21.2126 0.0000 0.0000 0.0000
# 4 0.0000 0.0000 0.0000 33.7157 0.0000 0.0000
# 5 0.0000 0.0000 0.0000 0.0000 9.1955 0.0000
# 6 0.0000 0.0000 0.0000 0.0000 0.0000 63.6620
#
#
#
# Elastic Compliance Matrix: (Units=1/GPa)
#
#
# Indices 1 2 3 4 5 6 
#
# 1 0.007703 -0.003534 -0.004317 0.000000 0.000000 0.000000
# 2 -0.003534 0.010328 -0.005359 0.000000 0.000000 0.000000
# 3 -0.004317 -0.005359 0.055749 0.000000 0.000000 0.000000
# 4 0.000000 0.000000 0.000000 0.029660 0.000000 0.000000
# 5 0.000000 0.000000 0.000000 0.000000 0.108749 0.000000
# 6 0.000000 0.000000 0.000000 0.000000 0.000000 0.015708
#
#
# Mechanical properties :
#
#
# Convention : Reuss Voigt Hill
#
# Bulk Modulus (GPa) = 21.11510 59.92745 40.52128
# Shear Modulus (GPa) = 18.51143 35.75194 27.13169
#
# Velocity S-wave (km/s) = 2.87502 3.99549 3.48064
# Velocity P-wave (km/s) = 4.52209 6.93138 5.85206
#
# Compressibility (1/GPa) = 0.04735946
#
# Stress axis : x y z
#
# Youngs Moduli (GPa) = 129.82077 96.82339 17.93756
#
# Poissons Ratio (x) = 0.34214 0.07744
# Poissons Ratio (y) = 0.45873 0.09613
# Poissons Ratio (z) = 0.56049 0.51890
#
# Static dielectric constant tensor:
#      x y z
#    x 1.989390 0.000000 0.000000 
#    y 0.000000 2.727960 0.000000 
#    z 0.000000 0.000000 1.824290 
# 
# From -- ./inp_files/24168.got.cif
#   From: 2010.05.17/outbox.cif.g08.bks.cpg/sg52_13_cif.got.tgz:24168.got - 2010.06.03 12:15:38.
