data_PCOD9412733
_publ_section_title
;
Structure prediction by ZEFSAII (Michael W. Deem and Ramdas Pophale) SiO2 
 PCOD9412733
Probable space group: P N N A
;
_chemical_formula_sum "Si O2"
_cell_formula_units_Z 48
_cell_length_a 24.489892
_cell_length_b 10.180170
_cell_length_c 9.936272
_cell_angle_alpha 90.000000
_cell_angle_beta 90.000000
_cell_angle_gamma 90.000000
_cell_volume 2477.224530
_symmetry_space_group_name_H-M "P N N A"
_symmetry_group_IT_number 52
_symmetry_cell_setting 'orthorhombic'
loop_
_space_group_symop_operation_xyz
x,y,z
1/2-x,-y,z
x,1/2-y,1/2-z
1/2-x,1/2+y,1/2-z
-x,-y,-z
1/2+x,y,-z
-x,1/2+y,1/2+z
1/2+x,1/2-y,1/2+z
loop_
_atom_site_type_symbol
_atom_site_label
_atom_site_fract_x
_atom_site_fract_y
_atom_site_fract_z
Si Si1 0.029429 0.350337 0.638849
Si Si2 0.882218 0.051136 0.039099
Si Si3 0.893853 0.363325 0.020495
Si Si4 0.199641 0.906176 0.733551
Si Si5 0.004531 0.324462 0.120104
Si Si6 0.082969 0.523251 0.253042
O O1 0.051925 0.250000 0.750000
O O2 0.069342 0.470928 0.610580
O O3 0.020703 0.272722 0.499804
O O4 0.971087 0.400563 0.693452
O O5 0.828119 0.042388 0.128527
O O6 0.895030 0.205985 0.034045
O O7 0.881051 0.000706 0.885356
O O8 0.886975 0.397751 0.864401
O O9 0.846905 0.414068 0.118387
O O10 0.954184 0.411879 0.065728
O O11 0.213176 0.750000 0.750000
O O12 0.250000 0.000000 0.700483
O O13 0.981270 0.250000 0.250000
O O14 0.057111 0.398056 0.178611
#
# Coordination Sequence:
#
# PCOD9412733 Si02
#       6
#     8   8   8   8   8   8
#     4  12  23  36  56  93 137 177 208 245 298 373
#     4  11  22  40  62  88 125 166 206 255 310 373
#     4  11  22  39  62  89 123 165 211 253 308 372
#     4  10  24  46  69  90 114 158 219 279 330 376
#     4  12  22  36  56  90 139 177 206 245 298 374
#     4  12  22  37  56  91 133 171 209 245 302 377
#
# _framework density 19.376522999999999
#
# number of rings (size 3 to 8) (size 9 to 14) (size 15 to 20)
#    0.000    0.667    5.000    5.000    2.333    0.667 
#    0.000    0.833    0.000    0.000    0.000    0.000 
#    0.000    0.000    0.000    0.000    0.000    0.000 
#
# Total GULP energy -268325.650999 kJ/mol
# GULP energy per Si atom -5590.117729 kJ/mol
# Density = 1.933242 g / cm^3
# Si number density = 19.376523 Si / 1000 Ang^3
#
#
#
# Elastic Constant Matrix: (Units=GPa)
#
#
# Indices 1 2 3 4 5 6 
#
# 1 83.0173 42.5985 32.7204 0.0000 0.0000 0.0000
# 2 42.5985 61.4386 40.0413 0.0000 0.0000 0.0000
# 3 32.7204 40.0413 133.1932 0.0000 0.0000 0.0000
# 4 0.0000 0.0000 0.0000 37.1736 0.0000 0.0000
# 5 0.0000 0.0000 0.0000 0.0000 19.6535 0.0000
# 6 0.0000 0.0000 0.0000 0.0000 0.0000 32.4762
#
#
#
# Elastic Compliance Matrix: (Units=1/GPa)
#
#
# Indices 1 2 3 4 5 6 
#
# 1 0.018779 -0.012454 -0.000869 0.000000 0.000000 0.000000
# 2 -0.012454 0.028501 -0.005509 0.000000 0.000000 0.000000
# 3 -0.000869 -0.005509 0.009378 0.000000 0.000000 0.000000
# 4 0.000000 0.000000 0.000000 0.026901 0.000000 0.000000
# 5 0.000000 0.000000 0.000000 0.000000 0.050882 0.000000
# 6 0.000000 0.000000 0.000000 0.000000 0.000000 0.030792
#
#
# Mechanical properties :
#
#
# Convention : Reuss Voigt Hill
#
# Bulk Modulus (GPa) = 52.64822 56.48548 54.56685
# Shear Modulus (GPa) = 23.89754 28.67991 26.28873
#
# Velocity S-wave (km/s) = 3.51568 3.85143 3.68738
# Velocity P-wave (km/s) = 6.61137 6.99949 6.80819
#
# Compressibility (1/GPa) = 0.01899399
#
# Stress axis : x y z
#
# Youngs Moduli (GPa) = 53.25211 35.08600 106.63755
#
# Poissons Ratio (x) = 0.43695 0.09270
# Poissons Ratio (y) = 0.66318 0.58745
# Poissons Ratio (z) = 0.04629 0.19328
#
# Static dielectric constant tensor:
#      x y z
#    x 1.655090 0.000000 0.000000 
#    y 0.000000 1.744380 0.000000 
#    z 0.000000 0.000000 1.734240 
# 
# From -- ./inp_files/14221.got.cif
#   From: 2010.05.17/outbox.cif.g08.bks.cpg/sg52_8_cif.got.tgz:14221.got - 2010.06.03 12:15:38.
