data_PCOD9412727
_publ_section_title
;
Structure prediction by ZEFSAII (Michael W. Deem and Ramdas Pophale) SiO2 
 PCOD9412727
Probable space group: P N N A
;
_chemical_formula_sum "Si O2"
_cell_formula_units_Z 52
_cell_length_a 13.280962
_cell_length_b 7.618688
_cell_length_c 20.222560
_cell_angle_alpha 90.000000
_cell_angle_beta 90.000000
_cell_angle_gamma 90.000000
_cell_volume 2046.189517
_symmetry_space_group_name_H-M "P N N A"
_symmetry_group_IT_number 52
_symmetry_cell_setting 'orthorhombic'
loop_
_space_group_symop_operation_xyz
x,y,z
1/2-x,-y,z
x,1/2-y,1/2-z
1/2-x,1/2+y,1/2-z
-x,-y,-z
1/2+x,y,-z
-x,1/2+y,1/2+z
1/2+x,1/2-y,1/2+z
loop_
_atom_site_type_symbol
_atom_site_label
_atom_site_fract_x
_atom_site_fract_y
_atom_site_fract_z
Si Si1 0.278953 0.199177 0.144111
Si Si2 0.119670 0.833255 0.632819
Si Si3 0.562338 0.750000 0.750000
Si Si4 0.736842 0.750000 0.250000
Si Si5 0.250000 0.000000 0.519457
Si Si6 0.910398 0.569676 0.329059
Si Si7 0.898000 0.845249 0.591972
Si Si8 0.941911 0.060337 0.935642
O O1 0.365359 0.275578 0.189285
O O2 0.188706 0.335902 0.146426
O O3 0.338935 0.172123 0.073213
O O4 0.250000 0.000000 0.165874
O O5 0.167008 0.879191 0.705071
O O6 0.311158 0.666232 0.695420
O O7 0.009411 0.906864 0.612219
O O8 0.194401 0.870371 0.571913
O O9 0.490642 0.589603 0.730031
O O10 0.607961 0.625519 0.353997
O O11 0.159702 0.076470 0.472411
O O12 0.971824 0.650760 0.390761
O O13 0.908273 0.633316 0.586834
O O14 0.000000 0.000000 0.000000
#
# Coordination Sequence:
#
# PCOD9412727 Si02
#       8
#     8   8   4   4   4   8   8   8
#     4   9  19  39  68 105 145 191 241 298 371 452
#     4  11  26  47  71 102 148 193 246 321 364 454
#     4   9  18  41  72 110 146 191 246 299 384 452
#     4  11  24  45  74 108 144 181 242 307 402 444
#     4  12  28  48  72 102 148 208 254 304 386 452
#     4   9  21  42  70 108 142 183 244 309 372 454
#     4  10  24  46  65 105 147 189 250 297 376 448
#     4   9  19  37  71 107 141 185 238 305 365 446
#
# _framework density 25.413091999999999
#
# number of rings (size 3 to 8) (size 9 to 14) (size 15 to 20)
#    0.000    2.154    0.000    1.846    8.615    0.615 
#    4.154    0.000    0.000    0.000    0.000    0.000 
#    0.000    0.000    0.000    0.000    0.000    0.000 
#
# Total GULP energy -289745.683208 kJ/mol
# GULP energy per Si atom -5572.032369 kJ/mol
# Density = 2.535525 g / cm^3
# Si number density = 25.413092 Si / 1000 Ang^3
#
#
#
# Elastic Constant Matrix: (Units=GPa)
#
#
# Indices 1 2 3 4 5 6 
#
# 1 202.0660 52.4459 89.3585 0.0000 0.0000 0.0000
# 2 52.4459 91.8396 34.2845 0.0000 0.0000 0.0000
# 3 89.3585 34.2845 125.3157 0.0000 0.0000 0.0000
# 4 0.0000 0.0000 0.0000 31.8572 0.0000 0.0000
# 5 0.0000 0.0000 0.0000 0.0000 -14.9875 0.0000
# 6 0.0000 0.0000 0.0000 0.0000 0.0000 34.9970
#
#
#
# Elastic Compliance Matrix: (Units=1/GPa)
#
#
# Indices 1 2 3 4 5 6 
#
# 1 0.007762 -0.002635 -0.004813 0.000000 0.000000 0.000000
# 2 -0.002635 0.013022 -0.001683 0.000000 0.000000 0.000000
# 3 -0.004813 -0.001683 0.011873 0.000000 0.000000 0.000000
# 4 0.000000 0.000000 0.000000 0.031390 0.000000 0.000000
# 5 0.000000 0.000000 0.000000 0.000000 -0.066722 0.000000
# 6 0.000000 0.000000 0.000000 0.000000 0.000000 0.028574
#
#
# Mechanical properties :
#
#
# Convention : Reuss Voigt Hill
#
# Bulk Modulus (GPa) = 69.48471 85.71101 77.59786
# Shear Modulus (GPa) = 102.12448 26.58215 64.35332
#
# Velocity S-wave (km/s) = 6.34610 3.23770 5.03765
# Velocity P-wave (km/s) = 9.00549 6.91211 8.02733
#
# Compressibility (1/GPa) = 0.01439165
#
# Stress axis : x y z
#
# Youngs Moduli (GPa) = 128.84067 76.79351 84.22655
#
# Poissons Ratio (x) = 0.20238 0.40542
# Poissons Ratio (y) = 0.33954 0.14179
# Poissons Ratio (z) = 0.62017 0.12928
#
# Static dielectric constant tensor:
#      x y z
#    x 5.698890 0.000000 0.000000 
#    y 0.000000 2.086450 0.000000 
#    z 0.000000 0.000000 2.163150 
# 
# From -- ./inp_files/37288.got.cif
#   From: 2010.05.17/outbox.cif.g08.bks.cpg/sg52_19_cif.got.tgz:37288.got - 2010.06.03 12:15:38.
