data_PCOD9412212
_publ_section_title
;
Structure prediction by ZEFSAII (Michael W. Deem and Ramdas Pophale) SiO2 
 PCOD9412212
Probable space group: P N N A
;
_chemical_formula_sum "Si O2"
_cell_formula_units_Z 52
_cell_length_a 9.722761
_cell_length_b 12.571816
_cell_length_c 20.869302
_cell_angle_alpha 90.000000
_cell_angle_beta 90.000000
_cell_angle_gamma 90.000000
_cell_volume 2550.912431
_symmetry_space_group_name_H-M "P N N A"
_symmetry_group_IT_number 52
_symmetry_cell_setting 'orthorhombic'
loop_
_space_group_symop_operation_xyz
x,y,z
1/2-x,-y,z
x,1/2-y,1/2-z
1/2-x,1/2+y,1/2-z
-x,-y,-z
1/2+x,y,-z
-x,1/2+y,1/2+z
1/2+x,1/2-y,1/2+z
loop_
_atom_site_type_symbol
_atom_site_label
_atom_site_fract_x
_atom_site_fract_y
_atom_site_fract_z
Si Si1 0.730185 0.659043 0.637857
Si Si2 0.867864 0.926114 0.991053
Si Si3 0.285405 0.378357 0.879142
Si Si4 0.250000 0.000000 0.253540
Si Si5 0.871029 0.070789 0.521158
Si Si6 0.929870 0.670237 0.810652
Si Si7 0.039551 0.246529 0.912277
O O1 0.818108 0.602453 0.581134
O O2 0.722881 0.596281 0.704532
O O3 0.809940 0.769621 0.650009
O O4 0.571487 0.668652 0.618653
O O5 0.750000 0.000000 0.020760
O O6 0.891514 0.817350 0.029272
O O7 0.000000 0.000000 0.000000
O O8 0.250000 0.500000 0.859883
O O9 0.306351 0.382069 0.956104
O O10 0.426988 0.340662 0.847875
O O11 0.157707 0.298841 0.868868
O O12 0.125781 0.052030 0.293570
O O13 0.939990 0.160418 0.563218
O O14 0.750000 0.000000 0.551532
O O15 0.000000 0.000000 0.500000
O O16 0.952782 0.750000 0.750000
#
# Coordination Sequence:
#
# PCOD9412212 Si02
#       7
#     8   8   8   4   8   8   8
#     4  11  23  43  69  97 126 167 225 262 322 395
#     4  12  24  41  65  98 140 177 209 256 316 398
#     4  11  24  42  61  95 132 165 213 259 331 382
#     4  10  22  48  68  90 116 162 232 282 320 374
#     4  11  22  38  60  95 136 167 202 249 314 396
#     4  10  25  44  68  89 119 168 218 283 327 369
#     4  12  24  40  63 101 135 175 204 262 319 402
#
# _framework density 20.384864
#
# number of rings (size 3 to 8) (size 9 to 14) (size 15 to 20)
#    0.000    0.923    5.385    1.846    6.462    0.000 
#    2.769    0.000    0.000    0.000    0.000    0.000 
#    0.000    0.000    0.000    0.000    0.000    0.000 
#
# Total GULP energy -290234.627274 kJ/mol
# GULP energy per Si atom -5581.435140 kJ/mol
# Density = 2.033847 g / cm^3
# Si number density = 20.384864 Si / 1000 Ang^3
#
#
#
# Elastic Constant Matrix: (Units=GPa)
#
#
# Indices 1 2 3 4 5 6 
#
# 1 151.8285 56.4690 35.2653 0.0000 0.0000 0.0000
# 2 56.4690 92.5409 22.7466 0.0000 0.0000 0.0000
# 3 35.2653 22.7466 47.0400 0.0000 0.0000 0.0000
# 4 0.0000 0.0000 0.0000 10.5996 0.0000 0.0000
# 5 0.0000 0.0000 0.0000 0.0000 44.4736 0.0000
# 6 0.0000 0.0000 0.0000 0.0000 0.0000 50.3924
#
#
#
# Elastic Compliance Matrix: (Units=1/GPa)
#
#
# Indices 1 2 3 4 5 6 
#
# 1 0.009404 -0.004546 -0.004852 0.000000 0.000000 0.000000
# 2 -0.004546 0.014461 -0.003585 0.000000 0.000000 0.000000
# 3 -0.004852 -0.003585 0.026629 0.000000 0.000000 0.000000
# 4 0.000000 0.000000 0.000000 0.094343 0.000000 0.000000
# 5 0.000000 0.000000 0.000000 0.000000 0.022485 0.000000
# 6 0.000000 0.000000 0.000000 0.000000 0.000000 0.019844
#
#
# Mechanical properties :
#
#
# Convention : Reuss Voigt Hill
#
# Bulk Modulus (GPa) = 40.76742 57.81902 49.29322
# Shear Modulus (GPa) = 22.59286 32.88834 27.74060
#
# Velocity S-wave (km/s) = 3.33275 4.02104 3.69296
# Velocity P-wave (km/s) = 5.90355 7.06991 6.51289
#
# Compressibility (1/GPa) = 0.02452939
#
# Stress axis : x y z
#
# Youngs Moduli (GPa) = 106.33714 69.15122 37.55243
#
# Poissons Ratio (x) = 0.31435 0.18220
# Poissons Ratio (y) = 0.48339 0.13462
# Poissons Ratio (z) = 0.51594 0.24789
#
# Static dielectric constant tensor:
#      x y z
#    x 1.762660 0.000000 0.000000 
#    y 0.000000 1.788270 0.000000 
#    z 0.000000 0.000000 1.825480 
# 
# From -- ./inp_files/42295.got.cif
#   From: 2010.05.17/outbox.cif.g08.bks.cpg/sg52_22_cif.got.tgz:42295.got - 2010.06.03 12:15:38.
