data_PCOD9412603
_publ_section_title
;
Structure prediction by ZEFSAII (Michael W. Deem and Ramdas Pophale) SiO2 
 PCOD9412603
Probable space group: P N N A
;
_chemical_formula_sum "Si O2"
_cell_formula_units_Z 28
_cell_length_a 26.999488
_cell_length_b 7.151671
_cell_length_c 6.120428
_cell_angle_alpha 90.000000
_cell_angle_beta 90.000000
_cell_angle_gamma 90.000000
_cell_volume 1181.802350
_symmetry_space_group_name_H-M "P N N A"
_symmetry_group_IT_number 52
_symmetry_cell_setting 'orthorhombic'
loop_
_space_group_symop_operation_xyz
x,y,z
1/2-x,-y,z
x,1/2-y,1/2-z
1/2-x,1/2+y,1/2-z
-x,-y,-z
1/2+x,y,-z
-x,1/2+y,1/2+z
1/2+x,1/2-y,1/2+z
loop_
_atom_site_type_symbol
_atom_site_label
_atom_site_fract_x
_atom_site_fract_y
_atom_site_fract_z
Si Si1 0.519083 0.750000 0.250000
Si Si2 0.119485 0.750000 0.250000
Si Si3 0.564795 0.436065 0.017536
Si Si4 0.202661 0.904498 0.924367
Si Si5 0.853418 0.750000 0.250000
O O1 0.481705 0.690732 0.054984
O O2 0.553013 0.936265 0.265819
O O3 0.083563 0.588594 0.157202
O O4 0.158112 0.676382 0.431135
O O5 0.609931 0.297396 0.053191
O O6 0.219287 0.750000 0.750000
O O7 0.250000 0.000000 0.044158
O O8 0.178726 0.070428 0.788427
#
# Coordination Sequence:
#
# PCOD9412603 Si02
#       5
#     4   4   8   8   4
#     4  10  24  42  66 100 148 184 236 294 340 410
#     4  12  26  45  73 108 142 184 241 289 350 424
#     4  11  24  42  68 102 138 192 234 287 350 409
#     4  12  26  47  73 105 142 182 232 290 358 420
#     4  12  24  45  75  98 144 190 233 291 352 416
#
# _framework density 23.692623999999999
#
# number of rings (size 3 to 8) (size 9 to 14) (size 15 to 20)
#    0.000    0.571    4.286    3.429    0.000   10.286 
#    0.000    0.000    0.000    0.000    0.000    0.000 
#    0.000    0.000    0.000    0.000    0.000    0.000 
#
# Total GULP energy -156343.300212 kJ/mol
# GULP energy per Si atom -5583.689293 kJ/mol
# Density = 2.363870 g / cm^3
# Si number density = 23.692624 Si / 1000 Ang^3
#
#
#
# Elastic Constant Matrix: (Units=GPa)
#
#
# Indices 1 2 3 4 5 6 
#
# 1 121.1979 34.4535 21.2116 0.0000 0.0000 0.0000
# 2 34.4535 125.2780 42.3165 0.0000 0.0000 0.0000
# 3 21.2116 42.3165 50.5128 0.0000 0.0000 0.0000
# 4 0.0000 0.0000 0.0000 56.6000 0.0000 0.0000
# 5 0.0000 0.0000 0.0000 0.0000 28.3549 0.0000
# 6 0.0000 0.0000 0.0000 0.0000 0.0000 33.1171
#
#
#
# Elastic Compliance Matrix: (Units=1/GPa)
#
#
# Indices 1 2 3 4 5 6 
#
# 1 0.009158 -0.001701 -0.002421 0.000000 0.000000 0.000000
# 2 -0.001701 0.011448 -0.008876 0.000000 0.000000 0.000000
# 3 -0.002421 -0.008876 0.028250 0.000000 0.000000 0.000000
# 4 0.000000 0.000000 0.000000 0.017668 0.000000 0.000000
# 5 0.000000 0.000000 0.000000 0.000000 0.035267 0.000000
# 6 0.000000 0.000000 0.000000 0.000000 0.000000 0.030196
#
#
# Mechanical properties :
#
#
# Convention : Reuss Voigt Hill
#
# Bulk Modulus (GPa) = 43.74490 54.77243 49.25866
# Shear Modulus (GPa) = 30.19263 36.88155 33.53709
#
# Velocity S-wave (km/s) = 3.57367 3.94974 3.76640
# Velocity P-wave (km/s) = 5.96085 6.63089 6.30478
#
# Compressibility (1/GPa) = 0.02285981
#
# Stress axis : x y z
#
# Youngs Moduli (GPa) = 109.19198 87.34909 35.39868
#
# Poissons Ratio (x) = 0.14858 0.08569
# Poissons Ratio (y) = 0.18573 0.31421
# Poissons Ratio (z) = 0.26433 0.77535
#
# Static dielectric constant tensor:
#      x y z
#    x 1.956360 0.000000 0.000000 
#    y 0.000000 1.939420 0.000000 
#    z 0.000000 0.000000 1.877660 
# 
# From -- ./inp_files/14687.got.cif
#   From: 2010.05.17/outbox.cif.g08.bks.cpg/sg52_8_cif.got.tgz:14687.got - 2010.06.03 12:15:38.
