data_PCOD9412799
_publ_section_title
;
Structure prediction by ZEFSAII (Michael W. Deem and Ramdas Pophale) SiO2 
 PCOD9412799
Probable space group: P N N A
;
_chemical_formula_sum "Si O2"
_cell_formula_units_Z 28
_cell_length_a 12.854589
_cell_length_b 16.248251
_cell_length_c 5.099048
_cell_angle_alpha 90.000000
_cell_angle_beta 90.000000
_cell_angle_gamma 90.000000
_cell_volume 1065.010563
_symmetry_space_group_name_H-M "P N N A"
_symmetry_group_IT_number 52
_symmetry_cell_setting 'orthorhombic'
loop_
_space_group_symop_operation_xyz
x,y,z
1/2-x,-y,z
x,1/2-y,1/2-z
1/2-x,1/2+y,1/2-z
-x,-y,-z
1/2+x,y,-z
-x,1/2+y,1/2+z
1/2+x,1/2-y,1/2+z
loop_
_atom_site_type_symbol
_atom_site_label
_atom_site_fract_x
_atom_site_fract_y
_atom_site_fract_z
Si Si1 0.403174 0.661202 0.154651
Si Si2 0.200147 0.250000 0.750000
Si Si3 0.630830 0.876422 0.131593
Si Si4 0.115611 0.517393 0.112666
O O1 0.361604 0.750000 0.250000
O O2 0.520268 0.656455 0.258885
O O3 0.350283 0.573369 0.211188
O O4 0.379458 0.679002 0.850200
O O5 0.285639 0.195109 0.906493
O O6 0.611734 0.924572 0.863782
O O7 0.667633 0.936754 0.366750
O O8 0.000000 0.500000 0.000000
#
# Coordination Sequence:
#
# PCOD9412799 Si02
#       4
#     8   4   8   8
#     4  11  26  47  77 109 152 203 257 320 381 465
#     4  12  30  46  78 118 154 212 258 326 394 456
#     4  11  26  51  77 111 160 199 257 324 387 465
#     4  10  24  48  80 110 147 208 253 317 395 459
#
# _framework density 26.290818000000002
#
# number of rings (size 3 to 8) (size 9 to 14) (size 15 to 20)
#    0.000    1.143    1.429    3.429   16.000    1.143 
#    0.000    0.000    0.000    0.000    0.000    0.000 
#    0.000    0.000    0.000    0.000    0.000    0.000 
#
# Total GULP energy -156283.106152 kJ/mol
# GULP energy per Si atom -5581.539505 kJ/mol
# Density = 2.623098 g / cm^3
# Si number density = 26.290818 Si / 1000 Ang^3
#
#
#
# Elastic Constant Matrix: (Units=GPa)
#
#
# Indices 1 2 3 4 5 6 
#
# 1 156.4407 50.1024 79.4940 0.0000 0.0000 0.0000
# 2 50.1024 201.0456 82.1017 0.0000 0.0000 0.0000
# 3 79.4940 82.1017 136.1513 0.0000 0.0000 0.0000
# 4 0.0000 0.0000 0.0000 29.9045 0.0000 0.0000
# 5 0.0000 0.0000 0.0000 0.0000 2.9679 0.0000
# 6 0.0000 0.0000 0.0000 0.0000 0.0000 39.1538
#
#
#
# Elastic Compliance Matrix: (Units=1/GPa)
#
#
# Indices 1 2 3 4 5 6 
#
# 1 0.009091 -0.000130 -0.005230 0.000000 0.000000 0.000000
# 2 -0.000130 0.006601 -0.003905 0.000000 0.000000 0.000000
# 3 -0.005230 -0.003905 0.012753 0.000000 0.000000 0.000000
# 4 0.000000 0.000000 0.000000 0.033440 0.000000 0.000000
# 5 0.000000 0.000000 0.000000 0.000000 0.336942 0.000000
# 6 0.000000 0.000000 0.000000 0.000000 0.000000 0.025540
#
#
# Mechanical properties :
#
#
# Convention : Reuss Voigt Hill
#
# Bulk Modulus (GPa) = 100.84285 101.89263 101.36774
# Shear Modulus (GPa) = 11.20572 33.20119 22.20346
#
# Velocity S-wave (km/s) = 2.06675 3.55751 2.90924
# Velocity P-wave (km/s) = 6.64344 7.46422 7.06576
#
# Compressibility (1/GPa) = 0.00991642
#
# Stress axis : x y z
#
# Youngs Moduli (GPa) = 109.99592 151.49415 78.41442
#
# Poissons Ratio (x) = 0.01969 0.41008
# Poissons Ratio (y) = 0.01429 0.30618
# Poissons Ratio (z) = 0.57525 0.59152
#
# Static dielectric constant tensor:
#      x y z
#    x 2.098190 0.000000 0.000000 
#    y 0.000000 2.286790 0.000000 
#    z 0.000000 0.000000 13.732560 
# 
# From -- ./inp_files/9776.got.cif
#   From: 2010.05.17/outbox.cif.g08.bks.cpg/sg52_5_cif.got.tgz:9776.got - 2010.06.03 12:15:38.
