data_PCOD9412315
_publ_section_title
;
Structure prediction by ZEFSAII (Michael W. Deem and Ramdas Pophale) SiO2 
 PCOD9412315
Probable space group: P N N A
;
_chemical_formula_sum "Si O2"
_cell_formula_units_Z 56
_cell_length_a 15.146033
_cell_length_b 12.196923
_cell_length_c 14.834170
_cell_angle_alpha 90.000000
_cell_angle_beta 90.000000
_cell_angle_gamma 90.000000
_cell_volume 2740.390369
_symmetry_space_group_name_H-M "P N N A"
_symmetry_group_IT_number 52
_symmetry_cell_setting 'orthorhombic'
loop_
_space_group_symop_operation_xyz
x,y,z
1/2-x,-y,z
x,1/2-y,1/2-z
1/2-x,1/2+y,1/2-z
-x,-y,-z
1/2+x,y,-z
-x,1/2+y,1/2+z
1/2+x,1/2-y,1/2+z
loop_
_atom_site_type_symbol
_atom_site_label
_atom_site_fract_x
_atom_site_fract_y
_atom_site_fract_z
Si Si1 0.809713 0.396343 0.553402
Si Si2 0.750000 0.000000 0.385758
Si Si3 0.542566 0.212796 0.650520
Si Si4 0.063416 0.999569 0.716536
Si Si5 0.404022 0.375393 0.268389
Si Si6 0.711797 0.330269 0.956656
Si Si7 0.950515 0.433713 0.419947
Si Si8 0.750000 0.500000 0.809006
O O1 0.750000 0.500000 0.577486
O O2 0.890498 0.379436 0.623457
O O3 0.747894 0.291361 0.548508
O O4 0.853683 0.412175 0.457464
O O5 0.660800 0.006048 0.325970
O O6 0.760410 0.895442 0.453480
O O7 0.581030 0.250000 0.750000
O O8 0.478232 0.112119 0.675435
O O9 0.609980 0.171696 0.573834
O O10 0.497264 0.319597 0.607012
O O11 0.061659 0.993138 0.824848
O O12 0.991977 0.099074 0.709414
O O13 0.376222 0.250000 0.250000
O O14 0.339304 0.477986 0.244411
O O15 0.752342 0.396399 0.873643
O O16 0.000000 0.500000 0.500000
#
# Coordination Sequence:
#
# PCOD9412315 Si02
#       8
#     8   4   8   8   8   8   8   4
#     4  12  25  39  67 104 142 176 230 295 361 423
#     4  11  28  50  69  98 144 200 241 284 358 445
#     4  10  23  41  73 101 139 185 233 300 364 429
#     4  11  25  49  70  99 141 193 242 290 362 438
#     4  12  24  41  70 110 143 179 229 303 363 427
#     4  11  24  43  69 103 139 183 233 290 355 435
#     4  11  23  43  67 102 138 184 241 294 360 424
#     4  11  22  40  67 108 144 170 225 290 364 417
#
# _framework density 20.435044000000001
#
# number of rings (size 3 to 8) (size 9 to 14) (size 15 to 20)
#    0.000    0.857    5.000    1.714    5.000    1.714 
#    2.571    2.143    0.000    0.000    0.000    0.000 
#    0.000    0.000    0.000    0.000    0.000    0.000 
#
# Total GULP energy -311791.231902 kJ/mol
# GULP energy per Si atom -5567.700570 kJ/mol
# Density = 2.038853 g / cm^3
# Si number density = 20.435044 Si / 1000 Ang^3
#
#
#
# Elastic Constant Matrix: (Units=GPa)
#
#
# Indices 1 2 3 4 5 6 
#
# 1 94.8822 29.6320 53.2111 0.0000 0.0000 0.0000
# 2 29.6320 117.8143 50.8541 0.0000 0.0000 0.0000
# 3 53.2111 50.8541 79.9651 0.0000 0.0000 0.0000
# 4 0.0000 0.0000 0.0000 14.8674 0.0000 0.0000
# 5 0.0000 0.0000 0.0000 0.0000 19.9843 0.0000
# 6 0.0000 0.0000 0.0000 0.0000 0.0000 24.3031
#
#
#
# Elastic Compliance Matrix: (Units=1/GPa)
#
#
# Indices 1 2 3 4 5 6 
#
# 1 0.016873 0.000831 -0.011756 0.000000 0.000000 0.000000
# 2 0.000831 0.011740 -0.008019 0.000000 0.000000 0.000000
# 3 -0.011756 -0.008019 0.025428 0.000000 0.000000 0.000000
# 4 0.000000 0.000000 0.000000 0.067261 0.000000 0.000000
# 5 0.000000 0.000000 0.000000 0.000000 0.050039 0.000000
# 6 0.000000 0.000000 0.000000 0.000000 0.000000 0.041147
#
#
# Mechanical properties :
#
#
# Convention : Reuss Voigt Hill
#
# Bulk Modulus (GPa) = 61.91004 62.22842 62.06923
# Shear Modulus (GPa) = 19.54945 22.42860 20.98902
#
# Velocity S-wave (km/s) = 3.09635 3.31653 3.20833
# Velocity P-wave (km/s) = 6.56848 6.72189 6.64563
#
# Compressibility (1/GPa) = 0.01615247
#
# Stress axis : x y z
#
# Youngs Moduli (GPa) = 59.26680 85.17573 39.32673
#
# Poissons Ratio (x) = -0.07075 0.46232
# Poissons Ratio (y) = -0.04923 0.31537
# Poissons Ratio (z) = 0.69674 0.68303
#
# Static dielectric constant tensor:
#      x y z
#    x 1.743270 0.000000 0.000000 
#    y 0.000000 1.665230 0.000000 
#    z 0.000000 0.000000 1.496040 
# 
# From -- ./inp_files/27324.got.cif
#   From: 2010.05.17/outbox.cif.g08.bks.cpg/sg52_14_cif.got.tgz:27324.got - 2010.06.03 12:15:38.
