data_PCOD9412379
_publ_section_title
;
Structure prediction by ZEFSAII (Michael W. Deem and Ramdas Pophale) SiO2 
 PCOD9412379
Probable space group: P N N A
;
_chemical_formula_sum "Si O2"
_cell_formula_units_Z 28
_cell_length_a 9.945212
_cell_length_b 16.077906
_cell_length_c 6.927332
_cell_angle_alpha 90.000000
_cell_angle_beta 90.000000
_cell_angle_gamma 90.000000
_cell_volume 1107.667805
_symmetry_space_group_name_H-M "P N N A"
_symmetry_group_IT_number 52
_symmetry_cell_setting 'orthorhombic'
loop_
_space_group_symop_operation_xyz
x,y,z
1/2-x,-y,z
x,1/2-y,1/2-z
1/2-x,1/2+y,1/2-z
-x,-y,-z
1/2+x,y,-z
-x,1/2+y,1/2+z
1/2+x,1/2-y,1/2+z
loop_
_atom_site_type_symbol
_atom_site_label
_atom_site_fract_x
_atom_site_fract_y
_atom_site_fract_z
Si Si1 0.558248 0.911680 0.702975
Si Si2 0.162782 0.146732 0.440225
Si Si3 0.750000 0.500000 0.531922
Si Si4 0.879501 0.832578 0.008572
O O1 0.432052 0.914989 0.560628
O O2 0.685768 0.883392 0.580840
O O3 0.619097 0.984852 0.833539
O O4 0.512992 0.845489 0.866273
O O5 0.107170 0.158050 0.222568
O O6 0.166932 0.238158 0.534201
O O7 0.783818 0.588290 0.432253
#
# Coordination Sequence:
#
# PCOD9412379 Si02
#       4
#     8   8   4   8
#     4  11  24  46  69 106 140 184 233 293 349 426
#     4  10  25  43  75 100 137 192 237 285 350 418
#     4  10  24  42  74 104 142 184 230 300 366 402
#     4  10  23  43  67 100 141 181 235 288 349 418
#
# _framework density 25.278338000000002
#
# number of rings (size 3 to 8) (size 9 to 14) (size 15 to 20)
#    0.000    1.714    0.000    1.714   16.000    9.143 
#    5.143    7.143    0.000    0.000    0.000    0.000 
#    0.000    0.000    0.000    0.000    0.000    0.000 
#
# Total GULP energy -156378.469654 kJ/mol
# GULP energy per Si atom -5584.945345 kJ/mol
# Density = 2.522080 g / cm^3
# Si number density = 25.278338 Si / 1000 Ang^3
#
#
#
# Elastic Constant Matrix: (Units=GPa)
#
#
# Indices 1 2 3 4 5 6 
#
# 1 152.3487 46.3506 50.1320 0.0000 0.0000 0.0000
# 2 46.3506 154.5982 -26.0419 0.0000 0.0000 0.0000
# 3 50.1320 -26.0419 91.5204 0.0000 0.0000 0.0000
# 4 0.0000 0.0000 0.0000 10.6764 0.0000 0.0000
# 5 0.0000 0.0000 0.0000 0.0000 -1.0405 0.0000
# 6 0.0000 0.0000 0.0000 0.0000 0.0000 42.4569
#
#
#
# Elastic Compliance Matrix: (Units=1/GPa)
#
#
# Indices 1 2 3 4 5 6 
#
# 1 0.010008 -0.004121 -0.006655 0.000000 0.000000 0.000000
# 2 -0.004121 0.008491 0.004674 0.000000 0.000000 0.000000
# 3 -0.006655 0.004674 0.015902 0.000000 0.000000 0.000000
# 4 0.000000 0.000000 0.000000 0.093664 0.000000 0.000000
# 5 0.000000 0.000000 0.000000 0.000000 -0.961078 0.000000
# 6 0.000000 0.000000 0.000000 0.000000 0.000000 0.023553
#
#
# Mechanical properties :
#
#
# Convention : Reuss Voigt Hill
#
# Bulk Modulus (GPa) = 45.05299 59.92764 52.49032
# Shear Modulus (GPa) = -6.33026 32.28700 12.97837
#
# Velocity S-wave (km/s) = -1.58419 3.57775 2.26833
# Velocity P-wave (km/s) = 3.80989 6.38950 5.26027
#
# Compressibility (1/GPa) = 0.02219609
#
# Stress axis : x y z
#
# Youngs Moduli (GPa) = 99.92500 117.76769 62.88696
#
# Poissons Ratio (x) = 0.48536 0.41848
# Poissons Ratio (y) = 0.41182 -0.29392
# Poissons Ratio (z) = 0.66495 -0.55041
#
# Static dielectric constant tensor:
#      x y z
#    x 1.954780 0.000000 0.000000 
#    y 0.000000 1.966280 0.000000 
#    z 0.000000 0.000000 2.049410 
# 
# From -- ./inp_files/7102.got.cif
#   From: 2010.05.17/outbox.cif.g08.bks.cpg/sg52_4_cif.got.tgz:7102.got - 2010.06.03 12:15:38.
