data_PCOD9412182
_publ_section_title
;
Structure prediction by ZEFSAII (Michael W. Deem and Ramdas Pophale) SiO2 
 PCOD9412182
Probable space group: P N N A
;
_chemical_formula_sum "Si O2"
_cell_formula_units_Z 28
_cell_length_a 10.741517
_cell_length_b 19.208068
_cell_length_c 5.022782
_cell_angle_alpha 90.000000
_cell_angle_beta 90.000000
_cell_angle_gamma 90.000000
_cell_volume 1036.319413
_symmetry_space_group_name_H-M "P N N A"
_symmetry_group_IT_number 52
_symmetry_cell_setting 'orthorhombic'
loop_
_space_group_symop_operation_xyz
x,y,z
1/2-x,-y,z
x,1/2-y,1/2-z
1/2-x,1/2+y,1/2-z
-x,-y,-z
1/2+x,y,-z
-x,1/2+y,1/2+z
1/2+x,1/2-y,1/2+z
loop_
_atom_site_type_symbol
_atom_site_label
_atom_site_fract_x
_atom_site_fract_y
_atom_site_fract_z
Si Si1 0.842451 0.176586 0.650088
Si Si2 0.963065 0.750000 0.750000
Si Si3 0.027012 0.108876 0.033688
Si Si4 0.656843 0.437196 0.029457
O O1 0.790821 0.250000 0.750000
O O2 0.740174 0.132171 0.499849
O O3 0.951470 0.203521 0.452613
O O4 0.897561 0.129147 0.889588
O O5 0.913840 0.686341 0.568684
O O6 0.102200 0.063503 0.822643
O O7 0.045878 0.069859 0.313402
O O8 0.750000 0.500000 0.976261
#
# Coordination Sequence:
#
# PCOD9412182 Si02
#       4
#     8   4   8   8
#     4  10  25  43  72 102 136 178 240 294 350 408
#     4  10  22  46  68 104 134 182 232 302 350 390
#     4  11  25  46  69 100 140 178 234 291 347 410
#     4  12  28  45  70 105 143 191 230 280 359 427
#
# _framework density 27.018698000000001
#
# number of rings (size 3 to 8) (size 9 to 14) (size 15 to 20)
#    0.000    1.143    2.857    0.857   10.000    2.286 
#    0.000    0.000    0.000    0.000    0.000    0.000 
#    0.000    0.000    0.000    0.000    0.000    0.000 
#
# Total GULP energy -156754.639135 kJ/mol
# GULP energy per Si atom -5598.379969 kJ/mol
# Density = 2.695720 g / cm^3
# Si number density = 27.018698 Si / 1000 Ang^3
#
#
#
# Elastic Constant Matrix: (Units=GPa)
#
#
# Indices 1 2 3 4 5 6 
#
# 1 19.0267 16.0272 -5.9077 0.0000 0.0000 0.0000
# 2 16.0272 128.9525 6.7548 0.0000 0.0000 0.0000
# 3 -5.9077 6.7548 124.7317 0.0000 0.0000 0.0000
# 4 0.0000 0.0000 0.0000 33.0177 0.0000 0.0000
# 5 0.0000 0.0000 0.0000 0.0000 21.4096 0.0000
# 6 0.0000 0.0000 0.0000 0.0000 0.0000 57.0053
#
#
#
# Elastic Compliance Matrix: (Units=1/GPa)
#
#
# Indices 1 2 3 4 5 6 
#
# 1 0.059993 -0.007627 0.003254 0.000000 0.000000 0.000000
# 2 -0.007627 0.008746 -0.000835 0.000000 0.000000 0.000000
# 3 0.003254 -0.000835 0.008217 0.000000 0.000000 0.000000
# 4 0.000000 0.000000 0.000000 0.030287 0.000000 0.000000
# 5 0.000000 0.000000 0.000000 0.000000 0.046708 0.000000
# 6 0.000000 0.000000 0.000000 0.000000 0.000000 0.017542
#
#
# Mechanical properties :
#
#
# Convention : Reuss Voigt Hill
#
# Bulk Modulus (GPa) = 15.02828 34.05104 24.53966
# Shear Modulus (GPa) = 24.49929 39.34230 31.92079
#
# Velocity S-wave (km/s) = 3.01450 3.82005 3.44093
# Velocity P-wave (km/s) = 4.20601 5.66455 4.98887
#
# Compressibility (1/GPa) = 0.06654119
#
# Stress axis : x y z
#
# Youngs Moduli (GPa) = 16.66871 114.33215 121.70540
#
# Poissons Ratio (x) = 0.87199 -0.39609
# Poissons Ratio (y) = 0.12713 0.10161
# Poissons Ratio (z) = -0.05425 0.09545
#
# Static dielectric constant tensor:
#      x y z
#    x 2.248180 0.000000 0.000000 
#    y 0.000000 2.151540 0.000000 
#    z 0.000000 0.000000 2.117200 
# 
# From -- ./inp_files/931.got.cif
#   From: 2010.05.17/outbox.cif.g08.bks.cpg/sg52_1_cif.got.tgz:931.got - 2010.06.03 12:15:38.
