data_PCOD9412308
_publ_section_title
;
Structure prediction by ZEFSAII (Michael W. Deem and Ramdas Pophale) SiO2 
 PCOD9412308
Probable space group: P N N A
;
_chemical_formula_sum "Si O2"
_cell_formula_units_Z 60
_cell_length_a 11.649426
_cell_length_b 27.154064
_cell_length_c 7.748512
_cell_angle_alpha 90.000000
_cell_angle_beta 90.000000
_cell_angle_gamma 90.000000
_cell_volume 2451.081061
_symmetry_space_group_name_H-M "P N N A"
_symmetry_group_IT_number 52
_symmetry_cell_setting 'orthorhombic'
loop_
_space_group_symop_operation_xyz
x,y,z
1/2-x,-y,z
x,1/2-y,1/2-z
1/2-x,1/2+y,1/2-z
-x,-y,-z
1/2+x,y,-z
-x,1/2+y,1/2+z
1/2+x,1/2-y,1/2+z
loop_
_atom_site_type_symbol
_atom_site_label
_atom_site_fract_x
_atom_site_fract_y
_atom_site_fract_z
Si Si1 0.489180 0.139689 0.729072
Si Si2 0.627369 0.025862 0.525446
Si Si3 0.289591 0.777082 0.509884
Si Si4 0.803155 0.820272 0.865064
Si Si5 0.911920 0.250000 0.250000
Si Si6 0.405126 0.386388 0.437255
Si Si7 0.874885 0.494537 0.593428
Si Si8 0.070205 0.370436 0.866081
O O1 0.615563 0.135043 0.809357
O O2 0.475206 0.198206 0.766586
O O3 0.478770 0.133030 0.525783
O O4 0.417582 0.106129 0.856612
O O5 0.627113 0.077489 0.419693
O O6 0.750000 0.000000 0.479998
O O7 0.500000 0.000000 0.500000
O O8 0.628674 0.027589 0.734717
O O9 0.273339 0.796927 0.319172
O O10 0.349115 0.723635 0.488375
O O11 0.170522 0.762328 0.592181
O O12 0.352184 0.821446 0.609901
O O13 0.688157 0.843976 0.933832
O O14 0.372117 0.437438 0.350681
O O15 0.514901 0.370745 0.322708
O O16 0.750000 0.500000 0.498986
O O17 0.000000 0.500000 0.500000
#
# Coordination Sequence:
#
# PCOD9412308 Si02
#       8
#     8   8   8   8   4   8   8   8
#     4  11  25  42  70  98 145 183 242 299 365 436
#     4  11  25  47  75 108 152 194 255 328 390 466
#     4  10  23  41  68  98 141 184 239 296 365 443
#     4  10  23  45  64  99 140 191 232 303 366 436
#     4  12  22  44  62 106 142 188 242 306 354 442
#     4  12  25  45  77 104 140 196 251 304 378 453
#     4  11  27  49  77 112 153 199 255 324 395 467
#     4  11  25  47  74 105 144 196 247 305 388 453
#
# _framework density 24.478992999999999
#
# number of rings (size 3 to 8) (size 9 to 14) (size 15 to 20)
#    0.000    1.067    2.667    3.200   11.200    1.600 
#    0.000    0.000    0.000    0.000    0.000    0.000 
#    0.000    0.000    0.000    0.000    0.000    0.000 
#
# Total GULP energy -334400.819817 kJ/mol
# GULP energy per Si atom -5573.346997 kJ/mol
# Density = 2.442328 g / cm^3
# Si number density = 24.478993 Si / 1000 Ang^3
#
#
#
# Elastic Constant Matrix: (Units=GPa)
#
#
# Indices 1 2 3 4 5 6 
#
# 1 86.4710 23.4662 10.4639 0.0000 0.0000 0.0000
# 2 23.4662 131.6058 1.8787 0.0000 0.0000 0.0000
# 3 10.4639 1.8787 65.7485 0.0000 0.0000 0.0000
# 4 0.0000 0.0000 0.0000 12.9838 0.0000 0.0000
# 5 0.0000 0.0000 0.0000 0.0000 46.6060 0.0000
# 6 0.0000 0.0000 0.0000 0.0000 0.0000 39.3413
#
#
#
# Elastic Compliance Matrix: (Units=1/GPa)
#
#
# Indices 1 2 3 4 5 6 
#
# 1 0.012388 -0.002182 -0.001909 0.000000 0.000000 0.000000
# 2 -0.002182 0.007986 0.000119 0.000000 0.000000 0.000000
# 3 -0.001909 0.000119 0.015510 0.000000 0.000000 0.000000
# 4 0.000000 0.000000 0.000000 0.077019 0.000000 0.000000
# 5 0.000000 0.000000 0.000000 0.000000 0.021456 0.000000
# 6 0.000000 0.000000 0.000000 0.000000 0.000000 0.025419
#
#
# Mechanical properties :
#
#
# Convention : Reuss Voigt Hill
#
# Bulk Modulus (GPa) = 35.79115 39.49367 37.64241
# Shear Modulus (GPa) = 28.24316 36.32066 32.28191
#
# Velocity S-wave (km/s) = 3.40041 3.85612 3.63541
# Velocity P-wave (km/s) = 5.48360 5.99958 5.74739
#
# Compressibility (1/GPa) = 0.02793987
#
# Stress axis : x y z
#
# Youngs Moduli (GPa) = 80.72576 125.22330 64.47492
#
# Poissons Ratio (x) = 0.27318 0.12309
# Poissons Ratio (y) = 0.17611 -0.00767
# Poissons Ratio (z) = 0.15412 -0.01490
#
# Static dielectric constant tensor:
#      x y z
#    x 2.209100 0.000000 0.000000 
#    y 0.000000 1.909070 0.000000 
#    z 0.000000 0.000000 1.823310 
# 
# From -- ./inp_files/9031.got.cif
#   From: 2010.05.17/outbox.cif.g08.bks.cpg/sg52_5_cif.got.tgz:9031.got - 2010.06.03 12:15:38.
