data_PCOD9412979
_publ_section_title
;
Structure prediction by ZEFSAII (Michael W. Deem and Ramdas Pophale) SiO2 
 PCOD9412979
Probable space group: P N N A
;
_chemical_formula_sum "Si O2"
_cell_formula_units_Z 48
_cell_length_a 14.189585
_cell_length_b 9.877330
_cell_length_c 19.973784
_cell_angle_alpha 90.000000
_cell_angle_beta 90.000000
_cell_angle_gamma 90.000000
_cell_volume 2799.429963
_symmetry_space_group_name_H-M "P N N A"
_symmetry_group_IT_number 52
_symmetry_cell_setting 'orthorhombic'
loop_
_space_group_symop_operation_xyz
x,y,z
1/2-x,-y,z
x,1/2-y,1/2-z
1/2-x,1/2+y,1/2-z
-x,-y,-z
1/2+x,y,-z
-x,1/2+y,1/2+z
1/2+x,1/2-y,1/2+z
loop_
_atom_site_type_symbol
_atom_site_label
_atom_site_fract_x
_atom_site_fract_y
_atom_site_fract_z
Si Si1 0.041715 0.515396 0.145211
Si Si2 0.639807 0.204961 0.553076
Si Si3 0.860276 0.992035 0.430502
Si Si4 0.866656 0.212390 0.541638
Si Si5 0.842833 0.409617 0.732172
Si Si6 0.638529 0.991966 0.922151
O O1 0.094177 0.388836 0.110072
O O2 0.080169 0.642284 0.102639
O O3 0.074415 0.536533 0.220341
O O4 0.931013 0.508736 0.131086
O O5 0.621363 0.134261 0.481164
O O6 0.754356 0.203507 0.558413
O O7 0.603876 0.357516 0.562871
O O8 0.750000 0.000000 0.413659
O O9 0.883113 0.122456 0.476348
O O10 0.897940 0.366854 0.534470
O O11 0.750000 0.500000 0.747367
O O12 0.826772 0.250000 0.750000
O O13 0.867392 0.441963 0.654953
O O14 0.750000 0.000000 0.936718
#
# Coordination Sequence:
#
# PCOD9412979 Si02
#       6
#     8   8   8   8   8   8
#     4  11  19  30  49  72 101 135 169 204 245 295
#     4   9  17  29  49  76 104 134 155 204 251 306
#     4   9  19  34  51  71  96 130 178 212 248 286
#     4   9  15  29  48  72 105 130 159 198 249 307
#     4  11  22  33  51  77 110 137 159 196 245 314
#     4   9  18  29  46  76 108 133 158 186 252 313
#
# _framework density 17.146348
#
# number of rings (size 3 to 8) (size 9 to 14) (size 15 to 20)
#    0.000    2.333    1.667    4.500    4.667    0.000 
#    0.000    3.333    0.000    0.000    4.333    0.000 
#    0.000    0.000    0.000    0.000    0.000    0.000 
#
# Total GULP energy -267533.364221 kJ/mol
# GULP energy per Si atom -5573.611755 kJ/mol
# Density = 1.710732 g / cm^3
# Si number density = 17.146348 Si / 1000 Ang^3
#
#
#
# Elastic Constant Matrix: (Units=GPa)
#
#
# Indices 1 2 3 4 5 6 
#
# 1 55.5485 29.6504 23.7272 0.0000 0.0000 0.0000
# 2 29.6504 155.9361 33.7337 0.0000 0.0000 0.0000
# 3 23.7272 33.7337 25.1333 0.0000 0.0000 0.0000
# 4 0.0000 0.0000 0.0000 6.9473 0.0000 0.0000
# 5 0.0000 0.0000 0.0000 0.0000 18.9177 0.0000
# 6 0.0000 0.0000 0.0000 0.0000 0.0000 -0.9939
#
#
#
# Elastic Compliance Matrix: (Units=1/GPa)
#
#
# Indices 1 2 3 4 5 6 
#
# 1 0.030207 0.000599 -0.029322 0.000000 0.000000 0.000000
# 2 0.000599 0.009049 -0.012711 0.000000 0.000000 0.000000
# 3 -0.029322 -0.012711 0.084530 0.000000 0.000000 0.000000
# 4 0.000000 0.000000 0.000000 0.143941 0.000000 0.000000
# 5 0.000000 0.000000 0.000000 0.000000 0.052861 0.000000
# 6 0.000000 0.000000 0.000000 0.000000 0.000000 -1.006170
#
#
# Mechanical properties :
#
#
# Convention : Reuss Voigt Hill
#
# Bulk Modulus (GPa) = 24.43847 45.64895 35.04371
# Shear Modulus (GPa) = -8.48786 14.94131 3.22673
#
# Velocity S-wave (km/s) = -2.22733 2.95515 1.37330
# Velocity P-wave (km/s) = 2.76933 6.19070 4.79552
#
# Compressibility (1/GPa) = 0.04091909
#
# Stress axis : x y z
#
# Youngs Moduli (GPa) = 33.10507 110.51334 11.83014
#
# Poissons Ratio (x) = -0.06625 0.34688
# Poissons Ratio (y) = -0.01985 0.15037
# Poissons Ratio (z) = 0.97069 1.40474
#
# Static dielectric constant tensor:
#      x y z
#    x 1.592480 0.000000 0.000000 
#    y 0.000000 1.639340 0.000000 
#    z 0.000000 0.000000 1.563820 
# 
# From -- ./inp_files/37181.got.cif
#   From: 2010.05.17/outbox.cif.g08.bks.cpg/sg52_19_cif.got.tgz:37181.got - 2010.06.03 12:15:38.
