data_PCOD9412911
_publ_section_title
;
Structure prediction by ZEFSAII (Michael W. Deem and Ramdas Pophale) SiO2 
 PCOD9412911
Probable space group: P N N A
;
_chemical_formula_sum "Si O2"
_cell_formula_units_Z 60
_cell_length_a 12.426775
_cell_length_b 9.881080
_cell_length_c 23.660041
_cell_angle_alpha 90.000000
_cell_angle_beta 90.000000
_cell_angle_gamma 90.000000
_cell_volume 2905.215439
_symmetry_space_group_name_H-M "P N N A"
_symmetry_group_IT_number 52
_symmetry_cell_setting 'orthorhombic'
loop_
_space_group_symop_operation_xyz
x,y,z
1/2-x,-y,z
x,1/2-y,1/2-z
1/2-x,1/2+y,1/2-z
-x,-y,-z
1/2+x,y,-z
-x,1/2+y,1/2+z
1/2+x,1/2-y,1/2+z
loop_
_atom_site_type_symbol
_atom_site_label
_atom_site_fract_x
_atom_site_fract_y
_atom_site_fract_z
Si Si1 0.052586 0.243708 0.816034
Si Si2 0.084465 0.016943 0.048903
Si Si3 0.930667 0.504009 0.838828
Si Si4 0.237755 0.656777 0.614679
Si Si5 0.993110 0.313712 0.344052
Si Si6 0.774341 0.285930 0.513533
Si Si7 0.250000 0.500000 0.068770
Si Si8 0.372581 0.475224 0.286341
O O1 0.086890 0.250000 0.750000
O O2 0.150014 0.194302 0.855345
O O3 0.023778 0.392470 0.838268
O O4 0.944755 0.146952 0.813069
O O5 0.034575 0.094016 0.102721
O O6 0.173005 0.118705 0.024876
O O7 0.136190 0.865909 0.051353
O O8 0.000000 0.000000 0.000000
O O9 0.970987 0.658298 0.842485
O O10 0.852907 0.487743 0.891351
O O11 0.868179 0.462279 0.781212
O O12 0.250000 0.500000 0.601270
O O13 0.207036 0.720421 0.553905
O O14 0.135667 0.678665 0.655508
O O15 0.053988 0.392360 0.294540
O O16 0.748768 0.136505 0.533492
O O17 0.250000 0.500000 0.308531
#
# Coordination Sequence:
#
# PCOD9412911 Si02
#       8
#     8   8   8   8   8   8   4   8
#     4  10  26  47  71 103 140 190 227 287 360 416
#     4  11  22  43  65  97 134 175 237 287 342 419
#     4  11  26  45  64 104 147 181 225 295 351 423
#     4  12  23  49  73 100 137 184 243 292 336 425
#     4  12  25  41  72 105 134 187 236 288 350 411
#     4  11  25  42  71  99 136 184 230 294 355 416
#     4  12  26  44  66 104 150 182 226 290 368 420
#     4  11  25  43  73 105 138 183 238 284 352 420
#
# _framework density 20.652512999999999
#
# number of rings (size 3 to 8) (size 9 to 14) (size 15 to 20)
#    0.000    0.800    6.000    0.400    5.600    3.733 
#    0.000    2.000    0.000    0.000    0.000    0.000 
#    0.000    0.000    0.000    0.000    0.000    0.000 
#
# Total GULP energy -334799.051512 kJ/mol
# GULP energy per Si atom -5579.984192 kJ/mol
# Density = 2.060551 g / cm^3
# Si number density = 20.652513 Si / 1000 Ang^3
#
#
#
# Elastic Constant Matrix: (Units=GPa)
#
#
# Indices 1 2 3 4 5 6 
#
# 1 74.0318 12.8315 25.1497 0.0000 0.0000 0.0000
# 2 12.8315 126.1356 38.7470 0.0000 0.0000 0.0000
# 3 25.1497 38.7470 72.1708 0.0000 0.0000 0.0000
# 4 0.0000 0.0000 0.0000 16.3471 0.0000 0.0000
# 5 0.0000 0.0000 0.0000 0.0000 7.2609 0.0000
# 6 0.0000 0.0000 0.0000 0.0000 0.0000 25.8117
#
#
#
# Elastic Compliance Matrix: (Units=1/GPa)
#
#
# Indices 1 2 3 4 5 6 
#
# 1 0.015323 0.000098 -0.005392 0.000000 0.000000 0.000000
# 2 0.000098 0.009494 -0.005131 0.000000 0.000000 0.000000
# 3 -0.005392 -0.005131 0.018490 0.000000 0.000000 0.000000
# 4 0.000000 0.000000 0.000000 0.061173 0.000000 0.000000
# 5 0.000000 0.000000 0.000000 0.000000 0.137724 0.000000
# 6 0.000000 0.000000 0.000000 0.000000 0.000000 0.038742
#
#
# Mechanical properties :
#
#
# Convention : Reuss Voigt Hill
#
# Bulk Modulus (GPa) = 44.53263 47.31050 45.92157
# Shear Modulus (GPa) = 16.16646 22.92461 19.54553
#
# Velocity S-wave (km/s) = 2.80086 3.33530 3.07970
# Velocity P-wave (km/s) = 5.66299 6.14735 5.91013
#
# Compressibility (1/GPa) = 0.02245544
#
# Stress axis : x y z
#
# Youngs Moduli (GPa) = 65.26349 105.32626 54.08375
#
# Poissons Ratio (x) = -0.01028 0.29161
# Poissons Ratio (y) = -0.00637 0.27752
# Poissons Ratio (z) = 0.35189 0.54046
#
# Static dielectric constant tensor:
#      x y z
#    x 1.788390 0.000000 0.000000 
#    y 0.000000 1.743560 0.000000 
#    z 0.000000 0.000000 1.791770 
# 
# From -- ./inp_files/42777.got.cif
#   From: 2010.05.17/outbox.cif.g08.bks.cpg/sg52_22_cif.got.tgz:42777.got - 2010.06.03 12:15:38.
