data_PCOD9412898
_publ_section_title
;
Structure prediction by ZEFSAII (Michael W. Deem and Ramdas Pophale) SiO2 
 PCOD9412898
Probable space group: P N N A
;
_chemical_formula_sum "Si O2"
_cell_formula_units_Z 36
_cell_length_a 19.296676
_cell_length_b 15.854689
_cell_length_c 4.953789
_cell_angle_alpha 90.000000
_cell_angle_beta 90.000000
_cell_angle_gamma 90.000000
_cell_volume 1515.576061
_symmetry_space_group_name_H-M "P N N A"
_symmetry_group_IT_number 52
_symmetry_cell_setting 'orthorhombic'
loop_
_space_group_symop_operation_xyz
x,y,z
1/2-x,-y,z
x,1/2-y,1/2-z
1/2-x,1/2+y,1/2-z
-x,-y,-z
1/2+x,y,-z
-x,1/2+y,1/2+z
1/2+x,1/2-y,1/2+z
loop_
_atom_site_type_symbol
_atom_site_label
_atom_site_fract_x
_atom_site_fract_y
_atom_site_fract_z
Si Si1 0.418150 0.341004 0.678905
Si Si2 0.250000 0.000000 0.993736
Si Si3 0.333502 0.841254 0.827963
Si Si4 0.881188 0.438214 0.822902
Si Si5 0.426028 0.622840 0.172193
O O1 0.388777 0.250000 0.750000
O O2 0.411544 0.365093 0.367211
O O3 0.498201 0.343695 0.767309
O O4 0.380328 0.409606 0.868231
O O5 0.217222 0.077996 0.826823
O O6 0.308216 0.038005 0.191827
O O7 0.302520 0.750000 0.750000
O O8 0.396540 0.857355 0.621676
O O9 0.369128 0.841279 0.120606
O O10 0.927296 0.521827 0.794277
#
# Coordination Sequence:
#
# PCOD9412898 Si02
#       5
#     8   4   8   8   8
#     4  12  24  41  67 102 135 163 209 275 339 396
#     4  10  26  46  66  92 134 180 228 270 316 388
#     4  11  23  42  70  98 130 177 225 273 325 386
#     4  11  24  43  66  92 130 179 218 263 325 391
#     4  11  23  43  69  98 130 169 219 270 331 397
#
# _framework density 23.753343999999998
#
# number of rings (size 3 to 8) (size 9 to 14) (size 15 to 20)
#    0.000    0.889    0.000    8.000    0.000    8.889 
#    0.000    6.667    0.000    0.000    0.000    0.000 
#    0.000    0.000    0.000    0.000    0.000    0.000 
#
# Total GULP energy -201756.846502 kJ/mol
# GULP energy per Si atom -5604.356847 kJ/mol
# Density = 2.369928 g / cm^3
# Si number density = 23.753344 Si / 1000 Ang^3
#
#
#
# Elastic Constant Matrix: (Units=GPa)
#
#
# Indices 1 2 3 4 5 6 
#
# 1 87.5432 9.6473 -12.4513 0.0000 0.0000 0.0000
# 2 9.6473 135.5740 -4.6119 0.0000 0.0000 0.0000
# 3 -12.4513 -4.6119 60.4208 0.0000 0.0000 0.0000
# 4 0.0000 0.0000 0.0000 40.5258 0.0000 0.0000
# 5 0.0000 0.0000 0.0000 0.0000 11.6880 0.0000
# 6 0.0000 0.0000 0.0000 0.0000 0.0000 -3.6202
#
#
#
# Elastic Compliance Matrix: (Units=1/GPa)
#
#
# Indices 1 2 3 4 5 6 
#
# 1 0.011846 -0.000762 0.002383 0.000000 0.000000 0.000000
# 2 -0.000762 0.007444 0.000411 0.000000 0.000000 0.000000
# 3 0.002383 0.000411 0.017073 0.000000 0.000000 0.000000
# 4 0.000000 0.000000 0.000000 0.024676 0.000000 0.000000
# 5 0.000000 0.000000 0.000000 0.000000 0.085558 0.000000
# 6 0.000000 0.000000 0.000000 0.000000 0.000000 -0.276231
#
#
# Mechanical properties :
#
#
# Convention : Reuss Voigt Hill
#
# Bulk Modulus (GPa) = 24.73546 29.85625 27.29585
# Shear Modulus (GPa) = -41.58933 29.11564 -6.23684
#
# Velocity S-wave (km/s) = -4.18889 3.50487 -1.62215
# Velocity P-wave (km/s) = 3.59996 5.38288 2.82981
#
# Compressibility (1/GPa) = 0.04042780
#
# Stress axis : x y z
#
# Youngs Moduli (GPa) = 84.41793 134.33193 58.57180
#
# Poissons Ratio (x) = 0.10234 -0.13958
# Poissons Ratio (y) = 0.06432 -0.02409
# Poissons Ratio (z) = -0.20117 -0.05524
#
# Static dielectric constant tensor:
#      x y z
#    x 1.867940 0.000000 0.000000 
#    y 0.000000 1.972100 0.000000 
#    z 0.000000 0.000000 1.819900 
# 
# From -- ./inp_files/4068.got.cif
#   From: 2010.05.17/outbox.cif.g08.bks.cpg/sg52_3_cif.got.tgz:4068.got - 2010.06.03 12:15:38.
