data_PCOD9412625
_publ_section_title
;
Structure prediction by ZEFSAII (Michael W. Deem and Ramdas Pophale) SiO2 
 PCOD9412625
Probable space group: P N N A
;
_chemical_formula_sum "Si O2"
_cell_formula_units_Z 60
_cell_length_a 9.085774
_cell_length_b 25.338003
_cell_length_c 10.024165
_cell_angle_alpha 90.000000
_cell_angle_beta 90.000000
_cell_angle_gamma 90.000000
_cell_volume 2307.716843
_symmetry_space_group_name_H-M "P N N A"
_symmetry_group_IT_number 52
_symmetry_cell_setting 'orthorhombic'
loop_
_space_group_symop_operation_xyz
x,y,z
1/2-x,-y,z
x,1/2-y,1/2-z
1/2-x,1/2+y,1/2-z
-x,-y,-z
1/2+x,y,-z
-x,1/2+y,1/2+z
1/2+x,1/2-y,1/2+z
loop_
_atom_site_type_symbol
_atom_site_label
_atom_site_fract_x
_atom_site_fract_y
_atom_site_fract_z
Si Si1 0.027151 0.197792 0.068151
Si Si2 0.271162 0.615103 0.839523
Si Si3 0.259122 0.328707 0.207176
Si Si4 0.250000 0.500000 0.541200
Si Si5 0.043946 0.490698 0.321971
Si Si6 0.059050 0.420305 0.083283
Si Si7 0.247645 0.767476 0.559509
Si Si8 0.996498 0.611750 0.367965
O O1 0.144137 0.192839 0.185488
O O2 0.108769 0.231559 0.953670
O O3 0.993642 0.140005 0.010459
O O4 0.884089 0.230509 0.107266
O O5 0.330954 0.609139 0.689737
O O6 0.108877 0.597273 0.887079
O O7 0.389758 0.581885 0.929637
O O8 0.275341 0.677906 0.865651
O O9 0.169908 0.377171 0.143035
O O10 0.291656 0.287985 0.089692
O O11 0.405076 0.350194 0.275280
O O12 0.151446 0.466427 0.435054
O O13 0.376780 0.477463 0.637064
O O14 0.079403 0.472345 0.173255
O O15 0.057497 0.553087 0.347201
#
# Coordination Sequence:
#
# PCOD9412625 Si02
#       8
#     8   8   8   4   8   8   8   8
#     4  12  26  42  72 105 145 195 246 302 377 446
#     4  11  25  47  77 108 151 192 261 306 376 451
#     4  11  25  47  71 107 151 192 254 307 376 452
#     4  10  24  42  70 102 142 194 246 306 374 452
#     4  11  25  45  73 104 150 199 243 311 387 437
#     4  11  25  48  76 109 147 201 246 313 373 456
#     4  11  24  47  71 101 146 198 239 312 370 437
#     4  12  27  44  72 110 150 198 250 316 368 460
#
# _framework density 25.999722999999999
#
# number of rings (size 3 to 8) (size 9 to 14) (size 15 to 20)
#    0.000    0.800    1.333    6.000    7.467    2.133 
#    0.000    2.667    0.000    0.000    0.000    0.000 
#    0.000    0.000    0.000    0.000    0.000    0.000 
#
# Total GULP energy -336074.496451 kJ/mol
# GULP energy per Si atom -5601.241608 kJ/mol
# Density = 2.594055 g / cm^3
# Si number density = 25.999723 Si / 1000 Ang^3
#
#
#
# Elastic Constant Matrix: (Units=GPa)
#
#
# Indices 1 2 3 4 5 6 
#
# 1 147.4605 16.5471 17.3115 0.0000 0.0000 0.0000
# 2 16.5471 140.1957 37.6239 0.0000 0.0000 0.0000
# 3 17.3115 37.6239 86.3363 0.0000 0.0000 0.0000
# 4 0.0000 0.0000 0.0000 37.0167 0.0000 0.0000
# 5 0.0000 0.0000 0.0000 0.0000 42.1364 0.0000
# 6 0.0000 0.0000 0.0000 0.0000 0.0000 38.7826
#
#
#
# Elastic Compliance Matrix: (Units=1/GPa)
#
#
# Indices 1 2 3 4 5 6 
#
# 1 0.006977 -0.000507 -0.001178 0.000000 0.000000 0.000000
# 2 -0.000507 0.008114 -0.003434 0.000000 0.000000 0.000000
# 3 -0.001178 -0.003434 0.013315 0.000000 0.000000 0.000000
# 4 0.000000 0.000000 0.000000 0.027015 0.000000 0.000000
# 5 0.000000 0.000000 0.000000 0.000000 0.023732 0.000000
# 6 0.000000 0.000000 0.000000 0.000000 0.000000 0.025785
#
#
# Mechanical properties :
#
#
# Convention : Reuss Voigt Hill
#
# Bulk Modulus (GPa) = 55.04365 57.43975 56.24170
# Shear Modulus (GPa) = 41.24271 43.75449 42.49860
#
# Velocity S-wave (km/s) = 3.98713 4.10675 4.04738
# Velocity P-wave (km/s) = 6.51253 6.68039 6.59699
#
# Compressibility (1/GPa) = 0.01816740
#
# Stress axis : x y z
#
# Youngs Moduli (GPa) = 143.33464 123.23695 75.10081
#
# Poissons Ratio (x) = 0.06253 0.08845
# Poissons Ratio (y) = 0.07272 0.25793
# Poissons Ratio (z) = 0.16882 0.42325
#
# Static dielectric constant tensor:
#      x y z
#    x 2.012040 0.000000 0.000000 
#    y 0.000000 2.075880 0.000000 
#    z 0.000000 0.000000 2.119140 
# 
# From -- ./inp_files/17135.got.cif
#   From: 2010.05.17/outbox.cif.g08.bks.cpg/sg52_9_cif.got.tgz:17135.got - 2010.06.03 12:15:38.
