data_PCOD9412086
_publ_section_title
;
Structure prediction by ZEFSAII (Michael W. Deem and Ramdas Pophale) SiO2 
 PCOD9412086
Probable space group: P N N A
;
_chemical_formula_sum "Si O2"
_cell_formula_units_Z 60
_cell_length_a 9.110544
_cell_length_b 26.073458
_cell_length_c 11.980048
_cell_angle_alpha 90.000000
_cell_angle_beta 90.000000
_cell_angle_gamma 90.000000
_cell_volume 2845.781170
_symmetry_space_group_name_H-M "P N N A"
_symmetry_group_IT_number 52
_symmetry_cell_setting 'orthorhombic'
loop_
_space_group_symop_operation_xyz
x,y,z
1/2-x,-y,z
x,1/2-y,1/2-z
1/2-x,1/2+y,1/2-z
-x,-y,-z
1/2+x,y,-z
-x,1/2+y,1/2+z
1/2+x,1/2-y,1/2+z
loop_
_atom_site_type_symbol
_atom_site_label
_atom_site_fract_x
_atom_site_fract_y
_atom_site_fract_z
Si Si1 0.011257 0.404612 0.361621
Si Si2 0.250000 0.000000 0.593352
Si Si3 0.674248 0.918760 0.591165
Si Si4 0.419697 0.652035 0.997378
Si Si5 0.997637 0.804296 0.721239
Si Si6 0.164071 0.193955 0.736997
Si Si7 0.343659 0.898943 0.900072
Si Si8 0.012415 0.982142 0.236218
O O1 0.050031 0.357069 0.280591
O O2 0.833451 0.405447 0.386136
O O3 0.043617 0.460579 0.307776
O O4 0.104729 0.393840 0.472871
O O5 0.310861 0.042929 0.512120
O O6 0.114237 0.015470 0.669618
O O7 0.537070 0.883110 0.564546
O O8 0.814111 0.882996 0.572638
O O9 0.643461 0.950889 0.703246
O O10 0.491680 0.689314 0.087856
O O11 0.341970 0.678685 0.892995
O O12 0.922221 0.750000 0.750000
O O13 0.164363 0.800866 0.764646
O O14 0.092295 0.250000 0.750000
O O15 0.110506 0.148896 0.819741
O O16 0.434974 0.948204 0.858169
#
# Coordination Sequence:
#
# PCOD9412086 Si02
#       8
#     8   4   8   8   8   8   8   8
#     4  11  25  44  69  96 134 179 230 275 338 410
#     4  12  22  40  64  96 136 178 220 270 338 406
#     4  12  25  39  66 102 138 175 221 279 341 406
#     4  12  23  44  70 103 136 175 227 287 342 415
#     4  10  24  45  69  99 137 180 220 282 345 403
#     4  10  22  43  73  97 135 184 225 279 352 408
#     4  11  23  45  66  93 136 178 228 279 338 403
#     4  12  23  42  67  96 135 183 222 274 342 415
#
# _framework density 21.083842000000001
#
# number of rings (size 3 to 8) (size 9 to 14) (size 15 to 20)
#    0.000    0.800    5.333    1.600    3.733    1.067 
#    0.000    0.667    0.000    0.000    0.000    0.000 
#    0.000    0.000    0.000    0.000    0.000    0.000 
#
# Total GULP energy -334862.236375 kJ/mol
# GULP energy per Si atom -5581.037273 kJ/mol
# Density = 2.103585 g / cm^3
# Si number density = 21.083842 Si / 1000 Ang^3
#
#
#
# Elastic Constant Matrix: (Units=GPa)
#
#
# Indices 1 2 3 4 5 6 
#
# 1 64.5374 33.1821 27.6048 0.0000 0.0000 0.0000
# 2 33.1821 158.2231 64.7668 0.0000 0.0000 0.0000
# 3 27.6048 64.7668 123.6938 0.0000 0.0000 0.0000
# 4 0.0000 0.0000 0.0000 -173.7847 0.0000 0.0000
# 5 0.0000 0.0000 0.0000 0.0000 -106.9723 0.0000
# 6 0.0000 0.0000 0.0000 0.0000 0.0000 -3.6308
#
#
#
# Elastic Compliance Matrix: (Units=1/GPa)
#
#
# Indices 1 2 3 4 5 6 
#
# 1 0.018000 -0.002712 -0.002597 0.000000 0.000000 0.000000
# 2 -0.002712 0.008453 -0.003821 0.000000 0.000000 0.000000
# 3 -0.002597 -0.003821 0.010665 0.000000 0.000000 0.000000
# 4 0.000000 0.000000 0.000000 -0.005754 0.000000 0.000000
# 5 0.000000 0.000000 0.000000 0.000000 -0.009348 0.000000
# 6 0.000000 0.000000 0.000000 0.000000 0.000000 -0.275425
#
#
# Mechanical properties :
#
#
# Convention : Reuss Voigt Hill
#
# Bulk Modulus (GPa) = 53.02756 66.39575 59.71166
# Shear Modulus (GPa) = -21.84702 -42.15084 -31.99893
#
# Velocity S-wave (km/s) = -3.22249 -4.47609 -3.89999
# Velocity P-wave (km/s) = 3.37038 2.20131 2.84651
#
# Compressibility (1/GPa) = 0.01885812
#
# Stress axis : x y z
#
# Youngs Moduli (GPa) = 55.55538 118.30259 93.76750
#
# Poissons Ratio (x) = 0.32081 0.24353
# Poissons Ratio (y) = 0.15066 0.35827
# Poissons Ratio (z) = 0.14429 0.45201
#
# Static dielectric constant tensor:
#      x y z
#    x 1.765380 0.000000 0.000000 
#    y 0.000000 1.819730 0.000000 
#    z 0.000000 0.000000 1.396310 
# 
# From -- ./inp_files/17118.got.cif
#   From: 2010.05.17/outbox.cif.g08.bks.cpg/sg52_9_cif.got.tgz:17118.got - 2010.06.03 12:15:38.
