data_PCOD9412977
_publ_section_title
;
Structure prediction by ZEFSAII (Michael W. Deem and Ramdas Pophale) SiO2 
 PCOD9412977
Probable space group: P N N A
;
_chemical_formula_sum "Si O2"
_cell_formula_units_Z 40
_cell_length_a 13.218582
_cell_length_b 9.340834
_cell_length_c 15.151515
_cell_angle_alpha 90.000000
_cell_angle_beta 90.000000
_cell_angle_gamma 90.000000
_cell_volume 1870.796651
_symmetry_space_group_name_H-M "P N N A"
_symmetry_group_IT_number 52
_symmetry_cell_setting 'orthorhombic'
loop_
_space_group_symop_operation_xyz
x,y,z
1/2-x,-y,z
x,1/2-y,1/2-z
1/2-x,1/2+y,1/2-z
-x,-y,-z
1/2+x,y,-z
-x,1/2+y,1/2+z
1/2+x,1/2-y,1/2+z
loop_
_atom_site_type_symbol
_atom_site_label
_atom_site_fract_x
_atom_site_fract_y
_atom_site_fract_z
Si Si1 0.143561 0.978105 0.110543
Si Si2 0.447352 0.647146 0.678483
Si Si3 0.250000 0.000000 0.827244
Si Si4 0.406844 0.733974 0.015526
Si Si5 0.365812 0.229829 0.948041
Si Si6 0.250000 0.000000 0.510778
O O1 0.035146 0.967353 0.157550
O O2 0.250000 0.000000 0.161321
O O3 0.144238 0.839096 0.046416
O O4 0.140424 0.117749 0.049015
O O5 0.494951 0.750000 0.750000
O O6 0.342254 0.584785 0.717194
O O7 0.421247 0.735442 0.589190
O O8 0.184962 0.887855 0.885654
O O9 0.337984 0.595567 0.035883
O O10 0.516695 0.731409 0.060224
O O11 0.306404 0.376493 0.936610
#
# Coordination Sequence:
#
# PCOD9412977 Si02
#       6
#     8   8   4   8   8   4
#     4  11  18  39  69  88 116 163 221 265 302 374
#     4  11  23  37  63  90 121 165 211 256 320 392
#     4  12  18  41  64  86 127 164 214 246 324 388
#     4  11  21  36  60  92 125 161 213 269 316 366
#     4  11  19  33  58  95 119 155 206 270 312 362
#     4  12  20  31  56  94 129 154 196 274 322 340
#
# _framework density 21.381266
#
# number of rings (size 3 to 8) (size 9 to 14) (size 15 to 20)
#    0.000    0.800    9.000    1.800    0.000    0.800 
#    0.000    0.000    8.800    1.200    0.000    0.000 
#    0.000    0.000    0.000    0.000    0.000    0.000 
#
# Total GULP energy -222835.355001 kJ/mol
# GULP energy per Si atom -5570.883875 kJ/mol
# Density = 2.133260 g / cm^3
# Si number density = 21.381266 Si / 1000 Ang^3
#
#
#
# Elastic Constant Matrix: (Units=GPa)
#
#
# Indices 1 2 3 4 5 6 
#
# 1 169.8842 40.2248 8.1357 0.0000 0.0000 0.0000
# 2 40.2248 129.8809 12.3414 0.0000 0.0000 0.0000
# 3 8.1357 12.3414 13.6786 0.0000 0.0000 0.0000
# 4 0.0000 0.0000 0.0000 14.8264 0.0000 0.0000
# 5 0.0000 0.0000 0.0000 0.0000 9.3369 0.0000
# 6 0.0000 0.0000 0.0000 0.0000 0.0000 57.6175
#
#
#
# Elastic Compliance Matrix: (Units=1/GPa)
#
#
# Indices 1 2 3 4 5 6 
#
# 1 0.006413 -0.001776 -0.002212 0.000000 0.000000 0.000000
# 2 -0.001776 0.008913 -0.006986 0.000000 0.000000 0.000000
# 3 -0.002212 -0.006986 0.080725 0.000000 0.000000 0.000000
# 4 0.000000 0.000000 0.000000 0.067447 0.000000 0.000000
# 5 0.000000 0.000000 0.000000 0.000000 0.107102 0.000000
# 6 0.000000 0.000000 0.000000 0.000000 0.000000 0.017356
#
#
# Mechanical properties :
#
#
# Convention : Reuss Voigt Hill
#
# Bulk Modulus (GPa) = 13.49447 48.31636 30.90542
# Shear Modulus (GPa) = 14.94302 33.20561 24.07431
#
# Velocity S-wave (km/s) = 2.64651 3.94512 3.35916
# Velocity P-wave (km/s) = 3.95774 6.58775 5.43425
#
# Compressibility (1/GPa) = 0.07410442
#
# Stress axis : x y z
#
# Youngs Moduli (GPa) = 155.93858 112.19390 12.38772
#
# Poissons Ratio (x) = 0.19925 0.02740
# Poissons Ratio (y) = 0.27693 0.08653
# Poissons Ratio (z) = 0.34491 0.78373
#
# Static dielectric constant tensor:
#      x y z
#    x 1.903510 0.000000 0.000000 
#    y 0.000000 1.870870 0.000000 
#    z 0.000000 0.000000 1.781010 
# 
# From -- ./inp_files/32905.got.cif
#   From: 2010.05.17/outbox.cif.g08.bks.cpg/sg52_17_cif.got.tgz:32905.got - 2010.06.03 12:15:38.
