data_PCOD9412189
_publ_section_title
;
Structure prediction by ZEFSAII (Michael W. Deem and Ramdas Pophale) SiO2 
 PCOD9412189
Probable space group: P N N A
;
_chemical_formula_sum "Si O2"
_cell_formula_units_Z 56
_cell_length_a 14.442428
_cell_length_b 11.354936
_cell_length_c 16.014527
_cell_angle_alpha 90.000000
_cell_angle_beta 90.000000
_cell_angle_gamma 90.000000
_cell_volume 2626.267854
_symmetry_space_group_name_H-M "P N N A"
_symmetry_group_IT_number 52
_symmetry_cell_setting 'orthorhombic'
loop_
_space_group_symop_operation_xyz
x,y,z
1/2-x,-y,z
x,1/2-y,1/2-z
1/2-x,1/2+y,1/2-z
-x,-y,-z
1/2+x,y,-z
-x,1/2+y,1/2+z
1/2+x,1/2-y,1/2+z
loop_
_atom_site_type_symbol
_atom_site_label
_atom_site_fract_x
_atom_site_fract_y
_atom_site_fract_z
Si Si1 0.534814 0.832993 0.686331
Si Si2 0.251767 0.743724 0.606053
Si Si3 0.148206 0.055214 0.379485
Si Si4 0.422877 0.728794 0.983895
Si Si5 0.250000 0.000000 0.673731
Si Si6 0.620117 0.434872 0.303099
Si Si7 0.584413 0.250000 0.750000
Si Si8 0.048499 0.644002 0.610024
O O1 0.594514 0.750000 0.750000
O O2 0.475563 0.791123 0.604645
O O3 0.460812 0.872902 0.754942
O O4 0.591571 0.944234 0.654663
O O5 0.318632 0.721608 0.527630
O O6 0.266803 0.881352 0.624042
O O7 0.300400 0.657568 0.672899
O O8 0.143961 0.717232 0.602643
O O9 0.094967 0.112279 0.459555
O O10 0.142320 0.159370 0.308871
O O11 0.250000 0.000000 0.398257
O O12 0.485885 0.820434 0.032879
O O13 0.336617 0.021692 0.734332
O O14 0.582358 0.510423 0.379363
O O15 0.515013 0.322607 0.689471
#
# Coordination Sequence:
#
# PCOD9412189 Si02
#       8
#     8   8   8   8   4   8   4   8
#     4  12  24  46  72 103 135 181 235 304 358 424
#     4  12  25  41  67 105 139 182 233 293 364 425
#     4  11  27  45  72 103 146 191 241 292 357 435
#     4  11  27  43  67 107 145 182 240 295 366 429
#     4  12  22  34  68 102 134 170 230 294 352 416
#     4  12  22  42  69 103 138 178 233 294 355 430
#     4  10  22  46  70 106 138 190 242 292 354 436
#     4  11  24  43  70 100 143 187 231 295 360 420
#
# _framework density 21.323035000000001
#
# number of rings (size 3 to 8) (size 9 to 14) (size 15 to 20)
#    0.000    0.571    5.714    1.714    6.000    0.571 
#    0.000    0.000    0.000    0.000    0.000    0.000 
#    0.000    0.000    0.000    0.000    0.000    0.000 
#
# Total GULP energy -312367.145543 kJ/mol
# GULP energy per Si atom -5577.984742 kJ/mol
# Density = 2.127450 g / cm^3
# Si number density = 21.323035 Si / 1000 Ang^3
#
#
#
# Elastic Constant Matrix: (Units=GPa)
#
#
# Indices 1 2 3 4 5 6 
#
# 1 85.2029 36.6120 35.7189 0.0000 0.0000 0.0000
# 2 36.6120 88.2362 55.9063 0.0000 0.0000 0.0000
# 3 35.7189 55.9063 113.8458 0.0000 0.0000 0.0000
# 4 0.0000 0.0000 0.0000 25.5942 0.0000 0.0000
# 5 0.0000 0.0000 0.0000 0.0000 46.5991 0.0000
# 6 0.0000 0.0000 0.0000 0.0000 0.0000 37.0532
#
#
#
# Elastic Compliance Matrix: (Units=1/GPa)
#
#
# Indices 1 2 3 4 5 6 
#
# 1 0.014703 -0.004613 -0.002348 0.000000 0.000000 0.000000
# 2 -0.004613 0.017900 -0.007343 0.000000 0.000000 0.000000
# 3 -0.002348 -0.007343 0.013126 0.000000 0.000000 0.000000
# 4 0.000000 0.000000 0.000000 0.039071 0.000000 0.000000
# 5 0.000000 0.000000 0.000000 0.000000 0.021460 0.000000
# 6 0.000000 0.000000 0.000000 0.000000 0.000000 0.026988
#
#
# Mechanical properties :
#
#
# Convention : Reuss Voigt Hill
#
# Bulk Modulus (GPa) = 58.40482 60.41772 59.41127
# Shear Modulus (GPa) = 29.83955 32.45247 31.14601
#
# Velocity S-wave (km/s) = 3.74492 3.90544 3.82602
# Velocity P-wave (km/s) = 6.79332 6.98088 6.88774
#
# Compressibility (1/GPa) = 0.01712187
#
# Stress axis : x y z
#
# Youngs Moduli (GPa) = 68.01213 55.86679 76.18412
#
# Poissons Ratio (x) = 0.25774 0.17885
# Poissons Ratio (y) = 0.31377 0.55939
# Poissons Ratio (z) = 0.15967 0.41021
#
# Static dielectric constant tensor:
#      x y z
#    x 1.800480 0.000000 0.000000 
#    y 0.000000 1.958520 0.000000 
#    z 0.000000 0.000000 1.814820 
# 
# From -- ./inp_files/27316.got.cif
#   From: 2010.05.17/outbox.cif.g08.bks.cpg/sg52_14_cif.got.tgz:27316.got - 2010.06.03 12:15:38.
