data_PCOD9412164
_publ_section_title
;
Structure prediction by ZEFSAII (Michael W. Deem and Ramdas Pophale) SiO2 
 PCOD9412164
Probable space group: P N N A
;
_chemical_formula_sum "Si O2"
_cell_formula_units_Z 32
_cell_length_a 13.051262
_cell_length_b 22.481723
_cell_length_c 4.883793
_cell_angle_alpha 90.000000
_cell_angle_beta 90.000000
_cell_angle_gamma 90.000000
_cell_volume 1432.977425
_symmetry_space_group_name_H-M "P N N A"
_symmetry_group_IT_number 52
_symmetry_cell_setting 'orthorhombic'
loop_
_space_group_symop_operation_xyz
x,y,z
1/2-x,-y,z
x,1/2-y,1/2-z
1/2-x,1/2+y,1/2-z
-x,-y,-z
1/2+x,y,-z
-x,1/2+y,1/2+z
1/2+x,1/2-y,1/2+z
loop_
_atom_site_type_symbol
_atom_site_label
_atom_site_fract_x
_atom_site_fract_y
_atom_site_fract_z
Si Si1 0.411687 0.250000 0.750000
Si Si2 0.949111 0.930156 0.174931
Si Si3 0.732184 0.750000 0.750000
Si Si4 0.630684 0.003531 0.678708
Si Si5 0.589588 0.192802 0.450606
O O1 0.339956 0.269630 0.499686
O O2 0.488798 0.199632 0.638577
O O3 0.890679 0.978359 0.366367
O O4 0.916116 0.865867 0.272759
O O5 0.919783 0.944905 0.865650
O O6 0.067909 0.944670 0.236833
O O7 0.808706 0.800378 0.633862
O O8 0.750000 0.000000 0.731681
O O9 0.589519 0.250000 0.250000
#
# Coordination Sequence:
#
# PCOD9412164 Si02
#       5
#     4   8   4   8   8
#     4  11  24  43  66  94 144 181 232 269 332 420
#     4  10  24  42  68  96 134 171 221 280 337 396
#     4  11  24  43  62  96 138 185 228 273 332 418
#     4  10  22  45  68  98 127 173 230 278 331 395
#     4  11  25  44  68 100 144 180 223 284 347 416
#
# _framework density 22.331130000000002
#
# number of rings (size 3 to 8) (size 9 to 14) (size 15 to 20)
#    0.000    1.500    2.500    0.750    7.000    2.000 
#    4.500    0.000    0.000    0.000    0.000    0.000 
#    0.000    0.000    0.000    0.000    0.000    0.000 
#
# Total GULP energy -179061.861661 kJ/mol
# GULP energy per Si atom -5595.683177 kJ/mol
# Density = 2.228030 g / cm^3
# Si number density = 22.331130 Si / 1000 Ang^3
#
#
#
# Elastic Constant Matrix: (Units=GPa)
#
#
# Indices 1 2 3 4 5 6 
#
# 1 141.5457 -4.1349 30.6771 0.0000 0.0000 0.0000
# 2 -4.1349 41.6757 4.4773 0.0000 0.0000 0.0000
# 3 30.6771 4.4773 105.8811 0.0000 0.0000 0.0000
# 4 0.0000 0.0000 0.0000 30.7504 0.0000 0.0000
# 5 0.0000 0.0000 0.0000 0.0000 73.2635 0.0000
# 6 0.0000 0.0000 0.0000 0.0000 0.0000 2.9338
#
#
#
# Elastic Compliance Matrix: (Units=1/GPa)
#
#
# Indices 1 2 3 4 5 6 
#
# 1 0.007579 0.000992 -0.002238 0.000000 0.000000 0.000000
# 2 0.000992 0.024234 -0.001312 0.000000 0.000000 0.000000
# 3 -0.002238 -0.001312 0.010148 0.000000 0.000000 0.000000
# 4 0.000000 0.000000 0.000000 0.032520 0.000000 0.000000
# 5 0.000000 0.000000 0.000000 0.000000 0.013649 0.000000
# 6 0.000000 0.000000 0.000000 0.000000 0.000000 0.340856
#
#
# Mechanical properties :
#
#
# Convention : Reuss Voigt Hill
#
# Bulk Modulus (GPa) = 27.13998 39.01572 33.07785
# Shear Modulus (GPa) = 11.20111 38.59508 24.89809
#
# Velocity S-wave (km/s) = 2.24205 4.16180 3.34271
# Velocity P-wave (km/s) = 4.34537 6.37209 5.45370
#
# Compressibility (1/GPa) = 0.03684600
#
# Stress axis : x y z
#
# Youngs Moduli (GPa) = 131.94631 41.26398 98.53768
#
# Poissons Ratio (x) = -0.04095 0.22051
# Poissons Ratio (y) = -0.13094 0.12931
# Poissons Ratio (z) = 0.29527 0.05415
#
# Static dielectric constant tensor:
#      x y z
#    x 1.820020 0.000000 0.000000 
#    y 0.000000 1.806100 0.000000 
#    z 0.000000 0.000000 1.825690 
# 
# From -- ./inp_files/1091.got.cif
#   From: 2010.05.17/outbox.cif.g08.bks.cpg/sg52_1_cif.got.tgz:1091.got - 2010.06.03 12:15:38.
