data_PCOD9412461
_publ_section_title
;
Structure prediction by ZEFSAII (Michael W. Deem and Ramdas Pophale) SiO2 
 PCOD9412461
Probable space group: P N N A
;
_chemical_formula_sum "Si O2"
_cell_formula_units_Z 32
_cell_length_a 8.283796
_cell_length_b 5.142404
_cell_length_c 30.078398
_cell_angle_alpha 90.000000
_cell_angle_beta 90.000000
_cell_angle_gamma 90.000000
_cell_volume 1281.298418
_symmetry_space_group_name_H-M "P N N A"
_symmetry_group_IT_number 52
_symmetry_cell_setting 'orthorhombic'
loop_
_space_group_symop_operation_xyz
x,y,z
1/2-x,-y,z
x,1/2-y,1/2-z
1/2-x,1/2+y,1/2-z
-x,-y,-z
1/2+x,y,-z
-x,1/2+y,1/2+z
1/2+x,1/2-y,1/2+z
loop_
_atom_site_type_symbol
_atom_site_label
_atom_site_fract_x
_atom_site_fract_y
_atom_site_fract_z
Si Si1 0.979341 0.769306 0.436291
Si Si2 0.483641 0.250000 0.250000
Si Si3 0.250000 0.500000 0.000705
Si Si4 0.750000 0.500000 0.822195
Si Si5 0.750000 0.000000 0.365778
Si Si6 0.750000 0.500000 0.614872
Si Si7 0.250000 0.500000 0.694048
O O1 0.905241 0.931620 0.395615
O O2 0.110415 0.908295 0.466813
O O3 0.087023 0.540166 0.414760
O O4 0.823258 0.771569 0.469208
O O5 0.385645 0.401641 0.212247
O O6 0.597035 0.450522 0.275434
O O7 0.775942 0.747828 0.854237
O O8 0.720965 0.749181 0.336208
#
# Coordination Sequence:
#
# PCOD9412461 Si02
#       7
#     8   4   4   4   4   4   4
#     4  10  23  44  74 108 150 196 250 309 375 448
#     4  12  30  52  78 112 154 202 254 316 382 456
#     4   9  21  46  73 109 150 198 250 309 377 450
#     4  12  30  52  79 114 154 202 256 316 383 456
#     4  11  27  48  75 108 148 196 250 310 375 448
#     4  12  27  46  77 113 152 198 254 315 379 450
#     4  12  29  50  76 110 150 198 252 312 380 452
#
# _framework density 24.974665999999999
#
# number of rings (size 3 to 8) (size 9 to 14) (size 15 to 20)
#    0.000    1.000    0.000    3.750    0.000   24.000 
#    0.000    8.750    0.000    0.000    0.000    0.000 
#    0.000    0.000    0.000    0.000    0.000    0.000 
#
# Total GULP energy -179232.512017 kJ/mol
# GULP energy per Si atom -5601.016001 kJ/mol
# Density = 2.491782 g / cm^3
# Si number density = 24.974666 Si / 1000 Ang^3
#
#
#
# Elastic Constant Matrix: (Units=GPa)
#
#
# Indices 1 2 3 4 5 6 
#
# 1 159.0343 76.7186 88.9439 0.0000 0.0000 0.0000
# 2 76.7186 190.3312 111.4324 0.0000 0.0000 0.0000
# 3 88.9439 111.4324 189.5977 0.0000 0.0000 0.0000
# 4 0.0000 0.0000 0.0000 15.0604 0.0000 0.0000
# 5 0.0000 0.0000 0.0000 0.0000 1.9940 0.0000
# 6 0.0000 0.0000 0.0000 0.0000 0.0000 48.1660
#
#
#
# Elastic Compliance Matrix: (Units=1/GPa)
#
#
# Indices 1 2 3 4 5 6 
#
# 1 0.008887 -0.001740 -0.003146 0.000000 0.000000 0.000000
# 2 -0.001740 0.008351 -0.004092 0.000000 0.000000 0.000000
# 3 -0.003146 -0.004092 0.009155 0.000000 0.000000 0.000000
# 4 0.000000 0.000000 0.000000 0.066399 0.000000 0.000000
# 5 0.000000 0.000000 0.000000 0.000000 0.501492 0.000000
# 6 0.000000 0.000000 0.000000 0.000000 0.000000 0.020762
#
#
# Mechanical properties :
#
#
# Convention : Reuss Voigt Hill
#
# Bulk Modulus (GPa) = 118.52967 121.46145 119.99556
# Shear Modulus (GPa) = 7.86392 30.50198 19.18295
#
# Velocity S-wave (km/s) = 1.77640 3.49853 2.77446
# Velocity P-wave (km/s) = 7.19517 8.06592 7.64295
#
# Compressibility (1/GPa) = 0.00843671
#
# Stress axis : x y z
#
# Youngs Moduli (GPa) = 112.52293 119.74578 109.22682
#
# Poissons Ratio (x) = 0.20837 0.34367
# Poissons Ratio (y) = 0.19580 0.44694
# Poissons Ratio (z) = 0.35404 0.48998
#
# Static dielectric constant tensor:
#      x y z
#    x 1.899580 0.000000 0.000000 
#    y 0.000000 1.968040 0.000000 
#    z 0.000000 0.000000 1.959290 
# 
# From -- ./inp_files/44105.got.cif
#   From: 2010.05.17/outbox.cif.g08.bks.cpg/sg52_23_cif.got.tgz:44105.got - 2010.06.03 12:15:38.
