data_PCOD9412298
_publ_section_title
;
Structure prediction by ZEFSAII (Michael W. Deem and Ramdas Pophale) SiO2 
 PCOD9412298
Probable space group: P N N A
;
_chemical_formula_sum "Si O2"
_cell_formula_units_Z 32
_cell_length_a 8.963470
_cell_length_b 16.013988
_cell_length_c 11.058289
_cell_angle_alpha 90.000000
_cell_angle_beta 90.000000
_cell_angle_gamma 90.000000
_cell_volume 1587.316767
_symmetry_space_group_name_H-M "P N N A"
_symmetry_group_IT_number 52
_symmetry_cell_setting 'orthorhombic'
loop_
_space_group_symop_operation_xyz
x,y,z
1/2-x,-y,z
x,1/2-y,1/2-z
1/2-x,1/2+y,1/2-z
-x,-y,-z
1/2+x,y,-z
-x,1/2+y,1/2+z
1/2+x,1/2-y,1/2+z
loop_
_atom_site_type_symbol
_atom_site_label
_atom_site_fract_x
_atom_site_fract_y
_atom_site_fract_z
Si Si1 0.009004 0.216478 0.118875
Si Si2 0.925535 0.978539 0.870694
Si Si3 0.493872 0.564830 0.886971
Si Si4 0.756769 0.323172 0.012570
O O1 0.018934 0.250000 0.250000
O O2 0.044616 0.119893 0.129896
O O3 0.851627 0.248937 0.071278
O O4 0.127137 0.271523 0.048455
O O5 0.750000 0.000000 0.874718
O O6 0.986098 0.022536 0.745790
O O7 0.000000 0.000000 0.000000
O O8 0.334289 0.612792 0.900082
O O9 0.500000 0.500000 0.000000
O O10 0.633969 0.626189 0.920552
#
# Coordination Sequence:
#
# PCOD9412298 Si02
#       4
#     8   8   8   8
#     4  11  23  42  64  92 129 169 212 263 322 385
#     4  12  26  43  65  98 137 175 216 271 331 390
#     4  11  22  42  70  97 124 166 221 271 319 385
#     4  10  23  41  67  95 123 166 218 267 319 384
#
# _framework density 20.159806
#
# number of rings (size 3 to 8) (size 9 to 14) (size 15 to 20)
#    0.000    1.000    0.000    8.250    0.000    6.000 
#    0.000    5.000    0.000    0.000    0.000    0.000 
#    0.000    0.000    0.000    0.000    0.000    0.000 
#
# Total GULP energy -178345.279452 kJ/mol
# GULP energy per Si atom -5573.289983 kJ/mol
# Density = 2.011392 g / cm^3
# Si number density = 20.159806 Si / 1000 Ang^3
#
#
#
# Elastic Constant Matrix: (Units=GPa)
#
#
# Indices 1 2 3 4 5 6 
#
# 1 124.9000 56.2260 56.4421 0.0000 0.0000 0.0000
# 2 56.2260 178.1496 73.2472 0.0000 0.0000 0.0000
# 3 56.4421 73.2472 158.2826 0.0000 0.0000 0.0000
# 4 0.0000 0.0000 0.0000 48.1554 0.0000 0.0000
# 5 0.0000 0.0000 0.0000 0.0000 12.2963 0.0000
# 6 0.0000 0.0000 0.0000 0.0000 0.0000 29.4261
#
#
#
# Elastic Compliance Matrix: (Units=1/GPa)
#
#
# Indices 1 2 3 4 5 6 
#
# 1 0.010153 -0.002119 -0.002640 0.000000 0.000000 0.000000
# 2 -0.002119 0.007375 -0.002657 0.000000 0.000000 0.000000
# 3 -0.002640 -0.002657 0.008489 0.000000 0.000000 0.000000
# 4 0.000000 0.000000 0.000000 0.020766 0.000000 0.000000
# 5 0.000000 0.000000 0.000000 0.000000 0.081325 0.000000
# 6 0.000000 0.000000 0.000000 0.000000 0.000000 0.033983
#
#
# Mechanical properties :
#
#
# Convention : Reuss Voigt Hill
#
# Bulk Modulus (GPa) = 89.40918 92.57366 90.99142
# Shear Modulus (GPa) = 27.67757 36.33669 32.00713
#
# Velocity S-wave (km/s) = 3.70930 4.25011 3.98888
# Velocity P-wave (km/s) = 7.92412 8.37283 8.15156
#
# Compressibility (1/GPa) = 0.01118453
#
# Stress axis : x y z
#
# Youngs Moduli (GPa) = 98.48974 135.60236 117.80280
#
# Poissons Ratio (x) = 0.28735 0.31100
# Poissons Ratio (y) = 0.20871 0.31300
# Poissons Ratio (z) = 0.26001 0.36030
#
# Static dielectric constant tensor:
#      x y z
#    x 1.706450 0.000000 0.000000 
#    y 0.000000 1.703560 0.000000 
#    z 0.000000 0.000000 1.699470 
# 
# From -- ./inp_files/16413.got.cif
#   From: 2010.05.17/outbox.cif.g08.bks.cpg/sg52_9_cif.got.tgz:16413.got - 2010.06.03 12:15:38.
