data_PCOD9412240
_publ_section_title
;
Structure prediction by ZEFSAII (Michael W. Deem and Ramdas Pophale) SiO2 
 PCOD9412240
Probable space group: P N N A
;
_chemical_formula_sum "Si O2"
_cell_formula_units_Z 28
_cell_length_a 4.867471
_cell_length_b 15.600983
_cell_length_c 14.167323
_cell_angle_alpha 90.000000
_cell_angle_beta 90.000000
_cell_angle_gamma 90.000000
_cell_volume 1075.828715
_symmetry_space_group_name_H-M "P N N A"
_symmetry_group_IT_number 52
_symmetry_cell_setting 'orthorhombic'
loop_
_space_group_symop_operation_xyz
x,y,z
1/2-x,-y,z
x,1/2-y,1/2-z
1/2-x,1/2+y,1/2-z
-x,-y,-z
1/2+x,y,-z
-x,1/2+y,1/2+z
1/2+x,1/2-y,1/2+z
loop_
_atom_site_type_symbol
_atom_site_label
_atom_site_fract_x
_atom_site_fract_y
_atom_site_fract_z
Si Si1 0.197298 0.592016 0.371312
Si Si2 0.889524 0.387803 0.059621
Si Si3 0.779433 0.209314 0.146402
Si Si4 0.250000 0.000000 0.304529
O O1 0.250000 0.500000 0.421921
O O2 0.482075 0.638955 0.351118
O O3 0.087785 0.561547 0.268364
O O4 0.977309 0.661914 0.403674
O O5 0.035777 0.443304 0.138562
O O6 0.896293 0.289354 0.088679
O O7 0.074990 0.404583 0.966959
O O8 0.709945 0.250000 0.250000
#
# Coordination Sequence:
#
# PCOD9412240 Si02
#       4
#     8   8   8   4
#     4  10  23  38  70 100 126 169 238 288 336 378
#     4  12  27  43  66 101 147 184 214 274 355 427
#     4  12  22  42  68  95 135 181 234 282 326 413
#     4  10  24  44  68 106 138 180 220 286 354 410
#
# _framework density 26.026447000000001
#
# number of rings (size 3 to 8) (size 9 to 14) (size 15 to 20)
#    0.857    0.000    2.857    4.286    4.000    2.286 
#    0.000    0.000    0.000   17.143    0.000    0.000 
#    0.000    0.000    0.000    0.000    0.000    0.000 
#
# Total GULP energy -156790.843589 kJ/mol
# GULP energy per Si atom -5599.672985 kJ/mol
# Density = 2.596721 g / cm^3
# Si number density = 26.026447 Si / 1000 Ang^3
#
#
#
# Elastic Constant Matrix: (Units=GPa)
#
#
# Indices 1 2 3 4 5 6 
#
# 1 121.8219 54.6948 5.0783 0.0000 0.0000 0.0000
# 2 54.6948 164.5589 27.9310 0.0000 0.0000 0.0000
# 3 5.0783 27.9310 52.8871 0.0000 0.0000 0.0000
# 4 0.0000 0.0000 0.0000 35.4823 0.0000 0.0000
# 5 0.0000 0.0000 0.0000 0.0000 18.0646 0.0000
# 6 0.0000 0.0000 0.0000 0.0000 0.0000 64.3144
#
#
#
# Elastic Compliance Matrix: (Units=1/GPa)
#
#
# Indices 1 2 3 4 5 6 
#
# 1 0.009683 -0.003362 0.000846 0.000000 0.000000 0.000000
# 2 -0.003362 0.007842 -0.003819 0.000000 0.000000 0.000000
# 3 0.000846 -0.003819 0.020844 0.000000 0.000000 0.000000
# 4 0.000000 0.000000 0.000000 0.028183 0.000000 0.000000
# 5 0.000000 0.000000 0.000000 0.000000 0.055357 0.000000
# 6 0.000000 0.000000 0.000000 0.000000 0.000000 0.015549
#
#
# Mechanical properties :
#
#
# Convention : Reuss Voigt Hill
#
# Bulk Modulus (GPa) = 38.91211 57.18624 48.04918
# Shear Modulus (GPa) = 31.50711 40.34318 35.92514
#
# Velocity S-wave (km/s) = 3.48311 3.94138 3.71931
# Velocity P-wave (km/s) = 5.58207 6.53703 6.07833
#
# Compressibility (1/GPa) = 0.02569894
#
# Stress axis : x y z
#
# Youngs Moduli (GPa) = 103.27557 127.51126 47.97565
#
# Poissons Ratio (x) = 0.42867 -0.04057
# Poissons Ratio (y) = 0.34720 0.18322
# Poissons Ratio (z) = -0.08734 0.48696
#
# Static dielectric constant tensor:
#      x y z
#    x 1.980450 0.000000 0.000000 
#    y 0.000000 2.062290 0.000000 
#    z 0.000000 0.000000 2.077600 
# 
# From -- ./inp_files/29980.got.cif
#   From: 2010.05.17/outbox.cif.g08.bks.cpg/sg52_15_cif.got.tgz:29980.got - 2010.06.03 12:15:38.
