data_PCOD9412661
_publ_section_title
;
Structure prediction by ZEFSAII (Michael W. Deem and Ramdas Pophale) SiO2 
 PCOD9412661
Probable space group: P N N A
;
_chemical_formula_sum "Si O2"
_cell_formula_units_Z 32
_cell_length_a 7.995298
_cell_length_b 21.485279
_cell_length_c 8.181977
_cell_angle_alpha 90.000000
_cell_angle_beta 90.000000
_cell_angle_gamma 90.000000
_cell_volume 1405.509895
_symmetry_space_group_name_H-M "P N N A"
_symmetry_group_IT_number 52
_symmetry_cell_setting 'orthorhombic'
loop_
_space_group_symop_operation_xyz
x,y,z
1/2-x,-y,z
x,1/2-y,1/2-z
1/2-x,1/2+y,1/2-z
-x,-y,-z
1/2+x,y,-z
-x,1/2+y,1/2+z
1/2+x,1/2-y,1/2+z
loop_
_atom_site_type_symbol
_atom_site_label
_atom_site_fract_x
_atom_site_fract_y
_atom_site_fract_z
Si Si1 0.575861 0.896478 0.811874
Si Si2 0.256216 0.823576 0.746686
Si Si3 0.856669 0.063052 0.453963
Si Si4 0.038187 0.096375 0.140953
O O1 0.443022 0.840427 0.803685
O O2 0.575264 0.928986 0.635778
O O3 0.770500 0.883701 0.845843
O O4 0.500515 0.934224 0.965829
O O5 0.240713 0.750000 0.750000
O O6 0.232354 0.869772 0.588590
O O7 0.100112 0.848740 0.853220
O O8 0.991915 0.060299 0.306962
O O9 0.750000 0.000000 0.441191
#
# Coordination Sequence:
#
# PCOD9412661 Si02
#       4
#     8   8   8   8
#     4  12  22  46  71 104 141 189 234 294 357 422
#     4  10  25  46  69 108 140 186 244 292 362 425
#     4  10  25  49  74 105 144 187 236 296 359 423
#     4  10  24  43  71 105 144 187 233 300 349 425
#
# _framework density 22.767538999999999
#
# number of rings (size 3 to 8) (size 9 to 14) (size 15 to 20)
#    1.500    0.000    2.500    1.500    0.000    8.000 
#    0.000    3.750    0.000    0.000    0.000    0.000 
#    0.000    0.000    0.000    0.000    0.000    0.000 
#
# Total GULP energy -178142.634032 kJ/mol
# GULP energy per Si atom -5566.957314 kJ/mol
# Density = 2.271572 g / cm^3
# Si number density = 22.767539 Si / 1000 Ang^3
#
#
#
# Elastic Constant Matrix: (Units=GPa)
#
#
# Indices 1 2 3 4 5 6 
#
# 1 140.1348 44.6812 63.9856 0.0000 0.0000 0.0000
# 2 44.6812 173.1139 52.9682 0.0000 0.0000 0.0000
# 3 63.9856 52.9682 187.5002 0.0000 0.0000 0.0000
# 4 0.0000 0.0000 0.0000 5.1225 0.0000 0.0000
# 5 0.0000 0.0000 0.0000 0.0000 304.1476 0.0000
# 6 0.0000 0.0000 0.0000 0.0000 0.0000 14.3181
#
#
#
# Elastic Compliance Matrix: (Units=1/GPa)
#
#
# Indices 1 2 3 4 5 6 
#
# 1 0.008786 -0.001478 -0.002581 0.000000 0.000000 0.000000
# 2 -0.001478 0.006572 -0.001352 0.000000 0.000000 0.000000
# 3 -0.002581 -0.001352 0.006596 0.000000 0.000000 0.000000
# 4 0.000000 0.000000 0.000000 0.195216 0.000000 0.000000
# 5 0.000000 0.000000 0.000000 0.000000 0.003288 0.000000
# 6 0.000000 0.000000 0.000000 0.000000 0.000000 0.069842
#
#
# Mechanical properties :
#
#
# Convention : Reuss Voigt Hill
#
# Bulk Modulus (GPa) = 89.83263 91.55765 90.69514
# Shear Modulus (GPa) = 16.40252 87.32522 51.86387
#
# Velocity S-wave (km/s) = 2.68700 6.19987 4.77799
# Velocity P-wave (km/s) = 7.01204 9.56831 8.38813
#
# Compressibility (1/GPa) = 0.01113181
#
# Stress axis : x y z
#
# Youngs Moduli (GPa) = 113.82346 152.16698 151.60832
#
# Poissons Ratio (x) = 0.22490 0.39124
# Poissons Ratio (y) = 0.16823 0.20499
# Poissons Ratio (z) = 0.29373 0.20575
#
# Static dielectric constant tensor:
#      x y z
#    x 1.880530 0.000000 0.000000 
#    y 0.000000 1.817680 0.000000 
#    z 0.000000 0.000000 1.959530 
# 
# From -- ./inp_files/7369.got.cif
#   From: 2010.05.17/outbox.cif.g08.bks.cpg/sg52_4_cif.got.tgz:7369.got - 2010.06.03 12:15:38.
