data_PCOD9412929
_publ_section_title
;
Structure prediction by ZEFSAII (Michael W. Deem and Ramdas Pophale) SiO2 
 PCOD9412929
Probable space group: P N N A
;
_chemical_formula_sum "Si O2"
_cell_formula_units_Z 16
_cell_length_a 5.581220
_cell_length_b 5.202503
_cell_length_c 20.789704
_cell_angle_alpha 90.000000
_cell_angle_beta 90.000000
_cell_angle_gamma 90.000000
_cell_volume 603.656369
_symmetry_space_group_name_H-M "P N N A"
_symmetry_group_IT_number 52
_symmetry_cell_setting 'orthorhombic'
loop_
_space_group_symop_operation_xyz
x,y,z
1/2-x,-y,z
x,1/2-y,1/2-z
1/2-x,1/2+y,1/2-z
-x,-y,-z
1/2+x,y,-z
-x,1/2+y,1/2+z
1/2+x,1/2-y,1/2+z
loop_
_atom_site_type_symbol
_atom_site_label
_atom_site_fract_x
_atom_site_fract_y
_atom_site_fract_z
Si Si1 0.998144 0.601478 0.426671
Si Si2 0.920296 0.250000 0.250000
Si Si3 0.750000 0.000000 0.641797
O O1 0.250000 0.500000 0.400336
O O2 0.750000 0.500000 0.399703
O O3 0.000000 0.500000 0.500000
O O4 0.044103 0.895163 0.407608
O O5 0.750000 0.500000 0.259407
O O6 0.096506 0.173354 0.308391
#
# Coordination Sequence:
#
# PCOD9412929 Si02
#       3
#     8   4   4
#     4  10  26  49  82 126 172 227 287 358 445 540
#     4  12  32  54  86 128 176 238 310 374 456 532
#     4  12  30  50  86 126 178 234 298 376 454 538
#
# _framework density 26.505146
#
# number of rings (size 3 to 8) (size 9 to 14) (size 15 to 20)
#    0.000    1.000    0.000    1.500   17.500    8.000 
#    0.000    0.000    0.000    3.000    0.000    0.000 
#    0.000    0.000    0.000    0.000    0.000    0.000 
#
# Total GULP energy -89229.848560 kJ/mol
# GULP energy per Si atom -5576.865535 kJ/mol
# Density = 2.644482 g / cm^3
# Si number density = 26.505146 Si / 1000 Ang^3
#
#
#
# Elastic Constant Matrix: (Units=GPa)
#
#
# Indices 1 2 3 4 5 6 
#
# 1 271.2605 92.7882 73.4082 0.0000 0.0000 0.0000
# 2 92.7882 136.3558 97.1852 0.0000 0.0000 0.0000
# 3 73.4082 97.1852 221.1098 0.0000 0.0000 0.0000
# 4 0.0000 0.0000 0.0000 59.4180 0.0000 0.0000
# 5 0.0000 0.0000 0.0000 0.0000 182.8350 0.0000
# 6 0.0000 0.0000 0.0000 0.0000 0.0000 72.7666
#
#
#
# Elastic Compliance Matrix: (Units=1/GPa)
#
#
# Indices 1 2 3 4 5 6 
#
# 1 0.004813 -0.003111 -0.000231 0.000000 0.000000 0.000000
# 2 -0.003111 0.012690 -0.004545 0.000000 0.000000 0.000000
# 3 -0.000231 -0.004545 0.006597 0.000000 0.000000 0.000000
# 4 0.000000 0.000000 0.000000 0.016830 0.000000 0.000000
# 5 0.000000 0.000000 0.000000 0.000000 0.005469 0.000000
# 6 0.000000 0.000000 0.000000 0.000000 0.000000 0.013743
#
#
# Mechanical properties :
#
#
# Convention : Reuss Voigt Hill
#
# Bulk Modulus (GPa) = 120.08890 128.38771 124.23831
# Shear Modulus (GPa) = 63.54061 87.36022 75.45042
#
# Velocity S-wave (km/s) = 4.90153 5.74728 5.34117
# Velocity P-wave (km/s) = 8.79997 9.62214 9.22022
#
# Compressibility (1/GPa) = 0.00832716
#
# Stress axis : x y z
#
# Youngs Moduli (GPa) = 207.77077 78.80290 151.58841
#
# Poissons Ratio (x) = 0.24514 0.03496
# Poissons Ratio (y) = 0.64634 0.68895
# Poissons Ratio (z) = 0.04791 0.35815
#
# Static dielectric constant tensor:
#      x y z
#    x 2.057680 0.000000 0.000000 
#    y 0.000000 3.556370 0.000000 
#    z 0.000000 0.000000 1.615310 
# 
# From -- ./inp_files/34645.got.cif
#   From: 2010.05.17/outbox.cif.g08.bks.cpg/sg52_18_cif.got.tgz:34645.got - 2010.06.03 12:15:38.
