data_PCOD9412788
_publ_section_title
;
Structure prediction by ZEFSAII (Michael W. Deem and Ramdas Pophale) SiO2 
 PCOD9412788
Probable space group: P N N A
;
_chemical_formula_sum "Si O2"
_cell_formula_units_Z 56
_cell_length_a 13.558648
_cell_length_b 11.784194
_cell_length_c 17.000886
_cell_angle_alpha 90.000000
_cell_angle_beta 90.000000
_cell_angle_gamma 90.000000
_cell_volume 2716.363116
_symmetry_space_group_name_H-M "P N N A"
_symmetry_group_IT_number 52
_symmetry_cell_setting 'orthorhombic'
loop_
_space_group_symop_operation_xyz
x,y,z
1/2-x,-y,z
x,1/2-y,1/2-z
1/2-x,1/2+y,1/2-z
-x,-y,-z
1/2+x,y,-z
-x,1/2+y,1/2+z
1/2+x,1/2-y,1/2+z
loop_
_atom_site_type_symbol
_atom_site_label
_atom_site_fract_x
_atom_site_fract_y
_atom_site_fract_z
Si Si1 0.805074 0.750000 0.750000
Si Si2 0.390057 0.099150 0.624973
Si Si3 0.811350 0.673958 0.327476
Si Si4 0.406497 0.703169 0.085760
Si Si5 0.936424 0.550513 0.572506
Si Si6 0.609237 0.576031 0.307816
Si Si7 0.750000 0.000000 0.828922
Si Si8 0.165705 0.133723 0.568269
O O1 0.865904 0.708204 0.825974
O O2 0.759110 0.876006 0.781332
O O3 0.479696 0.165246 0.585743
O O4 0.396106 0.117681 0.718468
O O5 0.280294 0.123869 0.593406
O O6 0.397774 0.965125 0.608172
O O7 0.808386 0.750000 0.250000
O O8 0.699145 0.641277 0.349329
O O9 0.861949 0.555970 0.307190
O O10 0.864844 0.747298 0.393080
O O11 0.392965 0.828064 0.050067
O O12 0.347550 0.625088 0.024782
O O13 0.845914 0.485470 0.614063
O O14 0.000000 0.500000 0.500000
O O15 0.010924 0.582900 0.642956
#
# Coordination Sequence:
#
# PCOD9412788 Si02
#       8
#     4   8   8   8   8   8   4   8
#     4  10  24  48  70  96 130 184 234 282 346 410
#     4  11  21  38  61  93 124 164 211 265 331 400
#     4  11  19  37  61  96 130 163 200 268 329 391
#     4  11  24  41  64  89 127 173 221 277 327 408
#     4  11  25  44  65  99 130 178 229 276 341 407
#     4  11  22  37  65  94 128 166 213 265 331 405
#     4  10  24  48  72  96 138 178 236 292 340 420
#     4  11  22  37  59  93 128 162 210 267 336 394
#
# _framework density 20.615801000000001
#
# number of rings (size 3 to 8) (size 9 to 14) (size 15 to 20)
#    0.000    1.143    2.857    4.714    0.000    6.857 
#    1.286    2.857    0.000    0.000    0.000    0.000 
#    0.000    0.000    0.000    0.000    0.000    0.000 
#
# Total GULP energy -312084.755540 kJ/mol
# GULP energy per Si atom -5572.942063 kJ/mol
# Density = 2.056888 g / cm^3
# Si number density = 20.615801 Si / 1000 Ang^3
#
#
#
# Elastic Constant Matrix: (Units=GPa)
#
#
# Indices 1 2 3 4 5 6 
#
# 1 47.3668 9.9271 28.6781 0.0000 0.0000 0.0000
# 2 9.9271 104.5848 16.0274 0.0000 0.0000 0.0000
# 3 28.6781 16.0274 115.2598 0.0000 0.0000 0.0000
# 4 0.0000 0.0000 0.0000 5.2520 0.0000 0.0000
# 5 0.0000 0.0000 0.0000 0.0000 -13.9270 0.0000
# 6 0.0000 0.0000 0.0000 0.0000 0.0000 29.1054
#
#
#
# Elastic Compliance Matrix: (Units=1/GPa)
#
#
# Indices 1 2 3 4 5 6 
#
# 1 0.025071 -0.001455 -0.006036 0.000000 0.000000 0.000000
# 2 -0.001455 0.009854 -0.001008 0.000000 0.000000 0.000000
# 3 -0.006036 -0.001008 0.010318 0.000000 0.000000 0.000000
# 4 0.000000 0.000000 0.000000 0.190402 0.000000 0.000000
# 5 0.000000 0.000000 0.000000 0.000000 -0.071803 0.000000
# 6 0.000000 0.000000 0.000000 0.000000 0.000000 0.034358
#
#
# Mechanical properties :
#
#
# Convention : Reuss Voigt Hill
#
# Bulk Modulus (GPa) = 35.40361 41.83074 38.61717
# Shear Modulus (GPa) = 22.26054 18.25801 20.25927
#
# Velocity S-wave (km/s) = 3.28957 2.97919 3.13822
# Velocity P-wave (km/s) = 5.62482 5.67175 5.64834
#
# Compressibility (1/GPa) = 0.02824571
#
# Stress axis : x y z
#
# Youngs Moduli (GPa) = 39.88671 101.47926 96.91778
#
# Poissons Ratio (x) = 0.14763 0.58497
# Poissons Ratio (y) = 0.05803 0.09772
# Poissons Ratio (z) = 0.24074 0.10232
#
# Static dielectric constant tensor:
#      x y z
#    x 1.753430 0.000000 0.000000 
#    y 0.000000 1.911820 0.000000 
#    z 0.000000 0.000000 1.761440 
# 
# From -- ./inp_files/27326.got.cif
#   From: 2010.05.17/outbox.cif.g08.bks.cpg/sg52_14_cif.got.tgz:27326.got - 2010.06.03 12:15:38.
