data_PCOD9412618
_publ_section_title
;
Structure prediction by ZEFSAII (Michael W. Deem and Ramdas Pophale) SiO2 
 PCOD9412618
Probable space group: P N N A
;
_chemical_formula_sum "Si O2"
_cell_formula_units_Z 28
_cell_length_a 9.223198
_cell_length_b 26.132563
_cell_length_c 4.716932
_cell_angle_alpha 90.000000
_cell_angle_beta 90.000000
_cell_angle_gamma 90.000000
_cell_volume 1136.902322
_symmetry_space_group_name_H-M "P N N A"
_symmetry_group_IT_number 52
_symmetry_cell_setting 'orthorhombic'
loop_
_space_group_symop_operation_xyz
x,y,z
1/2-x,-y,z
x,1/2-y,1/2-z
1/2-x,1/2+y,1/2-z
-x,-y,-z
1/2+x,y,-z
-x,1/2+y,1/2+z
1/2+x,1/2-y,1/2+z
loop_
_atom_site_type_symbol
_atom_site_label
_atom_site_fract_x
_atom_site_fract_y
_atom_site_fract_z
Si Si1 0.517589 0.151333 0.187009
Si Si2 0.908010 0.040415 0.683860
Si Si3 0.250000 0.000000 0.769014
Si Si4 0.306379 0.690400 0.187349
O O1 0.491205 0.092476 0.262937
O O2 0.360264 0.176865 0.241946
O O3 0.644460 0.177548 0.370302
O O4 0.578381 0.157908 0.871702
O O5 0.771291 0.045564 0.467909
O O6 0.000000 0.000000 0.500000
O O7 0.137926 0.980889 0.011295
O O8 0.329710 0.750000 0.250000
#
# Coordination Sequence:
#
# PCOD9412618 Si02
#       4
#     8   8   4   8
#     4  12  28  46  80 109 151 196 253 306 385 454
#     4  11  25  43  71 104 148 197 249 303 373 450
#     4  10  24  42  68  94 148 184 242 294 364 424
#     4  12  26  49  75 109 146 192 250 317 381 448
#
# _framework density 24.628323000000002
#
# number of rings (size 3 to 8) (size 9 to 14) (size 15 to 20)
#    0.000    0.571    0.000    6.857   12.000    0.000 
#    0.000    0.000    0.000    0.000    0.000    0.000 
#    0.000    0.000    0.000    0.000    0.000    0.000 
#
# Total GULP energy -156275.552695 kJ/mol
# GULP energy per Si atom -5581.269739 kJ/mol
# Density = 2.457227 g / cm^3
# Si number density = 24.628323 Si / 1000 Ang^3
#
#
#
# Elastic Constant Matrix: (Units=GPa)
#
#
# Indices 1 2 3 4 5 6 
#
# 1 116.2688 10.4872 4.3046 0.0000 0.0000 0.0000
# 2 10.4872 102.7043 -3.9946 0.0000 0.0000 0.0000
# 3 4.3046 -3.9946 137.7572 0.0000 0.0000 0.0000
# 4 0.0000 0.0000 0.0000 30.7422 0.0000 0.0000
# 5 0.0000 0.0000 0.0000 0.0000 32.8623 0.0000
# 6 0.0000 0.0000 0.0000 0.0000 0.0000 19.8538
#
#
#
# Elastic Compliance Matrix: (Units=1/GPa)
#
#
# Indices 1 2 3 4 5 6 
#
# 1 0.008693 -0.000899 -0.000298 0.000000 0.000000 0.000000
# 2 -0.000899 0.009841 0.000313 0.000000 0.000000 0.000000
# 3 -0.000298 0.000313 0.007278 0.000000 0.000000 0.000000
# 4 0.000000 0.000000 0.000000 0.032529 0.000000 0.000000
# 5 0.000000 0.000000 0.000000 0.000000 0.030430 0.000000
# 6 0.000000 0.000000 0.000000 0.000000 0.000000 0.050368
#
#
# Mechanical properties :
#
#
# Convention : Reuss Voigt Hill
#
# Bulk Modulus (GPa) = 41.59007 42.03606 41.81306
# Shear Modulus (GPa) = 33.57515 39.75386 36.66450
#
# Velocity S-wave (km/s) = 3.69626 4.02201 3.86257
# Velocity P-wave (km/s) = 5.92792 6.21884 6.07512
#
# Compressibility (1/GPa) = 0.02404420
#
# Stress axis : x y z
#
# Youngs Moduli (GPa) = 115.03656 101.61877 137.40901
#
# Poissons Ratio (x) = 0.09138 0.04091
# Poissons Ratio (y) = 0.10344 -0.04307
# Poissons Ratio (z) = 0.03425 -0.03185
#
# Static dielectric constant tensor:
#      x y z
#    x 3.667970 0.000000 0.000000 
#    y 0.000000 1.978290 0.000000 
#    z 0.000000 0.000000 1.923470 
# 
# From -- ./inp_files/355.got.cif
#   From: 2010.05.17/outbox.cif.g08.bks.cpg/sg52_1_cif.got.tgz:355.got - 2010.06.03 12:15:38.
