data_PCOD9412010
_publ_section_title
;
Structure prediction by ZEFSAII (Michael W. Deem and Ramdas Pophale) SiO2 
 PCOD9412010
Probable space group: P N N A
;
_chemical_formula_sum "Si O2"
_cell_formula_units_Z 44
_cell_length_a 8.298714
_cell_length_b 13.245097
_cell_length_c 17.961710
_cell_angle_alpha 90.000000
_cell_angle_beta 90.000000
_cell_angle_gamma 90.000000
_cell_volume 1974.302162
_symmetry_space_group_name_H-M "P N N A"
_symmetry_group_IT_number 52
_symmetry_cell_setting 'orthorhombic'
loop_
_space_group_symop_operation_xyz
x,y,z
1/2-x,-y,z
x,1/2-y,1/2-z
1/2-x,1/2+y,1/2-z
-x,-y,-z
1/2+x,y,-z
-x,1/2+y,1/2+z
1/2+x,1/2-y,1/2+z
loop_
_atom_site_type_symbol
_atom_site_label
_atom_site_fract_x
_atom_site_fract_y
_atom_site_fract_z
Si Si1 0.594077 0.862212 0.452245
Si Si2 0.550969 0.407736 0.097264
Si Si3 0.458044 0.661233 0.454947
Si Si4 0.250000 0.500000 0.361688
Si Si5 0.695346 0.113341 0.106602
Si Si6 0.024977 0.857222 0.235604
O O1 0.778411 0.854320 0.423803
O O2 0.583382 0.861916 0.542285
O O3 0.454392 0.780186 0.433582
O O4 0.552684 0.973937 0.423314
O O5 0.521755 0.397709 0.184019
O O6 0.346512 0.582999 0.410322
O O7 0.643669 0.649405 0.433132
O O8 0.435592 0.630395 0.541322
O O9 0.371709 0.437820 0.309817
O O10 0.628717 0.162458 0.181777
O O11 0.750000 0.000000 0.126217
O O12 0.109622 0.750000 0.250000
#
# Coordination Sequence:
#
# PCOD9412010 Si02
#       6
#     8   8   8   4   8   8
#     4  10  22  42  72  96 132 176 230 284 342 409
#     4  10  24  45  68 102 133 177 233 288 342 421
#     4  12  23  43  70 104 137 186 237 287 349 422
#     4  12  28  44  66 100 142 182 236 292 352 426
#     4  12  24  44  71 100 142 184 227 291 344 411
#     4  12  27  47  68  99 142 184 228 292 361 418
#
# _framework density 22.286353999999999
#
# number of rings (size 3 to 8) (size 9 to 14) (size 15 to 20)
#    0.000    0.727    2.727    4.909    2.545    5.818 
#    0.000    0.909    0.000    0.000    0.000    0.000 
#    0.000    0.000    0.000    0.000    0.000    0.000 
#
# Total GULP energy -245544.569279 kJ/mol
# GULP energy per Si atom -5580.558393 kJ/mol
# Density = 2.223563 g / cm^3
# Si number density = 22.286354 Si / 1000 Ang^3
#
#
#
# Elastic Constant Matrix: (Units=GPa)
#
#
# Indices 1 2 3 4 5 6 
#
# 1 76.6445 39.9662 61.7804 0.0000 0.0000 0.0000
# 2 39.9662 127.6500 48.2807 0.0000 0.0000 0.0000
# 3 61.7804 48.2807 207.5633 0.0000 0.0000 0.0000
# 4 0.0000 0.0000 0.0000 49.9344 0.0000 0.0000
# 5 0.0000 0.0000 0.0000 0.0000 8.0640 0.0000
# 6 0.0000 0.0000 0.0000 0.0000 0.0000 30.4619
#
#
#
# Elastic Compliance Matrix: (Units=1/GPa)
#
#
# Indices 1 2 3 4 5 6 
#
# 1 0.019001 -0.004178 -0.004684 0.000000 0.000000 0.000000
# 2 -0.004178 0.009508 -0.000968 0.000000 0.000000 0.000000
# 3 -0.004684 -0.000968 0.006437 0.000000 0.000000 0.000000
# 4 0.000000 0.000000 0.000000 0.020026 0.000000 0.000000
# 5 0.000000 0.000000 0.000000 0.000000 0.124008 0.000000
# 6 0.000000 0.000000 0.000000 0.000000 0.000000 0.032828
#
#
# Mechanical properties :
#
#
# Convention : Reuss Voigt Hill
#
# Bulk Modulus (GPa) = 65.41463 79.10138 72.25801
# Shear Modulus (GPa) = 21.13602 35.14744 28.14173
#
# Velocity S-wave (km/s) = 3.08292 3.97556 3.55735
# Velocity P-wave (km/s) = 6.48754 7.52620 7.02609
#
# Compressibility (1/GPa) = 0.01528710
#
# Stress axis : x y z
#
# Youngs Moduli (GPa) = 52.62840 105.17375 155.34788
#
# Poissons Ratio (x) = 0.43937 0.72763
# Poissons Ratio (y) = 0.21986 0.15041
# Poissons Ratio (z) = 0.24651 0.10183
#
# Static dielectric constant tensor:
#      x y z
#    x 1.858310 0.000000 0.000000 
#    y 0.000000 2.163030 0.000000 
#    z 0.000000 0.000000 1.758060 
# 
# From -- ./inp_files/31162.got.cif
#   From: 2010.05.17/outbox.cif.g08.bks.cpg/sg52_16_cif.got.tgz:31162.got - 2010.06.03 12:15:38.
