data_PCOD9412529
_publ_section_title
;
Structure prediction by ZEFSAII (Michael W. Deem and Ramdas Pophale) SiO2 
 PCOD9412529
Probable space group: P N N A
;
_chemical_formula_sum "Si O2"
_cell_formula_units_Z 32
_cell_length_a 15.823076
_cell_length_b 13.348464
_cell_length_c 5.879023
_cell_angle_alpha 90.000000
_cell_angle_beta 90.000000
_cell_angle_gamma 90.000000
_cell_volume 1241.730555
_symmetry_space_group_name_H-M "P N N A"
_symmetry_group_IT_number 52
_symmetry_cell_setting 'orthorhombic'
loop_
_space_group_symop_operation_xyz
x,y,z
1/2-x,-y,z
x,1/2-y,1/2-z
1/2-x,1/2+y,1/2-z
-x,-y,-z
1/2+x,y,-z
-x,1/2+y,1/2+z
1/2+x,1/2-y,1/2+z
loop_
_atom_site_type_symbol
_atom_site_label
_atom_site_fract_x
_atom_site_fract_y
_atom_site_fract_z
Si Si1 0.327273 0.266249 0.009068
Si Si2 0.660887 0.157670 0.084156
Si Si3 0.532573 0.426575 0.698693
Si Si4 0.363275 0.025224 0.574994
O O1 0.360655 0.250000 0.750000
O O2 0.250560 0.185816 0.029287
O O3 0.301617 0.383559 0.987879
O O4 0.375834 0.250000 0.250000
O O5 0.651100 0.250000 0.250000
O O6 0.659066 0.052021 0.222561
O O7 0.578144 0.162777 0.928123
O O8 0.500000 0.500000 0.500000
O O9 0.451691 0.419008 0.858476
O O10 0.609891 0.469000 0.847288
#
# Coordination Sequence:
#
# PCOD9412529 Si02
#       4
#     8   8   8   8
#     4  11  28  49  71 114 149 199 254 304 376 457
#     4  10  24  45  72 110 144 198 250 307 384 457
#     4   9  21  45  74 105 143 198 248 312 381 448
#     4  10  23  49  73 105 153 194 247 320 379 447
#
# _framework density 25.770484
#
# number of rings (size 3 to 8) (size 9 to 14) (size 15 to 20)
#    0.000    2.000    0.000    0.000   14.000    4.000 
#   13.500    0.000    0.000    0.000    0.000    0.000 
#    0.000    0.000    0.000    0.000    0.000    0.000 
#
# Total GULP energy -178394.503895 kJ/mol
# GULP energy per Si atom -5574.828247 kJ/mol
# Density = 2.571183 g / cm^3
# Si number density = 25.770484 Si / 1000 Ang^3
#
#
#
# Elastic Constant Matrix: (Units=GPa)
#
#
# Indices 1 2 3 4 5 6 
#
# 1 55.1857 35.2134 22.0984 0.0000 0.0000 0.0000
# 2 35.2134 109.4839 17.1510 0.0000 0.0000 0.0000
# 3 22.0984 17.1510 139.3619 0.0000 0.0000 0.0000
# 4 0.0000 0.0000 0.0000 34.2173 0.0000 0.0000
# 5 0.0000 0.0000 0.0000 0.0000 0.1737 0.0000
# 6 0.0000 0.0000 0.0000 0.0000 0.0000 346.4164
#
#
#
# Elastic Compliance Matrix: (Units=1/GPa)
#
#
# Indices 1 2 3 4 5 6 
#
# 1 0.023896 -0.007231 -0.002899 0.000000 0.000000 0.000000
# 2 -0.007231 0.011502 -0.000269 0.000000 0.000000 0.000000
# 3 -0.002899 -0.000269 0.007668 0.000000 0.000000 0.000000
# 4 0.000000 0.000000 0.000000 0.029225 0.000000 0.000000
# 5 0.000000 0.000000 0.000000 0.000000 5.755921 0.000000
# 6 0.000000 0.000000 0.000000 0.000000 0.000000 0.002887
#
#
# Mechanical properties :
#
#
# Convention : Reuss Voigt Hill
#
# Bulk Modulus (GPa) = 44.90938 50.32855 47.61896
# Shear Modulus (GPa) = 0.85334 91.46608 46.15971
#
# Velocity S-wave (km/s) = 0.57606 5.96403 4.23683
# Velocity P-wave (km/s) = 4.23166 8.18524 6.51556
#
# Compressibility (1/GPa) = 0.02226707
#
# Stress axis : x y z
#
# Youngs Moduli (GPa) = 41.84823 86.94341 130.40601
#
# Poissons Ratio (x) = 0.62873 0.37807
# Poissons Ratio (y) = 0.30262 0.03505
# Poissons Ratio (z) = 0.12132 0.02337
#
# Static dielectric constant tensor:
#      x y z
#    x 2.137170 0.000000 0.000000 
#    y 0.000000 2.104580 0.000000 
#    z 0.000000 0.000000 2.168310 
# 
# From -- ./inp_files/3914.got.cif
#   From: 2010.05.17/outbox.cif.g08.bks.cpg/sg52_2_cif.got.tgz:3914.got - 2010.06.03 12:15:38.
