data_PCOD9412679
_publ_section_title
;
Structure prediction by ZEFSAII (Michael W. Deem and Ramdas Pophale) SiO2 
 PCOD9412679
Probable space group: P N N A
;
_chemical_formula_sum "Si O2"
_cell_formula_units_Z 24
_cell_length_a 9.817569
_cell_length_b 19.770048
_cell_length_c 5.202784
_cell_angle_alpha 90.000000
_cell_angle_beta 90.000000
_cell_angle_gamma 90.000000
_cell_volume 1009.828171
_symmetry_space_group_name_H-M "P N N A"
_symmetry_group_IT_number 52
_symmetry_cell_setting 'orthorhombic'
loop_
_space_group_symop_operation_xyz
x,y,z
1/2-x,-y,z
x,1/2-y,1/2-z
1/2-x,1/2+y,1/2-z
-x,-y,-z
1/2+x,y,-z
-x,1/2+y,1/2+z
1/2+x,1/2-y,1/2+z
loop_
_atom_site_type_symbol
_atom_site_label
_atom_site_fract_x
_atom_site_fract_y
_atom_site_fract_z
Si Si1 0.015349 0.108290 0.046847
Si Si2 0.152645 0.063688 0.537708
Si Si3 0.235868 0.825517 0.210493
O O1 0.084353 0.067989 0.813680
O O2 0.867371 0.131185 0.962364
O O3 0.038787 0.068251 0.312013
O O4 0.114223 0.173412 0.083914
O O5 0.240441 0.131395 0.470390
O O6 0.250000 0.000000 0.506282
O O7 0.186075 0.750000 0.250000
#
# Coordination Sequence:
#
# PCOD9412679 Si02
#       3
#     8   8   8
#     4  10  25  43  68  99 130 180 221 273 336 393
#     4  10  24  44  68 102 135 175 225 276 334 398
#     4  10  26  44  70  97 141 172 229 277 335 399
#
# _framework density 23.766418000000002
#
# number of rings (size 3 to 8) (size 9 to 14) (size 15 to 20)
#    2.000    0.000    0.000    1.000    9.333    2.667 
#    0.000    0.000    0.000    0.000    0.000    0.000 
#    0.000    0.000    0.000    0.000    0.000    0.000 
#
# Total GULP energy -134082.529527 kJ/mol
# GULP energy per Si atom -5586.772064 kJ/mol
# Density = 2.371232 g / cm^3
# Si number density = 23.766418 Si / 1000 Ang^3
#
#
#
# Elastic Constant Matrix: (Units=GPa)
#
#
# Indices 1 2 3 4 5 6 
#
# 1 75.2782 -5.3796 0.3097 0.0000 0.0000 0.0000
# 2 -5.3796 100.9054 -7.2754 0.0000 0.0000 0.0000
# 3 0.3097 -7.2754 99.7069 0.0000 0.0000 0.0000
# 4 0.0000 0.0000 0.0000 8.9834 0.0000 0.0000
# 5 0.0000 0.0000 0.0000 0.0000 17.4098 0.0000
# 6 0.0000 0.0000 0.0000 0.0000 0.0000 39.1104
#
#
#
# Elastic Compliance Matrix: (Units=1/GPa)
#
#
# Indices 1 2 3 4 5 6 
#
# 1 0.013335 0.000712 0.000011 0.000000 0.000000 0.000000
# 2 0.000712 0.010001 0.000728 0.000000 0.000000 0.000000
# 3 0.000011 0.000728 0.010082 0.000000 0.000000 0.000000
# 4 0.000000 0.000000 0.000000 0.111316 0.000000 0.000000
# 5 0.000000 0.000000 0.000000 0.000000 0.057439 0.000000
# 6 0.000000 0.000000 0.000000 0.000000 0.000000 0.025569
#
#
# Mechanical properties :
#
#
# Convention : Reuss Voigt Hill
#
# Bulk Modulus (GPa) = 27.53501 27.91111 27.72306
# Shear Modulus (GPa) = 21.10166 32.31645 26.70905
#
# Velocity S-wave (km/s) = 2.98296 3.69148 3.35597
# Velocity P-wave (km/s) = 4.84509 5.47164 5.16787
#
# Compressibility (1/GPa) = 0.03631740
#
# Stress axis : x y z
#
# Youngs Moduli (GPa) = 74.99138 99.99332 99.18226
#
# Poissons Ratio (x) = -0.07116 -0.00104
# Poissons Ratio (y) = -0.05337 -0.07216
# Poissons Ratio (z) = -0.00079 -0.07275
#
# Static dielectric constant tensor:
#      x y z
#    x 1.927020 0.000000 0.000000 
#    y 0.000000 1.916360 0.000000 
#    z 0.000000 0.000000 1.892940 
# 
# From -- ./inp_files/278.got.cif
#   From: 2010.05.17/outbox.cif.g08.bks.cpg/sg52_1_cif.got.tgz:278.got - 2010.06.03 12:15:38.
