data_PCOD9412498
_publ_section_title
;
Structure prediction by ZEFSAII (Michael W. Deem and Ramdas Pophale) SiO2 
 PCOD9412498
Probable space group: P N N A
;
_chemical_formula_sum "Si O2"
_cell_formula_units_Z 60
_cell_length_a 12.310144
_cell_length_b 19.647478
_cell_length_c 11.277756
_cell_angle_alpha 90.000000
_cell_angle_beta 90.000000
_cell_angle_gamma 90.000000
_cell_volume 2727.675096
_symmetry_space_group_name_H-M "P N N A"
_symmetry_group_IT_number 52
_symmetry_cell_setting 'orthorhombic'
loop_
_space_group_symop_operation_xyz
x,y,z
1/2-x,-y,z
x,1/2-y,1/2-z
1/2-x,1/2+y,1/2-z
-x,-y,-z
1/2+x,y,-z
-x,1/2+y,1/2+z
1/2+x,1/2-y,1/2+z
loop_
_atom_site_type_symbol
_atom_site_label
_atom_site_fract_x
_atom_site_fract_y
_atom_site_fract_z
Si Si1 0.136831 0.522469 0.234220
Si Si2 0.072566 0.250000 0.750000
Si Si3 0.717270 0.329784 0.424115
Si Si4 0.072538 0.449552 0.601469
Si Si5 0.582484 0.652539 0.903131
Si Si6 0.950954 0.614751 0.865912
Si Si7 0.432814 0.400719 0.615344
Si Si8 0.222884 0.235721 0.381595
O O1 0.250000 0.500000 0.294986
O O2 0.035940 0.539007 0.320354
O O3 0.146884 0.592092 0.162150
O O4 0.393050 0.541310 0.149699
O O5 0.155465 0.271240 0.647011
O O6 0.996186 0.308039 0.809945
O O7 0.661603 0.395209 0.363434
O O8 0.845326 0.344154 0.418896
O O9 0.691953 0.306808 0.558313
O O10 0.028817 0.415785 0.479170
O O11 0.122300 0.524659 0.603831
O O12 0.673920 0.704429 0.949519
O O13 0.517945 0.620288 0.012655
O O14 0.871315 0.679781 0.871837
O O15 0.022788 0.616416 0.745654
O O16 0.262388 0.250000 0.250000
#
# Coordination Sequence:
#
# PCOD9412498 Si02
#       8
#     8   4   8   8   8   8   8   8
#     4  11  23  44  76 100 134 183 242 293 353 423
#     4  12  26  46  70 102 144 188 236 286 356 432
#     4  12  26  44  70 101 141 187 226 291 357 428
#     4  10  23  46  70 104 137 180 231 299 355 423
#     4  12  25  46  69  99 143 190 238 287 352 429
#     4  11  25  46  66 105 138 182 234 301 350 418
#     4  10  25  43  72 102 140 179 235 294 358 417
#     4  12  27  42  71 103 138 187 238 285 355 431
#
# _framework density 21.996756000000001
#
# number of rings (size 3 to 8) (size 9 to 14) (size 15 to 20)
#    0.000    0.800    4.667    1.600    5.600    4.267 
#    0.000    0.000    0.000    0.000    0.000    0.000 
#    0.000    0.000    0.000    0.000    0.000    0.000 
#
# Total GULP energy -334568.521768 kJ/mol
# GULP energy per Si atom -5576.142029 kJ/mol
# Density = 2.194669 g / cm^3
# Si number density = 21.996756 Si / 1000 Ang^3
#
#
#
# Elastic Constant Matrix: (Units=GPa)
#
#
# Indices 1 2 3 4 5 6 
#
# 1 64.7668 48.8935 28.5089 0.0000 0.0000 0.0000
# 2 48.8935 103.0392 15.6125 0.0000 0.0000 0.0000
# 3 28.5089 15.6125 76.8827 0.0000 0.0000 0.0000
# 4 0.0000 0.0000 0.0000 36.9655 0.0000 0.0000
# 5 0.0000 0.0000 0.0000 0.0000 5.0131 0.0000
# 6 0.0000 0.0000 0.0000 0.0000 0.0000 33.8830
#
#
#
# Elastic Compliance Matrix: (Units=1/GPa)
#
#
# Indices 1 2 3 4 5 6 
#
# 1 0.028097 -0.012127 -0.007956 0.000000 0.000000 0.000000
# 2 -0.012127 0.015247 0.001401 0.000000 0.000000 0.000000
# 3 -0.007956 0.001401 0.015673 0.000000 0.000000 0.000000
# 4 0.000000 0.000000 0.000000 0.027052 0.000000 0.000000
# 5 0.000000 0.000000 0.000000 0.000000 0.199478 0.000000
# 6 0.000000 0.000000 0.000000 0.000000 0.000000 0.029513
#
#
# Mechanical properties :
#
#
# Convention : Reuss Voigt Hill
#
# Bulk Modulus (GPa) = 46.18519 47.85761 47.02140
# Shear Modulus (GPa) = 13.90271 25.28388 19.59329
#
# Velocity S-wave (km/s) = 2.51676 3.39401 2.98776
# Velocity P-wave (km/s) = 5.43023 6.09615 5.77280
#
# Compressibility (1/GPa) = 0.02165196
#
# Stress axis : x y z
#
# Youngs Moduli (GPa) = 35.59128 65.58595 63.80557
#
# Poissons Ratio (x) = 0.79535 0.50764
# Poissons Ratio (y) = 0.43161 -0.08936
# Poissons Ratio (z) = 0.28316 -0.09185
#
# Static dielectric constant tensor:
#      x y z
#    x 1.833690 0.000000 0.000000 
#    y 0.000000 1.919960 0.000000 
#    z 0.000000 0.000000 1.939190 
# 
# From -- ./inp_files/18388.got.cif
#   From: 2010.05.17/outbox.cif.g08.bks.cpg/sg52_10_cif.got.tgz:18388.got - 2010.06.03 12:15:38.
