data_PCOD9412903
_publ_section_title
;
Structure prediction by ZEFSAII (Michael W. Deem and Ramdas Pophale) SiO2 
 PCOD9412903
Probable space group: P N N A
;
_chemical_formula_sum "Si O2"
_cell_formula_units_Z 56
_cell_length_a 27.271177
_cell_length_b 15.714401
_cell_length_c 6.229772
_cell_angle_alpha 90.000000
_cell_angle_beta 90.000000
_cell_angle_gamma 90.000000
_cell_volume 2669.770106
_symmetry_space_group_name_H-M "P N N A"
_symmetry_group_IT_number 52
_symmetry_cell_setting 'orthorhombic'
loop_
_space_group_symop_operation_xyz
x,y,z
1/2-x,-y,z
x,1/2-y,1/2-z
1/2-x,1/2+y,1/2-z
-x,-y,-z
1/2+x,y,-z
-x,1/2+y,1/2+z
1/2+x,1/2-y,1/2+z
loop_
_atom_site_type_symbol
_atom_site_label
_atom_site_fract_x
_atom_site_fract_y
_atom_site_fract_z
Si Si1 0.615429 0.437075 0.525290
Si Si2 0.526701 0.750000 0.250000
Si Si3 0.657477 0.535822 0.883580
Si Si4 0.750000 0.500000 0.160619
Si Si5 0.065059 0.227356 0.002206
Si Si6 0.287131 0.666116 0.614365
Si Si7 0.189299 0.820211 0.087868
Si Si8 0.389332 0.384360 0.728349
O O1 0.624436 0.466536 0.768219
O O2 0.570186 0.374249 0.502343
O O3 0.663788 0.381411 0.462990
O O4 0.609850 0.522702 0.385437
O O5 0.489626 0.760359 0.450999
O O6 0.561247 0.668987 0.286306
O O7 0.685659 0.589040 0.703388
O O8 0.700208 0.498436 0.027471
O O9 0.625089 0.597452 0.027734
O O10 0.745415 0.410820 0.283716
O O11 0.079782 0.250000 0.750000
O O12 0.088853 0.250000 0.250000
O O13 0.300761 0.750000 0.750000
O O14 0.245729 0.701506 0.454905
O O15 0.169035 0.750000 0.250000
O O16 0.153986 0.830772 0.884898
#
# Coordination Sequence:
#
# PCOD9412903 Si02
#       8
#     8   4   8   4   8   8   8   8
#     4  11  25  43  69 104 140 194 242 303 375 454
#     4  10  26  46  74 106 134 190 242 316 384 452
#     4  11  22  38  68  96 141 189 232 299 356 439
#     4  12  20  42  64  94 150 190 240 292 358 434
#     4  10  26  50  76 104 146 186 245 321 375 451
#     4  12  24  40  65  97 142 196 240 296 364 436
#     4  11  23  38  60 101 137 184 238 287 355 441
#     4  11  23  43  72 101 139 184 235 304 373 446
#
# _framework density 20.975587999999998
#
# number of rings (size 3 to 8) (size 9 to 14) (size 15 to 20)
#    0.429    0.571    2.857    3.857    3.000    5.143 
#    0.000    1.429    0.000    0.000    0.000    0.000 
#    0.000    0.000    0.000    0.000    0.000    0.000 
#
# Total GULP energy -311816.202980 kJ/mol
# GULP energy per Si atom -5568.146482 kJ/mol
# Density = 2.092785 g / cm^3
# Si number density = 20.975588 Si / 1000 Ang^3
#
#
#
# Elastic Constant Matrix: (Units=GPa)
#
#
# Indices 1 2 3 4 5 6 
#
# 1 54.6584 22.4027 15.1064 0.0000 0.0000 0.0000
# 2 22.4027 113.3501 42.8397 0.0000 0.0000 0.0000
# 3 15.1064 42.8397 98.4186 0.0000 0.0000 0.0000
# 4 0.0000 0.0000 0.0000 23.0266 0.0000 0.0000
# 5 0.0000 0.0000 0.0000 0.0000 15.5960 0.0000
# 6 0.0000 0.0000 0.0000 0.0000 0.0000 35.5706
#
#
#
# Elastic Compliance Matrix: (Units=1/GPa)
#
#
# Indices 1 2 3 4 5 6 
#
# 1 0.020123 -0.003363 -0.001625 0.000000 0.000000 0.000000
# 2 -0.003363 0.011121 -0.004325 0.000000 0.000000 0.000000
# 3 -0.001625 -0.004325 0.012293 0.000000 0.000000 0.000000
# 4 0.000000 0.000000 0.000000 0.043428 0.000000 0.000000
# 5 0.000000 0.000000 0.000000 0.000000 0.064119 0.000000
# 6 0.000000 0.000000 0.000000 0.000000 0.000000 0.028113
#
#
# Mechanical properties :
#
#
# Convention : Reuss Voigt Hill
#
# Bulk Modulus (GPa) = 40.14185 47.45832 43.80008
# Shear Modulus (GPa) = 24.25699 27.24386 25.75043
#
# Velocity S-wave (km/s) = 3.40434 3.60785 3.50757
# Velocity P-wave (km/s) = 5.88486 6.32693 6.10990
#
# Compressibility (1/GPa) = 0.02491166
#
# Stress axis : x y z
#
# Youngs Moduli (GPa) = 49.69462 89.91678 81.35007
#
# Poissons Ratio (x) = 0.30239 0.13218
# Poissons Ratio (y) = 0.16712 0.35182
# Poissons Ratio (z) = 0.08075 0.38887
#
# Static dielectric constant tensor:
#      x y z
#    x 1.764430 0.000000 0.000000 
#    y 0.000000 1.825690 0.000000 
#    z 0.000000 0.000000 1.886330 
# 
# From -- ./inp_files/6473.got.cif
#   From: 2010.05.17/outbox.cif.g08.bks.cpg/sg52_4_cif.got.tgz:6473.got - 2010.06.03 12:15:38.
