data_PCOD9412358
_publ_section_title
;
Structure prediction by ZEFSAII (Michael W. Deem and Ramdas Pophale) SiO2 
 PCOD9412358
Probable space group: P N N A
;
_chemical_formula_sum "Si O2"
_cell_formula_units_Z 56
_cell_length_a 9.841496
_cell_length_b 20.376155
_cell_length_c 12.295718
_cell_angle_alpha 90.000000
_cell_angle_beta 90.000000
_cell_angle_gamma 90.000000
_cell_volume 2465.683052
_symmetry_space_group_name_H-M "P N N A"
_symmetry_group_IT_number 52
_symmetry_cell_setting 'orthorhombic'
loop_
_space_group_symop_operation_xyz
x,y,z
1/2-x,-y,z
x,1/2-y,1/2-z
1/2-x,1/2+y,1/2-z
-x,-y,-z
1/2+x,y,-z
-x,1/2+y,1/2+z
1/2+x,1/2-y,1/2+z
loop_
_atom_site_type_symbol
_atom_site_label
_atom_site_fract_x
_atom_site_fract_y
_atom_site_fract_z
Si Si1 0.463915 0.267670 0.125115
Si Si2 0.757251 0.577645 0.618754
Si Si3 0.790768 0.571699 0.292345
Si Si4 0.292919 0.650479 0.163132
Si Si5 0.178062 0.121652 0.568002
Si Si6 0.009532 0.371771 0.529634
Si Si7 0.102939 0.821663 0.709688
O O1 0.504132 0.250000 0.250000
O O2 0.306992 0.289918 0.132335
O O3 0.554708 0.328167 0.085691
O O4 0.492006 0.206028 0.047004
O O5 0.750000 0.500000 0.632974
O O6 0.909957 0.601070 0.364658
O O7 0.732159 0.613569 0.733103
O O8 0.639429 0.597790 0.535452
O O9 0.750000 0.500000 0.330758
O O10 0.834569 0.568640 0.164410
O O11 0.666144 0.623192 0.289121
O O12 0.443244 0.673825 0.193618
O O13 0.309520 0.603939 0.057539
O O14 0.315383 0.160930 0.600300
O O15 0.101605 0.395775 0.430255
O O16 0.141238 0.750000 0.750000
#
# Coordination Sequence:
#
# PCOD9412358 Si02
#       7
#     8   8   8   8   8   8   8
#     4  12  22  46  69 102 146 187 237 306 382 428
#     4  12  30  49  74 106 151 201 252 307 372 453
#     4  10  23  45  77 102 143 197 246 299 369 447
#     4  12  26  43  69 112 145 184 243 312 366 450
#     4  10  23  42  70 104 145 186 235 296 375 442
#     4  12  27  48  76 104 146 197 253 311 373 438
#     4  10  23  42  71 102 146 190 247 297 363 449
#
# _framework density 22.711760000000002
#
# number of rings (size 3 to 8) (size 9 to 14) (size 15 to 20)
#    0.857    0.000    2.857    3.429    6.000    1.714 
#    0.000    0.714    0.000    0.000    0.000    0.000 
#    0.000    0.000    0.000    0.000    0.000    0.000 
#
# Total GULP energy -313293.851023 kJ/mol
# GULP energy per Si atom -5594.533054 kJ/mol
# Density = 2.266007 g / cm^3
# Si number density = 22.711760 Si / 1000 Ang^3
#
#
#
# Elastic Constant Matrix: (Units=GPa)
#
#
# Indices 1 2 3 4 5 6 
#
# 1 116.6056 21.8969 -4.7915 0.0000 0.0000 0.0000
# 2 21.8969 82.0795 -1.6692 0.0000 0.0000 0.0000
# 3 -4.7915 -1.6692 110.2059 0.0000 0.0000 0.0000
# 4 0.0000 0.0000 0.0000 0.2694 0.0000 0.0000
# 5 0.0000 0.0000 0.0000 0.0000 27.2495 0.0000
# 6 0.0000 0.0000 0.0000 0.0000 0.0000 39.1076
#
#
#
# Elastic Compliance Matrix: (Units=1/GPa)
#
#
# Indices 1 2 3 4 5 6 
#
# 1 0.009042 -0.002405 0.000357 0.000000 0.000000 0.000000
# 2 -0.002405 0.012827 0.000090 0.000000 0.000000 0.000000
# 3 0.000357 0.000090 0.009091 0.000000 0.000000 0.000000
# 4 0.000000 0.000000 0.000000 3.711722 0.000000 0.000000
# 5 0.000000 0.000000 0.000000 0.000000 0.036698 0.000000
# 6 0.000000 0.000000 0.000000 0.000000 0.000000 0.025570
#
#
# Mechanical properties :
#
#
# Convention : Reuss Voigt Hill
#
# Bulk Modulus (GPa) = 36.97872 37.75148 37.36510
# Shear Modulus (GPa) = 1.30963 32.88895 17.09929
#
# Velocity S-wave (km/s) = 0.76018 3.80952 2.74685
# Velocity P-wave (km/s) = 4.13372 6.00067 5.15246
#
# Compressibility (1/GPa) = 0.02704258
#
# Stress axis : x y z
#
# Youngs Moduli (GPa) = 110.59254 77.96221 110.00138
#
# Poissons Ratio (x) = 0.18750 -0.03924
# Poissons Ratio (y) = 0.26597 -0.00987
# Poissons Ratio (z) = -0.03945 -0.00699
#
# Static dielectric constant tensor:
#      x y z
#    x 1.821260 0.000000 0.000000 
#    y 0.000000 1.792970 0.000000 
#    z 0.000000 0.000000 1.916400 
# 
# From -- ./inp_files/18325.got.cif
#   From: 2010.05.17/outbox.cif.g08.bks.cpg/sg52_10_cif.got.tgz:18325.got - 2010.06.03 12:15:38.
