data_PCOD9412054
_publ_section_title
;
Structure prediction by ZEFSAII (Michael W. Deem and Ramdas Pophale) SiO2 
 PCOD9412054
Probable space group: P N N A
;
_chemical_formula_sum "Si O2"
_cell_formula_units_Z 32
_cell_length_a 7.857165
_cell_length_b 11.590265
_cell_length_c 16.317950
_cell_angle_alpha 90.000000
_cell_angle_beta 90.000000
_cell_angle_gamma 90.000000
_cell_volume 1486.020625
_symmetry_space_group_name_H-M "P N N A"
_symmetry_group_IT_number 52
_symmetry_cell_setting 'orthorhombic'
loop_
_space_group_symop_operation_xyz
x,y,z
1/2-x,-y,z
x,1/2-y,1/2-z
1/2-x,1/2+y,1/2-z
-x,-y,-z
1/2+x,y,-z
-x,1/2+y,1/2+z
1/2+x,1/2-y,1/2+z
loop_
_atom_site_type_symbol
_atom_site_label
_atom_site_fract_x
_atom_site_fract_y
_atom_site_fract_z
Si Si1 0.625032 0.337191 0.617061
Si Si2 0.170512 0.622169 0.153180
Si Si3 0.489077 0.183374 0.063152
Si Si4 0.070789 0.462604 0.705292
O O1 0.675360 0.214522 0.657523
O O2 0.526361 0.324346 0.531683
O O3 0.811468 0.378098 0.586659
O O4 0.528181 0.423730 0.675593
O O5 0.250000 0.500000 0.129782
O O6 0.044391 0.684268 0.088725
O O7 0.058245 0.604640 0.234754
O O8 0.613375 0.118580 0.126424
O O9 0.250000 0.500000 0.744317
#
# Coordination Sequence:
#
# PCOD9412054 Si02
#       4
#     8   8   8   8
#     4  10  23  43  75  97 148 181 241 293 366 422
#     4  10  25  45  67  99 145 191 234 295 363 436
#     4  10  22  43  69 105 137 183 237 294 360 431
#     4  12  24  43  73 107 139 184 248 306 361 422
#
# _framework density 21.534022
#
# number of rings (size 3 to 8) (size 9 to 14) (size 15 to 20)
#    1.500    0.000    0.000    5.250    3.500    1.000 
#   13.500    0.000    0.000    0.000    0.000    0.000 
#    0.000    0.000    0.000    0.000    0.000    0.000 
#
# Total GULP energy -178473.736801 kJ/mol
# GULP energy per Si atom -5577.304275 kJ/mol
# Density = 2.148501 g / cm^3
# Si number density = 21.534022 Si / 1000 Ang^3
#
#
#
# Elastic Constant Matrix: (Units=GPa)
#
#
# Indices 1 2 3 4 5 6 
#
# 1 72.7063 24.2277 13.6574 0.0000 0.0000 0.0000
# 2 24.2277 114.2312 13.7872 0.0000 0.0000 0.0000
# 3 13.6574 13.7872 59.2261 0.0000 0.0000 0.0000
# 4 0.0000 0.0000 0.0000 29.1523 0.0000 0.0000
# 5 0.0000 0.0000 0.0000 0.0000 25.8189 0.0000
# 6 0.0000 0.0000 0.0000 0.0000 0.0000 26.0938
#
#
#
# Elastic Compliance Matrix: (Units=1/GPa)
#
#
# Indices 1 2 3 4 5 6 
#
# 1 0.015252 -0.002892 -0.002844 0.000000 0.000000 0.000000
# 2 -0.002892 0.009555 -0.001558 0.000000 0.000000 0.000000
# 3 -0.002844 -0.001558 0.017903 0.000000 0.000000 0.000000
# 4 0.000000 0.000000 0.000000 0.034303 0.000000 0.000000
# 5 0.000000 0.000000 0.000000 0.000000 0.038731 0.000000
# 6 0.000000 0.000000 0.000000 0.000000 0.000000 0.038323
#
#
# Mechanical properties :
#
#
# Convention : Reuss Voigt Hill
#
# Bulk Modulus (GPa) = 35.55694 38.83423 37.19559
# Shear Modulus (GPa) = 28.08547 29.17909 28.63228
#
# Velocity S-wave (km/s) = 3.61534 3.68506 3.65036
# Velocity P-wave (km/s) = 5.82884 6.01492 5.92261
#
# Compressibility (1/GPa) = 0.02812390
#
# Stress axis : x y z
#
# Youngs Moduli (GPa) = 65.56642 104.65239 55.85706
#
# Poissons Ratio (x) = 0.30261 0.15885
# Poissons Ratio (y) = 0.18959 0.08700
# Poissons Ratio (z) = 0.18646 0.16301
#
# Static dielectric constant tensor:
#      x y z
#    x 1.837770 0.000000 0.000000 
#    y 0.000000 1.803130 0.000000 
#    z 0.000000 0.000000 1.818800 
# 
# From -- ./inp_files/24152.got.cif
#   From: 2010.05.17/outbox.cif.g08.bks.cpg/sg52_13_cif.got.tgz:24152.got - 2010.06.03 12:15:38.
