data_PCOD9412068
_publ_section_title
;
Structure prediction by ZEFSAII (Michael W. Deem and Ramdas Pophale) SiO2 
 PCOD9412068
Probable space group: P N N A
;
_chemical_formula_sum "Si O2"
_cell_formula_units_Z 36
_cell_length_a 8.800290
_cell_length_b 18.783867
_cell_length_c 8.144220
_cell_angle_alpha 90.000000
_cell_angle_beta 90.000000
_cell_angle_gamma 90.000000
_cell_volume 1346.267883
_symmetry_space_group_name_H-M "P N N A"
_symmetry_group_IT_number 52
_symmetry_cell_setting 'orthorhombic'
loop_
_space_group_symop_operation_xyz
x,y,z
1/2-x,-y,z
x,1/2-y,1/2-z
1/2-x,1/2+y,1/2-z
-x,-y,-z
1/2+x,y,-z
-x,1/2+y,1/2+z
1/2+x,1/2-y,1/2+z
loop_
_atom_site_type_symbol
_atom_site_label
_atom_site_fract_x
_atom_site_fract_y
_atom_site_fract_z
Si Si1 0.599687 0.552138 0.853030
Si Si2 0.837203 0.868943 0.476261
Si Si3 0.687813 0.921599 0.999845
Si Si4 0.713409 0.750000 0.250000
Si Si5 0.959325 0.846199 0.836300
O O1 0.750000 0.500000 0.836645
O O2 0.666868 0.609967 0.977724
O O3 0.589777 0.580070 0.667185
O O4 0.425904 0.558731 0.917963
O O5 0.818136 0.807698 0.341114
O O6 0.895545 0.840846 0.653288
O O7 0.822488 0.864896 0.959834
O O8 0.750000 0.000000 0.016844
O O9 0.572240 0.913173 0.150061
O O10 0.587524 0.786774 0.128470
#
# Coordination Sequence:
#
# PCOD9412068 Si02
#       5
#     8   8   8   4   8
#     4  10  22  43  71 107 149 186 249 311 378 439
#     4  11  24  46  70 107 144 201 248 306 371 442
#     4  10  24  45  74 111 147 187 252 316 383 439
#     4  12  28  46  70 106 156 198 258 294 368 454
#     4  11  26  45  74 107 146 201 244 309 373 446
#
# _framework density 26.740594000000002
#
# number of rings (size 3 to 8) (size 9 to 14) (size 15 to 20)
#    0.000    1.333    2.222    1.333    6.222    0.889 
#    0.000    0.000    0.000    0.000    0.000    0.000 
#    0.000    0.000    0.000    0.000    0.000    0.000 
#
# Total GULP energy -200491.802624 kJ/mol
# GULP energy per Si atom -5569.216740 kJ/mol
# Density = 2.667973 g / cm^3
# Si number density = 26.740594 Si / 1000 Ang^3
#
#
#
# Elastic Constant Matrix: (Units=GPa)
#
#
# Indices 1 2 3 4 5 6 
#
# 1 116.4044 13.9644 44.4278 0.0000 0.0000 0.0000
# 2 13.9644 37.7857 0.9597 0.0000 0.0000 0.0000
# 3 44.4278 0.9597 99.4887 0.0000 0.0000 0.0000
# 4 0.0000 0.0000 0.0000 -2.9791 0.0000 0.0000
# 5 0.0000 0.0000 0.0000 0.0000 25.5898 0.0000
# 6 0.0000 0.0000 0.0000 0.0000 0.0000 46.0867
#
#
#
# Elastic Compliance Matrix: (Units=1/GPa)
#
#
# Indices 1 2 3 4 5 6 
#
# 1 0.010903 -0.003907 -0.004831 0.000000 0.000000 0.000000
# 2 -0.003907 0.027871 0.001476 0.000000 0.000000 0.000000
# 3 -0.004831 0.001476 0.012195 0.000000 0.000000 0.000000
# 4 0.000000 0.000000 0.000000 -0.335668 0.000000 0.000000
# 5 0.000000 0.000000 0.000000 0.000000 0.039078 0.000000
# 6 0.000000 0.000000 0.000000 0.000000 0.000000 0.021698
#
#
# Mechanical properties :
#
#
# Convention : Reuss Voigt Hill
#
# Bulk Modulus (GPa) = 27.43886 41.37583 34.40735
# Shear Modulus (GPa) = -25.34869 26.69461 0.67296
#
# Velocity S-wave (km/s) = -3.08222 3.16299 0.50220
# Velocity P-wave (km/s) = 1.54381 5.37084 3.63748
#
# Compressibility (1/GPa) = 0.03644466
#
# Stress axis : x y z
#
# Youngs Moduli (GPa) = 91.71460 35.87908 82.00313
#
# Poissons Ratio (x) = 0.14017 0.39619
# Poissons Ratio (y) = 0.35831 -0.12102
# Poissons Ratio (z) = 0.44311 -0.05295
#
# Static dielectric constant tensor:
#      x y z
#    x 2.034270 0.000000 0.000000 
#    y 0.000000 2.426990 0.000000 
#    z 0.000000 0.000000 2.116680 
# 
# From -- ./inp_files/7314.got.cif
#   From: 2010.05.17/outbox.cif.g08.bks.cpg/sg52_4_cif.got.tgz:7314.got - 2010.06.03 12:15:38.
