data_PCOD9412090
_publ_section_title
;
Structure prediction by ZEFSAII (Michael W. Deem and Ramdas Pophale) SiO2 
 PCOD9412090
Probable space group: P N N A
;
_chemical_formula_sum "Si O2"
_cell_formula_units_Z 40
_cell_length_a 10.933779
_cell_length_b 9.792722
_cell_length_c 15.954372
_cell_angle_alpha 90.000000
_cell_angle_beta 90.000000
_cell_angle_gamma 90.000000
_cell_volume 1708.257874
_symmetry_space_group_name_H-M "P N N A"
_symmetry_group_IT_number 52
_symmetry_cell_setting 'orthorhombic'
loop_
_space_group_symop_operation_xyz
x,y,z
1/2-x,-y,z
x,1/2-y,1/2-z
1/2-x,1/2+y,1/2-z
-x,-y,-z
1/2+x,y,-z
-x,1/2+y,1/2+z
1/2+x,1/2-y,1/2+z
loop_
_atom_site_type_symbol
_atom_site_label
_atom_site_fract_x
_atom_site_fract_y
_atom_site_fract_z
Si Si1 0.619045 0.940755 0.448325
Si Si2 0.917881 0.519749 0.628469
Si Si3 0.643875 0.884667 0.042418
Si Si4 0.560716 0.525304 0.824843
Si Si5 0.736763 0.222380 0.651842
O O1 0.575921 0.995961 0.356148
O O2 0.750000 0.000000 0.473158
O O3 0.500000 0.000000 0.500000
O O4 0.629986 0.842637 0.637600
O O5 0.048354 0.587712 0.616360
O O6 0.911706 0.418473 0.549633
O O7 0.915816 0.468318 0.724254
O O8 0.814974 0.637438 0.613898
O O9 0.650759 0.720489 0.046987
O O10 0.750000 0.000000 0.053644
O O11 0.637347 0.395972 0.859226
O O12 0.731063 0.250000 0.750000
#
# Coordination Sequence:
#
# PCOD9412090 Si02
#       5
#     8   8   8   8   8
#     4  12  31  51  76 113 159 209 261 326 405 477
#     4  10  23  45  76 112 151 198 263 324 390 464
#     4  11  27  46  75 108 156 205 257 324 393 480
#     4  10  22  43  74 109 150 199 256 323 385 464
#     4   9  19  37  71 113 143 190 254 323 379 452
#
# _framework density 23.415666999999999
#
# number of rings (size 3 to 8) (size 9 to 14) (size 15 to 20)
#    0.000    1.600    2.000    0.000   16.800    0.800 
#    3.600    0.000    0.000    0.000    0.000    0.000 
#    0.000    0.000    0.000    0.000    0.000    0.000 
#
# Total GULP energy -222973.452971 kJ/mol
# GULP energy per Si atom -5574.336324 kJ/mol
# Density = 2.336237 g / cm^3
# Si number density = 23.415667 Si / 1000 Ang^3
#
#
#
# Elastic Constant Matrix: (Units=GPa)
#
#
# Indices 1 2 3 4 5 6 
#
# 1 127.5617 62.6946 37.2284 0.0000 0.0000 0.0000
# 2 62.6946 135.3372 22.5193 0.0000 0.0000 0.0000
# 3 37.2284 22.5193 80.0888 0.0000 0.0000 0.0000
# 4 0.0000 0.0000 0.0000 37.7819 0.0000 0.0000
# 5 0.0000 0.0000 0.0000 0.0000 26.0852 0.0000
# 6 0.0000 0.0000 0.0000 0.0000 0.0000 38.2415
#
#
#
# Elastic Compliance Matrix: (Units=1/GPa)
#
#
# Indices 1 2 3 4 5 6 
#
# 1 0.011222 -0.004543 -0.003939 0.000000 0.000000 0.000000
# 2 -0.004543 0.009591 -0.000585 0.000000 0.000000 0.000000
# 3 -0.003939 -0.000585 0.014482 0.000000 0.000000 0.000000
# 4 0.000000 0.000000 0.000000 0.026468 0.000000 0.000000
# 5 0.000000 0.000000 0.000000 0.000000 0.038336 0.000000
# 6 0.000000 0.000000 0.000000 0.000000 0.000000 0.026150
#
#
# Mechanical properties :
#
#
# Convention : Reuss Voigt Hill
#
# Bulk Modulus (GPa) = 58.27386 65.31915 61.79651
# Shear Modulus (GPa) = 33.31085 35.12473 34.21779
#
# Velocity S-wave (km/s) = 3.77581 3.87725 3.82687
# Velocity P-wave (km/s) = 6.62946 6.92822 6.78048
#
# Compressibility (1/GPa) = 0.01716035
#
# Stress axis : x y z
#
# Youngs Moduli (GPa) = 89.11293 104.26620 69.05334
#
# Poissons Ratio (x) = 0.47368 0.27199
# Poissons Ratio (y) = 0.40484 0.04039
# Poissons Ratio (z) = 0.35101 0.06099
#
# Static dielectric constant tensor:
#      x y z
#    x 1.929740 0.000000 0.000000 
#    y 0.000000 2.171780 0.000000 
#    z 0.000000 0.000000 1.964490 
# 
# From -- ./inp_files/25819.got.cif
#   From: 2010.05.17/outbox.cif.g08.bks.cpg/sg52_13_cif.got.tgz:25819.got - 2010.06.03 12:15:38.
