data_PCOD9412246
_publ_section_title
;
Structure prediction by ZEFSAII (Michael W. Deem and Ramdas Pophale) SiO2 
 PCOD9412246
Probable space group: P N N A
;
_chemical_formula_sum "Si O2"
_cell_formula_units_Z 40
_cell_length_a 24.812145
_cell_length_b 7.796711
_cell_length_c 10.234127
_cell_angle_alpha 90.000000
_cell_angle_beta 90.000000
_cell_angle_gamma 90.000000
_cell_volume 1979.823838
_symmetry_space_group_name_H-M "P N N A"
_symmetry_group_IT_number 52
_symmetry_cell_setting 'orthorhombic'
loop_
_space_group_symop_operation_xyz
x,y,z
1/2-x,-y,z
x,1/2-y,1/2-z
1/2-x,1/2+y,1/2-z
-x,-y,-z
1/2+x,y,-z
-x,1/2+y,1/2+z
1/2+x,1/2-y,1/2+z
loop_
_atom_site_type_symbol
_atom_site_label
_atom_site_fract_x
_atom_site_fract_y
_atom_site_fract_z
Si Si1 0.614409 0.940884 0.266869
Si Si2 0.504116 0.446630 0.646893
Si Si3 0.750000 0.000000 0.447728
Si Si4 0.637651 0.544806 0.934217
Si Si5 0.689541 0.250000 0.250000
Si Si6 0.927923 0.250000 0.750000
Si Si7 0.905098 0.750000 0.750000
O O1 0.639603 0.750000 0.250000
O O2 0.555253 0.924574 0.204774
O O3 0.611923 0.985497 0.421852
O O4 0.650232 0.093543 0.204328
O O5 0.500000 0.500000 0.500000
O O6 0.533512 0.589904 0.732339
O O7 0.549821 0.301094 0.643007
O O8 0.799583 0.063600 0.534587
O O9 0.726282 0.154109 0.357736
O O10 0.609718 0.712625 0.873730
O O11 0.628879 0.396063 0.824628
#
# Coordination Sequence:
#
# PCOD9412246 Si02
#       7
#     8   8   4   8   4   4   4
#     4  11  23  43  71 102 142 177 221 283 353 414
#     4  11  23  37  64  99 134 183 213 270 343 409
#     4  10  24  46  70  94 134 176 226 292 360 388
#     4  10  24  44  64  95 134 180 230 290 338 405
#     4  10  25  42  69 106 133 170 229 292 348 422
#     4  10  23  39  62  92 136 175 239 268 328 424
#     4  10  24  41  61  96 137 177 226 268 328 420
#
# _framework density 20.203818999999999
#
# number of rings (size 3 to 8) (size 9 to 14) (size 15 to 20)
#    0.000    1.600    1.000    1.800   14.000    2.400 
#    0.000    0.000    0.000    0.000    0.000    0.000 
#    0.000    0.000    0.000    0.000    0.000    0.000 
#
# Total GULP energy -222758.311014 kJ/mol
# GULP energy per Si atom -5568.957775 kJ/mol
# Density = 2.015783 g / cm^3
# Si number density = 20.203819 Si / 1000 Ang^3
#
#
#
# Elastic Constant Matrix: (Units=GPa)
#
#
# Indices 1 2 3 4 5 6 
#
# 1 140.3917 45.4156 31.9560 0.0000 0.0000 0.0000
# 2 45.4156 102.5058 7.9765 0.0000 0.0000 0.0000
# 3 31.9560 7.9765 79.3601 0.0000 0.0000 0.0000
# 4 0.0000 0.0000 0.0000 31.4994 0.0000 0.0000
# 5 0.0000 0.0000 0.0000 0.0000 -38.2617 0.0000
# 6 0.0000 0.0000 0.0000 0.0000 0.0000 7.8601
#
#
#
# Elastic Compliance Matrix: (Units=1/GPa)
#
#
# Indices 1 2 3 4 5 6 
#
# 1 0.009090 -0.003772 -0.003281 0.000000 0.000000 0.000000
# 2 -0.003772 0.011398 0.000373 0.000000 0.000000 0.000000
# 3 -0.003281 0.000373 0.013884 0.000000 0.000000 0.000000
# 4 0.000000 0.000000 0.000000 0.031747 0.000000 0.000000
# 5 0.000000 0.000000 0.000000 0.000000 -0.026136 0.000000
# 6 0.000000 0.000000 0.000000 0.000000 0.000000 0.127225
#
#
# Mechanical properties :
#
#
# Convention : Reuss Voigt Hill
#
# Bulk Modulus (GPa) = 47.59087 54.77264 51.18176
# Shear Modulus (GPa) = 26.65640 16.01351 21.33495
#
# Velocity S-wave (km/s) = 3.63626 2.81837 3.25312
# Velocity P-wave (km/s) = 6.42155 6.14490 6.28475
#
# Compressibility (1/GPa) = 0.02101243
#
# Stress axis : x y z
#
# Youngs Moduli (GPa) = 110.01084 87.73686 72.02280
#
# Poissons Ratio (x) = 0.33095 0.23632
# Poissons Ratio (y) = 0.41497 -0.02689
# Poissons Ratio (z) = 0.36096 -0.03275
#
# Static dielectric constant tensor:
#      x y z
#    x 1.583590 0.000000 0.000000 
#    y 0.000000 1.776550 0.000000 
#    z 0.000000 0.000000 1.522270 
# 
# From -- ./inp_files/14094.got.cif
#   From: 2010.05.17/outbox.cif.g08.bks.cpg/sg52_8_cif.got.tgz:14094.got - 2010.06.03 12:15:38.
