data_PCOD9412404
_publ_section_title
;
Structure prediction by ZEFSAII (Michael W. Deem and Ramdas Pophale) SiO2 
 PCOD9412404
Probable space group: P N N A
;
_chemical_formula_sum "Si O2"
_cell_formula_units_Z 36
_cell_length_a 17.637850
_cell_length_b 5.217895
_cell_length_c 16.606730
_cell_angle_alpha 90.000000
_cell_angle_beta 90.000000
_cell_angle_gamma 90.000000
_cell_volume 1528.358037
_symmetry_space_group_name_H-M "P N N A"
_symmetry_group_IT_number 52
_symmetry_cell_setting 'orthorhombic'
loop_
_space_group_symop_operation_xyz
x,y,z
1/2-x,-y,z
x,1/2-y,1/2-z
1/2-x,1/2+y,1/2-z
-x,-y,-z
1/2+x,y,-z
-x,1/2+y,1/2+z
1/2+x,1/2-y,1/2+z
loop_
_atom_site_type_symbol
_atom_site_label
_atom_site_fract_x
_atom_site_fract_y
_atom_site_fract_z
Si Si1 0.102844 0.227788 0.654728
Si Si2 0.331652 0.854168 0.162852
Si Si3 0.845345 0.247945 0.430297
Si Si4 0.250000 0.000000 0.451986
Si Si5 0.044976 0.679486 0.437060
O O1 0.099816 0.250000 0.750000
O O2 0.136200 0.483550 0.611783
O O3 0.017411 0.195264 0.620208
O O4 0.151962 0.979231 0.633484
O O5 0.355830 0.750000 0.250000
O O6 0.313386 0.611845 0.106768
O O7 0.250000 0.000000 0.171639
O O8 0.394636 0.025774 0.118388
O O9 0.772658 0.226885 0.487388
O O10 0.907994 0.162957 0.497268
O O11 0.000000 0.500000 0.500000
#
# Coordination Sequence:
#
# PCOD9412404 Si02
#       5
#     8   8   8   4   8
#     4  11  25  45  71 103 142 182 241 312 367 422
#     4  12  25  44  67 111 153 195 238 304 378 448
#     4  11  24  44  71 104 136 190 243 298 361 445
#     4  12  24  42  74  92 150 192 246 290 374 444
#     4  10  23  43  70 103 141 189 247 293 365 436
#
# _framework density 23.554690999999998
#
# number of rings (size 3 to 8) (size 9 to 14) (size 15 to 20)
#    0.000    0.889    3.333    4.000    0.000    8.000 
#    0.000    2.222    0.000    0.000    0.000    0.000 
#    0.000    0.000    0.000    0.000    0.000    0.000 
#
# Total GULP energy -201191.481381 kJ/mol
# GULP energy per Si atom -5588.652261 kJ/mol
# Density = 2.350108 g / cm^3
# Si number density = 23.554691 Si / 1000 Ang^3
#
#
#
# Elastic Constant Matrix: (Units=GPa)
#
#
# Indices 1 2 3 4 5 6 
#
# 1 61.1024 15.8831 45.4147 0.0000 0.0000 0.0000
# 2 15.8831 97.2936 32.5647 0.0000 0.0000 0.0000
# 3 45.4147 32.5647 177.0470 0.0000 0.0000 0.0000
# 4 0.0000 0.0000 0.0000 43.4234 0.0000 0.0000
# 5 0.0000 0.0000 0.0000 0.0000 38.0345 0.0000
# 6 0.0000 0.0000 0.0000 0.0000 0.0000 40.0870
#
#
#
# Elastic Compliance Matrix: (Units=1/GPa)
#
#
# Indices 1 2 3 4 5 6 
#
# 1 0.020478 -0.001689 -0.004942 0.000000 0.000000 0.000000
# 2 -0.001689 0.011092 -0.001607 0.000000 0.000000 0.000000
# 3 -0.004942 -0.001607 0.007212 0.000000 0.000000 0.000000
# 4 0.000000 0.000000 0.000000 0.023029 0.000000 0.000000
# 5 0.000000 0.000000 0.000000 0.000000 0.026292 0.000000
# 6 0.000000 0.000000 0.000000 0.000000 0.000000 0.024946
#
#
# Mechanical properties :
#
#
# Convention : Reuss Voigt Hill
#
# Bulk Modulus (GPa) = 44.83204 58.12977 51.48091
# Shear Modulus (GPa) = 36.50709 40.41435 38.46072
#
# Velocity S-wave (km/s) = 3.94113 4.14667 4.04521
# Velocity P-wave (km/s) = 6.30750 6.90353 6.61223
#
# Compressibility (1/GPa) = 0.02230548
#
# Stress axis : x y z
#
# Youngs Moduli (GPa) = 48.83194 90.15736 138.66650
#
# Poissons Ratio (x) = 0.15226 0.68534
# Poissons Ratio (y) = 0.08247 0.22283
# Poissons Ratio (z) = 0.24134 0.14488
#
# Static dielectric constant tensor:
#      x y z
#    x 2.296110 0.000000 0.000000 
#    y 0.000000 1.912600 0.000000 
#    z 0.000000 0.000000 1.830490 
# 
# From -- ./inp_files/28499.got.cif
#   From: 2010.05.17/outbox.cif.g08.bks.cpg/sg52_15_cif.got.tgz:28499.got - 2010.06.03 12:15:38.
