data_PCOD9412063
_publ_section_title
;
Structure prediction by ZEFSAII (Michael W. Deem and Ramdas Pophale) SiO2 
 PCOD9412063
Probable space group: P N N A
;
_chemical_formula_sum "Si O2"
_cell_formula_units_Z 32
_cell_length_a 19.043783
_cell_length_b 13.193276
_cell_length_c 5.358048
_cell_angle_alpha 90.000000
_cell_angle_beta 90.000000
_cell_angle_gamma 90.000000
_cell_volume 1346.208945
_symmetry_space_group_name_H-M "P N N A"
_symmetry_group_IT_number 52
_symmetry_cell_setting 'orthorhombic'
loop_
_space_group_symop_operation_xyz
x,y,z
1/2-x,-y,z
x,1/2-y,1/2-z
1/2-x,1/2+y,1/2-z
-x,-y,-z
1/2+x,y,-z
-x,1/2+y,1/2+z
1/2+x,1/2-y,1/2+z
loop_
_atom_site_type_symbol
_atom_site_label
_atom_site_fract_x
_atom_site_fract_y
_atom_site_fract_z
Si Si1 0.759704 0.250000 0.750000
Si Si2 0.179265 0.548628 0.097935
Si Si3 0.541630 0.927327 0.307209
Si Si4 0.330867 0.750000 0.750000
Si Si5 0.090396 0.409401 0.435222
O O1 0.800236 0.356907 0.725016
O O2 0.716093 0.234189 0.495435
O O3 0.250000 0.500000 0.973588
O O4 0.147614 0.450882 0.241447
O O5 0.115859 0.597352 0.935534
O O6 0.476869 0.860793 0.203206
O O7 0.500000 0.000000 0.500000
O O8 0.566559 0.987865 0.066096
O O9 0.379685 0.658868 0.656006
#
# Coordination Sequence:
#
# PCOD9412063 Si02
#       5
#     4   8   8   4   8
#     4  12  28  44  73 115 150 204 260 316 406 462
#     4  11  22  43  71 106 151 198 250 334 385 466
#     4   9  21  42  69  99 139 193 254 307 391 451
#     4  12  26  46  73 111 152 200 260 314 388 482
#     4  10  22  43  70 105 146 204 251 315 386 466
#
# _framework density 23.770457
#
# number of rings (size 3 to 8) (size 9 to 14) (size 15 to 20)
#    0.000    1.500    2.500    1.500    7.000    1.000 
#    0.000   13.750    0.000    0.000    0.000    0.000 
#    0.000    0.000    0.000    0.000    0.000    0.000 
#
# Total GULP energy -178268.734797 kJ/mol
# GULP energy per Si atom -5570.897962 kJ/mol
# Density = 2.371635 g / cm^3
# Si number density = 23.770457 Si / 1000 Ang^3
#
#
#
# Elastic Constant Matrix: (Units=GPa)
#
#
# Indices 1 2 3 4 5 6 
#
# 1 173.3364 52.2019 69.4908 0.0000 0.0000 0.0000
# 2 52.2019 99.4951 24.3549 0.0000 0.0000 0.0000
# 3 69.4908 24.3549 123.2183 0.0000 0.0000 0.0000
# 4 0.0000 0.0000 0.0000 31.4291 0.0000 0.0000
# 5 0.0000 0.0000 0.0000 0.0000 59.0894 0.0000
# 6 0.0000 0.0000 0.0000 0.0000 0.0000 -12.3405
#
#
#
# Elastic Compliance Matrix: (Units=1/GPa)
#
#
# Indices 1 2 3 4 5 6 
#
# 1 0.008438 -0.003428 -0.004081 0.000000 0.000000 0.000000
# 2 -0.003428 0.011954 -0.000430 0.000000 0.000000 0.000000
# 3 -0.004081 -0.000430 0.010502 0.000000 0.000000 0.000000
# 4 0.000000 0.000000 0.000000 0.031818 0.000000 0.000000
# 5 0.000000 0.000000 0.000000 0.000000 0.016924 0.000000
# 6 0.000000 0.000000 0.000000 0.000000 0.000000 -0.081034
#
#
# Mechanical properties :
#
#
# Convention : Reuss Voigt Hill
#
# Bulk Modulus (GPa) = 66.59086 76.46054 71.52570
# Shear Modulus (GPa) = 256.61883 32.30240 144.46061
#
# Velocity S-wave (km/s) = 10.40151 3.69037 7.80417
# Velocity P-wave (km/s) = 13.12746 7.09890 10.55283
#
# Compressibility (1/GPa) = 0.01501707
#
# Stress axis : x y z
#
# Youngs Moduli (GPa) = 118.51803 83.65086 95.21914
#
# Poissons Ratio (x) = 0.28675 0.38858
# Poissons Ratio (y) = 0.40627 0.04091
# Poissons Ratio (z) = 0.48366 0.03594
#
# Static dielectric constant tensor:
#      x y z
#    x 2.112980 0.000000 0.000000 
#    y 0.000000 1.948450 0.000000 
#    z 0.000000 0.000000 1.897110 
# 
# From -- ./inp_files/3084.got.cif
#   From: 2010.05.17/outbox.cif.g08.bks.cpg/sg52_2_cif.got.tgz:3084.got - 2010.06.03 12:15:38.
