data_PCOD9412331
_publ_section_title
;
Structure prediction by ZEFSAII (Michael W. Deem and Ramdas Pophale) SiO2 
 PCOD9412331
Probable space group: P N N A
;
_chemical_formula_sum "Si O2"
_cell_formula_units_Z 48
_cell_length_a 8.501847
_cell_length_b 14.913052
_cell_length_c 17.329119
_cell_angle_alpha 90.000000
_cell_angle_beta 90.000000
_cell_angle_gamma 90.000000
_cell_volume 2197.132769
_symmetry_space_group_name_H-M "P N N A"
_symmetry_group_IT_number 52
_symmetry_cell_setting 'orthorhombic'
loop_
_space_group_symop_operation_xyz
x,y,z
1/2-x,-y,z
x,1/2-y,1/2-z
1/2-x,1/2+y,1/2-z
-x,-y,-z
1/2+x,y,-z
-x,1/2+y,1/2+z
1/2+x,1/2-y,1/2+z
loop_
_atom_site_type_symbol
_atom_site_label
_atom_site_fract_x
_atom_site_fract_y
_atom_site_fract_z
Si Si1 0.337504 0.376835 0.531458
Si Si2 0.565804 0.476242 0.915623
Si Si3 0.990446 0.403410 0.769824
Si Si4 0.505258 0.768741 0.380757
Si Si5 0.262124 0.750000 0.250000
Si Si6 0.510584 0.447965 0.401110
Si Si7 0.258751 0.750000 0.750000
O O1 0.431988 0.284976 0.545089
O O2 0.357866 0.405381 0.442366
O O3 0.444177 0.453281 0.571215
O O4 0.164158 0.389328 0.569145
O O5 0.750000 0.500000 0.915218
O O6 0.495882 0.535480 0.845266
O O7 0.532625 0.371638 0.899377
O O8 0.500000 0.500000 0.000000
O O9 0.842421 0.336115 0.771636
O O10 0.984721 0.455714 0.689590
O O11 0.136180 0.337586 0.756998
O O12 0.364676 0.731748 0.326823
O O13 0.651592 0.754045 0.324420
#
# Coordination Sequence:
#
# PCOD9412331 Si02
#       7
#     8   8   8   8   4   8   4
#     4  10  23  42  65 104 141 177 233 295 361 449
#     4  12  30  51  72 107 152 208 257 317 378 451
#     4  11  24  47  71 100 144 187 244 303 368 448
#     4  11  24  45  71 105 145 188 253 301 385 451
#     4  10  24  42  68 102 138 182 250 300 366 438
#     4  10  23  42  68 102 140 182 229 295 378 430
#     4  10  24  42  74 112 128 190 242 314 366 438
#
# _framework density 21.846654999999998
#
# number of rings (size 3 to 8) (size 9 to 14) (size 15 to 20)
#    0.000    1.333    3.333    0.000    9.333    4.000 
#    3.000    0.000    0.000    0.000    0.000    0.000 
#    0.000    0.000    0.000    0.000    0.000    0.000 
#
# Total GULP energy -268036.284587 kJ/mol
# GULP energy per Si atom -5584.089262 kJ/mol
# Density = 2.179693 g / cm^3
# Si number density = 21.846655 Si / 1000 Ang^3
#
#
#
# Elastic Constant Matrix: (Units=GPa)
#
#
# Indices 1 2 3 4 5 6 
#
# 1 70.0579 32.5442 23.7668 0.0000 0.0000 0.0000
# 2 32.5442 131.6336 46.5700 0.0000 0.0000 0.0000
# 3 23.7668 46.5700 153.5598 0.0000 0.0000 0.0000
# 4 0.0000 0.0000 0.0000 48.4951 0.0000 0.0000
# 5 0.0000 0.0000 0.0000 0.0000 -6.4440 0.0000
# 6 0.0000 0.0000 0.0000 0.0000 0.0000 -102.0401
#
#
#
# Elastic Compliance Matrix: (Units=1/GPa)
#
#
# Indices 1 2 3 4 5 6 
#
# 1 0.016416 -0.003539 -0.001467 0.000000 0.000000 0.000000
# 2 -0.003539 0.009273 -0.002264 0.000000 0.000000 0.000000
# 3 -0.001467 -0.002264 0.007426 0.000000 0.000000 0.000000
# 4 0.000000 0.000000 0.000000 0.020621 0.000000 0.000000
# 5 0.000000 0.000000 0.000000 0.000000 -0.155183 0.000000
# 6 0.000000 0.000000 0.000000 0.000000 0.000000 -0.009800
#
#
# Mechanical properties :
#
#
# Convention : Reuss Voigt Hill
#
# Bulk Modulus (GPa) = 53.84304 62.33482 58.08893
# Shear Modulus (GPa) = -55.23978 4.82688 -25.20645
#
# Velocity S-wave (km/s) = -5.03390 1.48803 -3.40043
# Velocity P-wave (km/s) = 3.01454 5.61668 3.35110
#
# Compressibility (1/GPa) = 0.01857250
#
# Stress axis : x y z
#
# Youngs Moduli (GPa) = 60.91671 107.83961 134.66289
#
# Poissons Ratio (x) = 0.38169 0.19759
# Poissons Ratio (y) = 0.21561 0.30493
# Poissons Ratio (z) = 0.08938 0.24419
#
# Static dielectric constant tensor:
#      x y z
#    x 1.790740 0.000000 0.000000 
#    y 0.000000 1.776000 0.000000 
#    z 0.000000 0.000000 1.851350 
# 
# From -- ./inp_files/31296.got.cif
#   From: 2010.05.17/outbox.cif.g08.bks.cpg/sg52_16_cif.got.tgz:31296.got - 2010.06.03 12:15:38.
