data_PCOD9412766
_publ_section_title
;
Structure prediction by ZEFSAII (Michael W. Deem and Ramdas Pophale) SiO2 
 PCOD9412766
Probable space group: P N N A
;
_chemical_formula_sum "Si O2"
_cell_formula_units_Z 36
_cell_length_a 21.214154
_cell_length_b 10.481895
_cell_length_c 5.652738
_cell_angle_alpha 90.000000
_cell_angle_beta 90.000000
_cell_angle_gamma 90.000000
_cell_volume 1256.968455
_symmetry_space_group_name_H-M "P N N A"
_symmetry_group_IT_number 52
_symmetry_cell_setting 'orthorhombic'
loop_
_space_group_symop_operation_xyz
x,y,z
1/2-x,-y,z
x,1/2-y,1/2-z
1/2-x,1/2+y,1/2-z
-x,-y,-z
1/2+x,y,-z
-x,1/2+y,1/2+z
1/2+x,1/2-y,1/2+z
loop_
_atom_site_type_symbol
_atom_site_label
_atom_site_fract_x
_atom_site_fract_y
_atom_site_fract_z
Si Si1 0.656645 0.103566 0.809248
Si Si2 0.750000 0.500000 0.068876
Si Si3 0.276237 0.199275 0.972980
Si Si4 0.951300 0.881611 0.151903
Si Si5 0.417870 0.378084 0.599593
O O1 0.642252 0.250000 0.750000
O O2 0.711289 0.111931 0.008246
O O3 0.688793 0.036111 0.586154
O O4 0.590637 0.066927 0.929020
O O5 0.728366 0.651265 0.154468
O O6 0.271666 0.250000 0.250000
O O7 0.345661 0.133117 0.991994
O O8 0.925466 0.750000 0.250000
O O9 0.936516 0.009779 0.292614
O O10 0.022361 0.863825 0.076383
O O11 0.421567 0.250000 0.750000
#
# Coordination Sequence:
#
# PCOD9412766 Si02
#       5
#     8   4   8   8   8
#     4  12  25  43  72 107 139 182 242 292 364 431
#     4  12  24  42  72 100 140 190 224 314 348 432
#     4  11  23  45  67 102 141 183 234 290 358 428
#     4  11  25  46  71 103 147 188 241 305 357 432
#     4  10  24  47  67 100 141 186 241 291 361 434
#
# _framework density 28.640336999999999
#
# number of rings (size 3 to 8) (size 9 to 14) (size 15 to 20)
#    0.000    0.889    2.222    4.667    3.111    1.778 
#   16.000    0.000    0.000    0.000    0.000    0.000 
#    0.000    0.000    0.000    0.000    0.000    0.000 
#
# Total GULP energy -200728.063896 kJ/mol
# GULP energy per Si atom -5575.779553 kJ/mol
# Density = 2.857515 g / cm^3
# Si number density = 28.640337 Si / 1000 Ang^3
#
#
#
# Elastic Constant Matrix: (Units=GPa)
#
#
# Indices 1 2 3 4 5 6 
#
# 1 214.7382 48.5387 56.5473 0.0000 0.0000 0.0000
# 2 48.5387 173.6168 33.8301 0.0000 0.0000 0.0000
# 3 56.5473 33.8301 81.0242 0.0000 0.0000 0.0000
# 4 0.0000 0.0000 0.0000 23.8745 0.0000 0.0000
# 5 0.0000 0.0000 0.0000 0.0000 40.2881 0.0000
# 6 0.0000 0.0000 0.0000 0.0000 0.0000 -46.4754
#
#
#
# Elastic Compliance Matrix: (Units=1/GPa)
#
#
# Indices 1 2 3 4 5 6 
#
# 1 0.005835 -0.000912 -0.003692 0.000000 0.000000 0.000000
# 2 -0.000912 0.006412 -0.002041 0.000000 0.000000 0.000000
# 3 -0.003692 -0.002041 0.015770 0.000000 0.000000 0.000000
# 4 0.000000 0.000000 0.000000 0.041886 0.000000 0.000000
# 5 0.000000 0.000000 0.000000 0.000000 0.024821 0.000000
# 6 0.000000 0.000000 0.000000 0.000000 0.000000 -0.021517
#
#
# Mechanical properties :
#
#
# Convention : Reuss Voigt Hill
#
# Bulk Modulus (GPa) = 67.89279 83.02348 75.45813
# Shear Modulus (GPa) = 54.70048 25.56830 40.13439
#
# Velocity S-wave (km/s) = 4.37499 2.99111 3.74749
# Velocity P-wave (km/s) = 7.01979 6.40158 6.71780
#
# Compressibility (1/GPa) = 0.01472911
#
# Stress axis : x y z
#
# Youngs Moduli (GPa) = 171.37715 155.94629 63.40965
#
# Poissons Ratio (x) = 0.14223 0.23408
# Poissons Ratio (y) = 0.15630 0.12941
# Poissons Ratio (z) = 0.63265 0.31827
#
# Static dielectric constant tensor:
#      x y z
#    x 2.260540 0.000000 0.000000 
#    y 0.000000 1.640300 0.000000 
#    z 0.000000 0.000000 2.068350 
# 
# From -- ./inp_files/4882.got.cif
#   From: 2010.05.17/outbox.cif.g08.bks.cpg/sg52_3_cif.got.tgz:4882.got - 2010.06.03 12:15:38.
