data_PCOD9412307
_publ_section_title
;
Structure prediction by ZEFSAII (Michael W. Deem and Ramdas Pophale) SiO2 
 PCOD9412307
Probable space group: P N N A
;
_chemical_formula_sum "Si O2"
_cell_formula_units_Z 40
_cell_length_a 15.452692
_cell_length_b 5.403281
_cell_length_c 19.659091
_cell_angle_alpha 90.000000
_cell_angle_beta 90.000000
_cell_angle_gamma 90.000000
_cell_volume 1641.440464
_symmetry_space_group_name_H-M "P N N A"
_symmetry_group_IT_number 52
_symmetry_cell_setting 'orthorhombic'
loop_
_space_group_symop_operation_xyz
x,y,z
1/2-x,-y,z
x,1/2-y,1/2-z
1/2-x,1/2+y,1/2-z
-x,-y,-z
1/2+x,y,-z
-x,1/2+y,1/2+z
1/2+x,1/2-y,1/2+z
loop_
_atom_site_type_symbol
_atom_site_label
_atom_site_fract_x
_atom_site_fract_y
_atom_site_fract_z
Si Si1 0.473946 0.573743 0.313781
Si Si2 0.159894 0.565310 0.643805
Si Si3 0.083178 0.033355 0.414719
Si Si4 0.390126 0.584145 0.927409
Si Si5 0.804101 0.221265 0.824778
O O1 0.458396 0.750000 0.250000
O O2 0.574947 0.512697 0.311523
O O3 0.400196 0.375609 0.309502
O O4 0.452081 0.709191 0.385044
O O5 0.250000 0.500000 0.680173
O O6 0.155615 0.345112 0.587668
O O7 0.147668 0.844643 0.613691
O O8 0.165076 0.954020 0.369283
O O9 0.992701 0.880376 0.410181
O O10 0.111750 0.030545 0.492527
O O11 0.761823 0.250000 0.750000
O O12 0.750000 0.000000 0.859979
#
# Coordination Sequence:
#
# PCOD9412307 Si02
#       5
#     8   8   8   8   8
#     4  11  23  44  68  94 136 182 227 286 349 408
#     4  11  24  45  69 103 139 180 228 287 345 413
#     4  10  23  41  68  97 131 180 227 279 346 414
#     4  10  23  43  71 100 137 179 227 281 346 413
#     4  12  25  42  64  97 138 181 233 289 349 417
#
# _framework density 24.368841
#
# number of rings (size 3 to 8) (size 9 to 14) (size 15 to 20)
#    0.000    1.200    4.000    1.200    2.800    3.200 
#    3.600    5.000    0.000    0.000    0.000    0.000 
#    0.000    0.000    0.000    0.000    0.000    0.000 
#
# Total GULP energy -223222.005368 kJ/mol
# GULP energy per Si atom -5580.550134 kJ/mol
# Density = 2.431338 g / cm^3
# Si number density = 24.368841 Si / 1000 Ang^3
#
#
#
# Elastic Constant Matrix: (Units=GPa)
#
#
# Indices 1 2 3 4 5 6 
#
# 1 145.3963 17.0335 0.6101 0.0000 0.0000 0.0000
# 2 17.0335 88.8215 -9.0345 0.0000 0.0000 0.0000
# 3 0.6101 -9.0345 18.6204 0.0000 0.0000 0.0000
# 4 0.0000 0.0000 0.0000 21.9113 0.0000 0.0000
# 5 0.0000 0.0000 0.0000 0.0000 27.6058 0.0000
# 6 0.0000 0.0000 0.0000 0.0000 0.0000 42.4608
#
#
#
# Elastic Compliance Matrix: (Units=1/GPa)
#
#
# Indices 1 2 3 4 5 6 
#
# 1 0.007051 -0.001447 -0.000933 0.000000 0.000000 0.000000
# 2 -0.001447 0.012140 0.005938 0.000000 0.000000 0.000000
# 3 -0.000933 0.005938 0.056616 0.000000 0.000000 0.000000
# 4 0.000000 0.000000 0.000000 0.045639 0.000000 0.000000
# 5 0.000000 0.000000 0.000000 0.000000 0.036224 0.000000
# 6 0.000000 0.000000 0.000000 0.000000 0.000000 0.023551
#
#
# Mechanical properties :
#
#
# Convention : Reuss Voigt Hill
#
# Bulk Modulus (GPa) = 12.05956 30.00629 21.03292
# Shear Modulus (GPa) = 24.78351 34.67751 29.73051
#
# Velocity S-wave (km/s) = 3.19253 3.77639 3.49667
# Velocity P-wave (km/s) = 4.30687 5.59955 4.99521
#
# Compressibility (1/GPa) = 0.08292177
#
# Stress axis : x y z
#
# Youngs Moduli (GPa) = 141.81969 82.37225 17.66288
#
# Poissons Ratio (x) = 0.11920 0.01648
# Poissons Ratio (y) = 0.20523 -0.10488
# Poissons Ratio (z) = 0.13235 -0.48910
#
# Static dielectric constant tensor:
#      x y z
#    x 1.996390 0.000000 0.000000 
#    y 0.000000 1.905430 0.000000 
#    z 0.000000 0.000000 1.923070 
# 
# From -- ./inp_files/40491.got.cif
#   From: 2010.05.17/outbox.cif.g08.bks.cpg/sg52_21_cif.got.tgz:40491.got - 2010.06.03 12:15:38.
