data_PCOD9412473
_publ_section_title
;
Structure prediction by ZEFSAII (Michael W. Deem and Ramdas Pophale) SiO2 
 PCOD9412473
Probable space group: P N N A
;
_chemical_formula_sum "Si O2"
_cell_formula_units_Z 40
_cell_length_a 17.475302
_cell_length_b 10.049159
_cell_length_c 9.104844
_cell_angle_alpha 90.000000
_cell_angle_beta 90.000000
_cell_angle_gamma 90.000000
_cell_volume 1598.920669
_symmetry_space_group_name_H-M "P N N A"
_symmetry_group_IT_number 52
_symmetry_cell_setting 'orthorhombic'
loop_
_space_group_symop_operation_xyz
x,y,z
1/2-x,-y,z
x,1/2-y,1/2-z
1/2-x,1/2+y,1/2-z
-x,-y,-z
1/2+x,y,-z
-x,1/2+y,1/2+z
1/2+x,1/2-y,1/2+z
loop_
_atom_site_type_symbol
_atom_site_label
_atom_site_fract_x
_atom_site_fract_y
_atom_site_fract_z
Si Si1 0.370042 0.397777 0.107050
Si Si2 0.171354 0.075547 0.883347
Si Si3 0.933011 0.388714 0.197195
Si Si4 0.798028 0.806765 0.586713
Si Si5 0.937933 0.504456 0.629948
O O1 0.294460 0.310252 0.085920
O O2 0.334876 0.547095 0.089625
O O3 0.414192 0.388770 0.260203
O O4 0.429507 0.381054 0.976206
O O5 0.250000 0.000000 0.850736
O O6 0.112223 0.016701 0.762940
O O7 0.179930 0.229606 0.934183
O O8 0.139317 0.027597 0.041268
O O9 0.895970 0.250000 0.250000
O O10 0.018327 0.395929 0.260732
O O11 0.817980 0.750000 0.750000
O O12 0.000000 0.500000 0.500000
#
# Coordination Sequence:
#
# PCOD9412473 Si02
#       5
#     8   8   8   8   8
#     4  11  24  44  71 110 140 193 249 308 377 452
#     4  11  23  44  74 101 148 193 247 310 375 443
#     4  11  26  45  71 107 154 194 247 314 378 460
#     4  11  23  41  76 103 142 186 251 308 373 449
#     4  10  23  45  70 103 144 198 247 302 384 453
#
# _framework density 25.016877000000001
#
# number of rings (size 3 to 8) (size 9 to 14) (size 15 to 20)
#    0.000    1.200    2.000    3.000    5.600    2.400 
#    0.000    0.000    8.800    0.000    0.000    0.000 
#    0.000    0.000    0.000    0.000    0.000    0.000 
#
# Total GULP energy -223101.324415 kJ/mol
# GULP energy per Si atom -5577.533110 kJ/mol
# Density = 2.495994 g / cm^3
# Si number density = 25.016877 Si / 1000 Ang^3
#
#
#
# Elastic Constant Matrix: (Units=GPa)
#
#
# Indices 1 2 3 4 5 6 
#
# 1 73.2560 4.6126 17.3155 0.0000 0.0000 0.0000
# 2 4.6126 78.6939 -20.2631 0.0000 0.0000 0.0000
# 3 17.3155 -20.2631 86.8809 0.0000 0.0000 0.0000
# 4 0.0000 0.0000 0.0000 27.0295 0.0000 0.0000
# 5 0.0000 0.0000 0.0000 0.0000 36.1937 0.0000
# 6 0.0000 0.0000 0.0000 0.0000 0.0000 22.9866
#
#
#
# Elastic Compliance Matrix: (Units=1/GPa)
#
#
# Indices 1 2 3 4 5 6 
#
# 1 0.014536 -0.001700 -0.003294 0.000000 0.000000 0.000000
# 2 -0.001700 0.013718 0.003538 0.000000 0.000000 0.000000
# 3 -0.003294 0.003538 0.012992 0.000000 0.000000 0.000000
# 4 0.000000 0.000000 0.000000 0.036997 0.000000 0.000000
# 5 0.000000 0.000000 0.000000 0.000000 0.027629 0.000000
# 6 0.000000 0.000000 0.000000 0.000000 0.000000 0.043504
#
#
# Mechanical properties :
#
#
# Convention : Reuss Voigt Hill
#
# Bulk Modulus (GPa) = 26.08561 26.90676 26.49619
# Shear Modulus (GPa) = 30.29113 33.05301 31.67207
#
# Velocity S-wave (km/s) = 3.48347 3.63881 3.56199
# Velocity P-wave (km/s) = 5.16035 5.33230 5.24703
#
# Compressibility (1/GPa) = 0.03833531
#
# Stress axis : x y z
#
# Youngs Moduli (GPa) = 68.79318 72.89589 76.97236
#
# Poissons Ratio (x) = 0.12393 0.25352
# Poissons Ratio (y) = 0.11696 -0.27235
# Poissons Ratio (z) = 0.22658 -0.25793
#
# Static dielectric constant tensor:
#      x y z
#    x 1.978250 0.000000 0.000000 
#    y 0.000000 2.183780 0.000000 
#    z 0.000000 0.000000 1.961100 
# 
# From -- ./inp_files/11614.got.cif
#   From: 2010.05.17/outbox.cif.g08.bks.cpg/sg52_6_cif.got.tgz:11614.got - 2010.06.03 12:15:38.
