data_PCOD9412172
_publ_section_title
;
Structure prediction by ZEFSAII (Michael W. Deem and Ramdas Pophale) SiO2 
 PCOD9412172
Probable space group: P N N A
;
_chemical_formula_sum "Si O2"
_cell_formula_units_Z 32
_cell_length_a 21.193462
_cell_length_b 11.342503
_cell_length_c 5.560305
_cell_angle_alpha 90.000000
_cell_angle_beta 90.000000
_cell_angle_gamma 90.000000
_cell_volume 1336.624517
_symmetry_space_group_name_H-M "P N N A"
_symmetry_group_IT_number 52
_symmetry_cell_setting 'orthorhombic'
loop_
_space_group_symop_operation_xyz
x,y,z
1/2-x,-y,z
x,1/2-y,1/2-z
1/2-x,1/2+y,1/2-z
-x,-y,-z
1/2+x,y,-z
-x,1/2+y,1/2+z
1/2+x,1/2-y,1/2+z
loop_
_atom_site_type_symbol
_atom_site_label
_atom_site_fract_x
_atom_site_fract_y
_atom_site_fract_z
Si Si1 0.336509 0.943928 0.465998
Si Si2 0.748413 0.750000 0.750000
Si Si3 0.067032 0.448411 0.425211
Si Si4 0.840243 0.363840 0.333633
Si Si5 0.892620 0.750000 0.250000
O O1 0.292221 0.866391 0.293846
O O2 0.345694 0.851686 0.675149
O O3 0.315963 0.064825 0.595594
O O4 0.406627 0.951226 0.347250
O O5 0.707419 0.697427 0.524776
O O6 0.117335 0.540578 0.536187
O O7 0.070090 0.316577 0.538092
O O8 0.000000 0.500000 0.500000
O O9 0.879646 0.250000 0.250000
#
# Coordination Sequence:
#
# PCOD9412172 Si02
#       5
#     8   4   8   8   4
#     4  11  25  49  73 107 152 208 260 320 405 487
#     4  12  26  49  76 110 163 204 264 334 410 504
#     4  11  25  46  75 107 149 203 264 325 391 480
#     4  11  28  45  70 111 149 200 255 326 397 464
#     4  10  22  45  72 104 143 200 262 304 406 462
#
# _framework density 23.940905999999998
#
# number of rings (size 3 to 8) (size 9 to 14) (size 15 to 20)
#    0.000    1.000    2.500    1.500    1.750   15.000 
#    0.000    0.000    0.000    0.000    0.000    0.000 
#    0.000    0.000    0.000    0.000    0.000    0.000 
#
# Total GULP energy -178154.058854 kJ/mol
# GULP energy per Si atom -5567.314339 kJ/mol
# Density = 2.388641 g / cm^3
# Si number density = 23.940906 Si / 1000 Ang^3
#
#
#
# Elastic Constant Matrix: (Units=GPa)
#
#
# Indices 1 2 3 4 5 6 
#
# 1 87.2811 40.1041 27.3894 0.0000 0.0000 0.0000
# 2 40.1041 206.2444 50.3165 0.0000 0.0000 0.0000
# 3 27.3894 50.3165 75.2314 0.0000 0.0000 0.0000
# 4 0.0000 0.0000 0.0000 53.6041 0.0000 0.0000
# 5 0.0000 0.0000 0.0000 0.0000 6.6242 0.0000
# 6 0.0000 0.0000 0.0000 0.0000 0.0000 13.5313
#
#
#
# Elastic Compliance Matrix: (Units=1/GPa)
#
#
# Indices 1 2 3 4 5 6 
#
# 1 0.013412 -0.001693 -0.003751 0.000000 0.000000 0.000000
# 2 -0.001693 0.006008 -0.003402 0.000000 0.000000 0.000000
# 3 -0.003751 -0.003402 0.016933 0.000000 0.000000 0.000000
# 4 0.000000 0.000000 0.000000 0.018655 0.000000 0.000000
# 5 0.000000 0.000000 0.000000 0.000000 0.150961 0.000000
# 6 0.000000 0.000000 0.000000 0.000000 0.000000 0.073903
#
#
# Mechanical properties :
#
#
# Convention : Reuss Voigt Hill
#
# Bulk Modulus (GPa) = 53.58448 67.15297 60.36872
# Shear Modulus (GPa) = 16.45910 31.48171 23.97040
#
# Velocity S-wave (km/s) = 2.62484 3.63019 3.16766
# Velocity P-wave (km/s) = 5.62290 6.75880 6.21685
#
# Compressibility (1/GPa) = 0.01866212
#
# Stress axis : x y z
#
# Youngs Moduli (GPa) = 74.55960 166.45254 59.05634
#
# Poissons Ratio (x) = 0.28180 0.22150
# Poissons Ratio (y) = 0.12623 0.20090
# Poissons Ratio (z) = 0.27965 0.56623
#
# Static dielectric constant tensor:
#      x y z
#    x 1.939400 0.000000 0.000000 
#    y 0.000000 1.997800 0.000000 
#    z 0.000000 0.000000 2.612540 
# 
# From -- ./inp_files/3951.got.cif
#   From: 2010.05.17/outbox.cif.g08.bks.cpg/sg52_2_cif.got.tgz:3951.got - 2010.06.03 12:15:38.
