data_PCOD9412885
_publ_section_title
;
Structure prediction by ZEFSAII (Michael W. Deem and Ramdas Pophale) SiO2 
 PCOD9412885
Probable space group: P N N A
;
_chemical_formula_sum "Si O2"
_cell_formula_units_Z 52
_cell_length_a 20.342350
_cell_length_b 20.502322
_cell_length_c 5.971939
_cell_angle_alpha 90.000000
_cell_angle_beta 90.000000
_cell_angle_gamma 90.000000
_cell_volume 2490.689187
_symmetry_space_group_name_H-M "P N N A"
_symmetry_group_IT_number 52
_symmetry_cell_setting 'orthorhombic'
loop_
_space_group_symop_operation_xyz
x,y,z
1/2-x,-y,z
x,1/2-y,1/2-z
1/2-x,1/2+y,1/2-z
-x,-y,-z
1/2+x,y,-z
-x,1/2+y,1/2+z
1/2+x,1/2-y,1/2+z
loop_
_atom_site_type_symbol
_atom_site_label
_atom_site_fract_x
_atom_site_fract_y
_atom_site_fract_z
Si Si1 0.980209 0.616267 0.481942
Si Si2 0.953870 0.005154 0.287101
Si Si3 0.365700 0.783302 0.999349
Si Si4 0.384948 0.175373 0.178412
Si Si5 0.250000 0.000000 0.169912
Si Si6 0.834175 0.427477 0.014873
Si Si7 0.741403 0.870722 0.101813
O O1 0.949847 0.569030 0.294419
O O2 0.922925 0.664558 0.552484
O O3 0.009025 0.559942 0.641741
O O4 0.043225 0.659125 0.414843
O O5 0.881345 0.033468 0.320681
O O6 0.000000 0.000000 0.500000
O O7 0.383707 0.750000 0.750000
O O8 0.356854 0.750000 0.250000
O O9 0.296967 0.817695 0.937206
O O10 0.378477 0.250000 0.250000
O O11 0.374977 0.128409 0.391239
O O12 0.326962 0.155038 0.006613
O O13 0.191012 0.978013 0.330246
O O14 0.263613 0.936742 0.022494
O O15 0.775020 0.392427 0.145541
#
# Coordination Sequence:
#
# PCOD9412885 Si02
#       7
#     8   8   8   8   4   8   8
#     4  11  26  45  72 108 143 192 246 313 378 449
#     4  11  24  43  73 104 145 181 242 314 386 438
#     4  12  32  52  76 109 158 208 256 307 381 462
#     4  11  24  44  69 101 140 188 249 297 362 447
#     4  10  26  40  70 104 142 176 248 308 384 438
#     4  11  24  43  70 107 136 192 241 316 373 450
#     4  11  26  46  70 106 143 195 245 311 374 449
#
# _framework density 20.877756000000002
#
# number of rings (size 3 to 8) (size 9 to 14) (size 15 to 20)
#    0.000    0.923    3.077    1.385   15.077    1.231 
#    0.000    0.000    0.000    0.000    0.000    0.000 
#    0.000    0.000    0.000    0.000    0.000    0.000 
#
# Total GULP energy -290107.798241 kJ/mol
# GULP energy per Si atom -5578.996120 kJ/mol
# Density = 2.083024 g / cm^3
# Si number density = 20.877756 Si / 1000 Ang^3
#
#
#
# Elastic Constant Matrix: (Units=GPa)
#
#
# Indices 1 2 3 4 5 6 
#
# 1 91.4314 22.1130 -2.2517 0.0000 0.0000 0.0000
# 2 22.1130 63.4367 -11.2473 0.0000 0.0000 0.0000
# 3 -2.2517 -11.2473 30.2098 0.0000 0.0000 0.0000
# 4 0.0000 0.0000 0.0000 18.1384 0.0000 0.0000
# 5 0.0000 0.0000 0.0000 0.0000 19.9799 0.0000
# 6 0.0000 0.0000 0.0000 0.0000 0.0000 38.9132
#
#
#
# Elastic Compliance Matrix: (Units=1/GPa)
#
#
# Indices 1 2 3 4 5 6 
#
# 1 0.011958 -0.004294 -0.000707 0.000000 0.000000 0.000000
# 2 -0.004294 0.018420 0.006538 0.000000 0.000000 0.000000
# 3 -0.000707 0.006538 0.035483 0.000000 0.000000 0.000000
# 4 0.000000 0.000000 0.000000 0.055132 0.000000 0.000000
# 5 0.000000 0.000000 0.000000 0.000000 0.050050 0.000000
# 6 0.000000 0.000000 0.000000 0.000000 0.000000 0.025698
#
#
# Mechanical properties :
#
#
# Convention : Reuss Voigt Hill
#
# Bulk Modulus (GPa) = 14.50662 22.47845 18.49253
# Shear Modulus (GPa) = 23.07911 27.17056 25.12483
#
# Velocity S-wave (km/s) = 3.32842 3.61142 3.47281
# Velocity P-wave (km/s) = 4.66204 5.30847 4.99573
#
# Compressibility (1/GPa) = 0.06893405
#
# Stress axis : x y z
#
# Youngs Moduli (GPa) = 83.62442 54.28990 28.18238
#
# Poissons Ratio (x) = 0.23311 0.01993
# Poissons Ratio (y) = 0.35907 -0.18425
# Poissons Ratio (z) = 0.05915 -0.35493
#
# Static dielectric constant tensor:
#      x y z
#    x 1.723530 0.000000 0.000000 
#    y 0.000000 1.716960 0.000000 
#    z 0.000000 0.000000 1.817340 
# 
# From -- ./inp_files/4435.got.cif
#   From: 2010.05.17/outbox.cif.g08.bks.cpg/sg52_3_cif.got.tgz:4435.got - 2010.06.03 12:15:38.
