data_PCOD9412772
_publ_section_title
;
Structure prediction by ZEFSAII (Michael W. Deem and Ramdas Pophale) SiO2 
 PCOD9412772
Probable space group: P N N A
;
_chemical_formula_sum "Si O2"
_cell_formula_units_Z 40
_cell_length_a 18.280782
_cell_length_b 7.561036
_cell_length_c 11.206058
_cell_angle_alpha 90.000000
_cell_angle_beta 90.000000
_cell_angle_gamma 90.000000
_cell_volume 1548.919836
_symmetry_space_group_name_H-M "P N N A"
_symmetry_group_IT_number 52
_symmetry_cell_setting 'orthorhombic'
loop_
_space_group_symop_operation_xyz
x,y,z
1/2-x,-y,z
x,1/2-y,1/2-z
1/2-x,1/2+y,1/2-z
-x,-y,-z
1/2+x,y,-z
-x,1/2+y,1/2+z
1/2+x,1/2-y,1/2+z
loop_
_atom_site_type_symbol
_atom_site_label
_atom_site_fract_x
_atom_site_fract_y
_atom_site_fract_z
Si Si1 0.583753 0.549899 0.992883
Si Si2 0.577011 0.035751 0.244805
Si Si3 0.182724 0.578839 0.539838
Si Si4 0.293176 0.819749 0.381805
Si Si5 0.440511 0.056084 0.099066
O O1 0.632317 0.395984 0.938944
O O2 0.583156 0.739498 0.926573
O O3 0.500000 0.500000 0.000000
O O4 0.603559 0.552299 0.133028
O O5 0.590533 0.250000 0.250000
O O6 0.488662 0.023083 0.217128
O O7 0.619612 0.935825 0.139346
O O8 0.250000 0.500000 0.614191
O O9 0.233993 0.719432 0.468400
O O10 0.138891 0.473744 0.432189
O O11 0.305334 0.750000 0.250000
O O12 0.250000 0.000000 0.357528
O O13 0.500000 0.000000 0.000000
#
# Coordination Sequence:
#
# PCOD9412772 Si02
#       5
#     8   8   8   8   8
#     4  12  26  51  79 115 157 213 275 328 412 485
#     4  11  24  47  82 116 163 210 269 345 405 491
#     4  11  25  48  77 112 159 209 266 334 417 482
#     4  12  28  53  79 116 163 216 278 342 416 497
#     4  10  24  47  75 114 158 205 266 328 406 482
#
# _framework density 25.824451
#
# number of rings (size 3 to 8) (size 9 to 14) (size 15 to 20)
#    0.000    0.800    4.000    1.800    2.800    8.000 
#   10.800    0.000    0.000    0.000    0.000    0.000 
#    0.000    0.000    0.000    0.000    0.000    0.000 
#
# Total GULP energy -222678.896634 kJ/mol
# GULP energy per Si atom -5566.972416 kJ/mol
# Density = 2.576567 g / cm^3
# Si number density = 25.824451 Si / 1000 Ang^3
#
#
#
# Elastic Constant Matrix: (Units=GPa)
#
#
# Indices 1 2 3 4 5 6 
#
# 1 198.6467 65.3742 51.8705 0.0000 0.0000 0.0000
# 2 65.3742 90.5378 27.9561 0.0000 0.0000 0.0000
# 3 51.8705 27.9561 126.4692 0.0000 0.0000 0.0000
# 4 0.0000 0.0000 0.0000 18.3754 0.0000 0.0000
# 5 0.0000 0.0000 0.0000 0.0000 120.0724 0.0000
# 6 0.0000 0.0000 0.0000 0.0000 0.0000 63.0242
#
#
#
# Elastic Compliance Matrix: (Units=1/GPa)
#
#
# Indices 1 2 3 4 5 6 
#
# 1 0.006997 -0.004471 -0.001881 0.000000 0.000000 0.000000
# 2 -0.004471 0.014712 -0.001418 0.000000 0.000000 0.000000
# 3 -0.001881 -0.001418 0.008992 0.000000 0.000000 0.000000
# 4 0.000000 0.000000 0.000000 0.054421 0.000000 0.000000
# 5 0.000000 0.000000 0.000000 0.000000 0.008328 0.000000
# 6 0.000000 0.000000 0.000000 0.000000 0.000000 0.015867
#
#
# Mechanical properties :
#
#
# Convention : Reuss Voigt Hill
#
# Bulk Modulus (GPa) = 65.96709 78.45058 72.20883
# Shear Modulus (GPa) = 38.48799 58.32460 48.40629
#
# Velocity S-wave (km/s) = 3.86472 4.75753 4.33417
# Velocity P-wave (km/s) = 6.74645 7.78608 7.28484
#
# Compressibility (1/GPa) = 0.01515908
#
# Stress axis : x y z
#
# Youngs Moduli (GPa) = 142.92295 67.97395 111.20809
#
# Poissons Ratio (x) = 0.30393 0.20922
# Poissons Ratio (y) = 0.63904 0.15771
# Poissons Ratio (z) = 0.26888 0.09640
#
# Static dielectric constant tensor:
#      x y z
#    x 2.175780 0.000000 0.000000 
#    y 0.000000 1.695840 0.000000 
#    z 0.000000 0.000000 2.039590 
# 
# From -- ./inp_files/20274.got.cif
#   From: 2010.05.17/outbox.cif.g08.bks.cpg/sg52_11_cif.got.tgz:20274.got - 2010.06.03 12:15:38.
