data_PCOD9412646
_publ_section_title
;
Structure prediction by ZEFSAII (Michael W. Deem and Ramdas Pophale) SiO2 
 PCOD9412646
Probable space group: P N N A
;
_chemical_formula_sum "Si O2"
_cell_formula_units_Z 40
_cell_length_a 13.436100
_cell_length_b 24.729719
_cell_length_c 4.878866
_cell_angle_alpha 90.000000
_cell_angle_beta 90.000000
_cell_angle_gamma 90.000000
_cell_volume 1621.105575
_symmetry_space_group_name_H-M "P N N A"
_symmetry_group_IT_number 52
_symmetry_cell_setting 'orthorhombic'
loop_
_space_group_symop_operation_xyz
x,y,z
1/2-x,-y,z
x,1/2-y,1/2-z
1/2-x,1/2+y,1/2-z
-x,-y,-z
1/2+x,y,-z
-x,1/2+y,1/2+z
1/2+x,1/2-y,1/2+z
loop_
_atom_site_type_symbol
_atom_site_label
_atom_site_fract_x
_atom_site_fract_y
_atom_site_fract_z
Si Si1 0.886941 0.967580 0.814493
Si Si2 0.577354 0.917369 0.987357
Si Si3 0.716110 0.077649 0.311480
Si Si4 0.268650 0.692298 0.696615
Si Si5 0.628929 0.808817 0.700431
O O1 0.803392 0.944077 0.613515
O O2 0.916214 0.030103 0.786849
O O3 0.844489 0.962392 0.119676
O O4 0.982709 0.929070 0.821116
O O5 0.326172 0.861688 0.723920
O O6 0.574764 0.862387 0.810170
O O7 0.825373 0.082235 0.181714
O O8 0.318118 0.750000 0.750000
O O9 0.169520 0.809294 0.608981
O O10 0.229812 0.690683 0.386569
O O11 0.080504 0.750000 0.250000
#
# Coordination Sequence:
#
# PCOD9412646 Si02
#       5
#     8   8   8   8   8
#     4  11  26  41  63  98 128 171 220 260 329 394
#     4  10  24  43  65  93 137 171 212 280 324 383
#     4  11  23  41  65  92 127 172 217 261 323 393
#     4   9  18  34  59  89 120 161 210 261 315 374
#     4   9  18  34  60  88 117 163 210 251 318 381
#
# _framework density 24.674520000000001
#
# number of rings (size 3 to 8) (size 9 to 14) (size 15 to 20)
#    0.000    2.000    0.000    3.000    0.000   16.000 
#    0.000    1.000    0.000    7.200    0.000    0.000 
#    0.000    0.000    0.000    0.000    0.000    0.000 
#
# Total GULP energy -223638.925620 kJ/mol
# GULP energy per Si atom -5590.973141 kJ/mol
# Density = 2.461836 g / cm^3
# Si number density = 24.674520 Si / 1000 Ang^3
#
#
#
# Elastic Constant Matrix: (Units=GPa)
#
#
# Indices 1 2 3 4 5 6 
#
# 1 87.4446 10.2523 8.6770 0.0000 0.0000 0.0000
# 2 10.2523 241.1499 17.6770 0.0000 0.0000 0.0000
# 3 8.6770 17.6770 76.8642 0.0000 0.0000 0.0000
# 4 0.0000 0.0000 0.0000 40.0498 0.0000 0.0000
# 5 0.0000 0.0000 0.0000 0.0000 1.8701 0.0000
# 6 0.0000 0.0000 0.0000 0.0000 0.0000 17.3875
#
#
#
# Elastic Compliance Matrix: (Units=1/GPa)
#
#
# Indices 1 2 3 4 5 6 
#
# 1 0.011604 -0.000404 -0.001217 0.000000 0.000000 0.000000
# 2 -0.000404 0.004232 -0.000928 0.000000 0.000000 0.000000
# 3 -0.001217 -0.000928 0.013361 0.000000 0.000000 0.000000
# 4 0.000000 0.000000 0.000000 0.024969 0.000000 0.000000
# 5 0.000000 0.000000 0.000000 0.000000 0.534726 0.000000
# 6 0.000000 0.000000 0.000000 0.000000 0.000000 0.057513
#
#
# Mechanical properties :
#
#
# Convention : Reuss Voigt Hill
#
# Bulk Modulus (GPa) = 41.49534 53.18569 47.34051
# Shear Modulus (GPa) = 7.58111 36.45164 22.01637
#
# Velocity S-wave (km/s) = 1.75474 3.84773 2.99033
# Velocity P-wave (km/s) = 4.57811 6.42976 5.58126
#
# Compressibility (1/GPa) = 0.02409909
#
# Stress axis : x y z
#
# Youngs Moduli (GPa) = 86.17755 236.29611 74.84652
#
# Poissons Ratio (x) = 0.09549 0.09109
# Poissons Ratio (y) = 0.03483 0.06943
# Poissons Ratio (z) = 0.10488 0.21920
#
# Static dielectric constant tensor:
#      x y z
#    x 1.952590 0.000000 0.000000 
#    y 0.000000 2.145420 0.000000 
#    z 0.000000 0.000000 1.895250 
# 
# From -- ./inp_files/3504.got.cif
#   From: 2010.05.17/outbox.cif.g08.bks.cpg/sg52_2_cif.got.tgz:3504.got - 2010.06.03 12:15:38.
