data_PCOD9412414
_publ_section_title
;
Structure prediction by ZEFSAII (Michael W. Deem and Ramdas Pophale) SiO2 
 PCOD9412414
Probable space group: P N N A
;
_chemical_formula_sum "Si O2"
_cell_formula_units_Z 32
_cell_length_a 13.475789
_cell_length_b 17.066673
_cell_length_c 5.625515
_cell_angle_alpha 90.000000
_cell_angle_beta 90.000000
_cell_angle_gamma 90.000000
_cell_volume 1293.794667
_symmetry_space_group_name_H-M "P N N A"
_symmetry_group_IT_number 52
_symmetry_cell_setting 'orthorhombic'
loop_
_space_group_symop_operation_xyz
x,y,z
1/2-x,-y,z
x,1/2-y,1/2-z
1/2-x,1/2+y,1/2-z
-x,-y,-z
1/2+x,y,-z
-x,1/2+y,1/2+z
1/2+x,1/2-y,1/2+z
loop_
_atom_site_type_symbol
_atom_site_label
_atom_site_fract_x
_atom_site_fract_y
_atom_site_fract_z
Si Si1 0.953316 0.055337 0.309673
Si Si2 0.838771 0.551275 0.546722
Si Si3 0.650594 0.229528 0.999126
Si Si4 0.862621 0.290830 0.998694
O O1 0.908023 0.125132 0.461202
O O2 0.051249 0.072467 0.151972
O O3 0.000000 0.000000 0.500000
O O4 0.869952 0.008945 0.161927
O O5 0.750000 0.500000 0.672391
O O6 0.806371 0.640568 0.490037
O O7 0.599787 0.250000 0.250000
O O8 0.597415 0.250000 0.750000
O O9 0.743285 0.289223 0.989157
O O10 0.891324 0.250000 0.750000
O O11 0.885418 0.250000 0.250000
#
# Coordination Sequence:
#
# PCOD9412414 Si02
#       4
#     8   8   8   8
#     4  11  28  47  76 115 157 208 264 332 399 479
#     4  11  26  48  77 110 156 209 263 327 404 480
#     4  10  23  43  73 109 146 199 261 317 389 468
#     4  10  23  46  79 105 154 202 253 323 393 464
#
# _framework density 24.733446000000001
#
# number of rings (size 3 to 8) (size 9 to 14) (size 15 to 20)
#    0.000    1.500    0.000    3.000   17.500    2.000 
#    0.000    0.000    0.000    0.000    0.000    0.000 
#    0.000    0.000    0.000    0.000    0.000    0.000 
#
# Total GULP energy -178443.310643 kJ/mol
# GULP energy per Si atom -5576.353458 kJ/mol
# Density = 2.467715 g / cm^3
# Si number density = 24.733446 Si / 1000 Ang^3
#
#
#
# Elastic Constant Matrix: (Units=GPa)
#
#
# Indices 1 2 3 4 5 6 
#
# 1 103.2918 -12.9117 17.2314 0.0000 0.0000 0.0000
# 2 -12.9117 82.4277 49.4364 0.0000 0.0000 0.0000
# 3 17.2314 49.4364 185.4104 0.0000 0.0000 0.0000
# 4 0.0000 0.0000 0.0000 45.3378 0.0000 0.0000
# 5 0.0000 0.0000 0.0000 0.0000 -33.4841 0.0000
# 6 0.0000 0.0000 0.0000 0.0000 0.0000 39.0426
#
#
#
# Elastic Compliance Matrix: (Units=1/GPa)
#
#
# Indices 1 2 3 4 5 6 
#
# 1 0.010281 0.002599 -0.001649 0.000000 0.000000 0.000000
# 2 0.002599 0.015098 -0.004267 0.000000 0.000000 0.000000
# 3 -0.001649 -0.004267 0.006684 0.000000 0.000000 0.000000
# 4 0.000000 0.000000 0.000000 0.022057 0.000000 0.000000
# 5 0.000000 0.000000 0.000000 0.000000 -0.029865 0.000000
# 6 0.000000 0.000000 0.000000 0.000000 0.000000 0.025613
#
#
# Mechanical properties :
#
#
# Convention : Reuss Voigt Hill
#
# Bulk Modulus (GPa) = 39.32241 53.18244 46.25243
# Shear Modulus (GPa) = 76.94818 31.33753 54.14285
#
# Velocity S-wave (km/s) = 5.58377 3.56337 4.68381
# Velocity P-wave (km/s) = 7.58316 6.20315 6.92760
#
# Compressibility (1/GPa) = 0.02543079
#
# Stress axis : x y z
#
# Youngs Moduli (GPa) = 97.26463 66.23263 149.60129
#
# Poissons Ratio (x) = -0.17215 0.24662
# Poissons Ratio (y) = -0.25281 0.63839
# Poissons Ratio (z) = 0.16034 0.28263
#
# Static dielectric constant tensor:
#      x y z
#    x 1.684270 0.000000 0.000000 
#    y 0.000000 1.920520 0.000000 
#    z 0.000000 0.000000 2.004710 
# 
# From -- ./inp_files/1942.got.cif
#   From: 2010.05.17/outbox.cif.g08.bks.cpg/sg52_1_cif.got.tgz:1942.got - 2010.06.03 12:15:38.
