data_PCOD9412238
_publ_section_title
;
Structure prediction by ZEFSAII (Michael W. Deem and Ramdas Pophale) SiO2 
 PCOD9412238
Probable space group: P N N A
;
_chemical_formula_sum "Si O2"
_cell_formula_units_Z 64
_cell_length_a 10.783547
_cell_length_b 18.344039
_cell_length_c 15.008187
_cell_angle_alpha 90.000000
_cell_angle_beta 90.000000
_cell_angle_gamma 90.000000
_cell_volume 2968.826603
_symmetry_space_group_name_H-M "P N N A"
_symmetry_group_IT_number 52
_symmetry_cell_setting 'orthorhombic'
loop_
_space_group_symop_operation_xyz
x,y,z
1/2-x,-y,z
x,1/2-y,1/2-z
1/2-x,1/2+y,1/2-z
-x,-y,-z
1/2+x,y,-z
-x,1/2+y,1/2+z
1/2+x,1/2-y,1/2+z
loop_
_atom_site_type_symbol
_atom_site_label
_atom_site_fract_x
_atom_site_fract_y
_atom_site_fract_z
Si Si1 0.309150 0.426353 0.805042
Si Si2 0.308052 0.296695 0.490508
Si Si3 0.191680 0.280540 0.842380
Si Si4 0.442652 0.326928 0.097891
Si Si5 0.436672 0.609274 0.495854
Si Si6 0.473274 0.927846 0.441779
Si Si7 0.630308 0.525791 0.802377
Si Si8 0.441691 0.007624 0.851211
O O1 0.250000 0.500000 0.840227
O O2 0.211514 0.365795 0.829652
O O3 0.426166 0.409070 0.866290
O O4 0.341845 0.440726 0.700992
O O5 0.272483 0.259033 0.583827
O O6 0.331761 0.226705 0.428486
O O7 0.186185 0.345007 0.471305
O O8 0.436885 0.342832 0.490477
O O9 0.235450 0.250000 0.750000
O O10 0.045153 0.275116 0.856933
O O11 0.389418 0.395492 0.152539
O O12 0.516956 0.361763 0.012124
O O13 0.406308 0.559568 0.583501
O O14 0.473127 0.556721 0.414517
O O15 0.500000 0.000000 0.500000
O O16 0.366836 0.961135 0.378131
O O17 0.750000 0.500000 0.747334
O O18 0.515924 0.520996 0.734417
#
# Coordination Sequence:
#
# PCOD9412238 Si02
#       8
#     8   8   8   8   8   8   8   8
#     4  11  22  39  69 101 133 175 232 298 356 425
#     4  12  26  46  72 104 145 193 242 291 375 447
#     4  12  26  44  71 101 145 190 242 301 364 444
#     4  11  24  43  66 101 141 186 234 286 359 439
#     4  11  27  47  75 100 140 193 246 310 360 440
#     4   9  19  36  57  93 129 169 220 273 335 413
#     4  10  23  38  67  98 139 178 228 296 361 420
#     4  10  25  46  71 103 135 179 252 305 365 420
#
# _framework density 21.557338000000001
#
# number of rings (size 3 to 8) (size 9 to 14) (size 15 to 20)
#    0.000    1.250    2.500    3.000    8.750    3.000 
#    0.000    0.000    0.000    0.000    0.000    0.000 
#    0.000    0.000    0.000    0.000    0.000    0.000 
#
# Total GULP energy -356531.473560 kJ/mol
# GULP energy per Si atom -5570.804274 kJ/mol
# Density = 2.150827 g / cm^3
# Si number density = 21.557338 Si / 1000 Ang^3
#
#
#
# Elastic Constant Matrix: (Units=GPa)
#
#
# Indices 1 2 3 4 5 6 
#
# 1 88.2517 23.8899 16.3691 0.0000 0.0000 0.0000
# 2 23.8899 92.5530 26.8808 0.0000 0.0000 0.0000
# 3 16.3691 26.8808 86.5543 0.0000 0.0000 0.0000
# 4 0.0000 0.0000 0.0000 25.3324 0.0000 0.0000
# 5 0.0000 0.0000 0.0000 0.0000 19.4747 0.0000
# 6 0.0000 0.0000 0.0000 0.0000 0.0000 38.6908
#
#
#
# Elastic Compliance Matrix: (Units=1/GPa)
#
#
# Indices 1 2 3 4 5 6 
#
# 1 0.012352 -0.002759 -0.001479 0.000000 0.000000 0.000000
# 2 -0.002759 0.012492 -0.003358 0.000000 0.000000 0.000000
# 3 -0.001479 -0.003358 0.012876 0.000000 0.000000 0.000000
# 4 0.000000 0.000000 0.000000 0.039475 0.000000 0.000000
# 5 0.000000 0.000000 0.000000 0.000000 0.051349 0.000000
# 6 0.000000 0.000000 0.000000 0.000000 0.000000 0.025846
#
#
# Mechanical properties :
#
#
# Convention : Reuss Voigt Hill
#
# Bulk Modulus (GPa) = 44.38807 44.62652 44.50730
# Shear Modulus (GPa) = 28.23399 30.04753 29.14076
#
# Velocity S-wave (km/s) = 3.62293 3.73747 3.68064
# Velocity P-wave (km/s) = 6.17545 6.27464 6.22525
#
# Compressibility (1/GPa) = 0.02252857
#
# Stress axis : x y z
#
# Youngs Moduli (GPa) = 80.95581 80.05144 77.66363
#
# Poissons Ratio (x) = 0.22084 0.11489
# Poissons Ratio (y) = 0.22334 0.26078
# Poissons Ratio (z) = 0.11976 0.26880
#
# Static dielectric constant tensor:
#      x y z
#    x 1.916130 0.000000 0.000000 
#    y 0.000000 1.789610 0.000000 
#    z 0.000000 0.000000 1.810520 
# 
# From -- ./inp_files/26336.got.cif
#   From: 2010.05.17/outbox.cif.g08.bks.cpg/sg52_14_cif.got.tgz:26336.got - 2010.06.03 12:15:38.
