data_PCOD9412297
_publ_section_title
;
Structure prediction by ZEFSAII (Michael W. Deem and Ramdas Pophale) SiO2 
 PCOD9412297
Probable space group: P N N A
;
_chemical_formula_sum "Si O2"
_cell_formula_units_Z 60
_cell_length_a 19.401514
_cell_length_b 12.623698
_cell_length_c 11.704633
_cell_angle_alpha 90.000000
_cell_angle_beta 90.000000
_cell_angle_gamma 90.000000
_cell_volume 2866.685295
_symmetry_space_group_name_H-M "P N N A"
_symmetry_group_IT_number 52
_symmetry_cell_setting 'orthorhombic'
loop_
_space_group_symop_operation_xyz
x,y,z
1/2-x,-y,z
x,1/2-y,1/2-z
1/2-x,1/2+y,1/2-z
-x,-y,-z
1/2+x,y,-z
-x,1/2+y,1/2+z
1/2+x,1/2-y,1/2+z
loop_
_atom_site_type_symbol
_atom_site_label
_atom_site_fract_x
_atom_site_fract_y
_atom_site_fract_z
Si Si1 0.728395 0.621493 0.581111
Si Si2 0.069768 0.166131 0.647890
Si Si3 0.356947 0.063025 0.867658
Si Si4 0.066405 0.648931 0.037288
Si Si5 0.827416 0.478263 0.124709
Si Si6 0.503575 0.680093 0.361398
Si Si7 0.644826 0.750000 0.750000
Si Si8 0.627698 0.152364 0.992173
O O1 0.750000 0.500000 0.591918
O O2 0.680586 0.629596 0.468063
O O3 0.689974 0.659271 0.692470
O O4 0.800141 0.681150 0.564892
O O5 0.052675 0.250000 0.750000
O O6 0.099570 0.244920 0.553802
O O7 0.003282 0.103661 0.597635
O O8 0.130441 0.082121 0.666384
O O9 0.318981 0.080752 0.747100
O O10 0.435487 0.096245 0.844137
O O11 0.358215 0.944465 0.920732
O O12 0.102932 0.702487 0.145101
O O13 0.121834 0.579859 0.965803
O O14 0.036294 0.738498 0.952970
O O15 0.750000 0.500000 0.080134
O O16 0.489018 0.750000 0.250000
O O17 0.434163 0.623967 0.405752
#
# Coordination Sequence:
#
# PCOD9412297 Si02
#       8
#     8   8   8   8   8   8   4   8
#     4  10  24  44  66  98 130 174 222 275 331 404
#     4  11  23  44  68  98 134 182 221 272 339 405
#     4  11  21  43  67  99 133 172 222 273 337 400
#     4  11  25  46  67  96 135 179 230 277 336 406
#     4  12  26  43  69 105 139 175 226 286 343 400
#     4  11  22  41  67  99 128 172 221 278 332 392
#     4  12  24  44  70  90 132 186 226 274 342 406
#     4  10  23  41  66  97 131 169 225 270 332 399
#
# _framework density 20.930095000000001
#
# number of rings (size 3 to 8) (size 9 to 14) (size 15 to 20)
#    0.000    1.067    4.667    2.000    2.800    0.533 
#    4.800    0.000    0.000    0.000    0.000    0.000 
#    0.000    0.000    0.000    0.000    0.000    0.000 
#
# Total GULP energy -334675.879915 kJ/mol
# GULP energy per Si atom -5577.931332 kJ/mol
# Density = 2.088246 g / cm^3
# Si number density = 20.930095 Si / 1000 Ang^3
#
#
#
# Elastic Constant Matrix: (Units=GPa)
#
#
# Indices 1 2 3 4 5 6 
#
# 1 129.0910 20.2991 54.9744 0.0000 0.0000 0.0000
# 2 20.2991 26.4118 24.7266 0.0000 0.0000 0.0000
# 3 54.9744 24.7266 113.8012 0.0000 0.0000 0.0000
# 4 0.0000 0.0000 0.0000 29.7646 0.0000 0.0000
# 5 0.0000 0.0000 0.0000 0.0000 -2.1888 0.0000
# 6 0.0000 0.0000 0.0000 0.0000 0.0000 23.0468
#
#
#
# Elastic Compliance Matrix: (Units=1/GPa)
#
#
# Indices 1 2 3 4 5 6 
#
# 1 0.010079 -0.004002 -0.003999 0.000000 0.000000 0.000000
# 2 -0.004002 0.049119 -0.008739 0.000000 0.000000 0.000000
# 3 -0.003999 -0.008739 0.012618 0.000000 0.000000 0.000000
# 4 0.000000 0.000000 0.000000 0.033597 0.000000 0.000000
# 5 0.000000 0.000000 0.000000 0.000000 -0.456879 0.000000
# 6 0.000000 0.000000 0.000000 0.000000 0.000000 0.043390
#
#
# Mechanical properties :
#
#
# Convention : Reuss Voigt Hill
#
# Bulk Modulus (GPa) = 26.08583 52.14488 39.11535
# Shear Modulus (GPa) = -19.09742 21.41145 1.15701
#
# Velocity S-wave (km/s) = -3.02394 3.20190 0.74431
# Velocity P-wave (km/s) = 0.54599 6.21591 4.41223
#
# Compressibility (1/GPa) = 0.03833499
#
# Stress axis : x y z
#
# Youngs Moduli (GPa) = 99.21693 20.35855 79.25149
#
# Poissons Ratio (x) = 0.08148 0.31695
# Poissons Ratio (y) = 0.39708 0.69260
# Poissons Ratio (z) = 0.39680 0.17792
#
# Static dielectric constant tensor:
#      x y z
#    x 1.820990 0.000000 0.000000 
#    y 0.000000 1.762190 0.000000 
#    z 0.000000 0.000000 1.796360 
# 
# From -- ./inp_files/21780.got.cif
#   From: 2010.05.17/outbox.cif.g08.bks.cpg/sg52_11_cif.got.tgz:21780.got - 2010.06.03 12:15:38.
