data_PCOD9412549
_publ_section_title
;
Structure prediction by ZEFSAII (Michael W. Deem and Ramdas Pophale) SiO2 
 PCOD9412549
Probable space group: P N N A
;
_chemical_formula_sum "Si O2"
_cell_formula_units_Z 60
_cell_length_a 17.357088
_cell_length_b 30.796498
_cell_length_c 4.852265
_cell_angle_alpha 90.000000
_cell_angle_beta 90.000000
_cell_angle_gamma 90.000000
_cell_volume 2593.717728
_symmetry_space_group_name_H-M "P N N A"
_symmetry_group_IT_number 52
_symmetry_cell_setting 'orthorhombic'
loop_
_space_group_symop_operation_xyz
x,y,z
1/2-x,-y,z
x,1/2-y,1/2-z
1/2-x,1/2+y,1/2-z
-x,-y,-z
1/2+x,y,-z
-x,1/2+y,1/2+z
1/2+x,1/2-y,1/2+z
loop_
_atom_site_type_symbol
_atom_site_label
_atom_site_fract_x
_atom_site_fract_y
_atom_site_fract_z
Si Si1 0.091282 0.097339 0.027739
Si Si2 0.765983 0.918782 0.380827
Si Si3 0.821990 0.835536 0.657304
Si Si4 0.628064 0.623037 0.386609
Si Si5 0.250000 0.000000 0.226655
Si Si6 0.922292 0.996313 0.816216
Si Si7 0.546992 0.588618 0.898082
Si Si8 0.243232 0.797930 0.835883
O O1 0.167787 0.086659 0.847104
O O2 0.028550 0.096978 0.784767
O O3 0.105209 0.142445 0.190997
O O4 0.078515 0.055965 0.233176
O O5 0.774688 0.879159 0.592908
O O6 0.687961 0.912582 0.217640
O O7 0.764149 0.960739 0.564376
O O8 0.814569 0.812263 0.363388
O O9 0.777963 0.803832 0.862514
O O10 0.608789 0.613121 0.700995
O O11 0.671264 0.668471 0.328505
O O12 0.555054 0.611892 0.192010
O O13 0.333713 0.004259 0.077632
O O14 0.934920 0.036491 0.603168
O O15 0.000000 0.000000 0.000000
O O16 0.219482 0.750000 0.750000
#
# Coordination Sequence:
#
# PCOD9412549 Si02
#       8
#     8   8   8   8   4   8   8   8
#     4  11  24  42  64  94 144 186 227 281 334 393
#     4  11  24  38  65  96 132 176 236 279 329 393
#     4  11  21  41  66  98 131 165 223 274 337 412
#     4  11  23  42  65  97 130 166 232 270 334 415
#     4  12  22  36  66  92 144 188 244 292 346 378
#     4  10  24  39  58  97 141 190 237 279 332 391
#     4  11  26  42  63  96 140 188 225 276 332 403
#     4  11  24  42  71 104 131 160 213 291 354 414
#
# _framework density 23.132819000000001
#
# number of rings (size 3 to 8) (size 9 to 14) (size 15 to 20)
#    0.000    1.067    5.333    2.000    5.600    0.000 
#    0.000    3.333    0.000    3.200    0.000    0.000 
#    0.000    0.000    0.000    0.000    0.000    0.000 
#
# Total GULP energy -334837.560231 kJ/mol
# GULP energy per Si atom -5580.626004 kJ/mol
# Density = 2.308017 g / cm^3
# Si number density = 23.132819 Si / 1000 Ang^3
#
#
#
# Elastic Constant Matrix: (Units=GPa)
#
#
# Indices 1 2 3 4 5 6 
#
# 1 107.3271 -2.0371 7.7264 0.0000 0.0000 0.0000
# 2 -2.0371 125.7358 16.7699 0.0000 0.0000 0.0000
# 3 7.7264 16.7699 91.0699 0.0000 0.0000 0.0000
# 4 0.0000 0.0000 0.0000 34.6756 0.0000 0.0000
# 5 0.0000 0.0000 0.0000 0.0000 26.1753 0.0000
# 6 0.0000 0.0000 0.0000 0.0000 0.0000 25.1063
#
#
#
# Elastic Compliance Matrix: (Units=1/GPa)
#
#
# Indices 1 2 3 4 5 6 
#
# 1 0.009383 0.000265 -0.000845 0.000000 0.000000 0.000000
# 2 0.000265 0.008161 -0.001525 0.000000 0.000000 0.000000
# 3 -0.000845 -0.001525 0.011333 0.000000 0.000000 0.000000
# 4 0.000000 0.000000 0.000000 0.028839 0.000000 0.000000
# 5 0.000000 0.000000 0.000000 0.000000 0.038204 0.000000
# 6 0.000000 0.000000 0.000000 0.000000 0.000000 0.039831
#
#
# Mechanical properties :
#
#
# Convention : Reuss Voigt Hill
#
# Bulk Modulus (GPa) = 40.54087 41.00570 40.77328
# Shear Modulus (GPa) = 33.74198 37.30300 35.52249
#
# Velocity S-wave (km/s) = 3.82333 4.02002 3.92291
# Velocity P-wave (km/s) = 6.08718 6.26994 6.17924
#
# Compressibility (1/GPa) = 0.02466647
#
# Stress axis : x y z
#
# Youngs Moduli (GPa) = 106.57401 122.53552 88.23701
#
# Poissons Ratio (x) = -0.03243 0.07454
# Poissons Ratio (y) = -0.02821 0.13458
# Poissons Ratio (z) = 0.09003 0.18689
#
# Static dielectric constant tensor:
#      x y z
#    x 1.986840 0.000000 0.000000 
#    y 0.000000 1.853760 0.000000 
#    z 0.000000 0.000000 1.928540 
# 
# From -- ./inp_files/3650.got.cif
#   From: 2010.05.17/outbox.cif.g08.bks.cpg/sg52_2_cif.got.tgz:3650.got - 2010.06.03 12:15:38.
