data_PCOD9412783
_publ_section_title
;
Structure prediction by ZEFSAII (Michael W. Deem and Ramdas Pophale) SiO2 
 PCOD9412783
Probable space group: P N N A
;
_chemical_formula_sum "Si O2"
_cell_formula_units_Z 40
_cell_length_a 27.409250
_cell_length_b 7.927908
_cell_length_c 7.789127
_cell_angle_alpha 90.000000
_cell_angle_beta 90.000000
_cell_angle_gamma 90.000000
_cell_volume 1692.561815
_symmetry_space_group_name_H-M "P N N A"
_symmetry_group_IT_number 52
_symmetry_cell_setting 'orthorhombic'
loop_
_space_group_symop_operation_xyz
x,y,z
1/2-x,-y,z
x,1/2-y,1/2-z
1/2-x,1/2+y,1/2-z
-x,-y,-z
1/2+x,y,-z
-x,1/2+y,1/2+z
1/2+x,1/2-y,1/2+z
loop_
_atom_site_type_symbol
_atom_site_label
_atom_site_fract_x
_atom_site_fract_y
_atom_site_fract_z
Si Si1 0.216003 0.834011 0.567427
Si Si2 0.052866 0.950090 0.218050
Si Si3 0.226349 0.250000 0.250000
Si Si4 0.123381 0.250000 0.750000
Si Si5 0.944630 0.438143 0.308591
Si Si6 0.645342 0.431783 0.925799
O O1 0.215373 0.750000 0.750000
O O2 0.239842 0.727105 0.415305
O O3 0.250000 0.000000 0.582428
O O4 0.162243 0.896224 0.516153
O O5 0.054418 0.750000 0.250000
O O6 0.094345 0.045608 0.328037
O O7 0.058253 0.964113 0.013263
O O8 0.999362 0.023458 0.257791
O O9 0.188569 0.400076 0.210652
O O10 0.090440 0.416125 0.757787
O O11 0.150059 0.220161 0.567333
O O12 0.932036 0.250000 0.250000
#
# Coordination Sequence:
#
# PCOD9412783 Si02
#       6
#     8   8   4   4   8   8
#     4  10  25  48  77 107 143 195 243 314 388 459
#     4  11  25  45  72 107 154 198 257 314 375 459
#     4  10  24  48  69 108 144 192 245 308 386 446
#     4  12  26  48  75 112 152 194 259 314 372 458
#     4  11  26  45  75 108 147 210 251 310 380 442
#     4  11  26  45  74 110 148 196 251 317 385 453
#
# _framework density 23.632816999999999
#
# number of rings (size 3 to 8) (size 9 to 14) (size 15 to 20)
#    0.000    1.200    1.000    2.400   14.000    6.400 
#    0.000    0.000    0.000    0.000    0.000    0.000 
#    0.000    0.000    0.000    0.000    0.000    0.000 
#
# Total GULP energy -223761.898310 kJ/mol
# GULP energy per Si atom -5594.047458 kJ/mol
# Density = 2.357903 g / cm^3
# Si number density = 23.632817 Si / 1000 Ang^3
#
#
#
# Elastic Constant Matrix: (Units=GPa)
#
#
# Indices 1 2 3 4 5 6 
#
# 1 126.3372 38.3130 73.7273 0.0000 0.0000 0.0000
# 2 38.3130 95.8684 38.1044 0.0000 0.0000 0.0000
# 3 73.7273 38.1044 158.0932 0.0000 0.0000 0.0000
# 4 0.0000 0.0000 0.0000 39.4389 0.0000 0.0000
# 5 0.0000 0.0000 0.0000 0.0000 46.2517 0.0000
# 6 0.0000 0.0000 0.0000 0.0000 0.0000 -28.8497
#
#
#
# Elastic Compliance Matrix: (Units=1/GPa)
#
#
# Indices 1 2 3 4 5 6 
#
# 1 0.011483 -0.002721 -0.004699 0.000000 0.000000 0.000000
# 2 -0.002721 0.012181 -0.001667 0.000000 0.000000 0.000000
# 3 -0.004699 -0.001667 0.008919 0.000000 0.000000 0.000000
# 4 0.000000 0.000000 0.000000 0.025356 0.000000 0.000000
# 5 0.000000 0.000000 0.000000 0.000000 0.021621 0.000000
# 6 0.000000 0.000000 0.000000 0.000000 0.000000 -0.034662
#
#
# Mechanical properties :
#
#
# Convention : Reuss Voigt Hill
#
# Bulk Modulus (GPa) = 69.40640 75.62092 72.51366
# Shear Modulus (GPa) = 73.66594 26.71178 50.18886
#
# Velocity S-wave (km/s) = 5.58916 3.36562 4.61335
# Velocity P-wave (km/s) = 8.43113 6.86811 7.68944
#
# Compressibility (1/GPa) = 0.01440789
#
# Stress axis : x y z
#
# Youngs Moduli (GPa) = 87.08596 82.09496 112.12500
#
# Poissons Ratio (x) = 0.22340 0.52690
# Poissons Ratio (y) = 0.23699 0.18690
# Poissons Ratio (z) = 0.40923 0.13684
#
# Static dielectric constant tensor:
#      x y z
#    x 1.913880 0.000000 0.000000 
#    y 0.000000 1.876710 0.000000 
#    z 0.000000 0.000000 2.088030 
# 
# From -- ./inp_files/14042.got.cif
#   From: 2010.05.17/outbox.cif.g08.bks.cpg/sg52_8_cif.got.tgz:14042.got - 2010.06.03 12:15:38.
