data_PCOD9412486
_publ_section_title
;
Structure prediction by ZEFSAII (Michael W. Deem and Ramdas Pophale) SiO2 
 PCOD9412486
Probable space group: P N N A
;
_chemical_formula_sum "Si O2"
_cell_formula_units_Z 36
_cell_length_a 22.611310
_cell_length_b 8.257582
_cell_length_c 7.845576
_cell_angle_alpha 90.000000
_cell_angle_beta 90.000000
_cell_angle_gamma 90.000000
_cell_volume 1464.884734
_symmetry_space_group_name_H-M "P N N A"
_symmetry_group_IT_number 52
_symmetry_cell_setting 'orthorhombic'
loop_
_space_group_symop_operation_xyz
x,y,z
1/2-x,-y,z
x,1/2-y,1/2-z
1/2-x,1/2+y,1/2-z
-x,-y,-z
1/2+x,y,-z
-x,1/2+y,1/2+z
1/2+x,1/2-y,1/2+z
loop_
_atom_site_type_symbol
_atom_site_label
_atom_site_fract_x
_atom_site_fract_y
_atom_site_fract_z
Si Si1 0.249832 0.193477 0.565065
Si Si2 0.871131 0.222457 0.561340
Si Si3 0.549710 0.528385 0.353808
Si Si4 0.884325 0.849744 0.438052
Si Si5 0.540614 0.250000 0.750000
O O1 0.270800 0.250000 0.750000
O O2 0.300676 0.261143 0.443160
O O3 0.180643 0.232661 0.554648
O O4 0.250000 0.000000 0.554626
O O5 0.895361 0.250000 0.750000
O O6 0.905022 0.341988 0.433634
O O7 0.877760 0.033631 0.514337
O O8 0.500000 0.500000 0.500000
O O9 0.587685 0.398524 0.247288
O O10 0.504769 0.604166 0.216077
O O11 0.921045 0.748322 0.578489
#
# Coordination Sequence:
#
# PCOD9412486 Si02
#       5
#     8   8   8   8   4
#     4  10  23  45  72  98 141 185 239 303 363 436
#     4  11  23  45  72 101 142 188 239 301 374 435
#     4  12  26  43  74 102 142 192 234 299 366 447
#     4  11  25  47  66 107 139 187 243 302 364 445
#     4  12  26  42  70  94 148 176 234 290 352 438
#
# _framework density 24.575312
#
# number of rings (size 3 to 8) (size 9 to 14) (size 15 to 20)
#    0.000    0.889    2.222    4.667    7.778    0.000 
#    4.000    0.000    0.000    0.000    0.000    0.000 
#    0.000    0.000    0.000    0.000    0.000    0.000 
#
# Total GULP energy -200890.563351 kJ/mol
# GULP energy per Si atom -5580.293426 kJ/mol
# Density = 2.451938 g / cm^3
# Si number density = 24.575312 Si / 1000 Ang^3
#
#
#
# Elastic Constant Matrix: (Units=GPa)
#
#
# Indices 1 2 3 4 5 6 
#
# 1 178.9999 35.3433 48.6980 0.0000 0.0000 0.0000
# 2 35.3433 53.9078 9.4882 0.0000 0.0000 0.0000
# 3 48.6980 9.4882 137.4495 0.0000 0.0000 0.0000
# 4 0.0000 0.0000 0.0000 28.6803 0.0000 0.0000
# 5 0.0000 0.0000 0.0000 0.0000 40.5918 0.0000
# 6 0.0000 0.0000 0.0000 0.0000 0.0000 51.8874
#
#
#
# Elastic Compliance Matrix: (Units=1/GPa)
#
#
# Indices 1 2 3 4 5 6 
#
# 1 0.007016 -0.004213 -0.002195 0.000000 0.000000 0.000000
# 2 -0.004213 0.021309 0.000022 0.000000 0.000000 0.000000
# 3 -0.002195 0.000022 0.008051 0.000000 0.000000 0.000000
# 4 0.000000 0.000000 0.000000 0.034867 0.000000 0.000000
# 5 0.000000 0.000000 0.000000 0.000000 0.024636 0.000000
# 6 0.000000 0.000000 0.000000 0.000000 0.000000 0.019273
#
#
# Mechanical properties :
#
#
# Convention : Reuss Voigt Hill
#
# Bulk Modulus (GPa) = 42.36698 61.93514 52.15106
# Shear Modulus (GPa) = 36.82123 42.68709 39.75416
#
# Velocity S-wave (km/s) = 3.87499 4.17224 4.02636
# Velocity P-wave (km/s) = 6.10719 6.96183 6.54847
#
# Compressibility (1/GPa) = 0.02360329
#
# Stress axis : x y z
#
# Youngs Moduli (GPa) = 142.53929 46.92916 124.20063
#
# Poissons Ratio (x) = 0.19773 0.27259
# Poissons Ratio (y) = 0.60056 -0.00271
# Poissons Ratio (z) = 0.31284 -0.00102
#
# Static dielectric constant tensor:
#      x y z
#    x 1.959560 0.000000 0.000000 
#    y 0.000000 2.239170 0.000000 
#    z 0.000000 0.000000 1.968910 
# 
# From -- ./inp_files/12899.got.cif
#   From: 2010.05.17/outbox.cif.g08.bks.cpg/sg52_7_cif.got.tgz:12899.got - 2010.06.03 12:15:38.
