data_PCOD9412751
_publ_section_title
;
Structure prediction by ZEFSAII (Michael W. Deem and Ramdas Pophale) SiO2 
 PCOD9412751
Probable space group: P N N A
;
_chemical_formula_sum "Si O2"
_cell_formula_units_Z 36
_cell_length_a 5.627276
_cell_length_b 11.524894
_cell_length_c 22.305881
_cell_angle_alpha 90.000000
_cell_angle_beta 90.000000
_cell_angle_gamma 90.000000
_cell_volume 1446.620240
_symmetry_space_group_name_H-M "P N N A"
_symmetry_group_IT_number 52
_symmetry_cell_setting 'orthorhombic'
loop_
_space_group_symop_operation_xyz
x,y,z
1/2-x,-y,z
x,1/2-y,1/2-z
1/2-x,1/2+y,1/2-z
-x,-y,-z
1/2+x,y,-z
-x,1/2+y,1/2+z
1/2+x,1/2-y,1/2+z
loop_
_atom_site_type_symbol
_atom_site_label
_atom_site_fract_x
_atom_site_fract_y
_atom_site_fract_z
Si Si1 0.071912 0.624811 0.743076
Si Si2 0.427368 0.799703 0.852417
Si Si3 0.219536 0.640770 0.530306
Si Si4 0.505993 0.470903 0.136218
Si Si5 0.250000 0.500000 0.350360
O O1 0.953124 0.750000 0.750000
O O2 0.324505 0.655037 0.711145
O O3 0.037843 0.553364 0.804310
O O4 0.942839 0.555663 0.692064
O O5 0.223200 0.809521 0.902383
O O6 0.498597 0.665796 0.848022
O O7 0.622602 0.889455 0.879187
O O8 0.250000 0.500000 0.532561
O O9 0.466541 0.676944 0.497960
O O10 0.750000 0.500000 0.101188
O O11 0.250000 0.500000 0.109022
#
# Coordination Sequence:
#
# PCOD9412751 Si02
#       5
#     8   8   8   8   4
#     4  12  25  41  63 101 145 197 239 288 350 440
#     4  12  28  43  73 105 149 193 246 306 372 439
#     4  10  24  46  75 106 141 182 245 313 378 431
#     4  12  26  48  69 103 149 203 245 294 359 440
#     4  12  26  38  62 100 146 182 244 284 372 424
#
# _framework density 24.885593
#
# number of rings (size 3 to 8) (size 9 to 14) (size 15 to 20)
#    0.000    0.444    3.333    4.667    7.778    0.000 
#    0.000    0.000    0.000    4.000    0.000    0.000 
#    0.000    0.000    0.000    0.000    0.000    0.000 
#
# Total GULP energy -201051.919934 kJ/mol
# GULP energy per Si atom -5584.775554 kJ/mol
# Density = 2.482895 g / cm^3
# Si number density = 24.885593 Si / 1000 Ang^3
#
#
#
# Elastic Constant Matrix: (Units=GPa)
#
#
# Indices 1 2 3 4 5 6 
#
# 1 155.0608 52.7882 14.1195 0.0000 0.0000 0.0000
# 2 52.7882 159.9159 5.1697 0.0000 0.0000 0.0000
# 3 14.1195 5.1697 58.3365 0.0000 0.0000 0.0000
# 4 0.0000 0.0000 0.0000 5.8757 0.0000 0.0000
# 5 0.0000 0.0000 0.0000 0.0000 11.7036 0.0000
# 6 0.0000 0.0000 0.0000 0.0000 0.0000 24.1105
#
#
#
# Elastic Compliance Matrix: (Units=1/GPa)
#
#
# Indices 1 2 3 4 5 6 
#
# 1 0.007408 -0.002394 -0.001581 0.000000 0.000000 0.000000
# 2 -0.002394 0.007045 -0.000045 0.000000 0.000000 0.000000
# 3 -0.001581 -0.000045 0.017529 0.000000 0.000000 0.000000
# 4 0.000000 0.000000 0.000000 0.170194 0.000000 0.000000
# 5 0.000000 0.000000 0.000000 0.000000 0.085444 0.000000
# 6 0.000000 0.000000 0.000000 0.000000 0.000000 0.041476
#
#
# Mechanical properties :
#
#
# Convention : Reuss Voigt Hill
#
# Bulk Modulus (GPa) = 41.76797 57.49644 49.63220
# Shear Modulus (GPa) = 14.48792 28.42035 21.45413
#
# Velocity S-wave (km/s) = 2.41546 3.38307 2.93936
# Velocity P-wave (km/s) = 4.95981 6.19796 5.61313
#
# Compressibility (1/GPa) = 0.02394179
#
# Stress axis : x y z
#
# Youngs Moduli (GPa) = 134.98659 141.94256 57.04989
#
# Poissons Ratio (x) = 0.33986 0.09019
# Poissons Ratio (y) = 0.32320 0.00256
# Poissons Ratio (z) = 0.21339 0.00636
#
# Static dielectric constant tensor:
#      x y z
#    x 2.128780 0.000000 0.000000 
#    y 0.000000 2.806720 0.000000 
#    z 0.000000 0.000000 1.957270 
# 
# From -- ./inp_files/38576.got.cif
#   From: 2010.05.17/outbox.cif.g08.bks.cpg/sg52_20_cif.got.tgz:38576.got - 2010.06.03 12:15:38.
