data_PCOD9412868
_publ_section_title
;
Structure prediction by ZEFSAII (Michael W. Deem and Ramdas Pophale) SiO2 
 PCOD9412868
Probable space group: P N N A
;
_chemical_formula_sum "Si O2"
_cell_formula_units_Z 40
_cell_length_a 15.186789
_cell_length_b 7.967947
_cell_length_c 13.402135
_cell_angle_alpha 90.000000
_cell_angle_beta 90.000000
_cell_angle_gamma 90.000000
_cell_volume 1621.759251
_symmetry_space_group_name_H-M "P N N A"
_symmetry_group_IT_number 52
_symmetry_cell_setting 'orthorhombic'
loop_
_space_group_symop_operation_xyz
x,y,z
1/2-x,-y,z
x,1/2-y,1/2-z
1/2-x,1/2+y,1/2-z
-x,-y,-z
1/2+x,y,-z
-x,1/2+y,1/2+z
1/2+x,1/2-y,1/2+z
loop_
_atom_site_type_symbol
_atom_site_label
_atom_site_fract_x
_atom_site_fract_y
_atom_site_fract_z
Si Si1 0.250000 0.000000 0.683076
Si Si2 0.334120 0.877519 0.340530
Si Si3 0.080964 0.887109 0.959445
Si Si4 0.848278 0.732712 0.443481
Si Si5 0.040790 0.825202 0.361290
Si Si6 0.606722 0.750000 0.250000
O O1 0.220431 0.161793 0.620111
O O2 0.334214 0.081743 0.736007
O O3 0.336675 0.750000 0.250000
O O4 0.331144 0.777851 0.443007
O O5 0.250000 0.000000 0.330487
O O6 0.421091 0.991055 0.347500
O O7 0.060671 0.788653 0.856753
O O8 0.150951 0.032446 0.936851
O O9 0.099987 0.765512 0.052903
O O10 0.000000 0.000000 0.000000
O O11 0.942589 0.804162 0.404350
O O12 0.044112 0.750000 0.250000
#
# Coordination Sequence:
#
# PCOD9412868 Si02
#       6
#     4   8   8   8   8   4
#     4  12  26  46  76 114 150 204 250 330 400 460
#     4  12  26  49  77 112 154 207 259 318 395 479
#     4  10  25  48  75 112 150 205 255 327 398 466
#     4  11  25  48  74 111 156 194 264 322 391 471
#     4  11  25  49  76 112 154 200 264 327 392 475
#     4  12  26  46  78 110 162 194 264 322 404 478
#
# _framework density 24.664573000000001
#
# number of rings (size 3 to 8) (size 9 to 14) (size 15 to 20)
#    0.000    0.800    1.000    4.800    7.000    1.600 
#    9.000    0.000    0.000    0.000    0.000    0.000 
#    0.000    0.000    0.000    0.000    0.000    0.000 
#
# Total GULP energy -223954.642945 kJ/mol
# GULP energy per Si atom -5598.866074 kJ/mol
# Density = 2.460844 g / cm^3
# Si number density = 24.664573 Si / 1000 Ang^3
#
#
#
# Elastic Constant Matrix: (Units=GPa)
#
#
# Indices 1 2 3 4 5 6 
#
# 1 79.9204 44.1004 54.4542 0.0000 0.0000 0.0000
# 2 44.1004 144.3238 101.0192 0.0000 0.0000 0.0000
# 3 54.4542 101.0192 240.0714 0.0000 0.0000 0.0000
# 4 0.0000 0.0000 0.0000 63.4673 0.0000 0.0000
# 5 0.0000 0.0000 0.0000 0.0000 19.4779 0.0000
# 6 0.0000 0.0000 0.0000 0.0000 0.0000 -168.5466
#
#
#
# Elastic Compliance Matrix: (Units=1/GPa)
#
#
# Indices 1 2 3 4 5 6 
#
# 1 0.015833 -0.003295 -0.002205 0.000000 0.000000 0.000000
# 2 -0.003295 0.010507 -0.003674 0.000000 0.000000 0.000000
# 3 -0.002205 -0.003674 0.006212 0.000000 0.000000 0.000000
# 4 0.000000 0.000000 0.000000 0.015756 0.000000 0.000000
# 5 0.000000 0.000000 0.000000 0.000000 0.051340 0.000000
# 6 0.000000 0.000000 0.000000 0.000000 0.000000 -0.005933
#
#
# Mechanical properties :
#
#
# Convention : Reuss Voigt Hill
#
# Bulk Modulus (GPa) = 70.40066 95.94034 83.17050
# Shear Modulus (GPa) = 42.80940 0.52918 21.66929
#
# Velocity S-wave (km/s) = 4.17065 0.46370 2.96727
# Velocity P-wave (km/s) = 7.19706 6.26651 6.74784
#
# Compressibility (1/GPa) = 0.01420441
#
# Stress axis : x y z
#
# Youngs Moduli (GPa) = 63.16013 95.17293 160.99079
#
# Poissons Ratio (x) = 0.31356 0.35497
# Poissons Ratio (y) = 0.20809 0.59148
# Poissons Ratio (z) = 0.13926 0.34967
#
# Static dielectric constant tensor:
#      x y z
#    x 2.043720 0.000000 0.000000 
#    y 0.000000 1.951310 0.000000 
#    z 0.000000 0.000000 1.990580 
# 
# From -- ./inp_files/20346.got.cif
#   From: 2010.05.17/outbox.cif.g08.bks.cpg/sg52_11_cif.got.tgz:20346.got - 2010.06.03 12:15:38.
