data_PCOD9412478
_publ_section_title
;
Structure prediction by ZEFSAII (Michael W. Deem and Ramdas Pophale) SiO2 
 PCOD9412478
Probable space group: P N N A
;
_chemical_formula_sum "Si O2"
_cell_formula_units_Z 36
_cell_length_a 19.594018
_cell_length_b 5.021661
_cell_length_c 16.368683
_cell_angle_alpha 90.000000
_cell_angle_beta 90.000000
_cell_angle_gamma 90.000000
_cell_volume 1610.588642
_symmetry_space_group_name_H-M "P N N A"
_symmetry_group_IT_number 52
_symmetry_cell_setting 'orthorhombic'
loop_
_space_group_symop_operation_xyz
x,y,z
1/2-x,-y,z
x,1/2-y,1/2-z
1/2-x,1/2+y,1/2-z
-x,-y,-z
1/2+x,y,-z
-x,1/2+y,1/2+z
1/2+x,1/2-y,1/2+z
loop_
_atom_site_type_symbol
_atom_site_label
_atom_site_fract_x
_atom_site_fract_y
_atom_site_fract_z
Si Si1 0.330339 0.996872 0.689968
Si Si2 0.016614 0.404642 0.334307
Si Si3 0.712330 0.750000 0.750000
Si Si4 0.101457 0.593466 0.126230
Si Si5 0.931217 0.374424 0.045712
O O1 0.342007 0.750000 0.750000
O O2 0.250000 0.000000 0.663152
O O3 0.339638 0.250000 0.750000
O O4 0.383715 0.985709 0.614314
O O5 0.997136 0.250000 0.250000
O O6 0.044580 0.703432 0.336335
O O7 0.959154 0.375036 0.403081
O O8 0.076731 0.209489 0.365647
O O9 0.750000 0.500000 0.711861
O O10 0.666688 0.621009 0.819188
O O11 0.113216 0.679931 0.033677
O O12 0.000000 0.500000 0.000000
#
# Coordination Sequence:
#
# PCOD9412478 Si02
#       5
#     8   8   4   8   8
#     4  10  23  45  70  96 136 183 226 274 341 420
#     4  11  20  38  63  89 128 168 202 269 335 392
#     4  12  24  42  66  86 120 180 230 260 322 404
#     4  11  23  41  59  91 129 163 216 275 325 383
#     4  10  24  39  66 102 133 169 222 282 341 395
#
# _framework density 22.352076
#
# number of rings (size 3 to 8) (size 9 to 14) (size 15 to 20)
#    0.000    1.333    2.222    2.667    0.000   11.556 
#    0.000    3.333    0.000    0.000    0.000    0.000 
#    0.000    0.000    0.000    0.000    0.000    0.000 
#
# Total GULP energy -200734.344765 kJ/mol
# GULP energy per Si atom -5575.954021 kJ/mol
# Density = 2.230120 g / cm^3
# Si number density = 22.352076 Si / 1000 Ang^3
#
#
#
# Elastic Constant Matrix: (Units=GPa)
#
#
# Indices 1 2 3 4 5 6 
#
# 1 81.9471 20.0879 31.7238 0.0000 0.0000 0.0000
# 2 20.0879 90.4150 11.7507 0.0000 0.0000 0.0000
# 3 31.7238 11.7507 151.2748 0.0000 0.0000 0.0000
# 4 0.0000 0.0000 0.0000 21.2780 0.0000 0.0000
# 5 0.0000 0.0000 0.0000 0.0000 -27.3445 0.0000
# 6 0.0000 0.0000 0.0000 0.0000 0.0000 -28.4567
#
#
#
# Elastic Compliance Matrix: (Units=1/GPa)
#
#
# Indices 1 2 3 4 5 6 
#
# 1 0.013923 -0.002742 -0.002707 0.000000 0.000000 0.000000
# 2 -0.002742 0.011713 -0.000335 0.000000 0.000000 0.000000
# 3 -0.002707 -0.000335 0.007204 0.000000 0.000000 0.000000
# 4 0.000000 0.000000 0.000000 0.046997 0.000000 0.000000
# 5 0.000000 0.000000 0.000000 0.000000 -0.036570 0.000000
# 6 0.000000 0.000000 0.000000 0.000000 0.000000 -0.035141
#
#
# Mechanical properties :
#
#
# Convention : Reuss Voigt Hill
#
# Bulk Modulus (GPa) = 47.00726 50.08464 48.54595
# Shear Modulus (GPa) = 186.68677 10.43365 98.56021
#
# Velocity S-wave (km/s) = 9.14890 2.16287 6.64757
# Velocity P-wave (km/s) = 11.51864 5.35660 8.98255
#
# Compressibility (1/GPa) = 0.02127331
#
# Stress axis : x y z
#
# Youngs Moduli (GPa) = 71.82403 85.37718 138.80893
#
# Poissons Ratio (x) = 0.23406 0.37573
# Poissons Ratio (y) = 0.19691 0.04649
# Poissons Ratio (z) = 0.19441 0.02859
#
# Static dielectric constant tensor:
#      x y z
#    x 1.922840 0.000000 0.000000 
#    y 0.000000 2.072880 0.000000 
#    z 0.000000 0.000000 1.859000 
# 
# From -- ./inp_files/28481.got.cif
#   From: 2010.05.17/outbox.cif.g08.bks.cpg/sg52_15_cif.got.tgz:28481.got - 2010.06.03 12:15:38.
