data_PCOD9412029
_publ_section_title
;
Structure prediction by ZEFSAII (Michael W. Deem and Ramdas Pophale) SiO2 
 PCOD9412029
Probable space group: P N N A
;
_chemical_formula_sum "Si O2"
_cell_formula_units_Z 36
_cell_length_a 22.781155
_cell_length_b 5.673626
_cell_length_c 13.708863
_cell_angle_alpha 90.000000
_cell_angle_beta 90.000000
_cell_angle_gamma 90.000000
_cell_volume 1771.894579
_symmetry_space_group_name_H-M "P N N A"
_symmetry_group_IT_number 52
_symmetry_cell_setting 'orthorhombic'
loop_
_space_group_symop_operation_xyz
x,y,z
1/2-x,-y,z
x,1/2-y,1/2-z
1/2-x,1/2+y,1/2-z
-x,-y,-z
1/2+x,y,-z
-x,1/2+y,1/2+z
1/2+x,1/2-y,1/2+z
loop_
_atom_site_type_symbol
_atom_site_label
_atom_site_fract_x
_atom_site_fract_y
_atom_site_fract_z
Si Si1 0.979978 0.689800 0.419891
Si Si2 0.320105 0.501139 0.197470
Si Si3 0.250000 0.000000 0.807171
Si Si4 0.878972 0.095664 0.151504
Si Si5 0.091627 0.915170 0.466080
O O1 0.935569 0.574905 0.343410
O O2 0.000000 0.500000 0.500000
O O3 0.041992 0.807966 0.393094
O O4 0.940941 0.876776 0.477823
O O5 0.250000 0.500000 0.185500
O O6 0.335800 0.750000 0.250000
O O7 0.353429 0.497907 0.095382
O O8 0.334742 0.250000 0.250000
O O9 0.247161 0.750000 0.750000
O O10 0.186115 0.015090 0.858173
O O11 0.879671 0.250000 0.250000
O O12 0.888894 0.240415 0.052113
#
# Coordination Sequence:
#
# PCOD9412029 Si02
#       5
#     8   8   4   8   8
#     4   9  21  41  61  94 136 165 226 269 322 410
#     4  10  24  46  69  99 130 167 226 281 332 394
#     4  10  24  42  62  96 138 172 226 270 318 400
#     4  10  23  41  65  96 133 175 218 272 330 403
#     4  10  22  43  65  95 131 175 217 275 338 398
#
# _framework density 20.317236000000001
#
# number of rings (size 3 to 8) (size 9 to 14) (size 15 to 20)
#    0.000    2.222    0.000    0.000   12.444    1.778 
#   16.000    0.000    0.000    0.000    0.000    0.000 
#    0.000    0.000    0.000    0.000    0.000    0.000 
#
# Total GULP energy -200530.319959 kJ/mol
# GULP energy per Si atom -5570.286666 kJ/mol
# Density = 2.027099 g / cm^3
# Si number density = 20.317236 Si / 1000 Ang^3
#
#
#
# Elastic Constant Matrix: (Units=GPa)
#
#
# Indices 1 2 3 4 5 6 
#
# 1 99.1498 44.8223 54.0724 0.0000 0.0000 0.0000
# 2 44.8223 100.0307 29.1413 0.0000 0.0000 0.0000
# 3 54.0724 29.1413 72.9108 0.0000 0.0000 0.0000
# 4 0.0000 0.0000 0.0000 20.3361 0.0000 0.0000
# 5 0.0000 0.0000 0.0000 0.0000 32.4064 0.0000
# 6 0.0000 0.0000 0.0000 0.0000 0.0000 27.8501
#
#
#
# Elastic Compliance Matrix: (Units=1/GPa)
#
#
# Indices 1 2 3 4 5 6 
#
# 1 0.018885 -0.004959 -0.012023 0.000000 0.000000 0.000000
# 2 -0.004959 0.012617 -0.001365 0.000000 0.000000 0.000000
# 3 -0.012023 -0.001365 0.023178 0.000000 0.000000 0.000000
# 4 0.000000 0.000000 0.000000 0.049174 0.000000 0.000000
# 5 0.000000 0.000000 0.000000 0.000000 0.030858 0.000000
# 6 0.000000 0.000000 0.000000 0.000000 0.000000 0.035906
#
#
# Mechanical properties :
#
#
# Convention : Reuss Voigt Hill
#
# Bulk Modulus (GPa) = 55.60361 58.68481 57.14421
# Shear Modulus (GPa) = 23.44048 25.72223 24.58135
#
# Velocity S-wave (km/s) = 3.40034 3.56199 3.48210
# Velocity P-wave (km/s) = 6.54549 6.77230 6.65986
#
# Compressibility (1/GPa) = 0.01798445
#
# Stress axis : x y z
#
# Youngs Moduli (GPa) = 52.95312 79.26000 43.14523
#
# Poissons Ratio (x) = 0.39307 0.51874
# Poissons Ratio (y) = 0.26261 0.05888
# Poissons Ratio (z) = 0.63666 0.10817
#
# Static dielectric constant tensor:
#      x y z
#    x 1.961310 0.000000 0.000000 
#    y 0.000000 1.483930 0.000000 
#    z 0.000000 0.000000 1.680750 
# 
# From -- ./inp_files/22043.got.cif
#   From: 2010.05.17/outbox.cif.g08.bks.cpg/sg52_12_cif.got.tgz:22043.got - 2010.06.03 12:15:38.
