data_PCOD9412499
_publ_section_title
;
Structure prediction by ZEFSAII (Michael W. Deem and Ramdas Pophale) SiO2 
 PCOD9412499
Probable space group: P N N A
;
_chemical_formula_sum "Si O2"
_cell_formula_units_Z 40
_cell_length_a 10.710389
_cell_length_b 16.715047
_cell_length_c 9.573225
_cell_angle_alpha 90.000000
_cell_angle_beta 90.000000
_cell_angle_gamma 90.000000
_cell_volume 1713.843308
_symmetry_space_group_name_H-M "P N N A"
_symmetry_group_IT_number 52
_symmetry_cell_setting 'orthorhombic'
loop_
_space_group_symop_operation_xyz
x,y,z
1/2-x,-y,z
x,1/2-y,1/2-z
1/2-x,1/2+y,1/2-z
-x,-y,-z
1/2+x,y,-z
-x,1/2+y,1/2+z
1/2+x,1/2-y,1/2+z
loop_
_atom_site_type_symbol
_atom_site_label
_atom_site_fract_x
_atom_site_fract_y
_atom_site_fract_z
Si Si1 0.453183 0.919295 0.252735
Si Si2 0.632058 0.057362 0.187473
Si Si3 0.302836 0.159497 0.229943
Si Si4 0.473150 0.638213 0.943398
Si Si5 0.992390 0.679326 0.503900
O O1 0.306654 0.904316 0.234104
O O2 0.483126 0.912101 0.415821
O O3 0.510301 0.000116 0.192330
O O4 0.514108 0.848243 0.161288
O O5 0.629115 0.103975 0.335581
O O6 0.611009 0.121137 0.065464
O O7 0.750000 0.000000 0.171676
O O8 0.251421 0.250000 0.250000
O O9 0.399065 0.141543 0.355158
O O10 0.385645 0.164416 0.090511
O O11 0.449070 0.729867 0.986340
#
# Coordination Sequence:
#
# PCOD9412499 Si02
#       5
#     8   8   8   8   8
#     4  12  24  42  72 104 132 176 237 284 344 405
#     4  11  26  45  67 104 145 185 227 283 353 410
#     4   9  21  42  67  96 133 176 224 282 346 402
#     4  10  23  46  70  98 137 184 231 284 346 414
#     4  10  23  46  70  98 137 184 231 284 346 414
#
# _framework density 23.339355999999999
#
# number of rings (size 3 to 8) (size 9 to 14) (size 15 to 20)
#    0.000    1.600    0.000    4.800    5.600    3.200 
#    0.000    4.000    0.000    0.000    0.000    0.000 
#    0.000    0.000    0.000    0.000    0.000    0.000 
#
# Total GULP energy -223943.966217 kJ/mol
# GULP energy per Si atom -5598.599155 kJ/mol
# Density = 2.328623 g / cm^3
# Si number density = 23.339356 Si / 1000 Ang^3
#
#
#
# Elastic Constant Matrix: (Units=GPa)
#
#
# Indices 1 2 3 4 5 6 
#
# 1 67.1542 24.4838 8.6717 0.0000 0.0000 0.0000
# 2 24.4838 95.5544 -15.8898 0.0000 0.0000 0.0000
# 3 8.6717 -15.8898 94.9755 0.0000 0.0000 0.0000
# 4 0.0000 0.0000 0.0000 33.0925 0.0000 0.0000
# 5 0.0000 0.0000 0.0000 0.0000 19.2389 0.0000
# 6 0.0000 0.0000 0.0000 0.0000 0.0000 21.1765
#
#
#
# Elastic Compliance Matrix: (Units=1/GPa)
#
#
# Indices 1 2 3 4 5 6 
#
# 1 0.016914 -0.004722 -0.002334 0.000000 0.000000 0.000000
# 2 -0.004722 0.012083 0.002453 0.000000 0.000000 0.000000
# 3 -0.002334 0.002453 0.011153 0.000000 0.000000 0.000000
# 4 0.000000 0.000000 0.000000 0.030218 0.000000 0.000000
# 5 0.000000 0.000000 0.000000 0.000000 0.051978 0.000000
# 6 0.000000 0.000000 0.000000 0.000000 0.000000 0.047222
#
#
# Mechanical properties :
#
#
# Convention : Reuss Voigt Hill
#
# Bulk Modulus (GPa) = 32.31832 32.46839 32.39336
# Shear Modulus (GPa) = 26.44246 30.72947 28.58597
#
# Velocity S-wave (km/s) = 3.36959 3.63249 3.50351
# Velocity P-wave (km/s) = 5.38666 5.61560 5.50232
#
# Compressibility (1/GPa) = 0.03094220
#
# Stress axis : x y z
#
# Youngs Moduli (GPa) = 59.12208 82.76072 89.66588
#
# Poissons Ratio (x) = 0.39080 0.20931
# Poissons Ratio (y) = 0.27918 -0.21992
# Poissons Ratio (z) = 0.13801 -0.20299
#
# Static dielectric constant tensor:
#      x y z
#    x 1.885490 0.000000 0.000000 
#    y 0.000000 1.894680 0.000000 
#    z 0.000000 0.000000 1.857610 
# 
# From -- ./inp_files/8541.got.cif
#   From: 2010.05.17/outbox.cif.g08.bks.cpg/sg52_5_cif.got.tgz:8541.got - 2010.06.03 12:15:38.
