data_PCOD9412591
_publ_section_title
;
Structure prediction by ZEFSAII (Michael W. Deem and Ramdas Pophale) SiO2 
 PCOD9412591
Probable space group: P N N A
;
_chemical_formula_sum "Si O2"
_cell_formula_units_Z 28
_cell_length_a 10.911262
_cell_length_b 4.906638
_cell_length_c 23.577464
_cell_angle_alpha 90.000000
_cell_angle_beta 90.000000
_cell_angle_gamma 90.000000
_cell_volume 1262.281137
_symmetry_space_group_name_H-M "P N N A"
_symmetry_group_IT_number 52
_symmetry_cell_setting 'orthorhombic'
loop_
_space_group_symop_operation_xyz
x,y,z
1/2-x,-y,z
x,1/2-y,1/2-z
1/2-x,1/2+y,1/2-z
-x,-y,-z
1/2+x,y,-z
-x,1/2+y,1/2+z
1/2+x,1/2-y,1/2+z
loop_
_atom_site_type_symbol
_atom_site_label
_atom_site_fract_x
_atom_site_fract_y
_atom_site_fract_z
Si Si1 0.750000 0.000000 0.020042
Si Si2 0.618348 0.417462 0.368439
Si Si3 0.827834 0.250000 0.750000
Si Si4 0.750000 0.000000 0.562266
Si Si5 0.965100 0.580195 0.847716
O O1 0.773294 0.250253 0.979247
O O2 0.637490 0.033323 0.064233
O O3 0.750000 0.500000 0.342923
O O4 0.513818 0.612862 0.343239
O O5 0.583019 0.105389 0.361176
O O6 0.750000 0.500000 0.721144
O O7 0.904031 0.430709 0.794213
O O8 0.634265 0.059324 0.602420
#
# Coordination Sequence:
#
# PCOD9412591 Si02
#       5
#     4   8   4   4   8
#     4  10  24  42  63 102 141 176 228 262 340 392
#     4  10  24  45  65  97 140 182 218 277 322 405
#     4  12  26  46  70 104 134 172 222 294 352 402
#     4  12  24  38  67 108 129 184 220 274 344 400
#     4  12  24  43  71  97 139 171 229 278 342 394
#
# _framework density 22.182062999999999
#
# number of rings (size 3 to 8) (size 9 to 14) (size 15 to 20)
#    0.857    0.000    1.429    6.000    2.000    6.857 
#    0.000    2.857    0.000    0.000    0.000    0.000 
#    0.000    0.000    0.000    0.000    0.000    0.000 
#
# Total GULP energy -156456.489410 kJ/mol
# GULP energy per Si atom -5587.731765 kJ/mol
# Density = 2.213158 g / cm^3
# Si number density = 22.182063 Si / 1000 Ang^3
#
#
#
# Elastic Constant Matrix: (Units=GPa)
#
#
# Indices 1 2 3 4 5 6 
#
# 1 66.1250 -18.7058 -2.6095 0.0000 0.0000 0.0000
# 2 -18.7058 61.0010 -13.4785 0.0000 0.0000 0.0000
# 3 -2.6095 -13.4785 74.3671 0.0000 0.0000 0.0000
# 4 0.0000 0.0000 0.0000 49.7908 0.0000 0.0000
# 5 0.0000 0.0000 0.0000 0.0000 29.2659 0.0000
# 6 0.0000 0.0000 0.0000 0.0000 0.0000 43.7394
#
#
#
# Elastic Compliance Matrix: (Units=1/GPa)
#
#
# Indices 1 2 3 4 5 6 
#
# 1 0.016736 0.005481 0.001581 0.000000 0.000000 0.000000
# 2 0.005481 0.018872 0.003613 0.000000 0.000000 0.000000
# 3 0.001581 0.003613 0.014157 0.000000 0.000000 0.000000
# 4 0.000000 0.000000 0.000000 0.020084 0.000000 0.000000
# 5 0.000000 0.000000 0.000000 0.000000 0.034169 0.000000
# 6 0.000000 0.000000 0.000000 0.000000 0.000000 0.022863
#
#
# Mechanical properties :
#
#
# Convention : Reuss Voigt Hill
#
# Bulk Modulus (GPa) = 14.06181 14.65617 14.35899
# Shear Modulus (GPa) = 38.68870 40.31168 39.50019
#
# Velocity S-wave (km/s) = 4.18083 4.26762 4.22444
# Velocity P-wave (km/s) = 5.44599 5.55922 5.50290
#
# Compressibility (1/GPa) = 0.07111461
#
# Stress axis : x y z
#
# Youngs Moduli (GPa) = 59.75211 52.98783 70.63613
#
# Poissons Ratio (x) = -0.29044 -0.11165
# Poissons Ratio (y) = -0.32752 -0.25519
# Poissons Ratio (z) = -0.09445 -0.19143
#
# Static dielectric constant tensor:
#      x y z
#    x 1.867380 0.000000 0.000000 
#    y 0.000000 1.740790 0.000000 
#    z 0.000000 0.000000 1.790800 
# 
# From -- ./inp_files/41982.got.cif
#   From: 2010.05.17/outbox.cif.g08.bks.cpg/sg52_21_cif.got.tgz:41982.got - 2010.06.03 12:15:38.
