data_PCOD9412730
_publ_section_title
;
Structure prediction by ZEFSAII (Michael W. Deem and Ramdas Pophale) SiO2 
 PCOD9412730
Probable space group: P N N A
;
_chemical_formula_sum "Si O2"
_cell_formula_units_Z 32
_cell_length_a 27.212382
_cell_length_b 5.023282
_cell_length_c 9.750305
_cell_angle_alpha 90.000000
_cell_angle_beta 90.000000
_cell_angle_gamma 90.000000
_cell_volume 1332.822512
_symmetry_space_group_name_H-M "P N N A"
_symmetry_group_IT_number 52
_symmetry_cell_setting 'orthorhombic'
loop_
_space_group_symop_operation_xyz
x,y,z
1/2-x,-y,z
x,1/2-y,1/2-z
1/2-x,1/2+y,1/2-z
-x,-y,-z
1/2+x,y,-z
-x,1/2+y,1/2+z
1/2+x,1/2-y,1/2+z
loop_
_atom_site_type_symbol
_atom_site_label
_atom_site_fract_x
_atom_site_fract_y
_atom_site_fract_z
Si Si1 0.472201 0.663738 0.383409
Si Si2 0.089613 0.170488 0.606173
Si Si3 0.849610 0.196823 0.033045
Si Si4 0.250000 0.500000 0.657507
Si Si5 0.104704 0.750000 0.250000
O O1 0.503329 0.750000 0.250000
O O2 0.500000 0.500000 0.500000
O O3 0.447017 0.888678 0.479882
O O4 0.431191 0.482634 0.306114
O O5 0.065516 0.250000 0.750000
O O6 0.119122 0.430651 0.557878
O O7 0.127592 0.931757 0.624635
O O8 0.794263 0.121891 0.069051
O O9 0.859742 0.301712 0.879199
O O10 0.232284 0.250000 0.750000
#
# Coordination Sequence:
#
# PCOD9412730 Si02
#       5
#     8   8   8   4   4
#     4  11  25  44  70 104 147 195 254 317 367 449
#     4  11  23  42  69 100 140 197 239 294 376 434
#     4  11  23  43  71  98 149 186 241 296 373 443
#     4  12  24  42  70 114 144 180 246 312 366 448
#     4  10  24  46  68 100 144 200 240 300 386 440
#
# _framework density 24.009201000000001
#
# number of rings (size 3 to 8) (size 9 to 14) (size 15 to 20)
#    0.000    1.000    2.500    4.500    1.750    5.000 
#    0.000    3.750    0.000    0.000    0.000    0.000 
#    0.000    0.000    0.000    0.000    0.000    0.000 
#
# Total GULP energy -178971.611718 kJ/mol
# GULP energy per Si atom -5592.862866 kJ/mol
# Density = 2.395455 g / cm^3
# Si number density = 24.009201 Si / 1000 Ang^3
#
#
#
# Elastic Constant Matrix: (Units=GPa)
#
#
# Indices 1 2 3 4 5 6 
#
# 1 104.6836 38.0678 68.2943 0.0000 0.0000 0.0000
# 2 38.0678 123.5025 36.2874 0.0000 0.0000 0.0000
# 3 68.2943 36.2874 227.4186 0.0000 0.0000 0.0000
# 4 0.0000 0.0000 0.0000 36.8467 0.0000 0.0000
# 5 0.0000 0.0000 0.0000 0.0000 33.2175 0.0000
# 6 0.0000 0.0000 0.0000 0.0000 0.0000 53.8429
#
#
#
# Elastic Compliance Matrix: (Units=1/GPa)
#
#
# Indices 1 2 3 4 5 6 
#
# 1 0.012836 -0.002963 -0.003382 0.000000 0.000000 0.000000
# 2 -0.002963 0.009179 -0.000575 0.000000 0.000000 0.000000
# 3 -0.003382 -0.000575 0.005505 0.000000 0.000000 0.000000
# 4 0.000000 0.000000 0.000000 0.027139 0.000000 0.000000
# 5 0.000000 0.000000 0.000000 0.000000 0.030105 0.000000
# 6 0.000000 0.000000 0.000000 0.000000 0.000000 0.018573
#
#
# Mechanical properties :
#
#
# Convention : Reuss Voigt Hill
#
# Bulk Modulus (GPa) = 73.09685 82.32263 77.70974
# Shear Modulus (GPa) = 41.07226 45.64512 43.35869
#
# Velocity S-wave (km/s) = 4.14053 4.36495 4.25422
# Velocity P-wave (km/s) = 7.30549 7.73085 7.52118
#
# Compressibility (1/GPa) = 0.01368048
#
# Stress axis : x y z
#
# Youngs Moduli (GPa) = 77.90307 108.94203 181.66826
#
# Poissons Ratio (x) = 0.32279 0.61441
# Poissons Ratio (y) = 0.23082 0.10444
# Poissons Ratio (z) = 0.26347 0.06263
#
# Static dielectric constant tensor:
#      x y z
#    x 1.971500 0.000000 0.000000 
#    y 0.000000 2.029840 0.000000 
#    z 0.000000 0.000000 2.006040 
# 
# From -- ./inp_files/15309.got.cif
#   From: 2010.05.17/outbox.cif.g08.bks.cpg/sg52_8_cif.got.tgz:15309.got - 2010.06.03 12:15:38.
