data_PCOD9412179
_publ_section_title
;
Structure prediction by ZEFSAII (Michael W. Deem and Ramdas Pophale) SiO2 
 PCOD9412179
Probable space group: P N N A
;
_chemical_formula_sum "Si O2"
_cell_formula_units_Z 40
_cell_length_a 12.884720
_cell_length_b 23.585437
_cell_length_c 6.078196
_cell_angle_alpha 90.000000
_cell_angle_beta 90.000000
_cell_angle_gamma 90.000000
_cell_volume 1847.113630
_symmetry_space_group_name_H-M "P N N A"
_symmetry_group_IT_number 52
_symmetry_cell_setting 'orthorhombic'
loop_
_space_group_symop_operation_xyz
x,y,z
1/2-x,-y,z
x,1/2-y,1/2-z
1/2-x,1/2+y,1/2-z
-x,-y,-z
1/2+x,y,-z
-x,1/2+y,1/2+z
1/2+x,1/2-y,1/2+z
loop_
_atom_site_type_symbol
_atom_site_label
_atom_site_fract_x
_atom_site_fract_y
_atom_site_fract_z
Si Si1 0.575684 0.958727 0.868506
Si Si2 0.696313 0.602648 0.249077
Si Si3 0.161677 0.750000 0.250000
Si Si4 0.750000 0.500000 0.949945
Si Si5 0.472530 0.146013 0.406457
Si Si6 0.175350 0.297978 0.897674
O O1 0.512806 0.909670 0.742452
O O2 0.647692 0.993288 0.698969
O O3 0.654442 0.926113 0.031781
O O4 0.500000 0.000000 0.000000
O O5 0.770187 0.656625 0.262772
O O6 0.752660 0.554981 0.103411
O O7 0.600755 0.625702 0.103897
O O8 0.087766 0.805971 0.260113
O O9 0.240409 0.767321 0.447765
O O10 0.579083 0.169962 0.506477
O O11 0.125980 0.250000 0.750000
#
# Coordination Sequence:
#
# PCOD9412179 Si02
#       6
#     8   8   4   4   8   8
#     4  11  25  41  67  95 131 174 222 271 329 403
#     4  10  24  42  64  94 135 170 221 273 326 394
#     4  10  22  46  60  98 132 164 222 272 324 402
#     4  10  24  42  64  94 132 172 220 266 328 392
#     4  10  23  42  63  99 131 170 220 272 330 400
#     4  11  23  41  71  92 129 174 212 271 334 386
#
# _framework density 21.65541
#
# number of rings (size 3 to 8) (size 9 to 14) (size 15 to 20)
#    0.000    1.600    1.000    1.800    8.400    3.200 
#    7.200    0.000    0.000    0.000    0.000    0.000 
#    0.000    0.000    0.000    0.000    0.000    0.000 
#
# Total GULP energy -223303.374634 kJ/mol
# GULP energy per Si atom -5582.584366 kJ/mol
# Density = 2.160612 g / cm^3
# Si number density = 21.655410 Si / 1000 Ang^3
#
#
#
# Elastic Constant Matrix: (Units=GPa)
#
#
# Indices 1 2 3 4 5 6 
#
# 1 70.1144 31.6312 2.9633 0.0000 0.0000 0.0000
# 2 31.6312 72.8853 1.5328 0.0000 0.0000 0.0000
# 3 2.9633 1.5328 25.3356 0.0000 0.0000 0.0000
# 4 0.0000 0.0000 0.0000 25.7544 0.0000 0.0000
# 5 0.0000 0.0000 0.0000 0.0000 -2.5502 0.0000
# 6 0.0000 0.0000 0.0000 0.0000 0.0000 18.8090
#
#
#
# Elastic Compliance Matrix: (Units=1/GPa)
#
#
# Indices 1 2 3 4 5 6 
#
# 1 0.017801 -0.007691 -0.001617 0.000000 0.000000 0.000000
# 2 -0.007691 0.017061 -0.000133 0.000000 0.000000 0.000000
# 3 -0.001617 -0.000133 0.039667 0.000000 0.000000 0.000000
# 4 0.000000 0.000000 0.000000 0.038828 0.000000 0.000000
# 5 0.000000 0.000000 0.000000 0.000000 -0.392131 0.000000
# 6 0.000000 0.000000 0.000000 0.000000 0.000000 0.053166
#
#
# Mechanical properties :
#
#
# Convention : Reuss Voigt Hill
#
# Bulk Modulus (GPa) = 17.97019 26.73222 22.35120
# Shear Modulus (GPa) = -26.57057 17.21652 -4.67702
#
# Velocity S-wave (km/s) = -3.50662 2.82267 -1.47120
# Velocity P-wave (km/s) = 2.84234 4.79525 2.73090
#
# Compressibility (1/GPa) = 0.05564771
#
# Stress axis : x y z
#
# Youngs Moduli (GPa) = 56.17819 58.61377 25.20970
#
# Poissons Ratio (x) = 0.45081 0.04076
# Poissons Ratio (y) = 0.43208 0.00334
# Poissons Ratio (z) = 0.09082 0.00777
#
# Static dielectric constant tensor:
#      x y z
#    x 1.778710 0.000000 0.000000 
#    y 0.000000 1.799650 0.000000 
#    z 0.000000 0.000000 1.759140 
# 
# From -- ./inp_files/1401.got.cif
#   From: 2010.05.17/outbox.cif.g08.bks.cpg/sg52_1_cif.got.tgz:1401.got - 2010.06.03 12:15:38.
