data_PCOD9412341
_publ_section_title
;
Structure prediction by ZEFSAII (Michael W. Deem and Ramdas Pophale) SiO2 
 PCOD9412341
Probable space group: P N N A
;
_chemical_formula_sum "Si O2"
_cell_formula_units_Z 44
_cell_length_a 10.901332
_cell_length_b 11.598243
_cell_length_c 16.342959
_cell_angle_alpha 90.000000
_cell_angle_beta 90.000000
_cell_angle_gamma 90.000000
_cell_volume 2066.343227
_symmetry_space_group_name_H-M "P N N A"
_symmetry_group_IT_number 52
_symmetry_cell_setting 'orthorhombic'
loop_
_space_group_symop_operation_xyz
x,y,z
1/2-x,-y,z
x,1/2-y,1/2-z
1/2-x,1/2+y,1/2-z
-x,-y,-z
1/2+x,y,-z
-x,1/2+y,1/2+z
1/2+x,1/2-y,1/2+z
loop_
_atom_site_type_symbol
_atom_site_label
_atom_site_fract_x
_atom_site_fract_y
_atom_site_fract_z
Si Si1 0.734524 0.637310 0.865136
Si Si2 0.971820 0.250000 0.750000
Si Si3 0.341404 0.902824 0.850395
Si Si4 0.677009 0.715557 0.482131
Si Si5 0.250000 0.500000 0.409880
Si Si6 0.059379 0.250000 0.250000
Si Si7 0.499949 0.601814 0.381060
O O1 0.750000 0.500000 0.860360
O O2 0.617537 0.685604 0.814190
O O3 0.852286 0.695047 0.819719
O O4 0.712688 0.679398 0.958956
O O5 0.062485 0.159154 0.792551
O O6 0.266278 0.811065 0.904854
O O7 0.250000 0.000000 0.813146
O O8 0.423864 0.988779 0.905708
O O9 0.697716 0.605205 0.539141
O O10 0.539023 0.699573 0.446546
O O11 0.362892 0.558121 0.365298
O O12 0.972596 0.342832 0.293369
#
# Coordination Sequence:
#
# PCOD9412341 Si02
#       7
#     8   4   8   8   4   4   8
#     4  11  25  43  64 100 136 182 223 273 343 409
#     4  11  24  43  70  96 142 179 227 286 350 404
#     4  10  23  42  66  99 130 174 226 280 343 398
#     4  11  23  41  66  97 131 169 229 280 329 401
#     4  12  20  36  68  96 126 160 230 278 338 372
#     4  11  24  39  64  96 132 169 225 276 330 400
#     4  11  23  39  66  99 130 170 222 291 330 396
#
# _framework density 21.293654
#
# number of rings (size 3 to 8) (size 9 to 14) (size 15 to 20)
#    0.000    1.091    4.545    2.727    6.364    2.909 
#    0.000    6.364    0.000    0.000    0.000    0.000 
#    0.000    0.000    0.000    0.000    0.000    0.000 
#
# Total GULP energy -245213.263679 kJ/mol
# GULP energy per Si atom -5573.028720 kJ/mol
# Density = 2.124519 g / cm^3
# Si number density = 21.293654 Si / 1000 Ang^3
#
#
#
# Elastic Constant Matrix: (Units=GPa)
#
#
# Indices 1 2 3 4 5 6 
#
# 1 95.3601 51.9719 43.8504 0.0000 0.0000 0.0000
# 2 51.9719 101.5748 27.4416 0.0000 0.0000 0.0000
# 3 43.8504 27.4416 54.8110 0.0000 0.0000 0.0000
# 4 0.0000 0.0000 0.0000 33.4959 0.0000 0.0000
# 5 0.0000 0.0000 0.0000 0.0000 32.6894 0.0000
# 6 0.0000 0.0000 0.0000 0.0000 0.0000 33.5454
#
#
#
# Elastic Compliance Matrix: (Units=1/GPa)
#
#
# Indices 1 2 3 4 5 6 
#
# 1 0.019992 -0.006832 -0.012574 0.000000 0.000000 0.000000
# 2 -0.006832 0.013720 -0.001403 0.000000 0.000000 0.000000
# 3 -0.012574 -0.001403 0.029006 0.000000 0.000000 0.000000
# 4 0.000000 0.000000 0.000000 0.029854 0.000000 0.000000
# 5 0.000000 0.000000 0.000000 0.000000 0.030591 0.000000
# 6 0.000000 0.000000 0.000000 0.000000 0.000000 0.029810
#
#
# Mechanical properties :
#
#
# Convention : Reuss Voigt Hill
#
# Bulk Modulus (GPa) = 47.39241 55.36373 51.37807
# Shear Modulus (GPa) = 24.79857 28.51162 26.65510
#
# Velocity S-wave (km/s) = 3.41632 3.66317 3.54190
# Velocity P-wave (km/s) = 6.15358 6.62935 6.39589
#
# Compressibility (1/GPa) = 0.02110042
#
# Stress axis : x y z
#
# Youngs Moduli (GPa) = 50.01993 72.88742 34.47552
#
# Poissons Ratio (x) = 0.49799 0.43348
# Poissons Ratio (y) = 0.34175 0.04837
# Poissons Ratio (z) = 0.62893 0.10225
#
# Static dielectric constant tensor:
#      x y z
#    x 1.930350 0.000000 0.000000 
#    y 0.000000 2.076340 0.000000 
#    z 0.000000 0.000000 1.811920 
# 
# From -- ./inp_files/32178.got.cif
#   From: 2010.05.17/outbox.cif.g08.bks.cpg/sg52_17_cif.got.tgz:32178.got - 2010.06.03 12:15:38.
