data_PCOD9412703
_publ_section_title
;
Structure prediction by ZEFSAII (Michael W. Deem and Ramdas Pophale) SiO2 
 PCOD9412703
Probable space group: P N N A
;
_chemical_formula_sum "Si O2"
_cell_formula_units_Z 36
_cell_length_a 5.771058
_cell_length_b 12.643959
_cell_length_c 20.263923
_cell_angle_alpha 90.000000
_cell_angle_beta 90.000000
_cell_angle_gamma 90.000000
_cell_volume 1478.638618
_symmetry_space_group_name_H-M "P N N A"
_symmetry_group_IT_number 52
_symmetry_cell_setting 'orthorhombic'
loop_
_space_group_symop_operation_xyz
x,y,z
1/2-x,-y,z
x,1/2-y,1/2-z
1/2-x,1/2+y,1/2-z
-x,-y,-z
1/2+x,y,-z
-x,1/2+y,1/2+z
1/2+x,1/2-y,1/2+z
loop_
_atom_site_type_symbol
_atom_site_label
_atom_site_fract_x
_atom_site_fract_y
_atom_site_fract_z
Si Si1 0.614652 0.750000 0.750000
Si Si2 0.748850 0.620252 0.481434
Si Si3 0.233549 0.677922 0.664783
Si Si4 0.250000 0.000000 0.723542
Si Si5 0.250000 0.000000 0.460258
Si Si6 0.882247 0.625675 0.839934
O O1 0.471007 0.736410 0.682954
O O2 0.752208 0.646121 0.770279
O O3 0.750000 0.500000 0.510031
O O4 0.499758 0.669252 0.501051
O O5 0.744214 0.616717 0.402727
O O6 0.230549 0.599365 0.727202
O O7 0.036418 0.766842 0.657804
O O8 0.460278 0.023111 0.674328
O O9 0.266090 0.899097 0.410103
O O10 0.500000 0.000000 0.500000
#
# Coordination Sequence:
#
# PCOD9412703 Si02
#       6
#     4   8   8   4   4   8
#     4  12  24  46  72 120 148 196 262 334 408 466
#     4  10  24  45  67 102 147 198 251 309 383 470
#     4  12  25  44  76 111 152 198 259 325 401 481
#     4  12  21  50  72 116 157 202 254 340 422 468
#     4  12  31  54  82 114 161 224 272 330 402 486
#     4  12  27  50  78 114 158 205 269 334 403 497
#
# _framework density 24.346719
#
# number of rings (size 3 to 8) (size 9 to 14) (size 15 to 20)
#    0.000    0.444    5.556    2.000    6.222    1.778 
#    4.000    0.000    0.000    0.000    0.000    0.000 
#    0.000    0.000    0.000    0.000    0.000    0.000 
#
# Total GULP energy -200565.446442 kJ/mol
# GULP energy per Si atom -5571.262401 kJ/mol
# Density = 2.429130 g / cm^3
# Si number density = 24.346719 Si / 1000 Ang^3
#
#
#
# Elastic Constant Matrix: (Units=GPa)
#
#
# Indices 1 2 3 4 5 6 
#
# 1 147.6229 30.9724 60.6808 0.0000 0.0000 0.0000
# 2 30.9724 91.9565 27.0627 0.0000 0.0000 0.0000
# 3 60.6808 27.0627 131.5557 0.0000 0.0000 0.0000
# 4 0.0000 0.0000 0.0000 42.5472 0.0000 0.0000
# 5 0.0000 0.0000 0.0000 0.0000 34.7058 0.0000
# 6 0.0000 0.0000 0.0000 0.0000 0.0000 38.1733
#
#
#
# Elastic Compliance Matrix: (Units=1/GPa)
#
#
# Indices 1 2 3 4 5 6 
#
# 1 0.008645 -0.001850 -0.003607 0.000000 0.000000 0.000000
# 2 -0.001850 0.011971 -0.001609 0.000000 0.000000 0.000000
# 3 -0.003607 -0.001609 0.009596 0.000000 0.000000 0.000000
# 4 0.000000 0.000000 0.000000 0.023503 0.000000 0.000000
# 5 0.000000 0.000000 0.000000 0.000000 0.028814 0.000000
# 6 0.000000 0.000000 0.000000 0.000000 0.000000 0.026196
#
#
# Mechanical properties :
#
#
# Convention : Reuss Voigt Hill
#
# Bulk Modulus (GPa) = 62.19019 67.61854 64.90436
# Shear Modulus (GPa) = 38.99602 39.91321 39.45462
#
# Velocity S-wave (km/s) = 4.00646 4.05330 4.02995
# Velocity P-wave (km/s) = 6.85575 7.05260 6.95487
#
# Compressibility (1/GPa) = 0.01607971
#
# Stress axis : x y z
#
# Youngs Moduli (GPa) = 115.67628 83.53173 104.20930
#
# Poissons Ratio (x) = 0.15455 0.37587
# Poissons Ratio (y) = 0.21403 0.16770
# Poissons Ratio (z) = 0.41723 0.13442
#
# Static dielectric constant tensor:
#      x y z
#    x 2.273690 0.000000 0.000000 
#    y 0.000000 2.006330 0.000000 
#    z 0.000000 0.000000 1.833080 
# 
# From -- ./inp_files/34962.got.cif
#   From: 2010.05.17/outbox.cif.g08.bks.cpg/sg52_18_cif.got.tgz:34962.got - 2010.06.03 12:15:38.
