data_PCOD9412066
_publ_section_title
;
Structure prediction by ZEFSAII (Michael W. Deem and Ramdas Pophale) SiO2 
 PCOD9412066
Probable space group: P N N A
;
_chemical_formula_sum "Si O2"
_cell_formula_units_Z 28
_cell_length_a 17.164513
_cell_length_b 9.105668
_cell_length_c 7.941597
_cell_angle_alpha 90.000000
_cell_angle_beta 90.000000
_cell_angle_gamma 90.000000
_cell_volume 1241.226795
_symmetry_space_group_name_H-M "P N N A"
_symmetry_group_IT_number 52
_symmetry_cell_setting 'orthorhombic'
loop_
_space_group_symop_operation_xyz
x,y,z
1/2-x,-y,z
x,1/2-y,1/2-z
1/2-x,1/2+y,1/2-z
-x,-y,-z
1/2+x,y,-z
-x,1/2+y,1/2+z
1/2+x,1/2-y,1/2+z
loop_
_atom_site_type_symbol
_atom_site_label
_atom_site_fract_x
_atom_site_fract_y
_atom_site_fract_z
Si Si1 0.250000 0.500000 0.851607
Si Si2 0.154770 0.828332 0.428038
Si Si3 0.896832 0.449550 0.380797
Si Si4 0.931110 0.576110 0.734462
O O1 0.174120 0.503071 0.736234
O O2 0.234811 0.635372 0.977103
O O3 0.167495 0.750000 0.250000
O O4 0.109094 0.719132 0.553054
O O5 0.108794 0.977366 0.379230
O O6 0.892827 0.537605 0.554977
O O7 0.978926 0.472450 0.289176
O O8 0.926896 0.750000 0.750000
#
# Coordination Sequence:
#
# PCOD9412066 Si02
#       4
#     4   8   8   8
#     4  12  24  40  66  92 130 174 214 264 324 388
#     4  10  24  44  64  94 135 171 215 276 330 387
#     4  10  24  44  66  98 133 169 221 274 324 388
#     4  10  22  43  70  96 129 175 220 267 330 395
#
# _framework density 22.558326000000001
#
# number of rings (size 3 to 8) (size 9 to 14) (size 15 to 20)
#    0.000    1.714    0.000    2.571    0.000   14.857 
#    0.000   11.429    0.000    0.000    0.000    0.000 
#    0.000    0.000    0.000    0.000    0.000    0.000 
#
# Total GULP energy -156553.958669 kJ/mol
# GULP energy per Si atom -5591.212810 kJ/mol
# Density = 2.250698 g / cm^3
# Si number density = 22.558326 Si / 1000 Ang^3
#
#
#
# Elastic Constant Matrix: (Units=GPa)
#
#
# Indices 1 2 3 4 5 6 
#
# 1 83.5778 12.4773 68.3786 0.0000 0.0000 0.0000
# 2 12.4773 61.6656 30.6835 0.0000 0.0000 0.0000
# 3 68.3786 30.6835 131.6160 0.0000 0.0000 0.0000
# 4 0.0000 0.0000 0.0000 3.4168 0.0000 0.0000
# 5 0.0000 0.0000 0.0000 0.0000 34.9621 0.0000
# 6 0.0000 0.0000 0.0000 0.0000 0.0000 34.1395
#
#
#
# Elastic Compliance Matrix: (Units=1/GPa)
#
#
# Indices 1 2 3 4 5 6 
#
# 1 0.020906 0.001328 -0.011171 0.000000 0.000000 0.000000
# 2 0.001328 0.018429 -0.004986 0.000000 0.000000 0.000000
# 3 -0.011171 -0.004986 0.014564 0.000000 0.000000 0.000000
# 4 0.000000 0.000000 0.000000 0.292675 0.000000 0.000000
# 5 0.000000 0.000000 0.000000 0.000000 0.028602 0.000000
# 6 0.000000 0.000000 0.000000 0.000000 0.000000 0.029292
#
#
# Mechanical properties :
#
#
# Convention : Reuss Voigt Hill
#
# Bulk Modulus (GPa) = 41.25276 55.54868 48.40072
# Shear Modulus (GPa) = 11.30693 25.52499 18.41596
#
# Velocity S-wave (km/s) = 2.24125 3.36744 2.86032
# Velocity P-wave (km/s) = 5.00244 6.30853 5.69306
#
# Compressibility (1/GPa) = 0.02424080
#
# Stress axis : x y z
#
# Youngs Moduli (GPa) = 47.83291 54.26269 68.66220
#
# Poissons Ratio (x) = -0.07208 0.76703
# Poissons Ratio (y) = -0.06354 0.34238
# Poissons Ratio (z) = 0.53434 0.27058
#
# Static dielectric constant tensor:
#      x y z
#    x 1.828320 0.000000 0.000000 
#    y 0.000000 1.898730 0.000000 
#    z 0.000000 0.000000 1.842420 
# 
# From -- ./inp_files/11318.got.cif
#   From: 2010.05.17/outbox.cif.g08.bks.cpg/sg52_6_cif.got.tgz:11318.got - 2010.06.03 12:15:38.
