data_PCOD9412354
_publ_section_title
;
Structure prediction by ZEFSAII (Michael W. Deem and Ramdas Pophale) SiO2 
 PCOD9412354
Probable space group: P N N A
;
_chemical_formula_sum "Si O2"
_cell_formula_units_Z 60
_cell_length_a 17.553756
_cell_length_b 25.454106
_cell_length_c 5.270504
_cell_angle_alpha 90.000000
_cell_angle_beta 90.000000
_cell_angle_gamma 90.000000
_cell_volume 2354.941119
_symmetry_space_group_name_H-M "P N N A"
_symmetry_group_IT_number 52
_symmetry_cell_setting 'orthorhombic'
loop_
_space_group_symop_operation_xyz
x,y,z
1/2-x,-y,z
x,1/2-y,1/2-z
1/2-x,1/2+y,1/2-z
-x,-y,-z
1/2+x,y,-z
-x,1/2+y,1/2+z
1/2+x,1/2-y,1/2+z
loop_
_atom_site_type_symbol
_atom_site_label
_atom_site_fract_x
_atom_site_fract_y
_atom_site_fract_z
Si Si1 0.051249 0.458660 0.845578
Si Si2 0.376988 0.750000 0.750000
Si Si3 0.085756 0.888108 0.331064
Si Si4 0.177780 0.608136 0.666107
Si Si5 0.754516 0.699481 0.608619
Si Si6 0.002041 0.800909 0.586714
Si Si7 0.691350 0.039555 0.069450
Si Si8 0.624265 0.373678 0.789387
O O1 0.116477 0.487715 0.684454
O O2 0.986546 0.420918 0.734193
O O3 0.100909 0.415891 0.998991
O O4 0.000000 0.500000 0.000000
O O5 0.325349 0.720213 0.552088
O O6 0.431841 0.786821 0.592984
O O7 0.116950 0.899459 0.613074
O O8 0.061397 0.827861 0.393283
O O9 0.147249 0.901362 0.118999
O O10 0.205359 0.667914 0.600944
O O11 0.247179 0.570107 0.741718
O O12 0.718950 0.750000 0.750000
O O13 0.799454 0.662548 0.814158
O O14 0.026359 0.750000 0.750000
O O15 0.955476 0.842661 0.763105
O O16 0.750000 0.000000 0.928943
O O17 0.651988 0.087604 0.928839
#
# Coordination Sequence:
#
# PCOD9412354 Si02
#       8
#     8   4   8   8   8   8   8   8
#     4  11  27  46  80 107 151 196 265 314 399 457
#     4  12  22  40  74 106 150 194 268 310 394 454
#     4  11  29  49  74 110 160 203 254 321 384 462
#     4  11  29  49  74 110 162 204 254 317 394 458
#     4  11  24  41  72 105 149 199 259 311 384 467
#     4  11  24  41  72 105 150 199 262 312 386 461
#     4  11  27  46  79 108 149 201 259 322 392 466
#     4  10  23  42  69 107 142 191 247 320 377 461
#
# _framework density 25.478344
#
# number of rings (size 3 to 8) (size 9 to 14) (size 15 to 20)
#    0.000    1.067    2.667    0.800   20.533    2.133 
#    0.000    0.000    0.000    0.000    0.000    0.000 
#    0.000    0.000    0.000    0.000    0.000    0.000 
#
# Total GULP energy -334468.087212 kJ/mol
# GULP energy per Si atom -5574.468120 kJ/mol
# Density = 2.542035 g / cm^3
# Si number density = 25.478344 Si / 1000 Ang^3
#
#
#
# Elastic Constant Matrix: (Units=GPa)
#
#
# Indices 1 2 3 4 5 6 
#
# 1 92.6582 33.8609 25.9209 0.0000 0.0000 0.0000
# 2 33.8609 95.4006 21.8129 0.0000 0.0000 0.0000
# 3 25.9209 21.8129 63.0069 0.0000 0.0000 0.0000
# 4 0.0000 0.0000 0.0000 25.9215 0.0000 0.0000
# 5 0.0000 0.0000 0.0000 0.0000 58.3958 0.0000
# 6 0.0000 0.0000 0.0000 0.0000 0.0000 13.7307
#
#
#
# Elastic Compliance Matrix: (Units=1/GPa)
#
#
# Indices 1 2 3 4 5 6 
#
# 1 0.013343 -0.003780 -0.004181 0.000000 0.000000 0.000000
# 2 -0.003780 0.012454 -0.002756 0.000000 0.000000 0.000000
# 3 -0.004181 -0.002756 0.018545 0.000000 0.000000 0.000000
# 4 0.000000 0.000000 0.000000 0.038578 0.000000 0.000000
# 5 0.000000 0.000000 0.000000 0.000000 0.017125 0.000000
# 6 0.000000 0.000000 0.000000 0.000000 0.000000 0.072829
#
#
# Mechanical properties :
#
#
# Convention : Reuss Voigt Hill
#
# Bulk Modulus (GPa) = 43.65233 46.02835 44.84034
# Shear Modulus (GPa) = 24.75917 30.90768 27.83343
#
# Velocity S-wave (km/s) = 3.12071 3.48673 3.30879
# Velocity P-wave (km/s) = 5.49139 5.85787 5.67759
#
# Compressibility (1/GPa) = 0.02290828
#
# Stress axis : x y z
#
# Youngs Moduli (GPa) = 74.94411 80.29525 53.92144
#
# Poissons Ratio (x) = 0.30352 0.22543
# Poissons Ratio (y) = 0.28329 0.14863
# Poissons Ratio (z) = 0.31332 0.22133
#
# Static dielectric constant tensor:
#      x y z
#    x 1.682460 0.000000 0.000000 
#    y 0.000000 2.225940 0.000000 
#    z 0.000000 0.000000 2.178780 
# 
# From -- ./inp_files/3589.got.cif
#   From: 2010.05.17/outbox.cif.g08.bks.cpg/sg52_2_cif.got.tgz:3589.got - 2010.06.03 12:15:38.
