data_PCOD9412437
_publ_section_title
;
Structure prediction by ZEFSAII (Michael W. Deem and Ramdas Pophale) SiO2 
 PCOD9412437
Probable space group: P N N A
;
_chemical_formula_sum "Si O2"
_cell_formula_units_Z 40
_cell_length_a 9.871080
_cell_length_b 16.020654
_cell_length_c 9.674531
_cell_angle_alpha 90.000000
_cell_angle_beta 90.000000
_cell_angle_gamma 90.000000
_cell_volume 1529.941529
_symmetry_space_group_name_H-M "P N N A"
_symmetry_group_IT_number 52
_symmetry_cell_setting 'orthorhombic'
loop_
_space_group_symop_operation_xyz
x,y,z
1/2-x,-y,z
x,1/2-y,1/2-z
1/2-x,1/2+y,1/2-z
-x,-y,-z
1/2+x,y,-z
-x,1/2+y,1/2+z
1/2+x,1/2-y,1/2+z
loop_
_atom_site_type_symbol
_atom_site_label
_atom_site_fract_x
_atom_site_fract_y
_atom_site_fract_z
Si Si1 0.839863 0.273415 0.450336
Si Si2 0.897299 0.036169 0.109252
Si Si3 0.775292 0.874562 0.608555
Si Si4 0.926367 0.750000 0.750000
Si Si5 0.017598 0.075342 0.642435
Si Si6 0.094191 0.250000 0.750000
O O1 0.881881 0.368027 0.432934
O O2 0.799881 0.215097 0.576152
O O3 0.698058 0.265531 0.372828
O O4 0.969647 0.232785 0.375876
O O5 0.750000 0.000000 0.086211
O O6 0.936097 0.003372 0.263855
O O7 0.000000 0.000000 0.000000
O O8 0.849803 0.840515 0.747976
O O9 0.643111 0.933321 0.613917
O O10 0.879778 0.905321 0.487028
O O11 0.024786 0.160831 0.731891
#
# Coordination Sequence:
#
# PCOD9412437 Si02
#       6
#     8   8   8   4   8   4
#     4  10  23  44  68 108 143 190 244 313 369 441
#     4  12  29  46  71 108 158 199 247 314 394 455
#     4  11  24  43  80 108 143 196 255 313 366 464
#     4  11  23  42  78 108 144 186 262 306 370 450
#     4  11  24  46  71 113 143 201 248 313 381 449
#     4   9  19  40  74  92 146 184 244 304 360 438
#
# _framework density 26.144791000000001
#
# number of rings (size 3 to 8) (size 9 to 14) (size 15 to 20)
#    0.000    1.200    4.000    0.600    8.400    0.000 
#    0.000    4.000    0.000    0.000    0.000    0.000 
#    0.000    0.000    0.000    0.000    0.000    0.000 
#
# Total GULP energy -223079.865220 kJ/mol
# GULP energy per Si atom -5576.996631 kJ/mol
# Density = 2.608528 g / cm^3
# Si number density = 26.144791 Si / 1000 Ang^3
#
#
#
# Elastic Constant Matrix: (Units=GPa)
#
#
# Indices 1 2 3 4 5 6 
#
# 1 158.2535 22.0529 43.0404 0.0000 0.0000 0.0000
# 2 22.0529 123.0994 19.4606 0.0000 0.0000 0.0000
# 3 43.0404 19.4606 65.3910 0.0000 0.0000 0.0000
# 4 0.0000 0.0000 0.0000 41.4745 0.0000 0.0000
# 5 0.0000 0.0000 0.0000 0.0000 -8.5261 0.0000
# 6 0.0000 0.0000 0.0000 0.0000 0.0000 34.4747
#
#
#
# Elastic Compliance Matrix: (Units=1/GPa)
#
#
# Indices 1 2 3 4 5 6 
#
# 1 0.007740 -0.000610 -0.004913 0.000000 0.000000 0.000000
# 2 -0.000610 0.008573 -0.002150 0.000000 0.000000 0.000000
# 3 -0.004913 -0.002150 0.019166 0.000000 0.000000 0.000000
# 4 0.000000 0.000000 0.000000 0.024111 0.000000 0.000000
# 5 0.000000 0.000000 0.000000 0.000000 -0.117287 0.000000
# 6 0.000000 0.000000 0.000000 0.000000 0.000000 0.029007
#
#
# Mechanical properties :
#
#
# Convention : Reuss Voigt Hill
#
# Bulk Modulus (GPa) = 49.66864 57.31686 53.49275
# Shear Modulus (GPa) = -753.74694 30.96394 -361.39150
#
# Velocity S-wave (km/s) = -16.99774 3.44514 -11.76975
# Velocity P-wave (km/s) = 19.13614 6.14782 12.81398
#
# Compressibility (1/GPa) = 0.02013343
#
# Stress axis : x y z
#
# Youngs Moduli (GPa) = 129.19579 116.65014 52.17513
#
# Poissons Ratio (x) = 0.07115 0.25634
# Poissons Ratio (y) = 0.07880 0.11217
# Poissons Ratio (z) = 0.63475 0.25077
#
# Static dielectric constant tensor:
#      x y z
#    x 2.123300 0.000000 0.000000 
#    y 0.000000 2.214330 0.000000 
#    z 0.000000 0.000000 2.321960 
# 
# From -- ./inp_files/16717.got.cif
#   From: 2010.05.17/outbox.cif.g08.bks.cpg/sg52_9_cif.got.tgz:16717.got - 2010.06.03 12:15:38.
