data_PCOD9412729
_publ_section_title
;
Structure prediction by ZEFSAII (Michael W. Deem and Ramdas Pophale) SiO2 
 PCOD9412729
Probable space group: P N N A
;
_chemical_formula_sum "Si O2"
_cell_formula_units_Z 36
_cell_length_a 11.691782
_cell_length_b 5.050160
_cell_length_c 27.318465
_cell_angle_alpha 90.000000
_cell_angle_beta 90.000000
_cell_angle_gamma 90.000000
_cell_volume 1613.028868
_symmetry_space_group_name_H-M "P N N A"
_symmetry_group_IT_number 52
_symmetry_cell_setting 'orthorhombic'
loop_
_space_group_symop_operation_xyz
x,y,z
1/2-x,-y,z
x,1/2-y,1/2-z
1/2-x,1/2+y,1/2-z
-x,-y,-z
1/2+x,y,-z
-x,1/2+y,1/2+z
1/2+x,1/2-y,1/2+z
loop_
_atom_site_type_symbol
_atom_site_label
_atom_site_fract_x
_atom_site_fract_y
_atom_site_fract_z
Si Si1 0.437911 0.645967 0.637248
Si Si2 0.328414 0.750000 0.250000
Si Si3 0.473835 0.252582 0.033340
Si Si4 0.750000 0.000000 0.577332
Si Si5 0.567251 0.345429 0.848795
Si Si6 0.250000 0.000000 0.784374
O O1 0.442433 0.746587 0.580911
O O2 0.467625 0.337109 0.630653
O O3 0.339116 0.637324 0.677798
O O4 0.532424 0.850590 0.658630
O O5 0.250000 0.500000 0.239908
O O6 0.402905 0.787890 0.202241
O O7 0.341612 0.309658 0.050010
O O8 0.500000 0.500000 0.000000
O O9 0.500000 0.000000 0.000000
O O10 0.829483 0.828206 0.613302
O O11 0.290371 0.250000 0.750000
#
# Coordination Sequence:
#
# PCOD9412729 Si02
#       6
#     8   4   8   4   8   4
#     4  11  26  46  69 100 141 180 246 294 356 425
#     4  12  24  38  62 104 138 180 228 260 346 416
#     4  11  25  45  72 105 134 186 236 297 371 432
#     4  10  24  46  67 102 146 175 224 292 356 432
#     4  11  24  42  68  99 141 183 217 288 351 415
#     4  12  28  48  71 102 144 205 252 302 366 430
#
# _framework density 22.318263000000002
#
# number of rings (size 3 to 8) (size 9 to 14) (size 15 to 20)
#    0.000    0.889    1.111    5.333    7.778    6.222 
#    0.000    0.000    0.000    0.000    0.000    0.000 
#    0.000    0.000    0.000    0.000    0.000    0.000 
#
# Total GULP energy -200708.680478 kJ/mol
# GULP energy per Si atom -5575.241124 kJ/mol
# Density = 2.226747 g / cm^3
# Si number density = 22.318263 Si / 1000 Ang^3
#
#
#
# Elastic Constant Matrix: (Units=GPa)
#
#
# Indices 1 2 3 4 5 6 
#
# 1 86.9772 25.2278 59.8357 0.0000 0.0000 0.0000
# 2 25.2278 126.5560 48.9833 0.0000 0.0000 0.0000
# 3 59.8357 48.9833 153.5534 0.0000 0.0000 0.0000
# 4 0.0000 0.0000 0.0000 12.8453 0.0000 0.0000
# 5 0.0000 0.0000 0.0000 0.0000 42.5597 0.0000
# 6 0.0000 0.0000 0.0000 0.0000 0.0000 161.0735
#
#
#
# Elastic Compliance Matrix: (Units=1/GPa)
#
#
# Indices 1 2 3 4 5 6 
#
# 1 0.015793 -0.000874 -0.005875 0.000000 0.000000 0.000000
# 2 -0.000874 0.009063 -0.002550 0.000000 0.000000 0.000000
# 3 -0.005875 -0.002550 0.009615 0.000000 0.000000 0.000000
# 4 0.000000 0.000000 0.000000 0.077849 0.000000 0.000000
# 5 0.000000 0.000000 0.000000 0.000000 0.023496 0.000000
# 6 0.000000 0.000000 0.000000 0.000000 0.000000 0.006208
#
#
# Mechanical properties :
#
#
# Convention : Reuss Voigt Hill
#
# Bulk Modulus (GPa) = 63.00584 70.57558 66.79071
# Shear Modulus (GPa) = 30.13593 58.83170 44.48381
#
# Velocity S-wave (km/s) = 3.67860 5.13980 4.46932
# Velocity P-wave (km/s) = 6.80696 8.18012 7.52493
#
# Compressibility (1/GPa) = 0.01587154
#
# Stress axis : x y z
#
# Youngs Moduli (GPa) = 63.32089 110.33820 104.00035
#
# Poissons Ratio (x) = 0.09645 0.61101
# Poissons Ratio (y) = 0.05535 0.26525
# Poissons Ratio (z) = 0.37202 0.28141
#
# Static dielectric constant tensor:
#      x y z
#    x 2.051940 0.000000 0.000000 
#    y 0.000000 1.846130 0.000000 
#    z 0.000000 0.000000 1.795840 
# 
# From -- ./inp_files/39994.got.cif
#   From: 2010.05.17/outbox.cif.g08.bks.cpg/sg52_20_cif.got.tgz:39994.got - 2010.06.03 12:15:38.
