data_PCOD9412134
_publ_section_title
;
Structure prediction by ZEFSAII (Michael W. Deem and Ramdas Pophale) SiO2 
 PCOD9412134
Probable space group: P N N A
;
_chemical_formula_sum "Si O2"
_cell_formula_units_Z 40
_cell_length_a 5.417326
_cell_length_b 13.239461
_cell_length_c 21.171322
_cell_angle_alpha 90.000000
_cell_angle_beta 90.000000
_cell_angle_gamma 90.000000
_cell_volume 1518.459640
_symmetry_space_group_name_H-M "P N N A"
_symmetry_group_IT_number 52
_symmetry_cell_setting 'orthorhombic'
loop_
_space_group_symop_operation_xyz
x,y,z
1/2-x,-y,z
x,1/2-y,1/2-z
1/2-x,1/2+y,1/2-z
-x,-y,-z
1/2+x,y,-z
-x,1/2+y,1/2+z
1/2+x,1/2-y,1/2+z
loop_
_atom_site_type_symbol
_atom_site_label
_atom_site_fract_x
_atom_site_fract_y
_atom_site_fract_z
Si Si1 0.250000 0.500000 0.228857
Si Si2 0.433218 0.644146 0.020528
Si Si3 0.616571 0.610316 0.159021
Si Si4 0.445364 0.078178 0.159824
Si Si5 0.139526 0.129191 0.969551
Si Si6 0.457801 0.750000 0.750000
O O1 0.342618 0.590361 0.186872
O O2 0.479520 0.489286 0.277392
O O3 0.550947 0.651791 0.089978
O O4 0.156487 0.597657 0.020773
O O5 0.378705 0.752850 0.988899
O O6 0.750000 0.500000 0.151697
O O7 0.779716 0.681119 0.204845
O O8 0.629704 0.109099 0.105283
O O9 0.389779 0.181678 0.198996
O O10 0.250000 0.000000 0.127951
O O11 0.892173 0.091291 0.002436
#
# Coordination Sequence:
#
# PCOD9412134 Si02
#       6
#     4   8   8   8   8   4
#     4  10  26  48  68 116 146 204 254 332 388 458
#     4  10  24  43  70 108 146 201 255 315 390 466
#     4  12  26  48  75 109 158 198 266 325 388 484
#     4  10  24  47  75 112 155 200 264 326 388 481
#     4  10  22  44  70 109 146 200 257 314 392 464
#     4  12  24  48  78 112 156 218 256 330 408 466
#
# _framework density 26.342482
#
# number of rings (size 3 to 8) (size 9 to 14) (size 15 to 20)
#    0.600    0.800    2.000    2.400    2.800   10.400 
#    3.600    0.000    0.000    0.000    0.000    0.000 
#    0.000    0.000    0.000    0.000    0.000    0.000 
#
# Total GULP energy -222752.081461 kJ/mol
# GULP energy per Si atom -5568.802037 kJ/mol
# Density = 2.628253 g / cm^3
# Si number density = 26.342482 Si / 1000 Ang^3
#
#
#
# Elastic Constant Matrix: (Units=GPa)
#
#
# Indices 1 2 3 4 5 6 
#
# 1 163.0507 40.3195 42.1520 0.0000 0.0000 0.0000
# 2 40.3195 118.7853 48.1851 0.0000 0.0000 0.0000
# 3 42.1520 48.1851 185.1765 0.0000 0.0000 0.0000
# 4 0.0000 0.0000 0.0000 20.6704 0.0000 0.0000
# 5 0.0000 0.0000 0.0000 0.0000 11.9173 0.0000
# 6 0.0000 0.0000 0.0000 0.0000 0.0000 45.0488
#
#
#
# Elastic Compliance Matrix: (Units=1/GPa)
#
#
# Indices 1 2 3 4 5 6 
#
# 1 0.006880 -0.001901 -0.001072 0.000000 0.000000 0.000000
# 2 -0.001901 0.009937 -0.002153 0.000000 0.000000 0.000000
# 3 -0.001072 -0.002153 0.006204 0.000000 0.000000 0.000000
# 4 0.000000 0.000000 0.000000 0.048378 0.000000 0.000000
# 5 0.000000 0.000000 0.000000 0.000000 0.083912 0.000000
# 6 0.000000 0.000000 0.000000 0.000000 0.000000 0.022198
#
#
# Mechanical properties :
#
#
# Convention : Reuss Voigt Hill
#
# Bulk Modulus (GPa) = 78.30232 80.92505 79.61369
# Shear Modulus (GPa) = 26.03932 37.95103 31.99518
#
# Velocity S-wave (km/s) = 3.14744 3.79974 3.48887
# Velocity P-wave (km/s) = 6.55727 7.07374 6.82039
#
# Compressibility (1/GPa) = 0.01277101
#
# Stress axis : x y z
#
# Youngs Moduli (GPa) = 145.34725 100.63303 161.17499
#
# Poissons Ratio (x) = 0.19127 0.17271
# Poissons Ratio (y) = 0.27625 0.34703
# Poissons Ratio (z) = 0.15575 0.21667
#
# Static dielectric constant tensor:
#      x y z
#    x 1.794070 0.000000 0.000000 
#    y 0.000000 1.744420 0.000000 
#    z 0.000000 0.000000 1.969680 
# 
# From -- ./inp_files/38685.got.cif
#   From: 2010.05.17/outbox.cif.g08.bks.cpg/sg52_20_cif.got.tgz:38685.got - 2010.06.03 12:15:38.
