data_PCOD9412125
_publ_section_title
;
Structure prediction by ZEFSAII (Michael W. Deem and Ramdas Pophale) SiO2 
 PCOD9412125
Probable space group: P N N A
;
_chemical_formula_sum "Si O2"
_cell_formula_units_Z 28
_cell_length_a 10.355794
_cell_length_b 10.714798
_cell_length_c 9.721596
_cell_angle_alpha 90.000000
_cell_angle_beta 90.000000
_cell_angle_gamma 90.000000
_cell_volume 1078.710634
_symmetry_space_group_name_H-M "P N N A"
_symmetry_group_IT_number 52
_symmetry_cell_setting 'orthorhombic'
loop_
_space_group_symop_operation_xyz
x,y,z
1/2-x,-y,z
x,1/2-y,1/2-z
1/2-x,1/2+y,1/2-z
-x,-y,-z
1/2+x,y,-z
-x,1/2+y,1/2+z
1/2+x,1/2-y,1/2+z
loop_
_atom_site_type_symbol
_atom_site_label
_atom_site_fract_x
_atom_site_fract_y
_atom_site_fract_z
Si Si1 0.578906 0.118343 0.057596
Si Si2 0.196538 0.128159 0.220748
Si Si3 0.250000 0.000000 0.707418
Si Si4 0.033572 0.867014 0.565032
O O1 0.688935 0.128260 0.942447
O O2 0.499935 0.247709 0.031243
O O3 0.500000 0.000000 0.000000
O O4 0.644357 0.073825 0.199045
O O5 0.279135 0.250000 0.250000
O O6 0.062179 0.141393 0.303299
O O7 0.250000 0.000000 0.272981
O O8 0.321645 0.108006 0.619487
O O9 0.000000 0.000000 0.500000
#
# Coordination Sequence:
#
# PCOD9412125 Si02
#       4
#     8   8   4   8
#     4  11  24  46  75 111 149 208 277 321 399 501
#     4  10  22  44  69 103 151 199 261 333 386 479
#     4  12  26  52  86 112 172 226 260 356 422 476
#     4  11  28  46  69 119 160 207 276 330 409 498
#
# _framework density 25.956917000000001
#
# number of rings (size 3 to 8) (size 9 to 14) (size 15 to 20)
#    0.000    1.143    4.286    0.000    2.000    8.000 
#    0.000    0.000    0.000    0.000    0.000    0.000 
#    0.000    0.000    0.000    0.000    0.000    0.000 
#
# Total GULP energy -156439.100781 kJ/mol
# GULP energy per Si atom -5587.110742 kJ/mol
# Density = 2.589784 g / cm^3
# Si number density = 25.956917 Si / 1000 Ang^3
#
#
#
# Elastic Constant Matrix: (Units=GPa)
#
#
# Indices 1 2 3 4 5 6 
#
# 1 104.9741 73.7712 39.0291 0.0000 0.0000 0.0000
# 2 73.7712 288.8317 51.0025 0.0000 0.0000 0.0000
# 3 39.0291 51.0025 81.9849 0.0000 0.0000 0.0000
# 4 0.0000 0.0000 0.0000 50.8102 0.0000 0.0000
# 5 0.0000 0.0000 0.0000 0.0000 65.1101 0.0000
# 6 0.0000 0.0000 0.0000 0.0000 0.0000 35.2005
#
#
#
# Elastic Compliance Matrix: (Units=1/GPa)
#
#
# Indices 1 2 3 4 5 6 
#
# 1 0.013009 -0.002504 -0.004635 0.000000 0.000000 0.000000
# 2 -0.002504 0.004372 -0.001527 0.000000 0.000000 0.000000
# 3 -0.004635 -0.001527 0.015354 0.000000 0.000000 0.000000
# 4 0.000000 0.000000 0.000000 0.019681 0.000000 0.000000
# 5 0.000000 0.000000 0.000000 0.000000 0.015359 0.000000
# 6 0.000000 0.000000 0.000000 0.000000 0.000000 0.028409
#
#
# Mechanical properties :
#
#
# Convention : Reuss Voigt Hill
#
# Bulk Modulus (GPa) = 64.92941 89.26626 77.09783
# Shear Modulus (GPa) = 42.14036 51.02336 46.58186
#
# Velocity S-wave (km/s) = 4.03361 4.43842 4.24085
# Velocity P-wave (km/s) = 6.83827 7.79301 7.33120
#
# Compressibility (1/GPa) = 0.01540134
#
# Stress axis : x y z
#
# Youngs Moduli (GPa) = 76.86736 228.75193 65.12891
#
# Poissons Ratio (x) = 0.57285 0.30189
# Poissons Ratio (y) = 0.19250 0.09948
# Poissons Ratio (z) = 0.35630 0.34939
#
# Static dielectric constant tensor:
#      x y z
#    x 2.348070 0.000000 0.000000 
#    y 0.000000 2.946730 0.000000 
#    z 0.000000 0.000000 2.146030 
# 
# From -- ./inp_files/17450.got.cif
#   From: 2010.05.17/outbox.cif.g08.bks.cpg/sg52_9_cif.got.tgz:17450.got - 2010.06.03 12:15:38.
