data_PCOD9412247
_publ_section_title
;
Structure prediction by ZEFSAII (Michael W. Deem and Ramdas Pophale) SiO2 
 PCOD9412247
Probable space group: P N N A
;
_chemical_formula_sum "Si O2"
_cell_formula_units_Z 56
_cell_length_a 14.597828
_cell_length_b 7.847186
_cell_length_c 22.535986
_cell_angle_alpha 90.000000
_cell_angle_beta 90.000000
_cell_angle_gamma 90.000000
_cell_volume 2581.539373
_symmetry_space_group_name_H-M "P N N A"
_symmetry_group_IT_number 52
_symmetry_cell_setting 'orthorhombic'
loop_
_space_group_symop_operation_xyz
x,y,z
1/2-x,-y,z
x,1/2-y,1/2-z
1/2-x,1/2+y,1/2-z
-x,-y,-z
1/2+x,y,-z
-x,1/2+y,1/2+z
1/2+x,1/2-y,1/2+z
loop_
_atom_site_type_symbol
_atom_site_label
_atom_site_fract_x
_atom_site_fract_y
_atom_site_fract_z
Si Si1 0.498882 0.158466 0.311467
Si Si2 0.079900 0.842748 0.069376
Si Si3 0.715972 0.694959 0.460949
Si Si4 0.927121 0.120702 0.386046
Si Si5 0.908903 0.837863 0.477498
Si Si6 0.384126 0.772274 0.104073
Si Si7 0.163900 0.097092 0.289178
O O1 0.525954 0.250000 0.250000
O O2 0.455369 0.265419 0.367135
O O3 0.576793 0.030439 0.337417
O O4 0.413563 0.040501 0.295502
O O5 0.984902 0.810761 0.032470
O O6 0.115984 0.031789 0.085382
O O7 0.159260 0.775674 0.023271
O O8 0.750000 0.500000 0.461234
O O9 0.651046 0.750267 0.406579
O O10 0.809269 0.798481 0.451045
O O11 0.015387 0.232726 0.369608
O O12 0.943282 0.007715 0.445792
O O13 0.883026 0.841877 0.545836
O O14 0.311538 0.693064 0.149271
O O15 0.129848 0.250000 0.250000
O O16 0.250000 0.000000 0.262741
#
# Coordination Sequence:
#
# PCOD9412247 Si02
#       7
#     8   8   8   8   8   8   8
#     4  10  23  43  67  89 122 178 231 284 342 394
#     4  11  23  40  64  98 140 173 225 280 330 413
#     4  12  23  37  61  97 141 180 214 266 349 410
#     4  10  23  39  62  93 133 170 222 277 328 399
#     4  11  22  38  61  92 137 177 213 269 339 399
#     4  11  21  38  61  88 131 178 215 266 335 389
#     4  11  25  40  59  86 128 176 231 284 324 391
#
# _framework density 21.692482999999999
#
# number of rings (size 3 to 8) (size 9 to 14) (size 15 to 20)
#    0.000    1.143    2.857    3.429    6.000    0.000 
#    0.000    0.000    0.000    0.000    0.000   89.000 
#    0.000    0.000    0.000    0.000    0.000    0.000 
#
# Total GULP energy -311911.336453 kJ/mol
# GULP energy per Si atom -5569.845294 kJ/mol
# Density = 2.164311 g / cm^3
# Si number density = 21.692483 Si / 1000 Ang^3
#
#
#
# Elastic Constant Matrix: (Units=GPa)
#
#
# Indices 1 2 3 4 5 6 
#
# 1 61.9761 5.1214 -2.0206 0.0000 0.0000 0.0000
# 2 5.1214 71.8296 27.2509 0.0000 0.0000 0.0000
# 3 -2.0206 27.2509 100.4186 0.0000 0.0000 0.0000
# 4 0.0000 0.0000 0.0000 39.4835 0.0000 0.0000
# 5 0.0000 0.0000 0.0000 0.0000 4.9847 0.0000
# 6 0.0000 0.0000 0.0000 0.0000 0.0000 22.6299
#
#
#
# Elastic Compliance Matrix: (Units=1/GPa)
#
#
# Indices 1 2 3 4 5 6 
#
# 1 0.016277 -0.001432 0.000716 0.000000 0.000000 0.000000
# 2 -0.001432 0.015646 -0.004275 0.000000 0.000000 0.000000
# 3 0.000716 -0.004275 0.011133 0.000000 0.000000 0.000000
# 4 0.000000 0.000000 0.000000 0.025327 0.000000 0.000000
# 5 0.000000 0.000000 0.000000 0.000000 0.200612 0.000000
# 6 0.000000 0.000000 0.000000 0.000000 0.000000 0.044189
#
#
# Mechanical properties :
#
#
# Convention : Reuss Voigt Hill
#
# Bulk Modulus (GPa) = 30.23524 32.76976 31.50250
# Shear Modulus (GPa) = 14.96154 27.01113 20.98633
#
# Velocity S-wave (km/s) = 2.62908 3.53254 3.11376
# Velocity P-wave (km/s) = 4.81503 5.63718 5.24225
#
# Compressibility (1/GPa) = 0.03307399
#
# Stress axis : x y z
#
# Youngs Moduli (GPa) = 61.43653 63.91543 89.82510
#
# Poissons Ratio (x) = 0.09154 -0.06433
# Poissons Ratio (y) = 0.08799 0.38397
# Poissons Ratio (z) = -0.04400 0.27322
#
# Static dielectric constant tensor:
#      x y z
#    x 1.896020 0.000000 0.000000 
#    y 0.000000 1.890050 0.000000 
#    z 0.000000 0.000000 1.881360 
# 
# From -- ./inp_files/37330.got.cif
#   From: 2010.05.17/outbox.cif.g08.bks.cpg/sg52_19_cif.got.tgz:37330.got - 2010.06.03 12:15:38.
