data_PCOD9412991
_publ_section_title
;
Structure prediction by ZEFSAII (Michael W. Deem and Ramdas Pophale) SiO2 
 PCOD9412991
Probable space group: P N N A
;
_chemical_formula_sum "Si O2"
_cell_formula_units_Z 32
_cell_length_a 34.195617
_cell_length_b 5.026090
_cell_length_c 10.073353
_cell_angle_alpha 90.000000
_cell_angle_beta 90.000000
_cell_angle_gamma 90.000000
_cell_volume 1731.309685
_symmetry_space_group_name_H-M "P N N A"
_symmetry_group_IT_number 52
_symmetry_cell_setting 'orthorhombic'
loop_
_space_group_symop_operation_xyz
x,y,z
1/2-x,-y,z
x,1/2-y,1/2-z
1/2-x,1/2+y,1/2-z
-x,-y,-z
1/2+x,y,-z
-x,1/2+y,1/2+z
1/2+x,1/2-y,1/2+z
loop_
_atom_site_type_symbol
_atom_site_label
_atom_site_fract_x
_atom_site_fract_y
_atom_site_fract_z
Si Si1 0.978464 0.750000 0.750000
Si Si2 0.126584 0.798044 0.409036
Si Si3 0.079795 0.190893 0.013223
Si Si4 0.207718 0.502620 0.151867
Si Si5 0.468452 0.750000 0.750000
O O1 0.951302 0.855737 0.869010
O O2 0.005093 0.501119 0.792082
O O3 0.123568 0.750000 0.250000
O O4 0.115168 0.518421 0.473655
O O5 0.095928 0.014752 0.459515
O O6 0.169519 0.923236 0.432098
O O7 0.058213 0.167805 0.873887
O O8 0.250000 0.500000 0.080567
O O9 0.200560 0.250000 0.250000
O O10 0.212521 0.750000 0.250000
#
# Coordination Sequence:
#
# PCOD9412991 Si02
#       5
#     4   8   8   8   4
#     4  12  22  42  58  80 106 144 192 238 286 330
#     4  11  19  35  56  83 112 147 183 223 273 332
#     4  12  23  38  59  81 110 147 186 231 280 329
#     4   9  17  29  49  81 118 146 174 220 276 324
#     4  12  26  40  56  82 110 144 190 238 284 332
#
# _framework density 18.483117
#
# number of rings (size 3 to 8) (size 9 to 14) (size 15 to 20)
#    0.000    1.000    2.500    7.500    0.000    0.000 
#    0.000    0.000    0.000    0.000    0.000    3.500 
#    0.000    2.000    0.000    0.000    0.000    0.000 
#
# Total GULP energy -178585.097826 kJ/mol
# GULP energy per Si atom -5580.784307 kJ/mol
# Density = 1.844105 g / cm^3
# Si number density = 18.483117 Si / 1000 Ang^3
#
#
#
# Elastic Constant Matrix: (Units=GPa)
#
#
# Indices 1 2 3 4 5 6 
#
# 1 92.6949 7.8884 34.9795 0.0000 0.0000 0.0000
# 2 7.8884 99.3722 -2.5351 0.0000 0.0000 0.0000
# 3 34.9795 -2.5351 63.2966 0.0000 0.0000 0.0000
# 4 0.0000 0.0000 0.0000 14.2516 0.0000 0.0000
# 5 0.0000 0.0000 0.0000 0.0000 -19.3488 0.0000
# 6 0.0000 0.0000 0.0000 0.0000 0.0000 40.3971
#
#
#
# Elastic Compliance Matrix: (Units=1/GPa)
#
#
# Indices 1 2 3 4 5 6 
#
# 1 0.013794 -0.001291 -0.007675 0.000000 0.000000 0.000000
# 2 -0.001291 0.010194 0.001122 0.000000 0.000000 0.000000
# 3 -0.007675 0.001122 0.020085 0.000000 0.000000 0.000000
# 4 0.000000 0.000000 0.000000 0.070167 0.000000 0.000000
# 5 0.000000 0.000000 0.000000 0.000000 -0.051683 0.000000
# 6 0.000000 0.000000 0.000000 0.000000 0.000000 0.024754
#
#
# Mechanical properties :
#
#
# Convention : Reuss Voigt Hill
#
# Bulk Modulus (GPa) = 35.22936 37.33659 36.28298
# Shear Modulus (GPa) = 44.45965 21.39539 32.92752
#
# Velocity S-wave (km/s) = 4.90983 3.40599 4.22535
# Velocity P-wave (km/s) = 7.15846 5.97595 6.59377
#
# Compressibility (1/GPa) = 0.02838541
#
# Stress axis : x y z
#
# Youngs Moduli (GPa) = 72.49491 98.09449 49.78881
#
# Poissons Ratio (x) = 0.12662 0.38211
# Poissons Ratio (y) = 0.09358 -0.05584
# Poissons Ratio (z) = 0.55638 -0.11003
#
# Static dielectric constant tensor:
#      x y z
#    x 1.728650 0.000000 0.000000 
#    y 0.000000 1.652840 0.000000 
#    z 0.000000 0.000000 1.597460 
# 
# From -- ./inp_files/15186.got.cif
#   From: 2010.05.17/outbox.cif.g08.bks.cpg/sg52_8_cif.got.tgz:15186.got - 2010.06.03 12:15:38.
