data_PCOD9412762
_publ_section_title
;
Structure prediction by ZEFSAII (Michael W. Deem and Ramdas Pophale) SiO2 
 PCOD9412762
Probable space group: P N N A
;
_chemical_formula_sum "Si O2"
_cell_formula_units_Z 28
_cell_length_a 7.275511
_cell_length_b 9.149262
_cell_length_c 17.720139
_cell_angle_alpha 90.000000
_cell_angle_beta 90.000000
_cell_angle_gamma 90.000000
_cell_volume 1179.550911
_symmetry_space_group_name_H-M "P N N A"
_symmetry_group_IT_number 52
_symmetry_cell_setting 'orthorhombic'
loop_
_space_group_symop_operation_xyz
x,y,z
1/2-x,-y,z
x,1/2-y,1/2-z
1/2-x,1/2+y,1/2-z
-x,-y,-z
1/2+x,y,-z
-x,1/2+y,1/2+z
1/2+x,1/2-y,1/2+z
loop_
_atom_site_type_symbol
_atom_site_label
_atom_site_fract_x
_atom_site_fract_y
_atom_site_fract_z
Si Si1 0.250000 0.500000 0.145790
Si Si2 0.894686 0.895121 0.783319
Si Si3 0.680775 0.662751 0.410220
Si Si4 0.016648 0.840671 0.459471
O O1 0.079068 0.477405 0.203000
O O2 0.193972 0.634736 0.093412
O O3 0.801031 0.750000 0.750000
O O4 0.066729 0.852099 0.832808
O O5 0.750000 0.000000 0.825707
O O6 0.750000 0.500000 0.426814
O O7 0.552061 0.721371 0.476784
O O8 0.845481 0.781338 0.411415
O O9 0.000000 0.000000 0.500000
#
# Coordination Sequence:
#
# PCOD9412762 Si02
#       4
#     4   8   8   8
#     4  10  24  46  82 102 162 222 268 326 406 498
#     4  10  26  48  74 105 158 207 263 326 414 477
#     4  12  28  44  77 121 157 196 272 349 409 470
#     4  12  24  49  78 112 156 214 270 327 402 506
#
# _framework density 23.737849000000001
#
# number of rings (size 3 to 8) (size 9 to 14) (size 15 to 20)
#    0.857    0.000    2.857    2.571    4.000    3.429 
#    0.000    0.000    0.000    0.000    0.000    0.000 
#    0.000    0.000    0.000    0.000    0.000    0.000 
#
# Total GULP energy -156162.521178 kJ/mol
# GULP energy per Si atom -5577.232899 kJ/mol
# Density = 2.368382 g / cm^3
# Si number density = 23.737849 Si / 1000 Ang^3
#
#
#
# Elastic Constant Matrix: (Units=GPa)
#
#
# Indices 1 2 3 4 5 6 
#
# 1 128.0742 59.4833 70.1637 0.0000 0.0000 0.0000
# 2 59.4833 161.6966 60.5476 0.0000 0.0000 0.0000
# 3 70.1637 60.5476 137.5295 0.0000 0.0000 0.0000
# 4 0.0000 0.0000 0.0000 30.8562 0.0000 0.0000
# 5 0.0000 0.0000 0.0000 0.0000 41.2119 0.0000
# 6 0.0000 0.0000 0.0000 0.0000 0.0000 52.5548
#
#
#
# Elastic Compliance Matrix: (Units=1/GPa)
#
#
# Indices 1 2 3 4 5 6 
#
# 1 0.011598 -0.002456 -0.004836 0.000000 0.000000 0.000000
# 2 -0.002456 0.007925 -0.002236 0.000000 0.000000 0.000000
# 3 -0.004836 -0.002236 0.010723 0.000000 0.000000 0.000000
# 4 0.000000 0.000000 0.000000 0.032408 0.000000 0.000000
# 5 0.000000 0.000000 0.000000 0.000000 0.024265 0.000000
# 6 0.000000 0.000000 0.000000 0.000000 0.000000 0.019028
#
#
# Mechanical properties :
#
#
# Convention : Reuss Voigt Hill
#
# Bulk Modulus (GPa) = 89.36310 89.74327 89.55319
# Shear Modulus (GPa) = 38.84042 40.73163 39.78602
#
# Velocity S-wave (km/s) = 4.04941 4.14683 4.09841
# Velocity P-wave (km/s) = 7.71954 7.79848 7.75911
#
# Compressibility (1/GPa) = 0.01119030
#
# Stress axis : x y z
#
# Youngs Moduli (GPa) = 86.22422 126.18035 93.26012
#
# Poissons Ratio (x) = 0.30986 0.45098
# Poissons Ratio (y) = 0.21174 0.20855
# Poissons Ratio (z) = 0.41695 0.28217
#
# Static dielectric constant tensor:
#      x y z
#    x 1.998010 0.000000 0.000000 
#    y 0.000000 1.943180 0.000000 
#    z 0.000000 0.000000 1.976630 
# 
# From -- ./inp_files/30656.got.cif
#   From: 2010.05.17/outbox.cif.g08.bks.cpg/sg52_16_cif.got.tgz:30656.got - 2010.06.03 12:15:38.
