data_PCOD9412641
_publ_section_title
;
Structure prediction by ZEFSAII (Michael W. Deem and Ramdas Pophale) SiO2 
 PCOD9412641
Probable space group: P N N A
;
_chemical_formula_sum "Si O2"
_cell_formula_units_Z 36
_cell_length_a 21.181224
_cell_length_b 8.672635
_cell_length_c 8.933327
_cell_angle_alpha 90.000000
_cell_angle_beta 90.000000
_cell_angle_gamma 90.000000
_cell_volume 1641.025590
_symmetry_space_group_name_H-M "P N N A"
_symmetry_group_IT_number 52
_symmetry_cell_setting 'orthorhombic'
loop_
_space_group_symop_operation_xyz
x,y,z
1/2-x,-y,z
x,1/2-y,1/2-z
1/2-x,1/2+y,1/2-z
-x,-y,-z
1/2+x,y,-z
-x,1/2+y,1/2+z
1/2+x,1/2-y,1/2+z
loop_
_atom_site_type_symbol
_atom_site_label
_atom_site_fract_x
_atom_site_fract_y
_atom_site_fract_z
Si Si1 0.372999 0.256400 0.083277
Si Si2 0.550330 0.534372 0.371378
Si Si3 0.747253 0.750000 0.750000
Si Si4 0.650013 0.114146 0.550061
Si Si5 0.868801 0.750000 0.250000
Si Si6 0.544462 0.250000 0.750000
O O1 0.405596 0.250000 0.250000
O O2 0.302619 0.194411 0.124282
O O3 0.368559 0.435661 0.040287
O O4 0.403645 0.156388 0.953235
O O5 0.500000 0.500000 0.500000
O O6 0.587836 0.390548 0.307304
O O7 0.504129 0.608889 0.249622
O O8 0.794401 0.867953 0.670389
O O9 0.669212 0.183963 0.390941
O O10 0.591738 0.217282 0.612562
#
# Coordination Sequence:
#
# PCOD9412641 Si02
#       6
#     8   8   4   8   4   4
#     4  10  24  42  75  99 138 181 246 285 355 431
#     4  12  25  42  65 106 140 191 230 301 349 430
#     4   9  24  45  80 102 133 185 250 292 352 441
#     4  11  23  45  69 109 136 189 231 304 357 433
#     4  12  28  41  67 103 155 178 246 290 376 414
#     4  11  24  40  71  93 148 179 246 280 362 427
#
# _framework density 21.937498999999999
#
# number of rings (size 3 to 8) (size 9 to 14) (size 15 to 20)
#    0.667    0.444    2.222    3.333    7.778    1.778 
#    0.000    5.556    0.000    0.000    0.000    0.000 
#    0.000    0.000    0.000    0.000    0.000    0.000 
#
# Total GULP energy -200834.706701 kJ/mol
# GULP energy per Si atom -5578.741853 kJ/mol
# Density = 2.188757 g / cm^3
# Si number density = 21.937499 Si / 1000 Ang^3
#
#
#
# Elastic Constant Matrix: (Units=GPa)
#
#
# Indices 1 2 3 4 5 6 
#
# 1 94.0525 36.1080 21.7585 0.0000 0.0000 0.0000
# 2 36.1080 101.0549 49.4621 0.0000 0.0000 0.0000
# 3 21.7585 49.4621 74.0867 0.0000 0.0000 0.0000
# 4 0.0000 0.0000 0.0000 43.0304 0.0000 0.0000
# 5 0.0000 0.0000 0.0000 0.0000 22.1182 0.0000
# 6 0.0000 0.0000 0.0000 0.0000 0.0000 22.5675
#
#
#
# Elastic Compliance Matrix: (Units=1/GPa)
#
#
# Indices 1 2 3 4 5 6 
#
# 1 0.012374 -0.003925 -0.001013 0.000000 0.000000 0.000000
# 2 -0.003925 0.015944 -0.009492 0.000000 0.000000 0.000000
# 3 -0.001013 -0.009492 0.020132 0.000000 0.000000 0.000000
# 4 0.000000 0.000000 0.000000 0.023239 0.000000 0.000000
# 5 0.000000 0.000000 0.000000 0.000000 0.045212 0.000000
# 6 0.000000 0.000000 0.000000 0.000000 0.000000 0.044311
#
#
# Mechanical properties :
#
#
# Convention : Reuss Voigt Hill
#
# Bulk Modulus (GPa) = 51.04889 53.76126 52.40507
# Shear Modulus (GPa) = 25.43193 28.33424 26.88309
#
# Velocity S-wave (km/s) = 3.40853 3.59777 3.50443
# Velocity P-wave (km/s) = 6.22988 6.46671 6.34940
#
# Compressibility (1/GPa) = 0.01958906
#
# Stress axis : x y z
#
# Youngs Moduli (GPa) = 80.81609 62.71962 49.67146
#
# Poissons Ratio (x) = 0.24619 0.05034
# Poissons Ratio (y) = 0.31722 0.47147
# Poissons Ratio (z) = 0.08190 0.59532
#
# Static dielectric constant tensor:
#      x y z
#    x 1.791000 0.000000 0.000000 
#    y 0.000000 1.905300 0.000000 
#    z 0.000000 0.000000 1.856730 
# 
# From -- ./inp_files/12977.got.cif
#   From: 2010.05.17/outbox.cif.g08.bks.cpg/sg52_7_cif.got.tgz:12977.got - 2010.06.03 12:15:38.
