data_PCOD9412580
_publ_section_title
;
Structure prediction by ZEFSAII (Michael W. Deem and Ramdas Pophale) SiO2 
 PCOD9412580
Probable space group: P N N A
;
_chemical_formula_sum "Si O2"
_cell_formula_units_Z 40
_cell_length_a 7.753939
_cell_length_b 7.818551
_cell_length_c 27.040428
_cell_angle_alpha 90.000000
_cell_angle_beta 90.000000
_cell_angle_gamma 90.000000
_cell_volume 1639.314253
_symmetry_space_group_name_H-M "P N N A"
_symmetry_group_IT_number 52
_symmetry_cell_setting 'orthorhombic'
loop_
_space_group_symop_operation_xyz
x,y,z
1/2-x,-y,z
x,1/2-y,1/2-z
1/2-x,1/2+y,1/2-z
-x,-y,-z
1/2+x,y,-z
-x,1/2+y,1/2+z
1/2+x,1/2-y,1/2+z
loop_
_atom_site_type_symbol
_atom_site_label
_atom_site_fract_x
_atom_site_fract_y
_atom_site_fract_z
Si Si1 0.396003 0.618211 0.039101
Si Si2 0.261104 0.297066 0.551518
Si Si3 0.420267 0.731831 0.645101
Si Si4 0.561217 0.036083 0.711077
Si Si5 0.955271 0.114544 0.183023
O O1 0.250000 0.500000 0.065224
O O2 0.550384 0.721864 0.065039
O O3 0.500000 0.500000 0.000000
O O4 0.288925 0.748551 0.004203
O O5 0.250000 0.500000 0.558018
O O6 0.118549 0.219852 0.588692
O O7 0.230669 0.683007 0.665948
O O8 0.515444 0.550338 0.652205
O O9 0.497401 0.885539 0.676095
O O10 0.445585 0.056236 0.759714
O O11 0.570784 0.216526 0.682964
O O12 0.750000 0.000000 0.731192
#
# Coordination Sequence:
#
# PCOD9412580 Si02
#       5
#     8   8   8   8   8
#     4   9  21  40  71 101 133 180 224 291 359 427
#     4  11  21  44  70 104 138 183 235 289 360 434
#     4  11  24  44  71  99 138 184 240 288 342 434
#     4  11  26  42  70  99 138 187 235 299 354 410
#     4  10  24  41  66 100 129 187 240 277 355 412
#
# _framework density 24.400448000000001
#
# number of rings (size 3 to 8) (size 9 to 14) (size 15 to 20)
#    0.000    1.600    2.000    1.800   16.800    4.800 
#    0.000    8.000    8.800    0.000    0.000    0.000 
#    0.000    0.000    0.000    0.000    0.000    0.000 
#
# Total GULP energy -223694.523232 kJ/mol
# GULP energy per Si atom -5592.363081 kJ/mol
# Density = 2.434491 g / cm^3
# Si number density = 24.400448 Si / 1000 Ang^3
#
#
#
# Elastic Constant Matrix: (Units=GPa)
#
#
# Indices 1 2 3 4 5 6 
#
# 1 78.2263 46.3319 12.1694 0.0000 0.0000 0.0000
# 2 46.3319 147.5833 29.1820 0.0000 0.0000 0.0000
# 3 12.1694 29.1820 75.1285 0.0000 0.0000 0.0000
# 4 0.0000 0.0000 0.0000 11.3821 0.0000 0.0000
# 5 0.0000 0.0000 0.0000 0.0000 -22.3821 0.0000
# 6 0.0000 0.0000 0.0000 0.0000 0.0000 23.8367
#
#
#
# Elastic Compliance Matrix: (Units=1/GPa)
#
#
# Indices 1 2 3 4 5 6 
#
# 1 0.015736 -0.004805 -0.000682 0.000000 0.000000 0.000000
# 2 -0.004805 0.008807 -0.002642 0.000000 0.000000 0.000000
# 3 -0.000682 -0.002642 0.014447 0.000000 0.000000 0.000000
# 4 0.000000 0.000000 0.000000 0.087858 0.000000 0.000000
# 5 0.000000 0.000000 0.000000 0.000000 -0.044679 0.000000
# 6 0.000000 0.000000 0.000000 0.000000 0.000000 0.041952
#
#
# Mechanical properties :
#
#
# Convention : Reuss Voigt Hill
#
# Bulk Modulus (GPa) = 43.99494 52.92273 48.45883
# Shear Modulus (GPa) = 33.79346 16.78431 25.28889
#
# Velocity S-wave (km/s) = 3.72553 2.62557 3.22283
# Velocity P-wave (km/s) = 6.04778 5.56128 5.80962
#
# Compressibility (1/GPa) = 0.02272989
#
# Stress axis : x y z
#
# Youngs Moduli (GPa) = 63.55053 113.54845 69.21616
#
# Poissons Ratio (x) = 0.54560 0.04724
# Poissons Ratio (y) = 0.30536 0.18290
# Poissons Ratio (z) = 0.04337 0.30005
#
# Static dielectric constant tensor:
#      x y z
#    x 1.944870 0.000000 0.000000 
#    y 0.000000 1.954190 0.000000 
#    z 0.000000 0.000000 1.952360 
# 
# From -- ./inp_files/44205.got.cif
#   From: 2010.05.17/outbox.cif.g08.bks.cpg/sg52_23_cif.got.tgz:44205.got - 2010.06.03 12:15:38.
