data_PCOD9412048
_publ_section_title
;
Structure prediction by ZEFSAII (Michael W. Deem and Ramdas Pophale) SiO2 
 PCOD9412048
Probable space group: P N N A
;
_chemical_formula_sum "Si O2"
_cell_formula_units_Z 32
_cell_length_a 9.086250
_cell_length_b 10.132546
_cell_length_c 15.264865
_cell_angle_alpha 90.000000
_cell_angle_beta 90.000000
_cell_angle_gamma 90.000000
_cell_volume 1405.387977
_symmetry_space_group_name_H-M "P N N A"
_symmetry_group_IT_number 52
_symmetry_cell_setting 'orthorhombic'
loop_
_space_group_symop_operation_xyz
x,y,z
1/2-x,-y,z
x,1/2-y,1/2-z
1/2-x,1/2+y,1/2-z
-x,-y,-z
1/2+x,y,-z
-x,1/2+y,1/2+z
1/2+x,1/2-y,1/2+z
loop_
_atom_site_type_symbol
_atom_site_label
_atom_site_fract_x
_atom_site_fract_y
_atom_site_fract_z
Si Si1 0.451898 0.920759 0.584872
Si Si2 0.888559 0.410894 0.257654
Si Si3 0.311362 0.233625 0.489991
Si Si4 0.052892 0.398954 0.426375
O O1 0.304363 0.847115 0.550775
O O2 0.596730 0.828803 0.590996
O O3 0.500000 0.000000 0.500000
O O4 0.426998 0.014331 0.667248
O O5 0.750000 0.500000 0.291850
O O6 0.860948 0.250000 0.250000
O O7 0.019543 0.434696 0.326942
O O8 0.214131 0.349267 0.448664
O O9 0.438563 0.280324 0.554916
O O10 0.000000 0.500000 0.500000
#
# Coordination Sequence:
#
# PCOD9412048 Si02
#       4
#     8   8   8   8
#     4  11  22  41  68  96 130 173 225 280 334 402
#     4  12  25  43  70 102 135 181 235 287 345 414
#     4  10  22  43  68  97 136 180 224 279 343 413
#     4  11  23  43  68  99 139 178 224 284 347 405
#
# _framework density 22.769513
#
# number of rings (size 3 to 8) (size 9 to 14) (size 15 to 20)
#    0.000    1.000    0.000    9.000    0.000    2.000 
#    0.000   12.500    0.000   12.000    0.000    0.000 
#    0.000    0.000    0.000    0.000    0.000    0.000 
#
# Total GULP energy -178519.885308 kJ/mol
# GULP energy per Si atom -5578.746416 kJ/mol
# Density = 2.271769 g / cm^3
# Si number density = 22.769513 Si / 1000 Ang^3
#
#
#
# Elastic Constant Matrix: (Units=GPa)
#
#
# Indices 1 2 3 4 5 6 
#
# 1 114.0658 35.0665 16.2565 0.0000 0.0000 0.0000
# 2 35.0665 101.6115 18.3306 0.0000 0.0000 0.0000
# 3 16.2565 18.3306 90.4664 0.0000 0.0000 0.0000
# 4 0.0000 0.0000 0.0000 38.4926 0.0000 0.0000
# 5 0.0000 0.0000 0.0000 0.0000 28.2663 0.0000
# 6 0.0000 0.0000 0.0000 0.0000 0.0000 45.8018
#
#
#
# Elastic Compliance Matrix: (Units=1/GPa)
#
#
# Indices 1 2 3 4 5 6 
#
# 1 0.009917 -0.003219 -0.001130 0.000000 0.000000 0.000000
# 2 -0.003219 0.011259 -0.001703 0.000000 0.000000 0.000000
# 3 -0.001130 -0.001703 0.011602 0.000000 0.000000 0.000000
# 4 0.000000 0.000000 0.000000 0.025979 0.000000 0.000000
# 5 0.000000 0.000000 0.000000 0.000000 0.035378 0.000000
# 6 0.000000 0.000000 0.000000 0.000000 0.000000 0.021833
#
#
# Mechanical properties :
#
#
# Convention : Reuss Voigt Hill
#
# Bulk Modulus (GPa) = 48.36658 49.49455 48.93057
# Shear Modulus (GPa) = 37.04692 38.27814 37.66253
#
# Velocity S-wave (km/s) = 4.03803 4.10459 4.07145
# Velocity P-wave (km/s) = 6.55964 6.65191 6.60594
#
# Compressibility (1/GPa) = 0.02067543
#
# Stress axis : x y z
#
# Youngs Moduli (GPa) = 100.83282 88.81462 86.19239
#
# Poissons Ratio (x) = 0.28587 0.09739
# Poissons Ratio (y) = 0.32455 0.14679
# Poissons Ratio (z) = 0.11394 0.15125
#
# Static dielectric constant tensor:
#      x y z
#    x 1.753850 0.000000 0.000000 
#    y 0.000000 2.106480 0.000000 
#    z 0.000000 0.000000 1.850610 
# 
# From -- ./inp_files/24173.got.cif
#   From: 2010.05.17/outbox.cif.g08.bks.cpg/sg52_13_cif.got.tgz:24173.got - 2010.06.03 12:15:38.
