data_PCOD9412106
_publ_section_title
;
Structure prediction by ZEFSAII (Michael W. Deem and Ramdas Pophale) SiO2 
 PCOD9412106
Probable space group: P N N A
;
_chemical_formula_sum "Si O2"
_cell_formula_units_Z 44
_cell_length_a 6.467930
_cell_length_b 15.600983
_cell_length_c 17.419869
_cell_angle_alpha 90.000000
_cell_angle_beta 90.000000
_cell_angle_gamma 90.000000
_cell_volume 1757.770451
_symmetry_space_group_name_H-M "P N N A"
_symmetry_group_IT_number 52
_symmetry_cell_setting 'orthorhombic'
loop_
_space_group_symop_operation_xyz
x,y,z
1/2-x,-y,z
x,1/2-y,1/2-z
1/2-x,1/2+y,1/2-z
-x,-y,-z
1/2+x,y,-z
-x,1/2+y,1/2+z
1/2+x,1/2-y,1/2+z
loop_
_atom_site_type_symbol
_atom_site_label
_atom_site_fract_x
_atom_site_fract_y
_atom_site_fract_z
Si Si1 0.122406 0.584188 0.175837
Si Si2 0.639651 0.170782 0.204986
Si Si3 0.500000 0.000000 0.000000
Si Si4 0.750000 0.000000 0.416616
Si Si5 0.750000 0.000000 0.150725
Si Si6 0.591592 0.302079 0.475776
Si Si7 0.328950 0.163395 0.482744
O O1 0.250000 0.500000 0.197235
O O2 0.215880 0.641137 0.107030
O O3 0.062891 0.643177 0.247527
O O4 0.915732 0.546575 0.136901
O O5 0.737380 0.250000 0.250000
O O6 0.600837 0.194216 0.117128
O O7 0.771117 0.084403 0.200873
O O8 0.597220 0.097882 0.992887
O O9 0.557913 0.002522 0.091916
O O10 0.847977 0.073434 0.469900
O O11 0.338224 0.279708 0.495965
O O12 0.586434 0.187804 0.486535
#
# Coordination Sequence:
#
# PCOD9412106 Si02
#       7
#     8   8   4   4   4   8   8
#     4  12  25  43  70 105 146 193 238 288 377 448
#     4  11  22  44  64  99 148 187 228 300 373 440
#     4  10  22  44  66 102 128 180 252 306 348 416
#     4  12  23  44  72 103 152 174 238 314 358 437
#     4  10  23  44  74  99 136 188 242 304 368 427
#     4  11  23  39  68  95 138 178 242 301 351 420
#     4  12  21  40  68 104 130 184 234 297 361 428
#
# _framework density 25.03171
#
# number of rings (size 3 to 8) (size 9 to 14) (size 15 to 20)
#    0.000    0.727    4.545    4.364    0.000    0.000 
#   13.091    1.818    0.000    1.091    0.000    0.000 
#    0.000    0.000    0.000    0.000    0.000    0.000 
#
# Total GULP energy -244947.595904 kJ/mol
# GULP energy per Si atom -5566.990816 kJ/mol
# Density = 2.497474 g / cm^3
# Si number density = 25.031710 Si / 1000 Ang^3
#
#
#
# Elastic Constant Matrix: (Units=GPa)
#
#
# Indices 1 2 3 4 5 6 
#
# 1 76.1017 45.2937 35.3648 0.0000 0.0000 0.0000
# 2 45.2937 194.0295 74.6576 0.0000 0.0000 0.0000
# 3 35.3648 74.6576 148.1991 0.0000 0.0000 0.0000
# 4 0.0000 0.0000 0.0000 26.3931 0.0000 0.0000
# 5 0.0000 0.0000 0.0000 0.0000 2.4973 0.0000
# 6 0.0000 0.0000 0.0000 0.0000 0.0000 12.7974
#
#
#
# Elastic Compliance Matrix: (Units=1/GPa)
#
#
# Indices 1 2 3 4 5 6 
#
# 1 0.015915 -0.002796 -0.002389 0.000000 0.000000 0.000000
# 2 -0.002796 0.006884 -0.002801 0.000000 0.000000 0.000000
# 3 -0.002389 -0.002801 0.008729 0.000000 0.000000 0.000000
# 4 0.000000 0.000000 0.000000 0.037889 0.000000 0.000000
# 5 0.000000 0.000000 0.000000 0.000000 0.400429 0.000000
# 6 0.000000 0.000000 0.000000 0.000000 0.000000 0.078141
#
#
# Mechanical properties :
#
#
# Convention : Reuss Voigt Hill
#
# Bulk Modulus (GPa) = 64.28476 80.99583 72.64030
# Shear Modulus (GPa) = 8.78514 25.87185 17.32849
#
# Velocity S-wave (km/s) = 1.87543 3.21840 2.63394
# Velocity P-wave (km/s) = 5.51604 6.79987 6.19132
#
# Compressibility (1/GPa) = 0.01555579
#
# Stress axis : x y z
#
# Youngs Moduli (GPa) = 62.83551 145.26053 114.56299
#
# Poissons Ratio (x) = 0.40611 0.27373
# Poissons Ratio (y) = 0.17567 0.32088
# Poissons Ratio (z) = 0.15013 0.40686
#
# Static dielectric constant tensor:
#      x y z
#    x 2.133200 0.000000 0.000000 
#    y 0.000000 2.060250 0.000000 
#    z 0.000000 0.000000 1.998940 
# 
# From -- ./inp_files/31194.got.cif
#   From: 2010.05.17/outbox.cif.g08.bks.cpg/sg52_16_cif.got.tgz:31194.got - 2010.06.03 12:15:38.
