data_PCOD9412387
_publ_section_title
;
Structure prediction by ZEFSAII (Michael W. Deem and Ramdas Pophale) SiO2 
 PCOD9412387
Probable space group: P N N A
;
_chemical_formula_sum "Si O2"
_cell_formula_units_Z 40
_cell_length_a 12.359401
_cell_length_b 21.248066
_cell_length_c 6.753888
_cell_angle_alpha 90.000000
_cell_angle_beta 90.000000
_cell_angle_gamma 90.000000
_cell_volume 1773.661276
_symmetry_space_group_name_H-M "P N N A"
_symmetry_group_IT_number 52
_symmetry_cell_setting 'orthorhombic'
loop_
_space_group_symop_operation_xyz
x,y,z
1/2-x,-y,z
x,1/2-y,1/2-z
1/2-x,1/2+y,1/2-z
-x,-y,-z
1/2+x,y,-z
-x,1/2+y,1/2+z
1/2+x,1/2-y,1/2+z
loop_
_atom_site_type_symbol
_atom_site_label
_atom_site_fract_x
_atom_site_fract_y
_atom_site_fract_z
Si Si1 0.345986 0.824936 0.050053
Si Si2 0.142238 0.382667 0.039841
Si Si3 0.977795 0.280088 0.950688
Si Si4 0.521268 0.438016 0.623032
Si Si5 0.324561 0.146446 0.739686
O O1 0.438096 0.772683 0.027504
O O2 0.245765 0.818049 0.905312
O O3 0.318559 0.836280 0.280515
O O4 0.400846 0.892073 0.999569
O O5 0.083549 0.438751 0.162437
O O6 0.243420 0.393105 0.900082
O O7 0.052901 0.341965 0.922316
O O8 0.932642 0.250000 0.750000
O O9 0.889953 0.304737 0.103967
O O10 0.500000 0.500000 0.500000
O O11 0.411260 0.399790 0.661543
#
# Coordination Sequence:
#
# PCOD9412387 Si02
#       5
#     8   8   8   8   8
#     4  10  23  43  68 103 150 180 250 280 367 446
#     4   9  22  43  67 105 144 183 243 290 361 448
#     4  11  22  40  69 106 151 186 228 297 365 448
#     4   9  23  46  73  99 144 188 248 304 350 418
#     4  11  23  44  74 104 150 199 225 304 378 417
#
# _framework density 22.552218
#
# number of rings (size 3 to 8) (size 9 to 14) (size 15 to 20)
#    1.200    0.800    2.000    0.600    0.000    7.200 
#    0.000    1.000    8.800    0.000    0.000    0.000 
#    0.000    0.000    0.000    0.000    0.000    0.000 
#
# Total GULP energy -223257.584557 kJ/mol
# GULP energy per Si atom -5581.439614 kJ/mol
# Density = 2.250089 g / cm^3
# Si number density = 22.552218 Si / 1000 Ang^3
#
#
#
# Elastic Constant Matrix: (Units=GPa)
#
#
# Indices 1 2 3 4 5 6 
#
# 1 121.8016 44.6244 50.7504 0.0000 0.0000 0.0000
# 2 44.6244 94.1417 53.4017 0.0000 0.0000 0.0000
# 3 50.7504 53.4017 107.7854 0.0000 0.0000 0.0000
# 4 0.0000 0.0000 0.0000 45.4053 0.0000 0.0000
# 5 0.0000 0.0000 0.0000 0.0000 48.3520 0.0000
# 6 0.0000 0.0000 0.0000 0.0000 0.0000 14.3661
#
#
#
# Elastic Compliance Matrix: (Units=1/GPa)
#
#
# Indices 1 2 3 4 5 6 
#
# 1 0.010834 -0.003118 -0.003556 0.000000 0.000000 0.000000
# 2 -0.003118 0.015672 -0.006296 0.000000 0.000000 0.000000
# 3 -0.003556 -0.006296 0.014072 0.000000 0.000000 0.000000
# 4 0.000000 0.000000 0.000000 0.022024 0.000000 0.000000
# 5 0.000000 0.000000 0.000000 0.000000 0.020682 0.000000
# 6 0.000000 0.000000 0.000000 0.000000 0.000000 0.069608
#
#
# Mechanical properties :
#
#
# Convention : Reuss Voigt Hill
#
# Bulk Modulus (GPa) = 68.32476 69.03131 68.67803
# Shear Modulus (GPa) = 27.21642 33.28816 30.25229
#
# Velocity S-wave (km/s) = 3.47770 3.84611 3.66653
# Velocity P-wave (km/s) = 6.81820 7.09925 6.96014
#
# Compressibility (1/GPa) = 0.01463598
#
# Stress axis : x y z
#
# Youngs Moduli (GPa) = 92.29923 63.80804 71.06447
#
# Poissons Ratio (x) = 0.19897 0.25273
# Poissons Ratio (y) = 0.28781 0.44745
# Poissons Ratio (z) = 0.32825 0.40176
#
# Static dielectric constant tensor:
#      x y z
#    x 1.832470 0.000000 0.000000 
#    y 0.000000 1.827090 0.000000 
#    z 0.000000 0.000000 1.903650 
# 
# From -- ./inp_files/1389.got.cif
#   From: 2010.05.17/outbox.cif.g08.bks.cpg/sg52_1_cif.got.tgz:1389.got - 2010.06.03 12:15:38.
