data_PCOD9412135
_publ_section_title
;
Structure prediction by ZEFSAII (Michael W. Deem and Ramdas Pophale) SiO2 
 PCOD9412135
Probable space group: P N N A
;
_chemical_formula_sum "Si O2"
_cell_formula_units_Z 40
_cell_length_a 28.830836
_cell_length_b 4.744248
_cell_length_c 11.723037
_cell_angle_alpha 90.000000
_cell_angle_beta 90.000000
_cell_angle_gamma 90.000000
_cell_volume 1603.484457
_symmetry_space_group_name_H-M "P N N A"
_symmetry_group_IT_number 52
_symmetry_cell_setting 'orthorhombic'
loop_
_space_group_symop_operation_xyz
x,y,z
1/2-x,-y,z
x,1/2-y,1/2-z
1/2-x,1/2+y,1/2-z
-x,-y,-z
1/2+x,y,-z
-x,1/2+y,1/2+z
1/2+x,1/2-y,1/2+z
loop_
_atom_site_type_symbol
_atom_site_label
_atom_site_fract_x
_atom_site_fract_y
_atom_site_fract_z
Si Si1 0.699378 0.850522 0.496545
Si Si2 0.385633 0.183422 0.370804
Si Si3 0.964376 0.018970 0.330879
Si Si4 0.284827 0.250000 0.750000
Si Si5 0.750000 0.000000 0.836743
Si Si6 0.054950 0.273909 0.434944
O O1 0.653356 0.965197 0.552657
O O2 0.688327 0.809614 0.364676
O O3 0.708951 0.578095 0.575749
O O4 0.750000 0.000000 0.500744
O O5 0.362960 0.250000 0.250000
O O6 0.415417 0.440031 0.424469
O O7 0.422913 0.946574 0.347516
O O8 0.979550 0.750000 0.250000
O O9 0.941052 0.861310 0.438499
O O10 0.938771 0.250000 0.250000
O O11 0.001578 0.232087 0.394648
O O12 0.250000 0.500000 0.718825
O O13 0.761462 0.750000 0.750000
#
# Coordination Sequence:
#
# PCOD9412135 Si02
#       6
#     8   8   8   4   4   8
#     4  11  26  46  72 101 137 190 242 293 364 427
#     4  12  26  43  67 103 147 184 235 301 366 423
#     4  11  22  43  75 102 138 188 240 292 351 443
#     4  10  22  44  70  92 126 174 238 288 342 428
#     4  12  24  40  66 100 134 174 236 292 344 420
#     4  11  25  44  67 105 142 186 237 289 366 428
#
# _framework density 24.945675000000001
#
# number of rings (size 3 to 8) (size 9 to 14) (size 15 to 20)
#    0.000    0.800    2.000    5.400    2.800    3.200 
#    5.400    0.000    0.000    0.000    0.000    0.000 
#    0.000    0.000    0.000    0.000    0.000    0.000 
#
# Total GULP energy -223066.653860 kJ/mol
# GULP energy per Si atom -5576.666347 kJ/mol
# Density = 2.488890 g / cm^3
# Si number density = 24.945675 Si / 1000 Ang^3
#
#
#
# Elastic Constant Matrix: (Units=GPa)
#
#
# Indices 1 2 3 4 5 6 
#
# 1 68.0670 23.0169 38.6437 0.0000 0.0000 0.0000
# 2 23.0169 130.1327 28.4903 0.0000 0.0000 0.0000
# 3 38.6437 28.4903 187.4342 0.0000 0.0000 0.0000
# 4 0.0000 0.0000 0.0000 34.7575 0.0000 0.0000
# 5 0.0000 0.0000 0.0000 0.0000 27.9560 0.0000
# 6 0.0000 0.0000 0.0000 0.0000 0.0000 17.4358
#
#
#
# Elastic Compliance Matrix: (Units=1/GPa)
#
#
# Indices 1 2 3 4 5 6 
#
# 1 0.017312 -0.002359 -0.003211 0.000000 0.000000 0.000000
# 2 -0.002359 0.008270 -0.000771 0.000000 0.000000 0.000000
# 3 -0.003211 -0.000771 0.006114 0.000000 0.000000 0.000000
# 4 0.000000 0.000000 0.000000 0.028771 0.000000 0.000000
# 5 0.000000 0.000000 0.000000 0.000000 0.035770 0.000000
# 6 0.000000 0.000000 0.000000 0.000000 0.000000 0.057353
#
#
# Mechanical properties :
#
#
# Convention : Reuss Voigt Hill
#
# Bulk Modulus (GPa) = 52.58808 62.88176 57.73492
# Shear Modulus (GPa) = 28.96691 35.72874 32.34782
#
# Velocity S-wave (km/s) = 3.41133 3.78863 3.60492
# Velocity P-wave (km/s) = 6.05335 6.66337 6.36567
#
# Compressibility (1/GPa) = 0.01901572
#
# Stress axis : x y z
#
# Youngs Moduli (GPa) = 57.76368 120.91218 163.55087
#
# Poissons Ratio (x) = 0.28524 0.52510
# Poissons Ratio (y) = 0.13627 0.12606
# Poissons Ratio (z) = 0.18546 0.09319
#
# Static dielectric constant tensor:
#      x y z
#    x 2.002600 0.000000 0.000000 
#    y 0.000000 2.078760 0.000000 
#    z 0.000000 0.000000 2.019670 
# 
# From -- ./inp_files/23060.got.cif
#   From: 2010.05.17/outbox.cif.g08.bks.cpg/sg52_12_cif.got.tgz:23060.got - 2010.06.03 12:15:38.
