data_PCOD9412058
_publ_section_title
;
Structure prediction by ZEFSAII (Michael W. Deem and Ramdas Pophale) SiO2 
 PCOD9412058
Probable space group: P N N A
;
_chemical_formula_sum "Si O2"
_cell_formula_units_Z 44
_cell_length_a 11.117285
_cell_length_b 22.487874
_cell_length_c 9.292696
_cell_angle_alpha 90.000000
_cell_angle_beta 90.000000
_cell_angle_gamma 90.000000
_cell_volume 2323.212140
_symmetry_space_group_name_H-M "P N N A"
_symmetry_group_IT_number 52
_symmetry_cell_setting 'orthorhombic'
loop_
_space_group_symop_operation_xyz
x,y,z
1/2-x,-y,z
x,1/2-y,1/2-z
1/2-x,1/2+y,1/2-z
-x,-y,-z
1/2+x,y,-z
-x,1/2+y,1/2+z
1/2+x,1/2-y,1/2+z
loop_
_atom_site_type_symbol
_atom_site_label
_atom_site_fract_x
_atom_site_fract_y
_atom_site_fract_z
Si Si1 0.861361 0.860435 0.719276
Si Si2 0.026671 0.815331 0.965076
Si Si3 0.920706 0.698240 0.078680
Si Si4 0.910772 0.115817 0.766201
Si Si5 0.110060 0.006752 0.386543
Si Si6 0.705637 0.750000 0.250000
O O1 0.916312 0.836117 0.866495
O O2 0.908392 0.822403 0.585415
O O3 0.718140 0.857375 0.724307
O O4 0.896614 0.928692 0.686834
O O5 0.125869 0.790590 0.854804
O O6 0.989387 0.761118 0.069799
O O7 0.067431 0.868543 0.067900
O O8 0.792180 0.710011 0.150955
O O9 0.990521 0.648575 0.168388
O O10 0.906400 0.046532 0.727144
O O11 0.250000 0.000000 0.443872
O O12 0.000000 0.000000 0.500000
#
# Coordination Sequence:
#
# PCOD9412058 Si02
#       6
#     8   8   8   8   8   4
#     4  11  24  42  67  91 132 166 219 273 324 392
#     4  12  24  41  62  96 131 169 213 267 332 388
#     4  12  22  40  65  94 125 171 215 263 328 395
#     4  11  24  42  65  94 131 167 216 273 327 386
#     4  10  22  43  69  97 127 175 225 271 325 395
#     4  12  24  38  64  96 132 172 220 262 338 398
#
# _framework density 18.939295000000001
#
# number of rings (size 3 to 8) (size 9 to 14) (size 15 to 20)
#    0.000    0.727    5.455    2.182    0.000    2.182 
#    0.000    0.000    0.000    0.000    0.000    0.000 
#    0.000    0.000    0.000    0.000    0.000    0.000 
#
# Total GULP energy -245852.976776 kJ/mol
# GULP energy per Si atom -5587.567654 kJ/mol
# Density = 1.889619 g / cm^3
# Si number density = 18.939295 Si / 1000 Ang^3
#
#
#
# Elastic Constant Matrix: (Units=GPa)
#
#
# Indices 1 2 3 4 5 6 
#
# 1 63.5782 16.0542 8.3434 0.0000 0.0000 0.0000
# 2 16.0542 63.6936 7.0272 0.0000 0.0000 0.0000
# 3 8.3434 7.0272 72.7038 0.0000 0.0000 0.0000
# 4 0.0000 0.0000 0.0000 30.4688 0.0000 0.0000
# 5 0.0000 0.0000 0.0000 0.0000 -175.7507 0.0000
# 6 0.0000 0.0000 0.0000 0.0000 0.0000 28.0497
#
#
#
# Elastic Compliance Matrix: (Units=1/GPa)
#
#
# Indices 1 2 3 4 5 6 
#
# 1 0.016969 -0.004106 -0.001550 0.000000 0.000000 0.000000
# 2 -0.004106 0.016863 -0.001159 0.000000 0.000000 0.000000
# 3 -0.001550 -0.001159 0.014044 0.000000 0.000000 0.000000
# 4 0.000000 0.000000 0.000000 0.032820 0.000000 0.000000
# 5 0.000000 0.000000 0.000000 0.000000 -0.005690 0.000000
# 6 0.000000 0.000000 0.000000 0.000000 0.000000 0.035651
#
#
# Mechanical properties :
#
#
# Convention : Reuss Voigt Hill
#
# Bulk Modulus (GPa) = 29.20059 29.20281 29.20170
# Shear Modulus (GPa) = 36.84506 -12.20970 12.31768
#
# Velocity S-wave (km/s) = 4.41549 -2.54180 2.55302
# Velocity P-wave (km/s) = 6.43792 2.61501 4.91351
#
# Compressibility (1/GPa) = 0.03424588
#
# Stress axis : x y z
#
# Youngs Moduli (GPa) = 58.93124 59.30165 71.20298
#
# Poissons Ratio (x) = 0.24349 0.11040
# Poissons Ratio (y) = 0.24197 0.08250
# Poissons Ratio (z) = 0.09137 0.06871
#
# Static dielectric constant tensor:
#      x y z
#    x 1.663380 0.000000 0.000000 
#    y 0.000000 1.641560 0.000000 
#    z 0.000000 0.000000 1.622700 
# 
# From -- ./inp_files/8803.got.cif
#   From: 2010.05.17/outbox.cif.g08.bks.cpg/sg52_5_cif.got.tgz:8803.got - 2010.06.03 12:15:38.
