data_PCOD9412235
_publ_section_title
;
Structure prediction by ZEFSAII (Michael W. Deem and Ramdas Pophale) SiO2 
 PCOD9412235
Probable space group: P N N A
;
_chemical_formula_sum "Si O2"
_cell_formula_units_Z 56
_cell_length_a 19.153649
_cell_length_b 8.586617
_cell_length_c 15.624500
_cell_angle_alpha 90.000000
_cell_angle_beta 90.000000
_cell_angle_gamma 90.000000
_cell_volume 2569.684144
_symmetry_space_group_name_H-M "P N N A"
_symmetry_group_IT_number 52
_symmetry_cell_setting 'orthorhombic'
loop_
_space_group_symop_operation_xyz
x,y,z
1/2-x,-y,z
x,1/2-y,1/2-z
1/2-x,1/2+y,1/2-z
-x,-y,-z
1/2+x,y,-z
-x,1/2+y,1/2+z
1/2+x,1/2-y,1/2+z
loop_
_atom_site_type_symbol
_atom_site_label
_atom_site_fract_x
_atom_site_fract_y
_atom_site_fract_z
Si Si1 0.190394 0.871311 0.173698
Si Si2 0.311188 0.375906 0.673626
Si Si3 0.843421 0.210018 0.496087
Si Si4 0.069321 0.436822 0.237496
Si Si5 0.563332 0.106554 0.196099
Si Si6 0.498657 0.821867 0.978717
Si Si7 0.076037 0.055459 0.461012
O O1 0.204935 0.750000 0.250000
O O2 0.185350 0.776811 0.085034
O O3 0.250000 0.000000 0.167544
O O4 0.120515 0.966117 0.200533
O O5 0.250000 0.500000 0.688813
O O6 0.317879 0.250000 0.750000
O O7 0.304600 0.280367 0.585121
O O8 0.378933 0.486227 0.664743
O O9 0.924823 0.262902 0.496920
O O10 0.857580 0.023935 0.494003
O O11 0.074326 0.250000 0.250000
O O12 0.084806 0.478524 0.138883
O O13 0.991763 0.500036 0.253650
O O14 0.594028 0.250000 0.250000
O O15 0.520360 0.190574 0.120589
O O16 0.435436 0.738447 0.028142
O O17 0.500000 0.000000 0.000000
O O18 0.000000 0.000000 0.500000
#
# Coordination Sequence:
#
# PCOD9412235 Si02
#       7
#     8   8   8   8   8   8   8
#     4  12  25  47  69 101 146 185 234 290 359 438
#     4  12  29  50  72 100 140 191 251 306 361 432
#     4  11  23  46  72 101 142 190 233 292 362 429
#     4  12  24  41  69 108 141 185 233 292 358 429
#     4  12  24  41  72 103 140 183 231 300 367 416
#     4  11  21  39  66 109 144 171 232 285 354 430
#     4  10  23  38  66 106 147 178 231 294 350 421
#
# _framework density 21.792563000000001
#
# number of rings (size 3 to 8) (size 9 to 14) (size 15 to 20)
#    0.000    0.571    4.286    4.714    8.000    0.000 
#    0.000    0.714    0.000    0.000    0.000    0.000 
#    0.000    0.000    0.000    0.000    0.000    0.000 
#
# Total GULP energy -312833.375027 kJ/mol
# GULP energy per Si atom -5586.310268 kJ/mol
# Density = 2.174296 g / cm^3
# Si number density = 21.792563 Si / 1000 Ang^3
#
#
#
# Elastic Constant Matrix: (Units=GPa)
#
#
# Indices 1 2 3 4 5 6 
#
# 1 40.4055 29.4867 -4.8960 0.0000 0.0000 0.0000
# 2 29.4867 80.8534 18.1638 0.0000 0.0000 0.0000
# 3 -4.8960 18.1638 102.7648 0.0000 0.0000 0.0000
# 4 0.0000 0.0000 0.0000 30.1611 0.0000 0.0000
# 5 0.0000 0.0000 0.0000 0.0000 14.3213 0.0000
# 6 0.0000 0.0000 0.0000 0.0000 0.0000 31.4176
#
#
#
# Elastic Compliance Matrix: (Units=1/GPa)
#
#
# Indices 1 2 3 4 5 6 
#
# 1 0.035327 -0.013810 0.004124 0.000000 0.000000 0.000000
# 2 -0.013810 0.018278 -0.003889 0.000000 0.000000 0.000000
# 3 0.004124 -0.003889 0.010615 0.000000 0.000000 0.000000
# 4 0.000000 0.000000 0.000000 0.033155 0.000000 0.000000
# 5 0.000000 0.000000 0.000000 0.000000 0.069826 0.000000
# 6 0.000000 0.000000 0.000000 0.000000 0.000000 0.031829
#
#
# Mechanical properties :
#
#
# Convention : Reuss Voigt Hill
#
# Bulk Modulus (GPa) = 26.97559 34.39252 30.68405
# Shear Modulus (GPa) = 20.96119 27.26462 24.11290
#
# Velocity S-wave (km/s) = 3.10474 3.54092 3.32998
# Velocity P-wave (km/s) = 5.02571 5.70382 5.37547
#
# Compressibility (1/GPa) = 0.03707055
#
# Stress axis : x y z
#
# Youngs Moduli (GPa) = 28.30711 54.71052 94.20850
#
# Poissons Ratio (x) = 0.75555 -0.38851
# Poissons Ratio (y) = 0.39092 0.36634
# Poissons Ratio (z) = -0.11674 0.21275
#
# Static dielectric constant tensor:
#      x y z
#    x 1.913810 0.000000 0.000000 
#    y 0.000000 1.838110 0.000000 
#    z 0.000000 0.000000 1.539320 
# 
# From -- ./inp_files/28790.got.cif
#   From: 2010.05.17/outbox.cif.g08.bks.cpg/sg52_15_cif.got.tgz:28790.got - 2010.06.03 12:15:38.
