data_PCOD9412259
_publ_section_title
;
Structure prediction by ZEFSAII (Michael W. Deem and Ramdas Pophale) SiO2 
 PCOD9412259
Probable space group: P N N A
;
_chemical_formula_sum "Si O2"
_cell_formula_units_Z 48
_cell_length_a 18.251334
_cell_length_b 5.199538
_cell_length_c 23.588805
_cell_angle_alpha 90.000000
_cell_angle_beta 90.000000
_cell_angle_gamma 90.000000
_cell_volume 2238.542322
_symmetry_space_group_name_H-M "P N N A"
_symmetry_group_IT_number 52
_symmetry_cell_setting 'orthorhombic'
loop_
_space_group_symop_operation_xyz
x,y,z
1/2-x,-y,z
x,1/2-y,1/2-z
1/2-x,1/2+y,1/2-z
-x,-y,-z
1/2+x,y,-z
-x,1/2+y,1/2+z
1/2+x,1/2-y,1/2+z
loop_
_atom_site_type_symbol
_atom_site_label
_atom_site_fract_x
_atom_site_fract_y
_atom_site_fract_z
Si Si1 0.681291 0.688895 0.069301
Si Si2 0.469554 0.390860 0.381269
Si Si3 0.666453 0.999350 0.953439
Si Si4 0.934703 0.665046 0.025569
Si Si5 0.010202 0.611238 0.810597
Si Si6 0.319770 0.328147 0.813522
O O1 0.750000 0.500000 0.060936
O O2 0.611763 0.503449 0.069064
O O3 0.678678 0.842890 0.128928
O O4 0.674271 0.856095 0.013586
O O5 0.388604 0.375286 0.408395
O O6 0.525044 0.372768 0.435046
O O7 0.485928 0.665441 0.353631
O O8 0.479857 0.160220 0.335237
O O9 0.750000 0.000000 0.931394
O O10 0.621044 0.248625 0.975889
O O11 0.000000 0.500000 0.000000
O O12 0.990612 0.750000 0.750000
O O13 0.098021 0.566697 0.807684
O O14 0.250000 0.500000 0.828219
O O15 0.301990 0.250000 0.750000
#
# Coordination Sequence:
#
# PCOD9412259 Si02
#       6
#     8   8   8   8   8   8
#     4  11  22  41  61  94 140 182 231 276 343 406
#     4  12  25  44  71 103 137 180 232 285 346 414
#     4  12  26  41  67 100 138 185 223 289 349 423
#     4  12  23  40  65 100 143 181 228 280 343 416
#     4  11  25  47  71 100 137 179 233 290 346 406
#     4  10  23  40  60  93 135 190 235 280 327 396
#
# _framework density 21.442523999999999
#
# number of rings (size 3 to 8) (size 9 to 14) (size 15 to 20)
#    0.000    0.667    5.000    3.000    0.000    3.333 
#    0.000    0.000    0.000    2.000    0.000    0.000 
#    0.000    0.000    0.000    0.000    0.000    0.000 
#
# Total GULP energy -267592.673751 kJ/mol
# GULP energy per Si atom -5574.847370 kJ/mol
# Density = 2.139372 g / cm^3
# Si number density = 21.442524 Si / 1000 Ang^3
#
#
#
# Elastic Constant Matrix: (Units=GPa)
#
#
# Indices 1 2 3 4 5 6 
#
# 1 153.5724 32.9874 35.5492 0.0000 0.0000 0.0000
# 2 32.9874 69.6196 19.4697 0.0000 0.0000 0.0000
# 3 35.5492 19.4697 91.9443 0.0000 0.0000 0.0000
# 4 0.0000 0.0000 0.0000 47.1544 0.0000 0.0000
# 5 0.0000 0.0000 0.0000 0.0000 37.7568 0.0000
# 6 0.0000 0.0000 0.0000 0.0000 0.0000 36.7363
#
#
#
# Elastic Compliance Matrix: (Units=1/GPa)
#
#
# Indices 1 2 3 4 5 6 
#
# 1 0.007696 -0.002992 -0.002342 0.000000 0.000000 0.000000
# 2 -0.002992 0.016431 -0.002323 0.000000 0.000000 0.000000
# 3 -0.002342 -0.002323 0.012274 0.000000 0.000000 0.000000
# 4 0.000000 0.000000 0.000000 0.021207 0.000000 0.000000
# 5 0.000000 0.000000 0.000000 0.000000 0.026485 0.000000
# 6 0.000000 0.000000 0.000000 0.000000 0.000000 0.027221
#
#
# Mechanical properties :
#
#
# Convention : Reuss Voigt Hill
#
# Bulk Modulus (GPa) = 47.42089 54.57209 50.99649
# Shear Modulus (GPa) = 37.40939 39.47152 38.44046
#
# Velocity S-wave (km/s) = 4.18141 4.29512 4.23865
# Velocity P-wave (km/s) = 6.74356 7.07835 6.91298
#
# Compressibility (1/GPa) = 0.02108775
#
# Stress axis : x y z
#
# Youngs Moduli (GPa) = 129.93109 60.86109 81.47601
#
# Poissons Ratio (x) = 0.18208 0.19083
# Poissons Ratio (y) = 0.38872 0.18924
# Poissons Ratio (z) = 0.30433 0.14136
#
# Static dielectric constant tensor:
#      x y z
#    x 1.817060 0.000000 0.000000 
#    y 0.000000 1.878380 0.000000 
#    z 0.000000 0.000000 1.834540 
# 
# From -- ./inp_files/40821.got.cif
#   From: 2010.05.17/outbox.cif.g08.bks.cpg/sg52_21_cif.got.tgz:40821.got - 2010.06.03 12:15:38.
