data_PCOD9412279
_publ_section_title
;
Structure prediction by ZEFSAII (Michael W. Deem and Ramdas Pophale) SiO2 
 PCOD9412279
Probable space group: P N N A
;
_chemical_formula_sum "Si O2"
_cell_formula_units_Z 56
_cell_length_a 15.050545
_cell_length_b 14.828838
_cell_length_c 11.484094
_cell_angle_alpha 90.000000
_cell_angle_beta 90.000000
_cell_angle_gamma 90.000000
_cell_volume 2563.044142
_symmetry_space_group_name_H-M "P N N A"
_symmetry_group_IT_number 52
_symmetry_cell_setting 'orthorhombic'
loop_
_space_group_symop_operation_xyz
x,y,z
1/2-x,-y,z
x,1/2-y,1/2-z
1/2-x,1/2+y,1/2-z
-x,-y,-z
1/2+x,y,-z
-x,1/2+y,1/2+z
1/2+x,1/2-y,1/2+z
loop_
_atom_site_type_symbol
_atom_site_label
_atom_site_fract_x
_atom_site_fract_y
_atom_site_fract_z
Si Si1 0.204250 0.905032 0.056742
Si Si2 0.021691 0.088935 0.575605
Si Si3 0.392394 0.186204 0.588623
Si Si4 0.037800 0.519834 0.323315
Si Si5 0.781368 0.896180 0.506555
Si Si6 0.339135 0.848431 0.235044
Si Si7 0.609109 0.611725 0.340916
O O1 0.103863 0.914923 0.105780
O O2 0.264570 0.839511 0.134204
O O3 0.250000 0.000000 0.081669
O O4 0.198927 0.894387 0.917603
O O5 0.124614 0.112743 0.558670
O O6 0.959604 0.160734 0.512773
O O7 0.991500 0.070144 0.706218
O O8 0.000000 0.000000 0.500000
O O9 0.293022 0.171473 0.541093
O O10 0.418179 0.287087 0.623891
O O11 0.393025 0.119433 0.700978
O O12 0.092338 0.427859 0.294502
O O13 0.948952 0.475426 0.376553
O O14 0.795683 0.878345 0.643352
O O15 0.750000 0.000000 0.492092
O O16 0.381966 0.750000 0.250000
#
# Coordination Sequence:
#
# PCOD9412279 Si02
#       7
#     8   8   8   8   8   8   8
#     4  10  23  41  59  88 122 166 212 248 302 385
#     4  12  21  39  64  97 121 157 210 263 312 372
#     4  11  24  39  62  94 126 157 209 260 317 372
#     4  11  22  39  64  89 121 163 212 255 308 383
#     4  12  21  37  64  91 121 159 201 261 309 362
#     4  11  22  35  61  91 123 157 205 259 314 364
#     4  11  23  41  60  86 127 166 201 258 316 372
#
# _framework density 21.849019999999999
#
# number of rings (size 3 to 8) (size 9 to 14) (size 15 to 20)
#    0.000    0.857    4.286    3.429    4.000    1.714 
#    0.000    0.000    3.143    0.000    0.000    0.000 
#    0.000    0.000    0.000    0.000    0.000    0.000 
#
# Total GULP energy -312628.334078 kJ/mol
# GULP energy per Si atom -5582.648823 kJ/mol
# Density = 2.179929 g / cm^3
# Si number density = 21.849020 Si / 1000 Ang^3
#
#
#
# Elastic Constant Matrix: (Units=GPa)
#
#
# Indices 1 2 3 4 5 6 
#
# 1 99.0812 3.2693 33.7243 0.0000 0.0000 0.0000
# 2 3.2693 42.4406 -2.9430 0.0000 0.0000 0.0000
# 3 33.7243 -2.9430 86.7476 0.0000 0.0000 0.0000
# 4 0.0000 0.0000 0.0000 20.7934 0.0000 0.0000
# 5 0.0000 0.0000 0.0000 0.0000 37.5418 0.0000
# 6 0.0000 0.0000 0.0000 0.0000 0.0000 11.8973
#
#
#
# Elastic Compliance Matrix: (Units=1/GPa)
#
#
# Indices 1 2 3 4 5 6 
#
# 1 0.011694 -0.001219 -0.004588 0.000000 0.000000 0.000000
# 2 -0.001219 0.023745 0.001279 0.000000 0.000000 0.000000
# 3 -0.004588 0.001279 0.013355 0.000000 0.000000 0.000000
# 4 0.000000 0.000000 0.000000 0.048092 0.000000 0.000000
# 5 0.000000 0.000000 0.000000 0.000000 0.026637 0.000000
# 6 0.000000 0.000000 0.000000 0.000000 0.000000 0.084053
#
#
# Mechanical properties :
#
#
# Convention : Reuss Voigt Hill
#
# Bulk Modulus (GPa) = 25.16383 32.93005 29.04694
# Shear Modulus (GPa) = 21.75078 26.99443 24.37260
#
# Velocity S-wave (km/s) = 3.15858 3.51878 3.34354
# Velocity P-wave (km/s) = 4.98441 5.62258 5.31309
#
# Compressibility (1/GPa) = 0.03973958
#
# Stress axis : x y z
#
# Youngs Moduli (GPa) = 85.51045 42.11422 74.88028
#
# Poissons Ratio (x) = 0.05134 0.34353
# Poissons Ratio (y) = 0.10424 -0.09581
# Poissons Ratio (z) = 0.39230 -0.05388
#
# Static dielectric constant tensor:
#      x y z
#    x 1.844840 0.000000 0.000000 
#    y 0.000000 1.805090 0.000000 
#    z 0.000000 0.000000 1.817860 
# 
# From -- ./inp_files/19645.got.cif
#   From: 2010.05.17/outbox.cif.g08.bks.cpg/sg52_10_cif.got.tgz:19645.got - 2010.06.03 12:15:38.
