data_PCOD9412900
_publ_section_title
;
Structure prediction by ZEFSAII (Michael W. Deem and Ramdas Pophale) SiO2 
 PCOD9412900
Probable space group: P N N A
;
_chemical_formula_sum "Si O2"
_cell_formula_units_Z 36
_cell_length_a 8.326048
_cell_length_b 9.403944
_cell_length_c 19.971572
_cell_angle_alpha 90.000000
_cell_angle_beta 90.000000
_cell_angle_gamma 90.000000
_cell_volume 1563.727936
_symmetry_space_group_name_H-M "P N N A"
_symmetry_group_IT_number 52
_symmetry_cell_setting 'orthorhombic'
loop_
_space_group_symop_operation_xyz
x,y,z
1/2-x,-y,z
x,1/2-y,1/2-z
1/2-x,1/2+y,1/2-z
-x,-y,-z
1/2+x,y,-z
-x,1/2+y,1/2+z
1/2+x,1/2-y,1/2+z
loop_
_atom_site_type_symbol
_atom_site_label
_atom_site_fract_x
_atom_site_fract_y
_atom_site_fract_z
Si Si1 0.172073 0.648813 0.913663
Si Si2 0.109723 0.383861 0.644178
Si Si3 0.158004 0.861476 0.035038
Si Si4 0.383821 0.250000 0.250000
Si Si5 0.176357 0.357305 0.129644
O O1 0.250000 0.500000 0.935143
O O2 0.303395 0.735238 0.871929
O O3 0.013789 0.626252 0.869394
O O4 0.123261 0.749933 0.975999
O O5 0.250000 0.500000 0.652576
O O6 0.992503 0.408285 0.580549
O O7 0.996232 0.357917 0.708105
O O8 0.275470 0.777092 0.084982
O O9 0.250000 0.000000 0.009960
O O10 0.268541 0.332368 0.198850
O O11 0.250000 0.500000 0.098437
#
# Coordination Sequence:
#
# PCOD9412900 Si02
#       5
#     8   8   8   4   8
#     4  12  25  43  70 102 135 175 226 280 333 400
#     4  11  25  45  71 103 135 175 228 279 332 399
#     4  11  24  45  70 101 139 176 216 272 342 405
#     4  10  26  46  68  96 134 180 226 278 338 396
#     4  11  25  45  68  96 135 179 222 273 337 399
#
# _framework density 23.021906999999999
#
# number of rings (size 3 to 8) (size 9 to 14) (size 15 to 20)
#    0.000    0.889    0.000    6.667    0.000   14.222 
#    0.000    2.222    0.000    0.000    0.000    0.000 
#    0.000    0.000    0.000    0.000    0.000    0.000 
#
# Total GULP energy -201639.918649 kJ/mol
# GULP energy per Si atom -5601.108851 kJ/mol
# Density = 2.296951 g / cm^3
# Si number density = 23.021907 Si / 1000 Ang^3
#
#
#
# Elastic Constant Matrix: (Units=GPa)
#
#
# Indices 1 2 3 4 5 6 
#
# 1 173.7608 58.9992 74.5934 0.0000 0.0000 0.0000
# 2 58.9992 150.2756 46.8698 0.0000 0.0000 0.0000
# 3 74.5934 46.8698 123.9974 0.0000 0.0000 0.0000
# 4 0.0000 0.0000 0.0000 11.2233 0.0000 0.0000
# 5 0.0000 0.0000 0.0000 0.0000 -8.8480 0.0000
# 6 0.0000 0.0000 0.0000 0.0000 0.0000 36.3419
#
#
#
# Elastic Compliance Matrix: (Units=1/GPa)
#
#
# Indices 1 2 3 4 5 6 
#
# 1 0.008215 -0.001909 -0.004220 0.000000 0.000000 0.000000
# 2 -0.001909 0.007987 -0.001871 0.000000 0.000000 0.000000
# 3 -0.004220 -0.001871 0.011311 0.000000 0.000000 0.000000
# 4 0.000000 0.000000 0.000000 0.089101 0.000000 0.000000
# 5 0.000000 0.000000 0.000000 0.000000 -0.113020 0.000000
# 6 0.000000 0.000000 0.000000 0.000000 0.000000 0.027516
#
#
# Mechanical properties :
#
#
# Convention : Reuss Voigt Hill
#
# Bulk Modulus (GPa) = 86.85928 89.88430 88.37179
# Shear Modulus (GPa) = 98.14003 25.58153 61.86078
#
# Velocity S-wave (km/s) = 6.53617 3.33706 5.18929
# Velocity P-wave (km/s) = 9.73514 7.34681 8.62405
#
# Compressibility (1/GPa) = 0.01151287
#
# Stress axis : x y z
#
# Youngs Moduli (GPa) = 121.72951 125.19724 88.41235
#
# Poissons Ratio (x) = 0.23900 0.37313
# Poissons Ratio (y) = 0.23238 0.16540
# Poissons Ratio (z) = 0.51374 0.23422
#
# Static dielectric constant tensor:
#      x y z
#    x 2.026020 0.000000 0.000000 
#    y 0.000000 1.882010 0.000000 
#    z 0.000000 0.000000 1.873560 
# 
# From -- ./inp_files/35566.got.cif
#   From: 2010.05.17/outbox.cif.g08.bks.cpg/sg52_18_cif.got.tgz:35566.got - 2010.06.03 12:15:38.
