data_PCOD9412242
_publ_section_title
;
Structure prediction by ZEFSAII (Michael W. Deem and Ramdas Pophale) SiO2 
 PCOD9412242
Probable space group: P N N A
;
_chemical_formula_sum "Si O2"
_cell_formula_units_Z 40
_cell_length_a 5.128295
_cell_length_b 11.428552
_cell_length_c 31.883720
_cell_angle_alpha 90.000000
_cell_angle_beta 90.000000
_cell_angle_gamma 90.000000
_cell_volume 1868.672502
_symmetry_space_group_name_H-M "P N N A"
_symmetry_group_IT_number 52
_symmetry_cell_setting 'orthorhombic'
loop_
_space_group_symop_operation_xyz
x,y,z
1/2-x,-y,z
x,1/2-y,1/2-z
1/2-x,1/2+y,1/2-z
-x,-y,-z
1/2+x,y,-z
-x,1/2+y,1/2+z
1/2+x,1/2-y,1/2+z
loop_
_atom_site_type_symbol
_atom_site_label
_atom_site_fract_x
_atom_site_fract_y
_atom_site_fract_z
Si Si1 0.250000 0.500000 0.469828
Si Si2 0.069861 0.620498 0.594177
Si Si3 0.500175 0.075121 0.811796
Si Si4 0.722369 0.366234 0.112248
Si Si5 0.774657 0.869590 0.669168
Si Si6 0.613852 0.250000 0.750000
O O1 0.500000 0.500000 0.500000
O O2 0.329908 0.603546 0.437768
O O3 0.250000 0.500000 0.590128
O O4 0.956345 0.627314 0.641562
O O5 0.214895 0.745405 0.587191
O O6 0.439233 0.152107 0.771270
O O7 0.250000 0.000000 0.819414
O O8 0.750000 0.000000 0.800964
O O9 0.750000 0.500000 0.093626
O O10 0.437327 0.354474 0.132656
O O11 0.935946 0.365077 0.149729
O O12 0.728420 0.787185 0.708859
O O13 0.750000 0.000000 0.686296
#
# Coordination Sequence:
#
# PCOD9412242 Si02
#       6
#     4   8   8   8   8   4
#     4  12  26  46  76 114 142 174 214 288 364 440
#     4  11  24  44  74 102 141 173 231 284 348 423
#     4  11  26  41  60  93 129 182 229 291 342 396
#     4  10  23  43  66  93 131 179 230 273 340 402
#     4  10  23  39  56  86 126 178 234 291 331 394
#     4  12  24  40  60  84 132 180 242 284 348 378
#
# _framework density 21.405567000000001
#
# number of rings (size 3 to 8) (size 9 to 14) (size 15 to 20)
#    0.000    1.200    4.000    0.600    8.400    5.600 
#    0.000    0.000    0.000    1.200    0.000    0.000 
#    0.000    0.000    0.000    0.000    0.000    0.000 
#
# Total GULP energy -222775.036474 kJ/mol
# GULP energy per Si atom -5569.375912 kJ/mol
# Density = 2.135685 g / cm^3
# Si number density = 21.405567 Si / 1000 Ang^3
#
#
#
# Elastic Constant Matrix: (Units=GPa)
#
#
# Indices 1 2 3 4 5 6 
#
# 1 76.4749 2.0011 22.7108 0.0000 0.0000 0.0000
# 2 2.0011 113.6894 23.4503 0.0000 0.0000 0.0000
# 3 22.7108 23.4503 86.4885 0.0000 0.0000 0.0000
# 4 0.0000 0.0000 0.0000 5.9981 0.0000 0.0000
# 5 0.0000 0.0000 0.0000 0.0000 8.9808 0.0000
# 6 0.0000 0.0000 0.0000 0.0000 0.0000 23.9109
#
#
#
# Elastic Compliance Matrix: (Units=1/GPa)
#
#
# Indices 1 2 3 4 5 6 
#
# 1 0.014215 0.000550 -0.003882 0.000000 0.000000 0.000000
# 2 0.000550 0.009338 -0.002677 0.000000 0.000000 0.000000
# 3 -0.003882 -0.002677 0.013307 0.000000 0.000000 0.000000
# 4 0.000000 0.000000 0.000000 0.166719 0.000000 0.000000
# 5 0.000000 0.000000 0.000000 0.000000 0.111349 0.000000
# 6 0.000000 0.000000 0.000000 0.000000 0.000000 0.041822
#
#
# Mechanical properties :
#
#
# Convention : Reuss Voigt Hill
#
# Bulk Modulus (GPa) = 40.25050 41.44191 40.84620
# Shear Modulus (GPa) = 13.26096 23.01066 18.13581
#
# Velocity S-wave (km/s) = 2.49170 3.28225 2.91391
# Velocity P-wave (km/s) = 5.20794 5.81091 5.51766
#
# Compressibility (1/GPa) = 0.02484441
#
# Stress axis : x y z
#
# Youngs Moduli (GPa) = 70.35035 107.08610 75.14696
#
# Poissons Ratio (x) = -0.05895 0.29171
# Poissons Ratio (y) = -0.03873 0.20113
# Poissons Ratio (z) = 0.27309 0.28662
#
# Static dielectric constant tensor:
#      x y z
#    x 1.776070 0.000000 0.000000 
#    y 0.000000 2.055090 0.000000 
#    z 0.000000 0.000000 1.740180 
# 
# From -- ./inp_files/43695.got.cif
#   From: 2010.05.17/outbox.cif.g08.bks.cpg/sg52_22_cif.got.tgz:43695.got - 2010.06.03 12:15:38.
