data_PCOD9412129
_publ_section_title
;
Structure prediction by ZEFSAII (Michael W. Deem and Ramdas Pophale) SiO2 
 PCOD9412129
Probable space group: P N N A
;
_chemical_formula_sum "Si O2"
_cell_formula_units_Z 32
_cell_length_a 8.386296
_cell_length_b 24.728572
_cell_length_c 6.897628
_cell_angle_alpha 90.000000
_cell_angle_beta 90.000000
_cell_angle_gamma 90.000000
_cell_volume 1430.437851
_symmetry_space_group_name_H-M "P N N A"
_symmetry_group_IT_number 52
_symmetry_cell_setting 'orthorhombic'
loop_
_space_group_symop_operation_xyz
x,y,z
1/2-x,-y,z
x,1/2-y,1/2-z
1/2-x,1/2+y,1/2-z
-x,-y,-z
1/2+x,y,-z
-x,1/2+y,1/2+z
1/2+x,1/2-y,1/2+z
loop_
_atom_site_type_symbol
_atom_site_label
_atom_site_fract_x
_atom_site_fract_y
_atom_site_fract_z
Si Si1 0.662180 0.587412 0.257376
Si Si2 0.819304 0.689791 0.326469
Si Si3 0.163579 0.054894 0.427508
Si Si4 0.339940 0.364920 0.341883
O O1 0.687169 0.651835 0.223209
O O2 0.513655 0.560818 0.150987
O O3 0.644171 0.588937 0.488827
O O4 0.816823 0.560290 0.159914
O O5 0.815058 0.750000 0.250000
O O6 0.992259 0.662875 0.298153
O O7 0.773148 0.679601 0.552362
O O8 0.257205 0.105459 0.334884
O O9 0.250000 0.000000 0.366783
#
# Coordination Sequence:
#
# PCOD9412129 Si02
#       4
#     8   8   8   8
#     4  10  23  42  62 101 131 165 229 269 311 407
#     4  10  22  44  69  95 126 176 210 270 337 382
#     4  12  24  41  68  96 134 181 216 273 333 380
#     4  10  22  45  64  95 134 163 225 270 319 400
#
# _framework density 22.370773
#
# number of rings (size 3 to 8) (size 9 to 14) (size 15 to 20)
#    1.500    0.000    2.500    2.250    0.000    6.000 
#    0.000    2.500    0.000    0.000    0.000    0.000 
#    0.000    0.000    0.000    0.000    0.000    0.000 
#
# Total GULP energy -178390.896293 kJ/mol
# GULP energy per Si atom -5574.715509 kJ/mol
# Density = 2.231986 g / cm^3
# Si number density = 22.370773 Si / 1000 Ang^3
#
#
#
# Elastic Constant Matrix: (Units=GPa)
#
#
# Indices 1 2 3 4 5 6 
#
# 1 68.7453 19.4294 3.2516 0.0000 0.0000 0.0000
# 2 19.4294 101.6500 28.0650 0.0000 0.0000 0.0000
# 3 3.2516 28.0650 69.2589 0.0000 0.0000 0.0000
# 4 0.0000 0.0000 0.0000 21.3865 0.0000 0.0000
# 5 0.0000 0.0000 0.0000 0.0000 27.4820 0.0000
# 6 0.0000 0.0000 0.0000 0.0000 0.0000 33.1237
#
#
#
# Elastic Compliance Matrix: (Units=1/GPa)
#
#
# Indices 1 2 3 4 5 6 
#
# 1 0.015394 -0.003088 0.000529 0.000000 0.000000 0.000000
# 2 -0.003088 0.011697 -0.004595 0.000000 0.000000 0.000000
# 3 0.000529 -0.004595 0.016276 0.000000 0.000000 0.000000
# 4 0.000000 0.000000 0.000000 0.046759 0.000000 0.000000
# 5 0.000000 0.000000 0.000000 0.000000 0.036387 0.000000
# 6 0.000000 0.000000 0.000000 0.000000 0.000000 0.030190
#
#
# Mechanical properties :
#
#
# Convention : Reuss Voigt Hill
#
# Bulk Modulus (GPa) = 34.41421 37.90512 36.15967
# Shear Modulus (GPa) = 27.67063 28.99232 28.33147
#
# Velocity S-wave (km/s) = 3.52079 3.60389 3.56258
# Velocity P-wave (km/s) = 5.65198 5.85647 5.75513
#
# Compressibility (1/GPa) = 0.02905776
#
# Stress axis : x y z
#
# Youngs Moduli (GPa) = 64.95903 85.49520 61.44172
#
# Poissons Ratio (x) = 0.26405 -0.03249
# Poissons Ratio (y) = 0.20062 0.28230
# Poissons Ratio (z) = -0.03435 0.39282
#
# Static dielectric constant tensor:
#      x y z
#    x 1.872480 0.000000 0.000000 
#    y 0.000000 1.801050 0.000000 
#    z 0.000000 0.000000 1.891170 
# 
# From -- ./inp_files/402.got.cif
#   From: 2010.05.17/outbox.cif.g08.bks.cpg/sg52_1_cif.got.tgz:402.got - 2010.06.03 12:15:38.
