data_PCOD9412180
_publ_section_title
;
Structure prediction by ZEFSAII (Michael W. Deem and Ramdas Pophale) SiO2 
 PCOD9412180
Probable space group: P N N A
;
_chemical_formula_sum "Si O2"
_cell_formula_units_Z 52
_cell_length_a 11.651125
_cell_length_b 26.200035
_cell_length_c 8.064846
_cell_angle_alpha 90.000000
_cell_angle_beta 90.000000
_cell_angle_gamma 90.000000
_cell_volume 2461.873945
_symmetry_space_group_name_H-M "P N N A"
_symmetry_group_IT_number 52
_symmetry_cell_setting 'orthorhombic'
loop_
_space_group_symop_operation_xyz
x,y,z
1/2-x,-y,z
x,1/2-y,1/2-z
1/2-x,1/2+y,1/2-z
-x,-y,-z
1/2+x,y,-z
-x,1/2+y,1/2+z
1/2+x,1/2-y,1/2+z
loop_
_atom_site_type_symbol
_atom_site_label
_atom_site_fract_x
_atom_site_fract_y
_atom_site_fract_z
Si Si1 0.591117 0.465091 0.166269
Si Si2 0.631851 0.250000 0.250000
Si Si3 0.317187 0.611793 0.093263
Si Si4 0.335741 0.454270 0.301111
Si Si5 0.676021 0.563444 0.322035
Si Si6 0.313775 0.332528 0.800560
Si Si7 0.042370 0.285816 0.102625
O O1 0.459823 0.456111 0.215392
O O2 0.620965 0.525343 0.184963
O O3 0.686261 0.440702 0.292074
O O4 0.620096 0.436355 0.994760
O O5 0.712209 0.299507 0.278353
O O6 0.565685 0.236807 0.419995
O O7 0.238949 0.594552 0.245900
O O8 0.403542 0.658030 0.123164
O O9 0.232999 0.635196 0.955232
O O10 0.250000 0.500000 0.254912
O O11 0.355023 0.456765 0.497443
O O12 0.639172 0.622214 0.314017
O O13 0.408331 0.294144 0.867271
O O14 0.088207 0.250000 0.250000
#
# Coordination Sequence:
#
# PCOD9412180 Si02
#       7
#     8   4   8   8   8   8   8
#     4  10  22  46  61  95 143 181 219 289 339 419
#     4  10  24  48  66 100 138 172 234 298 352 426
#     4  10  25  42  67  99 138 180 237 278 358 424
#     4  12  25  38  66 105 134 184 236 278 344 416
#     4  10  23  41  68  95 142 183 227 282 352 420
#     4  10  22  46  67  98 133 179 225 289 356 417
#     4  11  24  47  74 100 136 182 236 296 365 424
#
# _framework density 21.122119999999999
#
# number of rings (size 3 to 8) (size 9 to 14) (size 15 to 20)
#    0.000    1.538    2.308    1.385    8.615    0.615 
#   13.846    0.000    0.000    0.000    0.000    0.000 
#    0.000    0.000    0.000    0.000    0.000    0.000 
#
# Total GULP energy -290236.792162 kJ/mol
# GULP energy per Si atom -5581.476772 kJ/mol
# Density = 2.107405 g / cm^3
# Si number density = 21.122120 Si / 1000 Ang^3
#
#
#
# Elastic Constant Matrix: (Units=GPa)
#
#
# Indices 1 2 3 4 5 6 
#
# 1 103.2607 29.3419 51.6369 0.0000 0.0000 0.0000
# 2 29.3419 115.3966 59.5628 0.0000 0.0000 0.0000
# 3 51.6369 59.5628 77.8961 0.0000 0.0000 0.0000
# 4 0.0000 0.0000 0.0000 39.3894 0.0000 0.0000
# 5 0.0000 0.0000 0.0000 0.0000 20.9599 0.0000
# 6 0.0000 0.0000 0.0000 0.0000 0.0000 29.9243
#
#
#
# Elastic Compliance Matrix: (Units=1/GPa)
#
#
# Indices 1 2 3 4 5 6 
#
# 1 0.014802 0.002149 -0.011455 0.000000 0.000000 0.000000
# 2 0.002149 0.014628 -0.012610 0.000000 0.000000 0.000000
# 3 -0.011455 -0.012610 0.030073 0.000000 0.000000 0.000000
# 4 0.000000 0.000000 0.000000 0.025388 0.000000 0.000000
# 5 0.000000 0.000000 0.000000 0.000000 0.047710 0.000000
# 6 0.000000 0.000000 0.000000 0.000000 0.000000 0.033418
#
#
# Mechanical properties :
#
#
# Convention : Reuss Voigt Hill
#
# Bulk Modulus (GPa) = 63.81207 64.18184 63.99696
# Shear Modulus (GPa) = 23.24771 28.45550 25.85160
#
# Velocity S-wave (km/s) = 3.32118 3.67439 3.50224
# Velocity P-wave (km/s) = 6.70698 6.96086 6.83510
#
# Compressibility (1/GPa) = 0.01567102
#
# Stress axis : x y z
#
# Youngs Moduli (GPa) = 67.55841 68.36213 33.25195
#
# Poissons Ratio (x) = -0.14692 0.38092
# Poissons Ratio (y) = -0.14519 0.41930
# Poissons Ratio (z) = 0.77391 0.86204
#
# Static dielectric constant tensor:
#      x y z
#    x 1.765390 0.000000 0.000000 
#    y 0.000000 1.829540 0.000000 
#    z 0.000000 0.000000 1.760520 
# 
# From -- ./inp_files/9004.got.cif
#   From: 2010.05.17/outbox.cif.g08.bks.cpg/sg52_5_cif.got.tgz:9004.got - 2010.06.03 12:15:38.
