data_PCOD9412800
_publ_section_title
;
Structure prediction by ZEFSAII (Michael W. Deem and Ramdas Pophale) SiO2 
 PCOD9412800
Probable space group: P N N A
;
_chemical_formula_sum "Si O2"
_cell_formula_units_Z 28
_cell_length_a 15.584041
_cell_length_b 13.721737
_cell_length_c 4.570321
_cell_angle_alpha 90.000000
_cell_angle_beta 90.000000
_cell_angle_gamma 90.000000
_cell_volume 977.317955
_symmetry_space_group_name_H-M "P N N A"
_symmetry_group_IT_number 52
_symmetry_cell_setting 'orthorhombic'
loop_
_space_group_symop_operation_xyz
x,y,z
1/2-x,-y,z
x,1/2-y,1/2-z
1/2-x,1/2+y,1/2-z
-x,-y,-z
1/2+x,y,-z
-x,1/2+y,1/2+z
1/2+x,1/2-y,1/2+z
loop_
_atom_site_type_symbol
_atom_site_label
_atom_site_fract_x
_atom_site_fract_y
_atom_site_fract_z
Si Si1 0.114877 0.592629 0.113252
Si Si2 0.002554 0.138894 0.146508
Si Si3 0.721929 0.750000 0.250000
Si Si4 0.327848 0.562174 0.649318
O O1 0.250000 0.500000 0.504125
O O2 0.023872 0.596136 0.953535
O O3 0.167723 0.685124 0.981973
O O4 0.156424 0.496209 0.955798
O O5 0.021378 0.250000 0.250000
O O6 0.917056 0.120654 0.942054
O O7 0.081935 0.081887 0.008868
O O8 0.786190 0.668060 0.363597
#
# Coordination Sequence:
#
# PCOD9412800 Si02
#       4
#     8   8   4   8
#     4  11  25  51  78 117 161 220 281 343 423 515
#     4  12  26  49  82 117 161 221 281 347 424 523
#     4  10  24  48  80 118 160 220 278 352 426 500
#     4  10  25  51  79 122 165 217 280 357 432 508
#
# _framework density 28.649837999999999
#
# number of rings (size 3 to 8) (size 9 to 14) (size 15 to 20)
#    0.000    1.143    1.429    2.571    4.000    0.000 
#   10.286    8.571    0.000    0.000    0.000    0.000 
#    0.000    0.000    0.000    0.000    0.000    0.000 
#
# Total GULP energy -156344.523001 kJ/mol
# GULP energy per Si atom -5583.732964 kJ/mol
# Density = 2.858463 g / cm^3
# Si number density = 28.649838 Si / 1000 Ang^3
#
#
#
# Elastic Constant Matrix: (Units=GPa)
#
#
# Indices 1 2 3 4 5 6 
#
# 1 121.9766 33.1149 13.1532 0.0000 0.0000 0.0000
# 2 33.1149 237.8099 20.0732 0.0000 0.0000 0.0000
# 3 13.1532 20.0732 143.3057 0.0000 0.0000 0.0000
# 4 0.0000 0.0000 0.0000 34.8901 0.0000 0.0000
# 5 0.0000 0.0000 0.0000 0.0000 64.2944 0.0000
# 6 0.0000 0.0000 0.0000 0.0000 0.0000 67.0299
#
#
#
# Elastic Compliance Matrix: (Units=1/GPa)
#
#
# Indices 1 2 3 4 5 6 
#
# 1 0.008576 -0.001141 -0.000627 0.000000 0.000000 0.000000
# 2 -0.001141 0.004407 -0.000513 0.000000 0.000000 0.000000
# 3 -0.000627 -0.000513 0.007107 0.000000 0.000000 0.000000
# 4 0.000000 0.000000 0.000000 0.028661 0.000000 0.000000
# 5 0.000000 0.000000 0.000000 0.000000 0.015553 0.000000
# 6 0.000000 0.000000 0.000000 0.000000 0.000000 0.014919
#
#
# Mechanical properties :
#
#
# Convention : Reuss Voigt Hill
#
# Bulk Modulus (GPa) = 64.39855 70.64162 67.52008
# Shear Modulus (GPa) = 56.20359 62.35960 59.28160
#
# Velocity S-wave (km/s) = 4.43396 4.67048 4.55376
# Velocity P-wave (km/s) = 6.98140 7.33450 7.16013
#
# Compressibility (1/GPa) = 0.01552830
#
# Stress axis : x y z
#
# Youngs Moduli (GPa) = 116.60773 226.90037 140.69720
#
# Poissons Ratio (x) = 0.25894 0.08825
# Poissons Ratio (y) = 0.13308 0.07212
# Poissons Ratio (z) = 0.07314 0.11631
#
# Static dielectric constant tensor:
#      x y z
#    x 2.226960 0.000000 0.000000 
#    y 0.000000 2.346560 0.000000 
#    z 0.000000 0.000000 2.461070 
# 
# From -- ./inp_files/3779.got.cif
#   From: 2010.05.17/outbox.cif.g08.bks.cpg/sg52_2_cif.got.tgz:3779.got - 2010.06.03 12:15:38.
