data_PCOD9412948
_publ_section_title
;
Structure prediction by ZEFSAII (Michael W. Deem and Ramdas Pophale) SiO2 
 PCOD9412948
Probable space group: P N N A
;
_chemical_formula_sum "Si O2"
_cell_formula_units_Z 40
_cell_length_a 18.055249
_cell_length_b 8.754961
_cell_length_c 10.976184
_cell_angle_alpha 90.000000
_cell_angle_beta 90.000000
_cell_angle_gamma 90.000000
_cell_volume 1735.038343
_symmetry_space_group_name_H-M "P N N A"
_symmetry_group_IT_number 52
_symmetry_cell_setting 'orthorhombic'
loop_
_space_group_symop_operation_xyz
x,y,z
1/2-x,-y,z
x,1/2-y,1/2-z
1/2-x,1/2+y,1/2-z
-x,-y,-z
1/2+x,y,-z
-x,1/2+y,1/2+z
1/2+x,1/2-y,1/2+z
loop_
_atom_site_type_symbol
_atom_site_label
_atom_site_fract_x
_atom_site_fract_y
_atom_site_fract_z
Si Si1 0.369245 0.265144 0.380706
Si Si2 0.538038 0.250000 0.750000
Si Si3 0.750000 0.000000 0.926160
Si Si4 0.060764 0.952129 0.903100
Si Si5 0.085822 0.448146 0.032196
Si Si6 0.828149 0.717075 0.378037
O O1 0.412621 0.250000 0.250000
O O2 0.307055 0.394789 0.349693
O O3 0.395342 0.333962 0.511466
O O4 0.365779 0.088687 0.418828
O O5 0.483745 0.118507 0.793566
O O6 0.581910 0.316995 0.863718
O O7 0.782860 0.868671 0.015747
O O8 0.108420 0.091538 0.856861
O O9 0.000000 0.000000 0.000000
O O10 0.130577 0.368037 0.924220
O O11 0.000000 0.500000 0.000000
O O12 0.787729 0.750000 0.250000
#
# Coordination Sequence:
#
# PCOD9412948 Si02
#       6
#     8   4   4   8   8   8
#     4  11  25  45  69  95 136 175 231 277 330 398
#     4  12  22  38  68 104 146 170 220 266 348 420
#     4  10  28  48  64  96 124 192 230 276 330 382
#     4  11  21  41  66 102 137 176 213 270 343 406
#     4  12  24  41  70 109 132 177 215 274 353 404
#     4  11  25  45  68  95 136 173 230 277 331 397
#
# _framework density 23.054245000000002
#
# number of rings (size 3 to 8) (size 9 to 14) (size 15 to 20)
#    0.000    0.800    4.000    2.400    2.800    5.600 
#    3.600    0.000    0.000    0.000    0.000    0.000 
#    0.000    0.000    0.000    0.000    0.000    0.000 
#
# Total GULP energy -222825.964089 kJ/mol
# GULP energy per Si atom -5570.649102 kJ/mol
# Density = 2.300177 g / cm^3
# Si number density = 23.054245 Si / 1000 Ang^3
#
#
#
# Elastic Constant Matrix: (Units=GPa)
#
#
# Indices 1 2 3 4 5 6 
#
# 1 36.4101 8.6223 0.2081 0.0000 0.0000 0.0000
# 2 8.6223 93.1925 17.1184 0.0000 0.0000 0.0000
# 3 0.2081 17.1184 99.1471 0.0000 0.0000 0.0000
# 4 0.0000 0.0000 0.0000 32.7444 0.0000 0.0000
# 5 0.0000 0.0000 0.0000 0.0000 11.2237 0.0000
# 6 0.0000 0.0000 0.0000 0.0000 0.0000 31.9462
#
#
#
# Elastic Compliance Matrix: (Units=1/GPa)
#
#
# Indices 1 2 3 4 5 6 
#
# 1 0.028096 -0.002673 0.000403 0.000000 0.000000 0.000000
# 2 -0.002673 0.011336 -0.001952 0.000000 0.000000 0.000000
# 3 0.000403 -0.001952 0.010422 0.000000 0.000000 0.000000
# 4 0.000000 0.000000 0.000000 0.030540 0.000000 0.000000
# 5 0.000000 0.000000 0.000000 0.000000 0.089097 0.000000
# 6 0.000000 0.000000 0.000000 0.000000 0.000000 0.031303
#
#
# Mechanical properties :
#
#
# Convention : Reuss Voigt Hill
#
# Bulk Modulus (GPa) = 24.14923 31.18305 27.66614
# Shear Modulus (GPa) = 22.41735 28.70292 25.56013
#
# Velocity S-wave (km/s) = 3.12167 3.53231 3.33332
# Velocity P-wave (km/s) = 4.84673 5.49469 5.18085
#
# Compressibility (1/GPa) = 0.04140919
#
# Stress axis : x y z
#
# Youngs Moduli (GPa) = 35.59267 88.21202 95.94949
#
# Poissons Ratio (x) = 0.23583 -0.03863
# Poissons Ratio (y) = 0.09515 0.18726
# Poissons Ratio (z) = -0.01433 0.17216
#
# Static dielectric constant tensor:
#      x y z
#    x 1.895360 0.000000 0.000000 
#    y 0.000000 1.812130 0.000000 
#    z 0.000000 0.000000 2.076420 
# 
# From -- ./inp_files/20364.got.cif
#   From: 2010.05.17/outbox.cif.g08.bks.cpg/sg52_11_cif.got.tgz:20364.got - 2010.06.03 12:15:38.
