data_PCOD9412689
_publ_section_title
;
Structure prediction by ZEFSAII (Michael W. Deem and Ramdas Pophale) SiO2 
 PCOD9412689
Probable space group: P N N A
;
_chemical_formula_sum "Si O2"
_cell_formula_units_Z 24
_cell_length_a 12.461967
_cell_length_b 11.052432
_cell_length_c 7.792462
_cell_angle_alpha 90.000000
_cell_angle_beta 90.000000
_cell_angle_gamma 90.000000
_cell_volume 1073.295088
_symmetry_space_group_name_H-M "P N N A"
_symmetry_group_IT_number 52
_symmetry_cell_setting 'orthorhombic'
loop_
_space_group_symop_operation_xyz
x,y,z
1/2-x,-y,z
x,1/2-y,1/2-z
1/2-x,1/2+y,1/2-z
-x,-y,-z
1/2+x,y,-z
-x,1/2+y,1/2+z
1/2+x,1/2-y,1/2+z
loop_
_atom_site_type_symbol
_atom_site_label
_atom_site_fract_x
_atom_site_fract_y
_atom_site_fract_z
Si Si1 0.431041 0.941079 0.349667
Si Si2 0.750000 0.000000 0.873496
Si Si3 0.586188 0.750000 0.250000
Si Si4 0.207232 0.248170 0.941442
O O1 0.352864 0.028615 0.245088
O O2 0.511798 0.866533 0.226790
O O3 0.353247 0.840579 0.436460
O O4 0.500000 0.000000 0.500000
O O5 0.713225 0.113792 0.984751
O O6 0.668269 0.719278 0.096594
O O7 0.156855 0.250000 0.750000
#
# Coordination Sequence:
#
# PCOD9412689 Si02
#       4
#     8   4   4   8
#     4  12  25  45  74 107 146 199 244 307 374 433
#     4  12  24  46  78 100 156 190 252 312 360 452
#     4  10  24  44  70 104 144 190 250 280 390 416
#     4  10  26  45  70 109 148 188 253 299 363 454
#
# _framework density 22.361046000000002
#
# number of rings (size 3 to 8) (size 9 to 14) (size 15 to 20)
#    1.000    0.000    3.333    2.000    4.667    4.000 
#    0.000    0.000    0.000    0.000    0.000    0.000 
#    0.000    0.000    0.000    0.000    0.000    0.000 
#
# Total GULP energy -134007.158305 kJ/mol
# GULP energy per Si atom -5583.631596 kJ/mol
# Density = 2.231015 g / cm^3
# Si number density = 22.361046 Si / 1000 Ang^3
#
#
#
# Elastic Constant Matrix: (Units=GPa)
#
#
# Indices 1 2 3 4 5 6 
#
# 1 110.8915 33.3207 24.6468 0.0000 0.0000 0.0000
# 2 33.3207 92.2508 36.7059 0.0000 0.0000 0.0000
# 3 24.6468 36.7059 81.6080 0.0000 0.0000 0.0000
# 4 0.0000 0.0000 0.0000 39.8933 0.0000 0.0000
# 5 0.0000 0.0000 0.0000 0.0000 5.0954 0.0000
# 6 0.0000 0.0000 0.0000 0.0000 0.0000 31.4118
#
#
#
# Elastic Compliance Matrix: (Units=1/GPa)
#
#
# Indices 1 2 3 4 5 6 
#
# 1 0.010318 -0.003029 -0.001754 0.000000 0.000000 0.000000
# 2 -0.003029 0.014092 -0.005424 0.000000 0.000000 0.000000
# 3 -0.001754 -0.005424 0.015223 0.000000 0.000000 0.000000
# 4 0.000000 0.000000 0.000000 0.025067 0.000000 0.000000
# 5 0.000000 0.000000 0.000000 0.000000 0.196254 0.000000
# 6 0.000000 0.000000 0.000000 0.000000 0.000000 0.031835
#
#
# Mechanical properties :
#
#
# Convention : Reuss Voigt Hill
#
# Bulk Modulus (GPa) = 52.02894 52.67744 52.35319
# Shear Modulus (GPa) = 15.64415 27.95190 21.79802
#
# Velocity S-wave (km/s) = 2.64790 3.53941 3.12560
# Velocity P-wave (km/s) = 5.71547 6.34917 6.04064
#
# Compressibility (1/GPa) = 0.01922007
#
# Stress axis : x y z
#
# Youngs Moduli (GPa) = 96.92041 70.96192 65.69097
#
# Poissons Ratio (x) = 0.21494 0.11520
# Poissons Ratio (y) = 0.29357 0.35628
# Poissons Ratio (z) = 0.16997 0.38487
#
# Static dielectric constant tensor:
#      x y z
#    x 1.834870 0.000000 0.000000 
#    y 0.000000 1.817810 0.000000 
#    z 0.000000 0.000000 1.870920 
# 
# From -- ./inp_files/8042.got.cif
#   From: 2010.05.17/outbox.cif.g08.bks.cpg/sg52_5_cif.got.tgz:8042.got - 2010.06.03 12:15:38.
