data_PCOD9412833
_publ_section_title
;
Structure prediction by ZEFSAII (Michael W. Deem and Ramdas Pophale) SiO2 
 PCOD9412833
Probable space group: P N N A
;
_chemical_formula_sum "Si O2"
_cell_formula_units_Z 48
_cell_length_a 14.069281
_cell_length_b 8.817488
_cell_length_c 18.619170
_cell_angle_alpha 90.000000
_cell_angle_beta 90.000000
_cell_angle_gamma 90.000000
_cell_volume 2309.814473
_symmetry_space_group_name_H-M "P N N A"
_symmetry_group_IT_number 52
_symmetry_cell_setting 'orthorhombic'
loop_
_space_group_symop_operation_xyz
x,y,z
1/2-x,-y,z
x,1/2-y,1/2-z
1/2-x,1/2+y,1/2-z
-x,-y,-z
1/2+x,y,-z
-x,1/2+y,1/2+z
1/2+x,1/2-y,1/2+z
loop_
_atom_site_type_symbol
_atom_site_label
_atom_site_fract_x
_atom_site_fract_y
_atom_site_fract_z
Si Si1 0.956422 0.331084 0.928902
Si Si2 0.951218 0.070426 0.171480
Si Si3 0.562165 0.933115 0.334910
Si Si4 0.855343 0.462954 0.605548
Si Si5 0.807779 0.371411 0.046695
Si Si6 0.642789 0.125966 0.050224
O O1 0.982291 0.470820 0.877377
O O2 0.054777 0.242564 0.943790
O O3 0.879947 0.214829 0.895294
O O4 0.907202 0.358272 0.005124
O O5 0.930968 0.017372 0.252401
O O6 0.949101 0.251580 0.166015
O O7 0.058659 0.030086 0.150718
O O8 0.879626 0.989339 0.115558
O O9 0.659242 0.946907 0.379002
O O10 0.750000 0.500000 0.631630
O O11 0.862353 0.534414 0.524851
O O12 0.750000 0.500000 0.004437
O O13 0.740287 0.224109 0.052819
#
# Coordination Sequence:
#
# PCOD9412833 Si02
#       6
#     8   8   8   8   8   8
#     4  11  23  41  69  91 135 169 218 282 330 391
#     4  10  25  45  66  90 140 180 213 278 339 403
#     4  11  24  45  62  96 135 177 217 272 347 396
#     4  11  22  41  68  99 124 172 229 273 327 401
#     4  12  24  40  67 105 127 172 224 280 328 398
#     4  11  23  43  68  97 131 174 224 275 337 395
#
# _framework density 20.780888999999998
#
# number of rings (size 3 to 8) (size 9 to 14) (size 15 to 20)
#    0.000    1.000    3.333    4.500    2.333    2.667 
#    6.000    4.167    0.000    0.000    0.000    0.000 
#    0.000    0.000    0.000    0.000    0.000    0.000 
#
# Total GULP energy -267905.497223 kJ/mol
# GULP energy per Si atom -5581.364525 kJ/mol
# Density = 2.073359 g / cm^3
# Si number density = 20.780889 Si / 1000 Ang^3
#
#
#
# Elastic Constant Matrix: (Units=GPa)
#
#
# Indices 1 2 3 4 5 6 
#
# 1 109.0498 46.1870 60.1514 0.0000 0.0000 0.0000
# 2 46.1870 92.5731 41.8204 0.0000 0.0000 0.0000
# 3 60.1514 41.8204 102.8709 0.0000 0.0000 0.0000
# 4 0.0000 0.0000 0.0000 27.5460 0.0000 0.0000
# 5 0.0000 0.0000 0.0000 0.0000 14.4818 0.0000
# 6 0.0000 0.0000 0.0000 0.0000 0.0000 41.5267
#
#
#
# Elastic Compliance Matrix: (Units=1/GPa)
#
#
# Indices 1 2 3 4 5 6 
#
# 1 0.014787 -0.004253 -0.006918 0.000000 0.000000 0.000000
# 2 -0.004253 0.014455 -0.003390 0.000000 0.000000 0.000000
# 3 -0.006918 -0.003390 0.015144 0.000000 0.000000 0.000000
# 4 0.000000 0.000000 0.000000 0.036303 0.000000 0.000000
# 5 0.000000 0.000000 0.000000 0.000000 0.069052 0.000000
# 6 0.000000 0.000000 0.000000 0.000000 0.000000 0.024081
#
#
# Mechanical properties :
#
#
# Convention : Reuss Voigt Hill
#
# Bulk Modulus (GPa) = 65.50451 66.75681 66.13066
# Shear Modulus (GPa) = 24.03488 27.13324 25.58406
#
# Velocity S-wave (km/s) = 3.40455 3.61734 3.51256
# Velocity P-wave (km/s) = 6.85890 7.04562 6.95289
#
# Compressibility (1/GPa) = 0.01526612
#
# Stress axis : x y z
#
# Youngs Moduli (GPa) = 67.62737 69.17811 66.03305
#
# Poissons Ratio (x) = 0.29418 0.45678
# Poissons Ratio (y) = 0.28759 0.22385
# Poissons Ratio (z) = 0.46781 0.23452
#
# Static dielectric constant tensor:
#      x y z
#    x 1.436240 0.000000 0.000000 
#    y 0.000000 1.890650 0.000000 
#    z 0.000000 0.000000 1.782840 
# 
# From -- ./inp_files/33069.got.cif
#   From: 2010.05.17/outbox.cif.g08.bks.cpg/sg52_17_cif.got.tgz:33069.got - 2010.06.03 12:15:38.
