data_PCOD9412388
_publ_section_title
;
Structure prediction by ZEFSAII (Michael W. Deem and Ramdas Pophale) SiO2 
 PCOD9412388
Probable space group: P N N A
;
_chemical_formula_sum "Si O2"
_cell_formula_units_Z 36
_cell_length_a 23.260688
_cell_length_b 13.259344
_cell_length_c 5.314145
_cell_angle_alpha 90.000000
_cell_angle_beta 90.000000
_cell_angle_gamma 90.000000
_cell_volume 1638.996380
_symmetry_space_group_name_H-M "P N N A"
_symmetry_group_IT_number 52
_symmetry_cell_setting 'orthorhombic'
loop_
_space_group_symop_operation_xyz
x,y,z
1/2-x,-y,z
x,1/2-y,1/2-z
1/2-x,1/2+y,1/2-z
-x,-y,-z
1/2+x,y,-z
-x,1/2+y,1/2+z
1/2+x,1/2-y,1/2+z
loop_
_atom_site_type_symbol
_atom_site_label
_atom_site_fract_x
_atom_site_fract_y
_atom_site_fract_z
Si Si1 0.504202 0.250000 0.750000
Si Si2 0.275343 0.861547 0.234584
Si Si3 0.106329 0.855755 0.652062
Si Si4 0.831624 0.935251 0.263469
Si Si5 0.159629 0.750000 0.250000
Si Si6 0.080192 0.250000 0.750000
O O1 0.458980 0.156328 0.737614
O O2 0.541643 0.255371 0.500376
O O3 0.304261 0.750000 0.250000
O O4 0.289339 0.912670 0.501036
O O5 0.209225 0.833157 0.178377
O O6 0.300144 0.921515 0.001181
O O7 0.136791 0.750000 0.750000
O O8 0.113836 0.830504 0.361320
O O9 0.138726 0.956248 0.717640
O O10 0.880099 0.848710 0.271202
#
# Coordination Sequence:
#
# PCOD9412388 Si02
#       6
#     4   8   8   8   4   4
#     4  10  26  43  67  96 137 173 234 266 356 400
#     4  10  23  43  68 106 130 176 228 275 329 413
#     4  10  27  46  62  99 141 184 218 279 332 419
#     4  12  24  44  74 101 138 170 234 281 343 391
#     4  10  23  47  66  90 152 175 227 264 344 392
#     4  12  21  44  73 100 125 176 223 302 328 400
#
# _framework density 21.964661
#
# number of rings (size 3 to 8) (size 9 to 14) (size 15 to 20)
#    1.333    0.000    2.222    2.000    6.222    2.667 
#    0.000    0.000    0.000    0.000    0.000    0.000 
#    0.000    0.000    0.000    0.000    0.000    0.000 
#
# Total GULP energy -200512.317386 kJ/mol
# GULP energy per Si atom -5569.786594 kJ/mol
# Density = 2.191467 g / cm^3
# Si number density = 21.964661 Si / 1000 Ang^3
#
#
#
# Elastic Constant Matrix: (Units=GPa)
#
#
# Indices 1 2 3 4 5 6 
#
# 1 88.7871 43.2904 47.0250 0.0000 0.0000 0.0000
# 2 43.2904 162.8788 35.4084 0.0000 0.0000 0.0000
# 3 47.0250 35.4084 120.7217 0.0000 0.0000 0.0000
# 4 0.0000 0.0000 0.0000 4.2128 0.0000 0.0000
# 5 0.0000 0.0000 0.0000 0.0000 40.4457 0.0000
# 6 0.0000 0.0000 0.0000 0.0000 0.0000 30.5597
#
#
#
# Elastic Compliance Matrix: (Units=1/GPa)
#
#
# Indices 1 2 3 4 5 6 
#
# 1 0.015441 -0.002987 -0.005139 0.000000 0.000000 0.000000
# 2 -0.002987 0.007135 -0.000929 0.000000 0.000000 0.000000
# 3 -0.005139 -0.000929 0.010558 0.000000 0.000000 0.000000
# 4 0.000000 0.000000 0.000000 0.237374 0.000000 0.000000
# 5 0.000000 0.000000 0.000000 0.000000 0.024724 0.000000
# 6 0.000000 0.000000 0.000000 0.000000 0.000000 0.032723
#
#
# Mechanical properties :
#
#
# Convention : Reuss Voigt Hill
#
# Bulk Modulus (GPa) = 66.55885 69.31504 67.93694
# Shear Modulus (GPa) = 14.24203 31.48790 22.86496
#
# Velocity S-wave (km/s) = 2.54915 3.79036 3.22994
# Velocity P-wave (km/s) = 6.24761 7.12614 6.70129
#
# Compressibility (1/GPa) = 0.01502430
#
# Stress axis : x y z
#
# Youngs Moduli (GPa) = 64.76346 140.14594 94.71686
#
# Poissons Ratio (x) = 0.41859 0.48672
# Poissons Ratio (y) = 0.19344 0.08803
# Poissons Ratio (z) = 0.33280 0.13025
#
# Static dielectric constant tensor:
#      x y z
#    x 1.792890 0.000000 0.000000 
#    y 0.000000 1.815000 0.000000 
#    z 0.000000 0.000000 1.149270 
# 
# From -- ./inp_files/4950.got.cif
#   From: 2010.05.17/outbox.cif.g08.bks.cpg/sg52_3_cif.got.tgz:4950.got - 2010.06.03 12:15:38.
