data_PCOD9412508
_publ_section_title
;
Structure prediction by ZEFSAII (Michael W. Deem and Ramdas Pophale) SiO2 
 PCOD9412508
Probable space group: P N N A
;
_chemical_formula_sum "Si O2"
_cell_formula_units_Z 40
_cell_length_a 27.180010
_cell_length_b 6.976704
_cell_length_c 7.077865
_cell_angle_alpha 90.000000
_cell_angle_beta 90.000000
_cell_angle_gamma 90.000000
_cell_volume 1342.153489
_symmetry_space_group_name_H-M "P N N A"
_symmetry_group_IT_number 52
_symmetry_cell_setting 'orthorhombic'
loop_
_space_group_symop_operation_xyz
x,y,z
1/2-x,-y,z
x,1/2-y,1/2-z
1/2-x,1/2+y,1/2-z
-x,-y,-z
1/2+x,y,-z
-x,1/2+y,1/2+z
1/2+x,1/2-y,1/2+z
loop_
_atom_site_type_symbol
_atom_site_label
_atom_site_fract_x
_atom_site_fract_y
_atom_site_fract_z
Si Si1 0.590487 0.785503 0.057171
Si Si2 0.381693 0.913920 0.583682
Si Si3 0.750000 0.000000 0.926581
Si Si4 0.517650 0.216010 0.531360
Si Si5 0.788929 0.750000 0.250000
Si Si6 0.353880 0.945413 0.224034
O O1 0.593114 0.601148 0.215939
O O2 0.621777 0.935494 0.943739
O O3 0.615114 0.580184 0.911688
O O4 0.533562 0.822966 0.992629
O O5 0.431118 0.780604 0.574919
O O6 0.329449 0.911545 0.696318
O O7 0.356520 0.778542 0.397945
O O8 0.742941 0.176921 0.073944
O O9 0.797147 0.007040 0.793150
O O10 0.529969 0.250000 0.750000
O O11 0.500000 0.000000 0.500000
#
# Coordination Sequence:
#
# PCOD9412508 Si02
#       6
#     8   8   4   8   4   8
#     4  10  23  46  77 115 159 214 268 333 405 503
#     4  11  24  48  76 115 161 212 266 343 412 501
#     4  12  30  50  78 110 150 214 278 346 428 490
#     4   9  20  43  76 120 163 215 269 327 408 494
#     4  12  28  50  78 112 158 206 280 342 422 502
#     4  12  26  49  77 115 162 206 275 350 420 499
#
# _framework density 29.802851
#
# number of rings (size 3 to 8) (size 9 to 14) (size 15 to 20)
#    0.000    1.200    2.000    2.400    4.200    2.400 
#   10.800    3.000    0.000    0.000    0.000    0.000 
#    0.000    0.000    0.000    0.000    0.000    0.000 
#
# Total GULP energy -223226.851891 kJ/mol
# GULP energy per Si atom -5580.671297 kJ/mol
# Density = 2.973502 g / cm^3
# Si number density = 29.802851 Si / 1000 Ang^3
#
#
#
# Elastic Constant Matrix: (Units=GPa)
#
#
# Indices 1 2 3 4 5 6 
#
# 1 288.8259 67.7454 88.6841 0.0000 0.0000 0.0000
# 2 67.7454 191.5460 50.0434 0.0000 0.0000 0.0000
# 3 88.6841 50.0434 245.1823 0.0000 0.0000 0.0000
# 4 0.0000 0.0000 0.0000 78.2686 0.0000 0.0000
# 5 0.0000 0.0000 0.0000 0.0000 -463.0635 0.0000
# 6 0.0000 0.0000 0.0000 0.0000 0.0000 56.5015
#
#
#
# Elastic Compliance Matrix: (Units=1/GPa)
#
#
# Indices 1 2 3 4 5 6 
#
# 1 0.004113 -0.001126 -0.001258 0.000000 0.000000 0.000000
# 2 -0.001126 0.005823 -0.000781 0.000000 0.000000 0.000000
# 3 -0.001258 -0.000781 0.004693 0.000000 0.000000 0.000000
# 4 0.000000 0.000000 0.000000 0.012777 0.000000 0.000000
# 5 0.000000 0.000000 0.000000 0.000000 -0.002160 0.000000
# 6 0.000000 0.000000 0.000000 0.000000 0.000000 0.017699
#
#
# Mechanical properties :
#
#
# Convention : Reuss Voigt Hill
#
# Bulk Modulus (GPa) = 120.50045 126.49998 123.50022
# Shear Modulus (GPa) = 96.07943 -31.05326 32.51309
#
# Velocity S-wave (km/s) = 5.68404 -3.23144 3.30652
# Velocity P-wave (km/s) = 9.14320 5.34928 7.49042
#
# Compressibility (1/GPa) = 0.00829872
#
# Stress axis : x y z
#
# Youngs Moduli (GPa) = 243.15679 171.73265 213.08378
#
# Poissons Ratio (x) = 0.19336 0.26800
# Poissons Ratio (y) = 0.27378 0.16647
# Poissons Ratio (z) = 0.30583 0.13417
#
# Static dielectric constant tensor:
#      x y z
#    x 2.365310 0.000000 0.000000 
#    y 0.000000 2.973470 0.000000 
#    z 0.000000 0.000000 2.947280 
# 
# From -- ./inp_files/14069.got.cif
#   From: 2010.05.17/outbox.cif.g08.bks.cpg/sg52_8_cif.got.tgz:14069.got - 2010.06.03 12:15:38.
