data_PCOD9412400
_publ_section_title
;
Structure prediction by ZEFSAII (Michael W. Deem and Ramdas Pophale) SiO2 
 PCOD9412400
Probable space group: P N N A
;
_chemical_formula_sum "Si O2"
_cell_formula_units_Z 48
_cell_length_a 27.091409
_cell_length_b 5.264836
_cell_length_c 15.208015
_cell_angle_alpha 90.000000
_cell_angle_beta 90.000000
_cell_angle_gamma 90.000000
_cell_volume 2169.146940
_symmetry_space_group_name_H-M "P N N A"
_symmetry_group_IT_number 52
_symmetry_cell_setting 'orthorhombic'
loop_
_space_group_symop_operation_xyz
x,y,z
1/2-x,-y,z
x,1/2-y,1/2-z
1/2-x,1/2+y,1/2-z
-x,-y,-z
1/2+x,y,-z
-x,1/2+y,1/2+z
1/2+x,1/2-y,1/2+z
loop_
_atom_site_type_symbol
_atom_site_label
_atom_site_fract_x
_atom_site_fract_y
_atom_site_fract_z
Si Si1 0.610564 0.277399 0.126016
Si Si2 0.698084 0.614444 0.156620
Si Si3 0.782914 0.251928 0.646485
Si Si4 0.524010 0.003796 0.197515
Si Si5 0.961778 0.178032 0.451929
Si Si6 0.860650 0.113675 0.998552
O O1 0.658818 0.391222 0.167809
O O2 0.568094 0.490419 0.115333
O O3 0.582610 0.058473 0.180529
O O4 0.627598 0.173952 0.030108
O O5 0.750000 0.500000 0.125641
O O6 0.705770 0.750000 0.250000
O O7 0.671982 0.785688 0.081783
O O8 0.750000 0.500000 0.630718
O O9 0.795949 0.250000 0.750000
O O10 0.830013 0.300779 0.585493
O O11 0.750000 0.000000 0.627292
O O12 0.512593 0.750000 0.250000
O O13 0.511626 0.913391 0.097915
O O14 0.504100 0.250000 0.250000
O O15 0.915549 0.273182 0.508100
O O16 0.000000 0.000000 0.500000
#
# Coordination Sequence:
#
# PCOD9412400 Si02
#       6
#     8   8   8   8   8   8
#     4  10  24  40  65  92 130 179 226 275 332 405
#     4  11  27  38  55  95 141 186 231 272 330 400
#     4  10  23  43  73 102 130 173 227 287 359 433
#     4  11  22  39  67  95 125 173 225 277 329 406
#     4  10  23  43  69  97 133 178 229 286 350 421
#     4  10  24  39  68  97 134 183 224 289 348 414
#
# _framework density 22.128516000000001
#
# number of rings (size 3 to 8) (size 9 to 14) (size 15 to 20)
#    0.000    1.667    1.667    0.500   16.333    2.667 
#    0.000    0.000    7.333    0.000    0.000    0.000 
#    0.000    0.000    0.000    0.000    0.000    0.000 
#
# Total GULP energy -267798.943375 kJ/mol
# GULP energy per Si atom -5579.144654 kJ/mol
# Density = 2.207815 g / cm^3
# Si number density = 22.128516 Si / 1000 Ang^3
#
#
#
# Elastic Constant Matrix: (Units=GPa)
#
#
# Indices 1 2 3 4 5 6 
#
# 1 85.4243 27.8625 42.0841 0.0000 0.0000 0.0000
# 2 27.8625 130.4677 41.4522 0.0000 0.0000 0.0000
# 3 42.0841 41.4522 82.0112 0.0000 0.0000 0.0000
# 4 0.0000 0.0000 0.0000 22.7551 0.0000 0.0000
# 5 0.0000 0.0000 0.0000 0.0000 11.0883 0.0000
# 6 0.0000 0.0000 0.0000 0.0000 0.0000 18.0891
#
#
#
# Elastic Compliance Matrix: (Units=1/GPa)
#
#
# Indices 1 2 3 4 5 6 
#
# 1 0.015765 -0.000949 -0.007610 0.000000 0.000000 0.000000
# 2 -0.000949 0.009188 -0.004157 0.000000 0.000000 0.000000
# 3 -0.007610 -0.004157 0.018200 0.000000 0.000000 0.000000
# 4 0.000000 0.000000 0.000000 0.043946 0.000000 0.000000
# 5 0.000000 0.000000 0.000000 0.000000 0.090185 0.000000
# 6 0.000000 0.000000 0.000000 0.000000 0.000000 0.055282
#
#
# Mechanical properties :
#
#
# Convention : Reuss Voigt Hill
#
# Bulk Modulus (GPa) = 56.43191 57.85564 57.14377
# Shear Modulus (GPa) = 18.94619 22.82014 20.88317
#
# Velocity S-wave (km/s) = 2.92925 3.21480 3.07534
# Velocity P-wave (km/s) = 6.08259 6.32313 6.20403
#
# Compressibility (1/GPa) = 0.01772047
#
# Stress axis : x y z
#
# Youngs Moduli (GPa) = 63.43217 108.83519 54.94542
#
# Poissons Ratio (x) = 0.10326 0.41814
# Poissons Ratio (y) = 0.06019 0.22842
# Poissons Ratio (z) = 0.48273 0.45246
#
# Static dielectric constant tensor:
#      x y z
#    x 1.772740 0.000000 0.000000 
#    y 0.000000 1.950300 0.000000 
#    z 0.000000 0.000000 1.948300 
# 
# From -- ./inp_files/29431.got.cif
#   From: 2010.05.17/outbox.cif.g08.bks.cpg/sg52_15_cif.got.tgz:29431.got - 2010.06.03 12:15:38.
