data_PCOD9412197
_publ_section_title
;
Structure prediction by ZEFSAII (Michael W. Deem and Ramdas Pophale) SiO2 
 PCOD9412197
Probable space group: P N N A
;
_chemical_formula_sum "Si O2"
_cell_formula_units_Z 32
_cell_length_a 21.982579
_cell_length_b 5.284454
_cell_length_c 10.461387
_cell_angle_alpha 90.000000
_cell_angle_beta 90.000000
_cell_angle_gamma 90.000000
_cell_volume 1215.256724
_symmetry_space_group_name_H-M "P N N A"
_symmetry_group_IT_number 52
_symmetry_cell_setting 'orthorhombic'
loop_
_space_group_symop_operation_xyz
x,y,z
1/2-x,-y,z
x,1/2-y,1/2-z
1/2-x,1/2+y,1/2-z
-x,-y,-z
1/2+x,y,-z
-x,1/2+y,1/2+z
1/2+x,1/2-y,1/2+z
loop_
_atom_site_type_symbol
_atom_site_label
_atom_site_fract_x
_atom_site_fract_y
_atom_site_fract_z
Si Si1 0.438941 0.461700 0.421916
Si Si2 0.186779 0.008101 0.164236
Si Si3 0.477642 0.750000 0.750000
Si Si4 0.614066 0.579452 0.116229
Si Si5 0.750000 0.000000 0.336775
O O1 0.500000 0.500000 0.500000
O O2 0.374145 0.590977 0.408345
O O3 0.472518 0.460406 0.284740
O O4 0.414064 0.210388 0.492985
O O5 0.200533 0.250000 0.250000
O O6 0.250000 0.000000 0.083676
O O7 0.175228 0.750000 0.250000
O O8 0.430322 0.654576 0.855233
O O9 0.610741 0.750000 0.250000
O O10 0.685160 0.526989 0.093568
O O11 0.743295 0.250000 0.250000
#
# Coordination Sequence:
#
# PCOD9412197 Si02
#       5
#     8   8   4   8   4
#     4  12  26  44  74 107 141 195 238 310 365 441
#     4  10  24  50  76 105 146 191 248 310 369 437
#     4  12  24  46  70 100 144 182 246 292 372 428
#     4  11  24  46  68 104 141 190 243 294 365 437
#     4  10  22  46  72  98 146 192 240 294 358 440
#
# _framework density 26.331887999999999
#
# number of rings (size 3 to 8) (size 9 to 14) (size 15 to 20)
#    0.000    1.000    5.000    0.750    3.500    2.000 
#   20.250    0.000    0.000    0.000    0.000    0.000 
#    0.000    0.000    0.000    0.000    0.000    0.000 
#
# Total GULP energy -178202.260083 kJ/mol
# GULP energy per Si atom -5568.820628 kJ/mol
# Density = 2.627196 g / cm^3
# Si number density = 26.331888 Si / 1000 Ang^3
#
#
#
# Elastic Constant Matrix: (Units=GPa)
#
#
# Indices 1 2 3 4 5 6 
#
# 1 353.3465 30.4339 49.1680 0.0000 0.0000 0.0000
# 2 30.4339 86.2473 -0.6473 0.0000 0.0000 0.0000
# 3 49.1680 -0.6473 34.5473 0.0000 0.0000 0.0000
# 4 0.0000 0.0000 0.0000 37.6738 0.0000 0.0000
# 5 0.0000 0.0000 0.0000 0.0000 8371.4741 0.0000
# 6 0.0000 0.0000 0.0000 0.0000 0.0000 41.8049
#
#
#
# Elastic Compliance Matrix: (Units=1/GPa)
#
#
# Indices 1 2 3 4 5 6 
#
# 1 0.003677 -0.001337 -0.005258 0.000000 0.000000 0.000000
# 2 -0.001337 0.012082 0.002129 0.000000 0.000000 0.000000
# 3 -0.005258 0.002129 0.036469 0.000000 0.000000 0.000000
# 4 0.000000 0.000000 0.000000 0.026544 0.000000 0.000000
# 5 0.000000 0.000000 0.000000 0.000000 0.000119 0.000000
# 6 0.000000 0.000000 0.000000 0.000000 0.000000 0.023921
#
#
# Mechanical properties :
#
#
# Convention : Reuss Voigt Hill
#
# Bulk Modulus (GPa) = 23.09656 70.22780 46.66218
# Shear Modulus (GPa) = 39.62725 1716.53632 878.08179
#
# Velocity S-wave (km/s) = 3.88353 25.55974 18.28089
# Velocity P-wave (km/s) = 5.37582 29.96323 21.52550
#
# Compressibility (1/GPa) = 0.04329649
#
# Stress axis : x y z
#
# Youngs Moduli (GPa) = 271.96939 82.76570 27.42054
#
# Poissons Ratio (x) = 0.11065 0.14418
# Poissons Ratio (y) = 0.36360 -0.05838
# Poissons Ratio (z) = 1.43002 -0.17622
#
# Static dielectric constant tensor:
#      x y z
#    x 2.249540 0.000000 0.000000 
#    y 0.000000 2.301220 0.000000 
#    z 0.000000 0.000000 2.672000 
# 
# From -- ./inp_files/21223.got.cif
#   From: 2010.05.17/outbox.cif.g08.bks.cpg/sg52_11_cif.got.tgz:21223.got - 2010.06.03 12:15:38.
