data_PCOD9412808
_publ_section_title
;
Structure prediction by ZEFSAII (Michael W. Deem and Ramdas Pophale) SiO2 
 PCOD9412808
Probable space group: P N N A
;
_chemical_formula_sum "Si O2"
_cell_formula_units_Z 24
_cell_length_a 4.786463
_cell_length_b 8.366420
_cell_length_c 21.620081
_cell_angle_alpha 90.000000
_cell_angle_beta 90.000000
_cell_angle_gamma 90.000000
_cell_volume 865.788246
_symmetry_space_group_name_H-M "P N N A"
_symmetry_group_IT_number 52
_symmetry_cell_setting 'orthorhombic'
loop_
_space_group_symop_operation_xyz
x,y,z
1/2-x,-y,z
x,1/2-y,1/2-z
1/2-x,1/2+y,1/2-z
-x,-y,-z
1/2+x,y,-z
-x,1/2+y,1/2+z
1/2+x,1/2-y,1/2+z
loop_
_atom_site_type_symbol
_atom_site_label
_atom_site_fract_x
_atom_site_fract_y
_atom_site_fract_z
Si Si1 0.750000 0.500000 0.245926
Si Si2 0.012053 0.780960 0.959041
Si Si3 0.345148 0.738668 0.659188
Si Si4 0.750000 0.000000 0.599387
O O1 0.558124 0.399117 0.293380
O O2 0.848774 0.360747 0.199530
O O3 0.163259 0.833616 0.896409
O O4 0.972682 0.593954 0.942549
O O5 0.205694 0.824048 0.017179
O O6 0.586487 0.857202 0.634878
#
# Coordination Sequence:
#
# PCOD9412808 Si02
#       4
#     4   8   8   4
#     4  10  24  51  70 104 153 192 256 302 370 462
#     4  12  24  42  74 110 147 188 250 313 373 452
#     4  11  24  47  74 109 144 199 244 313 377 442
#     4  12  22  41  72 108 141 188 248 302 384 430
#
# _framework density 27.720407999999999
#
# number of rings (size 3 to 8) (size 9 to 14) (size 15 to 20)
#    0.000    0.667    6.667    1.000    0.000    0.000 
#   12.000    1.667    0.000    0.000    0.000    0.000 
#    0.000    0.000    0.000    0.000    0.000    0.000 
#
# Total GULP energy -133870.149243 kJ/mol
# GULP energy per Si atom -5577.922885 kJ/mol
# Density = 2.765732 g / cm^3
# Si number density = 27.720408 Si / 1000 Ang^3
#
#
#
# Elastic Constant Matrix: (Units=GPa)
#
#
# Indices 1 2 3 4 5 6 
#
# 1 87.0575 34.0182 4.2103 0.0000 0.0000 0.0000
# 2 34.0182 155.6526 64.0007 0.0000 0.0000 0.0000
# 3 4.2103 64.0007 135.9759 0.0000 0.0000 0.0000
# 4 0.0000 0.0000 0.0000 42.3011 0.0000 0.0000
# 5 0.0000 0.0000 0.0000 0.0000 8.9238 0.0000
# 6 0.0000 0.0000 0.0000 0.0000 0.0000 -9.0587
#
#
#
# Elastic Compliance Matrix: (Units=1/GPa)
#
#
# Indices 1 2 3 4 5 6 
#
# 1 0.012698 -0.003241 0.001132 0.000000 0.000000 0.000000
# 2 -0.003241 0.008793 -0.004038 0.000000 0.000000 0.000000
# 3 0.001132 -0.004038 0.009220 0.000000 0.000000 0.000000
# 4 0.000000 0.000000 0.000000 0.023640 0.000000 0.000000
# 5 0.000000 0.000000 0.000000 0.000000 0.112060 0.000000
# 6 0.000000 0.000000 0.000000 0.000000 0.000000 -0.110391
#
#
# Mechanical properties :
#
#
# Convention : Reuss Voigt Hill
#
# Bulk Modulus (GPa) = 54.29627 64.79382 59.54505
# Shear Modulus (GPa) = 67.15513 26.86369 47.00941
#
# Velocity S-wave (km/s) = 4.92732 3.11640 4.12253
# Velocity P-wave (km/s) = 7.21117 6.03109 6.64737
#
# Compressibility (1/GPa) = 0.01841747
#
# Stress axis : x y z
#
# Youngs Moduli (GPa) = 78.75108 113.72216 108.45974
#
# Poissons Ratio (x) = 0.36854 -0.12279
# Poissons Ratio (y) = 0.25521 0.43801
# Poissons Ratio (z) = -0.08916 0.45927
#
# Static dielectric constant tensor:
#      x y z
#    x 2.177450 0.000000 0.000000 
#    y 0.000000 2.177510 0.000000 
#    z 0.000000 0.000000 2.236310 
# 
# From -- ./inp_files/38457.got.cif
#   From: 2010.05.17/outbox.cif.g08.bks.cpg/sg52_20_cif.got.tgz:38457.got - 2010.06.03 12:15:38.
