data_PCOD9412693
_publ_section_title
;
Structure prediction by ZEFSAII (Michael W. Deem and Ramdas Pophale) SiO2 
 PCOD9412693
Probable space group: P N N A
;
_chemical_formula_sum "Si O2"
_cell_formula_units_Z 32
_cell_length_a 15.982359
_cell_length_b 8.443307
_cell_length_c 10.524121
_cell_angle_alpha 90.000000
_cell_angle_beta 90.000000
_cell_angle_gamma 90.000000
_cell_volume 1420.166601
_symmetry_space_group_name_H-M "P N N A"
_symmetry_group_IT_number 52
_symmetry_cell_setting 'orthorhombic'
loop_
_space_group_symop_operation_xyz
x,y,z
1/2-x,-y,z
x,1/2-y,1/2-z
1/2-x,1/2+y,1/2-z
-x,-y,-z
1/2+x,y,-z
-x,1/2+y,1/2+z
1/2+x,1/2-y,1/2+z
loop_
_atom_site_type_symbol
_atom_site_label
_atom_site_fract_x
_atom_site_fract_y
_atom_site_fract_z
Si Si1 0.917869 0.437953 0.928735
Si Si2 0.089061 0.919190 0.977768
Si Si3 0.827742 0.250000 0.250000
Si Si4 0.660575 0.071400 0.797187
Si Si5 0.250000 0.500000 0.931360
O O1 0.912120 0.481357 0.781011
O O2 0.909517 0.251441 0.952642
O O3 0.834925 0.518981 0.988575
O O4 0.000000 0.500000 0.000000
O O5 0.116308 0.871232 0.834835
O O6 0.149758 0.038095 0.053593
O O7 0.000000 0.000000 0.000000
O O8 0.770250 0.349719 0.155676
O O9 0.656635 0.250000 0.750000
O O10 0.750000 0.000000 0.761929
#
# Coordination Sequence:
#
# PCOD9412693 Si02
#       5
#     8   8   4   8   4
#     4  11  24  46  71 105 146 195 245 311 378 455
#     4  11  26  45  72 106 150 192 254 313 378 464
#     4  10  26  46  70 108 144 200 252 304 390 454
#     4  12  26  45  74 108 148 195 255 318 388 459
#     4  10  24  44  70  96 154 182 248 306 366 454
#
# _framework density 22.532567
#
# number of rings (size 3 to 8) (size 9 to 14) (size 15 to 20)
#    0.000    1.000    1.250    3.750   14.000    2.000 
#    0.000    0.000    0.000    0.000    0.000    0.000 
#    0.000    0.000    0.000    0.000    0.000    0.000 
#
# Total GULP energy -178911.858594 kJ/mol
# GULP energy per Si atom -5590.995581 kJ/mol
# Density = 2.248128 g / cm^3
# Si number density = 22.532567 Si / 1000 Ang^3
#
#
#
# Elastic Constant Matrix: (Units=GPa)
#
#
# Indices 1 2 3 4 5 6 
#
# 1 142.8767 30.4585 53.4148 0.0000 0.0000 0.0000
# 2 30.4585 110.6137 37.1395 0.0000 0.0000 0.0000
# 3 53.4148 37.1395 122.6539 0.0000 0.0000 0.0000
# 4 0.0000 0.0000 0.0000 82.9247 0.0000 0.0000
# 5 0.0000 0.0000 0.0000 0.0000 31.1703 0.0000
# 6 0.0000 0.0000 0.0000 0.0000 0.0000 38.5011
#
#
#
# Elastic Compliance Matrix: (Units=1/GPa)
#
#
# Indices 1 2 3 4 5 6 
#
# 1 0.008506 -0.001223 -0.003334 0.000000 0.000000 0.000000
# 2 -0.001223 0.010239 -0.002568 0.000000 0.000000 0.000000
# 3 -0.003334 -0.002568 0.010383 0.000000 0.000000 0.000000
# 4 0.000000 0.000000 0.000000 0.012059 0.000000 0.000000
# 5 0.000000 0.000000 0.000000 0.000000 0.032082 0.000000
# 6 0.000000 0.000000 0.000000 0.000000 0.000000 0.025973
#
#
# Mechanical properties :
#
#
# Convention : Reuss Voigt Hill
#
# Bulk Modulus (GPa) = 67.21150 68.68557 67.94853
# Shear Modulus (GPa) = 42.21134 47.52798 44.86966
#
# Velocity S-wave (km/s) = 4.33291 4.59770 4.46727
# Velocity P-wave (km/s) = 7.41118 7.66381 7.53855
#
# Compressibility (1/GPa) = 0.01487841
#
# Stress axis : x y z
#
# Youngs Moduli (GPa) = 117.56151 97.66203 96.31516
#
# Poissons Ratio (x) = 0.11942 0.32113
# Poissons Ratio (y) = 0.14375 0.24733
# Poissons Ratio (z) = 0.39196 0.25079
#
# Static dielectric constant tensor:
#      x y z
#    x 1.827730 0.000000 0.000000 
#    y 0.000000 1.816890 0.000000 
#    z 0.000000 0.000000 1.952460 
# 
# From -- ./inp_files/18947.got.cif
#   From: 2010.05.17/outbox.cif.g08.bks.cpg/sg52_10_cif.got.tgz:18947.got - 2010.06.03 12:15:38.
