data_PCOD9412862
_publ_section_title
;
Structure prediction by ZEFSAII (Michael W. Deem and Ramdas Pophale) SiO2 
 PCOD9412862
Probable space group: P N N A
;
_chemical_formula_sum "Si O2"
_cell_formula_units_Z 32
_cell_length_a 14.730126
_cell_length_b 13.184790
_cell_length_c 6.409879
_cell_angle_alpha 90.000000
_cell_angle_beta 90.000000
_cell_angle_gamma 90.000000
_cell_volume 1244.885791
_symmetry_space_group_name_H-M "P N N A"
_symmetry_group_IT_number 52
_symmetry_cell_setting 'orthorhombic'
loop_
_space_group_symop_operation_xyz
x,y,z
1/2-x,-y,z
x,1/2-y,1/2-z
1/2-x,1/2+y,1/2-z
-x,-y,-z
1/2+x,y,-z
-x,1/2+y,1/2+z
1/2+x,1/2-y,1/2+z
loop_
_atom_site_type_symbol
_atom_site_label
_atom_site_fract_x
_atom_site_fract_y
_atom_site_fract_z
Si Si1 0.704746 0.138695 0.828006
Si Si2 0.859267 0.346031 0.365196
Si Si3 0.470505 0.887662 0.913608
Si Si4 0.646180 0.021146 0.418809
O O1 0.732674 0.250000 0.750000
O O2 0.669704 0.064643 0.645117
O O3 0.788871 0.104955 0.971566
O O4 0.617045 0.151863 0.968236
O O5 0.815660 0.250000 0.250000
O O6 0.891778 0.414124 0.167587
O O7 0.944539 0.321252 0.514418
O O8 0.427943 0.903735 0.684536
O O9 0.500000 0.000000 0.000000
O O10 0.750000 0.000000 0.338959
#
# Coordination Sequence:
#
# PCOD9412862 Si02
#       4
#     8   8   8   8
#     4  12  27  48  75 112 154 212 261 326 399 469
#     4  11  25  52  77 119 153 206 268 327 393 480
#     4  10  25  47  75 113 153 197 264 324 394 468
#     4  11  24  46  77 102 155 203 255 320 393 462
#
# _framework density 25.705169999999999
#
# number of rings (size 3 to 8) (size 9 to 14) (size 15 to 20)
#    0.000    1.000    2.500    2.250    7.000    4.000 
#    9.000    0.000    0.000    0.000    0.000    0.000 
#    0.000    0.000    0.000    0.000    0.000    0.000 
#
# Total GULP energy -178235.588546 kJ/mol
# GULP energy per Si atom -5569.862142 kJ/mol
# Density = 2.564666 g / cm^3
# Si number density = 25.705170 Si / 1000 Ang^3
#
#
#
# Elastic Constant Matrix: (Units=GPa)
#
#
# Indices 1 2 3 4 5 6 
#
# 1 153.3027 -13.4889 50.4810 0.0000 0.0000 0.0000
# 2 -13.4889 66.2898 65.3054 0.0000 0.0000 0.0000
# 3 50.4810 65.3054 166.2197 0.0000 0.0000 0.0000
# 4 0.0000 0.0000 0.0000 46.4561 0.0000 0.0000
# 5 0.0000 0.0000 0.0000 0.0000 45.2593 0.0000
# 6 0.0000 0.0000 0.0000 0.0000 0.0000 28.8816
#
#
#
# Elastic Compliance Matrix: (Units=1/GPa)
#
#
# Indices 1 2 3 4 5 6 
#
# 1 0.009038 0.007412 -0.005657 0.000000 0.000000 0.000000
# 2 0.007412 0.030690 -0.014308 0.000000 0.000000 0.000000
# 3 -0.005657 -0.014308 0.013356 0.000000 0.000000 0.000000
# 4 0.000000 0.000000 0.000000 0.021526 0.000000 0.000000
# 5 0.000000 0.000000 0.000000 0.000000 0.022095 0.000000
# 6 0.000000 0.000000 0.000000 0.000000 0.000000 0.034624
#
#
# Mechanical properties :
#
#
# Convention : Reuss Voigt Hill
#
# Bulk Modulus (GPa) = 35.74444 65.60077 50.67260
# Shear Modulus (GPa) = 30.16404 43.02037 36.59221
#
# Velocity S-wave (km/s) = 3.42930 4.09541 3.77707
# Velocity P-wave (km/s) = 5.44205 6.92380 6.22716
#
# Compressibility (1/GPa) = 0.02797638
#
# Stress axis : x y z
#
# Youngs Moduli (GPa) = 110.64432 32.58443 74.87417
#
# Poissons Ratio (x) = -0.24151 0.42356
# Poissons Ratio (y) = -0.82009 1.07134
# Poissons Ratio (z) = 0.62590 0.46623
#
# Static dielectric constant tensor:
#      x y z
#    x 1.980280 0.000000 0.000000 
#    y 0.000000 2.255050 0.000000 
#    z 0.000000 0.000000 2.093370 
# 
# From -- ./inp_files/3068.got.cif
#   From: 2010.05.17/outbox.cif.g08.bks.cpg/sg52_2_cif.got.tgz:3068.got - 2010.06.03 12:15:38.
