data_PCOD9412569
_publ_section_title
;
Structure prediction by ZEFSAII (Michael W. Deem and Ramdas Pophale) SiO2 
 PCOD9412569
Probable space group: P N N A
;
_chemical_formula_sum "Si O2"
_cell_formula_units_Z 56
_cell_length_a 18.483424
_cell_length_b 9.699499
_cell_length_c 14.302113
_cell_angle_alpha 90.000000
_cell_angle_beta 90.000000
_cell_angle_gamma 90.000000
_cell_volume 2564.082141
_symmetry_space_group_name_H-M "P N N A"
_symmetry_group_IT_number 52
_symmetry_cell_setting 'orthorhombic'
loop_
_space_group_symop_operation_xyz
x,y,z
1/2-x,-y,z
x,1/2-y,1/2-z
1/2-x,1/2+y,1/2-z
-x,-y,-z
1/2+x,y,-z
-x,1/2+y,1/2+z
1/2+x,1/2-y,1/2+z
loop_
_atom_site_type_symbol
_atom_site_label
_atom_site_fract_x
_atom_site_fract_y
_atom_site_fract_z
Si Si1 0.631797 0.329332 0.843301
Si Si2 0.980799 0.790498 0.355210
Si Si3 0.113606 0.111284 0.991564
Si Si4 0.035589 0.603074 0.860158
Si Si5 0.593626 0.696243 0.526353
Si Si6 0.349216 0.250000 0.750000
Si Si7 0.750000 0.000000 0.544408
Si Si8 0.239719 0.718096 0.561655
O O1 0.658255 0.250000 0.750000
O O2 0.547927 0.377044 0.830108
O O3 0.683614 0.450920 0.885769
O O4 0.625047 0.207749 0.919248
O O5 0.964507 0.750000 0.250000
O O6 0.939448 0.686860 0.421631
O O7 0.064395 0.762863 0.379455
O O8 0.958625 0.943371 0.385889
O O9 0.192412 0.116984 0.943028
O O10 0.079541 0.964979 0.015397
O O11 0.094185 0.630618 0.778996
O O12 0.059416 0.708495 0.943051
O O13 0.679519 0.691739 0.516945
O O14 0.299675 0.285196 0.661571
O O15 0.756775 0.874330 0.469362
#
# Coordination Sequence:
#
# PCOD9412569 Si02
#       8
#     8   8   8   8   8   4   4   8
#     4  11  24  45  75 101 143 188 247 301 368 434
#     4  12  28  41  73 107 142 189 240 299 356 442
#     4  11  26  46  69 106 149 186 235 309 358 434
#     4  11  24  44  70 104 140 191 233 299 361 424
#     4  11  24  47  69 100 143 186 236 289 365 422
#     4  10  24  40  74 104 144 188 246 290 358 454
#     4  10  24  48  68 100 142 194 240 306 368 442
#     4  10  24  45  69 102 145 193 235 297 369 428
#
# _framework density 21.840173
#
# number of rings (size 3 to 8) (size 9 to 14) (size 15 to 20)
#    0.000    1.143    2.143    2.143   15.000    0.000 
#   10.286    1.429    0.000    0.000    0.000    0.000 
#    0.000    0.000    0.000    0.000    0.000    0.000 
#
# Total GULP energy -312326.775735 kJ/mol
# GULP energy per Si atom -5577.263852 kJ/mol
# Density = 2.179046 g / cm^3
# Si number density = 21.840173 Si / 1000 Ang^3
#
#
#
# Elastic Constant Matrix: (Units=GPa)
#
#
# Indices 1 2 3 4 5 6 
#
# 1 79.6198 9.1288 4.2428 0.0000 0.0000 0.0000
# 2 9.1288 107.4011 18.6503 0.0000 0.0000 0.0000
# 3 4.2428 18.6503 91.2954 0.0000 0.0000 0.0000
# 4 0.0000 0.0000 0.0000 15.6969 0.0000 0.0000
# 5 0.0000 0.0000 0.0000 0.0000 -201.7947 0.0000
# 6 0.0000 0.0000 0.0000 0.0000 0.0000 -12.6237
#
#
#
# Elastic Compliance Matrix: (Units=1/GPa)
#
#
# Indices 1 2 3 4 5 6 
#
# 1 0.012696 -0.001013 -0.000383 0.000000 0.000000 0.000000
# 2 -0.001013 0.009734 -0.001941 0.000000 0.000000 0.000000
# 3 -0.000383 -0.001941 0.011368 0.000000 0.000000 0.000000
# 4 0.000000 0.000000 0.000000 0.063707 0.000000 0.000000
# 5 0.000000 0.000000 0.000000 0.000000 -0.004956 0.000000
# 6 0.000000 0.000000 0.000000 0.000000 0.000000 -0.079216
#
#
# Mechanical properties :
#
#
# Convention : Reuss Voigt Hill
#
# Bulk Modulus (GPa) = 36.86815 38.04001 37.45408
# Shear Modulus (GPa) = 172.12448 -23.32465 74.39991
#
# Velocity S-wave (km/s) = 8.88718 -3.27153 5.84291
# Velocity P-wave (km/s) = 11.05563 1.78459 7.91870
#
# Compressibility (1/GPa) = 0.02712368
#
# Stress axis : x y z
#
# Youngs Moduli (GPa) = 78.76365 102.73165 87.96721
#
# Poissons Ratio (x) = 0.10403 0.03371
# Poissons Ratio (y) = 0.07976 0.17079
# Poissons Ratio (z) = 0.03018 0.19945
#
# Static dielectric constant tensor:
#      x y z
#    x 1.901070 0.000000 0.000000 
#    y 0.000000 1.918530 0.000000 
#    z 0.000000 0.000000 1.810770 
# 
# From -- ./inp_files/28820.got.cif
#   From: 2010.05.17/outbox.cif.g08.bks.cpg/sg52_15_cif.got.tgz:28820.got - 2010.06.03 12:15:38.
