data_PCOD9412306
_publ_section_title
;
Structure prediction by ZEFSAII (Michael W. Deem and Ramdas Pophale) SiO2 
 PCOD9412306
Probable space group: P N N A
;
_chemical_formula_sum "Si O2"
_cell_formula_units_Z 60
_cell_length_a 31.221598
_cell_length_b 8.521910
_cell_length_c 10.639957
_cell_angle_alpha 90.000000
_cell_angle_beta 90.000000
_cell_angle_gamma 90.000000
_cell_volume 2830.948336
_symmetry_space_group_name_H-M "P N N A"
_symmetry_group_IT_number 52
_symmetry_cell_setting 'orthorhombic'
loop_
_space_group_symop_operation_xyz
x,y,z
1/2-x,-y,z
x,1/2-y,1/2-z
1/2-x,1/2+y,1/2-z
-x,-y,-z
1/2+x,y,-z
-x,1/2+y,1/2+z
1/2+x,1/2-y,1/2+z
loop_
_atom_site_type_symbol
_atom_site_label
_atom_site_fract_x
_atom_site_fract_y
_atom_site_fract_z
Si Si1 0.705013 0.715570 0.890285
Si Si2 0.480657 0.750000 0.250000
Si Si3 0.604832 0.914904 0.272583
Si Si4 0.917539 0.788373 0.969759
Si Si5 0.843692 0.493775 0.480258
Si Si6 0.775671 0.754131 0.394114
Si Si7 0.527707 0.412999 0.295530
Si Si8 0.346150 0.975659 0.515437
O O1 0.721328 0.750000 0.750000
O O2 0.740767 0.711018 0.999283
O O3 0.677664 0.554869 0.898947
O O4 0.674427 0.855222 0.935739
O O5 0.449562 0.722305 0.133007
O O6 0.502631 0.578862 0.284494
O O7 0.581851 0.750000 0.250000
O O8 0.634293 0.952952 0.153412
O O9 0.569906 0.050683 0.288441
O O10 0.632869 0.894621 0.395859
O O11 0.882265 0.923504 0.942902
O O12 0.949578 0.867822 0.072678
O O13 0.883594 0.648514 0.994281
O O14 0.803238 0.603475 0.440364
O O15 0.759197 0.750000 0.250000
O O16 0.810556 0.891657 0.399729
O O17 0.505985 0.250000 0.250000
#
# Coordination Sequence:
#
# PCOD9412306 Si02
#       8
#     8   4   8   8   8   8   8   8
#     4  12  28  43  61  98 142 188 232 288 364 432
#     4  12  26  46  68 104 142 196 228 280 358 440
#     4  11  19  39  70 102 128 173 229 296 359 406
#     4  10  25  45  68  99 136 181 229 287 352 423
#     4  10  23  41  68  92 134 175 229 291 344 419
#     4  11  24  41  69 102 134 176 238 304 360 419
#     4  11  23  44  71 105 144 176 231 297 361 425
#     4  11  23  43  70  96 133 180 236 295 351 430
#
# _framework density 21.194310999999999
#
# number of rings (size 3 to 8) (size 9 to 14) (size 15 to 20)
#    0.000    1.067    4.667    1.200    3.733    3.733 
#    4.800    0.000    0.000    0.000    0.000    0.000 
#    0.000    0.000    0.000    0.000    0.000    0.000 
#
# Total GULP energy -334035.507342 kJ/mol
# GULP energy per Si atom -5567.258456 kJ/mol
# Density = 2.114607 g / cm^3
# Si number density = 21.194311 Si / 1000 Ang^3
#
#
#
# Elastic Constant Matrix: (Units=GPa)
#
#
# Indices 1 2 3 4 5 6 
#
# 1 87.9307 43.1468 47.1914 0.0000 0.0000 0.0000
# 2 43.1468 98.6826 15.8492 0.0000 0.0000 0.0000
# 3 47.1914 15.8492 92.4291 0.0000 0.0000 0.0000
# 4 0.0000 0.0000 0.0000 20.5043 0.0000 0.0000
# 5 0.0000 0.0000 0.0000 0.0000 -4.2647 0.0000
# 6 0.0000 0.0000 0.0000 0.0000 0.0000 -79.7390
#
#
#
# Elastic Compliance Matrix: (Units=1/GPa)
#
#
# Indices 1 2 3 4 5 6 
#
# 1 0.019596 -0.007158 -0.008778 0.000000 0.000000 0.000000
# 2 -0.007158 0.013035 0.001419 0.000000 0.000000 0.000000
# 3 -0.008778 0.001419 0.015057 0.000000 0.000000 0.000000
# 4 0.000000 0.000000 0.000000 0.048770 0.000000 0.000000
# 5 0.000000 0.000000 0.000000 0.000000 -0.234481 0.000000
# 6 0.000000 0.000000 0.000000 0.000000 0.000000 -0.012541
#
#
# Mechanical properties :
#
#
# Convention : Reuss Voigt Hill
#
# Bulk Modulus (GPa) = 53.60223 54.60191 54.10207
# Shear Modulus (GPa) = -43.36050 -1.17621 -22.26836
#
# Velocity S-wave (km/s) = -4.52802 -0.74577 -3.24493
# Velocity P-wave (km/s) = 1.41122 5.00768 3.39745
#
# Compressibility (1/GPa) = 0.01865594
#
# Stress axis : x y z
#
# Youngs Moduli (GPa) = 51.03120 76.71509 66.41319
#
# Poissons Ratio (x) = 0.54914 0.58295
# Poissons Ratio (y) = 0.36529 -0.09427
# Poissons Ratio (z) = 0.44793 -0.10890
#
# Static dielectric constant tensor:
#      x y z
#    x 1.770020 0.000000 0.000000 
#    y 0.000000 1.821120 0.000000 
#    z 0.000000 0.000000 1.771680 
# 
# From -- ./inp_files/22917.got.cif
#   From: 2010.05.17/outbox.cif.g08.bks.cpg/sg52_12_cif.got.tgz:22917.got - 2010.06.03 12:15:38.
