data_PCOD9412711
_publ_section_title
;
Structure prediction by ZEFSAII (Michael W. Deem and Ramdas Pophale) SiO2 
 PCOD9412711
Probable space group: P N N A
;
_chemical_formula_sum "Si O2"
_cell_formula_units_Z 32
_cell_length_a 10.449184
_cell_length_b 16.912974
_cell_length_c 7.442836
_cell_angle_alpha 90.000000
_cell_angle_beta 90.000000
_cell_angle_gamma 90.000000
_cell_volume 1315.348420
_symmetry_space_group_name_H-M "P N N A"
_symmetry_group_IT_number 52
_symmetry_cell_setting 'orthorhombic'
loop_
_space_group_symop_operation_xyz
x,y,z
1/2-x,-y,z
x,1/2-y,1/2-z
1/2-x,1/2+y,1/2-z
-x,-y,-z
1/2+x,y,-z
-x,1/2+y,1/2+z
1/2+x,1/2-y,1/2+z
loop_
_atom_site_type_symbol
_atom_site_label
_atom_site_fract_x
_atom_site_fract_y
_atom_site_fract_z
Si Si1 0.462135 0.915961 0.663005
Si Si2 0.612435 0.307544 0.497919
Si Si3 0.861465 0.284185 0.950566
Si Si4 0.867724 0.554757 0.781924
O O1 0.409724 0.860693 0.820579
O O2 0.588927 0.873510 0.576927
O O3 0.369184 0.926741 0.494291
O O4 0.505987 0.000194 0.741859
O O5 0.728689 0.246361 0.469109
O O6 0.482583 0.260172 0.536614
O O7 0.635552 0.367177 0.662367
O O8 0.855074 0.250000 0.750000
O O9 0.750000 0.500000 0.727477
#
# Coordination Sequence:
#
# PCOD9412711 Si02
#       4
#     8   8   8   8
#     4  10  25  45  65 110 140 190 246 299 361 448
#     4  11  24  46  74  99 145 192 235 306 366 430
#     4  10  24  45  70 107 143 182 252 294 361 441
#     4  11  24  43  72 100 148 185 242 304 366 433
#
# _framework density 24.328156
#
# number of rings (size 3 to 8) (size 9 to 14) (size 15 to 20)
#    0.000    1.500    0.000    3.750    7.000    5.000 
#    9.000    0.000    0.000    0.000    0.000    0.000 
#    0.000    0.000    0.000    0.000    0.000    0.000 
#
# Total GULP energy -179155.691862 kJ/mol
# GULP energy per Si atom -5598.615371 kJ/mol
# Density = 2.427278 g / cm^3
# Si number density = 24.328156 Si / 1000 Ang^3
#
#
#
# Elastic Constant Matrix: (Units=GPa)
#
#
# Indices 1 2 3 4 5 6 
#
# 1 125.3716 31.3731 20.2552 0.0000 0.0000 0.0000
# 2 31.3731 97.0990 6.0050 0.0000 0.0000 0.0000
# 3 20.2552 6.0050 85.7742 0.0000 0.0000 0.0000
# 4 0.0000 0.0000 0.0000 49.4535 0.0000 0.0000
# 5 0.0000 0.0000 0.0000 0.0000 18.4527 0.0000
# 6 0.0000 0.0000 0.0000 0.0000 0.0000 45.8470
#
#
#
# Elastic Compliance Matrix: (Units=1/GPa)
#
#
# Indices 1 2 3 4 5 6 
#
# 1 0.008984 -0.002784 -0.001927 0.000000 0.000000 0.000000
# 2 -0.002784 0.011206 -0.000127 0.000000 0.000000 0.000000
# 3 -0.001927 -0.000127 0.012122 0.000000 0.000000 0.000000
# 4 0.000000 0.000000 0.000000 0.020221 0.000000 0.000000
# 5 0.000000 0.000000 0.000000 0.000000 0.054193 0.000000
# 6 0.000000 0.000000 0.000000 0.000000 0.000000 0.021812
#
#
# Mechanical properties :
#
#
# Convention : Reuss Voigt Hill
#
# Bulk Modulus (GPa) = 44.17442 47.05682 45.61562
# Shear Modulus (GPa) = 34.30324 39.45807 36.88065
#
# Velocity S-wave (km/s) = 3.75910 4.03166 3.89776
# Velocity P-wave (km/s) = 6.08591 6.40757 6.24881
#
# Compressibility (1/GPa) = 0.02263754
#
# Stress axis : x y z
#
# Youngs Moduli (GPa) = 111.30706 89.23752 82.49197
#
# Poissons Ratio (x) = 0.24841 0.15894
# Poissons Ratio (y) = 0.30984 0.01049
# Poissons Ratio (z) = 0.21445 0.01135
#
# Static dielectric constant tensor:
#      x y z
#    x 1.992130 0.000000 0.000000 
#    y 0.000000 1.936850 0.000000 
#    z 0.000000 0.000000 1.911550 
# 
# From -- ./inp_files/7195.got.cif
#   From: 2010.05.17/outbox.cif.g08.bks.cpg/sg52_4_cif.got.tgz:7195.got - 2010.06.03 12:15:38.
