data_PCOD9412042
_publ_section_title
;
Structure prediction by ZEFSAII (Michael W. Deem and Ramdas Pophale) SiO2 
 PCOD9412042
Probable space group: P N N A
;
_chemical_formula_sum "Si O2"
_cell_formula_units_Z 40
_cell_length_a 5.082487
_cell_length_b 10.263913
_cell_length_c 29.901505
_cell_angle_alpha 90.000000
_cell_angle_beta 90.000000
_cell_angle_gamma 90.000000
_cell_volume 1559.848021
_symmetry_space_group_name_H-M "P N N A"
_symmetry_group_IT_number 52
_symmetry_cell_setting 'orthorhombic'
loop_
_space_group_symop_operation_xyz
x,y,z
1/2-x,-y,z
x,1/2-y,1/2-z
1/2-x,1/2+y,1/2-z
-x,-y,-z
1/2+x,y,-z
-x,1/2+y,1/2+z
1/2+x,1/2-y,1/2+z
loop_
_atom_site_type_symbol
_atom_site_label
_atom_site_fract_x
_atom_site_fract_y
_atom_site_fract_z
Si Si1 0.750000 0.500000 0.103699
Si Si2 0.411235 0.750000 0.250000
Si Si3 0.496943 0.593149 0.417307
Si Si4 0.765476 0.254353 0.160174
Si Si5 0.750000 0.500000 0.749876
Si Si6 0.750000 0.500000 0.305714
Si Si7 0.939417 0.847853 0.529194
O O1 0.653724 0.380278 0.134994
O O2 0.964673 0.433594 0.071306
O O3 0.603597 0.714121 0.207259
O O4 0.184593 0.640629 0.232045
O O5 0.250000 0.500000 0.414773
O O6 0.523792 0.685817 0.373669
O O7 0.470288 0.697219 0.456838
O O8 0.750000 0.500000 0.422185
O O9 0.608492 0.119710 0.169101
O O10 0.495740 0.448504 0.722822
O O11 0.148033 0.869676 0.489276
#
# Coordination Sequence:
#
# PCOD9412042 Si02
#       7
#     4   4   8   8   4   4   8
#     4  10  24  45  70 109 146 186 236 293 360 433
#     4  10  24  42  68 100 136 192 242 298 350 418
#     4  11  24  42  69 104 142 185 233 296 357 424
#     4  10  23  43  69 101 142 188 242 294 358 419
#     4  10  24  42  64  97 130 175 242 298 350 402
#     4  10  22  43  68  92 130 183 232 291 352 411
#     4  11  24  46  74 104 142 186 231 287 362 443
#
# _framework density 25.643522000000001
#
# number of rings (size 3 to 8) (size 9 to 14) (size 15 to 20)
#    0.000    1.600    1.000    1.800    5.600   10.400 
#    0.000   12.000    0.000    0.000    0.000    0.000 
#    0.000    0.000    0.000    0.000    0.000    0.000 
#
# Total GULP energy -222715.032840 kJ/mol
# GULP energy per Si atom -5567.875821 kJ/mol
# Density = 2.558516 g / cm^3
# Si number density = 25.643522 Si / 1000 Ang^3
#
#
#
# Elastic Constant Matrix: (Units=GPa)
#
#
# Indices 1 2 3 4 5 6 
#
# 1 107.8777 12.8020 13.6952 0.0000 0.0000 0.0000
# 2 12.8020 127.6813 46.4659 0.0000 0.0000 0.0000
# 3 13.6952 46.4659 105.8135 0.0000 0.0000 0.0000
# 4 0.0000 0.0000 0.0000 21.8791 0.0000 0.0000
# 5 0.0000 0.0000 0.0000 0.0000 0.7946 0.0000
# 6 0.0000 0.0000 0.0000 0.0000 0.0000 31.2909
#
#
#
# Elastic Compliance Matrix: (Units=1/GPa)
#
#
# Indices 1 2 3 4 5 6 
#
# 1 0.009463 -0.000599 -0.000962 0.000000 0.000000 0.000000
# 2 -0.000599 0.009360 -0.004033 0.000000 0.000000 0.000000
# 3 -0.000962 -0.004033 0.011346 0.000000 0.000000 0.000000
# 4 0.000000 0.000000 0.000000 0.045706 0.000000 0.000000
# 5 0.000000 0.000000 0.000000 0.000000 1.258421 0.000000
# 6 0.000000 0.000000 0.000000 0.000000 0.000000 0.031958
#
#
# Mechanical properties :
#
#
# Convention : Reuss Voigt Hill
#
# Bulk Modulus (GPa) = 52.68133 54.14428 53.41281
# Shear Modulus (GPa) = 3.61332 28.68690 16.15011
#
# Velocity S-wave (km/s) = 1.18833 3.34830 2.51229
# Velocity P-wave (km/s) = 4.74037 6.00901 5.41199
#
# Compressibility (1/GPa) = 0.01898206
#
# Stress axis : x y z
#
# Youngs Moduli (GPa) = 105.67568 106.84253 88.13756
#
# Poissons Ratio (x) = 0.06397 0.08477
# Poissons Ratio (y) = 0.06328 0.35542
# Poissons Ratio (z) = 0.10164 0.43085
#
# Static dielectric constant tensor:
#      x y z
#    x 2.054940 0.000000 0.000000 
#    y 0.000000 1.665900 0.000000 
#    z 0.000000 0.000000 2.455750 
# 
# From -- ./inp_files/41553.got.cif
#   From: 2010.05.17/outbox.cif.g08.bks.cpg/sg52_21_cif.got.tgz:41553.got - 2010.06.03 12:15:38.
