data_PCOD9412353
_publ_section_title
;
Structure prediction by ZEFSAII (Michael W. Deem and Ramdas Pophale) SiO2 
 PCOD9412353
Probable space group: P N N A
;
_chemical_formula_sum "Si O2"
_cell_formula_units_Z 64
_cell_length_a 9.427345
_cell_length_b 20.602748
_cell_length_c 15.038311
_cell_angle_alpha 90.000000
_cell_angle_beta 90.000000
_cell_angle_gamma 90.000000
_cell_volume 2920.879316
_symmetry_space_group_name_H-M "P N N A"
_symmetry_group_IT_number 52
_symmetry_cell_setting 'orthorhombic'
loop_
_space_group_symop_operation_xyz
x,y,z
1/2-x,-y,z
x,1/2-y,1/2-z
1/2-x,1/2+y,1/2-z
-x,-y,-z
1/2+x,y,-z
-x,1/2+y,1/2+z
1/2+x,1/2-y,1/2+z
loop_
_atom_site_type_symbol
_atom_site_label
_atom_site_fract_x
_atom_site_fract_y
_atom_site_fract_z
Si Si1 0.630815 0.548939 0.190439
Si Si2 0.986444 0.249087 0.350812
Si Si3 0.466330 0.830079 0.917210
Si Si4 0.254020 0.737269 0.445507
Si Si5 0.306576 0.369716 0.645285
Si Si6 0.869052 0.454676 0.521641
Si Si7 0.910127 0.026616 0.582976
Si Si8 0.852237 0.359111 0.030512
O O1 0.750000 0.500000 0.223109
O O2 0.616678 0.601423 0.268194
O O3 0.493899 0.505847 0.165194
O O4 0.689434 0.584942 0.101183
O O5 0.935934 0.250000 0.250000
O O6 0.900053 0.309799 0.390656
O O7 0.954502 0.185136 0.408093
O O8 0.153051 0.259861 0.356995
O O9 0.590500 0.776578 0.920459
O O10 0.353146 0.843518 0.838325
O O11 0.561625 0.894449 0.927360
O O12 0.350375 0.812457 0.994852
O O13 0.258828 0.805543 0.498046
O O14 0.304912 0.424793 0.569405
O O15 0.750000 0.500000 0.566087
O O16 0.000000 0.500000 0.500000
O O17 0.904849 0.103061 0.557824
O O18 0.750000 0.000000 0.583420
O O19 0.000000 0.000000 0.500000
#
# Coordination Sequence:
#
# PCOD9412353 Si02
#       8
#     8   8   8   8   8   8   8   8
#     4  11  26  44  65 101 145 184 234 291 351 434
#     4  12  25  44  67 102 140 188 224 295 369 419
#     4  12  22  41  64 103 132 173 242 290 346 437
#     4  12  23  41  71 102 136 178 233 299 352 425
#     4  12  24  45  68  95 142 183 230 288 365 418
#     4  12  22  37  65  96 126 173 229 284 343 411
#     4  10  23  42  69 105 137 179 236 287 342 424
#     4  11  22  39  76  97 134 183 233 286 354 423
#
# _framework density 21.911208999999999
#
# number of rings (size 3 to 8) (size 9 to 14) (size 15 to 20)
#    0.000    0.500    7.500    1.875    5.250    0.000 
#    0.000    5.000    0.000    0.000    0.000    0.000 
#    0.000    0.000    0.000    0.000    0.000    0.000 
#
# Total GULP energy -356524.749926 kJ/mol
# GULP energy per Si atom -5570.699218 kJ/mol
# Density = 2.186134 g / cm^3
# Si number density = 21.911209 Si / 1000 Ang^3
#
#
#
# Elastic Constant Matrix: (Units=GPa)
#
#
# Indices 1 2 3 4 5 6 
#
# 1 143.7718 29.2813 27.0677 0.0000 0.0000 0.0000
# 2 29.2813 106.8352 19.1079 0.0000 0.0000 0.0000
# 3 27.0677 19.1079 49.2381 0.0000 0.0000 0.0000
# 4 0.0000 0.0000 0.0000 22.8069 0.0000 0.0000
# 5 0.0000 0.0000 0.0000 0.0000 17.1156 0.0000
# 6 0.0000 0.0000 0.0000 0.0000 0.0000 25.8400
#
#
#
# Elastic Compliance Matrix: (Units=1/GPa)
#
#
# Indices 1 2 3 4 5 6 
#
# 1 0.007978 -0.001507 -0.003801 0.000000 0.000000 0.000000
# 2 -0.001507 0.010343 -0.003185 0.000000 0.000000 0.000000
# 3 -0.003801 -0.003185 0.023635 0.000000 0.000000 0.000000
# 4 0.000000 0.000000 0.000000 0.043846 0.000000 0.000000
# 5 0.000000 0.000000 0.000000 0.000000 0.058426 0.000000
# 6 0.000000 0.000000 0.000000 0.000000 0.000000 0.038700
#
#
# Mechanical properties :
#
#
# Convention : Reuss Voigt Hill
#
# Bulk Modulus (GPa) = 40.04869 50.08432 45.06651
# Shear Modulus (GPa) = 24.01096 28.11170 26.06133
#
# Velocity S-wave (km/s) = 3.31392 3.58576 3.45252
# Velocity P-wave (km/s) = 5.74110 6.32859 6.04199
#
# Compressibility (1/GPa) = 0.02496960
#
# Stress axis : x y z
#
# Youngs Moduli (GPa) = 125.34550 96.68449 42.30975
#
# Poissons Ratio (x) = 0.14568 0.16082
# Poissons Ratio (y) = 0.18887 0.13478
# Poissons Ratio (z) = 0.47644 0.30799
#
# Static dielectric constant tensor:
#      x y z
#    x 1.798830 0.000000 0.000000 
#    y 0.000000 1.849860 0.000000 
#    z 0.000000 0.000000 1.879320 
# 
# From -- ./inp_files/31590.got.cif
#   From: 2010.05.17/outbox.cif.g08.bks.cpg/sg52_16_cif.got.tgz:31590.got - 2010.06.03 12:15:38.
