data_PCOD9412819
_publ_section_title
;
Structure prediction by ZEFSAII (Michael W. Deem and Ramdas Pophale) SiO2 
 PCOD9412819
Probable space group: P N N A
;
_chemical_formula_sum "Si O2"
_cell_formula_units_Z 40
_cell_length_a 23.239565
_cell_length_b 5.265510
_cell_length_c 14.875021
_cell_angle_alpha 90.000000
_cell_angle_beta 90.000000
_cell_angle_gamma 90.000000
_cell_volume 1820.228978
_symmetry_space_group_name_H-M "P N N A"
_symmetry_group_IT_number 52
_symmetry_cell_setting 'orthorhombic'
loop_
_space_group_symop_operation_xyz
x,y,z
1/2-x,-y,z
x,1/2-y,1/2-z
1/2-x,1/2+y,1/2-z
-x,-y,-z
1/2+x,y,-z
-x,1/2+y,1/2+z
1/2+x,1/2-y,1/2+z
loop_
_atom_site_type_symbol
_atom_site_label
_atom_site_fract_x
_atom_site_fract_y
_atom_site_fract_z
Si Si1 0.250000 0.500000 0.312147
Si Si2 0.486452 0.750000 0.750000
Si Si3 0.310435 0.253655 0.848215
Si Si4 0.850426 0.780612 0.913622
Si Si5 0.435932 0.750000 0.250000
Si Si6 0.250000 0.500000 0.999198
Si Si7 0.884088 0.736093 0.386440
O O1 0.251511 0.750000 0.250000
O O2 0.192831 0.494519 0.374196
O O3 0.525078 0.499628 0.742682
O O4 0.444768 0.759821 0.663198
O O5 0.282201 0.250000 0.750000
O O6 0.265724 0.273728 0.930111
O O7 0.349398 0.504872 0.864643
O O8 0.350267 0.007361 0.849172
O O9 0.894772 0.718416 0.835857
O O10 0.804189 0.565880 0.940348
O O11 0.884324 0.818346 0.006755
#
# Coordination Sequence:
#
# PCOD9412819 Si02
#       7
#     4   4   8   8   4   4   8
#     4  12  25  44  77 102 148 192 227 280 357 424
#     4  12  26  50  73 104 129 192 234 312 350 404
#     4  11  21  41  70 108 143 188 220 280 347 438
#     4  11  26  47  69 111 140 190 229 292 344 437
#     4  12  30  44  75  98 141 180 254 286 360 400
#     4  10  25  42  71 108 152 184 233 274 363 430
#     4  11  24  45  76  97 144 179 237 289 356 403
#
# _framework density 21.975256000000002
#
# number of rings (size 3 to 8) (size 9 to 14) (size 15 to 20)
#    0.000    0.800    3.000    3.000    1.400   12.000 
#    0.000    0.000    0.000    0.000    0.000    0.000 
#    0.000    0.000    0.000    0.000    0.000    0.000 
#
# Total GULP energy -223811.080208 kJ/mol
# GULP energy per Si atom -5595.277005 kJ/mol
# Density = 2.192524 g / cm^3
# Si number density = 21.975256 Si / 1000 Ang^3
#
#
#
# Elastic Constant Matrix: (Units=GPa)
#
#
# Indices 1 2 3 4 5 6 
#
# 1 147.0011 57.0784 75.4325 0.0000 0.0000 0.0000
# 2 57.0784 156.0015 41.8953 0.0000 0.0000 0.0000
# 3 75.4325 41.8953 198.9734 0.0000 0.0000 0.0000
# 4 0.0000 0.0000 0.0000 9026.3208 0.0000 0.0000
# 5 0.0000 0.0000 0.0000 0.0000 133.5618 0.0000
# 6 0.0000 0.0000 0.0000 0.0000 0.0000 42.8087
#
#
#
# Elastic Compliance Matrix: (Units=1/GPa)
#
#
# Indices 1 2 3 4 5 6 
#
# 1 0.009357 -0.002619 -0.002996 0.000000 0.000000 0.000000
# 2 -0.002619 0.007527 -0.000592 0.000000 0.000000 0.000000
# 3 -0.002996 -0.000592 0.006286 0.000000 0.000000 0.000000
# 4 0.000000 0.000000 0.000000 0.000111 0.000000 0.000000
# 5 0.000000 0.000000 0.000000 0.000000 0.007487 0.000000
# 6 0.000000 0.000000 0.000000 0.000000 0.000000 0.023360
#
#
# Mechanical properties :
#
#
# Convention : Reuss Voigt Hill
#
# Bulk Modulus (GPa) = 92.96483 94.53204 93.74844
# Shear Modulus (GPa) = 71.29865 1862.37625 966.83745
#
# Velocity S-wave (km/s) = 5.70223 29.14323 20.99813
# Velocity P-wave (km/s) = 9.26013 34.28626 25.11272
#
# Compressibility (1/GPa) = 0.01075676
#
# Stress axis : x y z
#
# Youngs Moduli (GPa) = 106.87340 132.84724 159.07849
#
# Poissons Ratio (x) = 0.34792 0.47657
# Poissons Ratio (y) = 0.27990 0.09419
# Poissons Ratio (z) = 0.32017 0.07866
#
# Static dielectric constant tensor:
#      x y z
#    x 1.815890 0.000000 0.000000 
#    y 0.000000 1.805990 0.000000 
#    z 0.000000 0.000000 1.849390 
# 
# From -- ./inp_files/29105.got.cif
#   From: 2010.05.17/outbox.cif.g08.bks.cpg/sg52_15_cif.got.tgz:29105.got - 2010.06.03 12:15:38.
