data_PCOD9412754
_publ_section_title
;
Structure prediction by ZEFSAII (Michael W. Deem and Ramdas Pophale) SiO2 
 PCOD9412754
Probable space group: P N N A
;
_chemical_formula_sum "Si O2"
_cell_formula_units_Z 36
_cell_length_a 9.765867
_cell_length_b 20.145245
_cell_length_c 8.130570
_cell_angle_alpha 90.000000
_cell_angle_beta 90.000000
_cell_angle_gamma 90.000000
_cell_volume 1599.574058
_symmetry_space_group_name_H-M "P N N A"
_symmetry_group_IT_number 52
_symmetry_cell_setting 'orthorhombic'
loop_
_space_group_symop_operation_xyz
x,y,z
1/2-x,-y,z
x,1/2-y,1/2-z
1/2-x,1/2+y,1/2-z
-x,-y,-z
1/2+x,y,-z
-x,1/2+y,1/2+z
1/2+x,1/2-y,1/2+z
loop_
_atom_site_type_symbol
_atom_site_label
_atom_site_fract_x
_atom_site_fract_y
_atom_site_fract_z
Si Si1 0.352526 0.124381 0.112942
Si Si2 0.635960 0.050023 0.666906
Si Si3 0.283022 0.261103 0.936380
Si Si4 0.000000 0.000000 0.000000
Si Si5 0.516698 0.152572 0.416910
O O1 0.225430 0.101087 0.223861
O O2 0.486175 0.137009 0.226729
O O3 0.394887 0.064768 0.992464
O O4 0.306215 0.192164 0.028600
O O5 0.557822 0.088790 0.524174
O O6 0.750000 0.000000 0.595301
O O7 0.546787 0.012496 0.805063
O O8 0.327140 0.250000 0.750000
O O9 0.131002 0.290817 0.936368
O O10 0.377360 0.316859 0.015865
#
# Coordination Sequence:
#
# PCOD9412754 Si02
#       5
#     8   8   8   4   8
#     4  11  25  49  71 109 150 187 257 306 375 445
#     4  10  24  47  71 107 146 193 244 310 366 447
#     4  12  27  43  75 107 146 196 247 307 377 448
#     4  10  24  46  76 100 148 196 234 312 370 444
#     4  12  26  47  74 108 147 199 244 316 372 448
#
# _framework density 22.505991000000002
#
# number of rings (size 3 to 8) (size 9 to 14) (size 15 to 20)
#    0.000    0.889    2.222    3.333    9.333    3.556 
#    8.000    0.000    0.000    0.000    0.000    0.000 
#    0.000    0.000    0.000    0.000    0.000    0.000 
#
# Total GULP energy -200454.312931 kJ/mol
# GULP energy per Si atom -5568.175359 kJ/mol
# Density = 2.245477 g / cm^3
# Si number density = 22.505991 Si / 1000 Ang^3
#
#
#
# Elastic Constant Matrix: (Units=GPa)
#
#
# Indices 1 2 3 4 5 6 
#
# 1 72.0309 20.5997 24.3294 0.0000 0.0000 0.0000
# 2 20.5997 112.1994 38.4975 0.0000 0.0000 0.0000
# 3 24.3294 38.4975 68.4508 0.0000 0.0000 0.0000
# 4 0.0000 0.0000 0.0000 35.8407 0.0000 0.0000
# 5 0.0000 0.0000 0.0000 0.0000 4.9804 0.0000
# 6 0.0000 0.0000 0.0000 0.0000 0.0000 18.9111
#
#
#
# Elastic Compliance Matrix: (Units=1/GPa)
#
#
# Indices 1 2 3 4 5 6 
#
# 1 0.015910 -0.001215 -0.004971 0.000000 0.000000 0.000000
# 2 -0.001215 0.011137 -0.005831 0.000000 0.000000 0.000000
# 3 -0.004971 -0.005831 0.019656 0.000000 0.000000 0.000000
# 4 0.000000 0.000000 0.000000 0.027901 0.000000 0.000000
# 5 0.000000 0.000000 0.000000 0.000000 0.200789 0.000000
# 6 0.000000 0.000000 0.000000 0.000000 0.000000 0.052879
#
#
# Mechanical properties :
#
#
# Convention : Reuss Voigt Hill
#
# Bulk Modulus (GPa) = 44.11901 46.61492 45.36697
# Shear Modulus (GPa) = 13.89421 23.23006 18.56214
#
# Velocity S-wave (km/s) = 2.48736 3.21623 2.87499
# Velocity P-wave (km/s) = 5.28158 5.87787 5.58768
#
# Compressibility (1/GPa) = 0.02266597
#
# Stress axis : x y z
#
# Youngs Moduli (GPa) = 62.85515 89.79322 50.87597
#
# Poissons Ratio (x) = 0.10912 0.25292
# Poissons Ratio (y) = 0.07639 0.29668
# Poissons Ratio (z) = 0.31247 0.52363
#
# Static dielectric constant tensor:
#      x y z
#    x 1.859240 0.000000 0.000000 
#    y 0.000000 1.940610 0.000000 
#    z 0.000000 0.000000 1.841410 
# 
# From -- ./inp_files/7318.got.cif
#   From: 2010.05.17/outbox.cif.g08.bks.cpg/sg52_4_cif.got.tgz:7318.got - 2010.06.03 12:15:38.
