data_PCOD9412005
_publ_section_title
;
Structure prediction by ZEFSAII (Michael W. Deem and Ramdas Pophale) SiO2 
 PCOD9412005
Probable space group: P N N A
;
_chemical_formula_sum "Si O2"
_cell_formula_units_Z 64
_cell_length_a 11.429284
_cell_length_b 14.865775
_cell_length_c 15.834406
_cell_angle_alpha 90.000000
_cell_angle_beta 90.000000
_cell_angle_gamma 90.000000
_cell_volume 2690.347354
_symmetry_space_group_name_H-M "P N N A"
_symmetry_group_IT_number 52
_symmetry_cell_setting 'orthorhombic'
loop_
_space_group_symop_operation_xyz
x,y,z
1/2-x,-y,z
x,1/2-y,1/2-z
1/2-x,1/2+y,1/2-z
-x,-y,-z
1/2+x,y,-z
-x,1/2+y,1/2+z
1/2+x,1/2-y,1/2+z
loop_
_atom_site_type_symbol
_atom_site_label
_atom_site_fract_x
_atom_site_fract_y
_atom_site_fract_z
Si Si1 0.531165 0.996730 0.902817
Si Si2 0.579002 0.479345 0.243020
Si Si3 0.420015 0.702099 0.402755
Si Si4 0.022328 0.706388 0.063087
Si Si5 0.790540 0.902097 0.408050
Si Si6 0.826592 0.333035 0.658229
Si Si7 0.895758 0.182048 0.316374
Si Si8 0.166923 0.914990 0.333598
O O1 0.636585 0.929051 0.881810
O O2 0.424156 0.966003 0.842795
O O3 0.558496 0.099016 0.877038
O O4 0.500000 0.000000 0.000000
O O5 0.670696 0.423003 0.189321
O O6 0.588400 0.583679 0.220701
O O7 0.454255 0.449592 0.206409
O O8 0.489840 0.722707 0.489640
O O9 0.280142 0.708472 0.395907
O O10 0.481935 0.773458 0.341859
O O11 0.058035 0.770802 0.142802
O O12 0.127310 0.634072 0.079937
O O13 0.906381 0.643699 0.056106
O O14 0.684532 0.832694 0.398671
O O15 0.750000 0.000000 0.441309
O O16 0.789958 0.351399 0.755667
O O17 0.839002 0.250000 0.250000
O O18 0.250000 0.000000 0.346782
#
# Coordination Sequence:
#
# PCOD9412005 Si02
#       8
#     8   8   8   8   8   8   8   8
#     4  11  21  42  68  98 146 185 226 293 366 437
#     4   9  20  42  64  98 129 178 238 283 346 435
#     4  12  26  43  68 106 150 183 238 296 374 432
#     4  11  25  44  72 108 143 184 242 304 361 430
#     4   9  22  46  70  97 138 184 236 294 353 427
#     4  11  24  43  72 104 146 194 244 299 361 447
#     4  11  23  40  69  96 134 184 233 286 348 432
#     4  10  22  42  72 102 139 188 246 294 362 423
#
# _framework density 23.788748999999999
#
# number of rings (size 3 to 8) (size 9 to 14) (size 15 to 20)
#    0.000    1.500    2.500    2.250    3.500    3.000 
#    0.000   10.000    0.000    0.000    0.000    0.000 
#    0.000    0.000    0.000    0.000    0.000    0.000 
#
# Total GULP energy -356920.715881 kJ/mol
# GULP energy per Si atom -5576.886186 kJ/mol
# Density = 2.373461 g / cm^3
# Si number density = 23.788749 Si / 1000 Ang^3
#
#
#
# Elastic Constant Matrix: (Units=GPa)
#
#
# Indices 1 2 3 4 5 6 
#
# 1 90.3537 43.9227 16.2572 0.0000 0.0000 0.0000
# 2 43.9227 114.7372 7.9828 0.0000 0.0000 0.0000
# 3 16.2572 7.9828 104.8123 0.0000 0.0000 0.0000
# 4 0.0000 0.0000 0.0000 26.6602 0.0000 0.0000
# 5 0.0000 0.0000 0.0000 0.0000 15.0178 0.0000
# 6 0.0000 0.0000 0.0000 0.0000 0.0000 54.7230
#
#
#
# Elastic Compliance Matrix: (Units=1/GPa)
#
#
# Indices 1 2 3 4 5 6 
#
# 1 0.013914 -0.005204 -0.001762 0.000000 0.000000 0.000000
# 2 -0.005204 0.010708 -0.000008 0.000000 0.000000 0.000000
# 3 -0.001762 -0.000008 0.009815 0.000000 0.000000 0.000000
# 4 0.000000 0.000000 0.000000 0.037509 0.000000 0.000000
# 5 0.000000 0.000000 0.000000 0.000000 0.066588 0.000000
# 6 0.000000 0.000000 0.000000 0.000000 0.000000 0.018274
#
#
# Mechanical properties :
#
#
# Convention : Reuss Voigt Hill
#
# Bulk Modulus (GPa) = 48.80686 49.58098 49.19392
# Shear Modulus (GPa) = 28.15531 35.39623 31.77577
#
# Velocity S-wave (km/s) = 3.44402 3.86157 3.65875
# Velocity P-wave (km/s) = 6.03128 6.38512 6.21072
#
# Compressibility (1/GPa) = 0.02048892
#
# Stress axis : x y z
#
# Youngs Moduli (GPa) = 71.86802 93.38547 101.88713
#
# Poissons Ratio (x) = 0.48598 0.17951
# Poissons Ratio (y) = 0.37400 0.00086
# Poissons Ratio (z) = 0.12662 0.00078
#
# Static dielectric constant tensor:
#      x y z
#    x 1.932500 0.000000 0.000000 
#    y 0.000000 1.939520 0.000000 
#    z 0.000000 0.000000 1.991850 
# 
# From -- ./inp_files/32400.got.cif
#   From: 2010.05.17/outbox.cif.g08.bks.cpg/sg52_17_cif.got.tgz:32400.got - 2010.06.03 12:15:38.
