data_PCOD9412536
_publ_section_title
;
Structure prediction by ZEFSAII (Michael W. Deem and Ramdas Pophale) SiO2 
 PCOD9412536
Probable space group: P N N A
;
_chemical_formula_sum "Si O2"
_cell_formula_units_Z 60
_cell_length_a 8.866142
_cell_length_b 28.666049
_cell_length_c 11.024820
_cell_angle_alpha 90.000000
_cell_angle_beta 90.000000
_cell_angle_gamma 90.000000
_cell_volume 2802.038054
_symmetry_space_group_name_H-M "P N N A"
_symmetry_group_IT_number 52
_symmetry_cell_setting 'orthorhombic'
loop_
_space_group_symop_operation_xyz
x,y,z
1/2-x,-y,z
x,1/2-y,1/2-z
1/2-x,1/2+y,1/2-z
-x,-y,-z
1/2+x,y,-z
-x,1/2+y,1/2+z
1/2+x,1/2-y,1/2+z
loop_
_atom_site_type_symbol
_atom_site_label
_atom_site_fract_x
_atom_site_fract_y
_atom_site_fract_z
Si Si1 0.992332 0.438721 0.077318
Si Si2 0.501490 0.279689 0.869511
Si Si3 0.983657 0.618835 0.160372
Si Si4 0.250000 0.000000 0.436875
Si Si5 0.155097 0.867479 0.742819
Si Si6 0.478550 0.962147 0.846377
Si Si7 0.368734 0.439956 0.591969
Si Si8 0.361274 0.217234 0.365895
O O1 0.874386 0.474648 0.018438
O O2 0.887442 0.414491 0.173943
O O3 0.040517 0.401021 0.974974
O O4 0.146038 0.461648 0.126623
O O5 0.456382 0.250000 0.750000
O O6 0.440855 0.329278 0.825074
O O7 0.681531 0.278543 0.879580
O O8 0.434447 0.268996 0.003377
O O9 0.831430 0.639917 0.219978
O O10 0.020356 0.571050 0.233703
O O11 0.096903 0.662640 0.157401
O O12 0.106183 0.885112 0.875712
O O13 0.308078 0.947742 0.883004
O O14 0.462323 0.018227 0.841254
O O15 0.592058 0.949341 0.953018
O O16 0.406206 0.250000 0.250000
#
# Coordination Sequence:
#
# PCOD9412536 Si02
#       8
#     8   8   8   4   8   8   8   8
#     4  11  22  38  54  94 128 166 210 250 309 372
#     4  11  26  47  71 100 131 169 220 279 345 415
#     4  11  23  39  64  91 127 165 207 265 324 385
#     4  10  24  34  56  86 134 170 206 248 300 376
#     4  11  23  39  64  91 127 165 207 265 324 385
#     4   9  20  38  57  84 123 170 215 257 307 372
#     4   9  20  38  57  84 123 170 215 257 307 372
#     4  11  26  47  71 100 131 169 220 279 345 415
#
# _framework density 21.412984999999999
#
# number of rings (size 3 to 8) (size 9 to 14) (size 15 to 20)
#    0.000    1.600    2.667    0.800    5.600    4.267 
#    0.000    5.333    0.000    0.000    0.000    0.000 
#    0.000    0.000    0.000    0.000    0.000    0.000 
#
# Total GULP energy -334351.732202 kJ/mol
# GULP energy per Si atom -5572.528870 kJ/mol
# Density = 2.136425 g / cm^3
# Si number density = 21.412985 Si / 1000 Ang^3
#
#
#
# Elastic Constant Matrix: (Units=GPa)
#
#
# Indices 1 2 3 4 5 6 
#
# 1 64.8654 13.0695 28.8462 0.0000 0.0000 0.0000
# 2 13.0695 55.8606 46.3056 0.0000 0.0000 0.0000
# 3 28.8462 46.3056 100.2950 0.0000 0.0000 0.0000
# 4 0.0000 0.0000 0.0000 29.3905 0.0000 0.0000
# 5 0.0000 0.0000 0.0000 0.0000 30.5980 0.0000
# 6 0.0000 0.0000 0.0000 0.0000 0.0000 24.2127
#
#
#
# Elastic Compliance Matrix: (Units=1/GPa)
#
#
# Indices 1 2 3 4 5 6 
#
# 1 0.017678 0.000127 -0.005143 0.000000 0.000000 0.000000
# 2 0.000127 0.029002 -0.013427 0.000000 0.000000 0.000000
# 3 -0.005143 -0.013427 0.017649 0.000000 0.000000 0.000000
# 4 0.000000 0.000000 0.000000 0.034025 0.000000 0.000000
# 5 0.000000 0.000000 0.000000 0.000000 0.032682 0.000000
# 6 0.000000 0.000000 0.000000 0.000000 0.000000 0.041301
#
#
# Mechanical properties :
#
#
# Convention : Reuss Voigt Hill
#
# Bulk Modulus (GPa) = 36.43798 44.16261 40.30029
# Shear Modulus (GPa) = 22.89702 25.69356 24.29529
#
# Velocity S-wave (km/s) = 3.27357 3.46772 3.37204
# Velocity P-wave (km/s) = 5.59840 6.05826 5.83286
#
# Compressibility (1/GPa) = 0.02744389
#
# Stress axis : x y z
#
# Youngs Moduli (GPa) = 56.56703 34.48053 56.66079
#
# Poissons Ratio (x) = -0.00440 0.29143
# Poissons Ratio (y) = -0.00721 0.76076
# Poissons Ratio (z) = 0.29094 0.46296
#
# Static dielectric constant tensor:
#      x y z
#    x 1.780410 0.000000 0.000000 
#    y 0.000000 1.888180 0.000000 
#    z 0.000000 0.000000 1.922500 
# 
# From -- ./inp_files/17203.got.cif
#   From: 2010.05.17/outbox.cif.g08.bks.cpg/sg52_9_cif.got.tgz:17203.got - 2010.06.03 12:15:38.
