data_PCOD9412604
_publ_section_title
;
Structure prediction by ZEFSAII (Michael W. Deem and Ramdas Pophale) SiO2 
 PCOD9412604
Probable space group: P N N A
;
_chemical_formula_sum "Si O2"
_cell_formula_units_Z 60
_cell_length_a 17.888327
_cell_length_b 17.111884
_cell_length_c 8.622094
_cell_angle_alpha 90.000000
_cell_angle_beta 90.000000
_cell_angle_gamma 90.000000
_cell_volume 2639.248638
_symmetry_space_group_name_H-M "P N N A"
_symmetry_group_IT_number 52
_symmetry_cell_setting 'orthorhombic'
loop_
_space_group_symop_operation_xyz
x,y,z
1/2-x,-y,z
x,1/2-y,1/2-z
1/2-x,1/2+y,1/2-z
-x,-y,-z
1/2+x,y,-z
-x,1/2+y,1/2+z
1/2+x,1/2-y,1/2+z
loop_
_atom_site_type_symbol
_atom_site_label
_atom_site_fract_x
_atom_site_fract_y
_atom_site_fract_z
Si Si1 0.468539 0.973993 0.830169
Si Si2 0.747860 0.666762 0.222160
Si Si3 0.627114 0.298435 0.993290
Si Si4 0.736699 0.250000 0.750000
Si Si5 0.109534 0.048184 0.290689
Si Si6 0.184243 0.442738 0.534118
Si Si7 0.170644 0.887461 0.419656
Si Si8 0.980572 0.319588 0.850179
O O1 0.378758 0.978038 0.847358
O O2 0.486776 0.886741 0.765133
O O3 0.521329 0.026160 0.718248
O O4 0.500000 0.000000 0.000000
O O5 0.707466 0.750000 0.250000
O O6 0.768683 0.623134 0.377862
O O7 0.827204 0.687575 0.147630
O O8 0.709480 0.615751 0.087359
O O9 0.678027 0.241181 0.891579
O O10 0.622589 0.380470 0.904101
O O11 0.543414 0.280444 0.042360
O O12 0.785546 0.174476 0.694457
O O13 0.157411 0.972585 0.345298
O O14 0.137493 0.072998 0.120681
O O15 0.250000 0.500000 0.486253
O O16 0.086874 0.856471 0.443675
O O17 0.947365 0.250000 0.750000
#
# Coordination Sequence:
#
# PCOD9412604 Si02
#       8
#     8   8   8   4   8   8   8   8
#     4   9  21  44  65  98 135 174 224 289 339 416
#     4  11  26  44  65  99 142 178 227 292 348 411
#     4  11  25  40  73  98 140 179 237 284 350 424
#     4  10  24  42  66 102 138 184 226 292 350 422
#     4  10  25  44  71 100 134 185 233 288 354 419
#     4  11  25  40  70 103 135 182 227 283 348 419
#     4  10  24  45  74  97 146 186 236 290 356 434
#     4  11  22  44  73 103 137 192 237 291 359 424
#
# _framework density 22.733743
#
# number of rings (size 3 to 8) (size 9 to 14) (size 15 to 20)
#    0.000    1.600    2.000    0.400    9.333    4.267 
#    3.600    0.000    0.000    0.000    0.000    0.000 
#    0.000    0.000    0.000    0.000    0.000    0.000 
#
# Total GULP energy -334766.598736 kJ/mol
# GULP energy per Si atom -5579.443312 kJ/mol
# Density = 2.268200 g / cm^3
# Si number density = 22.733743 Si / 1000 Ang^3
#
#
#
# Elastic Constant Matrix: (Units=GPa)
#
#
# Indices 1 2 3 4 5 6 
#
# 1 97.9098 11.9912 4.7459 0.0000 0.0000 0.0000
# 2 11.9912 57.9208 32.2462 0.0000 0.0000 0.0000
# 3 4.7459 32.2462 75.8569 0.0000 0.0000 0.0000
# 4 0.0000 0.0000 0.0000 36.5833 0.0000 0.0000
# 5 0.0000 0.0000 0.0000 0.0000 33.7582 0.0000
# 6 0.0000 0.0000 0.0000 0.0000 0.0000 0.6453
#
#
#
# Elastic Compliance Matrix: (Units=1/GPa)
#
#
# Indices 1 2 3 4 5 6 
#
# 1 0.010486 -0.002366 0.000350 0.000000 0.000000 0.000000
# 2 -0.002366 0.023151 -0.009693 0.000000 0.000000 0.000000
# 3 0.000350 -0.009693 0.017281 0.000000 0.000000 0.000000
# 4 0.000000 0.000000 0.000000 0.027335 0.000000 0.000000
# 5 0.000000 0.000000 0.000000 0.000000 0.029622 0.000000
# 6 0.000000 0.000000 0.000000 0.000000 0.000000 1.549564
#
#
# Mechanical properties :
#
#
# Convention : Reuss Voigt Hill
#
# Bulk Modulus (GPa) = 36.36350 36.62821 36.49585
# Shear Modulus (GPa) = 2.95853 26.37765 14.66809
#
# Velocity S-wave (km/s) = 1.14202 3.40999 2.54286
# Velocity P-wave (km/s) = 4.21534 5.62591 4.97091
#
# Compressibility (1/GPa) = 0.02750010
#
# Stress axis : x y z
#
# Youngs Moduli (GPa) = 95.36294 43.19407 57.86546
#
# Poissons Ratio (x) = 0.10218 -0.02022
# Poissons Ratio (y) = 0.22558 0.56092
# Poissons Ratio (z) = -0.03333 0.41870
#
# Static dielectric constant tensor:
#      x y z
#    x 1.848310 0.000000 0.000000 
#    y 0.000000 1.819340 0.000000 
#    z 0.000000 0.000000 1.849300 
# 
# From -- ./inp_files/12429.got.cif
#   From: 2010.05.17/outbox.cif.g08.bks.cpg/sg52_7_cif.got.tgz:12429.got - 2010.06.03 12:15:38.
