data_PCOD9412344
_publ_section_title
;
Structure prediction by ZEFSAII (Michael W. Deem and Ramdas Pophale) SiO2 
 PCOD9412344
Probable space group: P N N A
;
_chemical_formula_sum "Si O2"
_cell_formula_units_Z 40
_cell_length_a 19.409369
_cell_length_b 5.320799
_cell_length_c 18.354684
_cell_angle_alpha 90.000000
_cell_angle_beta 90.000000
_cell_angle_gamma 90.000000
_cell_volume 1895.549726
_symmetry_space_group_name_H-M "P N N A"
_symmetry_group_IT_number 52
_symmetry_cell_setting 'orthorhombic'
loop_
_space_group_symop_operation_xyz
x,y,z
1/2-x,-y,z
x,1/2-y,1/2-z
1/2-x,1/2+y,1/2-z
-x,-y,-z
1/2+x,y,-z
-x,1/2+y,1/2+z
1/2+x,1/2-y,1/2+z
loop_
_atom_site_type_symbol
_atom_site_label
_atom_site_fract_x
_atom_site_fract_y
_atom_site_fract_z
Si Si1 0.952177 0.750000 0.750000
Si Si2 0.359846 0.250000 0.250000
Si Si3 0.323442 0.503575 0.798762
Si Si4 0.705743 0.749821 0.907745
Si Si5 0.035874 0.975071 0.621467
Si Si6 0.053924 0.792718 0.029748
O O1 0.905904 0.501475 0.742542
O O2 0.999193 0.786744 0.678011
O O3 0.314925 0.281465 0.177103
O O4 0.250000 0.500000 0.840295
O O5 0.317444 0.750000 0.750000
O O6 0.391718 0.544692 0.844351
O O7 0.330889 0.250000 0.750000
O O8 0.750000 0.500000 0.929644
O O9 0.634349 0.812289 0.950296
O O10 0.750000 0.000000 0.915784
O O11 0.053541 0.884628 0.540698
O O12 0.980851 0.190488 0.603799
O O13 0.000000 0.000000 0.000000
#
# Coordination Sequence:
#
# PCOD9412344 Si02
#       6
#     4   4   8   8   8   8
#     4  12  24  41  78 109 134 192 240 310 366 441
#     4  12  24  45  72 109 146 182 244 302 368 437
#     4  10  23  42  67 102 137 174 228 293 357 418
#     4  12  27  47  73 106 149 193 242 299 372 441
#     4  11  25  43  74 102 144 183 250 294 367 426
#     4  11  27  48  72 106 145 198 244 304 354 447
#
# _framework density 21.102056999999999
#
# number of rings (size 3 to 8) (size 9 to 14) (size 15 to 20)
#    0.000    0.800    3.000    3.000    9.800    0.800 
#    0.000    0.000    0.000    0.000    0.000    0.000 
#    0.000    0.000    0.000    0.000    0.000    0.000 
#
# Total GULP energy -223095.311771 kJ/mol
# GULP energy per Si atom -5577.382794 kJ/mol
# Density = 2.105403 g / cm^3
# Si number density = 21.102057 Si / 1000 Ang^3
#
#
#
# Elastic Constant Matrix: (Units=GPa)
#
#
# Indices 1 2 3 4 5 6 
#
# 1 217.6522 78.8130 57.3792 0.0000 0.0000 0.0000
# 2 78.8130 122.0838 33.5015 0.0000 0.0000 0.0000
# 3 57.3792 33.5015 77.6955 0.0000 0.0000 0.0000
# 4 0.0000 0.0000 0.0000 23.8036 0.0000 0.0000
# 5 0.0000 0.0000 0.0000 0.0000 12.3548 0.0000
# 6 0.0000 0.0000 0.0000 0.0000 0.0000 36.0706
#
#
#
# Elastic Compliance Matrix: (Units=1/GPa)
#
#
# Indices 1 2 3 4 5 6 
#
# 1 0.006752 -0.003392 -0.003524 0.000000 0.000000 0.000000
# 2 -0.003392 0.010994 -0.002236 0.000000 0.000000 0.000000
# 3 -0.003524 -0.002236 0.016437 0.000000 0.000000 0.000000
# 4 0.000000 0.000000 0.000000 0.042010 0.000000 0.000000
# 5 0.000000 0.000000 0.000000 0.000000 0.080940 0.000000
# 6 0.000000 0.000000 0.000000 0.000000 0.000000 0.027723
#
#
# Mechanical properties :
#
#
# Convention : Reuss Voigt Hill
#
# Bulk Modulus (GPa) = 62.96998 84.09100 73.53049
# Shear Modulus (GPa) = 23.98631 30.96167 27.47399
#
# Velocity S-wave (km/s) = 3.37513 3.83461 3.61218
# Velocity P-wave (km/s) = 6.71522 7.71633 7.23311
#
# Compressibility (1/GPa) = 0.01588058
#
# Stress axis : x y z
#
# Youngs Moduli (GPa) = 148.11415 90.95759 60.83791
#
# Poissons Ratio (x) = 0.30849 0.21437
# Poissons Ratio (y) = 0.50235 0.13602
# Poissons Ratio (z) = 0.52191 0.20336
#
# Static dielectric constant tensor:
#      x y z
#    x 1.968980 0.000000 0.000000 
#    y 0.000000 1.786240 0.000000 
#    z 0.000000 0.000000 1.756450 
# 
# From -- ./inp_files/33481.got.cif
#   From: 2010.05.17/outbox.cif.g08.bks.cpg/sg52_17_cif.got.tgz:33481.got - 2010.06.03 12:15:38.
