data_PCOD9412934
_publ_section_title
;
Structure prediction by ZEFSAII (Michael W. Deem and Ramdas Pophale) SiO2 
 PCOD9412934
Probable space group: P N N A
;
_chemical_formula_sum "Si O2"
_cell_formula_units_Z 36
_cell_length_a 24.792468
_cell_length_b 5.606942
_cell_length_c 10.700173
_cell_angle_alpha 90.000000
_cell_angle_beta 90.000000
_cell_angle_gamma 90.000000
_cell_volume 1487.430301
_symmetry_space_group_name_H-M "P N N A"
_symmetry_group_IT_number 52
_symmetry_cell_setting 'orthorhombic'
loop_
_space_group_symop_operation_xyz
x,y,z
1/2-x,-y,z
x,1/2-y,1/2-z
1/2-x,1/2+y,1/2-z
-x,-y,-z
1/2+x,y,-z
-x,1/2+y,1/2+z
1/2+x,1/2-y,1/2+z
loop_
_atom_site_type_symbol
_atom_site_label
_atom_site_fract_x
_atom_site_fract_y
_atom_site_fract_z
Si Si1 0.750000 0.000000 0.671793
Si Si2 0.137876 0.860932 0.387669
Si Si3 0.378951 0.966288 0.894942
Si Si4 0.783010 0.750000 0.250000
Si Si5 0.959270 0.679215 0.935762
Si Si6 0.046331 0.750000 0.750000
O O1 0.745273 0.250000 0.750000
O O2 0.804920 0.011520 0.593398
O O3 0.144288 0.750000 0.250000
O O4 0.129684 0.686452 0.506741
O O5 0.085940 0.025843 0.366309
O O6 0.323580 0.836543 0.860308
O O7 0.409307 0.042180 0.766515
O O8 0.422559 0.813552 0.967538
O O9 0.750000 0.500000 0.223238
O O10 0.002019 0.822724 0.853861
O O11 0.000000 0.500000 0.000000
#
# Coordination Sequence:
#
# PCOD9412934 Si02
#       6
#     4   8   8   4   8   4
#     4  10  26  50  76 112 156 210 272 338 402 482
#     4  11  27  49  78 115 160 214 270 335 407 484
#     4  12  28  53  78 119 164 208 273 339 403 501
#     4  12  31  56  88 122 162 221 280 348 418 490
#     4  12  26  43  77 115 158 211 264 324 411 484
#     4  12  25  48  76 118 166 209 268 330 416 496
#
# _framework density 24.202812999999999
#
# number of rings (size 3 to 8) (size 9 to 14) (size 15 to 20)
#    0.000    0.444    2.222    4.000   14.000    1.778 
#    2.000    0.000    0.000    0.000    0.000    0.000 
#    0.000    0.000    0.000    0.000    0.000    0.000 
#
# Total GULP energy -200591.903956 kJ/mol
# GULP energy per Si atom -5571.997332 kJ/mol
# Density = 2.414773 g / cm^3
# Si number density = 24.202813 Si / 1000 Ang^3
#
#
#
# Elastic Constant Matrix: (Units=GPa)
#
#
# Indices 1 2 3 4 5 6 
#
# 1 227.0162 80.2087 42.5470 0.0000 0.0000 0.0000
# 2 80.2087 116.6745 36.7291 0.0000 0.0000 0.0000
# 3 42.5470 36.7291 71.4728 0.0000 0.0000 0.0000
# 4 0.0000 0.0000 0.0000 38.2107 0.0000 0.0000
# 5 0.0000 0.0000 0.0000 0.0000 48.0621 0.0000
# 6 0.0000 0.0000 0.0000 0.0000 0.0000 62.6316
#
#
#
# Elastic Compliance Matrix: (Units=1/GPa)
#
#
# Indices 1 2 3 4 5 6 
#
# 1 0.005992 -0.003575 -0.001730 0.000000 0.000000 0.000000
# 2 -0.003575 0.012358 -0.004222 0.000000 0.000000 0.000000
# 3 -0.001730 -0.004222 0.017191 0.000000 0.000000 0.000000
# 4 0.000000 0.000000 0.000000 0.026171 0.000000 0.000000
# 5 0.000000 0.000000 0.000000 0.000000 0.020806 0.000000
# 6 0.000000 0.000000 0.000000 0.000000 0.000000 0.015966
#
#
# Mechanical properties :
#
#
# Convention : Reuss Voigt Hill
#
# Bulk Modulus (GPa) = 60.65612 81.57035 71.11323
# Shear Modulus (GPa) = 40.63906 46.82614 43.73260
#
# Velocity S-wave (km/s) = 4.10213 4.40334 4.25540
# Velocity P-wave (km/s) = 6.89584 7.72195 7.32056
#
# Compressibility (1/GPa) = 0.01648638
#
# Stress axis : x y z
#
# Youngs Moduli (GPa) = 166.88216 80.92205 58.16967
#
# Poissons Ratio (x) = 0.28928 0.10064
# Poissons Ratio (y) = 0.59657 0.24562
# Poissons Ratio (z) = 0.28872 0.34169
#
# Static dielectric constant tensor:
#      x y z
#    x 1.699880 0.000000 0.000000 
#    y 0.000000 1.458610 0.000000 
#    z 0.000000 0.000000 1.966350 
# 
# From -- ./inp_files/22108.got.cif
#   From: 2010.05.17/outbox.cif.g08.bks.cpg/sg52_12_cif.got.tgz:22108.got - 2010.06.03 12:15:38.
