data_PCOD9412369
_publ_section_title
;
Structure prediction by ZEFSAII (Michael W. Deem and Ramdas Pophale) SiO2 
 PCOD9412369
Probable space group: P N N A
;
_chemical_formula_sum "Si O2"
_cell_formula_units_Z 64
_cell_length_a 9.041704
_cell_length_b 14.551929
_cell_length_c 25.395870
_cell_angle_alpha 90.000000
_cell_angle_beta 90.000000
_cell_angle_gamma 90.000000
_cell_volume 3341.442158
_symmetry_space_group_name_H-M "P N N A"
_symmetry_group_IT_number 52
_symmetry_cell_setting 'orthorhombic'
loop_
_space_group_symop_operation_xyz
x,y,z
1/2-x,-y,z
x,1/2-y,1/2-z
1/2-x,1/2+y,1/2-z
-x,-y,-z
1/2+x,y,-z
-x,1/2+y,1/2+z
1/2+x,1/2-y,1/2+z
loop_
_atom_site_type_symbol
_atom_site_label
_atom_site_fract_x
_atom_site_fract_y
_atom_site_fract_z
Si Si1 0.928373 0.989746 0.646083
Si Si2 0.072240 0.499564 0.267335
Si Si3 0.400426 0.683309 0.701096
Si Si4 0.837478 0.089713 0.034770
Si Si5 0.413369 0.702252 0.101633
Si Si6 0.911151 0.369953 0.349801
Si Si7 0.063230 0.693021 0.115001
Si Si8 0.932895 0.787480 0.014263
O O1 0.969948 0.900925 0.612049
O O2 0.750000 0.000000 0.644261
O O3 0.968754 0.975002 0.707128
O O4 0.983808 0.088007 0.625864
O O5 0.250000 0.500000 0.271196
O O6 0.001242 0.598447 0.280003
O O7 0.006186 0.427914 0.308691
O O8 0.366854 0.750000 0.750000
O O9 0.249642 0.647101 0.674965
O O10 0.489316 0.741630 0.658012
O O11 0.894032 0.077585 0.094363
O O12 0.724412 0.175809 0.034148
O O13 0.750000 0.000000 0.016927
O O14 0.968452 0.121978 0.996988
O O15 0.507136 0.774908 0.135513
O O16 0.240794 0.703028 0.118014
O O17 0.421199 0.734558 0.041092
O O18 0.009566 0.725930 0.058086
#
# Coordination Sequence:
#
# PCOD9412369 Si02
#       8
#     8   8   8   8   8   8   8   8
#     4   9  21  40  65  89 124 166 220 265 310 376
#     4  11  23  43  65  96 128 172 219 259 317 395
#     4  12  24  40  63  96 132 170 209 267 330 375
#     4  11  22  41  60  93 125 168 208 259 321 387
#     4  10  23  43  64  94 122 172 221 264 320 381
#     4  11  25  41  64  94 134 168 208 268 328 382
#     4  11  21  43  66  90 128 170 215 268 312 393
#     4  11  22  39  66  89 128 165 212 268 320 375
#
# _framework density 19.153407999999999
#
# number of rings (size 3 to 8) (size 9 to 14) (size 15 to 20)
#    0.000    1.250    3.750    2.250    1.750    0.500 
#    0.000    0.625    0.000    0.000    0.000    0.000 
#    0.000    0.000    0.000    0.000    0.000    0.000 
#
# Total GULP energy -357672.062864 kJ/mol
# GULP energy per Si atom -5588.625982 kJ/mol
# Density = 1.910981 g / cm^3
# Si number density = 19.153408 Si / 1000 Ang^3
#
#
#
# Elastic Constant Matrix: (Units=GPa)
#
#
# Indices 1 2 3 4 5 6 
#
# 1 60.2092 -2.0770 7.5115 0.0000 0.0000 0.0000
# 2 -2.0770 75.8168 27.6044 0.0000 0.0000 0.0000
# 3 7.5115 27.6044 96.5012 0.0000 0.0000 0.0000
# 4 0.0000 0.0000 0.0000 23.0618 0.0000 0.0000
# 5 0.0000 0.0000 0.0000 0.0000 11.5402 0.0000
# 6 0.0000 0.0000 0.0000 0.0000 0.0000 23.6587
#
#
#
# Elastic Compliance Matrix: (Units=1/GPa)
#
#
# Indices 1 2 3 4 5 6 
#
# 1 0.016846 0.001048 -0.001611 0.000000 0.000000 0.000000
# 2 0.001048 0.014788 -0.004312 0.000000 0.000000 0.000000
# 3 -0.001611 -0.004312 0.011721 0.000000 0.000000 0.000000
# 4 0.000000 0.000000 0.000000 0.043362 0.000000 0.000000
# 5 0.000000 0.000000 0.000000 0.000000 0.086654 0.000000
# 6 0.000000 0.000000 0.000000 0.000000 0.000000 0.042268
#
#
# Mechanical properties :
#
#
# Convention : Reuss Voigt Hill
#
# Bulk Modulus (GPa) = 29.75661 33.17833 31.46747
# Shear Modulus (GPa) = 21.13359 24.95137 23.04248
#
# Velocity S-wave (km/s) = 3.32533 3.61323 3.47226
# Velocity P-wave (km/s) = 5.50576 5.89637 5.70441
#
# Compressibility (1/GPa) = 0.03360598
#
# Stress axis : x y z
#
# Youngs Moduli (GPa) = 59.36162 67.62104 85.31424
#
# Poissons Ratio (x) = -0.07087 0.13745
# Poissons Ratio (y) = -0.06222 0.36786
# Poissons Ratio (z) = 0.09564 0.29157
#
# Static dielectric constant tensor:
#      x y z
#    x 1.664000 0.000000 0.000000 
#    y 0.000000 1.663120 0.000000 
#    z 0.000000 0.000000 1.641480 
# 
# From -- ./inp_files/39687.got.cif
#   From: 2010.05.17/outbox.cif.g08.bks.cpg/sg52_20_cif.got.tgz:39687.got - 2010.06.03 12:15:38.
