data_PCOD9412573
_publ_section_title
;
Structure prediction by ZEFSAII (Michael W. Deem and Ramdas Pophale) SiO2 
 PCOD9412573
Probable space group: P N N A
;
_chemical_formula_sum "Si O2"
_cell_formula_units_Z 64
_cell_length_a 20.067518
_cell_length_b 8.231026
_cell_length_c 18.509392
_cell_angle_alpha 90.000000
_cell_angle_beta 90.000000
_cell_angle_gamma 90.000000
_cell_volume 3057.312190
_symmetry_space_group_name_H-M "P N N A"
_symmetry_group_IT_number 52
_symmetry_cell_setting 'orthorhombic'
loop_
_space_group_symop_operation_xyz
x,y,z
1/2-x,-y,z
x,1/2-y,1/2-z
1/2-x,1/2+y,1/2-z
-x,-y,-z
1/2+x,y,-z
-x,1/2+y,1/2+z
1/2+x,1/2-y,1/2+z
loop_
_atom_site_type_symbol
_atom_site_label
_atom_site_fract_x
_atom_site_fract_y
_atom_site_fract_z
Si Si1 0.107240 0.139006 0.588272
Si Si2 0.518764 0.579414 0.421841
Si Si3 0.515262 0.732114 0.663989
Si Si4 0.617207 0.209164 0.931337
Si Si5 0.735326 0.191461 0.330309
Si Si6 0.346212 0.271910 0.941831
Si Si7 0.780259 0.822530 0.676662
Si Si8 0.840969 0.162878 0.899130
O O1 0.115117 0.241860 0.514964
O O2 0.159231 0.213315 0.645547
O O3 0.033400 0.145020 0.621542
O O4 0.130003 0.956303 0.570865
O O5 0.500000 0.500000 0.500000
O O6 0.513979 0.441446 0.361603
O O7 0.459638 0.706469 0.406772
O O8 0.590434 0.658390 0.427479
O O9 0.513875 0.750000 0.750000
O O10 0.590697 0.733740 0.634243
O O11 0.664325 0.325875 0.885536
O O12 0.645470 0.027335 0.915852
O O13 0.747860 0.250000 0.250000
O O14 0.785602 0.267893 0.388435
O O15 0.750000 0.000000 0.332571
O O16 0.325452 0.247070 0.024515
O O17 0.810317 0.750000 0.750000
O O18 0.720240 0.702932 0.652876
O O19 0.750000 0.000000 0.687672
#
# Coordination Sequence:
#
# PCOD9412573 Si02
#       8
#     8   8   8   8   8   8   8   8
#     4  11  22  39  63  98 129 168 220 273 329 397
#     4  11  21  45  64  95 130 167 221 274 325 403
#     4  11  23  40  66  95 130 169 218 272 334 394
#     4  11  22  41  68  94 127 172 220 268 331 403
#     4  10  24  41  58  90 128 167 213 269 327 392
#     4  11  22  39  67  92 129 170 219 272 329 397
#     4  12  26  43  63  94 133 173 222 279 334 401
#     4  11  22  42  65  93 127 173 219 268 332 395
#
# _framework density 20.933418
#
# number of rings (size 3 to 8) (size 9 to 14) (size 15 to 20)
#    0.000    1.000    3.750    3.375    0.000    9.000 
#    0.000    0.625    0.000    0.000    0.000    0.000 
#    0.000    0.000    0.000    0.000    0.000    0.000 
#
# Total GULP energy -358009.743788 kJ/mol
# GULP energy per Si atom -5593.902247 kJ/mol
# Density = 2.088577 g / cm^3
# Si number density = 20.933418 Si / 1000 Ang^3
#
#
#
# Elastic Constant Matrix: (Units=GPa)
#
#
# Indices 1 2 3 4 5 6 
#
# 1 66.3418 4.5253 21.3755 0.0000 0.0000 0.0000
# 2 4.5253 37.9593 25.5603 0.0000 0.0000 0.0000
# 3 21.3755 25.5603 142.4312 0.0000 0.0000 0.0000
# 4 0.0000 0.0000 0.0000 32.3842 0.0000 0.0000
# 5 0.0000 0.0000 0.0000 0.0000 -71.1149 0.0000
# 6 0.0000 0.0000 0.0000 0.0000 0.0000 27.4080
#
#
#
# Elastic Compliance Matrix: (Units=1/GPa)
#
#
# Indices 1 2 3 4 5 6 
#
# 1 0.015843 -0.000327 -0.002319 0.000000 0.000000 0.000000
# 2 -0.000327 0.029972 -0.005330 0.000000 0.000000 0.000000
# 3 -0.002319 -0.005330 0.008325 0.000000 0.000000 0.000000
# 4 0.000000 0.000000 0.000000 0.030879 0.000000 0.000000
# 5 0.000000 0.000000 0.000000 0.000000 -0.014062 0.000000
# 6 0.000000 0.000000 0.000000 0.000000 0.000000 0.036486
#
#
# Mechanical properties :
#
#
# Convention : Reuss Voigt Hill
#
# Bulk Modulus (GPa) = 26.18580 38.85052 32.51816
# Shear Modulus (GPa) = 36.73118 10.75354 23.74236
#
# Velocity S-wave (km/s) = 4.19342 2.26896 3.37142
# Velocity P-wave (km/s) = 5.99855 5.04615 5.54284
#
# Compressibility (1/GPa) = 0.03818864
#
# Stress axis : x y z
#
# Youngs Moduli (GPa) = 63.11955 33.36480 120.11477
#
# Poissons Ratio (x) = 0.01092 0.27854
# Poissons Ratio (y) = 0.02066 0.64016
# Poissons Ratio (z) = 0.14637 0.17782
#
# Static dielectric constant tensor:
#      x y z
#    x 1.752450 0.000000 0.000000 
#    y 0.000000 1.779350 0.000000 
#    z 0.000000 0.000000 1.744930 
# 
# From -- ./inp_files/34104.got.cif
#   From: 2010.05.17/outbox.cif.g08.bks.cpg/sg52_18_cif.got.tgz:34104.got - 2010.06.03 12:15:38.
