data_PCOD9412100
_publ_section_title
;
Structure prediction by ZEFSAII (Michael W. Deem and Ramdas Pophale) SiO2 
 PCOD9412100
Probable space group: P N N A
;
_chemical_formula_sum "Si O2"
_cell_formula_units_Z 36
_cell_length_a 14.064337
_cell_length_b 12.853664
_cell_length_c 9.372579
_cell_angle_alpha 90.000000
_cell_angle_beta 90.000000
_cell_angle_gamma 90.000000
_cell_volume 1694.358544
_symmetry_space_group_name_H-M "P N N A"
_symmetry_group_IT_number 52
_symmetry_cell_setting 'orthorhombic'
loop_
_space_group_symop_operation_xyz
x,y,z
1/2-x,-y,z
x,1/2-y,1/2-z
1/2-x,1/2+y,1/2-z
-x,-y,-z
1/2+x,y,-z
-x,1/2+y,1/2+z
1/2+x,1/2-y,1/2+z
loop_
_atom_site_type_symbol
_atom_site_label
_atom_site_fract_x
_atom_site_fract_y
_atom_site_fract_z
Si Si1 0.380765 0.928892 0.098579
Si Si2 0.648806 0.750000 0.250000
Si Si3 0.483843 0.726770 0.591882
Si Si4 0.007505 0.094259 0.386042
Si Si5 0.189888 0.657912 0.461543
O O1 0.431659 0.940558 0.250313
O O2 0.289835 0.852569 0.117941
O O3 0.346923 0.039617 0.041385
O O4 0.447868 0.878753 0.979069
O O5 0.582879 0.844013 0.314473
O O6 0.706929 0.700890 0.379585
O O7 0.450104 0.750000 0.750000
O O8 0.449160 0.814391 0.482561
O O9 0.599491 0.723644 0.593419
O O10 0.000000 0.000000 0.500000
#
# Coordination Sequence:
#
# PCOD9412100 Si02
#       5
#     8   4   8   8   8
#     4  11  22  42  68  95 132 180 225 281 335 412
#     4  10  22  44  64 102 134 180 216 302 336 404
#     4  11  23  39  65  99 131 180 216 277 346 405
#     4  11  22  41  69  99 135 176 232 275 343 409
#     4  10  23  40  67  91 136 172 225 277 344 396
#
# _framework density 21.246977999999999
#
# number of rings (size 3 to 8) (size 9 to 14) (size 15 to 20)
#    0.000    1.333    4.444    2.000    4.667    1.778 
#    0.000    4.444    0.000    0.000    0.000    0.000 
#    0.000    0.000    0.000    0.000    0.000    0.000 
#
# Total GULP energy -200757.807204 kJ/mol
# GULP energy per Si atom -5576.605756 kJ/mol
# Density = 2.119862 g / cm^3
# Si number density = 21.246978 Si / 1000 Ang^3
#
#
#
# Elastic Constant Matrix: (Units=GPa)
#
#
# Indices 1 2 3 4 5 6 
#
# 1 65.8603 13.7854 25.7896 0.0000 0.0000 0.0000
# 2 13.7854 80.4018 39.7894 0.0000 0.0000 0.0000
# 3 25.7896 39.7894 154.7637 0.0000 0.0000 0.0000
# 4 0.0000 0.0000 0.0000 48.6237 0.0000 0.0000
# 5 0.0000 0.0000 0.0000 0.0000 4.9963 0.0000
# 6 0.0000 0.0000 0.0000 0.0000 0.0000 14.2856
#
#
#
# Elastic Compliance Matrix: (Units=1/GPa)
#
#
# Indices 1 2 3 4 5 6 
#
# 1 0.016438 -0.001676 -0.002308 0.000000 0.000000 0.000000
# 2 -0.001676 0.014422 -0.003428 0.000000 0.000000 0.000000
# 3 -0.002308 -0.003428 0.007728 0.000000 0.000000 0.000000
# 4 0.000000 0.000000 0.000000 0.020566 0.000000 0.000000
# 5 0.000000 0.000000 0.000000 0.000000 0.200149 0.000000
# 6 0.000000 0.000000 0.000000 0.000000 0.000000 0.070001
#
#
# Mechanical properties :
#
#
# Convention : Reuss Voigt Hill
#
# Bulk Modulus (GPa) = 42.08446 51.08384 46.58415
# Shear Modulus (GPa) = 14.20252 28.35854 21.28053
#
# Velocity S-wave (km/s) = 2.58824 3.65733 3.16821
# Velocity P-wave (km/s) = 5.36491 6.47532 5.94609
#
# Compressibility (1/GPa) = 0.02376174
#
# Stress axis : x y z
#
# Youngs Moduli (GPa) = 60.83323 69.34044 129.40676
#
# Poissons Ratio (x) = 0.11622 0.29872
# Poissons Ratio (y) = 0.10196 0.44367
# Poissons Ratio (z) = 0.14042 0.23773
#
# Static dielectric constant tensor:
#      x y z
#    x 1.840320 0.000000 0.000000 
#    y 0.000000 1.793390 0.000000 
#    z 0.000000 0.000000 1.771990 
# 
# From -- ./inp_files/9966.got.cif
#   From: 2010.05.17/outbox.cif.g08.bks.cpg/sg52_5_cif.got.tgz:9966.got - 2010.06.03 12:15:38.
