data_PCOD9412137
_publ_section_title
;
Structure prediction by ZEFSAII (Michael W. Deem and Ramdas Pophale) SiO2 
 PCOD9412137
Probable space group: P N N A
;
_chemical_formula_sum "Si O2"
_cell_formula_units_Z 36
_cell_length_a 10.607794
_cell_length_b 25.417816
_cell_length_c 5.047208
_cell_angle_alpha 90.000000
_cell_angle_beta 90.000000
_cell_angle_gamma 90.000000
_cell_volume 1360.863330
_symmetry_space_group_name_H-M "P N N A"
_symmetry_group_IT_number 52
_symmetry_cell_setting 'orthorhombic'
loop_
_space_group_symop_operation_xyz
x,y,z
1/2-x,-y,z
x,1/2-y,1/2-z
1/2-x,1/2+y,1/2-z
-x,-y,-z
1/2+x,y,-z
-x,1/2+y,1/2+z
1/2+x,1/2-y,1/2+z
loop_
_atom_site_type_symbol
_atom_site_label
_atom_site_fract_x
_atom_site_fract_y
_atom_site_fract_z
Si Si1 0.647134 0.641169 0.590053
Si Si2 0.461126 0.591021 0.977652
Si Si3 0.335224 0.949756 0.009820
Si Si4 0.329456 0.250000 0.250000
Si Si5 0.528338 0.195705 0.661417
O O1 0.593265 0.611335 0.852360
O O2 0.739497 0.598661 0.470640
O O3 0.720123 0.695867 0.623713
O O4 0.533950 0.661696 0.399569
O O5 0.409930 0.550273 0.763106
O O6 0.432642 0.563166 0.255059
O O7 0.398087 0.649917 0.002547
O O8 0.250000 0.000000 0.064264
O O9 0.420274 0.221705 0.472275
O O10 0.592885 0.250000 0.750000
#
# Coordination Sequence:
#
# PCOD9412137 Si02
#       5
#     8   8   8   4   8
#     4  10  22  44  70  94 144 171 225 285 349 407
#     4  11  24  46  67 100 131 179 227 281 348 403
#     4  12  28  45  67 101 136 181 242 285 332 412
#     4   8  18  36  68 100 132 176 212 276 346 414
#     4   9  18  41  67  98 135 178 215 280 347 415
#
# _framework density 26.453797000000002
#
# number of rings (size 3 to 8) (size 9 to 14) (size 15 to 20)
#    0.000    1.778    2.222    0.667    6.222    1.778 
#    2.000    0.000    0.000    0.000    0.000    0.000 
#    0.000    0.000    0.000    0.000    0.000    0.000 
#
# Total GULP energy -200794.613245 kJ/mol
# GULP energy per Si atom -5577.628146 kJ/mol
# Density = 2.639359 g / cm^3
# Si number density = 26.453797 Si / 1000 Ang^3
#
#
#
# Elastic Constant Matrix: (Units=GPa)
#
#
# Indices 1 2 3 4 5 6 
#
# 1 41.1798 37.1373 10.7869 0.0000 0.0000 0.0000
# 2 37.1373 163.1698 17.8752 0.0000 0.0000 0.0000
# 3 10.7869 17.8752 133.1570 0.0000 0.0000 0.0000
# 4 0.0000 0.0000 0.0000 29.9948 0.0000 0.0000
# 5 0.0000 0.0000 0.0000 0.0000 12.0023 0.0000
# 6 0.0000 0.0000 0.0000 0.0000 0.0000 57.8791
#
#
#
# Elastic Compliance Matrix: (Units=1/GPa)
#
#
# Indices 1 2 3 4 5 6 
#
# 1 0.030880 -0.006855 -0.001581 0.000000 0.000000 0.000000
# 2 -0.006855 0.007742 -0.000484 0.000000 0.000000 0.000000
# 3 -0.001581 -0.000484 0.007703 0.000000 0.000000 0.000000
# 4 0.000000 0.000000 0.000000 0.033339 0.000000 0.000000
# 5 0.000000 0.000000 0.000000 0.000000 0.083318 0.000000
# 6 0.000000 0.000000 0.000000 0.000000 0.000000 0.017277
#
#
# Mechanical properties :
#
#
# Convention : Reuss Voigt Hill
#
# Bulk Modulus (GPa) = 35.10716 52.12281 43.61498
# Shear Modulus (GPa) = 24.08545 38.08905 31.08725
#
# Velocity S-wave (km/s) = 3.02068 3.79863 3.43177
# Velocity P-wave (km/s) = 5.04638 6.24384 5.67677
#
# Compressibility (1/GPa) = 0.02848422
#
# Stress axis : x y z
#
# Youngs Moduli (GPa) = 32.38340 129.16894 129.81955
#
# Poissons Ratio (x) = 0.88546 0.20529
# Poissons Ratio (y) = 0.22199 0.06283
# Poissons Ratio (z) = 0.05121 0.06251
#
# Static dielectric constant tensor:
#      x y z
#    x 2.313360 0.000000 0.000000 
#    y 0.000000 2.070370 0.000000 
#    z 0.000000 0.000000 2.220140 
# 
# From -- ./inp_files/1252.got.cif
#   From: 2010.05.17/outbox.cif.g08.bks.cpg/sg52_1_cif.got.tgz:1252.got - 2010.06.03 12:15:38.
