data_PCOD9412607
_publ_section_title
;
Structure prediction by ZEFSAII (Michael W. Deem and Ramdas Pophale) SiO2 
 PCOD9412607
Probable space group: P N N A
;
_chemical_formula_sum "Si O2"
_cell_formula_units_Z 40
_cell_length_a 5.361782
_cell_length_b 15.937206
_cell_length_c 22.551801
_cell_angle_alpha 90.000000
_cell_angle_beta 90.000000
_cell_angle_gamma 90.000000
_cell_volume 1927.092536
_symmetry_space_group_name_H-M "P N N A"
_symmetry_group_IT_number 52
_symmetry_cell_setting 'orthorhombic'
loop_
_space_group_symop_operation_xyz
x,y,z
1/2-x,-y,z
x,1/2-y,1/2-z
1/2-x,1/2+y,1/2-z
-x,-y,-z
1/2+x,y,-z
-x,1/2+y,1/2+z
1/2+x,1/2-y,1/2+z
loop_
_atom_site_type_symbol
_atom_site_label
_atom_site_fract_x
_atom_site_fract_y
_atom_site_fract_z
Si Si1 0.503495 0.945979 0.815790
Si Si2 0.874164 0.250000 0.250000
Si Si3 0.215278 0.370981 0.209978
Si Si4 0.967216 0.867817 0.461578
Si Si5 0.992207 0.737388 0.357153
Si Si6 0.750000 0.000000 0.614452
O O1 0.562975 0.911465 0.748667
O O2 0.503124 0.862776 0.856824
O O3 0.250000 0.000000 0.819128
O O4 0.750000 0.000000 0.830130
O O5 0.010660 0.339752 0.255403
O O6 0.726129 0.241160 0.311103
O O7 0.284425 0.283955 0.177715
O O8 0.129109 0.432633 0.158743
O O9 0.695461 0.867864 0.491338
O O10 0.975340 0.786638 0.418731
O O11 0.043854 0.949702 0.422922
#
# Coordination Sequence:
#
# PCOD9412607 Si02
#       6
#     8   4   8   8   8   4
#     4  12  24  40  63 101 145 174 226 282 352 426
#     4  12  20  40  68  96 146 180 240 270 356 424
#     4  11  22  37  63 100 143 189 215 279 342 432
#     4  11  27  50  72  97 136 189 242 290 335 412
#     4  11  25  41  67 100 136 188 231 287 349 416
#     4  10  24  42  66 108 142 186 230 284 346 408
#
# _framework density 20.756658999999999
#
# number of rings (size 3 to 8) (size 9 to 14) (size 15 to 20)
#    0.000    0.800    5.000    1.800    5.600    0.000 
#    7.200    0.000    0.000    3.600    0.000    0.000 
#    0.000    0.000    0.000    0.000    0.000    0.000 
#
# Total GULP energy -223205.087219 kJ/mol
# GULP energy per Si atom -5580.127180 kJ/mol
# Density = 2.070942 g / cm^3
# Si number density = 20.756659 Si / 1000 Ang^3
#
#
#
# Elastic Constant Matrix: (Units=GPa)
#
#
# Indices 1 2 3 4 5 6 
#
# 1 74.2693 56.0597 10.9237 0.0000 0.0000 0.0000
# 2 56.0597 173.3899 48.5687 0.0000 0.0000 0.0000
# 3 10.9237 48.5687 73.2650 0.0000 0.0000 0.0000
# 4 0.0000 0.0000 0.0000 32.8607 0.0000 0.0000
# 5 0.0000 0.0000 0.0000 0.0000 75.5589 0.0000
# 6 0.0000 0.0000 0.0000 0.0000 0.0000 32.8498
#
#
#
# Elastic Compliance Matrix: (Units=1/GPa)
#
#
# Indices 1 2 3 4 5 6 
#
# 1 0.017934 -0.006201 0.001437 0.000000 0.000000 0.000000
# 2 -0.006201 0.009226 -0.005192 0.000000 0.000000 0.000000
# 3 0.001437 -0.005192 0.016877 0.000000 0.000000 0.000000
# 4 0.000000 0.000000 0.000000 0.030431 0.000000 0.000000
# 5 0.000000 0.000000 0.000000 0.000000 0.013235 0.000000
# 6 0.000000 0.000000 0.000000 0.000000 0.000000 0.030442
#
#
# Mechanical properties :
#
#
# Convention : Reuss Voigt Hill
#
# Bulk Modulus (GPa) = 41.45089 61.33648 51.39369
# Shear Modulus (GPa) = 34.22369 41.94537 38.08453
#
# Velocity S-wave (km/s) = 4.06495 4.50022 4.28812
# Velocity P-wave (km/s) = 6.48422 7.52443 7.02361
#
# Compressibility (1/GPa) = 0.02412493
#
# Stress axis : x y z
#
# Youngs Moduli (GPa) = 55.76149 108.38459 59.25342
#
# Poissons Ratio (x) = 0.67205 -0.08513
# Poissons Ratio (y) = 0.34575 0.30763
# Poissons Ratio (z) = -0.08011 0.56272
#
# Static dielectric constant tensor:
#      x y z
#    x 1.890230 0.000000 0.000000 
#    y 0.000000 1.846050 0.000000 
#    z 0.000000 0.000000 1.805280 
# 
# From -- ./inp_files/38680.got.cif
#   From: 2010.05.17/outbox.cif.g08.bks.cpg/sg52_20_cif.got.tgz:38680.got - 2010.06.03 12:15:38.
