data_PCOD9412143
_publ_section_title
;
Structure prediction by ZEFSAII (Michael W. Deem and Ramdas Pophale) SiO2 
 PCOD9412143
Probable space group: P N N A
;
_chemical_formula_sum "Si O2"
_cell_formula_units_Z 40
_cell_length_a 18.569511
_cell_length_b 7.775873
_cell_length_c 10.893810
_cell_angle_alpha 90.000000
_cell_angle_beta 90.000000
_cell_angle_gamma 90.000000
_cell_volume 1573.002536
_symmetry_space_group_name_H-M "P N N A"
_symmetry_group_IT_number 52
_symmetry_cell_setting 'orthorhombic'
loop_
_space_group_symop_operation_xyz
x,y,z
1/2-x,-y,z
x,1/2-y,1/2-z
1/2-x,1/2+y,1/2-z
-x,-y,-z
1/2+x,y,-z
-x,1/2+y,1/2+z
1/2+x,1/2-y,1/2+z
loop_
_atom_site_type_symbol
_atom_site_label
_atom_site_fract_x
_atom_site_fract_y
_atom_site_fract_z
Si Si1 0.279417 0.250000 0.250000
Si Si2 0.383608 0.468170 0.859310
Si Si3 0.490145 0.750000 0.750000
Si Si4 0.403611 0.476122 0.352519
Si Si5 0.250000 0.500000 0.681372
Si Si6 0.010264 0.750000 0.750000
Si Si7 0.318642 0.750857 0.011748
O O1 0.332376 0.407022 0.285409
O O2 0.229939 0.273161 0.131278
O O3 0.436694 0.606763 0.798927
O O4 0.316888 0.452776 0.767165
O O5 0.433797 0.299133 0.859319
O O6 0.353118 0.567751 0.977100
O O7 0.543411 0.687630 0.640548
O O8 0.454453 0.598394 0.273181
O O9 0.377486 0.598757 0.461968
O O10 0.271349 0.662838 0.596197
#
# Coordination Sequence:
#
# PCOD9412143 Si02
#       7
#     4   8   4   8   4   4   8
#     4  11  23  46  78 115 151 202 258 318 395 455
#     4  11  25  47  74 107 149 200 255 316 390 448
#     4   9  20  43  71 102 145 200 262 294 383 466
#     4  10  22  44  72 107 151 198 251 312 385 456
#     4  12  24  48  74 112 144 198 250 324 386 464
#     4  10  25  49  69 109 158 194 264 316 374 481
#     4  12  24  46  80 110 154 199 257 327 385 465
#
# _framework density 25.429075999999998
#
# number of rings (size 3 to 8) (size 9 to 14) (size 15 to 20)
#    0.000    1.200    4.000    0.600    2.800    1.600 
#    7.200    0.000    0.000    0.000    0.000    0.000 
#    0.000    0.000    0.000    0.000    0.000    0.000 
#
# Total GULP energy -223729.773660 kJ/mol
# GULP energy per Si atom -5593.244341 kJ/mol
# Density = 2.537120 g / cm^3
# Si number density = 25.429076 Si / 1000 Ang^3
#
#
#
# Elastic Constant Matrix: (Units=GPa)
#
#
# Indices 1 2 3 4 5 6 
#
# 1 170.1734 40.2335 72.2572 0.0000 0.0000 0.0000
# 2 40.2335 68.7479 31.6232 0.0000 0.0000 0.0000
# 3 72.2572 31.6232 104.1240 0.0000 0.0000 0.0000
# 4 0.0000 0.0000 0.0000 32.2450 0.0000 0.0000
# 5 0.0000 0.0000 0.0000 0.0000 11.0821 0.0000
# 6 0.0000 0.0000 0.0000 0.0000 0.0000 -8.8466
#
#
#
# Elastic Compliance Matrix: (Units=1/GPa)
#
#
# Indices 1 2 3 4 5 6 
#
# 1 0.008743 -0.002704 -0.005246 0.000000 0.000000 0.000000
# 2 -0.002704 0.017744 -0.003513 0.000000 0.000000 0.000000
# 3 -0.005246 -0.003513 0.014311 0.000000 0.000000 0.000000
# 4 0.000000 0.000000 0.000000 0.031013 0.000000 0.000000
# 5 0.000000 0.000000 0.000000 0.000000 0.090235 0.000000
# 6 0.000000 0.000000 0.000000 0.000000 0.000000 -0.113038
#
#
# Mechanical properties :
#
#
# Convention : Reuss Voigt Hill
#
# Bulk Modulus (GPa) = 55.94935 70.14145 63.04540
# Shear Modulus (GPa) = 64.19195 20.15821 42.17508
#
# Velocity S-wave (km/s) = 5.02974 2.81859 4.07693
# Velocity P-wave (km/s) = 7.46867 6.18350 6.85626
#
# Compressibility (1/GPa) = 0.01787331
#
# Stress axis : x y z
#
# Youngs Moduli (GPa) = 114.37499 56.35719 69.87408
#
# Poissons Ratio (x) = 0.15237 0.36658
# Poissons Ratio (y) = 0.30922 0.24545
# Poissons Ratio (z) = 0.60004 0.19797
#
# Static dielectric constant tensor:
#      x y z
#    x 1.987040 0.000000 0.000000 
#    y 0.000000 2.224780 0.000000 
#    z 0.000000 0.000000 2.024730 
# 
# From -- ./inp_files/20418.got.cif
#   From: 2010.05.17/outbox.cif.g08.bks.cpg/sg52_11_cif.got.tgz:20418.got - 2010.06.03 12:15:38.
