data_PCOD9412395
_publ_section_title
;
Structure prediction by ZEFSAII (Michael W. Deem and Ramdas Pophale) SiO2 
 PCOD9412395
Probable space group: P N N A
;
_chemical_formula_sum "Si O2"
_cell_formula_units_Z 36
_cell_length_a 9.567496
_cell_length_b 19.695105
_cell_length_c 7.178803
_cell_angle_alpha 90.000000
_cell_angle_beta 90.000000
_cell_angle_gamma 90.000000
_cell_volume 1352.722225
_symmetry_space_group_name_H-M "P N N A"
_symmetry_group_IT_number 52
_symmetry_cell_setting 'orthorhombic'
loop_
_space_group_symop_operation_xyz
x,y,z
1/2-x,-y,z
x,1/2-y,1/2-z
1/2-x,1/2+y,1/2-z
-x,-y,-z
1/2+x,y,-z
-x,1/2+y,1/2+z
1/2+x,1/2-y,1/2+z
loop_
_atom_site_type_symbol
_atom_site_label
_atom_site_fract_x
_atom_site_fract_y
_atom_site_fract_z
Si Si1 0.837813 0.558324 0.606619
Si Si2 0.675858 0.643325 0.114970
Si Si3 0.573976 0.272508 0.967672
Si Si4 0.250000 0.500000 0.044555
Si Si5 0.088336 0.642224 0.463601
O O1 0.750000 0.500000 0.501428
O O2 0.870055 0.522914 0.804849
O O3 0.721629 0.616756 0.653406
O O4 0.968163 0.585805 0.494692
O O5 0.527845 0.662905 0.026419
O O6 0.658332 0.651344 0.334772
O O7 0.781672 0.700860 0.045420
O O8 0.717052 0.566979 0.068643
O O9 0.586995 0.250000 0.750000
O O10 0.498548 0.210277 0.073130
#
# Coordination Sequence:
#
# PCOD9412395 Si02
#       5
#     8   8   8   4   8
#     4  10  24  43  68 103 141 187 223 294 351 405
#     4  11  24  43  71 103 133 187 227 290 343 424
#     4  10  23  43  68  99 139 173 232 288 349 404
#     4  10  24  40  66  98 142 176 234 278 356 404
#     4  11  23  45  71 100 141 181 241 284 352 418
#
# _framework density 26.613001000000001
#
# number of rings (size 3 to 8) (size 9 to 14) (size 15 to 20)
#    0.667    0.889    0.000    4.667    1.556    5.333 
#    0.000    5.556    0.000    0.000    0.000    0.000 
#    0.000    0.000    0.000    0.000    0.000    0.000 
#
# Total GULP energy -201734.177925 kJ/mol
# GULP energy per Si atom -5603.727165 kJ/mol
# Density = 2.655243 g / cm^3
# Si number density = 26.613001 Si / 1000 Ang^3
#
#
#
# Elastic Constant Matrix: (Units=GPa)
#
#
# Indices 1 2 3 4 5 6 
#
# 1 119.8994 43.4703 24.6344 0.0000 0.0000 0.0000
# 2 43.4703 157.0828 40.8442 0.0000 0.0000 0.0000
# 3 24.6344 40.8442 70.2763 0.0000 0.0000 0.0000
# 4 0.0000 0.0000 0.0000 40.4115 0.0000 0.0000
# 5 0.0000 0.0000 0.0000 0.0000 27.4126 0.0000
# 6 0.0000 0.0000 0.0000 0.0000 0.0000 52.0849
#
#
#
# Elastic Compliance Matrix: (Units=1/GPa)
#
#
# Indices 1 2 3 4 5 6 
#
# 1 0.009534 -0.002084 -0.002131 0.000000 0.000000 0.000000
# 2 -0.002084 0.007955 -0.003893 0.000000 0.000000 0.000000
# 3 -0.002131 -0.003893 0.017239 0.000000 0.000000 0.000000
# 4 0.000000 0.000000 0.000000 0.024745 0.000000 0.000000
# 5 0.000000 0.000000 0.000000 0.000000 0.036480 0.000000
# 6 0.000000 0.000000 0.000000 0.000000 0.000000 0.019199
#
#
# Mechanical properties :
#
#
# Convention : Reuss Voigt Hill
#
# Bulk Modulus (GPa) = 54.01805 62.79516 58.40660
# Shear Modulus (GPa) = 36.35353 39.86911 38.11132
#
# Velocity S-wave (km/s) = 3.69996 3.87474 3.78836
# Velocity P-wave (km/s) = 6.21246 6.60795 6.41325
#
# Compressibility (1/GPa) = 0.01851233
#
# Stress axis : x y z
#
# Youngs Moduli (GPa) = 104.89043 125.70583 58.00851
#
# Poissons Ratio (x) = 0.26202 0.12359
# Poissons Ratio (y) = 0.21863 0.22582
# Poissons Ratio (z) = 0.22347 0.48935
#
# Static dielectric constant tensor:
#      x y z
#    x 2.066330 0.000000 0.000000 
#    y 0.000000 2.117380 0.000000 
#    z 0.000000 0.000000 2.118260 
# 
# From -- ./inp_files/7300.got.cif
#   From: 2010.05.17/outbox.cif.g08.bks.cpg/sg52_4_cif.got.tgz:7300.got - 2010.06.03 12:15:38.
