data_PCOD9412758
_publ_section_title
;
Structure prediction by ZEFSAII (Michael W. Deem and Ramdas Pophale) SiO2 
 PCOD9412758
Probable space group: P N N A
;
_chemical_formula_sum "Si O2"
_cell_formula_units_Z 36
_cell_length_a 18.600568
_cell_length_b 5.611011
_cell_length_c 14.667833
_cell_angle_alpha 90.000000
_cell_angle_beta 90.000000
_cell_angle_gamma 90.000000
_cell_volume 1530.852272
_symmetry_space_group_name_H-M "P N N A"
_symmetry_group_IT_number 52
_symmetry_cell_setting 'orthorhombic'
loop_
_space_group_symop_operation_xyz
x,y,z
1/2-x,-y,z
x,1/2-y,1/2-z
1/2-x,1/2+y,1/2-z
-x,-y,-z
1/2+x,y,-z
-x,1/2+y,1/2+z
1/2+x,1/2-y,1/2+z
loop_
_atom_site_type_symbol
_atom_site_label
_atom_site_fract_x
_atom_site_fract_y
_atom_site_fract_z
Si Si1 0.359027 0.712974 0.947090
Si Si2 0.856049 0.375999 0.879246
Si Si3 0.001394 0.382575 0.652948
Si Si4 0.423060 0.750000 0.250000
Si Si5 0.750000 0.000000 0.938998
Si Si6 0.750000 0.500000 0.197016
O O1 0.433299 0.820509 0.911861
O O2 0.316658 0.581739 0.865710
O O3 0.360926 0.529187 0.029733
O O4 0.311983 0.920430 0.992025
O O5 0.872298 0.547489 0.793027
O O6 0.926203 0.213664 0.883117
O O7 0.783922 0.216813 0.880950
O O8 0.015500 0.250000 0.750000
O O9 0.978832 0.653169 0.674310
O O10 0.732204 0.750000 0.250000
#
# Coordination Sequence:
#
# PCOD9412758 Si02
#       6
#     8   8   8   4   4   4
#     4  12  25  47  75 114 152 209 259 321 400 482
#     4  11  24  47  78 108 148 208 259 331 388 478
#     4  10  24  46  76 110 151 201 263 325 384 472
#     4  10  24  50  76 110 158 194 276 326 398 466
#     4  12  25  44  78 109 164 200 266 325 408 483
#     4  12  27  50  76 117 174 214 264 337 418 493
#
# _framework density 23.516311000000002
#
# number of rings (size 3 to 8) (size 9 to 14) (size 15 to 20)
#    0.000    0.889    2.222    3.333    0.000    7.111 
#   14.000    0.000  110.000    0.000    0.000    0.000 
#    0.000    0.000    0.000    0.000    0.000    0.000 
#
# Total GULP energy -201374.545674 kJ/mol
# GULP energy per Si atom -5593.737380 kJ/mol
# Density = 2.346279 g / cm^3
# Si number density = 23.516311 Si / 1000 Ang^3
#
#
#
# Elastic Constant Matrix: (Units=GPa)
#
#
# Indices 1 2 3 4 5 6 
#
# 1 125.9001 35.3506 46.3618 0.0000 0.0000 0.0000
# 2 35.3506 96.2906 36.9488 0.0000 0.0000 0.0000
# 3 46.3618 36.9488 80.8201 0.0000 0.0000 0.0000
# 4 0.0000 0.0000 0.0000 17.2536 0.0000 0.0000
# 5 0.0000 0.0000 0.0000 0.0000 27.9133 0.0000
# 6 0.0000 0.0000 0.0000 0.0000 0.0000 15.4645
#
#
#
# Elastic Compliance Matrix: (Units=1/GPa)
#
#
# Indices 1 2 3 4 5 6 
#
# 1 0.010333 -0.001842 -0.005085 0.000000 0.000000 0.000000
# 2 -0.001842 0.012923 -0.004851 0.000000 0.000000 0.000000
# 3 -0.005085 -0.004851 0.017508 0.000000 0.000000 0.000000
# 4 0.000000 0.000000 0.000000 0.057959 0.000000 0.000000
# 5 0.000000 0.000000 0.000000 0.000000 0.035825 0.000000
# 6 0.000000 0.000000 0.000000 0.000000 0.000000 0.064664
#
#
# Mechanical properties :
#
#
# Convention : Reuss Voigt Hill
#
# Bulk Modulus (GPa) = 58.11693 60.03703 59.07698
# Shear Modulus (GPa) = 21.88137 24.41623 23.14880
#
# Velocity S-wave (km/s) = 3.05368 3.22571 3.14087
# Velocity P-wave (km/s) = 6.09921 6.28164 6.19110
#
# Compressibility (1/GPa) = 0.01720669
#
# Stress axis : x y z
#
# Youngs Moduli (GPa) = 96.78138 77.38082 57.11644
#
# Poissons Ratio (x) = 0.14254 0.29044
# Poissons Ratio (y) = 0.17828 0.27709
# Poissons Ratio (z) = 0.49214 0.37540
#
# Static dielectric constant tensor:
#      x y z
#    x 1.835690 0.000000 0.000000 
#    y 0.000000 2.130620 0.000000 
#    z 0.000000 0.000000 1.903320 
# 
# From -- ./inp_files/28529.got.cif
#   From: 2010.05.17/outbox.cif.g08.bks.cpg/sg52_15_cif.got.tgz:28529.got - 2010.06.03 12:15:38.
