data_PCOD9412251
_publ_section_title
;
Structure prediction by ZEFSAII (Michael W. Deem and Ramdas Pophale) SiO2 
 PCOD9412251
Probable space group: P N N A
;
_chemical_formula_sum "Si O2"
_cell_formula_units_Z 44
_cell_length_a 13.984189
_cell_length_b 5.209336
_cell_length_c 26.837673
_cell_angle_alpha 90.000000
_cell_angle_beta 90.000000
_cell_angle_gamma 90.000000
_cell_volume 1955.079906
_symmetry_space_group_name_H-M "P N N A"
_symmetry_group_IT_number 52
_symmetry_cell_setting 'orthorhombic'
loop_
_space_group_symop_operation_xyz
x,y,z
1/2-x,-y,z
x,1/2-y,1/2-z
1/2-x,1/2+y,1/2-z
-x,-y,-z
1/2+x,y,-z
-x,1/2+y,1/2+z
1/2+x,1/2-y,1/2+z
loop_
_atom_site_type_symbol
_atom_site_label
_atom_site_fract_x
_atom_site_fract_y
_atom_site_fract_z
Si Si1 0.020093 0.778220 0.676420
Si Si2 0.655594 0.592446 0.998790
Si Si3 0.186671 0.750000 0.750000
Si Si4 0.509865 0.273643 0.563153
Si Si5 0.092479 0.754318 0.197856
Si Si6 0.663666 0.835121 0.900298
O O1 0.119381 0.702680 0.701811
O O2 0.020983 0.835302 0.617246
O O3 0.946918 0.540095 0.686132
O O4 0.989097 0.039693 0.704218
O O5 0.750000 0.500000 0.028308
O O6 0.584502 0.388902 0.970999
O O7 0.703047 0.729107 0.951554
O O8 0.586637 0.776568 0.030772
O O9 0.250000 0.500000 0.758801
O O10 0.566905 0.527734 0.579954
O O11 0.148253 0.750000 0.250000
O O12 0.141073 0.658662 0.146718
O O13 0.750000 0.000000 0.879185
#
# Coordination Sequence:
#
# PCOD9412251 Si02
#       6
#     8   8   4   8   8   8
#     4  11  22  42  65  94 128 173 223 265 333 402
#     4  11  21  40  64  92 129 168 224 277 334 404
#     4  12  24  40  66  96 132 170 218 278 336 392
#     4  10  23  39  64  92 125 179 216 274 339 401
#     4  11  21  40  67  94 127 173 219 270 326 401
#     4  11  22  39  62  95 131 175 220 280 336 404
#
# _framework density 22.505472000000001
#
# number of rings (size 3 to 8) (size 9 to 14) (size 15 to 20)
#    0.000    1.091    5.455    1.636    0.000    0.727 
#    0.000    5.455    0.000    0.000    0.000    0.000 
#    0.000    0.000    0.000    0.000    0.000    0.000 
#
# Total GULP energy -245065.085787 kJ/mol
# GULP energy per Si atom -5569.661041 kJ/mol
# Density = 2.245425 g / cm^3
# Si number density = 22.505472 Si / 1000 Ang^3
#
#
#
# Elastic Constant Matrix: (Units=GPa)
#
#
# Indices 1 2 3 4 5 6 
#
# 1 92.3683 2.2879 21.9384 0.0000 0.0000 0.0000
# 2 2.2879 58.4317 4.6320 0.0000 0.0000 0.0000
# 3 21.9384 4.6320 128.1271 0.0000 0.0000 0.0000
# 4 0.0000 0.0000 0.0000 23.7688 0.0000 0.0000
# 5 0.0000 0.0000 0.0000 0.0000 30.2421 0.0000
# 6 0.0000 0.0000 0.0000 0.0000 0.0000 37.0242
#
#
#
# Elastic Compliance Matrix: (Units=1/GPa)
#
#
# Indices 1 2 3 4 5 6 
#
# 1 0.011290 -0.000290 -0.001923 0.000000 0.000000 0.000000
# 2 -0.000290 0.017171 -0.000571 0.000000 0.000000 0.000000
# 3 -0.001923 -0.000571 0.008155 0.000000 0.000000 0.000000
# 4 0.000000 0.000000 0.000000 0.042072 0.000000 0.000000
# 5 0.000000 0.000000 0.000000 0.000000 0.033066 0.000000
# 6 0.000000 0.000000 0.000000 0.000000 0.000000 0.027009
#
#
# Mechanical properties :
#
#
# Convention : Reuss Voigt Hill
#
# Bulk Modulus (GPa) = 32.20780 37.40484 34.80632
# Shear Modulus (GPa) = 32.32495 34.87830 33.60163
#
# Velocity S-wave (km/s) = 3.79399 3.94098 3.86818
# Velocity P-wave (km/s) = 5.79091 6.11268 5.95397
#
# Compressibility (1/GPa) = 0.03104838
#
# Stress axis : x y z
#
# Youngs Moduli (GPa) = 88.57363 58.23899 122.63015
#
# Poissons Ratio (x) = 0.01687 0.23577
# Poissons Ratio (y) = 0.02565 0.07004
# Poissons Ratio (z) = 0.17030 0.03326
#
# Static dielectric constant tensor:
#      x y z
#    x 1.845930 0.000000 0.000000 
#    y 0.000000 1.977810 0.000000 
#    z 0.000000 0.000000 1.847540 
# 
# From -- ./inp_files/42950.got.cif
#   From: 2010.05.17/outbox.cif.g08.bks.cpg/sg52_22_cif.got.tgz:42950.got - 2010.06.03 12:15:38.
