data_PCOD9412611
_publ_section_title
;
Structure prediction by ZEFSAII (Michael W. Deem and Ramdas Pophale) SiO2 
 PCOD9412611
Probable space group: P N N A
;
_chemical_formula_sum "Si O2"
_cell_formula_units_Z 36
_cell_length_a 9.718934
_cell_length_b 7.323393
_cell_length_c 21.391267
_cell_angle_alpha 90.000000
_cell_angle_beta 90.000000
_cell_angle_gamma 90.000000
_cell_volume 1522.535691
_symmetry_space_group_name_H-M "P N N A"
_symmetry_group_IT_number 52
_symmetry_cell_setting 'orthorhombic'
loop_
_space_group_symop_operation_xyz
x,y,z
1/2-x,-y,z
x,1/2-y,1/2-z
1/2-x,1/2+y,1/2-z
-x,-y,-z
1/2+x,y,-z
-x,1/2+y,1/2+z
1/2+x,1/2-y,1/2+z
loop_
_atom_site_type_symbol
_atom_site_label
_atom_site_fract_x
_atom_site_fract_y
_atom_site_fract_z
Si Si1 0.238373 0.199672 0.008185
Si Si2 0.893763 0.093314 0.197669
Si Si3 0.934705 0.250000 0.750000
Si Si4 0.867156 0.354427 0.882523
Si Si5 0.964644 0.326578 0.077587
O O1 0.334864 0.192617 0.070517
O O2 0.087134 0.261149 0.030429
O O3 0.250000 0.000000 0.979453
O O4 0.323435 0.323136 0.960370
O O5 0.873323 0.250000 0.250000
O O6 0.959856 0.190909 0.137122
O O7 0.750000 0.000000 0.179714
O O8 0.979961 0.927768 0.228295
O O9 0.851181 0.301717 0.811281
O O10 0.750000 0.500000 0.898499
O O11 0.003560 0.469624 0.896849
#
# Coordination Sequence:
#
# PCOD9412611 Si02
#       5
#     8   8   4   8   8
#     4  11  23  43  67 107 142 196 249 300 377 432
#     4  12  25  46  72 110 145 190 248 297 369 442
#     4  12  24  44  72 102 146 198 240 302 372 436
#     4  10  24  42  67 105 146 195 248 307 367 441
#     4  11  24  45  71 105 148 189 248 306 366 441
#
# _framework density 23.644766000000001
#
# number of rings (size 3 to 8) (size 9 to 14) (size 15 to 20)
#    0.000    0.889    3.333    3.333    0.000    6.222 
#    0.000    3.333    0.000    0.000    0.000    0.000 
#    0.000    0.000    0.000    0.000    0.000    0.000 
#
# Total GULP energy -201321.149764 kJ/mol
# GULP energy per Si atom -5592.254160 kJ/mol
# Density = 2.359095 g / cm^3
# Si number density = 23.644766 Si / 1000 Ang^3
#
#
#
# Elastic Constant Matrix: (Units=GPa)
#
#
# Indices 1 2 3 4 5 6 
#
# 1 69.3526 32.7422 37.1614 0.0000 0.0000 0.0000
# 2 32.7422 90.4019 22.7262 0.0000 0.0000 0.0000
# 3 37.1614 22.7262 130.5112 0.0000 0.0000 0.0000
# 4 0.0000 0.0000 0.0000 31.6115 0.0000 0.0000
# 5 0.0000 0.0000 0.0000 0.0000 16.2934 0.0000
# 6 0.0000 0.0000 0.0000 0.0000 0.0000 24.1991
#
#
#
# Elastic Compliance Matrix: (Units=1/GPa)
#
#
# Indices 1 2 3 4 5 6 
#
# 1 0.019690 -0.005984 -0.004564 0.000000 0.000000 0.000000
# 2 -0.005984 0.013387 -0.000627 0.000000 0.000000 0.000000
# 3 -0.004564 -0.000627 0.009071 0.000000 0.000000 0.000000
# 4 0.000000 0.000000 0.000000 0.031634 0.000000 0.000000
# 5 0.000000 0.000000 0.000000 0.000000 0.061375 0.000000
# 6 0.000000 0.000000 0.000000 0.000000 0.000000 0.041324
#
#
# Mechanical properties :
#
#
# Convention : Reuss Voigt Hill
#
# Bulk Modulus (GPa) = 50.51401 52.83614 51.67508
# Shear Modulus (GPa) = 24.33916 27.59651 25.96784
#
# Velocity S-wave (km/s) = 3.21186 3.42003 3.31758
# Velocity P-wave (km/s) = 5.92999 6.16359 6.04792
#
# Compressibility (1/GPa) = 0.01979649
#
# Stress axis : x y z
#
# Youngs Moduli (GPa) = 50.78734 74.70112 110.24061
#
# Poissons Ratio (x) = 0.44701 0.50319
# Poissons Ratio (y) = 0.30391 0.06914
# Poissons Ratio (z) = 0.23182 0.04685
#
# Static dielectric constant tensor:
#      x y z
#    x 1.936270 0.000000 0.000000 
#    y 0.000000 2.300420 0.000000 
#    z 0.000000 0.000000 1.889480 
# 
# From -- ./inp_files/35584.got.cif
#   From: 2010.05.17/outbox.cif.g08.bks.cpg/sg52_18_cif.got.tgz:35584.got - 2010.06.03 12:15:38.
