data_PCOD9412420
_publ_section_title
;
Structure prediction by ZEFSAII (Michael W. Deem and Ramdas Pophale) SiO2 
 PCOD9412420
Probable space group: P N N A
;
_chemical_formula_sum "Si O2"
_cell_formula_units_Z 40
_cell_length_a 5.367360
_cell_length_b 25.986085
_cell_length_c 11.429648
_cell_angle_alpha 90.000000
_cell_angle_beta 90.000000
_cell_angle_gamma 90.000000
_cell_volume 1594.169279
_symmetry_space_group_name_H-M "P N N A"
_symmetry_group_IT_number 52
_symmetry_cell_setting 'orthorhombic'
loop_
_space_group_symop_operation_xyz
x,y,z
1/2-x,-y,z
x,1/2-y,1/2-z
1/2-x,1/2+y,1/2-z
-x,-y,-z
1/2+x,y,-z
-x,1/2+y,1/2+z
1/2+x,1/2-y,1/2+z
loop_
_atom_site_type_symbol
_atom_site_label
_atom_site_fract_x
_atom_site_fract_y
_atom_site_fract_z
Si Si1 0.091176 0.250000 0.750000
Si Si2 0.690727 0.889959 0.872125
Si Si3 0.815186 0.153703 0.135056
Si Si4 0.085006 0.944689 0.425299
Si Si5 0.750000 0.500000 0.706356
Si Si6 0.659260 0.675964 0.930887
O O1 0.249513 0.211821 0.832583
O O2 0.920902 0.285885 0.829360
O O3 0.414380 0.881487 0.823662
O O4 0.921569 0.861935 0.810057
O O5 0.778568 0.949555 0.874427
O O6 0.664734 0.861422 0.998031
O O7 0.348316 0.953537 0.492253
O O8 0.060595 0.976478 0.304032
O O9 0.111906 0.883808 0.402122
O O10 0.443281 0.685097 0.029514
#
# Coordination Sequence:
#
# PCOD9412420 Si02
#       6
#     4   8   8   8   4   8
#     4  12  26  44  80 100 142 206 234 294 390 412
#     4  10  25  45  68 104 145 175 246 298 354 440
#     4  10  25  45  66 101 144 183 236 299 346 447
#     4  10  23  44  65 102 143 180 242 296 346 438
#     4  12  24  42  78 102 138 204 224 302 386 412
#     4  10  25  44  67 104 143 181 243 299 350 433
#
# _framework density 25.091436000000002
#
# number of rings (size 3 to 8) (size 9 to 14) (size 15 to 20)
#    0.000    1.600    0.000    1.800    5.600   15.200 
#    0.000    0.000    0.000    0.000    0.000    0.000 
#    0.000    0.000    0.000    0.000    0.000    0.000 
#
# Total GULP energy -223336.301830 kJ/mol
# GULP energy per Si atom -5583.407546 kJ/mol
# Density = 2.503433 g / cm^3
# Si number density = 25.091436 Si / 1000 Ang^3
#
#
#
# Elastic Constant Matrix: (Units=GPa)
#
#
# Indices 1 2 3 4 5 6 
#
# 1 132.0268 8.1983 -1.3185 0.0000 0.0000 0.0000
# 2 8.1983 158.7015 27.7212 0.0000 0.0000 0.0000
# 3 -1.3185 27.7212 91.0821 0.0000 0.0000 0.0000
# 4 0.0000 0.0000 0.0000 59.8973 0.0000 0.0000
# 5 0.0000 0.0000 0.0000 0.0000 11.4844 0.0000
# 6 0.0000 0.0000 0.0000 0.0000 0.0000 37.4900
#
#
#
# Elastic Compliance Matrix: (Units=1/GPa)
#
#
# Indices 1 2 3 4 5 6 
#
# 1 0.007604 -0.000435 0.000243 0.000000 0.000000 0.000000
# 2 -0.000435 0.006680 -0.002039 0.000000 0.000000 0.000000
# 3 0.000243 -0.002039 0.011603 0.000000 0.000000 0.000000
# 4 0.000000 0.000000 0.000000 0.016695 0.000000 0.000000
# 5 0.000000 0.000000 0.000000 0.000000 0.087075 0.000000
# 6 0.000000 0.000000 0.000000 0.000000 0.000000 0.026674
#
#
# Mechanical properties :
#
#
# Convention : Reuss Voigt Hill
#
# Bulk Modulus (GPa) = 46.67914 50.11249 48.39582
# Shear Modulus (GPa) = 29.77335 44.92164 37.34750
#
# Velocity S-wave (km/s) = 3.44843 4.23580 3.86224
# Velocity P-wave (km/s) = 5.87364 6.62858 6.26249
#
# Compressibility (1/GPa) = 0.02142284
#
# Stress axis : x y z
#
# Youngs Moduli (GPa) = 131.51558 149.70418 86.18239
#
# Poissons Ratio (x) = 0.06514 -0.02090
# Poissons Ratio (y) = 0.05723 0.17575
# Poissons Ratio (z) = -0.03189 0.30530
#
# Static dielectric constant tensor:
#      x y z
#    x 2.003890 0.000000 0.000000 
#    y 0.000000 2.035320 0.000000 
#    z 0.000000 0.000000 2.219770 
# 
# From -- ./inp_files/16063.got.cif
#   From: 2010.05.17/outbox.cif.g08.bks.cpg/sg52_9_cif.got.tgz:16063.got - 2010.06.03 12:15:38.
