data_PCOD9412018
_publ_section_title
;
Structure prediction by ZEFSAII (Michael W. Deem and Ramdas Pophale) SiO2 
 PCOD9412018
Probable space group: P N N A
;
_chemical_formula_sum "Si O2"
_cell_formula_units_Z 40
_cell_length_a 13.453346
_cell_length_b 8.599234
_cell_length_c 15.537916
_cell_angle_alpha 90.000000
_cell_angle_beta 90.000000
_cell_angle_gamma 90.000000
_cell_volume 1797.557734
_symmetry_space_group_name_H-M "P N N A"
_symmetry_group_IT_number 52
_symmetry_cell_setting 'orthorhombic'
loop_
_space_group_symop_operation_xyz
x,y,z
1/2-x,-y,z
x,1/2-y,1/2-z
1/2-x,1/2+y,1/2-z
-x,-y,-z
1/2+x,y,-z
-x,1/2+y,1/2+z
1/2+x,1/2-y,1/2+z
loop_
_atom_site_type_symbol
_atom_site_label
_atom_site_fract_x
_atom_site_fract_y
_atom_site_fract_z
Si Si1 0.465102 0.494604 0.724081
Si Si2 0.363499 0.750000 0.250000
Si Si3 0.998649 0.272810 0.882359
Si Si4 0.729447 0.818446 0.901817
Si Si5 0.790501 0.250000 0.250000
Si Si6 0.196908 0.334827 0.932699
O O1 0.560593 0.384238 0.721596
O O2 0.488287 0.610687 0.802347
O O3 0.459015 0.602093 0.640795
O O4 0.365448 0.395546 0.737327
O O5 0.292630 0.720939 0.168352
O O6 0.884007 0.239911 0.898870
O O7 0.078132 0.344408 0.947863
O O8 0.750000 0.000000 0.880511
O O9 0.764209 0.786192 0.998078
O O10 0.726010 0.282655 0.164645
O O11 0.250000 0.500000 0.946793
#
# Coordination Sequence:
#
# PCOD9412018 Si02
#       6
#     8   4   8   8   4   8
#     4  10  22  42  78 106 138 194 240 300 364 450
#     4  11  24  47  72 106 146 187 246 299 372 430
#     4  11  24  44  72 105 144 188 248 295 376 435
#     4  12  29  47  73 107 147 194 244 309 369 440
#     4  11  24  47  72 106 146 187 246 299 372 430
#     4  12  29  47  73 107 147 194 244 309 369 440
#
# _framework density 22.252413000000001
#
# number of rings (size 3 to 8) (size 9 to 14) (size 15 to 20)
#    0.000    0.800    4.000    2.400    5.600    4.800 
#    0.000    0.000    0.000    0.000    0.000    0.000 
#    0.000    0.000    0.000    0.000    0.000    0.000 
#
# Total GULP energy -223544.378505 kJ/mol
# GULP energy per Si atom -5588.609463 kJ/mol
# Density = 2.220177 g / cm^3
# Si number density = 22.252413 Si / 1000 Ang^3
#
#
#
# Elastic Constant Matrix: (Units=GPa)
#
#
# Indices 1 2 3 4 5 6 
#
# 1 191.3131 29.0495 14.4481 0.0000 0.0000 0.0000
# 2 29.0495 57.1274 -15.6953 0.0000 0.0000 0.0000
# 3 14.4481 -15.6953 48.5772 0.0000 0.0000 0.0000
# 4 0.0000 0.0000 0.0000 12.4795 0.0000 0.0000
# 5 0.0000 0.0000 0.0000 0.0000 -28.4625 0.0000
# 6 0.0000 0.0000 0.0000 0.0000 0.0000 27.2873
#
#
#
# Elastic Compliance Matrix: (Units=1/GPa)
#
#
# Indices 1 2 3 4 5 6 
#
# 1 0.006054 -0.003921 -0.003068 0.000000 0.000000 0.000000
# 2 -0.003921 0.021750 0.008194 0.000000 0.000000 0.000000
# 3 -0.003068 0.008194 0.024146 0.000000 0.000000 0.000000
# 4 0.000000 0.000000 0.000000 0.080131 0.000000 0.000000
# 5 0.000000 0.000000 0.000000 0.000000 -0.035134 0.000000
# 6 0.000000 0.000000 0.000000 0.000000 0.000000 0.036647
#
#
# Mechanical properties :
#
#
# Convention : Reuss Voigt Hill
#
# Bulk Modulus (GPa) = 18.39617 39.18025 28.78821
# Shear Modulus (GPa) = 33.48858 20.20855 26.84856
#
# Velocity S-wave (km/s) = 3.88357 3.01682 3.47731
# Velocity P-wave (km/s) = 5.32864 5.45714 5.39327
#
# Compressibility (1/GPa) = 0.05435915
#
# Stress axis : x y z
#
# Youngs Moduli (GPa) = 165.17636 45.97712 41.41538
#
# Poissons Ratio (x) = 0.18029 0.12705
# Poissons Ratio (y) = 0.64772 -0.33935
# Poissons Ratio (z) = 0.50670 -0.37673
#
# Static dielectric constant tensor:
#      x y z
#    x 1.858210 0.000000 0.000000 
#    y 0.000000 1.830100 0.000000 
#    z 0.000000 0.000000 1.786730 
# 
# From -- ./inp_files/32027.got.cif
#   From: 2010.05.17/outbox.cif.g08.bks.cpg/sg52_17_cif.got.tgz:32027.got - 2010.06.03 12:15:38.
