data_PCOD9412410
_publ_section_title
;
Structure prediction by ZEFSAII (Michael W. Deem and Ramdas Pophale) SiO2 
 PCOD9412410
Probable space group: P N N A
;
_chemical_formula_sum "Si O2"
_cell_formula_units_Z 40
_cell_length_a 10.327398
_cell_length_b 8.399449
_cell_length_c 17.626348
_cell_angle_alpha 90.000000
_cell_angle_beta 90.000000
_cell_angle_gamma 90.000000
_cell_volume 1528.987912
_symmetry_space_group_name_H-M "P N N A"
_symmetry_group_IT_number 52
_symmetry_cell_setting 'orthorhombic'
loop_
_space_group_symop_operation_xyz
x,y,z
1/2-x,-y,z
x,1/2-y,1/2-z
1/2-x,1/2+y,1/2-z
-x,-y,-z
1/2+x,y,-z
-x,1/2+y,1/2+z
1/2+x,1/2-y,1/2+z
loop_
_atom_site_type_symbol
_atom_site_label
_atom_site_fract_x
_atom_site_fract_y
_atom_site_fract_z
Si Si1 0.111616 0.944190 0.239071
Si Si2 0.591733 0.027161 0.121639
Si Si3 0.040490 0.002459 0.407223
Si Si4 0.250000 0.500000 0.865042
Si Si5 0.235756 0.250000 0.750000
Si Si6 0.060162 0.775577 0.994244
O O1 0.096457 0.750000 0.250000
O O2 0.015420 0.029606 0.180827
O O3 0.250000 0.000000 0.211843
O O4 0.089791 0.004693 0.323217
O O5 0.666159 0.139756 0.184138
O O6 0.512640 0.124366 0.058210
O O7 0.642258 0.882759 0.065873
O O8 0.884542 0.953512 0.405415
O O9 0.040145 0.176155 0.443259
O O10 0.118247 0.869689 0.455716
O O11 0.303644 0.369044 0.806313
#
# Coordination Sequence:
#
# PCOD9412410 Si02
#       6
#     8   8   8   4   4   8
#     4  12  25  46  71  96 136 184 236 289 332 410
#     4  11  21  48  69  96 140 179 230 284 343 411
#     4  11  24  48  68 100 140 176 233 281 347 414
#     4  12  24  42  74  98 134 180 226 290 340 420
#     4  12  24  44  72 102 138 184 234 288 342 414
#     4  10  23  43  71  95 140 182 219 285 347 415
#
# _framework density 26.161095
#
# number of rings (size 3 to 8) (size 9 to 14) (size 15 to 20)
#    0.000    0.800    7.000    0.000    5.600    0.000 
#   10.800    0.000    0.000    0.000    0.000    0.000 
#    0.000    0.000    0.000    0.000    0.000    0.000 
#
# Total GULP energy -222681.229280 kJ/mol
# GULP energy per Si atom -5567.030732 kJ/mol
# Density = 2.610155 g / cm^3
# Si number density = 26.161095 Si / 1000 Ang^3
#
#
#
# Elastic Constant Matrix: (Units=GPa)
#
#
# Indices 1 2 3 4 5 6 
#
# 1 47.1425 -16.0027 4.7454 0.0000 0.0000 0.0000
# 2 -16.0027 59.4360 59.4320 0.0000 0.0000 0.0000
# 3 4.7454 59.4320 194.4959 0.0000 0.0000 0.0000
# 4 0.0000 0.0000 0.0000 35.5871 0.0000 0.0000
# 5 0.0000 0.0000 0.0000 0.0000 27.9858 0.0000
# 6 0.0000 0.0000 0.0000 0.0000 0.0000 31.8347
#
#
#
# Elastic Compliance Matrix: (Units=1/GPa)
#
#
# Indices 1 2 3 4 5 6 
#
# 1 0.025223 0.010665 -0.003874 0.000000 0.000000 0.000000
# 2 0.010665 0.028737 -0.009041 0.000000 0.000000 0.000000
# 3 -0.003874 -0.009041 0.007999 0.000000 0.000000 0.000000
# 4 0.000000 0.000000 0.000000 0.028100 0.000000 0.000000
# 5 0.000000 0.000000 0.000000 0.000000 0.035732 0.000000
# 6 0.000000 0.000000 0.000000 0.000000 0.000000 0.031412
#
#
# Mechanical properties :
#
#
# Convention : Reuss Voigt Hill
#
# Bulk Modulus (GPa) = 17.40430 44.15821 30.78125
# Shear Modulus (GPa) = 27.64619 35.94150 31.79384
#
# Velocity S-wave (km/s) = 3.25432 3.71057 3.48991
# Velocity P-wave (km/s) = 4.55939 5.93917 5.29442
#
# Compressibility (1/GPa) = 0.05745706
#
# Stress axis : x y z
#
# Youngs Moduli (GPa) = 39.64708 34.79830 125.01892
#
# Poissons Ratio (x) = -0.37112 0.48436
# Poissons Ratio (y) = -0.42284 1.13034
# Poissons Ratio (z) = 0.15360 0.31462
#
# Static dielectric constant tensor:
#      x y z
#    x 2.113120 0.000000 0.000000 
#    y 0.000000 2.117110 0.000000 
#    z 0.000000 0.000000 1.972120 
# 
# From -- ./inp_files/32025.got.cif
#   From: 2010.05.17/outbox.cif.g08.bks.cpg/sg52_17_cif.got.tgz:32025.got - 2010.06.03 12:15:38.
