data_PCOD9412912
_publ_section_title
;
Structure prediction by ZEFSAII (Michael W. Deem and Ramdas Pophale) SiO2 
 PCOD9412912
Probable space group: P N N A
;
_chemical_formula_sum "Si O2"
_cell_formula_units_Z 40
_cell_length_a 8.760926
_cell_length_b 13.255630
_cell_length_c 13.877430
_cell_angle_alpha 90.000000
_cell_angle_beta 90.000000
_cell_angle_gamma 90.000000
_cell_volume 1611.608060
_symmetry_space_group_name_H-M "P N N A"
_symmetry_group_IT_number 52
_symmetry_cell_setting 'orthorhombic'
loop_
_space_group_symop_operation_xyz
x,y,z
1/2-x,-y,z
x,1/2-y,1/2-z
1/2-x,1/2+y,1/2-z
-x,-y,-z
1/2+x,y,-z
-x,1/2+y,1/2+z
1/2+x,1/2-y,1/2+z
loop_
_atom_site_type_symbol
_atom_site_label
_atom_site_fract_x
_atom_site_fract_y
_atom_site_fract_z
Si Si1 0.814507 0.387279 0.590314
Si Si2 0.539174 0.296151 0.655245
Si Si3 0.571278 0.488059 0.309314
Si Si4 0.180522 0.802057 0.522384
Si Si5 0.475378 0.575204 0.908899
O O1 0.750000 0.500000 0.574608
O O2 0.714747 0.326817 0.668968
O O3 0.777543 0.313247 0.501721
O O4 0.986015 0.402031 0.628320
O O5 0.468479 0.250000 0.750000
O O6 0.476589 0.407658 0.640939
O O7 0.480787 0.215636 0.577931
O O8 0.750000 0.500000 0.308088
O O9 0.522327 0.474713 0.196898
O O10 0.312352 0.865642 0.575871
O O11 0.122898 0.853692 0.424057
O O12 0.500000 0.500000 0.000000
#
# Coordination Sequence:
#
# PCOD9412912 Si02
#       5
#     8   8   8   8   8
#     4  10  26  47  72 104 142 193 247 307 372 455
#     4  11  24  45  69 103 146 195 247 306 376 450
#     4  11  26  44  72 107 147 189 247 316 374 440
#     4  12  26  46  74 106 151 198 251 306 381 456
#     4  12  26  46  73 111 151 199 249 312 377 451
#
# _framework density 24.819929999999999
#
# number of rings (size 3 to 8) (size 9 to 14) (size 15 to 20)
#    0.000    0.800    2.000    4.200    5.600    7.200 
#    0.000    0.000    0.000    0.000    0.000    0.000 
#    0.000    0.000    0.000    0.000    0.000    0.000 
#
# Total GULP energy -222913.320173 kJ/mol
# GULP energy per Si atom -5572.833004 kJ/mol
# Density = 2.476344 g / cm^3
# Si number density = 24.819930 Si / 1000 Ang^3
#
#
#
# Elastic Constant Matrix: (Units=GPa)
#
#
# Indices 1 2 3 4 5 6 
#
# 1 60.7191 20.1397 9.6675 0.0000 0.0000 0.0000
# 2 20.1397 113.9722 25.6477 0.0000 0.0000 0.0000
# 3 9.6675 25.6477 35.7614 0.0000 0.0000 0.0000
# 4 0.0000 0.0000 0.0000 43.6408 0.0000 0.0000
# 5 0.0000 0.0000 0.0000 0.0000 23.6294 0.0000
# 6 0.0000 0.0000 0.0000 0.0000 0.0000 24.6393
#
#
#
# Elastic Compliance Matrix: (Units=1/GPa)
#
#
# Indices 1 2 3 4 5 6 
#
# 1 0.017768 -0.002455 -0.003043 0.000000 0.000000 0.000000
# 2 -0.002455 0.010802 -0.007083 0.000000 0.000000 0.000000
# 3 -0.003043 -0.007083 0.033866 0.000000 0.000000 0.000000
# 4 0.000000 0.000000 0.000000 0.022914 0.000000 0.000000
# 5 0.000000 0.000000 0.000000 0.000000 0.042320 0.000000
# 6 0.000000 0.000000 0.000000 0.000000 0.000000 0.040586
#
#
# Mechanical properties :
#
#
# Convention : Reuss Voigt Hill
#
# Bulk Modulus (GPa) = 26.82850 35.70694 31.26772
# Shear Modulus (GPa) = 24.29046 28.71509 26.50277
#
# Velocity S-wave (km/s) = 3.13176 3.40507 3.27127
# Velocity P-wave (km/s) = 4.88978 5.46598 5.18589
#
# Compressibility (1/GPa) = 0.03727379
#
# Stress axis : x y z
#
# Youngs Moduli (GPa) = 56.28095 92.57640 29.52835
#
# Poissons Ratio (x) = 0.22728 0.08984
# Poissons Ratio (y) = 0.13817 0.20916
# Poissons Ratio (z) = 0.17124 0.65575
#
# Static dielectric constant tensor:
#      x y z
#    x 2.163020 0.000000 0.000000 
#    y 0.000000 2.102460 0.000000 
#    z 0.000000 0.000000 2.082350 
# 
# From -- ./inp_files/24415.got.cif
#   From: 2010.05.17/outbox.cif.g08.bks.cpg/sg52_13_cif.got.tgz:24415.got - 2010.06.03 12:15:38.
