data_PCOD9412976
_publ_section_title
;
Structure prediction by ZEFSAII (Michael W. Deem and Ramdas Pophale) SiO2 
 PCOD9412976
Probable space group: P N N A
;
_chemical_formula_sum "Si O2"
_cell_formula_units_Z 48
_cell_length_a 16.349256
_cell_length_b 9.657827
_cell_length_c 15.264014
_cell_angle_alpha 90.000000
_cell_angle_beta 90.000000
_cell_angle_gamma 90.000000
_cell_volume 2410.161648
_symmetry_space_group_name_H-M "P N N A"
_symmetry_group_IT_number 52
_symmetry_cell_setting 'orthorhombic'
loop_
_space_group_symop_operation_xyz
x,y,z
1/2-x,-y,z
x,1/2-y,1/2-z
1/2-x,1/2+y,1/2-z
-x,-y,-z
1/2+x,y,-z
-x,1/2+y,1/2+z
1/2+x,1/2-y,1/2+z
loop_
_atom_site_type_symbol
_atom_site_label
_atom_site_fract_x
_atom_site_fract_y
_atom_site_fract_z
Si Si1 0.193481 0.727519 0.437932
Si Si2 0.336392 0.451524 0.910779
Si Si3 0.569491 0.850893 0.673108
Si Si4 0.440937 0.793831 0.521461
Si Si5 0.500250 0.643083 0.172339
Si Si6 0.830930 0.944985 0.999938
O O1 0.160847 0.809123 0.354811
O O2 0.140891 0.585965 0.453777
O O3 0.284547 0.663294 0.434950
O O4 0.183549 0.828768 0.520751
O O5 0.250000 0.500000 0.871757
O O6 0.405787 0.404166 0.843311
O O7 0.376978 0.581081 0.962358
O O8 0.541671 0.750000 0.750000
O O9 0.515599 0.824826 0.586090
O O10 0.554360 0.009546 0.694875
O O11 0.471140 0.798340 0.421667
O O12 0.399298 0.646942 0.543847
O O13 0.494908 0.750000 0.250000
O O14 0.750000 0.000000 0.053362
#
# Coordination Sequence:
#
# PCOD9412976 Si02
#       6
#     8   8   8   8   8   8
#     4   9  18  37  58  87 119 151 201 250 304 369
#     4  11  18  39  69  84 118 168 209 250 309 376
#     4  11  23  39  61  90 122 162 204 256 316 371
#     4  11  20  39  65  86 122 159 206 252 312 371
#     4  11  25  39  60  96 123 160 212 256 311 372
#     4   8  20  33  59  93 115 154 205 247 308 366
#
# _framework density 19.915678
#
# number of rings (size 3 to 8) (size 9 to 14) (size 15 to 20)
#    1.000    0.667    5.000    1.000    2.333    2.000 
#    0.000    4.167    7.333    0.000    0.000    0.000 
#    0.000    0.000    0.000    0.000    0.000    0.000 
#
# Total GULP energy -267376.935156 kJ/mol
# GULP energy per Si atom -5570.352816 kJ/mol
# Density = 1.987035 g / cm^3
# Si number density = 19.915678 Si / 1000 Ang^3
#
#
#
# Elastic Constant Matrix: (Units=GPa)
#
#
# Indices 1 2 3 4 5 6 
#
# 1 41.9145 13.5808 -12.6691 0.0000 0.0000 0.0000
# 2 13.5808 107.4383 31.4194 0.0000 0.0000 0.0000
# 3 -12.6691 31.4194 59.2751 0.0000 0.0000 0.0000
# 4 0.0000 0.0000 0.0000 27.9460 0.0000 0.0000
# 5 0.0000 0.0000 0.0000 0.0000 2.3071 0.0000
# 6 0.0000 0.0000 0.0000 0.0000 0.0000 29.4984
#
#
#
# Elastic Compliance Matrix: (Units=1/GPa)
#
#
# Indices 1 2 3 4 5 6 
#
# 1 0.028844 -0.006449 0.009583 0.000000 0.000000 0.000000
# 2 -0.006449 0.012457 -0.007981 0.000000 0.000000 0.000000
# 3 0.009583 -0.007981 0.023149 0.000000 0.000000 0.000000
# 4 0.000000 0.000000 0.000000 0.035783 0.000000 0.000000
# 5 0.000000 0.000000 0.000000 0.000000 0.433442 0.000000
# 6 0.000000 0.000000 0.000000 0.000000 0.000000 0.033900
#
#
# Mechanical properties :
#
#
# Convention : Reuss Voigt Hill
#
# Bulk Modulus (GPa) = 18.26254 30.36556 24.31405
# Shear Modulus (GPa) = 8.39601 23.70345 16.04973
#
# Velocity S-wave (km/s) = 2.05546 3.45366 2.84189
# Velocity P-wave (km/s) = 3.85008 5.58425 4.79619
#
# Compressibility (1/GPa) = 0.05475689
#
# Stress axis : x y z
#
# Youngs Moduli (GPa) = 34.66920 80.27744 43.19802
#
# Poissons Ratio (x) = 0.51767 -0.41397
# Poissons Ratio (y) = 0.22357 0.34477
# Poissons Ratio (z) = -0.33224 0.64070
#
# Static dielectric constant tensor:
#      x y z
#    x 1.767610 0.000000 0.000000 
#    y 0.000000 1.735990 0.000000 
#    z 0.000000 0.000000 1.676100 
# 
# From -- ./inp_files/28073.got.cif
#   From: 2010.05.17/outbox.cif.g08.bks.cpg/sg52_15_cif.got.tgz:28073.got - 2010.06.03 12:15:38.
