data_PCOD9412608
_publ_section_title
;
Structure prediction by ZEFSAII (Michael W. Deem and Ramdas Pophale) SiO2 
 PCOD9412608
Probable space group: P N N A
;
_chemical_formula_sum "Si O2"
_cell_formula_units_Z 24
_cell_length_a 5.318294
_cell_length_b 14.247541
_cell_length_c 14.094511
_cell_angle_alpha 90.000000
_cell_angle_beta 90.000000
_cell_angle_gamma 90.000000
_cell_volume 1067.977911
_symmetry_space_group_name_H-M "P N N A"
_symmetry_group_IT_number 52
_symmetry_cell_setting 'orthorhombic'
loop_
_space_group_symop_operation_xyz
x,y,z
1/2-x,-y,z
x,1/2-y,1/2-z
1/2-x,1/2+y,1/2-z
-x,-y,-z
1/2+x,y,-z
-x,1/2+y,1/2+z
1/2+x,1/2-y,1/2+z
loop_
_atom_site_type_symbol
_atom_site_label
_atom_site_fract_x
_atom_site_fract_y
_atom_site_fract_z
Si Si1 0.602786 0.201392 0.049591
Si Si2 0.811536 0.250000 0.250000
Si Si3 0.498000 0.448534 0.776265
Si Si4 0.250000 0.500000 0.587767
O O1 0.641428 0.218742 0.161190
O O2 0.625517 0.088467 0.037168
O O3 0.343838 0.238490 0.007814
O O4 0.976664 0.337170 0.213136
O O5 0.750000 0.500000 0.807316
O O6 0.459767 0.462841 0.662923
O O7 0.250000 0.500000 0.817966
#
# Coordination Sequence:
#
# PCOD9412608 Si02
#       4
#     8   4   8   4
#     4  11  24  37  61  94 123 162 206 255 318 378
#     4  10  24  42  66  88 136 168 202 266 312 376
#     4   9  20  35  60  92 118 169 201 246 314 377
#     4   8  20  34  60  88 130 144 196 262 336 372
#
# _framework density 22.472373999999999
#
# number of rings (size 3 to 8) (size 9 to 14) (size 15 to 20)
#    1.000    1.333    0.000    1.000    9.333    5.333 
#    0.000    0.000    0.000    6.000    0.000    0.000 
#    0.000    0.000    0.000    0.000    0.000    0.000 
#
# Total GULP energy -133931.487679 kJ/mol
# GULP energy per Si atom -5580.478653 kJ/mol
# Density = 2.242123 g / cm^3
# Si number density = 22.472374 Si / 1000 Ang^3
#
#
#
# Elastic Constant Matrix: (Units=GPa)
#
#
# Indices 1 2 3 4 5 6 
#
# 1 114.0283 42.6486 13.0976 0.0000 0.0000 0.0000
# 2 42.6486 117.7338 -2.4767 0.0000 0.0000 0.0000
# 3 13.0976 -2.4767 82.5981 0.0000 0.0000 0.0000
# 4 0.0000 0.0000 0.0000 27.2959 0.0000 0.0000
# 5 0.0000 0.0000 0.0000 0.0000 17.7798 0.0000
# 6 0.0000 0.0000 0.0000 0.0000 0.0000 16.0199
#
#
#
# Elastic Compliance Matrix: (Units=1/GPa)
#
#
# Indices 1 2 3 4 5 6 
#
# 1 0.010394 -0.003802 -0.001762 0.000000 0.000000 0.000000
# 2 -0.003802 0.009890 0.000899 0.000000 0.000000 0.000000
# 3 -0.001762 0.000899 0.012413 0.000000 0.000000 0.000000
# 4 0.000000 0.000000 0.000000 0.036636 0.000000 0.000000
# 5 0.000000 0.000000 0.000000 0.000000 0.056244 0.000000
# 6 0.000000 0.000000 0.000000 0.000000 0.000000 0.062422
#
#
# Mechanical properties :
#
#
# Convention : Reuss Voigt Hill
#
# Bulk Modulus (GPa) = 42.79474 46.76658 44.78066
# Shear Modulus (GPa) = 24.37616 29.62517 27.00066
#
# Velocity S-wave (km/s) = 3.29708 3.63477 3.47003
# Velocity P-wave (km/s) = 5.79473 6.20252 6.00209
#
# Compressibility (1/GPa) = 0.02336736
#
# Stress axis : x y z
#
# Youngs Moduli (GPa) = 96.20633 101.11165 80.55925
#
# Poissons Ratio (x) = 0.38446 0.14196
# Poissons Ratio (y) = 0.36581 -0.07246
# Poissons Ratio (z) = 0.16954 -0.09095
#
# Static dielectric constant tensor:
#      x y z
#    x 1.882400 0.000000 0.000000 
#    y 0.000000 1.925240 0.000000 
#    z 0.000000 0.000000 1.796480 
# 
# From -- ./inp_files/23371.got.cif
#   From: 2010.05.17/outbox.cif.g08.bks.cpg/sg52_12_cif.got.tgz:23371.got - 2010.06.03 12:15:38.
