data_PCOD9412908
_publ_section_title
;
Structure prediction by ZEFSAII (Michael W. Deem and Ramdas Pophale) SiO2 
 PCOD9412908
Probable space group: P N N A
;
_chemical_formula_sum "Si O2"
_cell_formula_units_Z 36
_cell_length_a 23.796428
_cell_length_b 5.746963
_cell_length_c 10.578707
_cell_angle_alpha 90.000000
_cell_angle_beta 90.000000
_cell_angle_gamma 90.000000
_cell_volume 1446.714256
_symmetry_space_group_name_H-M "P N N A"
_symmetry_group_IT_number 52
_symmetry_cell_setting 'orthorhombic'
loop_
_space_group_symop_operation_xyz
x,y,z
1/2-x,-y,z
x,1/2-y,1/2-z
1/2-x,1/2+y,1/2-z
-x,-y,-z
1/2+x,y,-z
-x,1/2+y,1/2+z
1/2+x,1/2-y,1/2+z
loop_
_atom_site_type_symbol
_atom_site_label
_atom_site_fract_x
_atom_site_fract_y
_atom_site_fract_z
Si Si1 0.750000 0.500000 0.326234
Si Si2 0.448251 0.750000 0.250000
Si Si3 0.460060 0.187797 0.935222
Si Si4 0.750000 0.000000 0.678047
Si Si5 0.624487 0.508458 0.906189
Si Si6 0.866559 0.622842 0.382030
O O1 0.755543 0.250000 0.250000
O O2 0.806398 0.509371 0.408456
O O3 0.493352 0.673981 0.142797
O O4 0.402702 0.544146 0.231175
O O5 0.417244 0.046361 0.848696
O O6 0.415903 0.305787 0.028189
O O7 0.500000 0.000000 0.000000
O O8 0.759157 0.750000 0.750000
O O9 0.691195 0.955578 0.604243
O O10 0.617979 0.285775 0.000458
O O11 0.856991 0.750000 0.250000
#
# Coordination Sequence:
#
# PCOD9412908 Si02
#       6
#     4   4   8   4   8   8
#     4  10  26  46  76 110 158 208 264 332 400 484
#     4  12  26  52  72 114 162 208 278 332 420 494
#     4  12  28  45  79 110 158 212 271 339 409 495
#     4  12  32  56  90 124 172 218 280 350 420 506
#     4  12  29  51  81 119 161 217 276 344 418 500
#     4  11  27  48  77 114 158 212 270 338 413 490
#
# _framework density 24.883973999999998
#
# number of rings (size 3 to 8) (size 9 to 14) (size 15 to 20)
#    0.000    0.444    3.333    2.000   20.222    0.889 
#    0.000    0.000    0.000    0.000    0.000    0.000 
#    0.000    0.000    0.000    0.000    0.000    0.000 
#
# Total GULP energy -200551.690467 kJ/mol
# GULP energy per Si atom -5570.880291 kJ/mol
# Density = 2.482734 g / cm^3
# Si number density = 24.883974 Si / 1000 Ang^3
#
#
#
# Elastic Constant Matrix: (Units=GPa)
#
#
# Indices 1 2 3 4 5 6 
#
# 1 262.4768 51.0607 37.6743 0.0000 0.0000 0.0000
# 2 51.0607 95.8356 25.6281 0.0000 0.0000 0.0000
# 3 37.6743 25.6281 58.4563 0.0000 0.0000 0.0000
# 4 0.0000 0.0000 0.0000 37.9949 0.0000 0.0000
# 5 0.0000 0.0000 0.0000 0.0000 79.0357 0.0000
# 6 0.0000 0.0000 0.0000 0.0000 0.0000 50.8946
#
#
#
# Elastic Compliance Matrix: (Units=1/GPa)
#
#
# Indices 1 2 3 4 5 6 
#
# 1 0.004462 -0.001822 -0.002077 0.000000 0.000000 0.000000
# 2 -0.001822 0.012564 -0.004334 0.000000 0.000000 0.000000
# 3 -0.002077 -0.004334 0.020346 0.000000 0.000000 0.000000
# 4 0.000000 0.000000 0.000000 0.026319 0.000000 0.000000
# 5 0.000000 0.000000 0.000000 0.000000 0.012653 0.000000
# 6 0.000000 0.000000 0.000000 0.000000 0.000000 0.019648
#
#
# Mechanical properties :
#
#
# Convention : Reuss Voigt Hill
#
# Bulk Modulus (GPa) = 47.83373 71.72167 59.77770
# Shear Modulus (GPa) = 41.86621 53.74540 47.80581
#
# Velocity S-wave (km/s) = 4.10623 4.65245 4.38785
# Velocity P-wave (km/s) = 6.46111 7.59904 7.05306
#
# Compressibility (1/GPa) = 0.02090575
#
# Stress axis : x y z
#
# Youngs Moduli (GPa) = 224.09130 79.59023 49.15058
#
# Poissons Ratio (x) = 0.14502 0.10209
# Poissons Ratio (y) = 0.40832 0.21302
# Poissons Ratio (z) = 0.46547 0.34495
#
# Static dielectric constant tensor:
#      x y z
#    x 1.872330 0.000000 0.000000 
#    y 0.000000 1.984910 0.000000 
#    z 0.000000 0.000000 2.068670 
# 
# From -- ./inp_files/22136.got.cif
#   From: 2010.05.17/outbox.cif.g08.bks.cpg/sg52_12_cif.got.tgz:22136.got - 2010.06.03 12:15:38.
