data_PCOD9412062
_publ_section_title
;
Structure prediction by ZEFSAII (Michael W. Deem and Ramdas Pophale) SiO2 
 PCOD9412062
Probable space group: P N N A
;
_chemical_formula_sum "Si O2"
_cell_formula_units_Z 36
_cell_length_a 18.400068
_cell_length_b 9.387237
_cell_length_c 9.491255
_cell_angle_alpha 90.000000
_cell_angle_beta 90.000000
_cell_angle_gamma 90.000000
_cell_volume 1639.384605
_symmetry_space_group_name_H-M "P N N A"
_symmetry_group_IT_number 52
_symmetry_cell_setting 'orthorhombic'
loop_
_space_group_symop_operation_xyz
x,y,z
1/2-x,-y,z
x,1/2-y,1/2-z
1/2-x,1/2+y,1/2-z
-x,-y,-z
1/2+x,y,-z
-x,1/2+y,1/2+z
1/2+x,1/2-y,1/2+z
loop_
_atom_site_type_symbol
_atom_site_label
_atom_site_fract_x
_atom_site_fract_y
_atom_site_fract_z
Si Si1 0.415335 0.422562 0.886556
Si Si2 0.456690 0.750000 0.250000
Si Si3 0.305793 0.247381 0.418342
Si Si4 0.673036 0.510381 0.366783
Si Si5 0.140371 0.276552 0.994742
O O1 0.493911 0.363907 0.837086
O O2 0.376249 0.404005 0.737190
O O3 0.371869 0.338281 0.008337
O O4 0.401645 0.586658 0.933123
O O5 0.401727 0.795031 0.126629
O O6 0.311549 0.250000 0.250000
O O7 0.313545 0.403578 0.489314
O O8 0.224717 0.191597 0.461514
O O9 0.750000 0.500000 0.291111
O O10 0.644373 0.352854 0.386633
#
# Coordination Sequence:
#
# PCOD9412062 Si02
#       5
#     8   4   8   8   8
#     4  12  24  46  71 101 142 186 234 293 355 419
#     4  12  26  46  64 108 150 184 230 302 346 436
#     4  11  23  43  74 105 135 184 238 296 348 423
#     4  10  22  43  70 104 136 177 241 295 340 422
#     4  11  25  42  73 101 142 187 236 285 365 416
#
# _framework density 21.95946
#
# number of rings (size 3 to 8) (size 9 to 14) (size 15 to 20)
#    0.000    0.889    3.333    3.333    3.111    6.222 
#    0.000    0.000    0.000    0.000    0.000    0.000 
#    0.000    0.000    0.000    0.000    0.000    0.000 
#
# Total GULP energy -200655.645972 kJ/mol
# GULP energy per Si atom -5573.767944 kJ/mol
# Density = 2.190948 g / cm^3
# Si number density = 21.959460 Si / 1000 Ang^3
#
#
#
# Elastic Constant Matrix: (Units=GPa)
#
#
# Indices 1 2 3 4 5 6 
#
# 1 82.8978 33.3215 42.3387 0.0000 0.0000 0.0000
# 2 33.3215 128.2509 33.3533 0.0000 0.0000 0.0000
# 3 42.3387 33.3533 136.7957 0.0000 0.0000 0.0000
# 4 0.0000 0.0000 0.0000 -16.0487 0.0000 0.0000
# 5 0.0000 0.0000 0.0000 0.0000 179.8363 0.0000
# 6 0.0000 0.0000 0.0000 0.0000 0.0000 23.7889
#
#
#
# Elastic Compliance Matrix: (Units=1/GPa)
#
#
# Indices 1 2 3 4 5 6 
#
# 1 0.015293 -0.002928 -0.004019 0.000000 0.000000 0.000000
# 2 -0.002928 0.008886 -0.001260 0.000000 0.000000 0.000000
# 3 -0.004019 -0.001260 0.008861 0.000000 0.000000 0.000000
# 4 0.000000 0.000000 0.000000 -0.062310 0.000000 0.000000
# 5 0.000000 0.000000 0.000000 0.000000 0.005561 0.000000
# 6 0.000000 0.000000 0.000000 0.000000 0.000000 0.042036
#
#
# Mechanical properties :
#
#
# Convention : Reuss Voigt Hill
#
# Bulk Modulus (GPa) = 60.15108 62.88568 61.51838
# Shear Modulus (GPa) = 124.12123 53.44404 88.78263
#
# Velocity S-wave (km/s) = 7.52633 4.93867 6.36538
# Velocity P-wave (km/s) = 10.14785 7.82432 9.06087
#
# Compressibility (1/GPa) = 0.01662481
#
# Stress axis : x y z
#
# Youngs Moduli (GPa) = 65.39043 112.54025 112.84877
#
# Poissons Ratio (x) = 0.32952 0.45357
# Poissons Ratio (y) = 0.19147 0.14222
# Poissons Ratio (z) = 0.26282 0.14183
#
# Static dielectric constant tensor:
#      x y z
#    x 2.136040 0.000000 0.000000 
#    y 0.000000 1.876240 0.000000 
#    z 0.000000 0.000000 1.870240 
# 
# From -- ./inp_files/12926.got.cif
#   From: 2010.05.17/outbox.cif.g08.bks.cpg/sg52_7_cif.got.tgz:12926.got - 2010.06.03 12:15:38.
