data_PCOD9412707
_publ_section_title
;
Structure prediction by ZEFSAII (Michael W. Deem and Ramdas Pophale) SiO2 
 PCOD9412707
Probable space group: P N N A
;
_chemical_formula_sum "Si O2"
_cell_formula_units_Z 32
_cell_length_a 14.513767
_cell_length_b 14.825165
_cell_length_c 6.842275
_cell_angle_alpha 90.000000
_cell_angle_beta 90.000000
_cell_angle_gamma 90.000000
_cell_volume 1472.245405
_symmetry_space_group_name_H-M "P N N A"
_symmetry_group_IT_number 52
_symmetry_cell_setting 'orthorhombic'
loop_
_space_group_symop_operation_xyz
x,y,z
1/2-x,-y,z
x,1/2-y,1/2-z
1/2-x,1/2+y,1/2-z
-x,-y,-z
1/2+x,y,-z
-x,1/2+y,1/2+z
1/2+x,1/2-y,1/2+z
loop_
_atom_site_type_symbol
_atom_site_label
_atom_site_fract_x
_atom_site_fract_y
_atom_site_fract_z
Si Si1 0.544002 0.597143 0.469034
Si Si2 0.807451 0.144381 0.315037
Si Si3 0.146285 0.326582 0.582553
Si Si4 0.278763 0.394033 0.266013
O O1 0.500000 0.500000 0.500000
O O2 0.597863 0.602419 0.263842
O O3 0.456884 0.659701 0.508290
O O4 0.624217 0.615564 0.624327
O O5 0.815685 0.250000 0.250000
O O6 0.715189 0.106569 0.206772
O O7 0.791428 0.134044 0.542692
O O8 0.137630 0.250000 0.750000
O O9 0.205574 0.332387 0.382510
O O10 0.250000 0.500000 0.274476
#
# Coordination Sequence:
#
# PCOD9412707 Si02
#       4
#     8   8   8   8
#     4  11  24  43  70 105 139 177 240 291 351 425
#     4  10  26  45  67 100 144 188 235 290 353 417
#     4  10  24  45  69 102 140 183 234 293 358 421
#     4  11  24  44  72 101 143 186 232 291 359 422
#
# _framework density 21.735505
#
# number of rings (size 3 to 8) (size 9 to 14) (size 15 to 20)
#    0.000    1.500    2.500    0.000    7.000   11.000 
#    4.500    0.000    0.000    0.000    0.000    0.000 
#    0.000    0.000    0.000    0.000    0.000    0.000 
#
# Total GULP energy -178216.620906 kJ/mol
# GULP energy per Si atom -5569.269403 kJ/mol
# Density = 2.168603 g / cm^3
# Si number density = 21.735505 Si / 1000 Ang^3
#
#
#
# Elastic Constant Matrix: (Units=GPa)
#
#
# Indices 1 2 3 4 5 6 
#
# 1 223.1148 36.9763 98.7897 0.0000 0.0000 0.0000
# 2 36.9763 68.3194 47.6597 0.0000 0.0000 0.0000
# 3 98.7897 47.6597 230.5082 0.0000 0.0000 0.0000
# 4 0.0000 0.0000 0.0000 21.7205 0.0000 0.0000
# 5 0.0000 0.0000 0.0000 0.0000 29.6269 0.0000
# 6 0.0000 0.0000 0.0000 0.0000 0.0000 14.9414
#
#
#
# Elastic Compliance Matrix: (Units=1/GPa)
#
#
# Indices 1 2 3 4 5 6 
#
# 1 0.005679 -0.001608 -0.002101 0.000000 0.000000 0.000000
# 2 -0.001608 0.017559 -0.002942 0.000000 0.000000 0.000000
# 3 -0.002101 -0.002942 0.005847 0.000000 0.000000 0.000000
# 4 0.000000 0.000000 0.000000 0.046039 0.000000 0.000000
# 5 0.000000 0.000000 0.000000 0.000000 0.033753 0.000000
# 6 0.000000 0.000000 0.000000 0.000000 0.000000 0.066928
#
#
# Mechanical properties :
#
#
# Convention : Reuss Voigt Hill
#
# Bulk Modulus (GPa) = 63.35530 98.75485 81.05507
# Shear Modulus (GPa) = 25.72434 35.82554 30.77494
#
# Velocity S-wave (km/s) = 3.44396 4.06427 3.76690
# Velocity P-wave (km/s) = 6.71015 8.21936 7.50280
#
# Compressibility (1/GPa) = 0.01578400
#
# Stress axis : x y z
#
# Youngs Moduli (GPa) = 176.09093 56.95003 171.02634
#
# Poissons Ratio (x) = 0.09155 0.35940
# Poissons Ratio (y) = 0.28308 0.50308
# Poissons Ratio (z) = 0.37004 0.16752
#
# Static dielectric constant tensor:
#      x y z
#    x 1.240400 0.000000 0.000000 
#    y 0.000000 1.955590 0.000000 
#    z 0.000000 0.000000 1.804300 
# 
# From -- ./inp_files/1906.got.cif
#   From: 2010.05.17/outbox.cif.g08.bks.cpg/sg52_1_cif.got.tgz:1906.got - 2010.06.03 12:15:38.
