data_PCOD9412941
_publ_section_title
;
Structure prediction by ZEFSAII (Michael W. Deem and Ramdas Pophale) SiO2 
 PCOD9412941
Probable space group: P N N A
;
_chemical_formula_sum "Si O2"
_cell_formula_units_Z 32
_cell_length_a 9.362485
_cell_length_b 23.021690
_cell_length_c 6.396609
_cell_angle_alpha 90.000000
_cell_angle_beta 90.000000
_cell_angle_gamma 90.000000
_cell_volume 1378.726558
_symmetry_space_group_name_H-M "P N N A"
_symmetry_group_IT_number 52
_symmetry_cell_setting 'orthorhombic'
loop_
_space_group_symop_operation_xyz
x,y,z
1/2-x,-y,z
x,1/2-y,1/2-z
1/2-x,1/2+y,1/2-z
-x,-y,-z
1/2+x,y,-z
-x,1/2+y,1/2+z
1/2+x,1/2-y,1/2+z
loop_
_atom_site_type_symbol
_atom_site_label
_atom_site_fract_x
_atom_site_fract_y
_atom_site_fract_z
Si Si1 0.923716 0.941312 0.579659
Si Si2 0.473329 0.250000 0.750000
Si Si3 0.796599 0.717493 0.441659
Si Si4 0.691019 0.598194 0.254623
Si Si5 0.750000 0.500000 0.559698
O O1 0.813921 0.919978 0.406295
O O2 0.045333 0.894469 0.627028
O O3 0.842172 0.959653 0.788806
O O4 0.000000 0.000000 0.500000
O O5 0.593733 0.288753 0.631556
O O6 0.351651 0.243856 0.563828
O O7 0.876436 0.750000 0.250000
O O8 0.739374 0.654562 0.377791
O O9 0.665985 0.544208 0.410693
#
# Coordination Sequence:
#
# PCOD9412941 Si02
#       5
#     8   4   8   8   4
#     4  12  24  47  66 106 147 190 240 300 347 447
#     4  10  26  52  72 108 144 186 250 302 378 438
#     4  10  28  47  76 105 145 191 247 309 368 444
#     4  12  27  43  73 105 145 191 241 298 368 431
#     4  12  24  40  70 102 146 184 244 282 372 418
#
# _framework density 23.209824000000001
#
# number of rings (size 3 to 8) (size 9 to 14) (size 15 to 20)
#    0.750    0.000    5.000    0.750    8.750    0.000 
#    0.000    0.000    0.000    0.000    0.000    0.000 
#    0.000    0.000    0.000    0.000    0.000    0.000 
#
# Total GULP energy -178241.526520 kJ/mol
# GULP energy per Si atom -5570.047704 kJ/mol
# Density = 2.315700 g / cm^3
# Si number density = 23.209824 Si / 1000 Ang^3
#
#
#
# Elastic Constant Matrix: (Units=GPa)
#
#
# Indices 1 2 3 4 5 6 
#
# 1 153.7544 14.1095 51.5974 0.0000 0.0000 0.0000
# 2 14.1095 73.5033 29.7548 0.0000 0.0000 0.0000
# 3 51.5974 29.7548 65.7850 0.0000 0.0000 0.0000
# 4 0.0000 0.0000 0.0000 39.1598 0.0000 0.0000
# 5 0.0000 0.0000 0.0000 0.0000 39.5407 0.0000
# 6 0.0000 0.0000 0.0000 0.0000 0.0000 29.3763
#
#
#
# Elastic Compliance Matrix: (Units=1/GPa)
#
#
# Indices 1 2 3 4 5 6 
#
# 1 0.008939 0.001374 -0.007633 0.000000 0.000000 0.000000
# 2 0.001374 0.016865 -0.008706 0.000000 0.000000 0.000000
# 3 -0.007633 -0.008706 0.025125 0.000000 0.000000 0.000000
# 4 0.000000 0.000000 0.000000 0.025536 0.000000 0.000000
# 5 0.000000 0.000000 0.000000 0.000000 0.025290 0.000000
# 6 0.000000 0.000000 0.000000 0.000000 0.000000 0.034041
#
#
# Mechanical properties :
#
#
# Convention : Reuss Voigt Hill
#
# Bulk Modulus (GPa) = 47.61798 53.77401 50.69600
# Shear Modulus (GPa) = 28.94740 34.78743 31.86741
#
# Velocity S-wave (km/s) = 3.53541 3.87566 3.70944
# Velocity P-wave (km/s) = 6.10134 6.57622 6.34322
#
# Compressibility (1/GPa) = 0.02100047
#
# Stress axis : x y z
#
# Youngs Moduli (GPa) = 111.86662 59.29336 39.80053
#
# Poissons Ratio (x) = -0.08146 0.30379
# Poissons Ratio (y) = -0.15369 0.34650
# Poissons Ratio (z) = 0.85385 0.51620
#
# Static dielectric constant tensor:
#      x y z
#    x 1.914450 0.000000 0.000000 
#    y 0.000000 1.959300 0.000000 
#    z 0.000000 0.000000 1.898180 
# 
# From -- ./inp_files/413.got.cif
#   From: 2010.05.17/outbox.cif.g08.bks.cpg/sg52_1_cif.got.tgz:413.got - 2010.06.03 12:15:38.
