data_PCOD9412851
_publ_section_title
;
Structure prediction by ZEFSAII (Michael W. Deem and Ramdas Pophale) SiO2 
 PCOD9412851
Probable space group: P N N A
;
_chemical_formula_sum "Si O2"
_cell_formula_units_Z 32
_cell_length_a 29.124592
_cell_length_b 5.046849
_cell_length_c 9.036517
_cell_angle_alpha 90.000000
_cell_angle_beta 90.000000
_cell_angle_gamma 90.000000
_cell_volume 1328.254302
_symmetry_space_group_name_H-M "P N N A"
_symmetry_group_IT_number 52
_symmetry_cell_setting 'orthorhombic'
loop_
_space_group_symop_operation_xyz
x,y,z
1/2-x,-y,z
x,1/2-y,1/2-z
1/2-x,1/2+y,1/2-z
-x,-y,-z
1/2+x,y,-z
-x,1/2+y,1/2+z
1/2+x,1/2-y,1/2+z
loop_
_atom_site_type_symbol
_atom_site_label
_atom_site_fract_x
_atom_site_fract_y
_atom_site_fract_z
Si Si1 0.086417 0.498580 0.352571
Si Si2 0.632245 0.673330 0.081284
Si Si3 0.217356 0.741664 0.091404
Si Si4 0.039248 0.322385 0.924595
O O1 0.097924 0.250000 0.250000
O O2 0.124141 0.579136 0.471760
O O3 0.045156 0.419612 0.461031
O O4 0.076453 0.750000 0.250000
O O5 0.630195 0.750000 0.250000
O O6 0.588947 0.475196 0.062220
O O7 0.684230 0.619503 0.034761
O O8 0.250000 0.500000 0.127026
O O9 0.190304 0.750000 0.250000
O O10 0.250000 0.000000 0.056889
O O11 0.033052 0.250000 0.750000
O O12 0.000000 0.500000 0.000000
#
# Coordination Sequence:
#
# PCOD9412851 Si02
#       4
#     8   8   8   8
#     4  12  27  50  80 116 154 213 269 329 404 482
#     4  12  27  50  81 117 165 213 270 342 408 489
#     4  10  25  46  77 117 158 206 265 325 404 499
#     4  12  30  53  83 119 168 218 282 341 413 488
#
# _framework density 24.091771999999999
#
# number of rings (size 3 to 8) (size 9 to 14) (size 15 to 20)
#    0.000    0.500    5.000    0.750    7.000    4.000 
#    0.000    1.250    0.000    0.000    0.000    0.000 
#    0.000    0.000    0.000    0.000    0.000    0.000 
#
# Total GULP energy -178598.409927 kJ/mol
# GULP energy per Si atom -5581.200310 kJ/mol
# Density = 2.403694 g / cm^3
# Si number density = 24.091772 Si / 1000 Ang^3
#
#
#
# Elastic Constant Matrix: (Units=GPa)
#
#
# Indices 1 2 3 4 5 6 
#
# 1 73.8283 1.9712 41.3178 0.0000 0.0000 0.0000
# 2 1.9712 103.1673 63.9529 0.0000 0.0000 0.0000
# 3 41.3178 63.9529 226.9279 0.0000 0.0000 0.0000
# 4 0.0000 0.0000 0.0000 45.0576 0.0000 0.0000
# 5 0.0000 0.0000 0.0000 0.0000 48.9554 0.0000
# 6 0.0000 0.0000 0.0000 0.0000 0.0000 34.4215
#
#
#
# Elastic Compliance Matrix: (Units=1/GPa)
#
#
# Indices 1 2 3 4 5 6 
#
# 1 0.015336 0.001742 -0.003283 0.000000 0.000000 0.000000
# 2 0.001742 0.011943 -0.003683 0.000000 0.000000 0.000000
# 3 -0.003283 -0.003683 0.006042 0.000000 0.000000 0.000000
# 4 0.000000 0.000000 0.000000 0.022194 0.000000 0.000000
# 5 0.000000 0.000000 0.000000 0.000000 0.020427 0.000000
# 6 0.000000 0.000000 0.000000 0.000000 0.000000 0.029052
#
#
# Mechanical properties :
#
#
# Convention : Reuss Voigt Hill
#
# Bulk Modulus (GPa) = 43.71936 68.71193 56.21565
# Shear Modulus (GPa) = 40.62878 45.46568 43.04723
#
# Velocity S-wave (km/s) = 4.11106 4.34889 4.23164
# Velocity P-wave (km/s) = 6.38128 7.33484 6.87462
#
# Compressibility (1/GPa) = 0.02287316
#
# Stress axis : x y z
#
# Youngs Moduli (GPa) = 65.20647 83.73295 165.49684
#
# Poissons Ratio (x) = -0.14589 0.54337
# Poissons Ratio (y) = -0.11361 0.60951
# Poissons Ratio (z) = 0.21409 0.30838
#
# Static dielectric constant tensor:
#      x y z
#    x 2.058270 0.000000 0.000000 
#    y 0.000000 2.128190 0.000000 
#    z 0.000000 0.000000 1.954670 
# 
# From -- ./inp_files/15165.got.cif
#   From: 2010.05.17/outbox.cif.g08.bks.cpg/sg52_8_cif.got.tgz:15165.got - 2010.06.03 12:15:38.
