data_PCOD9412342
_publ_section_title
;
Structure prediction by ZEFSAII (Michael W. Deem and Ramdas Pophale) SiO2 
 PCOD9412342
Probable space group: P N N A
;
_chemical_formula_sum "Si O2"
_cell_formula_units_Z 56
_cell_length_a 10.897019
_cell_length_b 22.057985
_cell_length_c 11.257455
_cell_angle_alpha 90.000000
_cell_angle_beta 90.000000
_cell_angle_gamma 90.000000
_cell_volume 2705.912599
_symmetry_space_group_name_H-M "P N N A"
_symmetry_group_IT_number 52
_symmetry_cell_setting 'orthorhombic'
loop_
_space_group_symop_operation_xyz
x,y,z
1/2-x,-y,z
x,1/2-y,1/2-z
1/2-x,1/2+y,1/2-z
-x,-y,-z
1/2+x,y,-z
-x,1/2+y,1/2+z
1/2+x,1/2-y,1/2+z
loop_
_atom_site_type_symbol
_atom_site_label
_atom_site_fract_x
_atom_site_fract_y
_atom_site_fract_z
Si Si1 0.592818 0.653377 0.906907
Si Si2 0.871515 0.820178 0.272637
Si Si3 0.250000 0.500000 0.707878
Si Si4 0.373630 0.385178 0.822803
Si Si5 0.601907 0.359745 0.659001
Si Si6 0.255061 0.750000 0.250000
Si Si7 0.825127 0.442441 0.725069
Si Si8 0.452001 0.916814 0.911858
O O1 0.448409 0.668079 0.892599
O O2 0.670945 0.706402 0.836517
O O3 0.616145 0.591250 0.836028
O O4 0.624659 0.637435 0.041483
O O5 0.874071 0.750000 0.250000
O O6 0.734120 0.844348 0.267330
O O7 0.944972 0.858274 0.174224
O O8 0.329848 0.453956 0.790656
O O9 0.337257 0.541108 0.624504
O O10 0.504725 0.372443 0.763198
O O11 0.725876 0.397676 0.670983
O O12 0.654405 0.291589 0.669697
O O13 0.542347 0.386911 0.540313
O O14 0.750000 0.500000 0.764296
O O15 0.928245 0.454486 0.626403
#
# Coordination Sequence:
#
# PCOD9412342 Si02
#       8
#     8   8   4   8   8   4   8   8
#     4  10  23  45  69  98 134 182 228 285 351 418
#     4  10  23  44  65  96 132 181 227 280 354 408
#     4  10  24  48  66 112 144 182 232 296 346 410
#     4  11  26  42  71 103 135 180 235 284 351 409
#     4  11  26  43  68 105 136 183 233 283 351 414
#     4  10  24  48  68 102 142 178 230 292 354 418
#     4  10  23  42  67 100 133 185 231 281 351 410
#     4  10  24  44  70  99 143 181 230 290 350 414
#
# _framework density 20.695422000000001
#
# number of rings (size 3 to 8) (size 9 to 14) (size 15 to 20)
#    0.000    1.714    0.714    0.857   13.000    1.143 
#    0.000    2.857    0.000    0.000    0.000    0.000 
#    0.000    0.000    0.000    0.000    0.000    0.000 
#
# Total GULP energy -312385.013484 kJ/mol
# GULP energy per Si atom -5578.303812 kJ/mol
# Density = 2.064832 g / cm^3
# Si number density = 20.695422 Si / 1000 Ang^3
#
#
#
# Elastic Constant Matrix: (Units=GPa)
#
#
# Indices 1 2 3 4 5 6 
#
# 1 85.7932 15.9034 17.4057 0.0000 0.0000 0.0000
# 2 15.9034 119.2375 22.7602 0.0000 0.0000 0.0000
# 3 17.4057 22.7602 105.2462 0.0000 0.0000 0.0000
# 4 0.0000 0.0000 0.0000 18.2324 0.0000 0.0000
# 5 0.0000 0.0000 0.0000 0.0000 21.5963 0.0000
# 6 0.0000 0.0000 0.0000 0.0000 0.0000 -60.1124
#
#
#
# Elastic Compliance Matrix: (Units=1/GPa)
#
#
# Indices 1 2 3 4 5 6 
#
# 1 0.012251 -0.001301 -0.001745 0.000000 0.000000 0.000000
# 2 -0.001301 0.008886 -0.001706 0.000000 0.000000 0.000000
# 3 -0.001745 -0.001706 0.010159 0.000000 0.000000 0.000000
# 4 0.000000 0.000000 0.000000 0.054847 0.000000 0.000000
# 5 0.000000 0.000000 0.000000 0.000000 0.046304 0.000000
# 6 0.000000 0.000000 0.000000 0.000000 0.000000 -0.016636
#
#
# Mechanical properties :
#
#
# Convention : Reuss Voigt Hill
#
# Bulk Modulus (GPa) = 45.88906 46.93506 46.41206
# Shear Modulus (GPa) = 37.71295 12.89044 25.30169
#
# Velocity S-wave (km/s) = 4.27345 2.49843 3.50033
# Velocity P-wave (km/s) = 6.82433 5.57235 6.22987
#
# Compressibility (1/GPa) = 0.02179169
#
# Stress axis : x y z
#
# Youngs Moduli (GPa) = 81.62555 112.53821 98.43372
#
# Poissons Ratio (x) = 0.14641 0.17174
# Poissons Ratio (y) = 0.10619 0.16797
# Poissons Ratio (z) = 0.14242 0.19204
#
# Static dielectric constant tensor:
#      x y z
#    x 1.750010 0.000000 0.000000 
#    y 0.000000 1.927990 0.000000 
#    z 0.000000 0.000000 1.777050 
# 
# From -- ./inp_files/18373.got.cif
#   From: 2010.05.17/outbox.cif.g08.bks.cpg/sg52_10_cif.got.tgz:18373.got - 2010.06.03 12:15:38.
