data_PCOD9412779
_publ_section_title
;
Structure prediction by ZEFSAII (Michael W. Deem and Ramdas Pophale) SiO2 
 PCOD9412779
Probable space group: P N N A
;
_chemical_formula_sum "Si O2"
_cell_formula_units_Z 40
_cell_length_a 18.027896
_cell_length_b 17.279160
_cell_length_c 6.052436
_cell_angle_alpha 90.000000
_cell_angle_beta 90.000000
_cell_angle_gamma 90.000000
_cell_volume 1885.375572
_symmetry_space_group_name_H-M "P N N A"
_symmetry_group_IT_number 52
_symmetry_cell_setting 'orthorhombic'
loop_
_space_group_symop_operation_xyz
x,y,z
1/2-x,-y,z
x,1/2-y,1/2-z
1/2-x,1/2+y,1/2-z
-x,-y,-z
1/2+x,y,-z
-x,1/2+y,1/2+z
1/2+x,1/2-y,1/2+z
loop_
_atom_site_type_symbol
_atom_site_label
_atom_site_fract_x
_atom_site_fract_y
_atom_site_fract_z
Si Si1 0.863650 0.549819 0.535232
Si Si2 0.621332 0.324865 0.153016
Si Si3 0.250000 0.500000 0.111235
Si Si4 0.741721 0.750000 0.250000
Si Si5 0.846225 0.098413 0.262061
Si Si6 0.011494 0.077924 0.358989
O O1 0.856139 0.614280 0.344906
O O2 0.851283 0.466417 0.426233
O O3 0.945897 0.557788 0.633765
O O4 0.804319 0.550673 0.733791
O O5 0.579457 0.250000 0.250000
O O6 0.698586 0.285360 0.074649
O O7 0.568982 0.367174 0.984245
O O8 0.200004 0.555753 0.957261
O O9 0.692302 0.822797 0.185715
O O10 0.930682 0.114012 0.332374
O O11 0.000000 0.000000 0.500000
#
# Coordination Sequence:
#
# PCOD9412779 Si02
#       6
#     8   8   4   4   8   8
#     4  12  23  44  77 100 142 196 233 294 376 422
#     4  10  25  47  69 103 150 186 236 298 365 435
#     4  12  24  42  74 104 138 186 252 296 350 444
#     4  10  24  48  66  98 152 188 236 298 356 426
#     4  12  25  44  70 107 143 185 250 298 356 442
#     4  12  24  46  73 109 140 185 244 306 359 438
#
# _framework density 21.21593
#
# number of rings (size 3 to 8) (size 9 to 14) (size 15 to 20)
#    0.600    0.000    4.000    4.800    0.000    2.400 
#    0.000    3.000    0.000    0.000    0.000    0.000 
#    0.000    0.000    0.000    0.000    0.000    0.000 
#
# Total GULP energy -223385.921377 kJ/mol
# GULP energy per Si atom -5584.648034 kJ/mol
# Density = 2.116764 g / cm^3
# Si number density = 21.215930 Si / 1000 Ang^3
#
#
#
# Elastic Constant Matrix: (Units=GPa)
#
#
# Indices 1 2 3 4 5 6 
#
# 1 183.3087 75.0116 59.7785 0.0000 0.0000 0.0000
# 2 75.0116 165.8843 49.2443 0.0000 0.0000 0.0000
# 3 59.7785 49.2443 73.9013 0.0000 0.0000 0.0000
# 4 0.0000 0.0000 0.0000 19.2171 0.0000 0.0000
# 5 0.0000 0.0000 0.0000 0.0000 32.5719 0.0000
# 6 0.0000 0.0000 0.0000 0.0000 0.0000 40.9045
#
#
#
# Elastic Compliance Matrix: (Units=1/GPa)
#
#
# Indices 1 2 3 4 5 6 
#
# 1 0.007958 -0.002104 -0.005036 0.000000 0.000000 0.000000
# 2 -0.002104 0.008071 -0.003676 0.000000 0.000000 0.000000
# 3 -0.005036 -0.003676 0.020055 0.000000 0.000000 0.000000
# 4 0.000000 0.000000 0.000000 0.052037 0.000000 0.000000
# 5 0.000000 0.000000 0.000000 0.000000 0.030701 0.000000
# 6 0.000000 0.000000 0.000000 0.000000 0.000000 0.024447
#
#
# Mechanical properties :
#
#
# Convention : Reuss Voigt Hill
#
# Bulk Modulus (GPa) = 69.19272 87.90703 78.54988
# Shear Modulus (GPa) = 29.46057 34.47601 31.96829
#
# Velocity S-wave (km/s) = 3.73044 4.03551 3.88597
# Velocity P-wave (km/s) = 7.15816 7.95224 7.56563
#
# Compressibility (1/GPa) = 0.01445239
#
# Stress axis : x y z
#
# Youngs Moduli (GPa) = 125.65450 123.90042 49.86396
#
# Poissons Ratio (x) = 0.26067 0.25109
# Poissons Ratio (y) = 0.26436 0.18332
# Poissons Ratio (z) = 0.63274 0.45550
#
# Static dielectric constant tensor:
#      x y z
#    x 1.800660 0.000000 0.000000 
#    y 0.000000 1.766690 0.000000 
#    z 0.000000 0.000000 1.809720 
# 
# From -- ./inp_files/3254.got.cif
#   From: 2010.05.17/outbox.cif.g08.bks.cpg/sg52_2_cif.got.tgz:3254.got - 2010.06.03 12:15:38.
