data_PCOD9412575
_publ_section_title
;
Structure prediction by ZEFSAII (Michael W. Deem and Ramdas Pophale) SiO2 
 PCOD9412575
Probable space group: P N N A
;
_chemical_formula_sum "Si O2"
_cell_formula_units_Z 64
_cell_length_a 9.464699
_cell_length_b 13.180904
_cell_length_c 27.721853
_cell_angle_alpha 90.000000
_cell_angle_beta 90.000000
_cell_angle_gamma 90.000000
_cell_volume 3458.392336
_symmetry_space_group_name_H-M "P N N A"
_symmetry_group_IT_number 52
_symmetry_cell_setting 'orthorhombic'
loop_
_space_group_symop_operation_xyz
x,y,z
1/2-x,-y,z
x,1/2-y,1/2-z
1/2-x,1/2+y,1/2-z
-x,-y,-z
1/2+x,y,-z
-x,1/2+y,1/2+z
1/2+x,1/2-y,1/2+z
loop_
_atom_site_type_symbol
_atom_site_label
_atom_site_fract_x
_atom_site_fract_y
_atom_site_fract_z
Si Si1 0.397045 0.800180 0.199785
Si Si2 0.352253 0.412025 0.357145
Si Si3 0.739688 0.124402 0.444550
Si Si4 0.018486 0.793100 0.390237
Si Si5 0.082742 0.511006 0.712416
Si Si6 0.238752 0.119518 0.447943
Si Si7 0.006506 0.645898 0.880869
Si Si8 0.088675 0.043444 0.678149
O O1 0.353938 0.750000 0.250000
O O2 0.261497 0.857596 0.177890
O O3 0.452050 0.723870 0.158804
O O4 0.528313 0.873530 0.212743
O O5 0.250000 0.500000 0.380707
O O6 0.434532 0.324200 0.386776
O O7 0.478426 0.461380 0.326392
O O8 0.586766 0.169330 0.432289
O O9 0.776786 0.158109 0.498769
O O10 0.838095 0.164936 0.401693
O O11 0.750000 0.000000 0.442087
O O12 0.163974 0.846034 0.404327
O O13 0.948782 0.845622 0.342901
O O14 0.250000 0.500000 0.702088
O O15 0.054650 0.465113 0.765498
O O16 0.084045 0.146816 0.429705
O O17 0.250000 0.000000 0.452158
O O18 0.003373 0.536186 0.855087
O O19 0.250000 0.000000 0.674265
#
# Coordination Sequence:
#
# PCOD9412575 Si02
#       8
#     8   8   8   8   8   8   8   8
#     4  11  23  39  59  88 124 167 201 251 302 363
#     4  10  25  44  59  85 119 159 211 262 296 359
#     4  11  22  38  58  91 132 158 196 254 310 379
#     4  12  21  37  62  87 117 167 200 245 316 361
#     4  10  24  41  60  87 119 162 210 257 302 354
#     4  11  22  35  59  93 126 158 198 244 312 383
#     4  12  20  37  57  88 128 165 196 246 299 370
#     4  11  21  36  55  93 132 156 202 250 298 374
#
# _framework density 18.505707000000001
#
# number of rings (size 3 to 8) (size 9 to 14) (size 15 to 20)
#    0.000    1.000    6.250    0.750    3.500    2.000 
#    2.250    0.000    0.000    0.750    0.000    0.000 
#    0.000    0.000    0.000    0.000    0.000    0.000 
#
# Total GULP energy -356436.205152 kJ/mol
# GULP energy per Si atom -5569.315706 kJ/mol
# Density = 1.846359 g / cm^3
# Si number density = 18.505707 Si / 1000 Ang^3
#
#
#
# Elastic Constant Matrix: (Units=GPa)
#
#
# Indices 1 2 3 4 5 6 
#
# 1 70.0880 16.8292 1.3011 0.0000 0.0000 0.0000
# 2 16.8292 70.4742 15.5354 0.0000 0.0000 0.0000
# 3 1.3011 15.5354 55.8576 0.0000 0.0000 0.0000
# 4 0.0000 0.0000 0.0000 12.8440 0.0000 0.0000
# 5 0.0000 0.0000 0.0000 0.0000 10.6108 0.0000
# 6 0.0000 0.0000 0.0000 0.0000 0.0000 24.1666
#
#
#
# Elastic Compliance Matrix: (Units=1/GPa)
#
#
# Indices 1 2 3 4 5 6 
#
# 1 0.015161 -0.003774 0.000696 0.000000 0.000000 0.000000
# 2 -0.003774 0.016056 -0.004378 0.000000 0.000000 0.000000
# 3 0.000696 -0.004378 0.019104 0.000000 0.000000 0.000000
# 4 0.000000 0.000000 0.000000 0.077857 0.000000 0.000000
# 5 0.000000 0.000000 0.000000 0.000000 0.094243 0.000000
# 6 0.000000 0.000000 0.000000 0.000000 0.000000 0.041379
#
#
# Mechanical properties :
#
#
# Convention : Reuss Voigt Hill
#
# Bulk Modulus (GPa) = 28.24014 29.30570 28.77292
# Shear Modulus (GPa) = 17.21085 20.37457 18.79271
#
# Velocity S-wave (km/s) = 3.05295 3.32171 3.19016
# Velocity P-wave (km/s) = 5.26504 5.53011 5.39920
#
# Compressibility (1/GPa) = 0.03541059
#
# Stress axis : x y z
#
# Youngs Moduli (GPa) = 65.95855 62.28272 52.34517
#
# Poissons Ratio (x) = 0.23505 -0.03646
# Poissons Ratio (y) = 0.24893 0.22915
# Poissons Ratio (z) = -0.04594 0.27265
#
# Static dielectric constant tensor:
#      x y z
#    x 1.665660 0.000000 0.000000 
#    y 0.000000 1.670120 0.000000 
#    z 0.000000 0.000000 1.633000 
# 
# From -- ./inp_files/44619.got.cif
#   From: 2010.05.17/outbox.cif.g08.bks.cpg/sg52_23_cif.got.tgz:44619.got - 2010.06.03 12:15:38.
