data_PCOD9412523
_publ_section_title
;
Structure prediction by ZEFSAII (Michael W. Deem and Ramdas Pophale) SiO2 
 PCOD9412523
Probable space group: P N N A
;
_chemical_formula_sum "Si O2"
_cell_formula_units_Z 32
_cell_length_a 13.872654
_cell_length_b 12.356378
_cell_length_c 7.720693
_cell_angle_alpha 90.000000
_cell_angle_beta 90.000000
_cell_angle_gamma 90.000000
_cell_volume 1323.448433
_symmetry_space_group_name_H-M "P N N A"
_symmetry_group_IT_number 52
_symmetry_cell_setting 'orthorhombic'
loop_
_space_group_symop_operation_xyz
x,y,z
1/2-x,-y,z
x,1/2-y,1/2-z
1/2-x,1/2+y,1/2-z
-x,-y,-z
1/2+x,y,-z
-x,1/2+y,1/2+z
1/2+x,1/2-y,1/2+z
loop_
_atom_site_type_symbol
_atom_site_label
_atom_site_fract_x
_atom_site_fract_y
_atom_site_fract_z
Si Si1 0.404069 0.519570 0.891241
Si Si2 0.994751 0.165073 0.891044
Si Si3 0.814741 0.105408 0.114126
Si Si4 0.675699 0.274357 0.947757
O O1 0.440527 0.584289 0.721886
O O2 0.354213 0.414067 0.809393
O O3 0.500000 0.500000 0.000000
O O4 0.335663 0.600021 0.999860
O O5 0.955545 0.250000 0.750000
O O6 0.907608 0.112059 0.991614
O O7 0.068546 0.226078 0.017828
O O8 0.750000 0.000000 0.075826
O O9 0.748189 0.207616 0.069611
O O10 0.702133 0.250000 0.750000
#
# Coordination Sequence:
#
# PCOD9412523 Si02
#       4
#     8   8   8   8
#     4  11  25  49  77 108 152 209 257 324 404 467
#     4  10  23  48  69 107 149 201 251 315 390 463
#     4  12  25  45  76 108 154 198 259 325 391 467
#     4  11  25  49  76 112 157 200 267 324 388 485
#
# _framework density 24.179258999999998
#
# number of rings (size 3 to 8) (size 9 to 14) (size 15 to 20)
#    0.000    1.000    2.500    3.000    3.500    0.000 
#   27.000    0.000    0.000    0.000    0.000    0.000 
#    0.000    0.000    0.000    0.000    0.000    0.000 
#
# Total GULP energy -179248.950521 kJ/mol
# GULP energy per Si atom -5601.529704 kJ/mol
# Density = 2.412423 g / cm^3
# Si number density = 24.179259 Si / 1000 Ang^3
#
#
#
# Elastic Constant Matrix: (Units=GPa)
#
#
# Indices 1 2 3 4 5 6 
#
# 1 99.6182 45.9266 71.6996 0.0000 0.0000 0.0000
# 2 45.9266 104.8789 72.0214 0.0000 0.0000 0.0000
# 3 71.6996 72.0214 151.3433 0.0000 0.0000 0.0000
# 4 0.0000 0.0000 0.0000 31.2916 0.0000 0.0000
# 5 0.0000 0.0000 0.0000 0.0000 46.9734 0.0000
# 6 0.0000 0.0000 0.0000 0.0000 0.0000 48.8253
#
#
#
# Elastic Compliance Matrix: (Units=1/GPa)
#
#
# Indices 1 2 3 4 5 6 
#
# 1 0.015704 -0.002626 -0.006190 0.000000 0.000000 0.000000
# 2 -0.002626 0.014602 -0.005705 0.000000 0.000000 0.000000
# 3 -0.006190 -0.005705 0.012255 0.000000 0.000000 0.000000
# 4 0.000000 0.000000 0.000000 0.031957 0.000000 0.000000
# 5 0.000000 0.000000 0.000000 0.000000 0.021289 0.000000
# 6 0.000000 0.000000 0.000000 0.000000 0.000000 0.020481
#
#
# Mechanical properties :
#
#
# Convention : Reuss Voigt Hill
#
# Bulk Modulus (GPa) = 73.96833 81.68173 77.82503
# Shear Modulus (GPa) = 33.36932 36.49758 34.93345
#
# Velocity S-wave (km/s) = 3.71897 3.88939 3.80514
# Velocity P-wave (km/s) = 7.00707 7.35016 7.18067
#
# Compressibility (1/GPa) = 0.01351930
#
# Stress axis : x y z
#
# Youngs Moduli (GPa) = 63.67605 68.48216 81.59880
#
# Poissons Ratio (x) = 0.17983 0.50513
# Poissons Ratio (y) = 0.16721 0.46551
# Poissons Ratio (z) = 0.39418 0.39068
#
# Static dielectric constant tensor:
#      x y z
#    x 1.909190 0.000000 0.000000 
#    y 0.000000 1.994260 0.000000 
#    z 0.000000 0.000000 1.915220 
# 
# From -- ./inp_files/8195.got.cif
#   From: 2010.05.17/outbox.cif.g08.bks.cpg/sg52_5_cif.got.tgz:8195.got - 2010.06.03 12:15:38.
