data_PCOD9412220
_publ_section_title
;
Structure prediction by ZEFSAII (Michael W. Deem and Ramdas Pophale) SiO2 
 PCOD9412220
Probable space group: P N N A
;
_chemical_formula_sum "Si O2"
_cell_formula_units_Z 24
_cell_length_a 13.064349
_cell_length_b 9.741860
_cell_length_c 6.993419
_cell_angle_alpha 90.000000
_cell_angle_beta 90.000000
_cell_angle_gamma 90.000000
_cell_volume 890.059842
_symmetry_space_group_name_H-M "P N N A"
_symmetry_group_IT_number 52
_symmetry_cell_setting 'orthorhombic'
loop_
_space_group_symop_operation_xyz
x,y,z
1/2-x,-y,z
x,1/2-y,1/2-z
1/2-x,1/2+y,1/2-z
-x,-y,-z
1/2+x,y,-z
-x,1/2+y,1/2+z
1/2+x,1/2-y,1/2+z
loop_
_atom_site_type_symbol
_atom_site_label
_atom_site_fract_x
_atom_site_fract_y
_atom_site_fract_z
Si Si1 0.120492 0.472006 0.468613
Si Si2 0.923667 0.750000 0.250000
Si Si3 0.250000 0.000000 0.376026
Si Si4 0.105031 0.724591 0.966150
O O1 0.164377 0.429465 0.263105
O O2 0.344154 0.369395 0.473744
O O3 0.000000 0.500000 0.500000
O O4 0.140043 0.366252 0.640712
O O5 0.004322 0.807343 0.407525
O O6 0.187443 0.892689 0.501436
O O7 0.073183 0.750000 0.750000
#
# Coordination Sequence:
#
# PCOD9412220 Si02
#       4
#     8   4   4   8
#     4  10  22  49  80 120 168 222 283 353 440 512
#     4  10  22  54  82 114 172 214 284 366 422 530
#     4  12  22  48  80 122 182 220 288 368 420 536
#     4  11  24  46  78 118 169 215 284 346 433 519
#
# _framework density 26.964479999999998
#
# number of rings (size 3 to 8) (size 9 to 14) (size 15 to 20)
#    0.000    1.333    6.667    0.000    0.000    2.667 
#   15.000    3.333    0.000    0.000    0.000    0.000 
#    0.000    0.000    0.000    0.000    0.000    0.000 
#
# Total GULP energy -134304.101323 kJ/mol
# GULP energy per Si atom -5596.004222 kJ/mol
# Density = 2.690311 g / cm^3
# Si number density = 26.964480 Si / 1000 Ang^3
#
#
#
# Elastic Constant Matrix: (Units=GPa)
#
#
# Indices 1 2 3 4 5 6 
#
# 1 159.8031 37.1691 61.7368 0.0000 0.0000 0.0000
# 2 37.1691 147.8066 19.6796 0.0000 0.0000 0.0000
# 3 61.7368 19.6796 146.7422 0.0000 0.0000 0.0000
# 4 0.0000 0.0000 0.0000 59.3796 0.0000 0.0000
# 5 0.0000 0.0000 0.0000 0.0000 35.1831 0.0000
# 6 0.0000 0.0000 0.0000 0.0000 0.0000 23.5241
#
#
#
# Elastic Compliance Matrix: (Units=1/GPa)
#
#
# Indices 1 2 3 4 5 6 
#
# 1 0.007808 -0.001554 -0.003076 0.000000 0.000000 0.000000
# 2 -0.001554 0.007198 -0.000312 0.000000 0.000000 0.000000
# 3 -0.003076 -0.000312 0.008151 0.000000 0.000000 0.000000
# 4 0.000000 0.000000 0.000000 0.016841 0.000000 0.000000
# 5 0.000000 0.000000 0.000000 0.000000 0.028423 0.000000
# 6 0.000000 0.000000 0.000000 0.000000 0.000000 0.042510
#
#
# Mechanical properties :
#
#
# Convention : Reuss Voigt Hill
#
# Bulk Modulus (GPa) = 75.34319 76.83590 76.08955
# Shear Modulus (GPa) = 39.92425 46.00178 42.96301
#
# Velocity S-wave (km/s) = 3.85206 4.13487 3.99597
# Velocity P-wave (km/s) = 6.91280 7.16612 7.04060
#
# Compressibility (1/GPa) = 0.01327260
#
# Stress axis : x y z
#
# Youngs Moduli (GPa) = 128.08017 138.93105 122.68804
#
# Poissons Ratio (x) = 0.21587 0.37744
# Poissons Ratio (y) = 0.19901 0.03823
# Poissons Ratio (z) = 0.39403 0.04329
#
# Static dielectric constant tensor:
#      x y z
#    x 2.158660 0.000000 0.000000 
#    y 0.000000 2.198730 0.000000 
#    z 0.000000 0.000000 2.198030 
# 
# From -- ./inp_files/8048.got.cif
#   From: 2010.05.17/outbox.cif.g08.bks.cpg/sg52_5_cif.got.tgz:8048.got - 2010.06.03 12:15:38.
