data_PCOD9412924
_publ_section_title
;
Structure prediction by ZEFSAII (Michael W. Deem and Ramdas Pophale) SiO2 
 PCOD9412924
Probable space group: P N N A
;
_chemical_formula_sum "Si O2"
_cell_formula_units_Z 20
_cell_length_a 18.352106
_cell_length_b 7.807822
_cell_length_c 5.150522
_cell_angle_alpha 90.000000
_cell_angle_beta 90.000000
_cell_angle_gamma 90.000000
_cell_volume 738.018179
_symmetry_space_group_name_H-M "P N N A"
_symmetry_group_IT_number 52
_symmetry_cell_setting 'orthorhombic'
loop_
_space_group_symop_operation_xyz
x,y,z
1/2-x,-y,z
x,1/2-y,1/2-z
1/2-x,1/2+y,1/2-z
-x,-y,-z
1/2+x,y,-z
-x,1/2+y,1/2+z
1/2+x,1/2-y,1/2+z
loop_
_atom_site_type_symbol
_atom_site_label
_atom_site_fract_x
_atom_site_fract_y
_atom_site_fract_z
Si Si1 0.767441 0.250000 0.250000
Si Si2 0.999688 0.250000 0.750000
Si Si3 0.166964 0.250000 0.250000
Si Si4 0.900049 0.467582 0.087282
O O1 0.718751 0.281858 0.502984
O O2 0.823504 0.403954 0.193447
O O3 0.947015 0.190785 0.519006
O O4 0.053189 0.412505 0.722728
O O5 0.118181 0.090758 0.342444
#
# Coordination Sequence:
#
# PCOD9412924 Si02
#       4
#     4   4   4   8
#     4  12  29  51  80 115 155 202 254 316 382 454
#     4  10  26  48  76 110 150 200 252 312 376 448
#     4  12  29  51  80 115 155 202 254 316 382 454
#     4  11  27  48  76 110 153 197 254 312 378 449
#
# _framework density 27.099602000000001
#
# number of rings (size 3 to 8) (size 9 to 14) (size 15 to 20)
#    0.000    0.800    0.000    3.600    0.000   32.000 
#    0.000    0.000    0.000    0.000    0.000    0.000 
#    0.000    0.000    0.000    0.000    0.000    0.000 
#
# Total GULP energy -112357.535139 kJ/mol
# GULP energy per Si atom -5617.876757 kJ/mol
# Density = 2.703792 g / cm^3
# Si number density = 27.099602 Si / 1000 Ang^3
#
#
#
# Elastic Constant Matrix: (Units=GPa)
#
#
# Indices 1 2 3 4 5 6 
#
# 1 186.2340 67.4033 95.0522 0.0000 0.0000 0.0000
# 2 67.4033 158.6076 89.2267 0.0000 0.0000 0.0000
# 3 95.0522 89.2267 203.2738 0.0000 0.0000 0.0000
# 4 0.0000 0.0000 0.0000 59.3297 0.0000 0.0000
# 5 0.0000 0.0000 0.0000 0.0000 39.3391 0.0000
# 6 0.0000 0.0000 0.0000 0.0000 0.0000 57.5636
#
#
#
# Elastic Compliance Matrix: (Units=1/GPa)
#
#
# Indices 1 2 3 4 5 6 
#
# 1 0.007339 -0.001578 -0.002739 0.000000 0.000000 0.000000
# 2 -0.001578 0.008712 -0.003086 0.000000 0.000000 0.000000
# 3 -0.002739 -0.003086 0.007555 0.000000 0.000000 0.000000
# 4 0.000000 0.000000 0.000000 0.016855 0.000000 0.000000
# 5 0.000000 0.000000 0.000000 0.000000 0.025420 0.000000
# 6 0.000000 0.000000 0.000000 0.000000 0.000000 0.017372
#
#
# Mechanical properties :
#
#
# Convention : Reuss Voigt Hill
#
# Bulk Modulus (GPa) = 113.64720 116.83108 115.23914
# Shear Modulus (GPa) = 49.50937 51.00870 50.25903
#
# Velocity S-wave (km/s) = 4.27891 4.34322 4.31118
# Velocity P-wave (km/s) = 8.15107 8.26781 8.20965
#
# Compressibility (1/GPa) = 0.00879916
#
# Stress axis : x y z
#
# Youngs Moduli (GPa) = 136.26560 114.79054 132.36461
#
# Poissons Ratio (x) = 0.18112 0.36255
# Poissons Ratio (y) = 0.21500 0.40849
# Poissons Ratio (z) = 0.37323 0.35426
#
# Static dielectric constant tensor:
#      x y z
#    x 2.066460 0.000000 0.000000 
#    y 0.000000 2.194250 0.000000 
#    z 0.000000 0.000000 2.036480 
# 
# From -- ./inp_files/2736.got.cif
#   From: 2010.05.17/outbox.cif.g08.bks.cpg/sg52_2_cif.got.tgz:2736.got - 2010.06.03 12:15:38.
