data_PCOD9412506
_publ_section_title
;
Structure prediction by ZEFSAII (Michael W. Deem and Ramdas Pophale) SiO2 
 PCOD9412506
Probable space group: P N N A
;
_chemical_formula_sum "Si O2"
_cell_formula_units_Z 32
_cell_length_a 5.059445
_cell_length_b 8.392230
_cell_length_c 29.598149
_cell_angle_alpha 90.000000
_cell_angle_beta 90.000000
_cell_angle_gamma 90.000000
_cell_volume 1256.738179
_symmetry_space_group_name_H-M "P N N A"
_symmetry_group_IT_number 52
_symmetry_cell_setting 'orthorhombic'
loop_
_space_group_symop_operation_xyz
x,y,z
1/2-x,-y,z
x,1/2-y,1/2-z
1/2-x,1/2+y,1/2-z
-x,-y,-z
1/2+x,y,-z
-x,1/2+y,1/2+z
1/2+x,1/2-y,1/2+z
loop_
_atom_site_type_symbol
_atom_site_label
_atom_site_fract_x
_atom_site_fract_y
_atom_site_fract_z
Si Si1 0.437884 0.678575 0.018089
Si Si2 0.088511 0.750000 0.750000
Si Si3 0.750000 0.000000 0.694034
Si Si4 0.139366 0.157337 0.104187
Si Si5 0.116314 0.239085 0.839181
O O1 0.329530 0.699337 0.068233
O O2 0.500000 0.500000 0.000000
O O3 0.725764 0.755654 0.015278
O O4 0.277990 0.808798 0.790149
O O5 0.900668 0.875857 0.725623
O O6 0.513520 0.916681 0.665607
O O7 0.352814 0.154939 0.144126
O O8 0.852306 0.191150 0.126430
O O9 0.250000 0.000000 0.078263
#
# Coordination Sequence:
#
# PCOD9412506 Si02
#       5
#     8   4   4   8   8
#     4  10  23  46  74 107 147 204 252 334 412 500
#     4  12  28  52  78 114 160 220 274 328 424 480
#     4  12  28  52  78 114 156 224 276 338 410 506
#     4  12  28  47  76 117 158 210 272 343 410 496
#     4  12  28  49  76 112 162 211 273 337 400 493
#
# _framework density 25.462741999999999
#
# number of rings (size 3 to 8) (size 9 to 14) (size 15 to 20)
#    0.000    0.500    2.500    3.750    1.750   11.000 
#    0.000    0.000    0.000    0.000    0.000    0.000 
#    0.000    0.000    0.000    0.000    0.000    0.000 
#
# Total GULP energy -178457.559333 kJ/mol
# GULP energy per Si atom -5576.798729 kJ/mol
# Density = 2.540479 g / cm^3
# Si number density = 25.462742 Si / 1000 Ang^3
#
#
#
# Elastic Constant Matrix: (Units=GPa)
#
#
# Indices 1 2 3 4 5 6 
#
# 1 226.6093 61.9660 45.7065 0.0000 0.0000 0.0000
# 2 61.9660 124.1732 48.2616 0.0000 0.0000 0.0000
# 3 45.7065 48.2616 112.5215 0.0000 0.0000 0.0000
# 4 0.0000 0.0000 0.0000 43.2647 0.0000 0.0000
# 5 0.0000 0.0000 0.0000 0.0000 30.6228 0.0000
# 6 0.0000 0.0000 0.0000 0.0000 0.0000 40.0624
#
#
#
# Elastic Compliance Matrix: (Units=1/GPa)
#
#
# Indices 1 2 3 4 5 6 
#
# 1 0.005244 -0.002147 -0.001209 0.000000 0.000000 0.000000
# 2 -0.002147 0.010543 -0.003650 0.000000 0.000000 0.000000
# 3 -0.001209 -0.003650 0.010944 0.000000 0.000000 0.000000
# 4 0.000000 0.000000 0.000000 0.023114 0.000000 0.000000
# 5 0.000000 0.000000 0.000000 0.000000 0.032655 0.000000
# 6 0.000000 0.000000 0.000000 0.000000 0.000000 0.024961
#
#
# Mechanical properties :
#
#
# Convention : Reuss Voigt Hill
#
# Bulk Modulus (GPa) = 78.62425 86.13026 82.37725
# Shear Modulus (GPa) = 39.77317 43.28130 41.52723
#
# Velocity S-wave (km/s) = 3.95652 4.12732 4.04282
# Velocity P-wave (km/s) = 7.19842 7.52413 7.36308
#
# Compressibility (1/GPa) = 0.01271872
#
# Stress axis : x y z
#
# Youngs Moduli (GPa) = 190.70017 94.84743 91.37478
#
# Poissons Ratio (x) = 0.20362 0.11050
# Poissons Ratio (y) = 0.40940 0.33352
# Poissons Ratio (z) = 0.23061 0.34620
#
# Static dielectric constant tensor:
#      x y z
#    x -5.504310 0.000000 0.000000 
#    y 0.000000 -3.277960 0.000000 
#    z 0.000000 0.000000 2.053870 
# 
# From -- ./inp_files/43513.got.cif
#   From: 2010.05.17/outbox.cif.g08.bks.cpg/sg52_22_cif.got.tgz:43513.got - 2010.06.03 12:15:38.
