data_PCOD9412512
_publ_section_title
;
Structure prediction by ZEFSAII (Michael W. Deem and Ramdas Pophale) SiO2 
 PCOD9412512
Probable space group: P N N A
;
_chemical_formula_sum "Si O2"
_cell_formula_units_Z 40
_cell_length_a 20.530648
_cell_length_b 11.514705
_cell_length_c 6.695680
_cell_angle_alpha 90.000000
_cell_angle_beta 90.000000
_cell_angle_gamma 90.000000
_cell_volume 1582.887913
_symmetry_space_group_name_H-M "P N N A"
_symmetry_group_IT_number 52
_symmetry_cell_setting 'orthorhombic'
loop_
_space_group_symop_operation_xyz
x,y,z
1/2-x,-y,z
x,1/2-y,1/2-z
1/2-x,1/2+y,1/2-z
-x,-y,-z
1/2+x,y,-z
-x,1/2+y,1/2+z
1/2+x,1/2-y,1/2+z
loop_
_atom_site_type_symbol
_atom_site_label
_atom_site_fract_x
_atom_site_fract_y
_atom_site_fract_z
Si Si1 0.218030 0.622812 0.774613
Si Si2 0.632713 0.989144 0.981363
Si Si3 0.408516 0.921776 0.615266
Si Si4 0.787417 0.873620 0.655930
Si Si5 0.445249 0.127079 0.341944
O O1 0.250000 0.500000 0.712754
O O2 0.248014 0.750000 0.750000
O O3 0.159403 0.619972 0.612834
O O4 0.223604 0.606031 0.015499
O O5 0.571425 0.957687 0.843159
O O6 0.686140 0.043184 0.832312
O O7 0.611464 0.076583 0.154335
O O8 0.349826 0.867789 0.491117
O O9 0.478887 0.864105 0.600978
O O10 0.415738 0.054891 0.529732
O O11 0.775201 0.750000 0.750000
O O12 0.422091 0.250000 0.250000
#
# Coordination Sequence:
#
# PCOD9412512 Si02
#       5
#     8   8   8   8   8
#     4  12  27  48  75 109 150 198 251 311 370 450
#     4  11  25  47  71  99 148 193 241 305 374 444
#     4  10  23  47  68 107 143 184 247 305 360 458
#     4  11  26  46  74 106 145 195 252 306 375 444
#     4  10  24  42  72 105 142 185 242 298 379 441
#
# _framework density 25.270268000000002
#
# number of rings (size 3 to 8) (size 9 to 14) (size 15 to 20)
#    0.000    1.200    2.000    1.800    5.600    2.400 
#    0.000    0.000    0.000    0.000    0.000    0.000 
#    0.000    0.000    0.000    0.000    0.000    0.000 
#
# Total GULP energy -222986.099576 kJ/mol
# GULP energy per Si atom -5574.652489 kJ/mol
# Density = 2.521275 g / cm^3
# Si number density = 25.270268 Si / 1000 Ang^3
#
#
#
# Elastic Constant Matrix: (Units=GPa)
#
#
# Indices 1 2 3 4 5 6 
#
# 1 94.5881 -9.9767 29.5714 0.0000 0.0000 0.0000
# 2 -9.9767 79.4562 14.9871 0.0000 0.0000 0.0000
# 3 29.5714 14.9871 189.7705 0.0000 0.0000 0.0000
# 4 0.0000 0.0000 0.0000 42.9439 0.0000 0.0000
# 5 0.0000 0.0000 0.0000 0.0000 39.1608 0.0000
# 6 0.0000 0.0000 0.0000 0.0000 0.0000 19.3803
#
#
#
# Elastic Compliance Matrix: (Units=1/GPa)
#
#
# Indices 1 2 3 4 5 6 
#
# 1 0.011358 0.001787 -0.001911 0.000000 0.000000 0.000000
# 2 0.001787 0.013057 -0.001310 0.000000 0.000000 0.000000
# 3 -0.001911 -0.001310 0.005671 0.000000 0.000000 0.000000
# 4 0.000000 0.000000 0.000000 0.023286 0.000000 0.000000
# 5 0.000000 0.000000 0.000000 0.000000 0.025536 0.000000
# 6 0.000000 0.000000 0.000000 0.000000 0.000000 0.051599
#
#
# Mechanical properties :
#
#
# Convention : Reuss Voigt Hill
#
# Bulk Modulus (GPa) = 36.74075 48.10872 42.42474
# Shear Modulus (GPa) = 35.10079 42.24586 38.67333
#
# Velocity S-wave (km/s) = 3.73099 4.09315 3.91626
# Velocity P-wave (km/s) = 5.75596 6.43565 6.10527
#
# Compressibility (1/GPa) = 0.02721773
#
# Stress axis : x y z
#
# Youngs Moduli (GPa) = 88.04338 76.58791 176.34410
#
# Poissons Ratio (x) = -0.13683 0.33699
# Poissons Ratio (y) = -0.15730 0.23093
# Poissons Ratio (z) = 0.16825 0.10030
#
# Static dielectric constant tensor:
#      x y z
#    x 2.082790 0.000000 0.000000 
#    y 0.000000 2.121060 0.000000 
#    z 0.000000 0.000000 1.996660 
# 
# From -- ./inp_files/5588.got.cif
#   From: 2010.05.17/outbox.cif.g08.bks.cpg/sg52_3_cif.got.tgz:5588.got - 2010.06.03 12:15:38.
