data_PCOD9412326
_publ_section_title
;
Structure prediction by ZEFSAII (Michael W. Deem and Ramdas Pophale) SiO2 
 PCOD9412326
Probable space group: P N N A
;
_chemical_formula_sum "Si O2"
_cell_formula_units_Z 32
_cell_length_a 15.515421
_cell_length_b 15.078127
_cell_length_c 7.025129
_cell_angle_alpha 90.000000
_cell_angle_beta 90.000000
_cell_angle_gamma 90.000000
_cell_volume 1643.483184
_symmetry_space_group_name_H-M "P N N A"
_symmetry_group_IT_number 52
_symmetry_cell_setting 'orthorhombic'
loop_
_space_group_symop_operation_xyz
x,y,z
1/2-x,-y,z
x,1/2-y,1/2-z
1/2-x,1/2+y,1/2-z
-x,-y,-z
1/2+x,y,-z
-x,1/2+y,1/2+z
1/2+x,1/2-y,1/2+z
loop_
_atom_site_type_symbol
_atom_site_label
_atom_site_fract_x
_atom_site_fract_y
_atom_site_fract_z
Si Si1 0.954607 0.578484 0.614585
Si Si2 0.651396 0.491376 0.970817
Si Si3 0.368917 0.353647 0.741580
Si Si4 0.179672 0.146335 0.812766
O O1 0.911650 0.539005 0.804430
O O2 0.882359 0.626236 0.488667
O O3 0.000000 0.500000 0.500000
O O4 0.037004 0.638815 0.653861
O O5 0.750000 0.500000 0.900493
O O6 0.628243 0.585425 0.069008
O O7 0.651549 0.417059 0.137479
O O8 0.353754 0.250000 0.750000
O O9 0.278846 0.382878 0.641744
O O10 0.173856 0.250000 0.750000
#
# Coordination Sequence:
#
# PCOD9412326 Si02
#       4
#     8   8   8   8
#     4  12  25  37  71  95 126 169 216 263 323 381
#     4  10  23  42  64  92 131 169 212 260 320 385
#     4  10  23  44  65  92 132 170 213 268 317 384
#     4  10  24  44  64  92 133 172 210 266 324 378
#
# _framework density 19.470842000000001
#
# number of rings (size 3 to 8) (size 9 to 14) (size 15 to 20)
#    0.000    1.500    2.500    0.750    7.000    0.000 
#    0.000    0.000    0.000    0.000    0.000    0.000 
#    0.000    0.000    0.000    0.000    0.000    0.000 
#
# Total GULP energy -178370.603922 kJ/mol
# GULP energy per Si atom -5574.081373 kJ/mol
# Density = 1.942653 g / cm^3
# Si number density = 19.470842 Si / 1000 Ang^3
#
#
#
# Elastic Constant Matrix: (Units=GPa)
#
#
# Indices 1 2 3 4 5 6 
#
# 1 182.8520 37.7134 85.2613 0.0000 0.0000 0.0000
# 2 37.7134 113.7711 42.8005 0.0000 0.0000 0.0000
# 3 85.2613 42.8005 80.0309 0.0000 0.0000 0.0000
# 4 0.0000 0.0000 0.0000 -0.2631 0.0000 0.0000
# 5 0.0000 0.0000 0.0000 0.0000 27.1938 0.0000
# 6 0.0000 0.0000 0.0000 0.0000 0.0000 40.9890
#
#
#
# Elastic Compliance Matrix: (Units=1/GPa)
#
#
# Indices 1 2 3 4 5 6 
#
# 1 0.010949 0.000950 -0.012172 0.000000 0.000000 0.000000
# 2 0.000950 0.011086 -0.006941 0.000000 0.000000 0.000000
# 3 -0.012172 -0.006941 0.029175 0.000000 0.000000 0.000000
# 4 0.000000 0.000000 0.000000 -3.801543 0.000000 0.000000
# 5 0.000000 0.000000 0.000000 0.000000 0.036773 0.000000
# 6 0.000000 0.000000 0.000000 0.000000 0.000000 0.024397
#
#
# Mechanical properties :
#
#
# Convention : Reuss Voigt Hill
#
# Bulk Modulus (GPa) = 67.18958 78.68938 72.93948
# Shear Modulus (GPa) = -1.37066 27.64255 13.13594
#
# Velocity S-wave (km/s) = -0.83993 3.77196 2.60021
# Velocity P-wave (km/s) = 5.80018 7.71181 6.82327
#
# Compressibility (1/GPa) = 0.01488326
#
# Stress axis : x y z
#
# Youngs Moduli (GPa) = 91.33449 90.20584 34.27613
#
# Poissons Ratio (x) = -0.08568 0.41722
# Poissons Ratio (y) = -0.08675 0.23790
# Poissons Ratio (z) = 1.11175 0.62608
#
# Static dielectric constant tensor:
#      x y z
#    x 1.992230 0.000000 0.000000 
#    y 0.000000 1.641920 0.000000 
#    z 0.000000 0.000000 1.673350 
# 
# From -- ./inp_files/1904.got.cif
#   From: 2010.05.17/outbox.cif.g08.bks.cpg/sg52_1_cif.got.tgz:1904.got - 2010.06.03 12:15:38.
