data_PCOD9412448
_publ_section_title
;
Structure prediction by ZEFSAII (Michael W. Deem and Ramdas Pophale) SiO2 
 PCOD9412448
Probable space group: P N N A
;
_chemical_formula_sum "Si O2"
_cell_formula_units_Z 40
_cell_length_a 23.419747
_cell_length_b 8.389665
_cell_length_c 9.053880
_cell_angle_alpha 90.000000
_cell_angle_beta 90.000000
_cell_angle_gamma 90.000000
_cell_volume 1778.941034
_symmetry_space_group_name_H-M "P N N A"
_symmetry_group_IT_number 52
_symmetry_cell_setting 'orthorhombic'
loop_
_space_group_symop_operation_xyz
x,y,z
1/2-x,-y,z
x,1/2-y,1/2-z
1/2-x,1/2+y,1/2-z
-x,-y,-z
1/2+x,y,-z
-x,1/2+y,1/2+z
1/2+x,1/2-y,1/2+z
loop_
_atom_site_type_symbol
_atom_site_label
_atom_site_fract_x
_atom_site_fract_y
_atom_site_fract_z
Si Si1 0.898597 0.411478 0.656716
Si Si2 0.294863 0.884493 0.139608
Si Si3 0.708977 0.347188 0.100299
Si Si4 0.414819 0.577397 0.038509
Si Si5 0.524440 0.760546 0.426139
O O1 0.883127 0.250000 0.750000
O O2 0.844962 0.501358 0.585655
O O3 0.943686 0.366138 0.531066
O O4 0.917067 0.528786 0.788756
O O5 0.316628 0.750000 0.250000
O O6 0.250000 0.000000 0.219021
O O7 0.265063 0.785107 0.010708
O O8 0.750000 0.500000 0.116830
O O9 0.699324 0.250000 0.250000
O O10 0.647971 0.394537 0.027265
O O11 0.442848 0.425905 0.959314
O O12 0.458889 0.722288 0.021116
O O13 0.527256 0.750000 0.250000
#
# Coordination Sequence:
#
# PCOD9412448 Si02
#       5
#     8   8   8   8   8
#     4  10  23  44  70 106 148 191 250 304 366 446
#     4  12  25  43  73 106 142 195 246 308 374 449
#     4  12  29  49  73 106 150 189 246 306 380 448
#     4  10  24  46  68 105 146 190 243 301 365 448
#     4  10  24  42  74 105 146 193 245 303 369 433
#
# _framework density 22.485287
#
# number of rings (size 3 to 8) (size 9 to 14) (size 15 to 20)
#    0.000    1.200    2.000    1.800   11.200    5.600 
#    0.000    0.000    0.000    0.000    0.000    0.000 
#    0.000    0.000    0.000    0.000    0.000    0.000 
#
# Total GULP energy -223439.962719 kJ/mol
# GULP energy per Si atom -5585.999068 kJ/mol
# Density = 2.243411 g / cm^3
# Si number density = 22.485287 Si / 1000 Ang^3
#
#
#
# Elastic Constant Matrix: (Units=GPa)
#
#
# Indices 1 2 3 4 5 6 
#
# 1 157.6409 86.2229 61.0368 0.0000 0.0000 0.0000
# 2 86.2229 121.5486 51.1108 0.0000 0.0000 0.0000
# 3 61.0368 51.1108 133.0988 0.0000 0.0000 0.0000
# 4 0.0000 0.0000 0.0000 41.6213 0.0000 0.0000
# 5 0.0000 0.0000 0.0000 0.0000 19.4279 0.0000
# 6 0.0000 0.0000 0.0000 0.0000 0.0000 38.8461
#
#
#
# Elastic Compliance Matrix: (Units=1/GPa)
#
#
# Indices 1 2 3 4 5 6 
#
# 1 0.010992 -0.006771 -0.002441 0.000000 0.000000 0.000000
# 2 -0.006771 0.013983 -0.002264 0.000000 0.000000 0.000000
# 3 -0.002441 -0.002264 0.009502 0.000000 0.000000 0.000000
# 4 0.000000 0.000000 0.000000 0.024026 0.000000 0.000000
# 5 0.000000 0.000000 0.000000 0.000000 0.051472 0.000000
# 6 0.000000 0.000000 0.000000 0.000000 0.000000 0.025743
#
#
# Mechanical properties :
#
#
# Convention : Reuss Voigt Hill
#
# Bulk Modulus (GPa) = 86.77176 89.89217 88.33196
# Shear Modulus (GPa) = 30.76713 34.24024 32.50368
#
# Velocity S-wave (km/s) = 3.70310 3.90652 3.80617
# Velocity P-wave (km/s) = 7.54706 7.77257 7.66065
#
# Compressibility (1/GPa) = 0.01152449
#
# Stress axis : x y z
#
# Youngs Moduli (GPa) = 90.97498 71.51786 105.24198
#
# Poissons Ratio (x) = 0.48426 0.25685
# Poissons Ratio (y) = 0.61601 0.23829
# Poissons Ratio (z) = 0.22203 0.16193
#
# Static dielectric constant tensor:
#      x y z
#    x 1.844620 0.000000 0.000000 
#    y 0.000000 1.884470 0.000000 
#    z 0.000000 0.000000 1.859920 
# 
# From -- ./inp_files/14005.got.cif
#   From: 2010.05.17/outbox.cif.g08.bks.cpg/sg52_8_cif.got.tgz:14005.got - 2010.06.03 12:15:38.
