data_PCOD9412074
_publ_section_title
;
Structure prediction by ZEFSAII (Michael W. Deem and Ramdas Pophale) SiO2 
 PCOD9412074
Probable space group: P N N A
;
_chemical_formula_sum "Si O2"
_cell_formula_units_Z 40
_cell_length_a 8.462408
_cell_length_b 11.547677
_cell_length_c 17.316272
_cell_angle_alpha 90.000000
_cell_angle_beta 90.000000
_cell_angle_gamma 90.000000
_cell_volume 1692.166087
_symmetry_space_group_name_H-M "P N N A"
_symmetry_group_IT_number 52
_symmetry_cell_setting 'orthorhombic'
loop_
_space_group_symop_operation_xyz
x,y,z
1/2-x,-y,z
x,1/2-y,1/2-z
1/2-x,1/2+y,1/2-z
-x,-y,-z
1/2+x,y,-z
-x,1/2+y,1/2+z
1/2+x,1/2-y,1/2+z
loop_
_atom_site_type_symbol
_atom_site_label
_atom_site_fract_x
_atom_site_fract_y
_atom_site_fract_z
Si Si1 0.989069 0.052434 0.613664
Si Si2 0.573399 0.442461 0.288961
Si Si3 0.819032 0.682174 0.927836
Si Si4 0.502777 0.185333 0.827819
Si Si5 0.690372 0.245336 0.090059
O O1 0.853871 0.127658 0.572126
O O2 0.988230 0.068306 0.706362
O O3 0.152612 0.117432 0.596004
O O4 0.943466 0.924016 0.585641
O O5 0.750000 0.500000 0.275292
O O6 0.483249 0.548934 0.327098
O O7 0.597045 0.332722 0.345975
O O8 0.835069 0.756353 0.850699
O O9 0.844514 0.767969 0.999722
O O10 0.445958 0.250000 0.750000
O O11 0.369701 0.216729 0.890321
#
# Coordination Sequence:
#
# PCOD9412074 Si02
#       5
#     8   8   8   8   8
#     4  11  23  43  64  99 138 179 223 284 348 417
#     4  10  22  43  71  99 128 182 240 284 333 420
#     4  11  25  41  64 100 141 173 221 290 360 398
#     4  11  22  43  69  94 133 181 235 286 338 419
#     4  11  23  41  67  98 131 178 233 281 339 413
#
# _framework density 23.638341
#
# number of rings (size 3 to 8) (size 9 to 14) (size 15 to 20)
#    0.000    1.200    2.000    4.800    0.000    4.000 
#    0.000    2.000    0.000    0.000    0.000    0.000 
#    0.000    0.000    0.000    0.000    0.000    0.000 
#
# Total GULP energy -223035.725637 kJ/mol
# GULP energy per Si atom -5575.893141 kJ/mol
# Density = 2.358454 g / cm^3
# Si number density = 23.638341 Si / 1000 Ang^3
#
#
#
# Elastic Constant Matrix: (Units=GPa)
#
#
# Indices 1 2 3 4 5 6 
#
# 1 20.9028 12.2226 30.4798 0.0000 0.0000 0.0000
# 2 12.2226 76.4720 38.6645 0.0000 0.0000 0.0000
# 3 30.4798 38.6645 134.5069 0.0000 0.0000 0.0000
# 4 0.0000 0.0000 0.0000 40.1009 0.0000 0.0000
# 5 0.0000 0.0000 0.0000 0.0000 35.8662 0.0000
# 6 0.0000 0.0000 0.0000 0.0000 0.0000 37.9109
#
#
#
# Elastic Compliance Matrix: (Units=1/GPa)
#
#
# Indices 1 2 3 4 5 6 
#
# 1 0.072397 -0.003834 -0.015303 0.000000 0.000000 0.000000
# 2 -0.003834 0.015503 -0.003588 0.000000 0.000000 0.000000
# 3 -0.015303 -0.003588 0.011934 0.000000 0.000000 0.000000
# 4 0.000000 0.000000 0.000000 0.024937 0.000000 0.000000
# 5 0.000000 0.000000 0.000000 0.000000 0.027881 0.000000
# 6 0.000000 0.000000 0.000000 0.000000 0.000000 0.026378
#
#
# Mechanical properties :
#
#
# Convention : Reuss Voigt Hill
#
# Bulk Modulus (GPa) = 18.38766 43.84615 31.11690
# Shear Modulus (GPa) = 20.60933 32.80994 26.70963
#
# Velocity S-wave (km/s) = 2.95593 3.72962 3.36509
# Velocity P-wave (km/s) = 4.40972 6.09392 5.31890
#
# Compressibility (1/GPa) = 0.05438431
#
# Stress axis : x y z
#
# Youngs Moduli (GPa) = 13.81268 64.50186 83.79637
#
# Poissons Ratio (x) = 0.24729 1.28237
# Poissons Ratio (y) = 0.05296 0.30064
# Poissons Ratio (z) = 0.21138 0.23142
#
# Static dielectric constant tensor:
#      x y z
#    x 1.902150 0.000000 0.000000 
#    y 0.000000 1.954770 0.000000 
#    z 0.000000 0.000000 2.041530 
# 
# From -- ./inp_files/30893.got.cif
#   From: 2010.05.17/outbox.cif.g08.bks.cpg/sg52_16_cif.got.tgz:30893.got - 2010.06.03 12:15:38.
