data_PCOD9412194
_publ_section_title
;
Structure prediction by ZEFSAII (Michael W. Deem and Ramdas Pophale) SiO2 
 PCOD9412194
Probable space group: P N N A
;
_chemical_formula_sum "Si O2"
_cell_formula_units_Z 60
_cell_length_a 9.069066
_cell_length_b 18.050735
_cell_length_c 15.513307
_cell_angle_alpha 90.000000
_cell_angle_beta 90.000000
_cell_angle_gamma 90.000000
_cell_volume 2539.579659
_symmetry_space_group_name_H-M "P N N A"
_symmetry_group_IT_number 52
_symmetry_cell_setting 'orthorhombic'
loop_
_space_group_symop_operation_xyz
x,y,z
1/2-x,-y,z
x,1/2-y,1/2-z
1/2-x,1/2+y,1/2-z
-x,-y,-z
1/2+x,y,-z
-x,1/2+y,1/2+z
1/2+x,1/2-y,1/2+z
loop_
_atom_site_type_symbol
_atom_site_label
_atom_site_fract_x
_atom_site_fract_y
_atom_site_fract_z
Si Si1 0.185159 0.832006 0.949520
Si Si2 0.253457 0.808566 0.144764
Si Si3 0.000120 0.581512 0.670378
Si Si4 0.935951 0.331230 0.040947
Si Si5 0.750000 0.000000 0.750523
Si Si6 0.739553 0.581128 0.178261
Si Si7 0.927367 0.828336 0.202743
Si Si8 0.749621 0.637799 0.880311
O O1 0.082768 0.757728 0.952447
O O2 0.314954 0.827290 0.878148
O O3 0.087144 0.901907 0.918102
O O4 0.255373 0.831440 0.043734
O O5 0.396924 0.846506 0.184132
O O6 0.250587 0.720602 0.158286
O O7 0.094928 0.837017 0.174964
O O8 0.888161 0.514491 0.686057
O O9 0.118138 0.576804 0.746247
O O10 0.817241 0.361806 0.108465
O O11 0.095432 0.361747 0.067399
O O12 0.885348 0.359621 0.947635
O O13 0.741063 0.929878 0.685613
O O14 0.750000 0.500000 0.138590
O O15 0.882143 0.609839 0.227988
O O16 0.908980 0.750000 0.250000
#
# Coordination Sequence:
#
# PCOD9412194 Si02
#       8
#     8   8   8   8   4   8   8   8
#     4  10  22  46  72 102 133 184 242 296 359 414
#     4  11  25  43  75 104 135 182 241 306 350 419
#     4  11  25  46  74  96 146 184 239 299 356 425
#     4  11  23  45  71 102 145 193 234 295 356 425
#     4  12  28  44  66 110 142 196 234 288 358 440
#     4  11  26  44  68 100 142 191 231 280 357 436
#     4  11  24  38  68 103 134 176 235 296 343 415
#     4  11  27  43  70 106 147 187 241 288 363 432
#
# _framework density 23.625957
#
# number of rings (size 3 to 8) (size 9 to 14) (size 15 to 20)
#    0.000    1.067    4.000    0.800   10.267    2.667 
#    0.000    0.667    7.333    0.000    0.000    0.000 
#    0.000    0.000    0.000    0.000    0.000    0.000 
#
# Total GULP energy -335889.609031 kJ/mol
# GULP energy per Si atom -5598.160151 kJ/mol
# Density = 2.357218 g / cm^3
# Si number density = 23.625957 Si / 1000 Ang^3
#
#
#
# Elastic Constant Matrix: (Units=GPa)
#
#
# Indices 1 2 3 4 5 6 
#
# 1 94.9239 11.6858 10.3224 0.0000 0.0000 0.0000
# 2 11.6858 78.2564 13.7371 0.0000 0.0000 0.0000
# 3 10.3224 13.7371 58.6454 0.0000 0.0000 0.0000
# 4 0.0000 0.0000 0.0000 23.0911 0.0000 0.0000
# 5 0.0000 0.0000 0.0000 0.0000 27.0380 0.0000
# 6 0.0000 0.0000 0.0000 0.0000 0.0000 36.4800
#
#
#
# Elastic Compliance Matrix: (Units=1/GPa)
#
#
# Indices 1 2 3 4 5 6 
#
# 1 0.010874 -0.001343 -0.001599 0.000000 0.000000 0.000000
# 2 -0.001343 0.013492 -0.002924 0.000000 0.000000 0.000000
# 3 -0.001599 -0.002924 0.018018 0.000000 0.000000 0.000000
# 4 0.000000 0.000000 0.000000 0.043307 0.000000 0.000000
# 5 0.000000 0.000000 0.000000 0.000000 0.036985 0.000000
# 6 0.000000 0.000000 0.000000 0.000000 0.000000 0.027412
#
#
# Mechanical properties :
#
#
# Convention : Reuss Voigt Hill
#
# Bulk Modulus (GPa) = 32.62481 33.70180 33.16330
# Shear Modulus (GPa) = 29.06324 30.39383 29.72853
#
# Velocity S-wave (km/s) = 3.51114 3.59062 3.55110
# Velocity P-wave (km/s) = 5.50239 5.61121 5.55707
#
# Compressibility (1/GPa) = 0.03065152
#
# Stress axis : x y z
#
# Youngs Moduli (GPa) = 91.96239 74.11608 55.49980
#
# Poissons Ratio (x) = 0.09954 0.08877
# Poissons Ratio (y) = 0.12351 0.16228
# Poissons Ratio (z) = 0.14708 0.21672
#
# Static dielectric constant tensor:
#      x y z
#    x 1.904500 0.000000 0.000000 
#    y 0.000000 1.885190 0.000000 
#    z 0.000000 0.000000 1.909920 
# 
# From -- ./inp_files/31497.got.cif
#   From: 2010.05.17/outbox.cif.g08.bks.cpg/sg52_16_cif.got.tgz:31497.got - 2010.06.03 12:15:38.
