data_PCOD9412841
_publ_section_title
;
Structure prediction by ZEFSAII (Michael W. Deem and Ramdas Pophale) SiO2 
 PCOD9412841
Probable space group: P N N A
;
_chemical_formula_sum "Si O2"
_cell_formula_units_Z 64
_cell_length_a 11.765372
_cell_length_b 9.594109
_cell_length_c 30.234328
_cell_angle_alpha 90.000000
_cell_angle_beta 90.000000
_cell_angle_gamma 90.000000
_cell_volume 3412.798379
_symmetry_space_group_name_H-M "P N N A"
_symmetry_group_IT_number 52
_symmetry_cell_setting 'orthorhombic'
loop_
_space_group_symop_operation_xyz
x,y,z
1/2-x,-y,z
x,1/2-y,1/2-z
1/2-x,1/2+y,1/2-z
-x,-y,-z
1/2+x,y,-z
-x,1/2+y,1/2+z
1/2+x,1/2-y,1/2+z
loop_
_atom_site_type_symbol
_atom_site_label
_atom_site_fract_x
_atom_site_fract_y
_atom_site_fract_z
Si Si1 0.224083 0.837847 0.585092
Si Si2 0.111539 0.505573 0.802837
Si Si3 0.039068 0.841390 0.510565
Si Si4 0.619115 0.045107 0.204528
Si Si5 0.564152 0.228443 0.365758
Si Si6 0.117806 0.328752 0.423232
Si Si7 0.959178 0.224545 0.155214
Si Si8 0.111673 0.656451 0.427749
O O1 0.156126 0.835874 0.539140
O O2 0.345484 0.765957 0.593836
O O3 0.141168 0.764363 0.620509
O O4 0.250000 0.000000 0.593945
O O5 0.250000 0.500000 0.806222
O O6 0.080216 0.442810 0.755174
O O7 0.059999 0.424264 0.844721
O O8 0.060840 0.660016 0.807158
O O9 0.061529 0.748838 0.467446
O O10 0.943120 0.767997 0.540568
O O11 0.000000 0.000000 0.500000
O O12 0.609959 0.181898 0.175169
O O13 0.750000 0.000000 0.206759
O O14 0.555756 0.924274 0.177759
O O15 0.446780 0.286405 0.383461
O O16 0.084972 0.491390 0.431240
O O17 0.253198 0.323410 0.426362
O O18 0.070768 0.279926 0.375396
#
# Coordination Sequence:
#
# PCOD9412841 Si02
#       8
#     8   8   8   8   8   8   8   8
#     4  11  21  37  59  91 128 160 199 251 314 378
#     4  11  21  36  59  94 137 162 198 256 317 379
#     4  11  26  42  67  93 124 158 207 266 315 377
#     4  11  21  34  60  98 128 161 207 253 313 378
#     4  12  21  38  62  91 126 167 202 256 317 366
#     4  10  25  46  62  89 121 166 217 254 311 375
#     4  11  19  39  60  86 124 168 203 246 310 371
#     4  11  25  44  66  86 123 170 212 262 310 374
#
# _framework density 18.752939999999999
#
# number of rings (size 3 to 8) (size 9 to 14) (size 15 to 20)
#    0.000    1.000    5.000    1.875    5.250    2.000 
#    0.000    0.000    0.000    4.500    0.000    0.000 
#    0.000    0.000    0.000    0.000    0.000    0.000 
#
# Total GULP energy -357159.513494 kJ/mol
# GULP energy per Si atom -5580.617398 kJ/mol
# Density = 1.871026 g / cm^3
# Si number density = 18.752940 Si / 1000 Ang^3
#
#
#
# Elastic Constant Matrix: (Units=GPa)
#
#
# Indices 1 2 3 4 5 6 
#
# 1 61.1813 26.0873 29.2390 0.0000 0.0000 0.0000
# 2 26.0873 74.7431 14.3567 0.0000 0.0000 0.0000
# 3 29.2390 14.3567 86.9373 0.0000 0.0000 0.0000
# 4 0.0000 0.0000 0.0000 37.3155 0.0000 0.0000
# 5 0.0000 0.0000 0.0000 0.0000 17.4781 0.0000
# 6 0.0000 0.0000 0.0000 0.0000 0.0000 23.0413
#
#
#
# Elastic Compliance Matrix: (Units=1/GPa)
#
#
# Indices 1 2 3 4 5 6 
#
# 1 0.022171 -0.006513 -0.006381 0.000000 0.000000 0.000000
# 2 -0.006513 0.015731 -0.000407 0.000000 0.000000 0.000000
# 3 -0.006381 -0.000407 0.013716 0.000000 0.000000 0.000000
# 4 0.000000 0.000000 0.000000 0.026799 0.000000 0.000000
# 5 0.000000 0.000000 0.000000 0.000000 0.057214 0.000000
# 6 0.000000 0.000000 0.000000 0.000000 0.000000 0.043400
#
#
# Mechanical properties :
#
#
# Convention : Reuss Voigt Hill
#
# Bulk Modulus (GPa) = 39.97551 40.24753 40.11152
# Shear Modulus (GPa) = 23.36751 25.77890 24.57321
#
# Velocity S-wave (km/s) = 3.53380 3.71166 3.62382
# Velocity P-wave (km/s) = 6.16551 6.31484 6.24062
#
# Compressibility (1/GPa) = 0.02501532
#
# Stress axis : x y z
#
# Youngs Moduli (GPa) = 45.10299 63.57073 72.90767
#
# Poissons Ratio (x) = 0.41402 0.46524
# Poissons Ratio (y) = 0.29374 0.02970
# Poissons Ratio (z) = 0.28781 0.02590
#
# Static dielectric constant tensor:
#      x y z
#    x 1.614910 0.000000 0.000000 
#    y 0.000000 1.782450 0.000000 
#    z 0.000000 0.000000 1.669490 
# 
# From -- ./inp_files/44845.got.cif
#   From: 2010.05.17/outbox.cif.g08.bks.cpg/sg52_23_cif.got.tgz:44845.got - 2010.06.03 12:15:38.
