data_PCOD9412449
_publ_section_title
;
Structure prediction by ZEFSAII (Michael W. Deem and Ramdas Pophale) SiO2 
 PCOD9412449
Probable space group: P N N A
;
_chemical_formula_sum "Si O2"
_cell_formula_units_Z 48
_cell_length_a 10.054172
_cell_length_b 16.428687
_cell_length_c 11.741183
_cell_angle_alpha 90.000000
_cell_angle_beta 90.000000
_cell_angle_gamma 90.000000
_cell_volume 1939.371563
_symmetry_space_group_name_H-M "P N N A"
_symmetry_group_IT_number 52
_symmetry_cell_setting 'orthorhombic'
loop_
_space_group_symop_operation_xyz
x,y,z
1/2-x,-y,z
x,1/2-y,1/2-z
1/2-x,1/2+y,1/2-z
-x,-y,-z
1/2+x,y,-z
-x,1/2+y,1/2+z
1/2+x,1/2-y,1/2+z
loop_
_atom_site_type_symbol
_atom_site_label
_atom_site_fract_x
_atom_site_fract_y
_atom_site_fract_z
Si Si1 0.649295 0.406709 0.548215
Si Si2 0.285678 0.250000 0.250000
Si Si3 0.750000 0.000000 0.149357
Si Si4 0.380349 0.750000 0.750000
Si Si5 0.685884 0.629751 0.155188
Si Si6 0.563984 0.673932 0.579697
Si Si7 0.903317 0.900571 0.712888
Si Si8 0.250000 0.000000 0.464694
O O1 0.641387 0.464328 0.438241
O O2 0.806421 0.381591 0.553185
O O3 0.542823 0.335048 0.520156
O O4 0.597890 0.445839 0.665131
O O5 0.359747 0.246285 0.373695
O O6 0.202979 0.168209 0.255982
O O7 0.788270 0.073157 0.233426
O O8 0.283280 0.706660 0.840298
O O9 0.468270 0.677503 0.693522
O O10 0.531572 0.647915 0.170694
O O11 0.707578 0.573568 0.046131
O O12 0.863292 0.964962 0.617665
#
# Coordination Sequence:
#
# PCOD9412449 Si02
#       8
#     8   4   4   4   8   8   8   4
#     4  11  23  42  75 109 148 184 246 305 372 447
#     4   9  23  46  72 107 148 187 250 309 362 451
#     4  11  23  44  68 120 137 191 238 310 376 431
#     4  11  23  50  70 105 144 191 248 311 364 437
#     4  11  25  46  75 103 150 196 254 300 371 451
#     4  10  23  44  70 109 146 192 232 312 378 429
#     4  11  24  48  71 109 147 200 249 299 376 449
#     4  11  27  50  64 110 151 209 234 314 370 459
#
# _framework density 24.750285999999999
#
# number of rings (size 3 to 8) (size 9 to 14) (size 15 to 20)
#    0.000    1.333    1.667    2.500    0.000    8.000 
#   21.000    0.000    0.000    0.000    0.000    0.000 
#    0.000    0.000    0.000    0.000    0.000    0.000 
#
# Total GULP energy -267298.124817 kJ/mol
# GULP energy per Si atom -5568.710934 kJ/mol
# Density = 2.469395 g / cm^3
# Si number density = 24.750286 Si / 1000 Ang^3
#
#
#
# Elastic Constant Matrix: (Units=GPa)
#
#
# Indices 1 2 3 4 5 6 
#
# 1 136.5459 27.9100 42.1778 0.0000 0.0000 0.0000
# 2 27.9100 66.2537 35.2184 0.0000 0.0000 0.0000
# 3 42.1778 35.2184 160.2017 0.0000 0.0000 0.0000
# 4 0.0000 0.0000 0.0000 45.1804 0.0000 0.0000
# 5 0.0000 0.0000 0.0000 0.0000 26.7434 0.0000
# 6 0.0000 0.0000 0.0000 0.0000 0.0000 23.1646
#
#
#
# Elastic Compliance Matrix: (Units=1/GPa)
#
#
# Indices 1 2 3 4 5 6 
#
# 1 0.008368 -0.002665 -0.001617 0.000000 0.000000 0.000000
# 2 -0.002665 0.017940 -0.003242 0.000000 0.000000 0.000000
# 3 -0.001617 -0.003242 0.007381 0.000000 0.000000 0.000000
# 4 0.000000 0.000000 0.000000 0.022133 0.000000 0.000000
# 5 0.000000 0.000000 0.000000 0.000000 0.037392 0.000000
# 6 0.000000 0.000000 0.000000 0.000000 0.000000 0.043169
#
#
# Mechanical properties :
#
#
# Convention : Reuss Voigt Hill
#
# Bulk Modulus (GPa) = 53.65112 63.73485 58.69298
# Shear Modulus (GPa) = 31.71669 36.19735 33.95702
#
# Velocity S-wave (km/s) = 3.58364 3.82842 3.70805
# Velocity P-wave (km/s) = 6.23276 6.73420 6.48833
#
# Compressibility (1/GPa) = 0.01863894
#
# Stress axis : x y z
#
# Youngs Moduli (GPa) = 119.50465 55.74225 135.48994
#
# Poissons Ratio (x) = 0.14858 0.21910
# Poissons Ratio (y) = 0.31853 0.43927
# Poissons Ratio (z) = 0.19325 0.18072
#
# Static dielectric constant tensor:
#      x y z
#    x 2.181540 0.000000 0.000000 
#    y 0.000000 1.373330 0.000000 
#    z 0.000000 0.000000 2.038260 
# 
# From -- ./inp_files/18257.got.cif
#   From: 2010.05.17/outbox.cif.g08.bks.cpg/sg52_10_cif.got.tgz:18257.got - 2010.06.03 12:15:38.
