data_PCOD9412724
_publ_section_title
;
Structure prediction by ZEFSAII (Michael W. Deem and Ramdas Pophale) SiO2 
 PCOD9412724
Probable space group: P N N A
;
_chemical_formula_sum "Si O2"
_cell_formula_units_Z 28
_cell_length_a 8.461668
_cell_length_b 6.761344
_cell_length_c 17.051755
_cell_angle_alpha 90.000000
_cell_angle_beta 90.000000
_cell_angle_gamma 90.000000
_cell_volume 975.569239
_symmetry_space_group_name_H-M "P N N A"
_symmetry_group_IT_number 52
_symmetry_cell_setting 'orthorhombic'
loop_
_space_group_symop_operation_xyz
x,y,z
1/2-x,-y,z
x,1/2-y,1/2-z
1/2-x,1/2+y,1/2-z
-x,-y,-z
1/2+x,y,-z
-x,1/2+y,1/2+z
1/2+x,1/2-y,1/2+z
loop_
_atom_site_type_symbol
_atom_site_label
_atom_site_fract_x
_atom_site_fract_y
_atom_site_fract_z
Si Si1 0.709757 0.765436 0.532102
Si Si2 0.514960 0.639417 0.824547
Si Si3 0.018193 0.695013 0.620545
Si Si4 0.750000 0.500000 0.258923
O O1 0.569216 0.761227 0.595827
O O2 0.648560 0.707128 0.447493
O O3 0.859705 0.655212 0.569805
O O4 0.750000 0.000000 0.524885
O O5 0.595969 0.750000 0.750000
O O6 0.535099 0.404075 0.838925
O O7 0.328636 0.647287 0.806430
O O8 0.099025 0.562476 0.688232
#
# Coordination Sequence:
#
# PCOD9412724 Si02
#       4
#     8   8   8   4
#     4  10  24  45  78 104 155 203 270 312 398 464
#     4  11  24  43  74 108 148 199 255 330 382 460
#     4  11  26  47  74 111 150 213 257 322 391 475
#     4  12  28  42  78 112 162 198 270 324 398 456
#
# _framework density 28.701194000000001
#
# number of rings (size 3 to 8) (size 9 to 14) (size 15 to 20)
#    0.000    1.143    0.000    6.000   14.000    8.000 
#    0.000    0.000    0.000    0.000    0.000    0.000 
#    0.000    0.000    0.000    0.000    0.000    0.000 
#
# Total GULP energy -156610.080795 kJ/mol
# GULP energy per Si atom -5593.217171 kJ/mol
# Density = 2.863587 g / cm^3
# Si number density = 28.701194 Si / 1000 Ang^3
#
#
#
# Elastic Constant Matrix: (Units=GPa)
#
#
# Indices 1 2 3 4 5 6 
#
# 1 163.5633 51.3557 97.4216 0.0000 0.0000 0.0000
# 2 51.3557 140.5658 69.1810 0.0000 0.0000 0.0000
# 3 97.4216 69.1810 277.1135 0.0000 0.0000 0.0000
# 4 0.0000 0.0000 0.0000 44.9413 0.0000 0.0000
# 5 0.0000 0.0000 0.0000 0.0000 -112.3826 0.0000
# 6 0.0000 0.0000 0.0000 0.0000 0.0000 50.7183
#
#
#
# Elastic Compliance Matrix: (Units=1/GPa)
#
#
# Indices 1 2 3 4 5 6 
#
# 1 0.008105 -0.001777 -0.002406 0.000000 0.000000 0.000000
# 2 -0.001777 0.008500 -0.001497 0.000000 0.000000 0.000000
# 3 -0.002406 -0.001497 0.004828 0.000000 0.000000 0.000000
# 4 0.000000 0.000000 0.000000 0.022251 0.000000 0.000000
# 5 0.000000 0.000000 0.000000 0.000000 -0.008898 0.000000
# 6 0.000000 0.000000 0.000000 0.000000 0.000000 0.019717
#
#
# Mechanical properties :
#
#
# Convention : Reuss Voigt Hill
#
# Bulk Modulus (GPa) = 99.27503 113.01769 106.14636
# Shear Modulus (GPa) = 72.23278 20.87435 46.55357
#
# Velocity S-wave (km/s) = 5.02213 2.69977 4.03179
# Velocity P-wave (km/s) = 8.26398 7.01293 7.66402
#
# Compressibility (1/GPa) = 0.01007303
#
# Stress axis : x y z
#
# Youngs Moduli (GPa) = 123.38611 117.64296 207.11866
#
# Poissons Ratio (x) = 0.20906 0.49825
# Poissons Ratio (y) = 0.21927 0.31013
# Poissons Ratio (z) = 0.29682 0.17615
#
# Static dielectric constant tensor:
#      x y z
#    x 2.279950 0.000000 0.000000 
#    y 0.000000 -43.531700 0.000000 
#    z 0.000000 0.000000 2.106660 
# 
# From -- ./inp_files/30681.got.cif
#   From: 2010.05.17/outbox.cif.g08.bks.cpg/sg52_16_cif.got.tgz:30681.got - 2010.06.03 12:15:38.
