data_PCOD9412417
_publ_section_title
;
Structure prediction by ZEFSAII (Michael W. Deem and Ramdas Pophale) SiO2 
 PCOD9412417
Probable space group: P N N A
;
_chemical_formula_sum "Si O2"
_cell_formula_units_Z 40
_cell_length_a 15.077911
_cell_length_b 12.082645
_cell_length_c 8.239768
_cell_angle_alpha 90.000000
_cell_angle_beta 90.000000
_cell_angle_gamma 90.000000
_cell_volume 1501.129553
_symmetry_space_group_name_H-M "P N N A"
_symmetry_group_IT_number 52
_symmetry_cell_setting 'orthorhombic'
loop_
_space_group_symop_operation_xyz
x,y,z
1/2-x,-y,z
x,1/2-y,1/2-z
1/2-x,1/2+y,1/2-z
-x,-y,-z
1/2+x,y,-z
-x,1/2+y,1/2+z
1/2+x,1/2-y,1/2+z
loop_
_atom_site_type_symbol
_atom_site_label
_atom_site_fract_x
_atom_site_fract_y
_atom_site_fract_z
Si Si1 0.106908 0.711366 0.941643
Si Si2 0.981282 0.095987 0.873657
Si Si3 0.199094 0.216210 0.484386
Si Si4 0.357380 0.500725 0.113562
Si Si5 0.326475 0.909185 0.814239
O O1 0.109575 0.750000 0.750000
O O2 0.196990 0.734451 0.047467
O O3 0.102767 0.578383 0.970062
O O4 0.036575 0.787708 0.036907
O O5 0.897572 0.056451 0.770121
O O6 0.069958 0.087465 0.768113
O O7 0.000000 0.000000 0.000000
O O8 0.133402 0.134593 0.389149
O O9 0.165690 0.337836 0.521862
O O10 0.250000 0.500000 0.105934
O O11 0.290649 0.655037 0.841717
O O12 0.250000 0.000000 0.842284
#
# Coordination Sequence:
#
# PCOD9412417 Si02
#       5
#     8   8   8   8   8
#     4  11  23  47  78 112 154 207 267 325 404 483
#     4  12  29  44  72 117 155 208 263 336 395 474
#     4  10  23  43  80 109 145 212 259 321 402 473
#     4  10  25  49  76 112 159 207 257 336 409 471
#     4  11  23  45  73 113 153 206 266 321 388 475
#
# _framework density 26.646602000000001
#
# number of rings (size 3 to 8) (size 9 to 14) (size 15 to 20)
#    0.000    1.200    2.000    3.600    8.400    4.800 
#    0.000    2.000    0.000    0.000    0.000    0.000 
#    0.000    0.000    0.000    0.000    0.000    0.000 
#
# Total GULP energy -222968.363455 kJ/mol
# GULP energy per Si atom -5574.209086 kJ/mol
# Density = 2.658595 g / cm^3
# Si number density = 26.646602 Si / 1000 Ang^3
#
#
#
# Elastic Constant Matrix: (Units=GPa)
#
#
# Indices 1 2 3 4 5 6 
#
# 1 130.1216 88.8856 45.3146 0.0000 0.0000 0.0000
# 2 88.8856 137.9900 56.7516 0.0000 0.0000 0.0000
# 3 45.3146 56.7516 114.8039 0.0000 0.0000 0.0000
# 4 0.0000 0.0000 0.0000 44.6113 0.0000 0.0000
# 5 0.0000 0.0000 0.0000 0.0000 26.8782 0.0000
# 6 0.0000 0.0000 0.0000 0.0000 0.0000 46.5104
#
#
#
# Elastic Compliance Matrix: (Units=1/GPa)
#
#
# Indices 1 2 3 4 5 6 
#
# 1 0.013884 -0.008396 -0.001329 0.000000 0.000000 0.000000
# 2 -0.008396 0.014174 -0.003693 0.000000 0.000000 0.000000
# 3 -0.001329 -0.003693 0.011061 0.000000 0.000000 0.000000
# 4 0.000000 0.000000 0.000000 0.022416 0.000000 0.000000
# 5 0.000000 0.000000 0.000000 0.000000 0.037205 0.000000
# 6 0.000000 0.000000 0.000000 0.000000 0.000000 0.021501
#
#
# Mechanical properties :
#
#
# Convention : Reuss Voigt Hill
#
# Bulk Modulus (GPa) = 81.42280 84.97989 83.20135
# Shear Modulus (GPa) = 33.07538 36.39756 34.73647
#
# Velocity S-wave (km/s) = 3.52698 3.69987 3.61446
# Velocity P-wave (km/s) = 6.87088 7.08609 6.97931
#
# Compressibility (1/GPa) = 0.01228157
#
# Stress axis : x y z
#
# Youngs Moduli (GPa) = 72.02768 70.55187 90.41074
#
# Poissons Ratio (x) = 0.59237 0.12020
# Poissons Ratio (y) = 0.60476 0.33385
# Poissons Ratio (z) = 0.09576 0.26052
#
# Static dielectric constant tensor:
#      x y z
#    x 1.867090 0.000000 0.000000 
#    y 0.000000 2.282640 0.000000 
#    z 0.000000 0.000000 2.058240 
# 
# From -- ./inp_files/27020.got.cif
#   From: 2010.05.17/outbox.cif.g08.bks.cpg/sg52_14_cif.got.tgz:27020.got - 2010.06.03 12:15:38.
