data_PCOD9412484
_publ_section_title
;
Structure prediction by ZEFSAII (Michael W. Deem and Ramdas Pophale) SiO2 
 PCOD9412484
Probable space group: P N N A
;
_chemical_formula_sum "Si O2"
_cell_formula_units_Z 48
_cell_length_a 17.419517
_cell_length_b 7.130336
_cell_length_c 15.062219
_cell_angle_alpha 90.000000
_cell_angle_beta 90.000000
_cell_angle_gamma 90.000000
_cell_volume 1870.833173
_symmetry_space_group_name_H-M "P N N A"
_symmetry_group_IT_number 52
_symmetry_cell_setting 'orthorhombic'
loop_
_space_group_symop_operation_xyz
x,y,z
1/2-x,-y,z
x,1/2-y,1/2-z
1/2-x,1/2+y,1/2-z
-x,-y,-z
1/2+x,y,-z
-x,1/2+y,1/2+z
1/2+x,1/2-y,1/2+z
loop_
_atom_site_type_symbol
_atom_site_label
_atom_site_fract_x
_atom_site_fract_y
_atom_site_fract_z
Si Si1 0.325621 0.092957 0.953710
Si Si2 0.438471 0.033978 0.114255
Si Si3 0.099760 0.267228 0.622042
Si Si4 0.436606 0.616926 0.055560
Si Si5 0.331920 0.409950 0.816904
Si Si6 0.159721 0.033982 0.279689
O O1 0.344071 0.943938 0.874595
O O2 0.320876 0.296509 0.909706
O O3 0.250000 0.000000 0.996668
O O4 0.393846 0.088653 0.024625
O O5 0.514575 0.154066 0.125545
O O6 0.463078 0.813468 0.101786
O O7 0.380594 0.064339 0.195906
O O8 0.142602 0.750000 0.750000
O O9 0.110678 0.414899 0.818928
O O10 0.390166 0.507904 0.131136
O O11 0.500000 0.500000 0.000000
O O12 0.382156 0.688658 0.976859
O O13 0.250000 0.500000 0.796027
O O14 0.154279 0.250000 0.250000
O O15 0.250000 0.000000 0.292984
#
# Coordination Sequence:
#
# PCOD9412484 Si02
#       6
#     8   8   8   8   8   8
#     4  11  22  46  77 114 155 206 270 333 410 496
#     4  10  24  48  76 116 166 205 269 341 420 500
#     4  11  26  47  76 111 154 212 255 338 413 484
#     4  10  23  45  72 112 161 208 270 334 404 494
#     4  12  28  50  77 111 156 208 277 339 412 497
#     4  10  23  48  79 115 159 214 276 339 411 498
#
# _framework density 25.657017
#
# number of rings (size 3 to 8) (size 9 to 14) (size 15 to 20)
#    0.000    1.333    1.667    3.000    4.667    2.000 
#   12.000    0.000    0.000    0.000    0.000    0.000 
#    0.000    0.000    0.000    0.000    0.000    0.000 
#
# Total GULP energy -268893.571927 kJ/mol
# GULP energy per Si atom -5601.949415 kJ/mol
# Density = 2.559862 g / cm^3
# Si number density = 25.657017 Si / 1000 Ang^3
#
#
#
# Elastic Constant Matrix: (Units=GPa)
#
#
# Indices 1 2 3 4 5 6 
#
# 1 164.8517 74.0696 59.4690 0.0000 0.0000 0.0000
# 2 74.0696 173.7909 49.7258 0.0000 0.0000 0.0000
# 3 59.4690 49.7258 131.2695 0.0000 0.0000 0.0000
# 4 0.0000 0.0000 0.0000 48.2003 0.0000 0.0000
# 5 0.0000 0.0000 0.0000 0.0000 35.8466 0.0000
# 6 0.0000 0.0000 0.0000 0.0000 0.0000 46.7446
#
#
#
# Elastic Compliance Matrix: (Units=1/GPa)
#
#
# Indices 1 2 3 4 5 6 
#
# 1 0.008280 -0.002754 -0.002708 0.000000 0.000000 0.000000
# 2 -0.002754 0.007370 -0.001544 0.000000 0.000000 0.000000
# 3 -0.002708 -0.001544 0.009430 0.000000 0.000000 0.000000
# 4 0.000000 0.000000 0.000000 0.020747 0.000000 0.000000
# 5 0.000000 0.000000 0.000000 0.000000 0.027897 0.000000
# 6 0.000000 0.000000 0.000000 0.000000 0.000000 0.021393
#
#
# Mechanical properties :
#
#
# Convention : Reuss Voigt Hill
#
# Bulk Modulus (GPa) = 90.35580 92.93788 91.64684
# Shear Modulus (GPa) = 44.31940 45.26815 44.79377
#
# Velocity S-wave (km/s) = 4.16068 4.20498 4.18289
# Velocity P-wave (km/s) = 7.64035 7.73807 7.68936
#
# Compressibility (1/GPa) = 0.01106736
#
# Stress axis : x y z
#
# Youngs Moduli (GPa) = 120.76602 135.69104 106.04982
#
# Poissons Ratio (x) = 0.37374 0.28718
# Poissons Ratio (y) = 0.33263 0.16373
# Poissons Ratio (z) = 0.32703 0.20949
#
# Static dielectric constant tensor:
#      x y z
#    x 1.989000 0.000000 0.000000 
#    y 0.000000 2.089220 0.000000 
#    z 0.000000 0.000000 2.114620 
# 
# From -- ./inp_files/28037.got.cif
#   From: 2010.05.17/outbox.cif.g08.bks.cpg/sg52_15_cif.got.tgz:28037.got - 2010.06.03 12:15:38.
