data_PCOD9412267
_publ_section_title
;
Structure prediction by ZEFSAII (Michael W. Deem and Ramdas Pophale) SiO2 
 PCOD9412267
Probable space group: P N N A
;
_chemical_formula_sum "Si O2"
_cell_formula_units_Z 56
_cell_length_a 13.208630
_cell_length_b 19.075358
_cell_length_c 9.675608
_cell_angle_alpha 90.000000
_cell_angle_beta 90.000000
_cell_angle_gamma 90.000000
_cell_volume 2437.859863
_symmetry_space_group_name_H-M "P N N A"
_symmetry_group_IT_number 52
_symmetry_cell_setting 'orthorhombic'
loop_
_space_group_symop_operation_xyz
x,y,z
1/2-x,-y,z
x,1/2-y,1/2-z
1/2-x,1/2+y,1/2-z
-x,-y,-z
1/2+x,y,-z
-x,1/2+y,1/2+z
1/2+x,1/2-y,1/2+z
loop_
_atom_site_type_symbol
_atom_site_label
_atom_site_fract_x
_atom_site_fract_y
_atom_site_fract_z
Si Si1 0.586659 0.746951 0.582947
Si Si2 0.180784 0.069870 0.789915
Si Si3 0.195657 0.416186 0.163737
Si Si4 0.254409 0.142362 0.060329
Si Si5 0.820628 0.378788 0.077564
Si Si6 0.402882 0.766635 0.396845
Si Si7 0.011321 0.982269 0.660997
O O1 0.595267 0.750000 0.750000
O O2 0.636053 0.674583 0.528737
O O3 0.643853 0.810703 0.505226
O O4 0.473392 0.754672 0.527839
O O5 0.229965 0.127351 0.687529
O O6 0.250000 0.000000 0.775186
O O7 0.070242 0.043758 0.742269
O O8 0.198073 0.099569 0.941770
O O9 0.258892 0.401756 0.300455
O O10 0.140245 0.344655 0.113031
O O11 0.101723 0.464663 0.206698
O O12 0.273125 0.429809 0.039122
O O13 0.187656 0.210905 0.095691
O O14 0.915139 0.414175 0.156576
O O15 0.457581 0.750000 0.250000
O O16 0.000000 0.000000 0.500000
#
# Coordination Sequence:
#
# PCOD9412267 Si02
#       7
#     8   8   8   8   8   8   8
#     4  12  23  40  66 101 133 167 217 272 336 399
#     4  10  25  44  63  95 129 173 229 267 318 398
#     4  11  21  43  67  93 133 170 214 276 333 386
#     4  11  24  43  64  96 137 167 212 277 335 391
#     4  11  22  41  66  94 130 171 219 273 323 392
#     4  10  23  40  65  97 130 173 210 263 340 396
#     4  11  23  41  68  93 127 175 229 267 318 391
#
# _framework density 22.970969
#
# number of rings (size 3 to 8) (size 9 to 14) (size 15 to 20)
#    0.000    1.143    5.714    0.429    2.000    4.000 
#    2.571    0.000    0.000    0.000    0.000    0.000 
#    0.000    0.000    0.000    0.000    0.000    0.000 
#
# Total GULP energy -312939.391708 kJ/mol
# GULP energy per Si atom -5588.203423 kJ/mol
# Density = 2.291869 g / cm^3
# Si number density = 22.970969 Si / 1000 Ang^3
#
#
#
# Elastic Constant Matrix: (Units=GPa)
#
#
# Indices 1 2 3 4 5 6 
#
# 1 61.9159 19.9515 -4.3962 0.0000 0.0000 0.0000
# 2 19.9515 52.5395 9.7662 0.0000 0.0000 0.0000
# 3 -4.3962 9.7662 85.8254 0.0000 0.0000 0.0000
# 4 0.0000 0.0000 0.0000 31.8129 0.0000 0.0000
# 5 0.0000 0.0000 0.0000 0.0000 21.7195 0.0000
# 6 0.0000 0.0000 0.0000 0.0000 0.0000 25.8024
#
#
#
# Elastic Compliance Matrix: (Units=1/GPa)
#
#
# Indices 1 2 3 4 5 6 
#
# 1 0.018672 -0.007425 0.001801 0.000000 0.000000 0.000000
# 2 -0.007425 0.022397 -0.002929 0.000000 0.000000 0.000000
# 3 0.001801 -0.002929 0.012077 0.000000 0.000000 0.000000
# 4 0.000000 0.000000 0.000000 0.031434 0.000000 0.000000
# 5 0.000000 0.000000 0.000000 0.000000 0.046042 0.000000
# 6 0.000000 0.000000 0.000000 0.000000 0.000000 0.038756
#
#
# Mechanical properties :
#
#
# Convention : Reuss Voigt Hill
#
# Bulk Modulus (GPa) = 27.74667 27.88040 27.81353
# Shear Modulus (GPa) = 25.18934 27.53092 26.36013
#
# Velocity S-wave (km/s) = 3.31505 3.46570 3.39121
# Velocity P-wave (km/s) = 5.17281 5.30833 5.24101
#
# Compressibility (1/GPa) = 0.03604037
#
# Stress axis : x y z
#
# Youngs Moduli (GPa) = 53.55751 44.64803 82.80116
#
# Poissons Ratio (x) = 0.33152 -0.14915
# Poissons Ratio (y) = 0.39768 0.24252
# Poissons Ratio (z) = -0.09648 0.13077
#
# Static dielectric constant tensor:
#      x y z
#    x 1.899620 0.000000 0.000000 
#    y 0.000000 2.074610 0.000000 
#    z 0.000000 0.000000 1.839850 
# 
# From -- ./inp_files/10835.got.cif
#   From: 2010.05.17/outbox.cif.g08.bks.cpg/sg52_6_cif.got.tgz:10835.got - 2010.06.03 12:15:38.
