data_PCOD9412199
_publ_section_title
;
Structure prediction by ZEFSAII (Michael W. Deem and Ramdas Pophale) SiO2 
 PCOD9412199
Probable space group: P N N A
;
_chemical_formula_sum "Si O2"
_cell_formula_units_Z 36
_cell_length_a 6.366375
_cell_length_b 8.893868
_cell_length_c 21.625548
_cell_angle_alpha 90.000000
_cell_angle_beta 90.000000
_cell_angle_gamma 90.000000
_cell_volume 1224.475267
_symmetry_space_group_name_H-M "P N N A"
_symmetry_group_IT_number 52
_symmetry_cell_setting 'orthorhombic'
loop_
_space_group_symop_operation_xyz
x,y,z
1/2-x,-y,z
x,1/2-y,1/2-z
1/2-x,1/2+y,1/2-z
-x,-y,-z
1/2+x,y,-z
-x,1/2+y,1/2+z
1/2+x,1/2-y,1/2+z
loop_
_atom_site_type_symbol
_atom_site_label
_atom_site_fract_x
_atom_site_fract_y
_atom_site_fract_z
Si Si1 0.619088 0.377228 0.481947
Si Si2 0.112655 0.150171 0.611642
Si Si3 0.750000 0.000000 0.266677
Si Si4 0.386967 0.623214 0.081700
Si Si5 0.629197 0.150158 0.803943
O O1 0.378439 0.422523 0.511847
O O2 0.583345 0.323057 0.410927
O O3 0.635406 0.216009 0.518266
O O4 0.125097 0.107833 0.684456
O O5 0.349057 0.114543 0.588729
O O6 0.893041 0.069037 0.587141
O O7 0.591454 0.905896 0.224707
O O8 0.370099 0.741187 0.138378
O O9 0.729943 0.250000 0.750000
O O10 0.750000 0.000000 0.819090
#
# Coordination Sequence:
#
# PCOD9412199 Si02
#       5
#     8   8   4   8   8
#     4  12  25  44  73 115 149 199 266 338 403 480
#     4  10  22  46  74 103 152 205 257 322 407 479
#     4  10  26  50  78 112 160 208 270 324 412 476
#     4  12  25  49  74 110 155 212 263 330 414 487
#     4  12  26  50  78 119 158 209 272 334 407 491
#
# _framework density 29.40035
#
# number of rings (size 3 to 8) (size 9 to 14) (size 15 to 20)
#    0.667    0.000    2.222    5.333    0.000    0.889 
#   14.000    0.000    4.889    0.000    0.000    0.000 
#    0.000    0.000    0.000    0.000    0.000    0.000 
#
# Total GULP energy -201579.364879 kJ/mol
# GULP energy per Si atom -5599.426802 kJ/mol
# Density = 2.933343 g / cm^3
# Si number density = 29.400350 Si / 1000 Ang^3
#
#
#
# Elastic Constant Matrix: (Units=GPa)
#
#
# Indices 1 2 3 4 5 6 
#
# 1 237.2320 141.5549 56.6052 0.0000 0.0000 0.0000
# 2 141.5549 269.9422 108.3051 0.0000 0.0000 0.0000
# 3 56.6052 108.3051 147.9295 0.0000 0.0000 0.0000
# 4 0.0000 0.0000 0.0000 122.6136 0.0000 0.0000
# 5 0.0000 0.0000 0.0000 0.0000 72.4287 0.0000
# 6 0.0000 0.0000 0.0000 0.0000 0.0000 68.3373
#
#
#
# Elastic Compliance Matrix: (Units=1/GPa)
#
#
# Indices 1 2 3 4 5 6 
#
# 1 0.006135 -0.003222 0.000011 0.000000 0.000000 0.000000
# 2 -0.003222 0.006937 -0.003846 0.000000 0.000000 0.000000
# 3 0.000011 -0.003846 0.009572 0.000000 0.000000 0.000000
# 4 0.000000 0.000000 0.000000 0.008156 0.000000 0.000000
# 5 0.000000 0.000000 0.000000 0.000000 0.013807 0.000000
# 6 0.000000 0.000000 0.000000 0.000000 0.000000 0.014633
#
#
# Mechanical properties :
#
#
# Convention : Reuss Voigt Hill
#
# Bulk Modulus (GPa) = 117.22791 140.89267 129.06029
# Shear Modulus (GPa) = 65.62051 75.91849 70.76950
#
# Velocity S-wave (km/s) = 4.72949 5.08708 4.91154
# Velocity P-wave (km/s) = 8.35366 9.08464 8.72681
#
# Compressibility (1/GPa) = 0.00853039
#
# Stress axis : x y z
#
# Youngs Moduli (GPa) = 163.00167 144.15555 104.47561
#
# Poissons Ratio (x) = 0.46440 -0.00116
# Poissons Ratio (y) = 0.52512 0.40182
# Poissons Ratio (z) = -0.00181 0.55444
#
# Static dielectric constant tensor:
#      x y z
#    x 2.377620 0.000000 0.000000 
#    y 0.000000 2.516880 0.000000 
#    z 0.000000 0.000000 2.321100 
# 
# From -- ./inp_files/38574.got.cif
#   From: 2010.05.17/outbox.cif.g08.bks.cpg/sg52_20_cif.got.tgz:38574.got - 2010.06.03 12:15:38.
