data_PCOD9412122
_publ_section_title
;
Structure prediction by ZEFSAII (Michael W. Deem and Ramdas Pophale) SiO2 
 PCOD9412122
Probable space group: P N N A
;
_chemical_formula_sum "Si O2"
_cell_formula_units_Z 56
_cell_length_a 26.067802
_cell_length_b 6.820598
_cell_length_c 14.427329
_cell_angle_alpha 90.000000
_cell_angle_beta 90.000000
_cell_angle_gamma 90.000000
_cell_volume 2565.150215
_symmetry_space_group_name_H-M "P N N A"
_symmetry_group_IT_number 52
_symmetry_cell_setting 'orthorhombic'
loop_
_space_group_symop_operation_xyz
x,y,z
1/2-x,-y,z
x,1/2-y,1/2-z
1/2-x,1/2+y,1/2-z
-x,-y,-z
1/2+x,y,-z
-x,1/2+y,1/2+z
1/2+x,1/2-y,1/2+z
loop_
_atom_site_type_symbol
_atom_site_label
_atom_site_fract_x
_atom_site_fract_y
_atom_site_fract_z
Si Si1 0.816705 0.178280 0.855751
Si Si2 0.196639 0.551040 0.986782
Si Si3 0.640811 0.270154 0.612483
Si Si4 0.528871 0.387030 0.157738
Si Si5 0.889973 0.275894 0.146521
Si Si6 0.941336 0.562217 0.478237
Si Si7 0.413401 0.398017 0.165097
O O1 0.806849 0.250000 0.750000
O O2 0.871948 0.269482 0.888914
O O3 0.821266 0.944128 0.855241
O O4 0.784938 0.290314 0.933911
O O5 0.250000 0.500000 0.937462
O O6 0.154545 0.633853 0.916705
O O7 0.170487 0.364204 0.037660
O O8 0.592511 0.383540 0.567357
O O9 0.615765 0.103573 0.679409
O O10 0.529929 0.250000 0.250000
O O11 0.561692 0.581569 0.166005
O O12 0.554395 0.262570 0.077655
O O13 0.470158 0.432563 0.129325
O O14 0.868339 0.250000 0.250000
O O15 0.913161 0.092286 0.089364
O O16 0.000000 0.500000 0.500000
O O17 0.420974 0.250000 0.250000
#
# Coordination Sequence:
#
# PCOD9412122 Si02
#       7
#     8   8   8   8   8   8   8
#     4  10  22  44  68 103 141 178 232 283 349 434
#     4  11  26  48  71 101 134 181 243 307 364 422
#     4  11  22  42  69  95 140 188 221 289 353 413
#     4  11  22  40  62  99 137 184 235 278 342 426
#     4  12  25  46  70 101 140 185 243 303 358 428
#     4  12  24  38  69 101 140 187 225 280 354 426
#     4   9  21  36  60  98 141 182 227 269 327 422
#
# _framework density 21.831081000000001
#
# number of rings (size 3 to 8) (size 9 to 14) (size 15 to 20)
#    0.000    1.143    4.286    1.714    2.000    6.857 
#    5.143    2.143    0.000    0.000    0.000    0.000 
#    0.000    0.000    0.000    0.000    0.000    0.000 
#
# Total GULP energy -312323.341187 kJ/mol
# GULP energy per Si atom -5577.202521 kJ/mol
# Density = 2.178139 g / cm^3
# Si number density = 21.831081 Si / 1000 Ang^3
#
#
#
# Elastic Constant Matrix: (Units=GPa)
#
#
# Indices 1 2 3 4 5 6 
#
# 1 96.6457 12.9544 10.9341 0.0000 0.0000 0.0000
# 2 12.9544 137.1539 31.8277 0.0000 0.0000 0.0000
# 3 10.9341 31.8277 83.9372 0.0000 0.0000 0.0000
# 4 0.0000 0.0000 0.0000 40.5716 0.0000 0.0000
# 5 0.0000 0.0000 0.0000 0.0000 15.8098 0.0000
# 6 0.0000 0.0000 0.0000 0.0000 0.0000 13.6677
#
#
#
# Elastic Compliance Matrix: (Units=1/GPa)
#
#
# Indices 1 2 3 4 5 6 
#
# 1 0.010571 -0.000744 -0.001095 0.000000 0.000000 0.000000
# 2 -0.000744 0.008047 -0.002954 0.000000 0.000000 0.000000
# 3 -0.001095 -0.002954 0.013177 0.000000 0.000000 0.000000
# 4 0.000000 0.000000 0.000000 0.024648 0.000000 0.000000
# 5 0.000000 0.000000 0.000000 0.000000 0.063252 0.000000
# 6 0.000000 0.000000 0.000000 0.000000 0.000000 0.073165
#
#
# Mechanical properties :
#
#
# Convention : Reuss Voigt Hill
#
# Bulk Modulus (GPa) = 45.03023 47.68547 46.35785
# Shear Modulus (GPa) = 23.82671 31.47785 27.65228
#
# Velocity S-wave (km/s) = 3.30724 3.80133 3.56286
# Velocity P-wave (km/s) = 5.93761 6.41539 6.18112
#
# Compressibility (1/GPa) = 0.02220730
#
# Stress axis : x y z
#
# Youngs Moduli (GPa) = 94.60105 124.27047 75.89261
#
# Poissons Ratio (x) = 0.09250 0.08308
# Poissons Ratio (y) = 0.07042 0.22421
# Poissons Ratio (z) = 0.10356 0.36713
#
# Static dielectric constant tensor:
#      x y z
#    x 1.888120 0.000000 0.000000 
#    y 0.000000 1.822710 0.000000 
#    z 0.000000 0.000000 1.969060 
# 
# From -- ./inp_files/29696.got.cif
#   From: 2010.05.17/outbox.cif.g08.bks.cpg/sg52_15_cif.got.tgz:29696.got - 2010.06.03 12:15:38.
