data_PCOD9412389
_publ_section_title
;
Structure prediction by ZEFSAII (Michael W. Deem and Ramdas Pophale) SiO2 
 PCOD9412389
Probable space group: P N N A
;
_chemical_formula_sum "Si O2"
_cell_formula_units_Z 48
_cell_length_a 14.368976
_cell_length_b 25.727472
_cell_length_c 6.397840
_cell_angle_alpha 90.000000
_cell_angle_beta 90.000000
_cell_angle_gamma 90.000000
_cell_volume 2365.137034
_symmetry_space_group_name_H-M "P N N A"
_symmetry_group_IT_number 52
_symmetry_cell_setting 'orthorhombic'
loop_
_space_group_symop_operation_xyz
x,y,z
1/2-x,-y,z
x,1/2-y,1/2-z
1/2-x,1/2+y,1/2-z
-x,-y,-z
1/2+x,y,-z
-x,1/2+y,1/2+z
1/2+x,1/2-y,1/2+z
loop_
_atom_site_type_symbol
_atom_site_label
_atom_site_fract_x
_atom_site_fract_y
_atom_site_fract_z
Si Si1 0.644283 0.016080 0.874341
Si Si2 0.025157 0.833111 0.918084
Si Si3 0.496042 0.929855 0.802038
Si Si4 0.194462 0.285869 0.054306
Si Si5 0.458031 0.750000 0.750000
Si Si6 0.845437 0.250000 0.250000
Si Si7 0.616766 0.114536 0.596879
O O1 0.648359 0.062179 0.707281
O O2 0.750000 0.000000 0.928886
O O3 0.579601 0.970958 0.772921
O O4 0.585548 0.039524 0.070559
O O5 0.942990 0.851071 0.762747
O O6 0.098709 0.803470 0.774076
O O7 0.040819 0.885307 0.049918
O O8 0.008169 0.788588 0.092319
O O9 0.446732 0.902691 0.601580
O O10 0.169256 0.250000 0.250000
O O11 0.206014 0.347598 0.071720
O O12 0.109143 0.284034 0.893443
O O13 0.280901 0.257326 0.950587
#
# Coordination Sequence:
#
# PCOD9412389 Si02
#       7
#     8   8   8   8   4   4   8
#     4  10  24  43  65  98 130 167 229 288 346 411
#     4  11  23  40  63  94 126 172 220 266 332 405
#     4  10  23  43  68  92 130 178 222 283 347 411
#     4  11  23  40  60  93 131 171 216 269 332 404
#     4  11  20  40  64  85 126 172 214 261 324 406
#     4  11  28  36  58 101 138 168 220 275 332 414
#     4  11  22  41  69  90 124 177 225 272 339 406
#
# _framework density 20.294806000000001
#
# number of rings (size 3 to 8) (size 9 to 14) (size 15 to 20)
#    0.000    1.333    3.333    1.500    1.167    4.667 
#    0.000    0.000    0.000    0.000    0.000    0.000 
#    0.000    0.000    0.000    0.000    0.000    0.000 
#
# Total GULP energy -267420.700957 kJ/mol
# GULP energy per Si atom -5571.264603 kJ/mol
# Density = 2.024861 g / cm^3
# Si number density = 20.294806 Si / 1000 Ang^3
#
#
#
# Elastic Constant Matrix: (Units=GPa)
#
#
# Indices 1 2 3 4 5 6 
#
# 1 58.1778 38.4133 2.5112 0.0000 0.0000 0.0000
# 2 38.4133 128.7360 16.8839 0.0000 0.0000 0.0000
# 3 2.5112 16.8839 66.0600 0.0000 0.0000 0.0000
# 4 0.0000 0.0000 0.0000 36.1351 0.0000 0.0000
# 5 0.0000 0.0000 0.0000 0.0000 10.2289 0.0000
# 6 0.0000 0.0000 0.0000 0.0000 0.0000 -619.5085
#
#
#
# Elastic Compliance Matrix: (Units=1/GPa)
#
#
# Indices 1 2 3 4 5 6 
#
# 1 0.021452 -0.006512 0.000849 0.000000 0.000000 0.000000
# 2 -0.006512 0.010014 -0.002312 0.000000 0.000000 0.000000
# 3 0.000849 -0.002312 0.015696 0.000000 0.000000 0.000000
# 4 0.000000 0.000000 0.000000 0.027674 0.000000 0.000000
# 5 0.000000 0.000000 0.000000 0.000000 0.097762 0.000000
# 6 0.000000 0.000000 0.000000 0.000000 0.000000 -0.001614
#
#
# Mechanical properties :
#
#
# Convention : Reuss Voigt Hill
#
# Bulk Modulus (GPa) = 32.03896 40.95451 36.49674
# Shear Modulus (GPa) = 25.33707 -101.61787 -38.14040
#
# Velocity S-wave (km/s) = 3.53718 -7.08375 -4.33981
# Velocity P-wave (km/s) = 5.70116 6.83246 2.66264
#
# Compressibility (1/GPa) = 0.03121200
#
# Stress axis : x y z
#
# Youngs Moduli (GPa) = 46.61570 99.85763 63.70902
#
# Poissons Ratio (x) = 0.65031 -0.05409
# Poissons Ratio (y) = 0.30358 0.14729
# Poissons Ratio (z) = -0.03958 0.23086
#
# Static dielectric constant tensor:
#      x y z
#    x 1.712380 0.000000 0.000000 
#    y 0.000000 1.824500 0.000000 
#    z 0.000000 0.000000 1.746810 
# 
# From -- ./inp_files/2500.got.cif
#   From: 2010.05.17/outbox.cif.g08.bks.cpg/sg52_2_cif.got.tgz:2500.got - 2010.06.03 12:15:38.
