data_PCOD9412108
_publ_section_title
;
Structure prediction by ZEFSAII (Michael W. Deem and Ramdas Pophale) SiO2 
 PCOD9412108
Probable space group: P N N A
;
_chemical_formula_sum "Si O2"
_cell_formula_units_Z 40
_cell_length_a 10.822259
_cell_length_b 28.053908
_cell_length_c 4.974410
_cell_angle_alpha 90.000000
_cell_angle_beta 90.000000
_cell_angle_gamma 90.000000
_cell_volume 1510.263997
_symmetry_space_group_name_H-M "P N N A"
_symmetry_group_IT_number 52
_symmetry_cell_setting 'orthorhombic'
loop_
_space_group_symop_operation_xyz
x,y,z
1/2-x,-y,z
x,1/2-y,1/2-z
1/2-x,1/2+y,1/2-z
-x,-y,-z
1/2+x,y,-z
-x,1/2+y,1/2+z
1/2+x,1/2-y,1/2+z
loop_
_atom_site_type_symbol
_atom_site_label
_atom_site_fract_x
_atom_site_fract_y
_atom_site_fract_z
Si Si1 0.352038 0.830329 0.472483
Si Si2 0.250000 0.500000 0.502250
Si Si3 0.033356 0.466678 0.237144
Si Si4 0.311017 0.250000 0.750000
Si Si5 0.975868 0.326982 0.532763
Si Si6 0.335935 0.402750 0.763480
O O1 0.272435 0.783991 0.561744
O O2 0.405480 0.830085 0.170197
O O3 0.262470 0.874048 0.563578
O O4 0.470801 0.827785 0.670033
O O5 0.176619 0.465679 0.296337
O O6 0.297286 0.456866 0.691328
O O7 0.000000 0.500000 0.500000
O O8 0.975475 0.416754 0.147966
O O9 0.000000 0.500000 0.000000
O O10 0.399430 0.281318 0.560577
O O11 0.877287 0.369834 0.487417
#
# Coordination Sequence:
#
# PCOD9412108 Si02
#       6
#     8   4   8   4   8   8
#     4  11  25  44  67  97 134 169 209 269 326 382
#     4  10  22  44  66  92 132 176 222 276 326 378
#     4  10  23  40  62  91 124 168 220 266 316 378
#     4  10  24  44  72  98 128 170 214 260 326 394
#     4  11  25  43  67  99 131 167 216 266 322 392
#     4  10  24  42  66  96 130 174 220 266 325 388
#
# _framework density 26.485434000000001
#
# number of rings (size 3 to 8) (size 9 to 14) (size 15 to 20)
#    0.000    1.600    0.000    2.400    0.000   22.400 
#    0.000    0.000    0.000    0.000    0.000    0.000 
#    0.000    0.000    0.000    0.000    0.000    0.000 
#
# Total GULP energy -223339.222279 kJ/mol
# GULP energy per Si atom -5583.480557 kJ/mol
# Density = 2.642515 g / cm^3
# Si number density = 26.485434 Si / 1000 Ang^3
#
#
#
# Elastic Constant Matrix: (Units=GPa)
#
#
# Indices 1 2 3 4 5 6 
#
# 1 73.6884 42.1252 10.9018 0.0000 0.0000 0.0000
# 2 42.1252 175.7494 6.9654 0.0000 0.0000 0.0000
# 3 10.9018 6.9654 106.6378 0.0000 0.0000 0.0000
# 4 0.0000 0.0000 0.0000 19.7832 0.0000 0.0000
# 5 0.0000 0.0000 0.0000 0.0000 36.3382 0.0000
# 6 0.0000 0.0000 0.0000 0.0000 0.0000 54.6024
#
#
#
# Elastic Compliance Matrix: (Units=1/GPa)
#
#
# Indices 1 2 3 4 5 6 
#
# 1 0.015926 -0.003763 -0.001382 0.000000 0.000000 0.000000
# 2 -0.003763 0.006594 -0.000046 0.000000 0.000000 0.000000
# 3 -0.001382 -0.000046 0.009522 0.000000 0.000000 0.000000
# 4 0.000000 0.000000 0.000000 0.050548 0.000000 0.000000
# 5 0.000000 0.000000 0.000000 0.000000 0.027519 0.000000
# 6 0.000000 0.000000 0.000000 0.000000 0.000000 0.018314
#
#
# Mechanical properties :
#
#
# Convention : Reuss Voigt Hill
#
# Bulk Modulus (GPa) = 46.16882 52.89560 49.53221
# Shear Modulus (GPa) = 34.24076 41.88363 38.06220
#
# Velocity S-wave (km/s) = 3.59947 3.98098 3.79502
# Velocity P-wave (km/s) = 5.89445 6.41450 6.15997
#
# Compressibility (1/GPa) = 0.02165964
#
# Stress axis : x y z
#
# Youngs Moduli (GPa) = 62.79012 151.66277 105.02139
#
# Poissons Ratio (x) = 0.57063 0.14518
# Poissons Ratio (y) = 0.23625 0.00483
# Poissons Ratio (z) = 0.08680 0.00698
#
# Static dielectric constant tensor:
#      x y z
#    x 3.403500 0.000000 0.000000 
#    y 0.000000 2.026490 0.000000 
#    z 0.000000 0.000000 1.999480 
# 
# From -- ./inp_files/1513.got.cif
#   From: 2010.05.17/outbox.cif.g08.bks.cpg/sg52_1_cif.got.tgz:1513.got - 2010.06.03 12:15:38.
