data_PCOD9412402
_publ_section_title
;
Structure prediction by ZEFSAII (Michael W. Deem and Ramdas Pophale) SiO2 
 PCOD9412402
Probable space group: P N N A
;
_chemical_formula_sum "Si O2"
_cell_formula_units_Z 24
_cell_length_a 14.069811
_cell_length_b 14.143420
_cell_length_c 5.420337
_cell_angle_alpha 90.000000
_cell_angle_beta 90.000000
_cell_angle_gamma 90.000000
_cell_volume 1078.621296
_symmetry_space_group_name_H-M "P N N A"
_symmetry_group_IT_number 52
_symmetry_cell_setting 'orthorhombic'
loop_
_space_group_symop_operation_xyz
x,y,z
1/2-x,-y,z
x,1/2-y,1/2-z
1/2-x,1/2+y,1/2-z
-x,-y,-z
1/2+x,y,-z
-x,1/2+y,1/2+z
1/2+x,1/2-y,1/2+z
loop_
_atom_site_type_symbol
_atom_site_label
_atom_site_fract_x
_atom_site_fract_y
_atom_site_fract_z
Si Si1 0.958623 0.250000 0.750000
Si Si2 0.042952 0.044288 0.753759
Si Si3 0.750000 0.000000 0.383552
Si Si4 0.271218 0.290170 0.006630
O O1 0.018862 0.155151 0.750591
O O2 0.880525 0.254568 0.970044
O O3 0.154728 0.022717 0.763623
O O4 0.000000 0.000000 0.500000
O O5 0.000000 0.000000 0.000000
O O6 0.730135 0.903054 0.527609
O O7 0.220397 0.250000 0.250000
O O8 0.233559 0.250000 0.750000
#
# Coordination Sequence:
#
# PCOD9412402 Si02
#       4
#     4   8   4   8
#     4  10  24  48  70 102 146 192 238 306 366 426
#     4  12  27  48  74 106 151 193 245 308 370 438
#     4  12  26  48  76 112 146 202 248 306 370 448
#     4  10  23  43  70 102 145 183 244 298 356 440
#
# _framework density 22.250627999999999
#
# number of rings (size 3 to 8) (size 9 to 14) (size 15 to 20)
#    1.000    0.000    3.333    2.000    2.333    5.333 
#    0.000    0.000    0.000    0.000    0.000    0.000 
#    0.000    0.000    0.000    0.000    0.000    0.000 
#
# Total GULP energy -134035.724304 kJ/mol
# GULP energy per Si atom -5584.821846 kJ/mol
# Density = 2.219998 g / cm^3
# Si number density = 22.250628 Si / 1000 Ang^3
#
#
#
# Elastic Constant Matrix: (Units=GPa)
#
#
# Indices 1 2 3 4 5 6 
#
# 1 136.3284 18.8356 39.4881 0.0000 0.0000 0.0000
# 2 18.8356 195.0578 74.0296 0.0000 0.0000 0.0000
# 3 39.4881 74.0296 172.5574 0.0000 0.0000 0.0000
# 4 0.0000 0.0000 0.0000 26.2888 0.0000 0.0000
# 5 0.0000 0.0000 0.0000 0.0000 -14.7054 0.0000
# 6 0.0000 0.0000 0.0000 0.0000 0.0000 40.3630
#
#
#
# Elastic Compliance Matrix: (Units=1/GPa)
#
#
# Indices 1 2 3 4 5 6 
#
# 1 0.007857 -0.000091 -0.001759 0.000000 0.000000 0.000000
# 2 -0.000091 0.006125 -0.002607 0.000000 0.000000 0.000000
# 3 -0.001759 -0.002607 0.007316 0.000000 0.000000 0.000000
# 4 0.000000 0.000000 0.000000 0.038039 0.000000 0.000000
# 5 0.000000 0.000000 0.000000 0.000000 -0.068002 0.000000
# 6 0.000000 0.000000 0.000000 0.000000 0.000000 0.024775
#
#
# Mechanical properties :
#
#
# Convention : Reuss Voigt Hill
#
# Bulk Modulus (GPa) = 80.74690 85.40560 83.07625
# Shear Modulus (GPa) = 171.51526 35.16198 103.33862
#
# Velocity S-wave (km/s) = 8.78924 3.97957 6.82230
# Velocity P-wave (km/s) = 11.80548 7.71899 9.97377
#
# Compressibility (1/GPa) = 0.01238438
#
# Stress axis : x y z
#
# Youngs Moduli (GPa) = 127.26997 163.26989 136.68601
#
# Poissons Ratio (x) = 0.01488 0.24043
# Poissons Ratio (y) = 0.01160 0.35631
# Poissons Ratio (z) = 0.22386 0.42561
#
# Static dielectric constant tensor:
#      x y z
#    x 1.823780 0.000000 0.000000 
#    y 0.000000 1.805760 0.000000 
#    z 0.000000 0.000000 1.880590 
# 
# From -- ./inp_files/1720.got.cif
#   From: 2010.05.17/outbox.cif.g08.bks.cpg/sg52_1_cif.got.tgz:1720.got - 2010.06.03 12:15:38.
