data_PCOD9412491
_publ_section_title
;
Structure prediction by ZEFSAII (Michael W. Deem and Ramdas Pophale) SiO2 
 PCOD9412491
Probable space group: P N N A
;
_chemical_formula_sum "Si O2"
_cell_formula_units_Z 40
_cell_length_a 12.296444
_cell_length_b 18.549683
_cell_length_c 7.912666
_cell_angle_alpha 90.000000
_cell_angle_beta 90.000000
_cell_angle_gamma 90.000000
_cell_volume 1804.840645
_symmetry_space_group_name_H-M "P N N A"
_symmetry_group_IT_number 52
_symmetry_cell_setting 'orthorhombic'
loop_
_space_group_symop_operation_xyz
x,y,z
1/2-x,-y,z
x,1/2-y,1/2-z
1/2-x,1/2+y,1/2-z
-x,-y,-z
1/2+x,y,-z
-x,1/2+y,1/2+z
1/2+x,1/2-y,1/2+z
loop_
_atom_site_type_symbol
_atom_site_label
_atom_site_fract_x
_atom_site_fract_y
_atom_site_fract_z
Si Si1 0.969290 0.464305 0.682561
Si Si2 0.157229 0.668054 0.192313
Si Si3 0.382019 0.887224 0.215750
Si Si4 0.696777 0.424991 0.352682
Si Si5 0.384887 0.169574 0.693062
O O1 0.898276 0.391860 0.686359
O O2 0.902688 0.529235 0.767336
O O3 0.000000 0.500000 0.500000
O O4 0.088173 0.443824 0.753439
O O5 0.142235 0.750000 0.250000
O O6 0.285219 0.649753 0.182513
O O7 0.106627 0.661213 0.007540
O O8 0.498429 0.850295 0.230836
O O9 0.343072 0.884357 0.020629
O O10 0.750000 0.500000 0.410223
O O11 0.789219 0.381821 0.257438
O O12 0.356539 0.250000 0.750000
#
# Coordination Sequence:
#
# PCOD9412491 Si02
#       5
#     8   8   8   8   8
#     4  10  23  45  80 104 139 198 249 307 375 453
#     4  12  28  47  73 107 155 197 250 311 382 450
#     4  11  24  47  75 103 145 192 252 301 378 443
#     4  11  23  45  76 105 142 191 241 303 374 443
#     4  12  29  45  71 109 151 195 253 310 378 457
#
# _framework density 22.162621999999999
#
# number of rings (size 3 to 8) (size 9 to 14) (size 15 to 20)
#    0.000    0.800    2.000    4.800   11.200    3.200 
#    0.000    0.000    0.000    0.000    0.000    0.000 
#    0.000    0.000    0.000    0.000    0.000    0.000 
#
# Total GULP energy -223773.492770 kJ/mol
# GULP energy per Si atom -5594.337319 kJ/mol
# Density = 2.211218 g / cm^3
# Si number density = 22.162622 Si / 1000 Ang^3
#
#
#
# Elastic Constant Matrix: (Units=GPa)
#
#
# Indices 1 2 3 4 5 6 
#
# 1 129.4162 33.8590 41.6643 0.0000 0.0000 0.0000
# 2 33.8590 121.9777 49.9227 0.0000 0.0000 0.0000
# 3 41.6643 49.9227 80.0284 0.0000 0.0000 0.0000
# 4 0.0000 0.0000 0.0000 23.0703 0.0000 0.0000
# 5 0.0000 0.0000 0.0000 0.0000 40.8534 0.0000
# 6 0.0000 0.0000 0.0000 0.0000 0.0000 25.5831
#
#
#
# Elastic Compliance Matrix: (Units=1/GPa)
#
#
# Indices 1 2 3 4 5 6 
#
# 1 0.009342 -0.000809 -0.004359 0.000000 0.000000 0.000000
# 2 -0.000809 0.011079 -0.006490 0.000000 0.000000 0.000000
# 3 -0.004359 -0.006490 0.018813 0.000000 0.000000 0.000000
# 4 0.000000 0.000000 0.000000 0.043346 0.000000 0.000000
# 5 0.000000 0.000000 0.000000 0.000000 0.024478 0.000000
# 6 0.000000 0.000000 0.000000 0.000000 0.000000 0.039088
#
#
# Mechanical properties :
#
#
# Convention : Reuss Voigt Hill
#
# Bulk Modulus (GPa) = 62.82030 64.70158 63.76094
# Shear Modulus (GPa) = 28.60930 31.63312 30.12121
#
# Velocity S-wave (km/s) = 3.59678 3.78209 3.69060
# Velocity P-wave (km/s) = 6.75691 6.95195 6.85512
#
# Compressibility (1/GPa) = 0.01591842
#
# Stress axis : x y z
#
# Youngs Moduli (GPa) = 107.04338 90.26068 53.15375
#
# Poissons Ratio (x) = 0.07304 0.23169
# Poissons Ratio (y) = 0.08662 0.34496
# Poissons Ratio (z) = 0.46658 0.58579
#
# Static dielectric constant tensor:
#      x y z
#    x 1.835040 0.000000 0.000000 
#    y 0.000000 1.809100 0.000000 
#    z 0.000000 0.000000 1.833930 
# 
# From -- ./inp_files/8500.got.cif
#   From: 2010.05.17/outbox.cif.g08.bks.cpg/sg52_5_cif.got.tgz:8500.got - 2010.06.03 12:15:38.
