data_PCOD9412446
_publ_section_title
;
Structure prediction by ZEFSAII (Michael W. Deem and Ramdas Pophale) SiO2 
 PCOD9412446
Probable space group: P N N A
;
_chemical_formula_sum "Si O2"
_cell_formula_units_Z 24
_cell_length_a 10.579653
_cell_length_b 5.257817
_cell_length_c 19.087878
_cell_angle_alpha 90.000000
_cell_angle_beta 90.000000
_cell_angle_gamma 90.000000
_cell_volume 1061.780000
_symmetry_space_group_name_H-M "P N N A"
_symmetry_group_IT_number 52
_symmetry_cell_setting 'orthorhombic'
loop_
_space_group_symop_operation_xyz
x,y,z
1/2-x,-y,z
x,1/2-y,1/2-z
1/2-x,1/2+y,1/2-z
-x,-y,-z
1/2+x,y,-z
-x,1/2+y,1/2+z
1/2+x,1/2-y,1/2+z
loop_
_atom_site_type_symbol
_atom_site_label
_atom_site_fract_x
_atom_site_fract_y
_atom_site_fract_z
Si Si1 0.464906 0.933052 0.921430
Si Si2 0.382086 0.442669 0.853565
Si Si3 0.639554 0.661508 0.824886
O O1 0.392962 0.663022 0.913491
O O2 0.590807 0.884086 0.875160
O O3 0.390733 0.163984 0.885637
O O4 0.500000 0.000000 0.000000
O O5 0.250000 0.500000 0.815674
O O6 0.510654 0.499729 0.811396
O O7 0.750000 0.500000 0.859866
O O8 0.687212 0.750000 0.750000
#
# Coordination Sequence:
#
# PCOD9412446 Si02
#       3
#     8   8   8
#     4  10  23  44  69  99 137 184 231 287 357 426
#     4  10  23  45  66 101 132 177 232 291 354 421
#     4  10  26  43  69 102 142 186 239 293 363 434
#
# _framework density 22.603555
#
# number of rings (size 3 to 8) (size 9 to 14) (size 15 to 20)
#    2.000    0.000    0.000    2.000    4.667    1.333 
#   12.000    0.000    0.000    0.000    0.000    0.000 
#    0.000    0.000    0.000    0.000    0.000    0.000 
#
# Total GULP energy -133828.269048 kJ/mol
# GULP energy per Si atom -5576.177877 kJ/mol
# Density = 2.255211 g / cm^3
# Si number density = 22.603555 Si / 1000 Ang^3
#
#
#
# Elastic Constant Matrix: (Units=GPa)
#
#
# Indices 1 2 3 4 5 6 
#
# 1 121.3537 42.4536 -11.3453 0.0000 0.0000 0.0000
# 2 42.4536 140.6718 26.4540 0.0000 0.0000 0.0000
# 3 -11.3453 26.4540 59.0508 0.0000 0.0000 0.0000
# 4 0.0000 0.0000 0.0000 29.0176 0.0000 0.0000
# 5 0.0000 0.0000 0.0000 0.0000 1.0649 0.0000
# 6 0.0000 0.0000 0.0000 0.0000 0.0000 39.6722
#
#
#
# Elastic Compliance Matrix: (Units=1/GPa)
#
#
# Indices 1 2 3 4 5 6 
#
# 1 0.009839 -0.003631 0.003517 0.000000 0.000000 0.000000
# 2 -0.003631 0.009103 -0.004775 0.000000 0.000000 0.000000
# 3 0.003517 -0.004775 0.019750 0.000000 0.000000 0.000000
# 4 0.000000 0.000000 0.000000 0.034462 0.000000 0.000000
# 5 0.000000 0.000000 0.000000 0.000000 0.939041 0.000000
# 6 0.000000 0.000000 0.000000 0.000000 0.000000 0.025207
#
#
# Mechanical properties :
#
#
# Convention : Reuss Voigt Hill
#
# Bulk Modulus (GPa) = 34.58653 48.46677 41.52665
# Shear Modulus (GPa) = 4.73119 31.51856 18.12488
#
# Velocity S-wave (km/s) = 1.44833 3.73823 2.83478
# Velocity P-wave (km/s) = 4.25811 6.33412 5.39688
#
# Compressibility (1/GPa) = 0.02891299
#
# Stress axis : x y z
#
# Youngs Moduli (GPa) = 101.63271 109.85964 50.63399
#
# Poissons Ratio (x) = 0.39888 -0.17808
# Poissons Ratio (y) = 0.36901 0.24180
# Poissons Ratio (z) = -0.35744 0.52462
#
# Static dielectric constant tensor:
#      x y z
#    x 1.945430 0.000000 0.000000 
#    y 0.000000 1.886850 0.000000 
#    z 0.000000 0.000000 1.763560 
# 
# From -- ./inp_files/31734.got.cif
#   From: 2010.05.17/outbox.cif.g08.bks.cpg/sg52_16_cif.got.tgz:31734.got - 2010.06.03 12:15:38.
