data_PCOD9412256
_publ_section_title
;
Structure prediction by ZEFSAII (Michael W. Deem and Ramdas Pophale) SiO2 
 PCOD9412256
Probable space group: P N N A
;
_chemical_formula_sum "Si O2"
_cell_formula_units_Z 36
_cell_length_a 22.254307
_cell_length_b 6.750765
_cell_length_c 10.050819
_cell_angle_alpha 90.000000
_cell_angle_beta 90.000000
_cell_angle_gamma 90.000000
_cell_volume 1509.970689
_symmetry_space_group_name_H-M "P N N A"
_symmetry_group_IT_number 52
_symmetry_cell_setting 'orthorhombic'
loop_
_space_group_symop_operation_xyz
x,y,z
1/2-x,-y,z
x,1/2-y,1/2-z
1/2-x,1/2+y,1/2-z
-x,-y,-z
1/2+x,y,-z
-x,1/2+y,1/2+z
1/2+x,1/2-y,1/2+z
loop_
_atom_site_type_symbol
_atom_site_label
_atom_site_fract_x
_atom_site_fract_y
_atom_site_fract_z
Si Si1 0.614658 0.380205 0.619391
Si Si2 0.336300 0.095494 0.626743
Si Si3 0.944906 0.649028 0.113618
Si Si4 0.229461 0.208199 0.950819
Si Si5 0.939594 0.250000 0.750000
O O1 0.665424 0.750000 0.250000
O O2 0.569738 0.298489 0.505572
O O3 0.681759 0.347705 0.563505
O O4 0.598338 0.600759 0.661909
O O5 0.405055 0.046508 0.594802
O O6 0.305051 0.877396 0.633808
O O7 0.250000 0.000000 0.888358
O O8 0.293602 0.193076 0.514901
O O9 0.921006 0.750000 0.250000
O O10 0.014556 0.628292 0.152593
O O11 0.107260 0.250000 0.250000
#
# Coordination Sequence:
#
# PCOD9412256 Si02
#       5
#     8   8   8   8   4
#     4  11  25  47  69 108 151 203 265 318 405 473
#     4  10  23  39  72 107 148 189 262 329 396 469
#     4   9  23  46  72 109 145 193 261 326 404 465
#     4  10  25  42  66 101 149 201 252 316 393 479
#     4  10  24  46  78 102 156 198 262 334 394 488
#
# _framework density 23.841522999999999
#
# number of rings (size 3 to 8) (size 9 to 14) (size 15 to 20)
#    0.667    1.333    0.000    0.667    9.333    8.889 
#   10.000    0.000    0.000    0.000    0.000    0.000 
#    0.000    0.000    0.000    0.000    0.000    0.000 
#
# Total GULP energy -200747.139334 kJ/mol
# GULP energy per Si atom -5576.309426 kJ/mol
# Density = 2.378726 g / cm^3
# Si number density = 23.841523 Si / 1000 Ang^3
#
#
#
# Elastic Constant Matrix: (Units=GPa)
#
#
# Indices 1 2 3 4 5 6 
#
# 1 139.6398 67.5859 67.6034 0.0000 0.0000 0.0000
# 2 67.5859 160.7127 59.1199 0.0000 0.0000 0.0000
# 3 67.6034 59.1199 133.0948 0.0000 0.0000 0.0000
# 4 0.0000 0.0000 0.0000 45.7405 0.0000 0.0000
# 5 0.0000 0.0000 0.0000 0.0000 -59.5350 0.0000
# 6 0.0000 0.0000 0.0000 0.0000 0.0000 32.1989
#
#
#
# Elastic Compliance Matrix: (Units=1/GPa)
#
#
# Indices 1 2 3 4 5 6 
#
# 1 0.010547 -0.002946 -0.004049 0.000000 0.000000 0.000000
# 2 -0.002946 0.008261 -0.002173 0.000000 0.000000 0.000000
# 3 -0.004049 -0.002173 0.010535 0.000000 0.000000 0.000000
# 4 0.000000 0.000000 0.000000 0.021862 0.000000 0.000000
# 5 0.000000 0.000000 0.000000 0.000000 -0.016797 0.000000
# 6 0.000000 0.000000 0.000000 0.000000 0.000000 0.031057
#
#
# Mechanical properties :
#
#
# Convention : Reuss Voigt Hill
#
# Bulk Modulus (GPa) = 90.84656 91.34063 91.09359
# Shear Modulus (GPa) = 57.16237 19.62340 38.39289
#
# Velocity S-wave (km/s) = 4.90184 2.87204 4.01725
# Velocity P-wave (km/s) = 8.38000 7.02801 7.73361
#
# Compressibility (1/GPa) = 0.01100757
#
# Stress axis : x y z
#
# Youngs Moduli (GPa) = 94.81085 121.05698 94.92137
#
# Poissons Ratio (x) = 0.35666 0.38430
# Poissons Ratio (y) = 0.27933 0.20625
# Poissons Ratio (z) = 0.38386 0.26303
#
# Static dielectric constant tensor:
#      x y z
#    x 1.945480 0.000000 0.000000 
#    y 0.000000 4.112910 0.000000 
#    z 0.000000 0.000000 1.948930 
# 
# From -- ./inp_files/12912.got.cif
#   From: 2010.05.17/outbox.cif.g08.bks.cpg/sg52_7_cif.got.tgz:12912.got - 2010.06.03 12:15:38.
