data_PCOD9412144
_publ_section_title
;
Structure prediction by ZEFSAII (Michael W. Deem and Ramdas Pophale) SiO2 
 PCOD9412144
Probable space group: P N N A
;
_chemical_formula_sum "Si O2"
_cell_formula_units_Z 24
_cell_length_a 26.839211
_cell_length_b 5.461065
_cell_length_c 8.447970
_cell_angle_alpha 90.000000
_cell_angle_beta 90.000000
_cell_angle_gamma 90.000000
_cell_volume 1238.224672
_symmetry_space_group_name_H-M "P N N A"
_symmetry_group_IT_number 52
_symmetry_cell_setting 'orthorhombic'
loop_
_space_group_symop_operation_xyz
x,y,z
1/2-x,-y,z
x,1/2-y,1/2-z
1/2-x,1/2+y,1/2-z
-x,-y,-z
1/2+x,y,-z
-x,1/2+y,1/2+z
1/2+x,1/2-y,1/2+z
loop_
_atom_site_type_symbol
_atom_site_label
_atom_site_fract_x
_atom_site_fract_y
_atom_site_fract_z
Si Si1 0.283048 0.250000 0.750000
Si Si2 0.693078 0.907123 0.589127
Si Si3 0.620926 0.250000 0.750000
Si Si4 0.476906 0.505137 0.330392
O O1 0.250000 0.500000 0.734797
O O2 0.312438 0.219974 0.582872
O O3 0.686615 0.750000 0.750000
O O4 0.750000 0.000000 0.592284
O O5 0.655325 0.131158 0.615877
O O6 0.582657 0.449024 0.678041
O O7 0.488771 0.250000 0.250000
O O8 0.500000 0.500000 0.500000
O O9 0.497987 0.750000 0.250000
#
# Coordination Sequence:
#
# PCOD9412144 Si02
#       4
#     4   8   4   8
#     4  10  24  40  64  95 132 190 237 274 328 396
#     4  11  21  40  66  94 142 187 226 284 340 405
#     4  10  24  38  70 101 136 178 239 268 354 412
#     4  10  22  44  72  97 134 170 224 288 346 405
#
# _framework density 19.38259
#
# number of rings (size 3 to 8) (size 9 to 14) (size 15 to 20)
#    1.000    0.667    1.667    3.000    4.667    0.000 
#    0.000    6.667    0.000    0.000    0.000    0.000 
#    0.000    0.000    0.000    0.000    0.000    0.000 
#
# Total GULP energy -133668.367809 kJ/mol
# GULP energy per Si atom -5569.515325 kJ/mol
# Density = 1.933847 g / cm^3
# Si number density = 19.382590 Si / 1000 Ang^3
#
#
#
# Elastic Constant Matrix: (Units=GPa)
#
#
# Indices 1 2 3 4 5 6 
#
# 1 46.6163 25.1962 49.4425 0.0000 0.0000 0.0000
# 2 25.1962 153.1173 88.6655 0.0000 0.0000 0.0000
# 3 49.4425 88.6655 205.8282 0.0000 0.0000 0.0000
# 4 0.0000 0.0000 0.0000 38.5913 0.0000 0.0000
# 5 0.0000 0.0000 0.0000 0.0000 2.1020 0.0000
# 6 0.0000 0.0000 0.0000 0.0000 0.0000 71.6294
#
#
#
# Elastic Compliance Matrix: (Units=1/GPa)
#
#
# Indices 1 2 3 4 5 6 
#
# 1 0.028896 -0.000980 -0.006519 0.000000 0.000000 0.000000
# 2 -0.000980 0.008735 -0.003527 0.000000 0.000000 0.000000
# 3 -0.006519 -0.003527 0.007944 0.000000 0.000000 0.000000
# 4 0.000000 0.000000 0.000000 0.025913 0.000000 0.000000
# 5 0.000000 0.000000 0.000000 0.000000 0.475740 0.000000
# 6 0.000000 0.000000 0.000000 0.000000 0.000000 0.013961
#
#
# Mechanical properties :
#
#
# Convention : Reuss Voigt Hill
#
# Bulk Modulus (GPa) = 42.51397 81.35226 61.93312
# Shear Modulus (GPa) = 8.45909 38.61504 23.53706
#
# Velocity S-wave (km/s) = 2.09135 4.46831 3.48852
# Velocity P-wave (km/s) = 5.27384 8.28758 6.94613
#
# Compressibility (1/GPa) = 0.02352168
#
# Stress axis : x y z
#
# Youngs Moduli (GPa) = 34.60741 114.48514 125.88406
#
# Poissons Ratio (x) = 0.11220 0.82063
# Poissons Ratio (y) = 0.03392 0.44403
# Poissons Ratio (z) = 0.22560 0.40382
#
# Static dielectric constant tensor:
#      x y z
#    x 1.659650 0.000000 0.000000 
#    y 0.000000 1.719420 0.000000 
#    z 0.000000 0.000000 1.655260 
# 
# From -- ./inp_files/13796.got.cif
#   From: 2010.05.17/outbox.cif.g08.bks.cpg/sg52_7_cif.got.tgz:13796.got - 2010.06.03 12:15:38.
