data_PCOD9412794
_publ_section_title
;
Structure prediction by ZEFSAII (Michael W. Deem and Ramdas Pophale) SiO2 
 PCOD9412794
Probable space group: P N N A
;
_chemical_formula_sum "Si O2"
_cell_formula_units_Z 44
_cell_length_a 16.875840
_cell_length_b 5.113412
_cell_length_c 22.800909
_cell_angle_alpha 90.000000
_cell_angle_beta 90.000000
_cell_angle_gamma 90.000000
_cell_volume 1967.561640
_symmetry_space_group_name_H-M "P N N A"
_symmetry_group_IT_number 52
_symmetry_cell_setting 'orthorhombic'
loop_
_space_group_symop_operation_xyz
x,y,z
1/2-x,-y,z
x,1/2-y,1/2-z
1/2-x,1/2+y,1/2-z
-x,-y,-z
1/2+x,y,-z
-x,1/2+y,1/2+z
1/2+x,1/2-y,1/2+z
loop_
_atom_site_type_symbol
_atom_site_label
_atom_site_fract_x
_atom_site_fract_y
_atom_site_fract_z
Si Si1 0.074474 0.564186 0.165601
Si Si2 0.307851 0.746543 0.089731
Si Si3 0.418511 0.658451 0.652361
Si Si4 0.695611 0.250000 0.250000
Si Si5 0.032439 0.750000 0.750000
Si Si6 0.195506 0.750000 0.250000
Si Si7 0.694049 0.252119 0.456162
O O1 0.117744 0.328388 0.131270
O O2 0.142003 0.745791 0.192402
O O3 0.005208 0.732200 0.136050
O O4 0.026400 0.456696 0.221037
O O5 0.250000 0.500000 0.096686
O O6 0.250000 0.000000 0.097234
O O7 0.338274 0.731705 0.022457
O O8 0.362629 0.827165 0.696702
O O9 0.426852 0.398208 0.693900
O O10 0.370105 0.673708 0.592526
O O11 0.750000 0.500000 0.264997
O O12 0.250000 0.500000 0.248954
O O13 0.750000 0.500000 0.457749
O O14 0.750000 0.000000 0.442850
#
# Coordination Sequence:
#
# PCOD9412794 Si02
#       7
#     8   8   8   4   4   4   8
#     4  12  26  43  69 101 147 189 235 306 364 435
#     4  10  25  48  73 104 139 188 251 304 362 433
#     4  12  25  43  68 103 146 188 235 301 361 432
#     4  12  24  40  65  97 134 184 234 278 352 428
#     4  12  24  44  64 102 152 186 230 294 354 450
#     4  12  26  44  67 101 142 190 244 288 364 444
#     4  10  24  48  75 105 142 188 250 309 361 431
#
# _framework density 22.362703
#
# number of rings (size 3 to 8) (size 9 to 14) (size 15 to 20)
#    0.000    0.727    3.636    2.727    5.091    3.636 
#    0.000    0.909    0.000    0.000    0.000    0.000 
#    0.000    0.000    0.000    0.000    0.000    0.000 
#
# Total GULP energy -245554.516703 kJ/mol
# GULP energy per Si atom -5580.784471 kJ/mol
# Density = 2.231180 g / cm^3
# Si number density = 22.362703 Si / 1000 Ang^3
#
#
#
# Elastic Constant Matrix: (Units=GPa)
#
#
# Indices 1 2 3 4 5 6 
#
# 1 123.2559 43.4010 71.3837 0.0000 0.0000 0.0000
# 2 43.4010 136.6380 30.2981 0.0000 0.0000 0.0000
# 3 71.3837 30.2981 130.7413 0.0000 0.0000 0.0000
# 4 0.0000 0.0000 0.0000 29.0698 0.0000 0.0000
# 5 0.0000 0.0000 0.0000 0.0000 -9.1769 0.0000
# 6 0.0000 0.0000 0.0000 0.0000 0.0000 23.4923
#
#
#
# Elastic Compliance Matrix: (Units=1/GPa)
#
#
# Indices 1 2 3 4 5 6 
#
# 1 0.012704 -0.002632 -0.006326 0.000000 0.000000 0.000000
# 2 -0.002632 0.008261 -0.000477 0.000000 0.000000 0.000000
# 3 -0.006326 -0.000477 0.011213 0.000000 0.000000 0.000000
# 4 0.000000 0.000000 0.000000 0.034400 0.000000 0.000000
# 5 0.000000 0.000000 0.000000 0.000000 -0.108969 0.000000
# 6 0.000000 0.000000 0.000000 0.000000 0.000000 0.042567
#
#
# Mechanical properties :
#
#
# Convention : Reuss Voigt Hill
#
# Bulk Modulus (GPa) = 75.15149 75.64453 75.39801
# Shear Modulus (GPa) = 212.92368 25.04722 118.98545
#
# Velocity S-wave (km/s) = 9.76834 3.35034 7.30223
# Velocity P-wave (km/s) = 12.68487 6.99042 10.24138
#
# Compressibility (1/GPa) = 0.01330646
#
# Stress axis : x y z
#
# Youngs Moduli (GPa) = 78.71553 121.05749 89.17983
#
# Poissons Ratio (x) = 0.31868 0.56417
# Poissons Ratio (y) = 0.20721 0.04254
# Poissons Ratio (z) = 0.49797 0.05775
#
# Static dielectric constant tensor:
#      x y z
#    x 1.847900 0.000000 0.000000 
#    y 0.000000 1.913480 0.000000 
#    z 0.000000 0.000000 1.947110 
# 
# From -- ./inp_files/40786.got.cif
#   From: 2010.05.17/outbox.cif.g08.bks.cpg/sg52_21_cif.got.tgz:40786.got - 2010.06.03 12:15:38.
