data_PCOD9412124
_publ_section_title
;
Structure prediction by ZEFSAII (Michael W. Deem and Ramdas Pophale) SiO2 
 PCOD9412124
Probable space group: P N N A
;
_chemical_formula_sum "Si O2"
_cell_formula_units_Z 40
_cell_length_a 12.272831
_cell_length_b 5.759069
_cell_length_c 22.341249
_cell_angle_alpha 90.000000
_cell_angle_beta 90.000000
_cell_angle_gamma 90.000000
_cell_volume 1579.081279
_symmetry_space_group_name_H-M "P N N A"
_symmetry_group_IT_number 52
_symmetry_cell_setting 'orthorhombic'
loop_
_space_group_symop_operation_xyz
x,y,z
1/2-x,-y,z
x,1/2-y,1/2-z
1/2-x,1/2+y,1/2-z
-x,-y,-z
1/2+x,y,-z
-x,1/2+y,1/2+z
1/2+x,1/2-y,1/2+z
loop_
_atom_site_type_symbol
_atom_site_label
_atom_site_fract_x
_atom_site_fract_y
_atom_site_fract_z
Si Si1 0.069662 0.508228 0.754791
Si Si2 0.697496 0.246089 0.078373
Si Si3 0.866185 0.054905 0.836469
Si Si4 0.420449 0.826239 0.037241
Si Si5 0.515555 0.560525 0.881942
O O1 0.120494 0.250000 0.750000
O O2 0.964704 0.485199 0.710252
O O3 0.025098 0.550509 0.821416
O O4 0.135047 0.750000 0.750000
O O5 0.750000 0.500000 0.093310
O O6 0.576609 0.247349 0.105419
O O7 0.750000 0.000000 0.097204
O O8 0.678690 0.232978 0.006910
O O9 0.880024 0.915145 0.898403
O O10 0.750000 0.000000 0.808493
O O11 0.874038 0.316110 0.862455
O O12 0.483374 0.598445 0.060099
O O13 0.500000 0.000000 0.000000
#
# Coordination Sequence:
#
# PCOD9412124 Si02
#       5
#     8   8   8   8   8
#     4  10  22  44  69 101 142 189 236 297 362 436
#     4  12  28  45  72 108 146 194 251 307 366 430
#     4  11  25  42  71 108 152 195 239 302 376 456
#     4  12  24  44  72 104 152 195 244 302 377 442
#     4  11  25  46  73 105 149 196 252 308 375 451
#
# _framework density 25.331188000000001
#
# number of rings (size 3 to 8) (size 9 to 14) (size 15 to 20)
#    0.000    0.800    4.000    2.400    5.600    2.400 
#    0.000    0.000    0.000   14.400    0.000    0.000 
#    0.000    0.000    0.000    0.000    0.000    0.000 
#
# Total GULP energy -223184.129898 kJ/mol
# GULP energy per Si atom -5579.603247 kJ/mol
# Density = 2.527353 g / cm^3
# Si number density = 25.331188 Si / 1000 Ang^3
#
#
#
# Elastic Constant Matrix: (Units=GPa)
#
#
# Indices 1 2 3 4 5 6 
#
# 1 98.5094 51.4967 9.4518 0.0000 0.0000 0.0000
# 2 51.4967 197.4049 15.8073 0.0000 0.0000 0.0000
# 3 9.4518 15.8073 112.0281 0.0000 0.0000 0.0000
# 4 0.0000 0.0000 0.0000 42.5795 0.0000 0.0000
# 5 0.0000 0.0000 0.0000 0.0000 -31.2226 0.0000
# 6 0.0000 0.0000 0.0000 0.0000 0.0000 29.2355
#
#
#
# Elastic Compliance Matrix: (Units=1/GPa)
#
#
# Indices 1 2 3 4 5 6 
#
# 1 0.011790 -0.003030 -0.000567 0.000000 0.000000 0.000000
# 2 -0.003030 0.005902 -0.000577 0.000000 0.000000 0.000000
# 3 -0.000567 -0.000577 0.009056 0.000000 0.000000 0.000000
# 4 0.000000 0.000000 0.000000 0.023485 0.000000 0.000000
# 5 0.000000 0.000000 0.000000 0.000000 -0.032028 0.000000
# 6 0.000000 0.000000 0.000000 0.000000 0.000000 0.034205
#
#
# Mechanical properties :
#
#
# Convention : Reuss Voigt Hill
#
# Bulk Modulus (GPa) = 54.35127 62.38379 58.36753
# Shear Modulus (GPa) = 74.74719 30.19758 52.47238
#
# Velocity S-wave (km/s) = 5.43802 3.45644 4.55626
# Velocity P-wave (km/s) = 7.80591 6.37260 7.12539
#
# Compressibility (1/GPa) = 0.01839884
#
# Stress axis : x y z
#
# Youngs Moduli (GPa) = 84.81925 169.42191 110.42858
#
# Poissons Ratio (x) = 0.51338 0.06263
# Poissons Ratio (y) = 0.25702 0.06374
# Poissons Ratio (z) = 0.04810 0.09779
#
# Static dielectric constant tensor:
#      x y z
#    x 2.000070 0.000000 0.000000 
#    y 0.000000 2.307310 0.000000 
#    z 0.000000 0.000000 1.988710 
# 
# From -- ./inp_files/42509.got.cif
#   From: 2010.05.17/outbox.cif.g08.bks.cpg/sg52_22_cif.got.tgz:42509.got - 2010.06.03 12:15:38.
