data_PCOD9412255
_publ_section_title
;
Structure prediction by ZEFSAII (Michael W. Deem and Ramdas Pophale) SiO2 
 PCOD9412255
Probable space group: P N N A
;
_chemical_formula_sum "Si O2"
_cell_formula_units_Z 40
_cell_length_a 8.118023
_cell_length_b 20.716271
_cell_length_c 9.235742
_cell_angle_alpha 90.000000
_cell_angle_beta 90.000000
_cell_angle_gamma 90.000000
_cell_volume 1553.222430
_symmetry_space_group_name_H-M "P N N A"
_symmetry_group_IT_number 52
_symmetry_cell_setting 'orthorhombic'
loop_
_space_group_symop_operation_xyz
x,y,z
1/2-x,-y,z
x,1/2-y,1/2-z
1/2-x,1/2+y,1/2-z
-x,-y,-z
1/2+x,y,-z
-x,1/2+y,1/2+z
1/2+x,1/2-y,1/2+z
loop_
_atom_site_type_symbol
_atom_site_label
_atom_site_fract_x
_atom_site_fract_y
_atom_site_fract_z
Si Si1 0.211704 0.120983 0.779695
Si Si2 0.569194 0.721709 0.110548
Si Si3 0.296095 0.567598 0.228070
Si Si4 0.873214 0.147583 0.950959
Si Si5 0.013762 0.407805 0.971953
O O1 0.289036 0.181699 0.694320
O O2 0.045522 0.137765 0.869247
O O3 0.146312 0.075816 0.652055
O O4 0.343740 0.104583 0.904243
O O5 0.471276 0.750000 0.250000
O O6 0.631934 0.779324 0.008848
O O7 0.478462 0.668229 0.014675
O O8 0.250000 0.500000 0.301361
O O9 0.269031 0.625111 0.340198
O O10 0.159024 0.579881 0.104041
O O11 0.457182 0.561208 0.128937
#
# Coordination Sequence:
#
# PCOD9412255 Si02
#       5
#     8   8   8   8   8
#     4  10  23  43  63 103 133 179 222 278 357 413
#     4  10  23  39  69  97 141 175 228 284 360 418
#     4  11  25  45  69  99 137 190 241 287 344 415
#     4  10  25  40  70  97 145 173 232 285 346 431
#     4  11  23  43  68 101 139 177 240 289 347 418
#
# _framework density 25.752912999999999
#
# number of rings (size 3 to 8) (size 9 to 14) (size 15 to 20)
#    0.000    1.600    2.000    0.600   14.000    2.400 
#    0.000    5.000    0.000    0.000    0.000    0.000 
#    0.000    0.000    0.000    0.000    0.000    0.000 
#
# Total GULP energy -223386.141024 kJ/mol
# GULP energy per Si atom -5584.653526 kJ/mol
# Density = 2.569430 g / cm^3
# Si number density = 25.752913 Si / 1000 Ang^3
#
#
#
# Elastic Constant Matrix: (Units=GPa)
#
#
# Indices 1 2 3 4 5 6 
#
# 1 70.0341 -1.8525 51.1872 0.0000 0.0000 0.0000
# 2 -1.8525 92.7505 41.0376 0.0000 0.0000 0.0000
# 3 51.1872 41.0376 155.0900 0.0000 0.0000 0.0000
# 4 0.0000 0.0000 0.0000 10.8863 0.0000 0.0000
# 5 0.0000 0.0000 0.0000 0.0000 64.2406 0.0000
# 6 0.0000 0.0000 0.0000 0.0000 0.0000 21.3630
#
#
#
# Elastic Compliance Matrix: (Units=1/GPa)
#
#
# Indices 1 2 3 4 5 6 
#
# 1 0.019902 0.003742 -0.007559 0.000000 0.000000 0.000000
# 2 0.003742 0.012915 -0.004652 0.000000 0.000000 0.000000
# 3 -0.007559 -0.004652 0.010174 0.000000 0.000000 0.000000
# 4 0.000000 0.000000 0.000000 0.091858 0.000000 0.000000
# 5 0.000000 0.000000 0.000000 0.000000 0.015566 0.000000
# 6 0.000000 0.000000 0.000000 0.000000 0.000000 0.046810
#
#
# Mechanical properties :
#
#
# Convention : Reuss Voigt Hill
#
# Bulk Modulus (GPa) = 38.38425 55.40216 46.89320
# Shear Modulus (GPa) = 22.43677 34.46479 28.45078
#
# Velocity S-wave (km/s) = 2.95487 3.66223 3.32740
# Velocity P-wave (km/s) = 5.15547 6.28031 5.74548
#
# Compressibility (1/GPa) = 0.02605235
#
# Stress axis : x y z
#
# Youngs Moduli (GPa) = 50.24502 77.43062 98.29255
#
# Poissons Ratio (x) = -0.28974 0.74299
# Poissons Ratio (y) = -0.18801 0.45729
# Poissons Ratio (z) = 0.37980 0.36023
#
# Static dielectric constant tensor:
#      x y z
#    x 2.108130 0.000000 0.000000 
#    y 0.000000 2.077710 0.000000 
#    z 0.000000 0.000000 2.032800 
# 
# From -- ./inp_files/7424.got.cif
#   From: 2010.05.17/outbox.cif.g08.bks.cpg/sg52_4_cif.got.tgz:7424.got - 2010.06.03 12:15:38.
