data_PCOD9412654
_publ_section_title
;
Structure prediction by ZEFSAII (Michael W. Deem and Ramdas Pophale) SiO2 
 PCOD9412654
Probable space group: P N N A
;
_chemical_formula_sum "Si O2"
_cell_formula_units_Z 40
_cell_length_a 12.367501
_cell_length_b 7.341147
_cell_length_c 17.819725
_cell_angle_alpha 90.000000
_cell_angle_beta 90.000000
_cell_angle_gamma 90.000000
_cell_volume 1617.882108
_symmetry_space_group_name_H-M "P N N A"
_symmetry_group_IT_number 52
_symmetry_cell_setting 'orthorhombic'
loop_
_space_group_symop_operation_xyz
x,y,z
1/2-x,-y,z
x,1/2-y,1/2-z
1/2-x,1/2+y,1/2-z
-x,-y,-z
1/2+x,y,-z
-x,1/2+y,1/2+z
1/2+x,1/2-y,1/2+z
loop_
_atom_site_type_symbol
_atom_site_label
_atom_site_fract_x
_atom_site_fract_y
_atom_site_fract_z
Si Si1 0.360016 0.202356 0.514141
Si Si2 0.936921 0.475960 0.250435
Si Si3 0.750000 0.000000 0.950804
Si Si4 0.375595 0.981042 0.360416
Si Si5 0.468228 0.912380 0.102195
Si Si6 0.750000 0.500000 0.149254
O O1 0.249768 0.317126 0.499005
O O2 0.386289 0.075403 0.442823
O O3 0.458339 0.337811 0.534491
O O4 0.330414 0.101234 0.591163
O O5 0.921921 0.250000 0.250000
O O6 0.838254 0.570879 0.208533
O O7 0.043481 0.539938 0.205287
O O8 0.954213 0.507714 0.338243
O O9 0.860859 0.030894 0.908174
O O10 0.250000 0.000000 0.339630
O O11 0.411018 0.771496 0.368022
#
# Coordination Sequence:
#
# PCOD9412654 Si02
#       6
#     8   8   4   8   8   4
#     4  12  24  42  71 105 136 189 237 298 353 436
#     4  10  24  43  69 100 139 181 229 302 353 433
#     4  12  26  43  69 100 150 180 240 310 364 412
#     4  11  21  41  73 102 130 183 245 288 349 428
#     4  11  24  47  65 101 145 180 236 298 365 420
#     4  12  22  45  75  98 138 192 240 278 362 440
#
# _framework density 24.723680000000002
#
# number of rings (size 3 to 8) (size 9 to 14) (size 15 to 20)
#    0.000    0.800    7.000    1.200    4.200    0.800 
#    0.000    1.000    0.000    0.000    0.000    0.000 
#    0.000    0.000    0.000    0.000    0.000    0.000 
#
# Total GULP energy -223088.380325 kJ/mol
# GULP energy per Si atom -5577.209508 kJ/mol
# Density = 2.466741 g / cm^3
# Si number density = 24.723680 Si / 1000 Ang^3
#
#
#
# Elastic Constant Matrix: (Units=GPa)
#
#
# Indices 1 2 3 4 5 6 
#
# 1 106.6751 -3.6086 19.5424 0.0000 0.0000 0.0000
# 2 -3.6086 65.1263 21.5812 0.0000 0.0000 0.0000
# 3 19.5424 21.5812 73.6560 0.0000 0.0000 0.0000
# 4 0.0000 0.0000 0.0000 4.2272 0.0000 0.0000
# 5 0.0000 0.0000 0.0000 0.0000 32.1693 0.0000
# 6 0.0000 0.0000 0.0000 0.0000 0.0000 22.5475
#
#
#
# Elastic Compliance Matrix: (Units=1/GPa)
#
#
# Indices 1 2 3 4 5 6 
#
# 1 0.009999 0.001587 -0.003118 0.000000 0.000000 0.000000
# 2 0.001587 0.017258 -0.005478 0.000000 0.000000 0.000000
# 3 -0.003118 -0.005478 0.016009 0.000000 0.000000 0.000000
# 4 0.000000 0.000000 0.000000 0.236566 0.000000 0.000000
# 5 0.000000 0.000000 0.000000 0.000000 0.031086 0.000000
# 6 0.000000 0.000000 0.000000 0.000000 0.000000 0.044351
#
#
# Mechanical properties :
#
#
# Convention : Reuss Voigt Hill
#
# Bulk Modulus (GPa) = 34.18917 35.60970 34.89944
# Shear Modulus (GPa) = 13.19141 25.65162 19.42152
#
# Velocity S-wave (km/s) = 2.31238 3.22457 2.80579
# Velocity P-wave (km/s) = 4.58127 5.31960 4.96418
#
# Compressibility (1/GPa) = 0.02924903
#
# Stress axis : x y z
#
# Youngs Moduli (GPa) = 100.00835 57.94443 62.46539
#
# Poissons Ratio (x) = -0.09197 0.19477
# Poissons Ratio (y) = -0.15874 0.34217
# Poissons Ratio (z) = 0.31183 0.31740
#
# Static dielectric constant tensor:
#      x y z
#    x 1.952950 0.000000 0.000000 
#    y 0.000000 2.158740 0.000000 
#    z 0.000000 0.000000 2.001200 
# 
# From -- ./inp_files/32043.got.cif
#   From: 2010.05.17/outbox.cif.g08.bks.cpg/sg52_17_cif.got.tgz:32043.got - 2010.06.03 12:15:38.
