data_PCOD9412669
_publ_section_title
;
Structure prediction by ZEFSAII (Michael W. Deem and Ramdas Pophale) SiO2 
 PCOD9412669
Probable space group: P N N A
;
_chemical_formula_sum "Si O2"
_cell_formula_units_Z 36
_cell_length_a 8.884811
_cell_length_b 7.281927
_cell_length_c 27.367268
_cell_angle_alpha 90.000000
_cell_angle_beta 90.000000
_cell_angle_gamma 90.000000
_cell_volume 1770.622423
_symmetry_space_group_name_H-M "P N N A"
_symmetry_group_IT_number 52
_symmetry_cell_setting 'orthorhombic'
loop_
_space_group_symop_operation_xyz
x,y,z
1/2-x,-y,z
x,1/2-y,1/2-z
1/2-x,1/2+y,1/2-z
-x,-y,-z
1/2+x,y,-z
-x,1/2+y,1/2+z
1/2+x,1/2-y,1/2+z
loop_
_atom_site_type_symbol
_atom_site_label
_atom_site_fract_x
_atom_site_fract_y
_atom_site_fract_z
Si Si1 0.640552 0.677687 0.305111
Si Si2 0.065814 0.291442 0.563104
Si Si3 0.750000 0.000000 0.377053
Si Si4 0.227255 0.287024 0.033173
Si Si5 0.414028 0.907068 0.120327
O O1 0.750000 0.500000 0.307055
O O2 0.639785 0.750000 0.250000
O O3 0.691860 0.838529 0.341986
O O4 0.474196 0.638277 0.326143
O O5 0.127375 0.108625 0.589982
O O6 0.893751 0.276392 0.546065
O O7 0.048659 0.465244 0.598697
O O8 0.836750 0.688170 0.485523
O O9 0.250000 0.500000 0.022417
O O10 0.118089 0.249066 0.079456
O O11 0.250000 0.000000 0.124330
#
# Coordination Sequence:
#
# PCOD9412669 Si02
#       5
#     8   8   4   8   8
#     4  12  25  46  72  99 129 168 227 283 336 397
#     4  11  23  38  61  95 137 178 224 265 331 399
#     4  12  24  42  70  98 132 180 218 280 338 394
#     4  11  22  37  60  95 137 180 224 268 324 403
#     4  10  24  44  64  96 136 176 223 276 336 400
#
# _framework density 20.331833
#
# number of rings (size 3 to 8) (size 9 to 14) (size 15 to 20)
#    0.000    0.889    4.444    2.667    3.111    0.000 
#    0.000    6.667    0.000    0.000    0.000    0.000 
#    0.000    0.000    0.000    0.000    0.000    0.000 
#
# Total GULP energy -200944.950783 kJ/mol
# GULP energy per Si atom -5581.804188 kJ/mol
# Density = 2.028556 g / cm^3
# Si number density = 20.331833 Si / 1000 Ang^3
#
#
#
# Elastic Constant Matrix: (Units=GPa)
#
#
# Indices 1 2 3 4 5 6 
#
# 1 104.2465 43.3089 76.2569 0.0000 0.0000 0.0000
# 2 43.3089 85.1689 37.0697 0.0000 0.0000 0.0000
# 3 76.2569 37.0697 139.5457 0.0000 0.0000 0.0000
# 4 0.0000 0.0000 0.0000 20.4100 0.0000 0.0000
# 5 0.0000 0.0000 0.0000 0.0000 36.5195 0.0000
# 6 0.0000 0.0000 0.0000 0.0000 0.0000 30.2698
#
#
#
# Elastic Compliance Matrix: (Units=1/GPa)
#
#
# Indices 1 2 3 4 5 6 
#
# 1 0.018012 -0.005512 -0.008378 0.000000 0.000000 0.000000
# 2 -0.005512 0.014963 -0.000963 0.000000 0.000000 0.000000
# 3 -0.008378 -0.000963 0.012000 0.000000 0.000000 0.000000
# 4 0.000000 0.000000 0.000000 0.048996 0.000000 0.000000
# 5 0.000000 0.000000 0.000000 0.000000 0.027383 0.000000
# 6 0.000000 0.000000 0.000000 0.000000 0.000000 0.033036
#
#
# Mechanical properties :
#
#
# Convention : Reuss Voigt Hill
#
# Bulk Modulus (GPa) = 65.49394 71.35913 68.42653
# Shear Modulus (GPa) = 26.42903 28.92823 27.67863
#
# Velocity S-wave (km/s) = 3.60930 3.77610 3.69364
# Velocity P-wave (km/s) = 7.04641 7.36107 7.20546
#
# Compressibility (1/GPa) = 0.01526859
#
# Stress axis : x y z
#
# Youngs Moduli (GPa) = 55.52001 66.82964 83.33110
#
# Poissons Ratio (x) = 0.36838 0.69818
# Poissons Ratio (y) = 0.30604 0.08022
# Poissons Ratio (z) = 0.46517 0.06434
#
# Static dielectric constant tensor:
#      x y z
#    x 1.721590 0.000000 0.000000 
#    y 0.000000 1.908670 0.000000 
#    z 0.000000 0.000000 1.720420 
# 
# From -- ./inp_files/42062.got.cif
#   From: 2010.05.17/outbox.cif.g08.bks.cpg/sg52_22_cif.got.tgz:42062.got - 2010.06.03 12:15:38.
