data_PCOD9412905
_publ_section_title
;
Structure prediction by ZEFSAII (Michael W. Deem and Ramdas Pophale) SiO2 
 PCOD9412905
Probable space group: P N N A
;
_chemical_formula_sum "Si O2"
_cell_formula_units_Z 36
_cell_length_a 10.337187
_cell_length_b 17.966248
_cell_length_c 8.051765
_cell_angle_alpha 90.000000
_cell_angle_beta 90.000000
_cell_angle_gamma 90.000000
_cell_volume 1495.377542
_symmetry_space_group_name_H-M "P N N A"
_symmetry_group_IT_number 52
_symmetry_cell_setting 'orthorhombic'
loop_
_space_group_symop_operation_xyz
x,y,z
1/2-x,-y,z
x,1/2-y,1/2-z
1/2-x,1/2+y,1/2-z
-x,-y,-z
1/2+x,y,-z
-x,1/2+y,1/2+z
1/2+x,1/2-y,1/2+z
loop_
_atom_site_type_symbol
_atom_site_label
_atom_site_fract_x
_atom_site_fract_y
_atom_site_fract_z
Si Si1 0.343795 0.250000 0.750000
Si Si2 0.950645 0.682843 0.511476
Si Si3 0.298899 0.668522 0.986838
Si Si4 0.105160 0.474079 0.366036
Si Si5 0.046686 0.891075 0.335759
O O1 0.431895 0.275009 0.598224
O O2 0.265872 0.323127 0.804941
O O3 0.840722 0.745781 0.512549
O O4 0.905379 0.614434 0.625934
O O5 0.999917 0.652502 0.332514
O O6 0.431462 0.623275 0.966344
O O7 0.185980 0.638771 0.104040
O O8 0.250000 0.500000 0.411604
O O9 0.433404 0.477716 0.206157
O O10 0.000000 0.500000 0.500000
#
# Coordination Sequence:
#
# PCOD9412905 Si02
#       5
#     4   8   8   8   8
#     4  12  26  42  74 116 148 192 252 322 380 452
#     4  11  26  46  76 111 154 198 257 310 388 467
#     4  12  25  46  75 114 149 199 255 326 371 458
#     4  10  26  46  75 108 149 205 251 308 383 467
#     4  11  26  50  75 112 154 199 258 320 389 461
#
# _framework density 24.074189000000001
#
# number of rings (size 3 to 8) (size 9 to 14) (size 15 to 20)
#    0.000    0.889    4.444    0.000    9.333    0.000 
#    0.000    4.444    0.000    0.000    0.000    0.000 
#    0.000    0.000    0.000    0.000    0.000    0.000 
#
# Total GULP energy -201338.176616 kJ/mol
# GULP energy per Si atom -5592.727128 kJ/mol
# Density = 2.401939 g / cm^3
# Si number density = 24.074189 Si / 1000 Ang^3
#
#
#
# Elastic Constant Matrix: (Units=GPa)
#
#
# Indices 1 2 3 4 5 6 
#
# 1 197.2222 64.1962 63.0801 0.0000 0.0000 0.0000
# 2 64.1962 141.1011 57.6860 0.0000 0.0000 0.0000
# 3 63.0801 57.6860 94.0351 0.0000 0.0000 0.0000
# 4 0.0000 0.0000 0.0000 46.2249 0.0000 0.0000
# 5 0.0000 0.0000 0.0000 0.0000 40.2255 0.0000
# 6 0.0000 0.0000 0.0000 0.0000 0.0000 15.7604
#
#
#
# Elastic Compliance Matrix: (Units=1/GPa)
#
#
# Indices 1 2 3 4 5 6 
#
# 1 0.006722 -0.001622 -0.003515 0.000000 0.000000 0.000000
# 2 -0.001622 0.009851 -0.004955 0.000000 0.000000 0.000000
# 3 -0.003515 -0.004955 0.016032 0.000000 0.000000 0.000000
# 4 0.000000 0.000000 0.000000 0.021633 0.000000 0.000000
# 5 0.000000 0.000000 0.000000 0.000000 0.024860 0.000000
# 6 0.000000 0.000000 0.000000 0.000000 0.000000 0.063450
#
#
# Mechanical properties :
#
#
# Convention : Reuss Voigt Hill
#
# Bulk Modulus (GPa) = 80.50234 89.14255 84.82245
# Shear Modulus (GPa) = 29.96314 36.93523 33.44919
#
# Velocity S-wave (km/s) = 3.53174 3.92117 3.73154
# Velocity P-wave (km/s) = 7.08116 7.59009 7.34003
#
# Compressibility (1/GPa) = 0.01242200
#
# Stress axis : x y z
#
# Youngs Moduli (GPa) = 148.75636 101.51596 62.37597
#
# Poissons Ratio (x) = 0.16461 0.21924
# Poissons Ratio (y) = 0.24121 0.30908
# Poissons Ratio (z) = 0.52284 0.50303
#
# Static dielectric constant tensor:
#      x y z
#    x 1.971290 0.000000 0.000000 
#    y 0.000000 1.290060 0.000000 
#    z 0.000000 0.000000 1.967910 
# 
# From -- ./inp_files/7298.got.cif
#   From: 2010.05.17/outbox.cif.g08.bks.cpg/sg52_4_cif.got.tgz:7298.got - 2010.06.03 12:15:38.
