data_PCOD9412027
_publ_section_title
;
Structure prediction by ZEFSAII (Michael W. Deem and Ramdas Pophale) SiO2 
 PCOD9412027
Probable space group: P N N A
;
_chemical_formula_sum "Si O2"
_cell_formula_units_Z 48
_cell_length_a 5.411999
_cell_length_b 18.764907
_cell_length_c 20.583979
_cell_angle_alpha 90.000000
_cell_angle_beta 90.000000
_cell_angle_gamma 90.000000
_cell_volume 2090.419530
_symmetry_space_group_name_H-M "P N N A"
_symmetry_group_IT_number 52
_symmetry_cell_setting 'orthorhombic'
loop_
_space_group_symop_operation_xyz
x,y,z
1/2-x,-y,z
x,1/2-y,1/2-z
1/2-x,1/2+y,1/2-z
-x,-y,-z
1/2+x,y,-z
-x,1/2+y,1/2+z
1/2+x,1/2-y,1/2+z
loop_
_atom_site_type_symbol
_atom_site_label
_atom_site_fract_x
_atom_site_fract_y
_atom_site_fract_z
Si Si1 0.250000 0.000000 0.542252
Si Si2 0.250000 0.000000 0.136682
Si Si3 0.743802 0.628854 0.141284
Si Si4 0.299057 0.634420 0.458478
Si Si5 0.857404 0.814336 0.722394
Si Si6 0.974314 0.599665 0.284678
Si Si7 0.999887 0.771437 0.133252
O O1 0.269730 0.931828 0.589106
O O2 0.500000 0.000000 0.500000
O O3 0.288700 0.933253 0.089229
O O4 0.021418 0.976300 0.182715
O O5 0.465211 0.641631 0.163300
O O6 0.859465 0.605918 0.212561
O O7 0.829252 0.705620 0.112652
O O8 0.572341 0.632637 0.489371
O O9 0.208198 0.702350 0.416798
O O10 0.029859 0.750000 0.750000
O O11 0.754498 0.870150 0.773570
O O12 0.644038 0.767240 0.690864
O O13 0.870263 0.657619 0.336605
#
# Coordination Sequence:
#
# PCOD9412027 Si02
#       7
#     4   4   8   8   8   8   8
#     4  12  34  53  68  97 138 188 244 286 332 410
#     4  10  22  43  64  97 148 178 228 282 340 414
#     4  11  23  42  73  94 134 177 228 291 361 413
#     4  11  25  45  66  97 139 195 238 274 328 407
#     4   9  18  36  65 101 134 162 213 286 358 416
#     4   9  20  39  65 105 137 169 222 284 366 422
#     4   9  21  40  66 102 135 171 229 296 347 414
#
# _framework density 22.961898999999999
#
# number of rings (size 3 to 8) (size 9 to 14) (size 15 to 20)
#    0.000    2.000    0.000    3.000    9.333    1.333 
#   12.000    0.000    0.000    0.000    0.000    0.000 
#    0.000    0.000    0.000    0.000    0.000    0.000 
#
# Total GULP energy -267413.225509 kJ/mol
# GULP energy per Si atom -5571.108865 kJ/mol
# Density = 2.290964 g / cm^3
# Si number density = 22.961899 Si / 1000 Ang^3
#
#
#
# Elastic Constant Matrix: (Units=GPa)
#
#
# Indices 1 2 3 4 5 6 
#
# 1 45.3298 15.9092 19.8838 0.0000 0.0000 0.0000
# 2 15.9092 85.1865 44.0441 0.0000 0.0000 0.0000
# 3 19.8838 44.0441 95.4464 0.0000 0.0000 0.0000
# 4 0.0000 0.0000 0.0000 46.9785 0.0000 0.0000
# 5 0.0000 0.0000 0.0000 0.0000 18.4961 0.0000
# 6 0.0000 0.0000 0.0000 0.0000 0.0000 6.8586
#
#
#
# Elastic Compliance Matrix: (Units=1/GPa)
#
#
# Indices 1 2 3 4 5 6 
#
# 1 0.024698 -0.002564 -0.003962 0.000000 0.000000 0.000000
# 2 -0.002564 0.015683 -0.006703 0.000000 0.000000 0.000000
# 3 -0.003962 -0.006703 0.014396 0.000000 0.000000 0.000000
# 4 0.000000 0.000000 0.000000 0.021286 0.000000 0.000000
# 5 0.000000 0.000000 0.000000 0.000000 0.054065 0.000000
# 6 0.000000 0.000000 0.000000 0.000000 0.000000 0.145803
#
#
# Mechanical properties :
#
#
# Convention : Reuss Voigt Hill
#
# Bulk Modulus (GPa) = 35.31185 42.84856 39.08020
# Shear Modulus (GPa) = 16.03436 24.20834 20.12135
#
# Velocity S-wave (km/s) = 2.64541 3.25050 2.96344
# Velocity P-wave (km/s) = 4.97421 5.72616 5.36338
#
# Compressibility (1/GPa) = 0.02831911
#
# Stress axis : x y z
#
# Youngs Moduli (GPa) = 40.48842 63.76129 69.46551
#
# Poissons Ratio (x) = 0.16349 0.27523
# Poissons Ratio (y) = 0.10382 0.46563
# Poissons Ratio (z) = 0.16042 0.42740
#
# Static dielectric constant tensor:
#      x y z
#    x 2.032510 0.000000 0.000000 
#    y 0.000000 1.950180 0.000000 
#    z 0.000000 0.000000 1.916350 
# 
# From -- ./inp_files/38795.got.cif
#   From: 2010.05.17/outbox.cif.g08.bks.cpg/sg52_20_cif.got.tgz:38795.got - 2010.06.03 12:15:38.
