data_PCOD9412923
_publ_section_title
;
Structure prediction by ZEFSAII (Michael W. Deem and Ramdas Pophale) SiO2 
 PCOD9412923
Probable space group: P N N A
;
_chemical_formula_sum "Si O2"
_cell_formula_units_Z 36
_cell_length_a 6.399969
_cell_length_b 10.520144
_cell_length_c 21.744677
_cell_angle_alpha 90.000000
_cell_angle_beta 90.000000
_cell_angle_gamma 90.000000
_cell_volume 1464.038561
_symmetry_space_group_name_H-M "P N N A"
_symmetry_group_IT_number 52
_symmetry_cell_setting 'orthorhombic'
loop_
_space_group_symop_operation_xyz
x,y,z
1/2-x,-y,z
x,1/2-y,1/2-z
1/2-x,1/2+y,1/2-z
-x,-y,-z
1/2+x,y,-z
-x,1/2+y,1/2+z
1/2+x,1/2-y,1/2+z
loop_
_atom_site_type_symbol
_atom_site_label
_atom_site_fract_x
_atom_site_fract_y
_atom_site_fract_z
Si Si1 0.383920 0.101376 0.480505
Si Si2 0.384611 0.623159 0.333754
Si Si3 0.500460 0.786817 0.641409
Si Si4 0.188570 0.863339 0.945674
Si Si5 0.710063 0.750000 0.250000
O O1 0.623532 0.069239 0.511807
O O2 0.447905 0.107874 0.408684
O O3 0.359366 0.246955 0.508696
O O4 0.250000 0.500000 0.320186
O O5 0.219253 0.736784 0.334094
O O6 0.491499 0.617665 0.400592
O O7 0.564481 0.649820 0.284841
O O8 0.373364 0.681928 0.600965
O O9 0.352553 0.816692 0.698506
O O10 0.250000 0.000000 0.973366
#
# Coordination Sequence:
#
# PCOD9412923 Si02
#       5
#     8   8   8   8   4
#     4  12  25  47  74 114 163 203 254 319 402 493
#     4  11  23  46  77 113 150 197 269 331 393 468
#     4  11  24  48  75 111 159 199 263 325 397 471
#     4  11  24  45  77 114 156 204 253 324 399 476
#     4  10  26  48  76 106 150 212 266 330 394 472
#
# _framework density 24.589517000000001
#
# number of rings (size 3 to 8) (size 9 to 14) (size 15 to 20)
#    0.000    0.889    4.444    2.000    0.000    1.778 
#    0.000   22.222    0.000    0.000    0.000    0.000 
#    0.000    0.000    0.000    0.000    0.000    0.000 
#
# Total GULP energy -201448.854494 kJ/mol
# GULP energy per Si atom -5595.801514 kJ/mol
# Density = 2.453355 g / cm^3
# Si number density = 24.589517 Si / 1000 Ang^3
#
#
#
# Elastic Constant Matrix: (Units=GPa)
#
#
# Indices 1 2 3 4 5 6 
#
# 1 190.1131 73.0201 92.1094 0.0000 0.0000 0.0000
# 2 73.0201 165.3661 78.4627 0.0000 0.0000 0.0000
# 3 92.1094 78.4627 172.7792 0.0000 0.0000 0.0000
# 4 0.0000 0.0000 0.0000 12.8812 0.0000 0.0000
# 5 0.0000 0.0000 0.0000 0.0000 43.4421 0.0000
# 6 0.0000 0.0000 0.0000 0.0000 0.0000 31.2640
#
#
#
# Elastic Compliance Matrix: (Units=1/GPa)
#
#
# Indices 1 2 3 4 5 6 
#
# 1 0.007490 -0.001801 -0.003175 0.000000 0.000000 0.000000
# 2 -0.001801 0.008141 -0.002737 0.000000 0.000000 0.000000
# 3 -0.003175 -0.002737 0.008723 0.000000 0.000000 0.000000
# 4 0.000000 0.000000 0.000000 0.077632 0.000000 0.000000
# 5 0.000000 0.000000 0.000000 0.000000 0.023019 0.000000
# 6 0.000000 0.000000 0.000000 0.000000 0.000000 0.031986
#
#
# Mechanical properties :
#
#
# Convention : Reuss Voigt Hill
#
# Bulk Modulus (GPa) = 112.00139 112.82698 112.41418
# Shear Modulus (GPa) = 28.50729 36.49521 32.50125
#
# Velocity S-wave (km/s) = 3.40858 3.85668 3.63954
# Velocity P-wave (km/s) = 7.81912 8.11269 7.96726
#
# Compressibility (1/GPa) = 0.00892846
#
# Stress axis : x y z
#
# Youngs Moduli (GPa) = 133.51000 122.83505 114.63450
#
# Poissons Ratio (x) = 0.22120 0.36399
# Poissons Ratio (y) = 0.24042 0.31375
# Poissons Ratio (z) = 0.42392 0.33620
#
# Static dielectric constant tensor:
#      x y z
#    x 3.179320 0.000000 0.000000 
#    y 0.000000 1.910620 0.000000 
#    z 0.000000 0.000000 1.896460 
# 
# From -- ./inp_files/34928.got.cif
#   From: 2010.05.17/outbox.cif.g08.bks.cpg/sg52_18_cif.got.tgz:34928.got - 2010.06.03 12:15:38.
