data_PCOD9412504
_publ_section_title
;
Structure prediction by ZEFSAII (Michael W. Deem and Ramdas Pophale) SiO2 
 PCOD9412504
Probable space group: P N N A
;
_chemical_formula_sum "Si O2"
_cell_formula_units_Z 40
_cell_length_a 13.581306
_cell_length_b 22.566107
_cell_length_c 5.194611
_cell_angle_alpha 90.000000
_cell_angle_beta 90.000000
_cell_angle_gamma 90.000000
_cell_volume 1592.029857
_symmetry_space_group_name_H-M "P N N A"
_symmetry_group_IT_number 52
_symmetry_cell_setting 'orthorhombic'
loop_
_space_group_symop_operation_xyz
x,y,z
1/2-x,-y,z
x,1/2-y,1/2-z
1/2-x,1/2+y,1/2-z
-x,-y,-z
1/2+x,y,-z
-x,1/2+y,1/2+z
1/2+x,1/2-y,1/2+z
loop_
_atom_site_type_symbol
_atom_site_label
_atom_site_fract_x
_atom_site_fract_y
_atom_site_fract_z
Si Si1 0.637792 0.519652 0.936461
Si Si2 0.046408 0.715294 0.013787
Si Si3 0.575245 0.112468 0.622601
Si Si4 0.102327 0.598569 0.564153
Si Si5 0.250970 0.686303 0.852701
O O1 0.750000 0.500000 0.910671
O O2 0.582880 0.456660 0.929487
O O3 0.616944 0.562988 0.697804
O O4 0.622600 0.552004 0.206043
O O5 0.006271 0.750000 0.250000
O O6 0.023110 0.750000 0.750000
O O7 0.162294 0.707406 0.032351
O O8 0.003249 0.650531 0.031267
O O9 0.514089 0.117087 0.896049
O O10 0.675143 0.145639 0.523306
O O11 0.186446 0.649041 0.633915
O O12 0.291576 0.750000 0.750000
#
# Coordination Sequence:
#
# PCOD9412504 Si02
#       5
#     8   8   8   8   8
#     4  12  25  48  74 105 146 194 240 299 368 433
#     4  10  24  46  68 104 148 188 243 308 361 429
#     4  11  24  45  75 108 141 193 244 295 366 436
#     4  11  26  48  72 108 150 185 240 306 359 431
#     4  10  23  46  73 108 145 199 242 303 362 437
#
# _framework density 25.125160000000001
#
# number of rings (size 3 to 8) (size 9 to 14) (size 15 to 20)
#    0.000    1.200    2.000    2.400    0.000   12.000 
#    3.600    0.000    0.000    0.000    0.000    0.000 
#    0.000    0.000    0.000    0.000    0.000    0.000 
#
# Total GULP energy -223158.620391 kJ/mol
# GULP energy per Si atom -5578.965510 kJ/mol
# Density = 2.506797 g / cm^3
# Si number density = 25.125160 Si / 1000 Ang^3
#
#
#
# Elastic Constant Matrix: (Units=GPa)
#
#
# Indices 1 2 3 4 5 6 
#
# 1 122.4082 71.3603 44.9856 0.0000 0.0000 0.0000
# 2 71.3603 192.3279 83.8902 0.0000 0.0000 0.0000
# 3 44.9856 83.8902 157.5630 0.0000 0.0000 0.0000
# 4 0.0000 0.0000 0.0000 25.1639 0.0000 0.0000
# 5 0.0000 0.0000 0.0000 0.0000 -0.4075 0.0000
# 6 0.0000 0.0000 0.0000 0.0000 0.0000 72.0819
#
#
#
# Elastic Compliance Matrix: (Units=1/GPa)
#
#
# Indices 1 2 3 4 5 6 
#
# 1 0.010600 -0.003403 -0.001214 0.000000 0.000000 0.000000
# 2 -0.003403 0.007865 -0.003216 0.000000 0.000000 0.000000
# 3 -0.001214 -0.003216 0.008406 0.000000 0.000000 0.000000
# 4 0.000000 0.000000 0.000000 0.039739 0.000000 0.000000
# 5 0.000000 0.000000 0.000000 0.000000 -2.454088 0.000000
# 6 0.000000 0.000000 0.000000 0.000000 0.000000 0.013873
#
#
# Mechanical properties :
#
#
# Convention : Reuss Voigt Hill
#
# Bulk Modulus (GPa) = 89.25881 96.97458 93.11670
# Shear Modulus (GPa) = -2.12386 37.50520 17.69067
#
# Velocity S-wave (km/s) = -0.92041 3.86778 2.65637
# Velocity P-wave (km/s) = 5.87139 7.65681 6.82276
#
# Compressibility (1/GPa) = 0.01120338
#
# Stress axis : x y z
#
# Youngs Moduli (GPa) = 94.34319 127.14874 118.96917
#
# Poissons Ratio (x) = 0.43270 0.14447
# Poissons Ratio (y) = 0.32106 0.38258
# Poissons Ratio (z) = 0.11457 0.40888
#
# Static dielectric constant tensor:
#      x y z
#    x 2.090550 0.000000 0.000000 
#    y 0.000000 1.730810 0.000000 
#    z 0.000000 0.000000 2.552170 
# 
# From -- ./inp_files/2277.got.cif
#   From: 2010.05.17/outbox.cif.g08.bks.cpg/sg52_2_cif.got.tgz:2277.got - 2010.06.03 12:15:38.
