data_PCOD9412431
_publ_section_title
;
Structure prediction by ZEFSAII (Michael W. Deem and Ramdas Pophale) SiO2 
 PCOD9412431
Probable space group: P N N A
;
_chemical_formula_sum "Si O2"
_cell_formula_units_Z 56
_cell_length_a 14.907792
_cell_length_b 7.701936
_cell_length_c 20.806295
_cell_angle_alpha 90.000000
_cell_angle_beta 90.000000
_cell_angle_gamma 90.000000
_cell_volume 2388.955070
_symmetry_space_group_name_H-M "P N N A"
_symmetry_group_IT_number 52
_symmetry_cell_setting 'orthorhombic'
loop_
_space_group_symop_operation_xyz
x,y,z
1/2-x,-y,z
x,1/2-y,1/2-z
1/2-x,1/2+y,1/2-z
-x,-y,-z
1/2+x,y,-z
-x,1/2+y,1/2+z
1/2+x,1/2-y,1/2+z
loop_
_atom_site_type_symbol
_atom_site_label
_atom_site_fract_x
_atom_site_fract_y
_atom_site_fract_z
Si Si1 0.939437 0.049119 0.263234
Si Si2 0.228817 0.308335 0.316007
Si Si3 0.414382 0.110560 0.344514
Si Si4 0.105128 0.968597 0.874344
Si Si5 0.157789 0.905304 0.602206
Si Si6 0.923705 0.774517 0.905274
Si Si7 0.947082 0.789708 0.446430
O O1 0.966621 0.250000 0.250000
O O2 0.883316 0.993745 0.200940
O O3 0.877071 0.055084 0.326011
O O4 0.021616 0.923381 0.282576
O O5 0.250000 0.500000 0.295475
O O6 0.179064 0.250000 0.250000
O O7 0.317499 0.191269 0.328715
O O8 0.172188 0.337787 0.380931
O O9 0.464643 0.217504 0.401198
O O10 0.415453 0.917392 0.374577
O O11 0.158518 0.802739 0.902050
O O12 0.002691 0.894375 0.877538
O O13 0.115732 0.145722 0.912652
O O14 0.250000 0.000000 0.590102
O O15 0.088683 0.012628 0.557795
O O16 0.947082 0.763851 0.979904
#
# Coordination Sequence:
#
# PCOD9412431 Si02
#       7
#     8   8   8   8   8   8   8
#     4   9  19  41  70 102 133 176 232 291 361 425
#     4  12  29  45  68 110 145 186 241 304 365 424
#     4  11  23  42  75 100 141 190 236 299 360 434
#     4  11  23  43  73 100 138 182 235 299 355 429
#     4  10  23  44  67 100 140 179 233 296 356 422
#     4  12  24  46  69 100 143 188 237 289 355 431
#     4  11  25  45  70 102 136 194 239 284 358 433
#
# _framework density 23.441210000000002
#
# number of rings (size 3 to 8) (size 9 to 14) (size 15 to 20)
#    0.000    1.143    4.286    3.000    6.000    3.429 
#   10.286    0.000    0.000    0.000    0.000    0.000 
#    0.000    0.000    0.000    0.000    0.000    0.000 
#
# Total GULP energy -312574.672663 kJ/mol
# GULP energy per Si atom -5581.690583 kJ/mol
# Density = 2.338786 g / cm^3
# Si number density = 23.441210 Si / 1000 Ang^3
#
#
#
# Elastic Constant Matrix: (Units=GPa)
#
#
# Indices 1 2 3 4 5 6 
#
# 1 73.2082 -23.7361 -12.4253 0.0000 0.0000 0.0000
# 2 -23.7361 45.4007 -0.7977 0.0000 0.0000 0.0000
# 3 -12.4253 -0.7977 81.1218 0.0000 0.0000 0.0000
# 4 0.0000 0.0000 0.0000 49.0124 0.0000 0.0000
# 5 0.0000 0.0000 0.0000 0.0000 6.4340 0.0000
# 6 0.0000 0.0000 0.0000 0.0000 0.0000 16.8639
#
#
#
# Elastic Compliance Matrix: (Units=1/GPa)
#
#
# Indices 1 2 3 4 5 6 
#
# 1 0.017017 0.008944 0.002694 0.000000 0.000000 0.000000
# 2 0.008944 0.026731 0.001633 0.000000 0.000000 0.000000
# 3 0.002694 0.001633 0.012756 0.000000 0.000000 0.000000
# 4 0.000000 0.000000 0.000000 0.020403 0.000000 0.000000
# 5 0.000000 0.000000 0.000000 0.000000 0.155425 0.000000
# 6 0.000000 0.000000 0.000000 0.000000 0.000000 0.059298
#
#
# Mechanical properties :
#
#
# Convention : Reuss Voigt Hill
#
# Bulk Modulus (GPa) = 12.04152 13.97917 13.01034
# Shear Modulus (GPa) = 17.07830 30.24138 23.65984
#
# Velocity S-wave (km/s) = 2.70211 3.59569 3.18044
# Velocity P-wave (km/s) = 3.85788 4.81820 4.36453
#
# Compressibility (1/GPa) = 0.08304597
#
# Stress axis : x y z
#
# Youngs Moduli (GPa) = 58.76523 37.40996 78.39513
#
# Poissons Ratio (x) = -0.33459 -0.21123
# Poissons Ratio (y) = -0.52560 -0.12800
# Poissons Ratio (z) = -0.15834 -0.06108
#
# Static dielectric constant tensor:
#      x y z
#    x 2.307250 0.000000 0.000000 
#    y 0.000000 1.914790 0.000000 
#    z 0.000000 0.000000 1.900100 
# 
# From -- ./inp_files/37319.got.cif
#   From: 2010.05.17/outbox.cif.g08.bks.cpg/sg52_19_cif.got.tgz:37319.got - 2010.06.03 12:15:38.
