data_PCOD9412659
_publ_section_title
;
Structure prediction by ZEFSAII (Michael W. Deem and Ramdas Pophale) SiO2 
 PCOD9412659
Probable space group: P N N A
;
_chemical_formula_sum "Si O2"
_cell_formula_units_Z 40
_cell_length_a 24.016469
_cell_length_b 6.042272
_cell_length_c 12.444676
_cell_angle_alpha 90.000000
_cell_angle_beta 90.000000
_cell_angle_gamma 90.000000
_cell_volume 1805.897188
_symmetry_space_group_name_H-M "P N N A"
_symmetry_group_IT_number 52
_symmetry_cell_setting 'orthorhombic'
loop_
_space_group_symop_operation_xyz
x,y,z
1/2-x,-y,z
x,1/2-y,1/2-z
1/2-x,1/2+y,1/2-z
-x,-y,-z
1/2+x,y,-z
-x,1/2+y,1/2+z
1/2+x,1/2-y,1/2+z
loop_
_atom_site_type_symbol
_atom_site_label
_atom_site_fract_x
_atom_site_fract_y
_atom_site_fract_z
Si Si1 0.012267 0.100982 0.384872
Si Si2 0.917094 0.250000 0.750000
Si Si3 0.275771 0.750000 0.750000
Si Si4 0.389198 0.248998 0.630380
Si Si5 0.189954 0.395101 0.976308
Si Si6 0.109634 0.436414 0.433159
O O1 0.043958 0.926502 0.310773
O O2 0.052937 0.308974 0.401567
O O3 0.000000 0.000000 0.500000
O O4 0.950340 0.154302 0.347863
O O5 0.882942 0.376732 0.657487
O O6 0.250000 0.500000 0.751589
O O7 0.304489 0.746128 0.866340
O O8 0.362351 0.250000 0.750000
O O9 0.396689 0.461234 0.553073
O O10 0.352053 0.089137 0.557015
O O11 0.250000 0.500000 0.004302
O O12 0.160007 0.238665 0.062406
#
# Coordination Sequence:
#
# PCOD9412659 Si02
#       6
#     8   4   4   8   8   8
#     4  12  25  46  70 112 144 191 240 302 376 450
#     4  12  26  45  76 104 150 192 245 312 374 452
#     4  10  24  43  70 106 158 204 247 312 390 460
#     4  12  26  42  72 111 153 190 239 300 374 459
#     4  11  26  42  68 107 147 200 247 305 376 456
#     4  12  25  46  71 108 147 193 250 304 381 446
#
# _framework density 22.149654000000002
#
# number of rings (size 3 to 8) (size 9 to 14) (size 15 to 20)
#    0.000    0.400    4.000    3.600   14.000    0.800 
#    0.000    0.000    0.000    0.000   72.800    0.000 
#    0.000    0.000    0.000    0.000    0.000    0.000 
#
# Total GULP energy -223402.693936 kJ/mol
# GULP energy per Si atom -5585.067348 kJ/mol
# Density = 2.209924 g / cm^3
# Si number density = 22.149654 Si / 1000 Ang^3
#
#
#
# Elastic Constant Matrix: (Units=GPa)
#
#
# Indices 1 2 3 4 5 6 
#
# 1 130.5940 58.4718 28.2950 0.0000 0.0000 0.0000
# 2 58.4718 111.1047 50.8511 0.0000 0.0000 0.0000
# 3 28.2950 50.8511 116.0798 0.0000 0.0000 0.0000
# 4 0.0000 0.0000 0.0000 52.2682 0.0000 0.0000
# 5 0.0000 0.0000 0.0000 0.0000 62.8975 0.0000
# 6 0.0000 0.0000 0.0000 0.0000 0.0000 65.6767
#
#
#
# Elastic Compliance Matrix: (Units=1/GPa)
#
#
# Indices 1 2 3 4 5 6 
#
# 1 0.010020 -0.005198 -0.000166 0.000000 0.000000 0.000000
# 2 -0.005198 0.013954 -0.004846 0.000000 0.000000 0.000000
# 3 -0.000166 -0.004846 0.010778 0.000000 0.000000 0.000000
# 4 0.000000 0.000000 0.000000 0.019132 0.000000 0.000000
# 5 0.000000 0.000000 0.000000 0.000000 0.015899 0.000000
# 6 0.000000 0.000000 0.000000 0.000000 0.000000 0.015226
#
#
# Mechanical properties :
#
#
# Convention : Reuss Voigt Hill
#
# Bulk Modulus (GPa) = 69.76417 70.33492 70.04954
# Shear Modulus (GPa) = 45.36987 50.84587 48.10787
#
# Velocity S-wave (km/s) = 4.53076 4.79640 4.66547
# Velocity P-wave (km/s) = 7.67695 7.90552 7.79207
#
# Compressibility (1/GPa) = 0.01433401
#
# Stress axis : x y z
#
# Youngs Moduli (GPa) = 99.79633 71.66502 92.78244
#
# Poissons Ratio (x) = 0.37250 0.01536
# Poissons Ratio (y) = 0.51872 0.44960
# Poissons Ratio (z) = 0.01652 0.34727
#
# Static dielectric constant tensor:
#      x y z
#    x 1.811400 0.000000 0.000000 
#    y 0.000000 1.879740 0.000000 
#    z 0.000000 0.000000 1.794270 
# 
# From -- ./inp_files/22700.got.cif
#   From: 2010.05.17/outbox.cif.g08.bks.cpg/sg52_12_cif.got.tgz:22700.got - 2010.06.03 12:15:38.
