data_PCOD9412219
_publ_section_title
;
Structure prediction by ZEFSAII (Michael W. Deem and Ramdas Pophale) SiO2 
 PCOD9412219
Probable space group: P N N A
;
_chemical_formula_sum "Si O2"
_cell_formula_units_Z 20
_cell_length_a 6.795037
_cell_length_b 9.329583
_cell_length_c 11.577945
_cell_angle_alpha 90.000000
_cell_angle_beta 90.000000
_cell_angle_gamma 90.000000
_cell_volume 733.982222
_symmetry_space_group_name_H-M "P N N A"
_symmetry_group_IT_number 52
_symmetry_cell_setting 'orthorhombic'
loop_
_space_group_symop_operation_xyz
x,y,z
1/2-x,-y,z
x,1/2-y,1/2-z
1/2-x,1/2+y,1/2-z
-x,-y,-z
1/2+x,y,-z
-x,1/2+y,1/2+z
1/2+x,1/2-y,1/2+z
loop_
_atom_site_type_symbol
_atom_site_label
_atom_site_fract_x
_atom_site_fract_y
_atom_site_fract_z
Si Si1 0.250000 0.000000 0.760271
Si Si2 0.121603 0.389610 0.969050
Si Si3 0.378005 0.642753 0.356093
O O1 0.131509 0.101672 0.670013
O O2 0.402265 0.090262 0.831612
O O3 0.375487 0.425839 0.999450
O O4 0.126899 0.235673 0.029199
O O5 0.250000 0.500000 0.357786
O O6 0.324946 0.750000 0.250000
#
# Coordination Sequence:
#
# PCOD9412219 Si02
#       3
#     4   8   8
#     4  10  26  48  80 116 168 210 268 334 428 486
#     4  10  22  49  79 109 164 211 262 339 414 476
#     4  12  25  48  82 118 156 218 278 337 411 495
#
# _framework density 27.248618
#
# number of rings (size 3 to 8) (size 9 to 14) (size 15 to 20)
#    1.200    0.000    4.000    1.200    0.000    1.600 
#    7.200    8.000    8.800    0.000    0.000    0.000 
#    0.000    0.000    0.000    0.000    0.000    0.000 
#
# Total GULP energy -111985.497577 kJ/mol
# GULP energy per Si atom -5599.274879 kJ/mol
# Density = 2.718660 g / cm^3
# Si number density = 27.248618 Si / 1000 Ang^3
#
#
#
# Elastic Constant Matrix: (Units=GPa)
#
#
# Indices 1 2 3 4 5 6 
#
# 1 187.6067 113.5179 50.1307 0.0000 0.0000 0.0000
# 2 113.5179 265.8912 97.8940 0.0000 0.0000 0.0000
# 3 50.1307 97.8940 97.6468 0.0000 0.0000 0.0000
# 4 0.0000 0.0000 0.0000 79.1304 0.0000 0.0000
# 5 0.0000 0.0000 0.0000 0.0000 36.3276 0.0000
# 6 0.0000 0.0000 0.0000 0.0000 0.0000 72.1619
#
#
#
# Elastic Compliance Matrix: (Units=1/GPa)
#
#
# Indices 1 2 3 4 5 6 
#
# 1 0.007246 -0.002732 -0.000980 0.000000 0.000000 0.000000
# 2 -0.002732 0.006992 -0.005607 0.000000 0.000000 0.000000
# 3 -0.000980 -0.005607 0.016365 0.000000 0.000000 0.000000
# 4 0.000000 0.000000 0.000000 0.012637 0.000000 0.000000
# 5 0.000000 0.000000 0.000000 0.000000 0.027527 0.000000
# 6 0.000000 0.000000 0.000000 0.000000 0.000000 0.013858
#
#
# Mechanical properties :
#
#
# Convention : Reuss Voigt Hill
#
# Bulk Modulus (GPa) = 83.58777 119.35886 101.47331
# Shear Modulus (GPa) = 46.61928 56.83079 51.72503
#
# Velocity S-wave (km/s) = 4.14077 4.57183 4.36163
# Velocity P-wave (km/s) = 7.32147 8.47158 7.91743
#
# Compressibility (1/GPa) = 0.01196347
#
# Stress axis : x y z
#
# Youngs Moduli (GPa) = 138.01396 143.02678 61.10538
#
# Poissons Ratio (x) = 0.39081 0.05991
# Poissons Ratio (y) = 0.37711 0.34259
# Poissons Ratio (z) = 0.13532 0.80189
#
# Static dielectric constant tensor:
#      x y z
#    x 2.434680 0.000000 0.000000 
#    y 0.000000 2.136640 0.000000 
#    z 0.000000 0.000000 2.015430 
# 
# From -- ./inp_files/15797.got.cif
#   From: 2010.05.17/outbox.cif.g08.bks.cpg/sg52_8_cif.got.tgz:15797.got - 2010.06.03 12:15:38.
