data_PCOD9412583
_publ_section_title
;
Structure prediction by ZEFSAII (Michael W. Deem and Ramdas Pophale) SiO2 
 PCOD9412583
Probable space group: P N N A
;
_chemical_formula_sum "Si O2"
_cell_formula_units_Z 56
_cell_length_a 15.214327
_cell_length_b 11.885499
_cell_length_c 14.562389
_cell_angle_alpha 90.000000
_cell_angle_beta 90.000000
_cell_angle_gamma 90.000000
_cell_volume 2633.314886
_symmetry_space_group_name_H-M "P N N A"
_symmetry_group_IT_number 52
_symmetry_cell_setting 'orthorhombic'
loop_
_space_group_symop_operation_xyz
x,y,z
1/2-x,-y,z
x,1/2-y,1/2-z
1/2-x,1/2+y,1/2-z
-x,-y,-z
1/2+x,y,-z
-x,1/2+y,1/2+z
1/2+x,1/2-y,1/2+z
loop_
_atom_site_type_symbol
_atom_site_label
_atom_site_fract_x
_atom_site_fract_y
_atom_site_fract_z
Si Si1 0.115617 0.228992 0.649906
Si Si2 0.147267 0.488992 0.326414
Si Si3 0.641676 0.268130 0.553483
Si Si4 0.156419 0.972289 0.649975
Si Si5 0.413379 0.271023 0.350756
Si Si6 0.200386 0.888027 0.448418
Si Si7 0.526835 0.361989 0.811358
O O1 0.158792 0.250000 0.750000
O O2 0.149591 0.282182 0.555835
O O3 0.017678 0.276045 0.656877
O O4 0.117421 0.095825 0.631445
O O5 0.250000 0.500000 0.302630
O O6 0.132785 0.385845 0.395900
O O7 0.118852 0.604718 0.375474
O O8 0.087677 0.456716 0.237691
O O9 0.732968 0.210229 0.579707
O O10 0.566604 0.180581 0.590503
O O11 0.185907 0.909421 0.556612
O O12 0.074170 0.902839 0.688968
O O13 0.250000 0.000000 0.700146
O O14 0.374292 0.250000 0.250000
O O15 0.389436 0.161983 0.410071
O O16 0.250000 0.000000 0.415510
O O17 0.534272 0.250000 0.750000
#
# Coordination Sequence:
#
# PCOD9412583 Si02
#       7
#     8   8   8   8   8   8   8
#     4  11  24  44  65  97 132 179 235 290 341 403
#     4  11  24  43  68 106 146 178 225 275 356 420
#     4  11  23  43  69  98 141 183 227 286 343 413
#     4  11  23  45  67  95 131 178 238 287 335 403
#     4  11  25  38  65 101 139 180 224 282 346 413
#     4  11  23  39  66 100 129 177 230 279 341 403
#     4  10  24  41  68 104 139 182 225 284 348 422
#
# _framework density 21.265971
#
# number of rings (size 3 to 8) (size 9 to 14) (size 15 to 20)
#    0.000    1.143    4.286    2.571    6.000    2.286 
#    0.000    2.143    0.000    0.000    0.000    0.000 
#    0.000    0.000    0.000    0.000    0.000    0.000 
#
# Total GULP energy -312204.311380 kJ/mol
# GULP energy per Si atom -5575.076989 kJ/mol
# Density = 2.121757 g / cm^3
# Si number density = 21.265971 Si / 1000 Ang^3
#
#
#
# Elastic Constant Matrix: (Units=GPa)
#
#
# Indices 1 2 3 4 5 6 
#
# 1 76.1333 13.1130 -0.9941 0.0000 0.0000 0.0000
# 2 13.1130 108.9257 12.9138 0.0000 0.0000 0.0000
# 3 -0.9941 12.9138 72.0492 0.0000 0.0000 0.0000
# 4 0.0000 0.0000 0.0000 15.2907 0.0000 0.0000
# 5 0.0000 0.0000 0.0000 0.0000 27.7434 0.0000
# 6 0.0000 0.0000 0.0000 0.0000 0.0000 31.9797
#
#
#
# Elastic Compliance Matrix: (Units=1/GPa)
#
#
# Indices 1 2 3 4 5 6 
#
# 1 0.013430 -0.001674 0.000485 0.000000 0.000000 0.000000
# 2 -0.001674 0.009589 -0.001742 0.000000 0.000000 0.000000
# 3 0.000485 -0.001742 0.014198 0.000000 0.000000 0.000000
# 4 0.000000 0.000000 0.000000 0.065399 0.000000 0.000000
# 5 0.000000 0.000000 0.000000 0.000000 0.036045 0.000000
# 6 0.000000 0.000000 0.000000 0.000000 0.000000 0.031270
#
#
# Mechanical properties :
#
#
# Convention : Reuss Voigt Hill
#
# Bulk Modulus (GPa) = 31.89259 34.13041 33.01150
# Shear Modulus (GPa) = 26.84663 30.47445 28.66054
#
# Velocity S-wave (km/s) = 3.55691 3.78962 3.67511
# Velocity P-wave (km/s) = 5.64787 5.93570 5.79357
#
# Compressibility (1/GPa) = 0.03135525
#
# Stress axis : x y z
#
# Youngs Moduli (GPa) = 74.46253 104.29037 70.43111
#
# Poissons Ratio (x) = 0.17461 -0.03419
# Poissons Ratio (y) = 0.12467 0.12267
# Poissons Ratio (z) = -0.03614 0.18164
#
# Static dielectric constant tensor:
#      x y z
#    x 1.813760 0.000000 0.000000 
#    y 0.000000 1.770110 0.000000 
#    z 0.000000 0.000000 1.837070 
# 
# From -- ./inp_files/27301.got.cif
#   From: 2010.05.17/outbox.cif.g08.bks.cpg/sg52_14_cif.got.tgz:27301.got - 2010.06.03 12:15:38.
