data_PCOD9412639
_publ_section_title
;
Structure prediction by ZEFSAII (Michael W. Deem and Ramdas Pophale) SiO2 
 PCOD9412639
Probable space group: P N N A
;
_chemical_formula_sum "Si O2"
_cell_formula_units_Z 24
_cell_length_a 9.163864
_cell_length_b 8.215481
_cell_length_c 11.326044
_cell_angle_alpha 90.000000
_cell_angle_beta 90.000000
_cell_angle_gamma 90.000000
_cell_volume 852.687458
_symmetry_space_group_name_H-M "P N N A"
_symmetry_group_IT_number 52
_symmetry_cell_setting 'orthorhombic'
loop_
_space_group_symop_operation_xyz
x,y,z
1/2-x,-y,z
x,1/2-y,1/2-z
1/2-x,1/2+y,1/2-z
-x,-y,-z
1/2+x,y,-z
-x,1/2+y,1/2+z
1/2+x,1/2-y,1/2+z
loop_
_atom_site_type_symbol
_atom_site_label
_atom_site_fract_x
_atom_site_fract_y
_atom_site_fract_z
Si Si1 0.533973 0.922925 0.225932
Si Si2 0.945914 0.750000 0.250000
Si Si3 0.750000 0.000000 0.607453
Si Si4 0.857692 0.155991 0.973152
O O1 0.603476 0.750000 0.250000
O O2 0.542402 0.891637 0.084346
O O3 0.621800 0.078075 0.273092
O O4 0.382425 0.941588 0.303449
O O5 0.046375 0.688161 0.357100
O O6 0.717994 0.837495 0.528379
O O7 0.750000 0.000000 0.961088
#
# Coordination Sequence:
#
# PCOD9412639 Si02
#       4
#     8   4   4   8
#     4  11  25  46  77 116 152 207 269 324 395 474
#     4  10  24  42  74 108 146 204 254 326 390 464
#     4  10  26  46  84 114 164 214 264 328 404 470
#     4  11  25  47  77 113 158 209 265 326 396 475
#
# _framework density 28.146304000000001
#
# number of rings (size 3 to 8) (size 9 to 14) (size 15 to 20)
#    0.000    1.333    0.000    3.000   18.667    8.000 
#    6.000    0.000    0.000    0.000    0.000    2.333 
#    0.000    0.000    0.000    0.000    0.000    0.000 
#
# Total GULP energy -133602.657222 kJ/mol
# GULP energy per Si atom -5566.777384 kJ/mol
# Density = 2.808224 g / cm^3
# Si number density = 28.146304 Si / 1000 Ang^3
#
#
#
# Elastic Constant Matrix: (Units=GPa)
#
#
# Indices 1 2 3 4 5 6 
#
# 1 131.9114 84.5909 22.1245 0.0000 0.0000 0.0000
# 2 84.5909 279.5794 30.7667 0.0000 0.0000 0.0000
# 3 22.1245 30.7667 138.0855 0.0000 0.0000 0.0000
# 4 0.0000 0.0000 0.0000 168.2057 0.0000 0.0000
# 5 0.0000 0.0000 0.0000 0.0000 50.0792 0.0000
# 6 0.0000 0.0000 0.0000 0.0000 0.0000 65.4987
#
#
#
# Elastic Compliance Matrix: (Units=1/GPa)
#
#
# Indices 1 2 3 4 5 6 
#
# 1 0.009515 -0.002779 -0.000905 0.000000 0.000000 0.000000
# 2 -0.002779 0.004479 -0.000553 0.000000 0.000000 0.000000
# 3 -0.000905 -0.000553 0.007510 0.000000 0.000000 0.000000
# 4 0.000000 0.000000 0.000000 0.005945 0.000000 0.000000
# 5 0.000000 0.000000 0.000000 0.000000 0.019968 0.000000
# 6 0.000000 0.000000 0.000000 0.000000 0.000000 0.015267
#
#
# Mechanical properties :
#
#
# Convention : Reuss Voigt Hill
#
# Bulk Modulus (GPa) = 76.74990 91.61563 84.18276
# Shear Modulus (GPa) = 66.22366 84.22967 75.22667
#
# Velocity S-wave (km/s) = 4.85587 5.47637 5.17543
# Velocity P-wave (km/s) = 7.66594 8.52103 8.10477
#
# Compressibility (1/GPa) = 0.01302933
#
# Stress axis : x y z
#
# Youngs Moduli (GPa) = 105.09789 223.28817 133.15492
#
# Poissons Ratio (x) = 0.62058 0.12054
# Poissons Ratio (y) = 0.29210 0.07358
# Poissons Ratio (z) = 0.09514 0.12338
#
# Static dielectric constant tensor:
#      x y z
#    x 15.209180 0.000000 0.000000 
#    y 0.000000 3.203730 0.000000 
#    z 0.000000 0.000000 2.534580 
# 
# From -- ./inp_files/9369.got.cif
#   From: 2010.05.17/outbox.cif.g08.bks.cpg/sg52_5_cif.got.tgz:9369.got - 2010.06.03 12:15:38.
