data_PCOD9412740
_publ_section_title
;
Structure prediction by ZEFSAII (Michael W. Deem and Ramdas Pophale) SiO2 
 PCOD9412740
Probable space group: P N N A
;
_chemical_formula_sum "Si O2"
_cell_formula_units_Z 24
_cell_length_a 9.937458
_cell_length_b 17.126685
_cell_length_c 5.593177
_cell_angle_alpha 90.000000
_cell_angle_beta 90.000000
_cell_angle_gamma 90.000000
_cell_volume 951.934747
_symmetry_space_group_name_H-M "P N N A"
_symmetry_group_IT_number 52
_symmetry_cell_setting 'orthorhombic'
loop_
_space_group_symop_operation_xyz
x,y,z
1/2-x,-y,z
x,1/2-y,1/2-z
1/2-x,1/2+y,1/2-z
-x,-y,-z
1/2+x,y,-z
-x,1/2+y,1/2+z
1/2+x,1/2-y,1/2+z
loop_
_atom_site_type_symbol
_atom_site_label
_atom_site_fract_x
_atom_site_fract_y
_atom_site_fract_z
Si Si1 0.141254 0.841117 0.757208
Si Si2 0.079769 0.555862 0.323239
Si Si3 0.120726 0.101515 0.455367
O O1 0.172133 0.750000 0.750000
O O2 0.230184 0.873366 0.533916
O O3 0.979935 0.851821 0.719850
O O4 0.172349 0.890950 0.000574
O O5 0.122132 0.487555 0.136436
O O6 0.000000 0.500000 0.500000
O O7 0.967034 0.607599 0.196480
#
# Coordination Sequence:
#
# PCOD9412740 Si02
#       3
#     8   8   8
#     4  11  26  44  73 109 150 196 250 317 386 443
#     4   9  22  44  72 103 144 190 251 304 371 454
#     4  10  24  46  72 105 146 198 252 307 379 454
#
# _framework density 25.211812999999999
#
# number of rings (size 3 to 8) (size 9 to 14) (size 15 to 20)
#    0.000    2.000    0.000    0.000    4.667   20.000 
#    0.000    0.000    0.000    0.000    0.000    0.000 
#    0.000    0.000    0.000    0.000    0.000    0.000 
#
# Total GULP energy -133695.976479 kJ/mol
# GULP energy per Si atom -5570.665687 kJ/mol
# Density = 2.515443 g / cm^3
# Si number density = 25.211813 Si / 1000 Ang^3
#
#
#
# Elastic Constant Matrix: (Units=GPa)
#
#
# Indices 1 2 3 4 5 6 
#
# 1 138.0247 27.3726 20.5087 0.0000 0.0000 0.0000
# 2 27.3726 174.8148 36.5942 0.0000 0.0000 0.0000
# 3 20.5087 36.5942 102.6886 0.0000 0.0000 0.0000
# 4 0.0000 0.0000 0.0000 28.7566 0.0000 0.0000
# 5 0.0000 0.0000 0.0000 0.0000 30.0612 0.0000
# 6 0.0000 0.0000 0.0000 0.0000 0.0000 27.4586
#
#
#
# Elastic Compliance Matrix: (Units=1/GPa)
#
#
# Indices 1 2 3 4 5 6 
#
# 1 0.007608 -0.000944 -0.001183 0.000000 0.000000 0.000000
# 2 -0.000944 0.006298 -0.002056 0.000000 0.000000 0.000000
# 3 -0.001183 -0.002056 0.010707 0.000000 0.000000 0.000000
# 4 0.000000 0.000000 0.000000 0.034775 0.000000 0.000000
# 5 0.000000 0.000000 0.000000 0.000000 0.033265 0.000000
# 6 0.000000 0.000000 0.000000 0.000000 0.000000 0.036418
#
#
# Mechanical properties :
#
#
# Convention : Reuss Voigt Hill
#
# Bulk Modulus (GPa) = 61.54620 64.94214 63.24417
# Shear Modulus (GPa) = 35.00076 39.32544 37.16310
#
# Velocity S-wave (km/s) = 3.72999 3.95372 3.84348
# Velocity P-wave (km/s) = 6.55859 6.83060 6.69597
#
# Compressibility (1/GPa) = 0.01624796
#
# Stress axis : x y z
#
# Youngs Moduli (GPa) = 131.44032 158.76821 93.39518
#
# Poissons Ratio (x) = 0.14981 0.11050
# Poissons Ratio (y) = 0.12403 0.19203
# Poissons Ratio (z) = 0.15552 0.32644
#
# Static dielectric constant tensor:
#      x y z
#    x 1.633650 0.000000 0.000000 
#    y 0.000000 1.922360 0.000000 
#    z 0.000000 0.000000 6.951470 
# 
# From -- ./inp_files/761.got.cif
#   From: 2010.05.17/outbox.cif.g08.bks.cpg/sg52_1_cif.got.tgz:761.got - 2010.06.03 12:15:38.
