data_PCOD9412254
_publ_section_title
;
Structure prediction by ZEFSAII (Michael W. Deem and Ramdas Pophale) SiO2 
 PCOD9412254
Probable space group: P N N A
;
_chemical_formula_sum "Si O2"
_cell_formula_units_Z 36
_cell_length_a 9.099866
_cell_length_b 9.797169
_cell_length_c 17.711281
_cell_angle_alpha 90.000000
_cell_angle_beta 90.000000
_cell_angle_gamma 90.000000
_cell_volume 1579.012508
_symmetry_space_group_name_H-M "P N N A"
_symmetry_group_IT_number 52
_symmetry_cell_setting 'orthorhombic'
loop_
_space_group_symop_operation_xyz
x,y,z
1/2-x,-y,z
x,1/2-y,1/2-z
1/2-x,1/2+y,1/2-z
-x,-y,-z
1/2+x,y,-z
-x,1/2+y,1/2+z
1/2+x,1/2-y,1/2+z
loop_
_atom_site_type_symbol
_atom_site_label
_atom_site_fract_x
_atom_site_fract_y
_atom_site_fract_z
Si Si1 0.750000 0.500000 0.869195
Si Si2 0.091123 0.753194 0.460153
Si Si3 0.750000 0.500000 0.234076
Si Si4 0.042518 0.096023 0.235359
Si Si5 0.232934 0.156316 0.587431
Si Si6 0.750000 0.000000 0.891207
O O1 0.812708 0.370782 0.916444
O O2 0.618932 0.458421 0.811968
O O3 0.130681 0.768789 0.548575
O O4 0.148875 0.605027 0.436288
O O5 0.921298 0.781122 0.440090
O O6 0.897598 0.490492 0.280453
O O7 0.761672 0.629557 0.176833
O O8 0.003253 0.250000 0.250000
O O9 0.151646 0.087795 0.165875
O O10 0.250000 0.000000 0.559555
#
# Coordination Sequence:
#
# PCOD9412254 Si02
#       6
#     4   8   4   8   8   4
#     4  11  19  40  66  88 122 171 217 274 308 421
#     4  12  23  42  67  96 140 170 238 278 351 413
#     4  10  23  40  65 105 124 173 230 284 344 408
#     4  11  23  41  65  95 134 173 224 277 343 408
#     4  10  23  39  68 100 125 180 231 287 338 407
#     4  11  28  42  65 103 134 194 217 286 358 409
#
# _framework density 22.799060999999998
#
# number of rings (size 3 to 8) (size 9 to 14) (size 15 to 20)
#    0.667    0.444    5.556    0.667    3.111    2.667 
#    0.000    0.000    0.000    0.000    0.000    0.000 
#    0.000    0.000    0.000    0.000    0.000    0.000 
#
# Total GULP energy -201137.788558 kJ/mol
# GULP energy per Si atom -5587.160793 kJ/mol
# Density = 2.274717 g / cm^3
# Si number density = 22.799061 Si / 1000 Ang^3
#
#
#
# Elastic Constant Matrix: (Units=GPa)
#
#
# Indices 1 2 3 4 5 6 
#
# 1 105.2505 10.3310 -0.9293 0.0000 0.0000 0.0000
# 2 10.3310 82.7149 12.7597 0.0000 0.0000 0.0000
# 3 -0.9293 12.7597 26.7489 0.0000 0.0000 0.0000
# 4 0.0000 0.0000 0.0000 31.7627 0.0000 0.0000
# 5 0.0000 0.0000 0.0000 0.0000 5.5699 0.0000
# 6 0.0000 0.0000 0.0000 0.0000 0.0000 37.9337
#
#
#
# Elastic Compliance Matrix: (Units=1/GPa)
#
#
# Indices 1 2 3 4 5 6 
#
# 1 0.009643 -0.001356 0.000982 0.000000 0.000000 0.000000
# 2 -0.001356 0.013241 -0.006363 0.000000 0.000000 0.000000
# 3 0.000982 -0.006363 0.040454 0.000000 0.000000 0.000000
# 4 0.000000 0.000000 0.000000 0.031483 0.000000 0.000000
# 5 0.000000 0.000000 0.000000 0.000000 0.179536 0.000000
# 6 0.000000 0.000000 0.000000 0.000000 0.000000 0.026362
#
#
# Mechanical properties :
#
#
# Convention : Reuss Voigt Hill
#
# Bulk Modulus (GPa) = 20.05482 28.78189 24.41836
# Shear Modulus (GPa) = 15.11422 27.89012 21.50217
#
# Velocity S-wave (km/s) = 2.57754 3.50137 3.07435
# Velocity P-wave (km/s) = 4.20401 5.38495 4.83070
#
# Compressibility (1/GPa) = 0.04986332
#
# Stress axis : x y z
#
# Youngs Moduli (GPa) = 103.70327 75.52500 24.71931
#
# Poissons Ratio (x) = 0.10240 -0.02427
# Poissons Ratio (y) = 0.14060 0.15729
# Poissons Ratio (z) = -0.10181 0.48058
#
# Static dielectric constant tensor:
#      x y z
#    x 1.816250 0.000000 0.000000 
#    y 0.000000 1.898580 0.000000 
#    z 0.000000 0.000000 1.862970 
# 
# From -- ./inp_files/35634.got.cif
#   From: 2010.05.17/outbox.cif.g08.bks.cpg/sg52_18_cif.got.tgz:35634.got - 2010.06.03 12:15:38.
