data_PCOD9412888
_publ_section_title
;
Structure prediction by ZEFSAII (Michael W. Deem and Ramdas Pophale) SiO2 
 PCOD9412888
Probable space group: P N N A
;
_chemical_formula_sum "Si O2"
_cell_formula_units_Z 32
_cell_length_a 15.703859
_cell_length_b 16.405487
_cell_length_c 4.620979
_cell_angle_alpha 90.000000
_cell_angle_beta 90.000000
_cell_angle_gamma 90.000000
_cell_volume 1190.500300
_symmetry_space_group_name_H-M "P N N A"
_symmetry_group_IT_number 52
_symmetry_cell_setting 'orthorhombic'
loop_
_space_group_symop_operation_xyz
x,y,z
1/2-x,-y,z
x,1/2-y,1/2-z
1/2-x,1/2+y,1/2-z
-x,-y,-z
1/2+x,y,-z
-x,1/2+y,1/2+z
1/2+x,1/2-y,1/2+z
loop_
_atom_site_type_symbol
_atom_site_label
_atom_site_fract_x
_atom_site_fract_y
_atom_site_fract_z
Si Si1 0.400024 0.100388 0.624212
Si Si2 0.060905 0.304408 0.995253
Si Si3 0.675286 0.438642 0.058857
Si Si4 0.289017 0.342763 0.363509
O O1 0.491728 0.139891 0.656595
O O2 0.370379 0.119768 0.300591
O O3 0.400209 0.002782 0.627168
O O4 0.324337 0.145048 0.810925
O O5 0.097767 0.250000 0.250000
O O6 0.134977 0.354440 0.834120
O O7 0.017728 0.250000 0.750000
O O8 0.750000 0.500000 0.157000
O O9 0.713342 0.404146 0.748970
O O10 0.279372 0.250000 0.250000
#
# Coordination Sequence:
#
# PCOD9412888 Si02
#       4
#     8   8   8   8
#     4  11  24  45  71 102 142 188 241 302 367 434
#     4  12  26  46  74 107 142 190 247 307 368 442
#     4  10  26  44  68 103 144 187 233 294 368 438
#     4  11  23  43  71 104 142 191 244 299 360 436
#
# _framework density 26.879456000000001
#
# number of rings (size 3 to 8) (size 9 to 14) (size 15 to 20)
#    0.000    1.000    0.000    6.000    0.000   21.000 
#    0.000    8.750    0.000    0.000    0.000    0.000 
#    0.000    0.000    0.000    0.000    0.000    0.000 
#
# Total GULP energy -178198.317151 kJ/mol
# GULP energy per Si atom -5568.697411 kJ/mol
# Density = 2.681828 g / cm^3
# Si number density = 26.879456 Si / 1000 Ang^3
#
#
#
# Elastic Constant Matrix: (Units=GPa)
#
#
# Indices 1 2 3 4 5 6 
#
# 1 84.0155 24.6849 4.6951 0.0000 0.0000 0.0000
# 2 24.6849 173.6365 35.9281 0.0000 0.0000 0.0000
# 3 4.6951 35.9281 55.6478 0.0000 0.0000 0.0000
# 4 0.0000 0.0000 0.0000 32.3922 0.0000 0.0000
# 5 0.0000 0.0000 0.0000 0.0000 32.3208 0.0000
# 6 0.0000 0.0000 0.0000 0.0000 0.0000 50.0516
#
#
#
# Elastic Compliance Matrix: (Units=1/GPa)
#
#
# Indices 1 2 3 4 5 6 
#
# 1 0.012422 -0.001788 0.000106 0.000000 0.000000 0.000000
# 2 -0.001788 0.006905 -0.004307 0.000000 0.000000 0.000000
# 3 0.000106 -0.004307 0.020742 0.000000 0.000000 0.000000
# 4 0.000000 0.000000 0.000000 0.030872 0.000000 0.000000
# 5 0.000000 0.000000 0.000000 0.000000 0.030940 0.000000
# 6 0.000000 0.000000 0.000000 0.000000 0.000000 0.019979
#
#
# Mechanical properties :
#
#
# Convention : Reuss Voigt Hill
#
# Bulk Modulus (GPa) = 35.59833 49.32398 42.46116
# Shear Modulus (GPa) = 34.91618 39.48571 37.20094
#
# Velocity S-wave (km/s) = 3.60806 3.83690 3.72424
# Velocity P-wave (km/s) = 5.53443 6.16595 5.85871
#
# Compressibility (1/GPa) = 0.02809120
#
# Stress axis : x y z
#
# Youngs Moduli (GPa) = 80.50264 144.83286 48.21161
#
# Poissons Ratio (x) = 0.25895 -0.00513
# Poissons Ratio (y) = 0.14393 0.20764
# Poissons Ratio (z) = -0.00856 0.62379
#
# Static dielectric constant tensor:
#      x y z
#    x 2.149400 0.000000 0.000000 
#    y 0.000000 2.100910 0.000000 
#    z 0.000000 0.000000 2.086050 
# 
# From -- ./inp_files/2972.got.cif
#   From: 2010.05.17/outbox.cif.g08.bks.cpg/sg52_2_cif.got.tgz:2972.got - 2010.06.03 12:15:38.
