data_PCOD9412917
_publ_section_title
;
Structure prediction by ZEFSAII (Michael W. Deem and Ramdas Pophale) SiO2 
 PCOD9412917
Probable space group: P N N A
;
_chemical_formula_sum "Si O2"
_cell_formula_units_Z 36
_cell_length_a 8.266227
_cell_length_b 18.812687
_cell_length_c 8.951648
_cell_angle_alpha 90.000000
_cell_angle_beta 90.000000
_cell_angle_gamma 90.000000
_cell_volume 1392.070254
_symmetry_space_group_name_H-M "P N N A"
_symmetry_group_IT_number 52
_symmetry_cell_setting 'orthorhombic'
loop_
_space_group_symop_operation_xyz
x,y,z
1/2-x,-y,z
x,1/2-y,1/2-z
1/2-x,1/2+y,1/2-z
-x,-y,-z
1/2+x,y,-z
-x,1/2+y,1/2+z
1/2+x,1/2-y,1/2+z
loop_
_atom_site_type_symbol
_atom_site_label
_atom_site_fract_x
_atom_site_fract_y
_atom_site_fract_z
Si Si1 0.525883 0.074221 0.809338
Si Si2 0.272435 0.115561 0.577315
Si Si3 0.543510 0.918988 0.710644
Si Si4 0.176541 0.860266 0.018798
Si Si5 0.236711 0.750000 0.750000
O O1 0.444292 0.107025 0.661315
O O2 0.657253 0.123719 0.893301
O O3 0.583740 0.995689 0.776752
O O4 0.372492 0.071753 0.920500
O O5 0.321723 0.106020 0.407334
O O6 0.196799 0.189003 0.640208
O O7 0.127672 0.065577 0.630269
O O8 0.547757 0.861269 0.844817
O O9 0.166326 0.798705 0.891753
#
# Coordination Sequence:
#
# PCOD9412917 Si02
#       5
#     8   8   8   8   4
#     4  11  24  45  72 107 143 185 239 300 372 431
#     4  11  26  45  71 105 151 193 238 306 362 447
#     4  12  25  45  73 109 143 190 242 303 376 436
#     4  11  24  45  74 101 144 193 239 305 358 440
#     4  10  26  48  68 102 142 194 254 292 368 438
#
# _framework density 25.860762000000001
#
# number of rings (size 3 to 8) (size 9 to 14) (size 15 to 20)
#    0.000    0.889    0.000    6.667    0.000   11.556 
#    0.000    0.000    0.000    1.333    0.000    0.000 
#    0.000    0.000    0.000    0.000    0.000    0.000 
#
# Total GULP energy -200477.190832 kJ/mol
# GULP energy per Si atom -5568.810856 kJ/mol
# Density = 2.580190 g / cm^3
# Si number density = 25.860762 Si / 1000 Ang^3
#
#
#
# Elastic Constant Matrix: (Units=GPa)
#
#
# Indices 1 2 3 4 5 6 
#
# 1 110.2345 17.0143 50.2460 0.0000 0.0000 0.0000
# 2 17.0143 80.1699 53.1790 0.0000 0.0000 0.0000
# 3 50.2460 53.1790 208.2939 0.0000 0.0000 0.0000
# 4 0.0000 0.0000 0.0000 28.1765 0.0000 0.0000
# 5 0.0000 0.0000 0.0000 0.0000 37.4100 0.0000
# 6 0.0000 0.0000 0.0000 0.0000 0.0000 -5.4506
#
#
#
# Elastic Compliance Matrix: (Units=1/GPa)
#
#
# Indices 1 2 3 4 5 6 
#
# 1 0.010220 -0.000642 -0.002301 0.000000 0.000000 0.000000
# 2 -0.000642 0.015057 -0.003689 0.000000 0.000000 0.000000
# 3 -0.002301 -0.003689 0.006298 0.000000 0.000000 0.000000
# 4 0.000000 0.000000 0.000000 0.035491 0.000000 0.000000
# 5 0.000000 0.000000 0.000000 0.000000 0.026731 0.000000
# 6 0.000000 0.000000 0.000000 0.000000 0.000000 -0.183465
#
#
# Mechanical properties :
#
#
# Convention : Reuss Voigt Hill
#
# Bulk Modulus (GPa) = 54.61840 71.06411 62.84125
# Shear Modulus (GPa) = -71.12290 30.57777 -20.27256
#
# Velocity S-wave (km/s) = -5.24995 3.44234 -2.80288
# Velocity P-wave (km/s) = 3.94756 6.58322 3.72528
#
# Compressibility (1/GPa) = 0.01830885
#
# Stress axis : x y z
#
# Youngs Moduli (GPa) = 97.85069 66.41426 158.78283
#
# Poissons Ratio (x) = 0.04267 0.36540
# Poissons Ratio (y) = 0.06286 0.58578
# Poissons Ratio (z) = 0.22518 0.24502
#
# Static dielectric constant tensor:
#      x y z
#    x 2.181220 0.000000 0.000000 
#    y 0.000000 2.121300 0.000000 
#    z 0.000000 0.000000 2.084920 
# 
# From -- ./inp_files/7289.got.cif
#   From: 2010.05.17/outbox.cif.g08.bks.cpg/sg52_4_cif.got.tgz:7289.got - 2010.06.03 12:15:38.
