data_PCOD9412520
_publ_section_title
;
Structure prediction by ZEFSAII (Michael W. Deem and Ramdas Pophale) SiO2 
 PCOD9412520
Probable space group: P N N A
;
_chemical_formula_sum "Si O2"
_cell_formula_units_Z 20
_cell_length_a 16.035060
_cell_length_b 5.029412
_cell_length_c 10.782781
_cell_angle_alpha 90.000000
_cell_angle_beta 90.000000
_cell_angle_gamma 90.000000
_cell_volume 869.598111
_symmetry_space_group_name_H-M "P N N A"
_symmetry_group_IT_number 52
_symmetry_cell_setting 'orthorhombic'
loop_
_space_group_symop_operation_xyz
x,y,z
1/2-x,-y,z
x,1/2-y,1/2-z
1/2-x,1/2+y,1/2-z
-x,-y,-z
1/2+x,y,-z
-x,1/2+y,1/2+z
1/2+x,1/2-y,1/2+z
loop_
_atom_site_type_symbol
_atom_site_label
_atom_site_fract_x
_atom_site_fract_y
_atom_site_fract_z
Si Si1 0.881765 0.013602 0.169132
Si Si2 0.750000 0.000000 0.963171
Si Si3 0.344757 0.250000 0.250000
Si Si4 0.037844 0.250000 0.250000
O O1 0.837158 0.250000 0.250000
O O2 0.971355 0.154018 0.145096
O O3 0.895902 0.750000 0.250000
O O4 0.827085 0.934177 0.052306
O O5 0.713299 0.785748 0.869126
O O6 0.403521 0.501954 0.226310
#
# Coordination Sequence:
#
# PCOD9412520 Si02
#       4
#     8   4   4   4
#     4  10  23  47  77 105 132 189 242 302 336 419
#     4  12  28  46  74 104 152 180 246 284 366 416
#     4  12  27  46  67 108 148 196 214 298 357 440
#     4  10  23  50  69 106 144 178 252 274 371 402
#
# _framework density 22.999130999999998
#
# number of rings (size 3 to 8) (size 9 to 14) (size 15 to 20)
#    1.200    0.000    2.000    2.400    0.000   12.800 
#    0.000    0.000    0.000    0.000    0.000    0.000 
#    0.000    0.000    0.000    0.000    0.000    0.000 
#
# Total GULP energy -111633.338556 kJ/mol
# GULP energy per Si atom -5581.666928 kJ/mol
# Density = 2.294678 g / cm^3
# Si number density = 22.999131 Si / 1000 Ang^3
#
#
#
# Elastic Constant Matrix: (Units=GPa)
#
#
# Indices 1 2 3 4 5 6 
#
# 1 180.9046 86.3039 79.5722 0.0000 0.0000 0.0000
# 2 86.3039 178.4101 55.1921 0.0000 0.0000 0.0000
# 3 79.5722 55.1921 107.8149 0.0000 0.0000 0.0000
# 4 0.0000 0.0000 0.0000 19.6204 0.0000 0.0000
# 5 0.0000 0.0000 0.0000 0.0000 0.7828 0.0000
# 6 0.0000 0.0000 0.0000 0.0000 0.0000 10.9551
#
#
#
# Elastic Compliance Matrix: (Units=1/GPa)
#
#
# Indices 1 2 3 4 5 6 
#
# 1 0.009230 -0.002801 -0.005378 0.000000 0.000000 0.000000
# 2 -0.002801 0.007510 -0.001777 0.000000 0.000000 0.000000
# 3 -0.005378 -0.001777 0.014154 0.000000 0.000000 0.000000
# 4 0.000000 0.000000 0.000000 0.050967 0.000000 0.000000
# 5 0.000000 0.000000 0.000000 0.000000 1.277498 0.000000
# 6 0.000000 0.000000 0.000000 0.000000 0.000000 0.091282
#
#
# Mechanical properties :
#
#
# Convention : Reuss Voigt Hill
#
# Bulk Modulus (GPa) = 91.06413 101.02954 96.04684
# Shear Modulus (GPa) = 3.39164 22.67575 13.03370
#
# Velocity S-wave (km/s) = 1.21568 3.14337 2.38314
# Velocity P-wave (km/s) = 6.45376 7.56289 7.03023
#
# Compressibility (1/GPa) = 0.01098127
#
# Stress axis : x y z
#
# Youngs Moduli (GPa) = 108.34729 133.15983 70.65117
#
# Poissons Ratio (x) = 0.37298 0.37996
# Poissons Ratio (y) = 0.30348 0.12555
# Poissons Ratio (z) = 0.58269 0.23664
#
# Static dielectric constant tensor:
#      x y z
#    x 1.895840 0.000000 0.000000 
#    y 0.000000 1.845590 0.000000 
#    z 0.000000 0.000000 1.893230 
# 
# From -- ./inp_files/11209.got.cif
#   From: 2010.05.17/outbox.cif.g08.bks.cpg/sg52_6_cif.got.tgz:11209.got - 2010.06.03 12:15:38.
