data_PCOD9412101
_publ_section_title
;
Structure prediction by ZEFSAII (Michael W. Deem and Ramdas Pophale) SiO2 
 PCOD9412101
Probable space group: P N N A
;
_chemical_formula_sum "Si O2"
_cell_formula_units_Z 36
_cell_length_a 8.856180
_cell_length_b 7.838672
_cell_length_c 21.779305
_cell_angle_alpha 90.000000
_cell_angle_beta 90.000000
_cell_angle_gamma 90.000000
_cell_volume 1511.934385
_symmetry_space_group_name_H-M "P N N A"
_symmetry_group_IT_number 52
_symmetry_cell_setting 'orthorhombic'
loop_
_space_group_symop_operation_xyz
x,y,z
1/2-x,-y,z
x,1/2-y,1/2-z
1/2-x,1/2+y,1/2-z
-x,-y,-z
1/2+x,y,-z
-x,1/2+y,1/2+z
1/2+x,1/2-y,1/2+z
loop_
_atom_site_type_symbol
_atom_site_label
_atom_site_fract_x
_atom_site_fract_y
_atom_site_fract_z
Si Si1 0.250000 0.500000 0.819961
Si Si2 0.742064 0.734808 0.975350
Si Si3 0.750000 0.500000 0.420221
Si Si4 0.039039 0.932902 0.577709
Si Si5 0.524902 0.250000 0.250000
Si Si6 0.023872 0.674758 0.379104
O O1 0.150647 0.621526 0.866134
O O2 0.363382 0.606992 0.777870
O O3 0.789979 0.849672 0.032173
O O4 0.630196 0.606516 0.014397
O O5 0.621772 0.341656 0.934202
O O6 0.646986 0.854931 0.930470
O O7 0.898173 0.526319 0.379699
O O8 0.018848 0.129473 0.599148
O O9 0.428662 0.308856 0.308456
#
# Coordination Sequence:
#
# PCOD9412101 Si02
#       6
#     4   8   4   8   4   8
#     4  10  23  42  66 100 121 178 228 276 328 404
#     4  12  24  43  63 104 136 168 215 285 348 410
#     4  12  25  38  64 100 139 162 210 282 354 396
#     4  11  25  40  71  96 131 170 229 274 337 413
#     4  10  22  44  64  86 130 172 224 262 320 398
#     4  11  24  41  67  96 131 179 223 276 334 411
#
# _framework density 23.810555999999998
#
# number of rings (size 3 to 8) (size 9 to 14) (size 15 to 20)
#    0.000    0.889    2.222    5.333    6.222    0.000 
#    0.000    1.111    4.889    0.000    0.000    0.000 
#    0.000    0.000    0.000    0.000    0.000    0.000 
#
# Total GULP energy -200412.857595 kJ/mol
# GULP energy per Si atom -5567.023822 kJ/mol
# Density = 2.375636 g / cm^3
# Si number density = 23.810556 Si / 1000 Ang^3
#
#
#
# Elastic Constant Matrix: (Units=GPa)
#
#
# Indices 1 2 3 4 5 6 
#
# 1 83.3040 15.2670 10.8269 0.0000 0.0000 0.0000
# 2 15.2670 60.0013 7.8829 0.0000 0.0000 0.0000
# 3 10.8269 7.8829 163.4335 0.0000 0.0000 0.0000
# 4 0.0000 0.0000 0.0000 25.2719 0.0000 0.0000
# 5 0.0000 0.0000 0.0000 0.0000 8.4976 0.0000
# 6 0.0000 0.0000 0.0000 0.0000 0.0000 46.3821
#
#
#
# Elastic Compliance Matrix: (Units=1/GPa)
#
#
# Indices 1 2 3 4 5 6 
#
# 1 0.012668 -0.003133 -0.000688 0.000000 0.000000 0.000000
# 2 -0.003133 0.017547 -0.000639 0.000000 0.000000 0.000000
# 3 -0.000688 -0.000639 0.006195 0.000000 0.000000 0.000000
# 4 0.000000 0.000000 0.000000 0.039570 0.000000 0.000000
# 5 0.000000 0.000000 0.000000 0.000000 0.117681 0.000000
# 6 0.000000 0.000000 0.000000 0.000000 0.000000 0.021560
#
#
# Mechanical properties :
#
#
# Convention : Reuss Voigt Hill
#
# Bulk Modulus (GPa) = 36.37586 41.63247 39.00417
# Shear Modulus (GPa) = 21.43127 34.21445 27.82286
#
# Velocity S-wave (km/s) = 3.00338 3.79482 3.42206
# Velocity P-wave (km/s) = 5.22852 6.06001 5.65955
#
# Compressibility (1/GPa) = 0.02749076
#
# Stress axis : x y z
#
# Youngs Moduli (GPa) = 78.94026 56.98860 161.41810
#
# Poissons Ratio (x) = 0.17854 0.11107
# Poissons Ratio (y) = 0.24731 0.10312
# Poissons Ratio (z) = 0.05432 0.03641
#
# Static dielectric constant tensor:
#      x y z
#    x 2.045660 0.000000 0.000000 
#    y 0.000000 2.251750 0.000000 
#    z 0.000000 0.000000 1.913480 
# 
# From -- ./inp_files/40052.got.cif
#   From: 2010.05.17/outbox.cif.g08.bks.cpg/sg52_21_cif.got.tgz:40052.got - 2010.06.03 12:15:38.
