data_PCOD9412131
_publ_section_title
;
Structure prediction by ZEFSAII (Michael W. Deem and Ramdas Pophale) SiO2 
 PCOD9412131
Probable space group: P N N A
;
_chemical_formula_sum "Si O2"
_cell_formula_units_Z 28
_cell_length_a 5.161904
_cell_length_b 15.557039
_cell_length_c 13.809692
_cell_angle_alpha 90.000000
_cell_angle_beta 90.000000
_cell_angle_gamma 90.000000
_cell_volume 1108.972703
_symmetry_space_group_name_H-M "P N N A"
_symmetry_group_IT_number 52
_symmetry_cell_setting 'orthorhombic'
loop_
_space_group_symop_operation_xyz
x,y,z
1/2-x,-y,z
x,1/2-y,1/2-z
1/2-x,1/2+y,1/2-z
-x,-y,-z
1/2+x,y,-z
-x,1/2+y,1/2+z
1/2+x,1/2-y,1/2+z
loop_
_atom_site_type_symbol
_atom_site_label
_atom_site_fract_x
_atom_site_fract_y
_atom_site_fract_z
Si Si1 0.046475 0.750000 0.250000
Si Si2 0.750000 0.000000 0.603962
Si Si3 0.750000 0.500000 0.566758
Si Si4 0.052526 0.428584 0.718915
Si Si5 0.335350 0.808720 0.444647
O O1 0.864368 0.668680 0.272292
O O2 0.226504 0.779487 0.340341
O O3 0.533229 0.964127 0.677401
O O4 0.846560 0.913829 0.552142
O O5 0.500000 0.500000 0.500000
O O6 0.691273 0.574993 0.644810
O O7 0.250000 0.500000 0.682146
O O8 0.618563 0.778978 0.477648
#
# Coordination Sequence:
#
# PCOD9412131 Si02
#       5
#     4   4   4   8   8
#     4  10  26  48  70 108 158 196 248 320 366 454
#     4   9  22  40  70 101 138 180 240 303 370 441
#     4  11  22  42  70 101 138 188 250 309 362 447
#     4  10  22  44  70 104 143 203 245 304 385 436
#     4  11  25  45  70 106 140 189 241 299 370 438
#
# _framework density 25.248591999999999
#
# number of rings (size 3 to 8) (size 9 to 14) (size 15 to 20)
#    0.000    1.714    1.429    0.857    8.000    3.429 
#   10.286    0.000    0.000    0.000    0.000    0.000 
#    0.000    0.000    0.000    0.000    0.000    0.000 
#
# Total GULP energy -156391.765988 kJ/mol
# GULP energy per Si atom -5585.420214 kJ/mol
# Density = 2.519113 g / cm^3
# Si number density = 25.248592 Si / 1000 Ang^3
#
#
#
# Elastic Constant Matrix: (Units=GPa)
#
#
# Indices 1 2 3 4 5 6 
#
# 1 103.0000 40.3932 22.8416 0.0000 0.0000 0.0000
# 2 40.3932 160.3461 20.0014 0.0000 0.0000 0.0000
# 3 22.8416 20.0014 98.9310 0.0000 0.0000 0.0000
# 4 0.0000 0.0000 0.0000 18.1276 0.0000 0.0000
# 5 0.0000 0.0000 0.0000 0.0000 34.5758 0.0000
# 6 0.0000 0.0000 0.0000 0.0000 0.0000 20.4489
#
#
#
# Elastic Compliance Matrix: (Units=1/GPa)
#
#
# Indices 1 2 3 4 5 6 
#
# 1 0.011168 -0.002556 -0.002062 0.000000 0.000000 0.000000
# 2 -0.002556 0.006983 -0.000822 0.000000 0.000000 0.000000
# 3 -0.002062 -0.000822 0.010750 0.000000 0.000000 0.000000
# 4 0.000000 0.000000 0.000000 0.055165 0.000000 0.000000
# 5 0.000000 0.000000 0.000000 0.000000 0.028922 0.000000
# 6 0.000000 0.000000 0.000000 0.000000 0.000000 0.048902
#
#
# Mechanical properties :
#
#
# Convention : Reuss Voigt Hill
#
# Bulk Modulus (GPa) = 55.48686 58.74993 57.11839
# Shear Modulus (GPa) = 27.96777 33.23320 30.60048
#
# Velocity S-wave (km/s) = 3.33182 3.63194 3.48511
# Velocity P-wave (km/s) = 6.06838 6.39586 6.23427
#
# Compressibility (1/GPa) = 0.01802229
#
# Stress axis : x y z
#
# Youngs Moduli (GPa) = 89.53785 143.20594 93.02162
#
# Poissons Ratio (x) = 0.36608 0.19179
# Poissons Ratio (y) = 0.22888 0.07642
# Poissons Ratio (z) = 0.18461 0.11765
#
# Static dielectric constant tensor:
#      x y z
#    x 2.096840 0.000000 0.000000 
#    y 0.000000 2.059290 0.000000 
#    z 0.000000 0.000000 1.992940 
# 
# From -- ./inp_files/23447.got.cif
#   From: 2010.05.17/outbox.cif.g08.bks.cpg/sg52_12_cif.got.tgz:23447.got - 2010.06.03 12:15:38.
