data_PCOD9412383
_publ_section_title
;
Structure prediction by ZEFSAII (Michael W. Deem and Ramdas Pophale) SiO2 
 PCOD9412383
Probable space group: P N N A
;
_chemical_formula_sum "Si O2"
_cell_formula_units_Z 24
_cell_length_a 11.884062
_cell_length_b 17.295144
_cell_length_c 4.927438
_cell_angle_alpha 90.000000
_cell_angle_beta 90.000000
_cell_angle_gamma 90.000000
_cell_volume 1012.768674
_symmetry_space_group_name_H-M "P N N A"
_symmetry_group_IT_number 52
_symmetry_cell_setting 'orthorhombic'
loop_
_space_group_symop_operation_xyz
x,y,z
1/2-x,-y,z
x,1/2-y,1/2-z
1/2-x,1/2+y,1/2-z
-x,-y,-z
1/2+x,y,-z
-x,1/2+y,1/2+z
1/2+x,1/2-y,1/2+z
loop_
_atom_site_type_symbol
_atom_site_label
_atom_site_fract_x
_atom_site_fract_y
_atom_site_fract_z
Si Si1 0.250000 0.500000 0.774671
Si Si2 0.570872 0.597947 0.551124
Si Si3 0.929601 0.604839 0.960276
Si Si4 0.014758 0.750000 0.250000
O O1 0.333158 0.451081 0.584310
O O2 0.183215 0.437688 0.955413
O O3 0.529958 0.570796 0.846585
O O4 0.592063 0.689313 0.587775
O O5 0.463340 0.596452 0.350430
O O6 0.939173 0.694437 0.059141
#
# Coordination Sequence:
#
# PCOD9412383 Si02
#       4
#     4   8   8   4
#     4  12  24  42  74 108 138 184 240 282 354 408
#     4  10  23  43  69  98 141 182 225 290 339 414
#     4  10  23  43  67  98 145 178 229 286 343 410
#     4   8  22  46  66  88 154 168 232 288 350 396
#
# _framework density 23.697414999999999
#
# number of rings (size 3 to 8) (size 9 to 14) (size 15 to 20)
#    2.000    0.000    0.000    3.000    0.000    5.333 
#    6.000    0.000    0.000    0.000    0.000    0.000 
#    0.000    0.000    0.000    0.000    0.000    0.000 
#
# Total GULP energy -134092.479351 kJ/mol
# GULP energy per Si atom -5587.186640 kJ/mol
# Density = 2.364348 g / cm^3
# Si number density = 23.697415 Si / 1000 Ang^3
#
#
#
# Elastic Constant Matrix: (Units=GPa)
#
#
# Indices 1 2 3 4 5 6 
#
# 1 61.3003 45.6168 14.0010 0.0000 0.0000 0.0000
# 2 45.6168 178.3251 28.6125 0.0000 0.0000 0.0000
# 3 14.0010 28.6125 99.7978 0.0000 0.0000 0.0000
# 4 0.0000 0.0000 0.0000 -505.6131 0.0000 0.0000
# 5 0.0000 0.0000 0.0000 0.0000 21.7755 0.0000
# 6 0.0000 0.0000 0.0000 0.0000 0.0000 27.8341
#
#
#
# Elastic Compliance Matrix: (Units=1/GPa)
#
#
# Indices 1 2 3 4 5 6 
#
# 1 0.020341 -0.004974 -0.001428 0.000000 0.000000 0.000000
# 2 -0.004974 0.007095 -0.001336 0.000000 0.000000 0.000000
# 3 -0.001428 -0.001336 0.010604 0.000000 0.000000 0.000000
# 4 0.000000 0.000000 0.000000 -0.001978 0.000000 0.000000
# 5 0.000000 0.000000 0.000000 0.000000 0.045923 0.000000
# 6 0.000000 0.000000 0.000000 0.000000 0.000000 0.035927
#
#
# Mechanical properties :
#
#
# Convention : Reuss Voigt Hill
#
# Bulk Modulus (GPa) = 44.32033 57.32043 50.82038
# Shear Modulus (GPa) = 35.48403 -74.45449 -19.48523
#
# Velocity S-wave (km/s) = 3.87380 -5.61133 -2.87060
# Velocity P-wave (km/s) = 6.22508 4.21209 3.24113
#
# Compressibility (1/GPa) = 0.02256301
#
# Stress axis : x y z
#
# Youngs Moduli (GPa) = 49.16229 140.95264 94.30740
#
# Poissons Ratio (x) = 0.70114 0.13463
# Poissons Ratio (y) = 0.24455 0.12601
# Poissons Ratio (z) = 0.07018 0.18834
#
# Static dielectric constant tensor:
#      x y z
#    x 1.882690 0.000000 0.000000 
#    y 0.000000 2.001470 0.000000 
#    z 0.000000 0.000000 1.871170 
# 
# From -- ./inp_files/723.got.cif
#   From: 2010.05.17/outbox.cif.g08.bks.cpg/sg52_1_cif.got.tgz:723.got - 2010.06.03 12:15:38.
