data_PCOD9412935
_publ_section_title
;
Structure prediction by ZEFSAII (Michael W. Deem and Ramdas Pophale) SiO2 
 PCOD9412935
Probable space group: P N N A
;
_chemical_formula_sum "Si O2"
_cell_formula_units_Z 32
_cell_length_a 5.067599
_cell_length_b 12.668829
_cell_length_c 20.484575
_cell_angle_alpha 90.000000
_cell_angle_beta 90.000000
_cell_angle_gamma 90.000000
_cell_volume 1315.120883
_symmetry_space_group_name_H-M "P N N A"
_symmetry_group_IT_number 52
_symmetry_cell_setting 'orthorhombic'
loop_
_space_group_symop_operation_xyz
x,y,z
1/2-x,-y,z
x,1/2-y,1/2-z
1/2-x,1/2+y,1/2-z
-x,-y,-z
1/2+x,y,-z
-x,1/2+y,1/2+z
1/2+x,1/2-y,1/2+z
loop_
_atom_site_type_symbol
_atom_site_label
_atom_site_fract_x
_atom_site_fract_y
_atom_site_fract_z
Si Si1 0.037224 0.300224 0.378722
Si Si2 0.235516 0.851816 0.542746
Si Si3 0.750000 0.000000 0.951616
Si Si4 0.587864 0.893031 0.658531
Si Si5 0.279707 0.750000 0.750000
O O1 0.199750 0.399803 0.403827
O O2 0.228379 0.198959 0.371494
O O3 0.819539 0.268939 0.434022
O O4 0.892790 0.299939 0.308646
O O5 0.462114 0.878748 0.491335
O O6 0.344754 0.901607 0.608742
O O7 0.500000 0.000000 0.000000
O O8 0.463792 0.843506 0.723271
O O9 0.750000 0.000000 0.666635
#
# Coordination Sequence:
#
# PCOD9412935 Si02
#       5
#     8   8   4   8   4
#     4  11  25  52  75 119 162 215 276 339 407 496
#     4  11  22  42  76 111 158 199 255 324 396 479
#     4  12  30  50  88 120 164 220 272 344 418 498
#     4  11  26  50  78 114 157 209 271 337 412 491
#     4  10  26  50  80 114 162 216 280 350 412 504
#
# _framework density 24.332360999999999
#
# number of rings (size 3 to 8) (size 9 to 14) (size 15 to 20)
#    0.000    1.000    2.500    2.250    7.000    5.000 
#   13.500    0.000    0.000    0.000    0.000    0.000 
#    0.000    0.000    0.000    0.000    0.000    0.000 
#
# Total GULP energy -178960.349775 kJ/mol
# GULP energy per Si atom -5592.510930 kJ/mol
# Density = 2.427698 g / cm^3
# Si number density = 24.332361 Si / 1000 Ang^3
#
#
#
# Elastic Constant Matrix: (Units=GPa)
#
#
# Indices 1 2 3 4 5 6 
#
# 1 173.4525 98.1611 57.2889 0.0000 0.0000 0.0000
# 2 98.1611 226.9037 95.0736 0.0000 0.0000 0.0000
# 3 57.2889 95.0736 102.1862 0.0000 0.0000 0.0000
# 4 0.0000 0.0000 0.0000 -15.4292 0.0000 0.0000
# 5 0.0000 0.0000 0.0000 0.0000 66.8138 0.0000
# 6 0.0000 0.0000 0.0000 0.0000 0.0000 41.7365
#
#
#
# Elastic Compliance Matrix: (Units=1/GPa)
#
#
# Indices 1 2 3 4 5 6 
#
# 1 0.007886 -0.002555 -0.002044 0.000000 0.000000 0.000000
# 2 -0.002555 0.008051 -0.006058 0.000000 0.000000 0.000000
# 3 -0.002044 -0.006058 0.016568 0.000000 0.000000 0.000000
# 4 0.000000 0.000000 0.000000 -0.064812 0.000000 0.000000
# 5 0.000000 0.000000 0.000000 0.000000 0.014967 0.000000
# 6 0.000000 0.000000 0.000000 0.000000 0.000000 0.023960
#
#
# Mechanical properties :
#
#
# Convention : Reuss Voigt Hill
#
# Bulk Modulus (GPa) = 89.35587 111.50996 100.43292
# Shear Modulus (GPa) = 157.90258 35.42547 96.66403
#
# Velocity S-wave (km/s) = 8.06442 3.81976 6.30974
# Velocity P-wave (km/s) = 11.11378 8.08588 9.71847
#
# Compressibility (1/GPa) = 0.01119121
#
# Stress axis : x y z
#
# Youngs Moduli (GPa) = 126.79899 124.20898 60.35646
#
# Poissons Ratio (x) = 0.31740 0.12336
# Poissons Ratio (y) = 0.32402 0.36564
# Poissons Ratio (z) = 0.25917 0.75245
#
# Static dielectric constant tensor:
#      x y z
#    x 2.010880 0.000000 0.000000 
#    y 0.000000 2.019350 0.000000 
#    z 0.000000 0.000000 1.990050 
# 
# From -- ./inp_files/34832.got.cif
#   From: 2010.05.17/outbox.cif.g08.bks.cpg/sg52_18_cif.got.tgz:34832.got - 2010.06.03 12:15:38.
