data_PCOD9412487
_publ_section_title
;
Structure prediction by ZEFSAII (Michael W. Deem and Ramdas Pophale) SiO2 
 PCOD9412487
Probable space group: P N N A
;
_chemical_formula_sum "Si O2"
_cell_formula_units_Z 36
_cell_length_a 29.057822
_cell_length_b 10.377772
_cell_length_c 5.237943
_cell_angle_alpha 90.000000
_cell_angle_beta 90.000000
_cell_angle_gamma 90.000000
_cell_volume 1579.530266
_symmetry_space_group_name_H-M "P N N A"
_symmetry_group_IT_number 52
_symmetry_cell_setting 'orthorhombic'
loop_
_space_group_symop_operation_xyz
x,y,z
1/2-x,-y,z
x,1/2-y,1/2-z
1/2-x,1/2+y,1/2-z
-x,-y,-z
1/2+x,y,-z
-x,1/2+y,1/2+z
1/2+x,1/2-y,1/2+z
loop_
_atom_site_type_symbol
_atom_site_label
_atom_site_fract_x
_atom_site_fract_y
_atom_site_fract_z
Si Si1 0.662333 0.250000 0.750000
Si Si2 0.199549 0.996432 0.511686
Si Si3 0.123203 0.612407 0.657712
Si Si4 0.031256 0.006414 0.748034
Si Si5 0.165207 0.750000 0.250000
Si Si6 0.098515 0.250000 0.750000
O O1 0.690409 0.380621 0.826185
O O2 0.629415 0.267672 0.503138
O O3 0.157649 0.989561 0.716018
O O4 0.198456 0.855875 0.378201
O O5 0.250000 0.000000 0.636027
O O6 0.142337 0.750000 0.750000
O O7 0.070982 0.600597 0.738090
O O8 0.129883 0.639478 0.360684
O O9 0.063516 0.131053 0.735045
O O10 0.000000 0.000000 0.500000
O O11 0.000000 0.000000 0.000000
#
# Coordination Sequence:
#
# PCOD9412487 Si02
#       6
#     4   8   8   8   4   4
#     4  12  25  48  78 107 158 197 242 320 375 442
#     4  11  24  45  73 110 145 197 249 306 377 455
#     4  10  24  45  70  99 145 187 239 303 366 438
#     4  12  28  44  73 107 144 190 247 304 371 448
#     4  10  23  45  74 100 144 196 250 299 379 446
#     4  12  26  49  72 107 148 195 246 309 386 438
#
# _framework density 22.791582999999999
#
# number of rings (size 3 to 8) (size 9 to 14) (size 15 to 20)
#    0.000    0.889    2.222    3.333    9.333    0.889 
#    6.000    0.000    0.000    0.000    0.000    0.000 
#    0.000    0.000    0.000    0.000    0.000    0.000 
#
# Total GULP energy -200520.150618 kJ/mol
# GULP energy per Si atom -5570.004184 kJ/mol
# Density = 2.273971 g / cm^3
# Si number density = 22.791583 Si / 1000 Ang^3
#
#
#
# Elastic Constant Matrix: (Units=GPa)
#
#
# Indices 1 2 3 4 5 6 
#
# 1 185.1483 45.4722 78.9553 0.0000 0.0000 0.0000
# 2 45.4722 140.1090 33.0592 0.0000 0.0000 0.0000
# 3 78.9553 33.0592 118.2447 0.0000 0.0000 0.0000
# 4 0.0000 0.0000 0.0000 38.1350 0.0000 0.0000
# 5 0.0000 0.0000 0.0000 0.0000 17.2633 0.0000
# 6 0.0000 0.0000 0.0000 0.0000 0.0000 18.0339
#
#
#
# Elastic Compliance Matrix: (Units=1/GPa)
#
#
# Indices 1 2 3 4 5 6 
#
# 1 0.007798 -0.001394 -0.004817 0.000000 0.000000 0.000000
# 2 -0.001394 0.007891 -0.001275 0.000000 0.000000 0.000000
# 3 -0.004817 -0.001275 0.012030 0.000000 0.000000 0.000000
# 4 0.000000 0.000000 0.000000 0.026223 0.000000 0.000000
# 5 0.000000 0.000000 0.000000 0.000000 0.057926 0.000000
# 6 0.000000 0.000000 0.000000 0.000000 0.000000 0.055451
#
#
# Mechanical properties :
#
#
# Convention : Reuss Voigt Hill
#
# Bulk Modulus (GPa) = 78.45757 84.27505 81.36631
# Shear Modulus (GPa) = 26.80398 33.75413 30.27905
#
# Velocity S-wave (km/s) = 3.43308 3.85254 3.64884
# Velocity P-wave (km/s) = 7.08614 7.53963 7.31640
#
# Compressibility (1/GPa) = 0.01274574
#
# Stress axis : x y z
#
# Youngs Moduli (GPa) = 128.24433 126.73223 83.12595
#
# Poissons Ratio (x) = 0.17668 0.40041
# Poissons Ratio (y) = 0.17879 0.10600
# Poissons Ratio (z) = 0.61774 0.16161
#
# Static dielectric constant tensor:
#      x y z
#    x 1.774780 0.000000 0.000000 
#    y 0.000000 1.928200 0.000000 
#    z 0.000000 0.000000 0.693150 
# 
# From -- ./inp_files/4951.got.cif
#   From: 2010.05.17/outbox.cif.g08.bks.cpg/sg52_3_cif.got.tgz:4951.got - 2010.06.03 12:15:38.
