data_PCOD9412228
_publ_section_title
;
Structure prediction by ZEFSAII (Michael W. Deem and Ramdas Pophale) SiO2 
 PCOD9412228
Probable space group: P N N A
;
_chemical_formula_sum "Si O2"
_cell_formula_units_Z 60
_cell_length_a 14.186071
_cell_length_b 24.257345
_cell_length_c 8.864639
_cell_angle_alpha 90.000000
_cell_angle_beta 90.000000
_cell_angle_gamma 90.000000
_cell_volume 3050.467823
_symmetry_space_group_name_H-M "P N N A"
_symmetry_group_IT_number 52
_symmetry_cell_setting 'orthorhombic'
loop_
_space_group_symop_operation_xyz
x,y,z
1/2-x,-y,z
x,1/2-y,1/2-z
1/2-x,1/2+y,1/2-z
-x,-y,-z
1/2+x,y,-z
-x,1/2+y,1/2+z
1/2+x,1/2-y,1/2+z
loop_
_atom_site_type_symbol
_atom_site_label
_atom_site_fract_x
_atom_site_fract_y
_atom_site_fract_z
Si Si1 0.304918 0.109915 0.130972
Si Si2 0.750000 0.500000 0.445759
Si Si3 0.527448 0.629059 0.428957
Si Si4 0.311511 0.446478 0.064549
Si Si5 0.428827 0.939681 0.813819
Si Si6 0.627917 0.388705 0.015159
Si Si7 0.023357 0.545292 0.829842
Si Si8 0.866448 0.686438 0.743014
O O1 0.343122 0.089591 0.292648
O O2 0.213424 0.146913 0.168662
O O3 0.381753 0.142307 0.030855
O O4 0.281832 0.052680 0.044658
O O5 0.665883 0.474565 0.346656
O O6 0.464218 0.590118 0.537117
O O7 0.557388 0.590387 0.290158
O O8 0.461265 0.675652 0.355179
O O9 0.250000 0.500000 0.110794
O O10 0.235454 0.408414 0.978306
O O11 0.395965 0.461845 0.954180
O O12 0.413130 0.895236 0.681877
O O13 0.496710 0.988277 0.754812
O O14 0.568588 0.430385 0.909113
O O15 0.620429 0.333680 0.916305
O O16 0.839609 0.750000 0.750000
#
# Coordination Sequence:
#
# PCOD9412228 Si02
#       8
#     8   4   8   8   8   8   8   8
#     4  11  23  39  64  97 127 173 215 265 341 403
#     4  12  22  34  62  96 144 166 204 258 342 422
#     4  11  24  38  65  94 124 170 223 269 331 396
#     4  11  21  34  54  87 133 170 203 245 309 405
#     4  12  21  35  58  96 136 168 202 257 324 407
#     4  10  23  37  60  89 120 171 212 249 326 389
#     4  11  22  35  54  89 137 167 198 249 314 391
#     4  10  24  50  68  87 126 174 229 290 331 379
#
# _framework density 19.669114
#
# number of rings (size 3 to 8) (size 9 to 14) (size 15 to 20)
#    0.000    1.067    4.667    2.400    1.867    0.000 
#    0.000    7.333    0.000    0.000    0.000    0.000 
#    0.000    0.000    0.000    0.000    0.000    0.000 
#
# Total GULP energy -335127.272548 kJ/mol
# GULP energy per Si atom -5585.454542 kJ/mol
# Density = 1.962435 g / cm^3
# Si number density = 19.669114 Si / 1000 Ang^3
#
#
#
# Elastic Constant Matrix: (Units=GPa)
#
#
# Indices 1 2 3 4 5 6 
#
# 1 52.3940 20.6147 7.3928 0.0000 0.0000 0.0000
# 2 20.6147 78.4226 30.3828 0.0000 0.0000 0.0000
# 3 7.3928 30.3828 77.3780 0.0000 0.0000 0.0000
# 4 0.0000 0.0000 0.0000 20.3999 0.0000 0.0000
# 5 0.0000 0.0000 0.0000 0.0000 19.8369 0.0000
# 6 0.0000 0.0000 0.0000 0.0000 0.0000 13.7508
#
#
#
# Elastic Compliance Matrix: (Units=1/GPa)
#
#
# Indices 1 2 3 4 5 6 
#
# 1 0.021290 -0.005671 0.000193 0.000000 0.000000 0.000000
# 2 -0.005671 0.016550 -0.005957 0.000000 0.000000 0.000000
# 3 0.000193 -0.005957 0.015244 0.000000 0.000000 0.000000
# 4 0.000000 0.000000 0.000000 0.049020 0.000000 0.000000
# 5 0.000000 0.000000 0.000000 0.000000 0.050411 0.000000
# 6 0.000000 0.000000 0.000000 0.000000 0.000000 0.072723
#
#
# Mechanical properties :
#
#
# Convention : Reuss Voigt Hill
#
# Bulk Modulus (GPa) = 33.09703 36.10836 34.60269
# Shear Modulus (GPa) = 19.36635 20.78448 20.07541
#
# Velocity S-wave (km/s) = 3.14125 3.25423 3.19824
# Velocity P-wave (km/s) = 5.47905 5.70243 5.59186
#
# Compressibility (1/GPa) = 0.03021419
#
# Stress axis : x y z
#
# Youngs Moduli (GPa) = 46.96975 60.42328 65.59941
#
# Poissons Ratio (x) = 0.34267 -0.01264
# Poissons Ratio (y) = 0.26637 0.39075
# Poissons Ratio (z) = -0.00905 0.35992
#
# Static dielectric constant tensor:
#      x y z
#    x 1.749970 0.000000 0.000000 
#    y 0.000000 1.673630 0.000000 
#    z 0.000000 0.000000 1.712500 
# 
# From -- ./inp_files/10936.got.cif
#   From: 2010.05.17/outbox.cif.g08.bks.cpg/sg52_6_cif.got.tgz:10936.got - 2010.06.03 12:15:38.
