data_PCOD9412513
_publ_section_title
;
Structure prediction by ZEFSAII (Michael W. Deem and Ramdas Pophale) SiO2 
 PCOD9412513
Probable space group: P N N A
;
_chemical_formula_sum "Si O2"
_cell_formula_units_Z 32
_cell_length_a 10.164311
_cell_length_b 14.707289
_cell_length_c 7.222209
_cell_angle_alpha 90.000000
_cell_angle_beta 90.000000
_cell_angle_gamma 90.000000
_cell_volume 1079.644119
_symmetry_space_group_name_H-M "P N N A"
_symmetry_group_IT_number 52
_symmetry_cell_setting 'orthorhombic'
loop_
_space_group_symop_operation_xyz
x,y,z
1/2-x,-y,z
x,1/2-y,1/2-z
1/2-x,1/2+y,1/2-z
-x,-y,-z
1/2+x,y,-z
-x,1/2+y,1/2+z
1/2+x,1/2-y,1/2+z
loop_
_atom_site_type_symbol
_atom_site_label
_atom_site_fract_x
_atom_site_fract_y
_atom_site_fract_z
Si Si1 0.592121 0.532239 0.382602
Si Si2 0.250000 0.500000 0.321378
Si Si3 0.145230 0.609514 0.984611
Si Si4 0.952910 0.222310 0.941870
Si Si5 0.189725 0.250000 0.750000
O O1 0.750000 0.500000 0.441986
O O2 0.573898 0.487828 0.611494
O O3 0.612839 0.529516 0.158326
O O4 0.602216 0.641629 0.436250
O O5 0.211702 0.578275 0.174599
O O6 0.233939 0.687731 0.891345
O O7 0.017083 0.675806 0.988711
O O8 0.879872 0.250000 0.750000
O O9 0.092678 0.185262 0.868406
#
# Coordination Sequence:
#
# PCOD9412513 Si02
#       5
#     8   4   8   8   4
#     4  12  28  45  71 108 146 189 249 307 367 437
#     4  12  28  44  72 108 146 188 242 314 370 440
#     4  12  25  49  75 105 149 196 251 299 375 458
#     4  10  23  47  70 103 145 191 242 300 365 444
#     4  10  24  42  78 100 136 198 246 288 370 434
#
# _framework density 29.639393999999999
#
# number of rings (size 3 to 8) (size 9 to 14) (size 15 to 20)
#    0.750    0.000    5.000    0.750   10.500    1.000 
#    0.000    0.000    0.000    0.000    0.000    0.000 
#    0.000    0.000    0.000    0.000    0.000    0.000 
#
# Total GULP energy -178147.570790 kJ/mol
# GULP energy per Si atom -5567.111587 kJ/mol
# Density = 2.957193 g / cm^3
# Si number density = 29.639394 Si / 1000 Ang^3
#
#
#
# Elastic Constant Matrix: (Units=GPa)
#
#
# Indices 1 2 3 4 5 6 
#
# 1 127.7140 46.9741 64.9189 0.0000 0.0000 0.0000
# 2 46.9741 153.6387 66.2167 0.0000 0.0000 0.0000
# 3 64.9189 66.2167 220.4036 0.0000 0.0000 0.0000
# 4 0.0000 0.0000 0.0000 72.5296 0.0000 0.0000
# 5 0.0000 0.0000 0.0000 0.0000 55.7247 0.0000
# 6 0.0000 0.0000 0.0000 0.0000 0.0000 48.4130
#
#
#
# Elastic Compliance Matrix: (Units=1/GPa)
#
#
# Indices 1 2 3 4 5 6 
#
# 1 0.009713 -0.001995 -0.002262 0.000000 0.000000 0.000000
# 2 -0.001995 0.007887 -0.001782 0.000000 0.000000 0.000000
# 3 -0.002262 -0.001782 0.005739 0.000000 0.000000 0.000000
# 4 0.000000 0.000000 0.000000 0.013787 0.000000 0.000000
# 5 0.000000 0.000000 0.000000 0.000000 0.017945 0.000000
# 6 0.000000 0.000000 0.000000 0.000000 0.000000 0.020656
#
#
# Mechanical properties :
#
#
# Convention : Reuss Voigt Hill
#
# Bulk Modulus (GPa) = 88.79669 95.33063 92.06366
# Shear Modulus (GPa) = 54.61013 56.90991 55.76002
#
# Velocity S-wave (km/s) = 4.29707 4.38662 4.34208
# Velocity P-wave (km/s) = 7.39215 7.60854 7.50113
#
# Compressibility (1/GPa) = 0.01126168
#
# Stress axis : x y z
#
# Youngs Moduli (GPa) = 102.95027 126.79586 174.25850
#
# Poissons Ratio (x) = 0.25297 0.39411
# Poissons Ratio (y) = 0.20539 0.31049
# Poissons Ratio (z) = 0.23284 0.22592
#
# Static dielectric constant tensor:
#      x y z
#    x 2.905240 0.000000 0.000000 
#    y 0.000000 2.619430 0.000000 
#    z 0.000000 0.000000 2.494840 
# 
# From -- ./inp_files/9859.got.cif
#   From: 2010.05.17/outbox.cif.g08.bks.cpg/sg52_5_cif.got.tgz:9859.got - 2010.06.03 12:15:38.
