data_PCOD9412221
_publ_section_title
;
Structure prediction by ZEFSAII (Michael W. Deem and Ramdas Pophale) SiO2 
 PCOD9412221
Probable space group: P N N A
;
_chemical_formula_sum "Si O2"
_cell_formula_units_Z 40
_cell_length_a 11.603000
_cell_length_b 22.885933
_cell_length_c 6.422619
_cell_angle_alpha 90.000000
_cell_angle_beta 90.000000
_cell_angle_gamma 90.000000
_cell_volume 1705.497449
_symmetry_space_group_name_H-M "P N N A"
_symmetry_group_IT_number 52
_symmetry_cell_setting 'orthorhombic'
loop_
_space_group_symop_operation_xyz
x,y,z
1/2-x,-y,z
x,1/2-y,1/2-z
1/2-x,1/2+y,1/2-z
-x,-y,-z
1/2+x,y,-z
-x,1/2+y,1/2+z
1/2+x,1/2-y,1/2+z
loop_
_atom_site_type_symbol
_atom_site_label
_atom_site_fract_x
_atom_site_fract_y
_atom_site_fract_z
Si Si1 0.250000 0.500000 0.962348
Si Si2 0.602082 0.250000 0.250000
Si Si3 0.350021 0.110295 0.357973
Si Si4 0.030200 0.692829 0.866784
Si Si5 0.436873 0.543422 0.658158
Si Si6 0.673455 0.152414 0.941825
O O1 0.362040 0.506237 0.819358
O O2 0.261823 0.442048 0.097661
O O3 0.525511 0.214165 0.415696
O O4 0.670359 0.296862 0.387237
O O5 0.375627 0.145629 0.567945
O O6 0.466772 0.081262 0.276128
O O7 0.292353 0.150552 0.183616
O O8 0.075049 0.750000 0.750000
O O9 0.929703 0.666362 0.721502
O O10 0.500000 0.500000 0.500000
O O11 0.353909 0.589990 0.545163
#
# Coordination Sequence:
#
# PCOD9412221 Si02
#       6
#     4   4   8   8   8   8
#     4  12  26  44  74 108 146 190 254 306 364 454
#     4  10  22  50  68 102 144 190 246 310 362 456
#     4  12  24  45  71 109 145 194 240 309 376 434
#     4  10  23  48  70 101 143 188 247 304 369 446
#     4  12  24  45  71 103 147 192 243 303 371 440
#     4  11  24  45  72 106 144 186 249 305 366 449
#
# _framework density 23.453568000000001
#
# number of rings (size 3 to 8) (size 9 to 14) (size 15 to 20)
#    0.000    0.800    2.000    5.400    0.000    0.000 
#    7.200    0.000    0.000    0.000    0.000    0.000 
#    0.000    0.000    0.000    0.000    0.000    0.000 
#
# Total GULP energy -224340.973566 kJ/mol
# GULP energy per Si atom -5608.524339 kJ/mol
# Density = 2.340019 g / cm^3
# Si number density = 23.453568 Si / 1000 Ang^3
#
#
#
# Elastic Constant Matrix: (Units=GPa)
#
#
# Indices 1 2 3 4 5 6 
#
# 1 66.1304 17.4687 25.5956 0.0000 0.0000 0.0000
# 2 17.4687 110.1381 41.4946 0.0000 0.0000 0.0000
# 3 25.5956 41.4946 105.8475 0.0000 0.0000 0.0000
# 4 0.0000 0.0000 0.0000 45.6593 0.0000 0.0000
# 5 0.0000 0.0000 0.0000 0.0000 39.7690 0.0000
# 6 0.0000 0.0000 0.0000 0.0000 0.0000 37.1299
#
#
#
# Elastic Compliance Matrix: (Units=1/GPa)
#
#
# Indices 1 2 3 4 5 6 
#
# 1 0.016849 -0.001334 -0.003551 0.000000 0.000000 0.000000
# 2 -0.001334 0.010759 -0.003895 0.000000 0.000000 0.000000
# 3 -0.003551 -0.003895 0.011833 0.000000 0.000000 0.000000
# 4 0.000000 0.000000 0.000000 0.021901 0.000000 0.000000
# 5 0.000000 0.000000 0.000000 0.000000 0.025145 0.000000
# 6 0.000000 0.000000 0.000000 0.000000 0.000000 0.026932
#
#
# Mechanical properties :
#
#
# Convention : Reuss Voigt Hill
#
# Bulk Modulus (GPa) = 45.70511 50.13710 47.92111
# Shear Modulus (GPa) = 36.16023 37.68211 36.92117
#
# Velocity S-wave (km/s) = 3.93081 4.01268 3.97195
# Velocity P-wave (km/s) = 6.33494 6.54922 6.44297
#
# Compressibility (1/GPa) = 0.02187939
#
# Stress axis : x y z
#
# Youngs Moduli (GPa) = 59.35214 92.94918 84.50822
#
# Poissons Ratio (x) = 0.12403 0.30010
# Poissons Ratio (y) = 0.07920 0.32915
# Poissons Ratio (z) = 0.21077 0.36203
#
# Static dielectric constant tensor:
#      x y z
#    x 1.873600 0.000000 0.000000 
#    y 0.000000 1.878080 0.000000 
#    z 0.000000 0.000000 1.861710 
# 
# From -- ./inp_files/1424.got.cif
#   From: 2010.05.17/outbox.cif.g08.bks.cpg/sg52_1_cif.got.tgz:1424.got - 2010.06.03 12:15:38.
