data_PCOD9412721
_publ_section_title
;
Structure prediction by ZEFSAII (Michael W. Deem and Ramdas Pophale) SiO2 
 PCOD9412721
Probable space group: P N N A
;
_chemical_formula_sum "Si O2"
_cell_formula_units_Z 20
_cell_length_a 9.169707
_cell_length_b 5.346953
_cell_length_c 15.958664
_cell_angle_alpha 90.000000
_cell_angle_beta 90.000000
_cell_angle_gamma 90.000000
_cell_volume 782.453174
_symmetry_space_group_name_H-M "P N N A"
_symmetry_group_IT_number 52
_symmetry_cell_setting 'orthorhombic'
loop_
_space_group_symop_operation_xyz
x,y,z
1/2-x,-y,z
x,1/2-y,1/2-z
1/2-x,1/2+y,1/2-z
-x,-y,-z
1/2+x,y,-z
-x,1/2+y,1/2+z
1/2+x,1/2-y,1/2+z
loop_
_atom_site_type_symbol
_atom_site_label
_atom_site_fract_x
_atom_site_fract_y
_atom_site_fract_z
Si Si1 0.172903 0.744253 0.849843
Si Si2 0.849671 0.250000 0.750000
Si Si3 0.077334 0.495269 0.410317
O O1 0.250000 0.500000 0.885513
O O2 0.187031 0.750000 0.750000
O O3 0.250000 0.000000 0.880138
O O4 0.002376 0.754876 0.871195
O O5 0.750000 0.500000 0.759456
O O6 0.943212 0.304338 0.665958
O O7 0.250000 0.500000 0.422505
O O8 0.000000 0.500000 0.500000
#
# Coordination Sequence:
#
# PCOD9412721 Si02
#       3
#     8   4   8
#     4  10  24  45  74 111 153 207 263 332 408 485
#     4  10  26  48  80 118 166 224 280 348 426 506
#     4  11  26  48  80 120 165 216 282 348 422 510
#
# _framework density 25.560634
#
# number of rings (size 3 to 8) (size 9 to 14) (size 15 to 20)
#    0.000    1.600    0.000    1.200   19.600    1.600 
#    0.000   12.000    0.000    0.000    0.000    0.000 
#    0.000    0.000    0.000    0.000    0.000    0.000 
#
# Total GULP energy -111744.460676 kJ/mol
# GULP energy per Si atom -5587.223034 kJ/mol
# Density = 2.550246 g / cm^3
# Si number density = 25.560634 Si / 1000 Ang^3
#
#
#
# Elastic Constant Matrix: (Units=GPa)
#
#
# Indices 1 2 3 4 5 6 
#
# 1 197.3723 93.4266 49.1296 0.0000 0.0000 0.0000
# 2 93.4266 191.2017 51.1900 0.0000 0.0000 0.0000
# 3 49.1296 51.1900 183.1257 0.0000 0.0000 0.0000
# 4 0.0000 0.0000 0.0000 2.2493 0.0000 0.0000
# 5 0.0000 0.0000 0.0000 0.0000 2107.5467 0.0000
# 6 0.0000 0.0000 0.0000 0.0000 0.0000 57.8778
#
#
#
# Elastic Compliance Matrix: (Units=1/GPa)
#
#
# Indices 1 2 3 4 5 6 
#
# 1 0.006744 -0.003038 -0.000960 0.000000 0.000000 0.000000
# 2 -0.003038 0.007022 -0.001148 0.000000 0.000000 0.000000
# 3 -0.000960 -0.001148 0.006039 0.000000 0.000000 0.000000
# 4 0.000000 0.000000 0.000000 0.444587 0.000000 0.000000
# 5 0.000000 0.000000 0.000000 0.000000 0.000474 0.000000
# 6 0.000000 0.000000 0.000000 0.000000 0.000000 0.017278
#
#
# Mechanical properties :
#
#
# Convention : Reuss Voigt Hill
#
# Bulk Modulus (GPa) = 105.12017 106.57692 105.84855
# Shear Modulus (GPa) = 10.08865 458.73164 234.41015
#
# Velocity S-wave (km/s) = 1.98885 13.41110 9.58679
# Velocity P-wave (km/s) = 6.81829 16.78083 12.80792
#
# Compressibility (1/GPa) = 0.00951292
#
# Stress axis : x y z
#
# Youngs Moduli (GPa) = 148.28841 142.41190 165.58724
#
# Poissons Ratio (x) = 0.43266 0.15895
# Poissons Ratio (y) = 0.45052 0.19006
# Poissons Ratio (z) = 0.14235 0.16346
#
# Static dielectric constant tensor:
#      x y z
#    x 1.774830 0.000000 0.000000 
#    y 0.000000 2.044030 0.000000 
#    z 0.000000 0.000000 2.105550 
# 
# From -- ./inp_files/30472.got.cif
#   From: 2010.05.17/outbox.cif.g08.bks.cpg/sg52_16_cif.got.tgz:30472.got - 2010.06.03 12:15:38.
