data_PCOD9412656
_publ_section_title
;
Structure prediction by ZEFSAII (Michael W. Deem and Ramdas Pophale) SiO2 
 PCOD9412656
Probable space group: P N N A
;
_chemical_formula_sum "Si O2"
_cell_formula_units_Z 64
_cell_length_a 20.831770
_cell_length_b 16.897443
_cell_length_c 8.777667
_cell_angle_alpha 90.000000
_cell_angle_beta 90.000000
_cell_angle_gamma 90.000000
_cell_volume 3089.770789
_symmetry_space_group_name_H-M "P N N A"
_symmetry_group_IT_number 52
_symmetry_cell_setting 'orthorhombic'
loop_
_space_group_symop_operation_xyz
x,y,z
1/2-x,-y,z
x,1/2-y,1/2-z
1/2-x,1/2+y,1/2-z
-x,-y,-z
1/2+x,y,-z
-x,1/2+y,1/2+z
1/2+x,1/2-y,1/2+z
loop_
_atom_site_type_symbol
_atom_site_label
_atom_site_fract_x
_atom_site_fract_y
_atom_site_fract_z
Si Si1 0.047170 0.690273 0.619573
Si Si2 0.875255 0.610745 0.238287
Si Si3 0.027476 0.292685 0.913128
Si Si4 0.158243 0.680466 0.373626
Si Si5 0.746272 0.668429 0.337567
Si Si6 0.983325 0.489722 0.324900
Si Si7 0.582984 0.921157 0.638966
Si Si8 0.309634 0.039521 0.601368
O O1 0.067431 0.750000 0.750000
O O2 0.098696 0.697963 0.485198
O O3 0.982755 0.727951 0.544530
O O4 0.041729 0.600767 0.682309
O O5 0.904434 0.662581 0.100257
O O6 0.823869 0.657973 0.339229
O O7 0.834423 0.536143 0.189281
O O8 0.936479 0.565178 0.304377
O O9 0.022351 0.250000 0.750000
O O10 0.969570 0.356249 0.914055
O O11 0.171026 0.750000 0.250000
O O12 0.215861 0.665807 0.493250
O O13 0.129383 0.608984 0.274271
O O14 0.733238 0.750000 0.250000
O O15 0.712768 0.604034 0.225231
O O16 0.040999 0.506058 0.205627
O O17 0.000000 0.500000 0.500000
O O18 0.631441 0.934800 0.501711
O O19 0.250000 0.000000 0.509692
#
# Coordination Sequence:
#
# PCOD9412656 Si02
#       8
#     8   8   8   8   8   8   8   8
#     4  12  24  37  64 107 139 172 232 286 340 417
#     4  10  24  43  69  91 132 179 227 270 351 410
#     4  11  21  41  67  94 132 179 218 280 347 408
#     4  12  22  40  66 103 135 173 225 283 345 408
#     4  11  24  43  71  96 127 178 232 286 338 421
#     4  11  23  41  65  99 139 177 223 282 349 419
#     4  11  22  40  66  95 136 177 221 281 348 408
#     4  10  24  45  65  98 134 175 231 282 339 418
#
# _framework density 20.713509999999999
#
# number of rings (size 3 to 8) (size 9 to 14) (size 15 to 20)
#    0.000    1.000    3.750    3.000    5.250    1.000 
#    2.250    0.000    0.000    1.500    0.000    0.000 
#    0.000    0.000    0.000    0.000    0.000    0.000 
#
# Total GULP energy -356809.572048 kJ/mol
# GULP energy per Si atom -5575.149563 kJ/mol
# Density = 2.066637 g / cm^3
# Si number density = 20.713510 Si / 1000 Ang^3
#
#
#
# Elastic Constant Matrix: (Units=GPa)
#
#
# Indices 1 2 3 4 5 6 
#
# 1 97.6475 48.3405 25.7684 0.0000 0.0000 0.0000
# 2 48.3405 99.4337 44.1396 0.0000 0.0000 0.0000
# 3 25.7684 44.1396 82.9057 0.0000 0.0000 0.0000
# 4 0.0000 0.0000 0.0000 24.9072 0.0000 0.0000
# 5 0.0000 0.0000 0.0000 0.0000 179.9636 0.0000
# 6 0.0000 0.0000 0.0000 0.0000 0.0000 46.7349
#
#
#
# Elastic Compliance Matrix: (Units=1/GPa)
#
#
# Indices 1 2 3 4 5 6 
#
# 1 0.013540 -0.006174 -0.000922 0.000000 0.000000 0.000000
# 2 -0.006174 0.015984 -0.006591 0.000000 0.000000 0.000000
# 3 -0.000922 -0.006591 0.015858 0.000000 0.000000 0.000000
# 4 0.000000 0.000000 0.000000 0.040149 0.000000 0.000000
# 5 0.000000 0.000000 0.000000 0.000000 0.005557 0.000000
# 6 0.000000 0.000000 0.000000 0.000000 0.000000 0.021397
#
#
# Mechanical properties :
#
#
# Convention : Reuss Voigt Hill
#
# Bulk Modulus (GPa) = 55.52752 57.38712 56.45732
# Shear Modulus (GPa) = 34.27907 61.10369 47.69138
#
# Velocity S-wave (km/s) = 4.07248 5.43723 4.80357
# Velocity P-wave (km/s) = 6.99850 8.19654 7.62110
#
# Compressibility (1/GPa) = 0.01800909
#
# Stress axis : x y z
#
# Youngs Moduli (GPa) = 73.85295 62.56154 63.06123
#
# Poissons Ratio (x) = 0.38623 0.05812
# Poissons Ratio (y) = 0.45594 0.41565
# Poissons Ratio (z) = 0.06807 0.41236
#
# Static dielectric constant tensor:
#      x y z
#    x 1.814270 0.000000 0.000000 
#    y 0.000000 1.840810 0.000000 
#    z 0.000000 0.000000 1.708650 
# 
# From -- ./inp_files/13592.got.cif
#   From: 2010.05.17/outbox.cif.g08.bks.cpg/sg52_7_cif.got.tgz:13592.got - 2010.06.03 12:15:38.
