data_PCOD9412441
_publ_section_title
;
Structure prediction by ZEFSAII (Michael W. Deem and Ramdas Pophale) SiO2 
 PCOD9412441
Probable space group: P N N A
;
_chemical_formula_sum "Si O2"
_cell_formula_units_Z 40
_cell_length_a 14.762646
_cell_length_b 11.002723
_cell_length_c 11.695328
_cell_angle_alpha 90.000000
_cell_angle_beta 90.000000
_cell_angle_gamma 90.000000
_cell_volume 1899.663995
_symmetry_space_group_name_H-M "P N N A"
_symmetry_group_IT_number 52
_symmetry_cell_setting 'orthorhombic'
loop_
_space_group_symop_operation_xyz
x,y,z
1/2-x,-y,z
x,1/2-y,1/2-z
1/2-x,1/2+y,1/2-z
-x,-y,-z
1/2+x,y,-z
-x,1/2+y,1/2+z
1/2+x,1/2-y,1/2+z
loop_
_atom_site_type_symbol
_atom_site_label
_atom_site_fract_x
_atom_site_fract_y
_atom_site_fract_z
Si Si1 0.175033 0.893766 0.247198
Si Si2 0.643456 0.967566 0.000526
Si Si3 0.439382 0.113659 0.474472
Si Si4 0.092690 0.282237 0.612772
Si Si5 0.702274 0.730135 0.116322
O O1 0.207599 0.750000 0.250000
O O2 0.109639 0.899737 0.353946
O O3 0.250000 0.000000 0.260364
O O4 0.122293 0.929939 0.130228
O O5 0.646023 0.844774 0.070775
O O6 0.750000 0.000000 0.993677
O O7 0.596998 0.077041 0.069905
O O8 0.511990 0.221284 0.457309
O O9 0.359699 0.123216 0.568642
O O10 0.500000 0.000000 0.500000
O O11 0.082117 0.250000 0.750000
O O12 0.192787 0.230596 0.577503
O O13 0.706918 0.750000 0.250000
#
# Coordination Sequence:
#
# PCOD9412441 Si02
#       5
#     8   8   8   8   8
#     4  11  24  46  75 104 142 192 247 302 372 447
#     4   9  20  42  73  97 128 185 238 285 355 432
#     4  12  28  41  66 106 143 181 236 300 364 433
#     4  10  24  45  71  99 136 187 237 293 361 427
#     4  10  23  44  68  98 138 181 238 284 359 431
#
# _framework density 21.056355
#
# number of rings (size 3 to 8) (size 9 to 14) (size 15 to 20)
#    0.000    1.600    2.000    0.600    5.600    2.400 
#    0.000    0.000    0.000    0.000    0.000    0.000 
#    0.000    0.000    0.000    0.000    0.000    0.000 
#
# Total GULP energy -222936.534821 kJ/mol
# GULP energy per Si atom -5573.413371 kJ/mol
# Density = 2.100843 g / cm^3
# Si number density = 21.056355 Si / 1000 Ang^3
#
#
#
# Elastic Constant Matrix: (Units=GPa)
#
#
# Indices 1 2 3 4 5 6 
#
# 1 121.1767 40.9237 36.2441 0.0000 0.0000 0.0000
# 2 40.9237 76.6261 8.3219 0.0000 0.0000 0.0000
# 3 36.2441 8.3219 71.8607 0.0000 0.0000 0.0000
# 4 0.0000 0.0000 0.0000 31.4769 0.0000 0.0000
# 5 0.0000 0.0000 0.0000 0.0000 25.5184 0.0000
# 6 0.0000 0.0000 0.0000 0.0000 0.0000 37.0059
#
#
#
# Elastic Compliance Matrix: (Units=1/GPa)
#
#
# Indices 1 2 3 4 5 6 
#
# 1 0.011755 -0.005706 -0.005268 0.000000 0.000000 0.000000
# 2 -0.005706 0.015986 0.001027 0.000000 0.000000 0.000000
# 3 -0.005268 0.001027 0.016454 0.000000 0.000000 0.000000
# 4 0.000000 0.000000 0.000000 0.031769 0.000000 0.000000
# 5 0.000000 0.000000 0.000000 0.000000 0.039187 0.000000
# 6 0.000000 0.000000 0.000000 0.000000 0.000000 0.027023
#
#
# Mechanical properties :
#
#
# Convention : Reuss Voigt Hill
#
# Bulk Modulus (GPa) = 41.15154 48.96034 45.05594
# Shear Modulus (GPa) = 29.38240 31.07848 30.23044
#
# Velocity S-wave (km/s) = 3.73958 3.84600 3.79316
# Velocity P-wave (km/s) = 6.18320 6.55933 6.37404
#
# Compressibility (1/GPa) = 0.02430043
#
# Stress axis : x y z
#
# Youngs Moduli (GPa) = 85.06944 62.55375 60.77561
#
# Poissons Ratio (x) = 0.35693 0.32017
# Poissons Ratio (y) = 0.48540 -0.06239
# Poissons Ratio (z) = 0.44815 -0.06422
#
# Static dielectric constant tensor:
#      x y z
#    x 1.770460 0.000000 0.000000 
#    y 0.000000 1.944620 0.000000 
#    z 0.000000 0.000000 1.787480 
# 
# From -- ./inp_files/19234.got.cif
#   From: 2010.05.17/outbox.cif.g08.bks.cpg/sg52_10_cif.got.tgz:19234.got - 2010.06.03 12:15:38.
