data_PCOD9412128
_publ_section_title
;
Structure prediction by ZEFSAII (Michael W. Deem and Ramdas Pophale) SiO2 
 PCOD9412128
Probable space group: P N N A
;
_chemical_formula_sum "Si O2"
_cell_formula_units_Z 28
_cell_length_a 8.886297
_cell_length_b 7.375241
_cell_length_c 17.447450
_cell_angle_alpha 90.000000
_cell_angle_beta 90.000000
_cell_angle_gamma 90.000000
_cell_volume 1143.481132
_symmetry_space_group_name_H-M "P N N A"
_symmetry_group_IT_number 52
_symmetry_cell_setting 'orthorhombic'
loop_
_space_group_symop_operation_xyz
x,y,z
1/2-x,-y,z
x,1/2-y,1/2-z
1/2-x,1/2+y,1/2-z
-x,-y,-z
1/2+x,y,-z
-x,1/2+y,1/2+z
1/2+x,1/2-y,1/2+z
loop_
_atom_site_type_symbol
_atom_site_label
_atom_site_fract_x
_atom_site_fract_y
_atom_site_fract_z
Si Si1 0.673632 0.304620 0.106945
Si Si2 0.923114 0.963617 0.654127
Si Si3 0.640336 0.750000 0.250000
Si Si4 0.876364 0.878492 0.955260
O O1 0.750000 0.500000 0.104848
O O2 0.498607 0.357303 0.117255
O O3 0.750900 0.209094 0.178786
O O4 0.706090 0.212998 0.027229
O O5 0.932982 0.786238 0.598366
O O6 0.028322 0.911805 0.725970
O O7 0.750000 0.000000 0.671929
O O8 0.750000 0.000000 0.913749
O O9 0.000000 0.000000 0.000000
#
# Coordination Sequence:
#
# PCOD9412128 Si02
#       4
#     8   8   4   8
#     4  10  22  44  69  93 133 183 224 267 339 423
#     4  11  24  43  67  98 137 181 227 287 350 407
#     4  10  24  42  68  96 124 178 232 272 330 412
#     4  12  24  39  66 102 137 173 225 285 337 403
#
# _framework density 24.486630000000002
#
# number of rings (size 3 to 8) (size 9 to 14) (size 15 to 20)
#    0.000    1.143    0.000    6.857    0.000   12.571 
#    0.000    0.000    0.000    0.000    0.000    0.000 
#    0.000    0.000    0.000    0.000    0.000    0.000 
#
# Total GULP energy -156590.242844 kJ/mol
# GULP energy per Si atom -5592.508673 kJ/mol
# Density = 2.443090 g / cm^3
# Si number density = 24.486630 Si / 1000 Ang^3
#
#
#
# Elastic Constant Matrix: (Units=GPa)
#
#
# Indices 1 2 3 4 5 6 
#
# 1 147.2904 49.2051 24.4674 0.0000 0.0000 0.0000
# 2 49.2051 94.5918 36.6044 0.0000 0.0000 0.0000
# 3 24.4674 36.6044 98.1419 0.0000 0.0000 0.0000
# 4 0.0000 0.0000 0.0000 36.8381 0.0000 0.0000
# 5 0.0000 0.0000 0.0000 0.0000 34.1031 0.0000
# 6 0.0000 0.0000 0.0000 0.0000 0.0000 55.4477
#
#
#
# Elastic Compliance Matrix: (Units=1/GPa)
#
#
# Indices 1 2 3 4 5 6 
#
# 1 0.008241 -0.004081 -0.000533 0.000000 0.000000 0.000000
# 2 -0.004081 0.014376 -0.004344 0.000000 0.000000 0.000000
# 3 -0.000533 -0.004344 0.011942 0.000000 0.000000 0.000000
# 4 0.000000 0.000000 0.000000 0.027146 0.000000 0.000000
# 5 0.000000 0.000000 0.000000 0.000000 0.029323 0.000000
# 6 0.000000 0.000000 0.000000 0.000000 0.000000 0.018035
#
#
# Mechanical properties :
#
#
# Convention : Reuss Voigt Hill
#
# Bulk Modulus (GPa) = 60.08261 62.28645 61.18453
# Shear Modulus (GPa) = 37.72843 40.59427 39.16135
#
# Velocity S-wave (km/s) = 3.92953 4.07604 4.00346
# Velocity P-wave (km/s) = 6.72149 6.90249 6.81259
#
# Compressibility (1/GPa) = 0.01664375
#
# Stress axis : x y z
#
# Youngs Moduli (GPa) = 121.34407 69.56201 83.73504
#
# Poissons Ratio (x) = 0.28387 0.04459
# Poissons Ratio (y) = 0.49518 0.36378
# Poissons Ratio (z) = 0.06462 0.30220
#
# Static dielectric constant tensor:
#      x y z
#    x 2.078560 0.000000 0.000000 
#    y 0.000000 2.042110 0.000000 
#    z 0.000000 0.000000 1.997770 
# 
# From -- ./inp_files/30667.got.cif
#   From: 2010.05.17/outbox.cif.g08.bks.cpg/sg52_16_cif.got.tgz:30667.got - 2010.06.03 12:15:38.
