data_PCOD9412598
_publ_section_title
;
Structure prediction by ZEFSAII (Michael W. Deem and Ramdas Pophale) SiO2 
 PCOD9412598
Probable space group: P N N A
;
_chemical_formula_sum "Si O2"
_cell_formula_units_Z 40
_cell_length_a 18.837926
_cell_length_b 5.180920
_cell_length_c 16.644725
_cell_angle_alpha 90.000000
_cell_angle_beta 90.000000
_cell_angle_gamma 90.000000
_cell_volume 1624.488335
_symmetry_space_group_name_H-M "P N N A"
_symmetry_group_IT_number 52
_symmetry_cell_setting 'orthorhombic'
loop_
_space_group_symop_operation_xyz
x,y,z
1/2-x,-y,z
x,1/2-y,1/2-z
1/2-x,1/2+y,1/2-z
-x,-y,-z
1/2+x,y,-z
-x,1/2+y,1/2+z
1/2+x,1/2-y,1/2+z
loop_
_atom_site_type_symbol
_atom_site_label
_atom_site_fract_x
_atom_site_fract_y
_atom_site_fract_z
Si Si1 0.813067 0.250000 0.750000
Si Si2 0.588502 0.144351 0.677682
Si Si3 0.886763 0.355609 0.412710
Si Si4 0.023431 0.377078 0.914876
Si Si5 0.175788 0.938895 0.078243
Si Si6 0.250000 0.500000 0.694150
O O1 0.853223 0.512577 0.765450
O O2 0.792106 0.289207 0.656594
O O3 0.538912 0.250000 0.750000
O O4 0.624146 0.330896 0.611296
O O5 0.546925 0.906106 0.638498
O O6 0.943516 0.592682 0.415380
O O7 0.865595 0.304856 0.505846
O O8 0.819313 0.441351 0.360482
O O9 0.920692 0.089064 0.382196
O O10 0.000000 0.500000 0.000000
O O11 0.250000 0.000000 0.035543
O O12 0.237241 0.250000 0.750000
#
# Coordination Sequence:
#
# PCOD9412598 Si02
#       6
#     4   8   8   8   8   4
#     4  10  24  42  66 102 148 184 230 294 348 440
#     4  10  24  42  65 102 145 187 234 298 354 435
#     4  12  27  48  78 107 142 199 247 308 374 449
#     4  12  25  44  75 108 147 192 247 301 369 440
#     4  11  24  43  69 102 142 192 239 286 364 428
#     4  12  28  56  76 112 150 192 260 334 384 448
#
# _framework density 24.623135999999999
#
# number of rings (size 3 to 8) (size 9 to 14) (size 15 to 20)
#    0.000    0.800    3.000    3.000    9.800    2.400 
#    0.000    0.000    0.000    0.000    0.000    0.000 
#    0.000    0.000    0.000    0.000    0.000    0.000 
#
# Total GULP energy -222823.822751 kJ/mol
# GULP energy per Si atom -5570.595569 kJ/mol
# Density = 2.456709 g / cm^3
# Si number density = 24.623136 Si / 1000 Ang^3
#
#
#
# Elastic Constant Matrix: (Units=GPa)
#
#
# Indices 1 2 3 4 5 6 
#
# 1 67.5516 29.3360 16.9672 0.0000 0.0000 0.0000
# 2 29.3360 81.0325 22.7809 0.0000 0.0000 0.0000
# 3 16.9672 22.7809 88.9897 0.0000 0.0000 0.0000
# 4 0.0000 0.0000 0.0000 22.6510 0.0000 0.0000
# 5 0.0000 0.0000 0.0000 0.0000 167.3916 0.0000
# 6 0.0000 0.0000 0.0000 0.0000 0.0000 33.3562
#
#
#
# Elastic Compliance Matrix: (Units=1/GPa)
#
#
# Indices 1 2 3 4 5 6 
#
# 1 0.017854 -0.005934 -0.001885 0.000000 0.000000 0.000000
# 2 -0.005934 0.015270 -0.002778 0.000000 0.000000 0.000000
# 3 -0.001885 -0.002778 0.012308 0.000000 0.000000 0.000000
# 4 0.000000 0.000000 0.000000 0.044148 0.000000 0.000000
# 5 0.000000 0.000000 0.000000 0.000000 0.005974 0.000000
# 6 0.000000 0.000000 0.000000 0.000000 0.000000 0.029979
#
#
# Mechanical properties :
#
#
# Convention : Reuss Voigt Hill
#
# Bulk Modulus (GPa) = 41.25656 41.74910 41.50283
# Shear Modulus (GPa) = 32.29866 55.91240 44.10553
#
# Velocity S-wave (km/s) = 3.62570 4.77038 4.23688
# Velocity P-wave (km/s) = 5.85825 6.87998 6.38957
#
# Compressibility (1/GPa) = 0.02423857
#
# Stress axis : x y z
#
# Youngs Moduli (GPa) = 56.01043 65.48895 81.24964
#
# Poissons Ratio (x) = 0.38859 0.15316
# Poissons Ratio (y) = 0.33234 0.22568
# Poissons Ratio (z) = 0.10559 0.18191
#
# Static dielectric constant tensor:
#      x y z
#    x 2.173910 0.000000 0.000000 
#    y 0.000000 2.194310 0.000000 
#    z 0.000000 0.000000 1.608190 
# 
# From -- ./inp_files/33508.got.cif
#   From: 2010.05.17/outbox.cif.g08.bks.cpg/sg52_17_cif.got.tgz:33508.got - 2010.06.03 12:15:38.
