data_PCOD9412949
_publ_section_title
;
Structure prediction by ZEFSAII (Michael W. Deem and Ramdas Pophale) SiO2 
 PCOD9412949
Probable space group: P N N A
;
_chemical_formula_sum "Si O2"
_cell_formula_units_Z 52
_cell_length_a 9.800615
_cell_length_b 18.329119
_cell_length_c 13.862525
_cell_angle_alpha 90.000000
_cell_angle_beta 90.000000
_cell_angle_gamma 90.000000
_cell_volume 2490.217394
_symmetry_space_group_name_H-M "P N N A"
_symmetry_group_IT_number 52
_symmetry_cell_setting 'orthorhombic'
loop_
_space_group_symop_operation_xyz
x,y,z
1/2-x,-y,z
x,1/2-y,1/2-z
1/2-x,1/2+y,1/2-z
-x,-y,-z
1/2+x,y,-z
-x,1/2+y,1/2+z
1/2+x,1/2-y,1/2+z
loop_
_atom_site_type_symbol
_atom_site_label
_atom_site_fract_x
_atom_site_fract_y
_atom_site_fract_z
Si Si1 0.857069 0.566700 0.274068
Si Si2 0.784908 0.625587 0.618591
Si Si3 0.232606 0.090113 0.566002
Si Si4 0.613573 0.481271 0.781672
Si Si5 0.864207 0.750000 0.750000
Si Si6 0.015084 0.143143 0.409888
Si Si7 0.506983 0.086205 0.031873
O O1 0.750000 0.500000 0.288475
O O2 0.803299 0.606089 0.178489
O O3 0.887460 0.597937 0.379358
O O4 0.011994 0.544336 0.246255
O O5 0.826716 0.559834 0.689293
O O6 0.773403 0.693116 0.690671
O O7 0.919704 0.631291 0.552497
O O8 0.646019 0.609866 0.560765
O O9 0.121263 0.123055 0.493726
O O10 0.367228 0.136989 0.543967
O O11 0.250000 0.000000 0.559598
O O12 0.750000 0.500000 0.840264
O O13 0.520313 0.426877 0.840185
O O14 0.948868 0.792107 0.665366
O O15 0.500000 0.000000 0.000000
#
# Coordination Sequence:
#
# PCOD9412949 Si02
#       7
#     8   8   8   8   4   8   8
#     4  11  21  35  58 103 142 162 206 259 364 407
#     4  11  24  41  64  94 134 177 229 269 331 412
#     4  11  23  38  65 104 129 168 208 286 344 395
#     4  11  19  36  60  94 136 175 203 272 340 403
#     4  10  28  48  66  88 128 200 228 270 316 404
#     4  11  24  42  65  92 136 171 231 261 331 403
#     4  12  22  38  67 103 133 169 218 293 357 395
#
# _framework density 20.881710000000002
#
# number of rings (size 3 to 8) (size 9 to 14) (size 15 to 20)
#    0.000    0.923    6.154    2.308    2.154    1.231 
#    0.000    0.000    0.000    1.846    0.000    0.000 
#    0.000    0.000    0.000    0.000    0.000    0.000 
#
# Total GULP energy -289678.400610 kJ/mol
# GULP energy per Si atom -5570.738473 kJ/mol
# Density = 2.083418 g / cm^3
# Si number density = 20.881710 Si / 1000 Ang^3
#
#
#
# Elastic Constant Matrix: (Units=GPa)
#
#
# Indices 1 2 3 4 5 6 
#
# 1 145.3056 22.2290 38.2758 0.0000 0.0000 0.0000
# 2 22.2290 39.2591 25.9721 0.0000 0.0000 0.0000
# 3 38.2758 25.9721 107.0807 0.0000 0.0000 0.0000
# 4 0.0000 0.0000 0.0000 -16.3795 0.0000 0.0000
# 5 0.0000 0.0000 0.0000 0.0000 37.5523 0.0000
# 6 0.0000 0.0000 0.0000 0.0000 0.0000 5.3186
#
#
#
# Elastic Compliance Matrix: (Units=1/GPa)
#
#
# Indices 1 2 3 4 5 6 
#
# 1 0.007903 -0.003104 -0.002072 0.000000 0.000000 0.000000
# 2 -0.003104 0.031559 -0.006545 0.000000 0.000000 0.000000
# 3 -0.002072 -0.006545 0.011667 0.000000 0.000000 0.000000
# 4 0.000000 0.000000 0.000000 -0.061052 0.000000 0.000000
# 5 0.000000 0.000000 0.000000 0.000000 0.026630 0.000000
# 6 0.000000 0.000000 0.000000 0.000000 0.000000 0.188020
#
#
# Mechanical properties :
#
#
# Convention : Reuss Voigt Hill
#
# Bulk Modulus (GPa) = 36.11822 51.62213 43.87018
# Shear Modulus (GPa) = 21.06181 18.97619 20.01900
#
# Velocity S-wave (km/s) = 3.17933 3.01781 3.09962
# Velocity P-wave (km/s) = 5.55082 6.07600 5.81934
#
# Compressibility (1/GPa) = 0.02768686
#
# Stress axis : x y z
#
# Youngs Moduli (GPa) = 126.53958 31.68648 85.71280
#
# Poissons Ratio (x) = 0.09835 0.17759
# Poissons Ratio (y) = 0.39276 0.56100
# Poissons Ratio (z) = 0.26219 0.20739
#
# Static dielectric constant tensor:
#      x y z
#    x 1.840140 0.000000 0.000000 
#    y 0.000000 1.928880 0.000000 
#    z 0.000000 0.000000 1.815750 
# 
# From -- ./inp_files/24898.got.cif
#   From: 2010.05.17/outbox.cif.g08.bks.cpg/sg52_13_cif.got.tgz:24898.got - 2010.06.03 12:15:38.
