data_PCOD9412883
_publ_section_title
;
Structure prediction by ZEFSAII (Michael W. Deem and Ramdas Pophale) SiO2 
 PCOD9412883
Probable space group: P N N A
;
_chemical_formula_sum "Si O2"
_cell_formula_units_Z 20
_cell_length_a 8.544405
_cell_length_b 4.972159
_cell_length_c 17.728402
_cell_angle_alpha 90.000000
_cell_angle_beta 90.000000
_cell_angle_gamma 90.000000
_cell_volume 753.175916
_symmetry_space_group_name_H-M "P N N A"
_symmetry_group_IT_number 52
_symmetry_cell_setting 'orthorhombic'
loop_
_space_group_symop_operation_xyz
x,y,z
1/2-x,-y,z
x,1/2-y,1/2-z
1/2-x,1/2+y,1/2-z
-x,-y,-z
1/2+x,y,-z
-x,1/2+y,1/2+z
1/2+x,1/2-y,1/2+z
loop_
_atom_site_type_symbol
_atom_site_label
_atom_site_fract_x
_atom_site_fract_y
_atom_site_fract_z
Si Si1 0.750000 0.500000 0.693397
Si Si2 0.250000 0.000000 0.503068
Si Si3 0.345162 0.750000 0.750000
Si Si4 0.007286 0.241783 0.896049
O O1 0.750510 0.750000 0.750000
O O2 0.595155 0.496773 0.639486
O O3 0.164588 0.226704 0.554318
O O4 0.380152 0.122132 0.449048
O O5 0.250000 0.500000 0.716195
O O6 0.441846 0.619721 0.817823
#
# Coordination Sequence:
#
# PCOD9412883 Si02
#       4
#     4   4   4   8
#     4  12  27  48  86 123 160 208 278 342 401 478
#     4  10  25  54  80 121 164 216 262 340 409 486
#     4  12  28  48  80 118 158 208 272 332 396 480
#     4  11  25  50  82 117 164 211 272 330 409 481
#
# _framework density 26.554219
#
# number of rings (size 3 to 8) (size 9 to 14) (size 15 to 20)
#    0.000    0.800    4.000    1.200    2.800    1.600 
#    3.600    0.000    0.000    0.000    0.000    0.000 
#    0.000    0.000    0.000    0.000    0.000    0.000 
#
# Total GULP energy -111624.928616 kJ/mol
# GULP energy per Si atom -5581.246431 kJ/mol
# Density = 2.649378 g / cm^3
# Si number density = 26.554219 Si / 1000 Ang^3
#
#
#
# Elastic Constant Matrix: (Units=GPa)
#
#
# Indices 1 2 3 4 5 6 
#
# 1 164.2342 60.1194 84.4001 0.0000 0.0000 0.0000
# 2 60.1194 133.5811 59.3926 0.0000 0.0000 0.0000
# 3 84.4001 59.3926 214.7721 0.0000 0.0000 0.0000
# 4 0.0000 0.0000 0.0000 35.1961 0.0000 0.0000
# 5 0.0000 0.0000 0.0000 0.0000 58.4548 0.0000
# 6 0.0000 0.0000 0.0000 0.0000 0.0000 16.3339
#
#
#
# Elastic Compliance Matrix: (Units=1/GPa)
#
#
# Indices 1 2 3 4 5 6 
#
# 1 0.008367 -0.002627 -0.002562 0.000000 0.000000 0.000000
# 2 -0.002627 0.009360 -0.001556 0.000000 0.000000 0.000000
# 3 -0.002562 -0.001556 0.006093 0.000000 0.000000 0.000000
# 4 0.000000 0.000000 0.000000 0.028412 0.000000 0.000000
# 5 0.000000 0.000000 0.000000 0.000000 0.017107 0.000000
# 6 0.000000 0.000000 0.000000 0.000000 0.000000 0.061222
#
#
# Mechanical properties :
#
#
# Convention : Reuss Voigt Hill
#
# Bulk Modulus (GPa) = 96.79466 102.26795 99.53131
# Shear Modulus (GPa) = 33.89961 42.57532 38.23747
#
# Velocity S-wave (km/s) = 3.57686 4.00851 3.79882
# Velocity P-wave (km/s) = 7.32048 7.74730 7.53691
#
# Compressibility (1/GPa) = 0.01033115
#
# Stress axis : x y z
#
# Youngs Moduli (GPa) = 119.52068 106.83586 164.12035
#
# Poissons Ratio (x) = 0.28062 0.42041
# Poissons Ratio (y) = 0.31393 0.25541
# Poissons Ratio (z) = 0.30616 0.16626
#
# Static dielectric constant tensor:
#      x y z
#    x 2.246570 0.000000 0.000000 
#    y 0.000000 2.204240 0.000000 
#    z 0.000000 0.000000 1.992020 
# 
# From -- ./inp_files/30448.got.cif
#   From: 2010.05.17/outbox.cif.g08.bks.cpg/sg52_16_cif.got.tgz:30448.got - 2010.06.03 12:15:38.
