data_PCOD9412328
_publ_section_title
;
Structure prediction by ZEFSAII (Michael W. Deem and Ramdas Pophale) SiO2 
 PCOD9412328
Probable space group: P N N A
;
_chemical_formula_sum "Si O2"
_cell_formula_units_Z 48
_cell_length_a 25.854403
_cell_length_b 8.565651
_cell_length_c 9.678247
_cell_angle_alpha 90.000000
_cell_angle_beta 90.000000
_cell_angle_gamma 90.000000
_cell_volume 2143.342576
_symmetry_space_group_name_H-M "P N N A"
_symmetry_group_IT_number 52
_symmetry_cell_setting 'orthorhombic'
loop_
_space_group_symop_operation_xyz
x,y,z
1/2-x,-y,z
x,1/2-y,1/2-z
1/2-x,1/2+y,1/2-z
-x,-y,-z
1/2+x,y,-z
-x,1/2+y,1/2+z
1/2+x,1/2-y,1/2+z
loop_
_atom_site_type_symbol
_atom_site_label
_atom_site_fract_x
_atom_site_fract_y
_atom_site_fract_z
Si Si1 0.443706 0.561136 0.028131
Si Si2 0.288047 0.138509 0.368488
Si Si3 0.876963 0.564913 0.723956
Si Si4 0.285504 0.143817 0.868333
Si Si5 0.055960 0.425315 0.529229
Si Si6 0.106600 0.925089 0.724738
O O1 0.401135 0.476684 0.932087
O O2 0.500000 0.500000 0.000000
O O3 0.428222 0.539632 0.185623
O O4 0.445130 0.742743 0.996499
O O5 0.263869 0.250000 0.250000
O O6 0.299710 0.247138 0.501148
O O7 0.250000 0.000000 0.414062
O O8 0.334441 0.050172 0.287946
O O9 0.863224 0.750000 0.750000
O O10 0.895966 0.522850 0.570168
O O11 0.258277 0.250000 0.750000
O O12 0.335777 0.078843 0.787056
O O13 0.250000 0.000000 0.913708
O O14 0.071946 0.461784 0.684297
O O15 0.000000 0.500000 0.500000
O O16 0.086393 0.750000 0.750000
#
# Coordination Sequence:
#
# PCOD9412328 Si02
#       6
#     8   8   8   8   8   8
#     4  11  23  40  64  95 129 168 213 269 327 386
#     4  12  25  43  67  97 131 174 219 272 332 392
#     4  10  23  42  64  93 130 169 217 270 325 388
#     4  11  25  44  68  98 131 173 218 271 331 395
#     4  11  23  40  64  94 128 171 215 266 326 386
#     4  11  23  41  62  91 128 169 217 266 320 387
#
# _framework density 22.394926000000002
#
# number of rings (size 3 to 8) (size 9 to 14) (size 15 to 20)
#    0.000    1.000    0.000    7.000    0.000    6.667 
#    0.000    0.000    0.000    0.000    0.000    0.000 
#    0.000    0.000    0.000    0.000    0.000    0.000 
#
# Total GULP energy -268331.424093 kJ/mol
# GULP energy per Si atom -5590.238002 kJ/mol
# Density = 2.234395 g / cm^3
# Si number density = 22.394926 Si / 1000 Ang^3
#
#
#
# Elastic Constant Matrix: (Units=GPa)
#
#
# Indices 1 2 3 4 5 6 
#
# 1 81.0853 36.3539 4.8814 0.0000 0.0000 0.0000
# 2 36.3539 77.8637 16.1730 0.0000 0.0000 0.0000
# 3 4.8814 16.1730 88.3125 0.0000 0.0000 0.0000
# 4 0.0000 0.0000 0.0000 43.0642 0.0000 0.0000
# 5 0.0000 0.0000 0.0000 0.0000 1.2527 0.0000
# 6 0.0000 0.0000 0.0000 0.0000 0.0000 10.7213
#
#
#
# Elastic Compliance Matrix: (Units=1/GPa)
#
#
# Indices 1 2 3 4 5 6 
#
# 1 0.015618 -0.007394 0.000491 0.000000 0.000000 0.000000
# 2 -0.007394 0.016851 -0.002677 0.000000 0.000000 0.000000
# 3 0.000491 -0.002677 0.011787 0.000000 0.000000 0.000000
# 4 0.000000 0.000000 0.000000 0.023221 0.000000 0.000000
# 5 0.000000 0.000000 0.000000 0.000000 0.798256 0.000000
# 6 0.000000 0.000000 0.000000 0.000000 0.000000 0.093272
#
#
# Mechanical properties :
#
#
# Convention : Reuss Voigt Hill
#
# Bulk Modulus (GPa) = 39.84848 40.23090 40.03969
# Shear Modulus (GPa) = 5.06826 23.66452 14.36639
#
# Velocity S-wave (km/s) = 1.50600 3.25420 2.53554
# Velocity P-wave (km/s) = 4.56686 5.66772 5.14681
#
# Compressibility (1/GPa) = 0.02509506
#
# Stress axis : x y z
#
# Youngs Moduli (GPa) = 64.02804 59.34285 84.84207
#
# Poissons Ratio (x) = 0.43878 -0.04164
# Poissons Ratio (y) = 0.47342 0.22715
# Poissons Ratio (z) = -0.03142 0.15888
#
# Static dielectric constant tensor:
#      x y z
#    x 1.834640 0.000000 0.000000 
#    y 0.000000 1.755170 0.000000 
#    z 0.000000 0.000000 1.822420 
# 
# From -- ./inp_files/15536.got.cif
#   From: 2010.05.17/outbox.cif.g08.bks.cpg/sg52_8_cif.got.tgz:15536.got - 2010.06.03 12:15:38.
