data_PCOD9412033
_publ_section_title
;
Structure prediction by ZEFSAII (Michael W. Deem and Ramdas Pophale) SiO2 
 PCOD9412033
Probable space group: P N N A
;
_chemical_formula_sum "Si O2"
_cell_formula_units_Z 36
_cell_length_a 25.588632
_cell_length_b 7.839939
_cell_length_c 7.540222
_cell_angle_alpha 90.000000
_cell_angle_beta 90.000000
_cell_angle_gamma 90.000000
_cell_volume 1512.668924
_symmetry_space_group_name_H-M "P N N A"
_symmetry_group_IT_number 52
_symmetry_cell_setting 'orthorhombic'
loop_
_space_group_symop_operation_xyz
x,y,z
1/2-x,-y,z
x,1/2-y,1/2-z
1/2-x,1/2+y,1/2-z
-x,-y,-z
1/2+x,y,-z
-x,1/2+y,1/2+z
1/2+x,1/2-y,1/2+z
loop_
_atom_site_type_symbol
_atom_site_label
_atom_site_fract_x
_atom_site_fract_y
_atom_site_fract_z
Si Si1 0.108745 0.948675 0.707277
Si Si2 0.680417 0.250000 0.250000
Si Si3 0.992858 0.549403 0.791911
Si Si4 0.786481 0.649819 0.593413
Si Si5 0.879567 0.055373 0.717317
O O1 0.118005 0.750000 0.750000
O O2 0.115841 0.975129 0.495074
O O3 0.050614 0.995921 0.776111
O O4 0.147260 0.082605 0.794899
O O5 0.709440 0.219709 0.431619
O O6 0.986792 0.750000 0.750000
O O7 0.940076 0.464987 0.719786
O O8 0.000000 0.500000 0.000000
O O9 0.750000 0.500000 0.527019
O O10 0.758612 0.750000 0.750000
O O11 0.839157 0.571197 0.684735
O O12 0.864163 0.250000 0.750000
#
# Coordination Sequence:
#
# PCOD9412033 Si02
#       5
#     8   4   8   8   8
#     4  10  22  43  67 109 149 188 238 290 359 434
#     4  12  26  48  78 104 144 188 238 304 364 434
#     4   9  20  37  63 100 147 191 237 288 353 432
#     4  12  27  50  75 104 138 186 242 305 373 435
#     4  11  22  42  69 103 145 189 239 299 354 431
#
# _framework density 23.798994
#
# number of rings (size 3 to 8) (size 9 to 14) (size 15 to 20)
#    0.000    1.333    2.222    2.667    4.667    0.889 
#    6.000    4.444    0.000    0.000    0.000    0.000 
#    0.000    0.000    0.000    0.000    0.000    0.000 
#
# Total GULP energy -201063.439489 kJ/mol
# GULP energy per Si atom -5585.095541 kJ/mol
# Density = 2.374483 g / cm^3
# Si number density = 23.798994 Si / 1000 Ang^3
#
#
#
# Elastic Constant Matrix: (Units=GPa)
#
#
# Indices 1 2 3 4 5 6 
#
# 1 84.8043 21.5189 22.7381 0.0000 0.0000 0.0000
# 2 21.5189 66.4224 4.4877 0.0000 0.0000 0.0000
# 3 22.7381 4.4877 112.2485 0.0000 0.0000 0.0000
# 4 0.0000 0.0000 0.0000 39.0546 0.0000 0.0000
# 5 0.0000 0.0000 0.0000 0.0000 -11.1554 0.0000
# 6 0.0000 0.0000 0.0000 0.0000 0.0000 32.1192
#
#
#
# Elastic Compliance Matrix: (Units=1/GPa)
#
#
# Indices 1 2 3 4 5 6 
#
# 1 0.013553 -0.004217 -0.002577 0.000000 0.000000 0.000000
# 2 -0.004217 0.016408 0.000198 0.000000 0.000000 0.000000
# 3 -0.002577 0.000198 0.009423 0.000000 0.000000 0.000000
# 4 0.000000 0.000000 0.000000 0.025605 0.000000 0.000000
# 5 0.000000 0.000000 0.000000 0.000000 -0.089643 0.000000
# 6 0.000000 0.000000 0.000000 0.000000 0.000000 0.031134
#
#
# Mechanical properties :
#
#
# Convention : Reuss Voigt Hill
#
# Bulk Modulus (GPa) = 38.17816 40.10718 39.14267
# Shear Modulus (GPa) = 176.04987 26.31906 101.18446
#
# Velocity S-wave (km/s) = 8.61012 3.32910 6.52752
# Velocity P-wave (km/s) = 10.72019 5.62728 8.56121
#
# Compressibility (1/GPa) = 0.02619299
#
# Stress axis : x y z
#
# Youngs Moduli (GPa) = 73.78604 60.94654 106.12488
#
# Poissons Ratio (x) = 0.25699 0.27346
# Poissons Ratio (y) = 0.31112 -0.02103
# Poissons Ratio (z) = 0.19013 -0.01208
#
# Static dielectric constant tensor:
#      x y z
#    x 1.928040 0.000000 0.000000 
#    y 0.000000 2.753730 0.000000 
#    z 0.000000 0.000000 1.964130 
# 
# From -- ./inp_files/12946.got.cif
#   From: 2010.05.17/outbox.cif.g08.bks.cpg/sg52_7_cif.got.tgz:12946.got - 2010.06.03 12:15:38.
