data_PCOD9412765
_publ_section_title
;
Structure prediction by ZEFSAII (Michael W. Deem and Ramdas Pophale) SiO2 
 PCOD9412765
Probable space group: P N N A
;
_chemical_formula_sum "Si O2"
_cell_formula_units_Z 60
_cell_length_a 27.714757
_cell_length_b 9.415482
_cell_length_c 10.827133
_cell_angle_alpha 90.000000
_cell_angle_beta 90.000000
_cell_angle_gamma 90.000000
_cell_volume 2825.316490
_symmetry_space_group_name_H-M "P N N A"
_symmetry_group_IT_number 52
_symmetry_cell_setting 'orthorhombic'
loop_
_space_group_symop_operation_xyz
x,y,z
1/2-x,-y,z
x,1/2-y,1/2-z
1/2-x,1/2+y,1/2-z
-x,-y,-z
1/2+x,y,-z
-x,1/2+y,1/2+z
1/2+x,1/2-y,1/2+z
loop_
_atom_site_type_symbol
_atom_site_label
_atom_site_fract_x
_atom_site_fract_y
_atom_site_fract_z
Si Si1 0.317542 0.786863 0.389223
Si Si2 0.593838 0.723587 0.951740
Si Si3 0.086451 0.046571 0.319932
Si Si4 0.890836 0.949684 0.951276
Si Si5 0.514443 0.858234 0.363262
Si Si6 0.157434 0.891667 0.669487
Si Si7 0.250000 0.500000 0.956700
Si Si8 0.578967 0.085870 0.222034
O O1 0.300077 0.750000 0.250000
O O2 0.364630 0.885372 0.369801
O O3 0.341548 0.644988 0.451254
O O4 0.278039 0.879169 0.462850
O O5 0.589130 0.622723 0.833953
O O6 0.615161 0.880459 0.940524
O O7 0.542969 0.714776 0.024598
O O8 0.628771 0.639221 0.044347
O O9 0.082613 0.090232 0.176651
O O10 0.039912 0.098401 0.394193
O O11 0.922246 0.928954 0.073911
O O12 0.515126 0.750000 0.250000
O O13 0.541445 0.994937 0.303488
O O14 0.152840 0.750000 0.750000
O O15 0.211006 0.926669 0.630695
O O16 0.130706 0.019724 0.738955
O O17 0.575003 0.250000 0.250000
#
# Coordination Sequence:
#
# PCOD9412765 Si02
#       8
#     8   8   8   8   8   8   4   8
#     4  10  24  47  66  98 134 179 222 284 352 405
#     4  11  21  44  68  95 137 182 223 276 349 405
#     4  11  24  43  68  97 136 183 228 278 341 407
#     4  11  22  42  69  96 137 174 231 288 333 404
#     4  11  22  43  64  98 142 186 229 279 331 404
#     4  11  23  45  69  98 134 174 219 281 346 409
#     4  12  24  46  74  98 140 176 232 290 356 426
#     4  11  23  40  68  99 140 182 223 280 341 402
#
# _framework density 21.236559
#
# number of rings (size 3 to 8) (size 9 to 14) (size 15 to 20)
#    0.000    1.067    4.000    3.600    1.867    3.200 
#    9.600    0.000    0.000    0.000    0.000    0.000 
#    0.000    0.000    0.000    0.000    0.000    0.000 
#
# Total GULP energy -335228.082438 kJ/mol
# GULP energy per Si atom -5587.134707 kJ/mol
# Density = 2.118822 g / cm^3
# Si number density = 21.236559 Si / 1000 Ang^3
#
#
#
# Elastic Constant Matrix: (Units=GPa)
#
#
# Indices 1 2 3 4 5 6 
#
# 1 82.5976 18.4559 14.0982 0.0000 0.0000 0.0000
# 2 18.4559 156.4552 22.2762 0.0000 0.0000 0.0000
# 3 14.0982 22.2762 69.7368 0.0000 0.0000 0.0000
# 4 0.0000 0.0000 0.0000 31.9097 0.0000 0.0000
# 5 0.0000 0.0000 0.0000 0.0000 12.1568 0.0000
# 6 0.0000 0.0000 0.0000 0.0000 0.0000 8.4767
#
#
#
# Elastic Compliance Matrix: (Units=1/GPa)
#
#
# Indices 1 2 3 4 5 6 
#
# 1 0.012748 -0.001191 -0.002197 0.000000 0.000000 0.000000
# 2 -0.001191 0.006807 -0.001934 0.000000 0.000000 0.000000
# 3 -0.002197 -0.001934 0.015401 0.000000 0.000000 0.000000
# 4 0.000000 0.000000 0.000000 0.031338 0.000000 0.000000
# 5 0.000000 0.000000 0.000000 0.000000 0.082258 0.000000
# 6 0.000000 0.000000 0.000000 0.000000 0.000000 0.117970
#
#
# Mechanical properties :
#
#
# Convention : Reuss Voigt Hill
#
# Bulk Modulus (GPa) = 41.12876 46.49446 43.81161
# Shear Modulus (GPa) = 17.52719 27.43928 22.48324
#
# Velocity S-wave (km/s) = 2.87597 3.59845 3.25730
# Velocity P-wave (km/s) = 5.51700 6.26149 5.90100
#
# Compressibility (1/GPa) = 0.02431389
#
# Stress axis : x y z
#
# Youngs Moduli (GPa) = 78.44395 146.89841 64.92909
#
# Poissons Ratio (x) = 0.17496 0.14263
# Poissons Ratio (y) = 0.09343 0.12556
# Poissons Ratio (z) = 0.17232 0.28406
#
# Static dielectric constant tensor:
#      x y z
#    x 1.758480 0.000000 0.000000 
#    y 0.000000 1.823890 0.000000 
#    z 0.000000 0.000000 1.809600 
# 
# From -- ./inp_files/22880.got.cif
#   From: 2010.05.17/outbox.cif.g08.bks.cpg/sg52_12_cif.got.tgz:22880.got - 2010.06.03 12:15:38.
