data_PCOD9412253
_publ_section_title
;
Structure prediction by ZEFSAII (Michael W. Deem and Ramdas Pophale) SiO2 
 PCOD9412253
Probable space group: P N N A
;
_chemical_formula_sum "Si O2"
_cell_formula_units_Z 40
_cell_length_a 8.251304
_cell_length_b 9.303116
_cell_length_c 22.693278
_cell_angle_alpha 90.000000
_cell_angle_beta 90.000000
_cell_angle_gamma 90.000000
_cell_volume 1742.000429
_symmetry_space_group_name_H-M "P N N A"
_symmetry_group_IT_number 52
_symmetry_cell_setting 'orthorhombic'
loop_
_space_group_symop_operation_xyz
x,y,z
1/2-x,-y,z
x,1/2-y,1/2-z
1/2-x,1/2+y,1/2-z
-x,-y,-z
1/2+x,y,-z
-x,1/2+y,1/2+z
1/2+x,1/2-y,1/2+z
loop_
_atom_site_type_symbol
_atom_site_label
_atom_site_fract_x
_atom_site_fract_y
_atom_site_fract_z
Si Si1 0.160502 0.797360 0.687557
Si Si2 0.373010 0.271390 0.418550
Si Si3 0.928179 0.449950 0.385612
Si Si4 0.039036 0.455468 0.866579
Si Si5 0.013802 0.286909 0.039329
O O1 0.228087 0.750000 0.750000
O O2 0.042552 0.673354 0.662733
O O3 0.305840 0.847301 0.642880
O O4 0.055233 0.941739 0.689633
O O5 0.445974 0.422580 0.397133
O O6 0.388095 0.149782 0.368972
O O7 0.193488 0.264221 0.443712
O O8 0.488841 0.204229 0.469791
O O9 0.750000 0.500000 0.368469
O O10 0.908051 0.352884 0.443900
O O11 0.030372 0.571929 0.921606
#
# Coordination Sequence:
#
# PCOD9412253 Si02
#       5
#     8   8   8   8   8
#     4  10  23  42  70 101 125 168 232 291 336 390
#     4  12  23  40  66  93 139 184 219 267 332 405
#     4  11  22  41  64  97 133 171 225 276 331 400
#     4  10  23  39  65  94 133 161 222 277 336 384
#     4  11  25  40  63  96 139 181 224 263 336 406
#
# _framework density 22.962107
#
# number of rings (size 3 to 8) (size 9 to 14) (size 15 to 20)
#    0.000    1.200    2.000    3.600    8.400    0.000 
#    0.000    0.000    0.000   30.000    0.000    0.000 
#    0.000    0.000    0.000    0.000    0.000    0.000 
#
# Total GULP energy -222688.893581 kJ/mol
# GULP energy per Si atom -5567.222340 kJ/mol
# Density = 2.290984 g / cm^3
# Si number density = 22.962107 Si / 1000 Ang^3
#
#
#
# Elastic Constant Matrix: (Units=GPa)
#
#
# Indices 1 2 3 4 5 6 
#
# 1 61.6752 24.4957 27.5632 0.0000 0.0000 0.0000
# 2 24.4957 147.4777 38.4960 0.0000 0.0000 0.0000
# 3 27.5632 38.4960 46.0964 0.0000 0.0000 0.0000
# 4 0.0000 0.0000 0.0000 25.0700 0.0000 0.0000
# 5 0.0000 0.0000 0.0000 0.0000 19.8709 0.0000
# 6 0.0000 0.0000 0.0000 0.0000 0.0000 33.4514
#
#
#
# Elastic Compliance Matrix: (Units=1/GPa)
#
#
# Indices 1 2 3 4 5 6 
#
# 1 0.022136 -0.000284 -0.012999 0.000000 0.000000 0.000000
# 2 -0.000284 0.008674 -0.007075 0.000000 0.000000 0.000000
# 3 -0.012999 -0.007075 0.035375 0.000000 0.000000 0.000000
# 4 0.000000 0.000000 0.000000 0.039888 0.000000 0.000000
# 5 0.000000 0.000000 0.000000 0.000000 0.050325 0.000000
# 6 0.000000 0.000000 0.000000 0.000000 0.000000 0.029894
#
#
# Mechanical properties :
#
#
# Convention : Reuss Voigt Hill
#
# Bulk Modulus (GPa) = 39.26166 48.48435 43.87301
# Shear Modulus (GPa) = 21.23159 26.65808 23.94484
#
# Velocity S-wave (km/s) = 3.04408 3.41098 3.23274
# Velocity P-wave (km/s) = 5.43055 6.05589 5.75172
#
# Compressibility (1/GPa) = 0.02547014
#
# Stress axis : x y z
#
# Youngs Moduli (GPa) = 45.17497 115.28068 28.26867
#
# Poissons Ratio (x) = 0.03269 0.36748
# Poissons Ratio (y) = 0.01281 0.19999
# Poissons Ratio (z) = 0.58725 0.81558
#
# Static dielectric constant tensor:
#      x y z
#    x 1.991480 0.000000 0.000000 
#    y 0.000000 1.962230 0.000000 
#    z 0.000000 0.000000 1.936000 
# 
# From -- ./inp_files/39175.got.cif
#   From: 2010.05.17/outbox.cif.g08.bks.cpg/sg52_20_cif.got.tgz:39175.got - 2010.06.03 12:15:38.
