data_PCOD9412588
_publ_section_title
;
Structure prediction by ZEFSAII (Michael W. Deem and Ramdas Pophale) SiO2 
 PCOD9412588
Probable space group: P N N A
;
_chemical_formula_sum "Si O2"
_cell_formula_units_Z 24
_cell_length_a 16.539297
_cell_length_b 7.881214
_cell_length_c 8.786966
_cell_angle_alpha 90.000000
_cell_angle_beta 90.000000
_cell_angle_gamma 90.000000
_cell_volume 1145.378725
_symmetry_space_group_name_H-M "P N N A"
_symmetry_group_IT_number 52
_symmetry_cell_setting 'orthorhombic'
loop_
_space_group_symop_operation_xyz
x,y,z
1/2-x,-y,z
x,1/2-y,1/2-z
1/2-x,1/2+y,1/2-z
-x,-y,-z
1/2+x,y,-z
-x,1/2+y,1/2+z
1/2+x,1/2-y,1/2+z
loop_
_atom_site_type_symbol
_atom_site_label
_atom_site_fract_x
_atom_site_fract_y
_atom_site_fract_z
Si Si1 0.413230 0.714380 0.428165
Si Si2 0.342439 0.023668 0.623209
Si Si3 0.401123 0.131032 0.948139
O O1 0.411221 0.750000 0.250000
O O2 0.374449 0.635873 0.971864
O O3 0.374711 0.529903 0.454899
O O4 0.506851 0.688763 0.478082
O O5 0.394627 0.061266 0.774483
O O6 0.348481 0.200598 0.532396
O O7 0.250000 0.000000 0.671132
#
# Coordination Sequence:
#
# PCOD9412588 Si02
#       3
#     8   8   8
#     4  11  23  43  66  97 134 167 220 275 324 388
#     4  11  24  43  67  97 132 175 223 272 325 390
#     4  10  24  41  70  96 124 177 223 260 325 400
#
# _framework density 20.953768
#
# number of rings (size 3 to 8) (size 9 to 14) (size 15 to 20)
#    0.000    1.333    3.333    2.000    9.333    1.333 
#    6.000    0.000    0.000    0.000    0.000    0.000 
#    0.000    0.000    0.000    0.000    0.000    0.000 
#
# Total GULP energy -134062.216440 kJ/mol
# GULP energy per Si atom -5585.925685 kJ/mol
# Density = 2.090608 g / cm^3
# Si number density = 20.953768 Si / 1000 Ang^3
#
#
#
# Elastic Constant Matrix: (Units=GPa)
#
#
# Indices 1 2 3 4 5 6 
#
# 1 57.4916 24.4978 3.5714 0.0000 0.0000 0.0000
# 2 24.4978 164.0055 42.9863 0.0000 0.0000 0.0000
# 3 3.5714 42.9863 44.4198 0.0000 0.0000 0.0000
# 4 0.0000 0.0000 0.0000 22.3923 0.0000 0.0000
# 5 0.0000 0.0000 0.0000 0.0000 6.1159 0.0000
# 6 0.0000 0.0000 0.0000 0.0000 0.0000 7.8273
#
#
#
# Elastic Compliance Matrix: (Units=1/GPa)
#
#
# Indices 1 2 3 4 5 6 
#
# 1 0.018661 -0.003208 0.001604 0.000000 0.000000 0.000000
# 2 -0.003208 0.008721 -0.008182 0.000000 0.000000 0.000000
# 3 0.001604 -0.008182 0.030301 0.000000 0.000000 0.000000
# 4 0.000000 0.000000 0.000000 0.044658 0.000000 0.000000
# 5 0.000000 0.000000 0.000000 0.000000 0.163508 0.000000
# 6 0.000000 0.000000 0.000000 0.000000 0.000000 0.127757
#
#
# Mechanical properties :
#
#
# Convention : Reuss Voigt Hill
#
# Bulk Modulus (GPa) = 26.23835 45.33643 35.78739
# Shear Modulus (GPa) = 11.74036 20.25787 15.99911
#
# Velocity S-wave (km/s) = 2.36963 3.11270 2.76623
# Velocity P-wave (km/s) = 4.47617 5.88234 5.22676
#
# Compressibility (1/GPa) = 0.03811216
#
# Stress axis : x y z
#
# Youngs Moduli (GPa) = 53.58738 114.66666 33.00209
#
# Poissons Ratio (x) = 0.36783 -0.05293
# Poissons Ratio (y) = 0.17190 0.27001
# Poissons Ratio (z) = -0.08595 0.93816
#
# Static dielectric constant tensor:
#      x y z
#    x 1.745820 0.000000 0.000000 
#    y 0.000000 1.690850 0.000000 
#    z 0.000000 0.000000 1.770120 
# 
# From -- ./inp_files/9328.got.cif
#   From: 2010.05.17/outbox.cif.g08.bks.cpg/sg52_5_cif.got.tgz:9328.got - 2010.06.03 12:15:38.
