data_PCOD9412409
_publ_section_title
;
Structure prediction by ZEFSAII (Michael W. Deem and Ramdas Pophale) SiO2 
 PCOD9412409
Probable space group: P N N A
;
_chemical_formula_sum "Si O2"
_cell_formula_units_Z 24
_cell_length_a 18.142920
_cell_length_b 5.870873
_cell_length_c 9.715681
_cell_angle_alpha 90.000000
_cell_angle_beta 90.000000
_cell_angle_gamma 90.000000
_cell_volume 1034.863616
_symmetry_space_group_name_H-M "P N N A"
_symmetry_group_IT_number 52
_symmetry_cell_setting 'orthorhombic'
loop_
_space_group_symop_operation_xyz
x,y,z
1/2-x,-y,z
x,1/2-y,1/2-z
1/2-x,1/2+y,1/2-z
-x,-y,-z
1/2+x,y,-z
-x,1/2+y,1/2+z
1/2+x,1/2-y,1/2+z
loop_
_atom_site_type_symbol
_atom_site_label
_atom_site_fract_x
_atom_site_fract_y
_atom_site_fract_z
Si Si1 0.555803 0.300747 0.955466
Si Si2 0.177174 0.879146 0.390588
Si Si3 0.590317 0.596207 0.379945
O O1 0.618147 0.420875 0.867616
O O2 0.498846 0.130305 0.883450
O O3 0.500000 0.500000 0.000000
O O4 0.593849 0.173478 0.085851
O O5 0.195398 0.750000 0.250000
O O6 0.136476 0.707253 0.494703
O O7 0.250000 0.000000 0.447947
O O8 0.614447 0.750000 0.250000
#
# Coordination Sequence:
#
# PCOD9412409 Si02
#       3
#     8   8   8
#     4   9  22  41  69 103 136 176 234 288 359 423
#     4  11  27  43  65 100 140 189 236 291 359 433
#     4  10  23  43  71 102 137 181 232 300 354 427
#
# _framework density 23.191458999999998
#
# number of rings (size 3 to 8) (size 9 to 14) (size 15 to 20)
#    0.000    2.000    0.000    0.000   18.667    4.000 
#    6.000    0.000    0.000    0.000    0.000    0.000 
#    0.000    0.000    0.000    0.000    0.000    0.000 
#
# Total GULP energy -133736.930377 kJ/mol
# GULP energy per Si atom -5572.372099 kJ/mol
# Density = 2.313867 g / cm^3
# Si number density = 23.191459 Si / 1000 Ang^3
#
#
#
# Elastic Constant Matrix: (Units=GPa)
#
#
# Indices 1 2 3 4 5 6 
#
# 1 113.3725 19.1270 -6.8457 0.0000 0.0000 0.0000
# 2 19.1270 118.7804 29.1351 0.0000 0.0000 0.0000
# 3 -6.8457 29.1351 83.2839 0.0000 0.0000 0.0000
# 4 0.0000 0.0000 0.0000 12.6588 0.0000 0.0000
# 5 0.0000 0.0000 0.0000 0.0000 21.1291 0.0000
# 6 0.0000 0.0000 0.0000 0.0000 0.0000 30.4554
#
#
#
# Elastic Compliance Matrix: (Units=1/GPa)
#
#
# Indices 1 2 3 4 5 6 
#
# 1 0.009213 -0.001826 0.001396 0.000000 0.000000 0.000000
# 2 -0.001826 0.009571 -0.003498 0.000000 0.000000 0.000000
# 3 0.001396 -0.003498 0.013346 0.000000 0.000000 0.000000
# 4 0.000000 0.000000 0.000000 0.078996 0.000000 0.000000
# 5 0.000000 0.000000 0.000000 0.000000 0.047328 0.000000
# 6 0.000000 0.000000 0.000000 0.000000 0.000000 0.032835
#
#
# Mechanical properties :
#
#
# Convention : Reuss Voigt Hill
#
# Bulk Modulus (GPa) = 41.19788 44.25216 42.72502
# Shear Modulus (GPa) = 24.12702 31.11668 27.62185
#
# Velocity S-wave (km/s) = 3.22893 3.66694 3.45488
# Velocity P-wave (km/s) = 5.63064 6.08697 5.86325
#
# Compressibility (1/GPa) = 0.02427310
#
# Stress axis : x y z
#
# Youngs Moduli (GPa) = 108.54429 104.48221 74.93062
#
# Poissons Ratio (x) = 0.19078 -0.10461
# Poissons Ratio (y) = 0.19820 0.26213
# Poissons Ratio (z) = -0.15153 0.36551
#
# Static dielectric constant tensor:
#      x y z
#    x 1.841110 0.000000 0.000000 
#    y 0.000000 2.044770 0.000000 
#    z 0.000000 0.000000 2.034520 
# 
# From -- ./inp_files/20019.got.cif
#   From: 2010.05.17/outbox.cif.g08.bks.cpg/sg52_11_cif.got.tgz:20019.got - 2010.06.03 12:15:38.
