data_PCOD9412167
_publ_section_title
;
Structure prediction by ZEFSAII (Michael W. Deem and Ramdas Pophale) SiO2 
 PCOD9412167
Probable space group: P N N A
;
_chemical_formula_sum "Si O2"
_cell_formula_units_Z 32
_cell_length_a 5.273463
_cell_length_b 8.556458
_cell_length_c 28.179584
_cell_angle_alpha 90.000000
_cell_angle_beta 90.000000
_cell_angle_gamma 90.000000
_cell_volume 1271.523830
_symmetry_space_group_name_H-M "P N N A"
_symmetry_group_IT_number 52
_symmetry_cell_setting 'orthorhombic'
loop_
_space_group_symop_operation_xyz
x,y,z
1/2-x,-y,z
x,1/2-y,1/2-z
1/2-x,1/2+y,1/2-z
-x,-y,-z
1/2+x,y,-z
-x,1/2+y,1/2+z
1/2+x,1/2-y,1/2+z
loop_
_atom_site_type_symbol
_atom_site_label
_atom_site_fract_x
_atom_site_fract_y
_atom_site_fract_z
Si Si1 0.750000 0.500000 0.219923
Si Si2 0.898118 0.750000 0.750000
Si Si3 0.963868 0.267102 0.840459
Si Si4 0.750000 0.500000 0.604399
Si Si5 0.750000 0.000000 0.581835
Si Si6 0.999797 0.269542 0.470307
O O1 0.546247 0.584563 0.253004
O O2 0.695113 0.353206 0.185247
O O3 0.734200 0.731077 0.797281
O O4 0.889095 0.380074 0.883559
O O5 0.944805 0.097979 0.863366
O O6 0.916478 0.612182 0.570914
O O7 0.946189 0.902756 0.550181
O O8 0.214730 0.291786 0.511229
#
# Coordination Sequence:
#
# PCOD9412167 Si02
#       6
#     4   4   8   4   4   8
#     4  12  26  44  77 103 142 214 249 305 390 444
#     4  12  26  46  72 104 156 192 256 310 378 458
#     4  11  25  48  67 108 151 192 254 305 371 454
#     4  10  26  45  72 105 154 186 243 321 368 454
#     4  10  22  45  69 108 142 188 242 316 368 462
#     4  11  24  47  74 107 147 193 247 311 393 461
#
# _framework density 25.166654999999999
#
# number of rings (size 3 to 8) (size 9 to 14) (size 15 to 20)
#    0.000    1.000    2.500    2.250    7.000    4.000 
#    4.500    0.000    0.000    0.000    0.000    0.000 
#    0.000    0.000    0.000    0.000    0.000    0.000 
#
# Total GULP energy -179134.260599 kJ/mol
# GULP energy per Si atom -5597.945644 kJ/mol
# Density = 2.510937 g / cm^3
# Si number density = 25.166655 Si / 1000 Ang^3
#
#
#
# Elastic Constant Matrix: (Units=GPa)
#
#
# Indices 1 2 3 4 5 6 
#
# 1 44.1815 7.3981 22.9790 0.0000 0.0000 0.0000
# 2 7.3981 125.9706 56.2100 0.0000 0.0000 0.0000
# 3 22.9790 56.2100 92.2930 0.0000 0.0000 0.0000
# 4 0.0000 0.0000 0.0000 45.7509 0.0000 0.0000
# 5 0.0000 0.0000 0.0000 0.0000 -57.8022 0.0000
# 6 0.0000 0.0000 0.0000 0.0000 0.0000 37.5040
#
#
#
# Elastic Compliance Matrix: (Units=1/GPa)
#
#
# Indices 1 2 3 4 5 6 
#
# 1 0.026326 0.001893 -0.007707 0.000000 0.000000 0.000000
# 2 0.001893 0.011037 -0.007193 0.000000 0.000000 0.000000
# 3 -0.007707 -0.007193 0.017135 0.000000 0.000000 0.000000
# 4 0.000000 0.000000 0.000000 0.021858 0.000000 0.000000
# 5 0.000000 0.000000 0.000000 0.000000 -0.017300 0.000000
# 6 0.000000 0.000000 0.000000 0.000000 0.000000 0.026664
#
#
# Mechanical properties :
#
#
# Convention : Reuss Voigt Hill
#
# Bulk Modulus (GPa) = 35.10948 48.40212 41.75580
# Shear Modulus (GPa) = 41.24465 16.81441 29.02953
#
# Velocity S-wave (km/s) = 4.05268 2.58761 3.39999
# Velocity P-wave (km/s) = 5.98999 5.31056 5.66048
#
# Compressibility (1/GPa) = 0.02848234
#
# Stress axis : x y z
#
# Youngs Moduli (GPa) = 37.98579 90.60501 58.36003
#
# Poissons Ratio (x) = -0.17153 0.44981
# Poissons Ratio (y) = -0.07191 0.41980
# Poissons Ratio (z) = 0.29278 0.65174
#
# Static dielectric constant tensor:
#      x y z
#    x 2.183490 0.000000 0.000000 
#    y 0.000000 6.052010 0.000000 
#    z 0.000000 0.000000 1.870910 
# 
# From -- ./inp_files/43514.got.cif
#   From: 2010.05.17/outbox.cif.g08.bks.cpg/sg52_22_cif.got.tgz:43514.got - 2010.06.03 12:15:38.
