data_PCOD9412001
_publ_section_title
;
Structure prediction by ZEFSAII (Michael W. Deem and Ramdas Pophale) SiO2 
 PCOD9412001
Probable space group: P N N A
;
_chemical_formula_sum "Si O2"
_cell_formula_units_Z 28
_cell_length_a 16.497347
_cell_length_b 5.044185
_cell_length_c 14.607463
_cell_angle_alpha 90.000000
_cell_angle_beta 90.000000
_cell_angle_gamma 90.000000
_cell_volume 1215.569825
_symmetry_space_group_name_H-M "P N N A"
_symmetry_group_IT_number 52
_symmetry_cell_setting 'orthorhombic'
loop_
_space_group_symop_operation_xyz
x,y,z
1/2-x,-y,z
x,1/2-y,1/2-z
1/2-x,1/2+y,1/2-z
-x,-y,-z
1/2+x,y,-z
-x,1/2+y,1/2+z
1/2+x,1/2-y,1/2+z
loop_
_atom_site_type_symbol
_atom_site_label
_atom_site_fract_x
_atom_site_fract_y
_atom_site_fract_z
Si Si1 0.835041 0.552239 0.968440
Si Si2 0.516345 0.368738 0.845730
Si Si3 0.370971 0.065997 0.915505
Si Si4 0.610312 0.250000 0.250000
O O1 0.750000 0.500000 0.918252
O O2 0.912926 0.505194 0.905079
O O3 0.831997 0.337077 0.049792
O O4 0.849887 0.842609 0.010291
O O5 0.548337 0.250000 0.750000
O O6 0.465796 0.144232 0.900556
O O7 0.448445 0.579269 0.815528
O O8 0.344638 0.950461 0.817285
#
# Coordination Sequence:
#
# PCOD9412001 Si02
#       4
#     8   8   8   4
#     4  12  26  43  65 101 139 177 213 274 348 410
#     4  10  23  42  72  99 129 173 232 279 328 393
#     4  11  23  44  70  94 128 177 230 273 324 395
#     4  10  22  42  72 100 120 170 234 284 316 378
#
# _framework density 23.034462999999999
#
# number of rings (size 3 to 8) (size 9 to 14) (size 15 to 20)
#    0.000    1.143    2.857    2.571    8.000    0.000 
#    2.571    2.857    3.143    0.000    0.000    0.000 
#    0.000    0.000    0.000    0.000    0.000    0.000 
#
# Total GULP energy -156489.524992 kJ/mol
# GULP energy per Si atom -5588.911607 kJ/mol
# Density = 2.298204 g / cm^3
# Si number density = 23.034463 Si / 1000 Ang^3
#
#
#
# Elastic Constant Matrix: (Units=GPa)
#
#
# Indices 1 2 3 4 5 6 
#
# 1 110.0137 21.3116 45.3565 0.0000 0.0000 0.0000
# 2 21.3116 124.8497 27.8647 0.0000 0.0000 0.0000
# 3 45.3565 27.8647 44.5612 0.0000 0.0000 0.0000
# 4 0.0000 0.0000 0.0000 34.7075 0.0000 0.0000
# 5 0.0000 0.0000 0.0000 0.0000 -14.4772 0.0000
# 6 0.0000 0.0000 0.0000 0.0000 0.0000 15.6203
#
#
#
# Elastic Compliance Matrix: (Units=1/GPa)
#
#
# Indices 1 2 3 4 5 6 
#
# 1 0.015777 0.001035 -0.016706 0.000000 0.000000 0.000000
# 2 0.001035 0.009377 -0.006917 0.000000 0.000000 0.000000
# 3 -0.016706 -0.006917 0.043770 0.000000 0.000000 0.000000
# 4 0.000000 0.000000 0.000000 0.028812 0.000000 0.000000
# 5 0.000000 0.000000 0.000000 0.000000 -0.069074 0.000000
# 6 0.000000 0.000000 0.000000 0.000000 0.000000 0.064019
#
#
# Mechanical properties :
#
#
# Convention : Reuss Voigt Hill
#
# Bulk Modulus (GPa) = 42.10769 52.05447 47.08108
# Shear Modulus (GPa) = 34.30001 19.49622 26.89811
#
# Velocity S-wave (km/s) = 3.86304 2.91244 3.42092
# Velocity P-wave (km/s) = 6.18202 5.82729 6.00728
#
# Compressibility (1/GPa) = 0.02374863
#
# Stress axis : x y z
#
# Youngs Moduli (GPa) = 63.38493 106.64697 22.84651
#
# Poissons Ratio (x) = -0.11043 0.38167
# Poissons Ratio (y) = -0.06563 0.15804
# Poissons Ratio (z) = 1.05889 0.73771
#
# Static dielectric constant tensor:
#      x y z
#    x 1.893800 0.000000 0.000000 
#    y 0.000000 1.899980 0.000000 
#    z 0.000000 0.000000 1.890250 
# 
# From -- ./inp_files/27534.got.cif
#   From: 2010.05.17/outbox.cif.g08.bks.cpg/sg52_14_cif.got.tgz:27534.got - 2010.06.03 12:15:38.
