data_PCOD9412130
_publ_section_title
;
Structure prediction by ZEFSAII (Michael W. Deem and Ramdas Pophale) SiO2 
 PCOD9412130
Probable space group: P N N A
;
_chemical_formula_sum "Si O2"
_cell_formula_units_Z 48
_cell_length_a 14.622741
_cell_length_b 23.567012
_cell_length_c 5.389356
_cell_angle_alpha 90.000000
_cell_angle_beta 90.000000
_cell_angle_gamma 90.000000
_cell_volume 1857.249213
_symmetry_space_group_name_H-M "P N N A"
_symmetry_group_IT_number 52
_symmetry_cell_setting 'orthorhombic'
loop_
_space_group_symop_operation_xyz
x,y,z
1/2-x,-y,z
x,1/2-y,1/2-z
1/2-x,1/2+y,1/2-z
-x,-y,-z
1/2+x,y,-z
-x,1/2+y,1/2+z
1/2+x,1/2-y,1/2+z
loop_
_atom_site_type_symbol
_atom_site_label
_atom_site_fract_x
_atom_site_fract_y
_atom_site_fract_z
Si Si1 0.250000 0.000000 0.561610
Si Si2 0.591684 0.602319 0.566799
Si Si3 0.589145 0.061396 0.202461
Si Si4 0.575157 0.832732 0.415256
Si Si5 0.218901 0.092059 0.181208
Si Si6 0.124247 0.180151 0.479567
Si Si7 0.266176 0.250000 0.750000
O O1 0.349546 0.986883 0.675284
O O2 0.238675 0.943062 0.404040
O O3 0.519286 0.557779 0.679103
O O4 0.549717 0.623467 0.306167
O O5 0.696464 0.590203 0.495381
O O6 0.599116 0.645836 0.804898
O O7 0.612617 0.123967 0.331568
O O8 0.633013 0.060531 0.930792
O O9 0.479488 0.799578 0.447697
O O10 0.660450 0.800346 0.292227
O O11 0.177758 0.151841 0.251638
O O12 0.190633 0.231005 0.550437
#
# Coordination Sequence:
#
# PCOD9412130 Si02
#       7
#     4   8   8   8   8   8   4
#     4  10  24  40  68 106 138 184 240 298 360 446
#     4  11  24  44  75  97 142 194 235 295 364 432
#     4  10  22  44  69  98 145 183 237 295 367 431
#     4  11  25  46  67 108 143 188 247 299 357 444
#     4  11  21  44  70  99 142 190 236 294 367 436
#     4  10  23  45  70 101 148 195 235 305 370 425
#     4  12  24  46  74 110 146 192 254 308 370 440
#
# _framework density 25.844674000000001
#
# number of rings (size 3 to 8) (size 9 to 14) (size 15 to 20)
#    0.000    1.333    3.333    1.500    2.333    4.000 
#    6.000    3.333    0.000    0.000    0.000    0.000 
#    0.000    0.000    0.000    0.000    0.000    0.000 
#
# Total GULP energy -267299.021025 kJ/mol
# GULP energy per Si atom -5568.729605 kJ/mol
# Density = 2.578585 g / cm^3
# Si number density = 25.844674 Si / 1000 Ang^3
#
#
#
# Elastic Constant Matrix: (Units=GPa)
#
#
# Indices 1 2 3 4 5 6 
#
# 1 183.9840 7.2040 -3.8149 0.0000 0.0000 0.0000
# 2 7.2040 41.3871 21.3674 0.0000 0.0000 0.0000
# 3 -3.8149 21.3674 66.1214 0.0000 0.0000 0.0000
# 4 0.0000 0.0000 0.0000 40.5141 0.0000 0.0000
# 5 0.0000 0.0000 0.0000 0.0000 22.3850 0.0000
# 6 0.0000 0.0000 0.0000 0.0000 0.0000 20.9817
#
#
#
# Elastic Compliance Matrix: (Units=1/GPa)
#
#
# Indices 1 2 3 4 5 6 
#
# 1 0.005504 -0.001347 0.000753 0.000000 0.000000 0.000000
# 2 -0.001347 0.029330 -0.009556 0.000000 0.000000 0.000000
# 3 0.000753 -0.009556 0.018255 0.000000 0.000000 0.000000
# 4 0.000000 0.000000 0.000000 0.024683 0.000000 0.000000
# 5 0.000000 0.000000 0.000000 0.000000 0.044673 0.000000
# 6 0.000000 0.000000 0.000000 0.000000 0.000000 0.047661
#
#
# Mechanical properties :
#
#
# Convention : Reuss Voigt Hill
#
# Bulk Modulus (GPa) = 30.49774 37.88952 34.19363
# Shear Modulus (GPa) = 24.83435 34.55856 29.69645
#
# Velocity S-wave (km/s) = 3.10321 3.66069 3.39342
# Velocity P-wave (km/s) = 4.96648 5.70612 5.34910
#
# Compressibility (1/GPa) = 0.03278931
#
# Stress axis : x y z
#
# Youngs Moduli (GPa) = 181.69965 34.09479 54.77918
#
# Poissons Ratio (x) = 0.04591 -0.04123
# Poissons Ratio (y) = 0.24467 0.52346
# Poissons Ratio (z) = -0.13676 0.32580
#
# Static dielectric constant tensor:
#      x y z
#    x 2.051710 0.000000 0.000000 
#    y 0.000000 2.246550 0.000000 
#    z 0.000000 0.000000 2.241170 
# 
# From -- ./inp_files/2491.got.cif
#   From: 2010.05.17/outbox.cif.g08.bks.cpg/sg52_2_cif.got.tgz:2491.got - 2010.06.03 12:15:38.
