data_PCOD9412162
_publ_section_title
;
Structure prediction by ZEFSAII (Michael W. Deem and Ramdas Pophale) SiO2 
 PCOD9412162
Probable space group: P N N A
;
_chemical_formula_sum "Si O2"
_cell_formula_units_Z 60
_cell_length_a 10.961326
_cell_length_b 26.585505
_cell_length_c 8.882997
_cell_angle_alpha 90.000000
_cell_angle_beta 90.000000
_cell_angle_gamma 90.000000
_cell_volume 2588.615361
_symmetry_space_group_name_H-M "P N N A"
_symmetry_group_IT_number 52
_symmetry_cell_setting 'orthorhombic'
loop_
_space_group_symop_operation_xyz
x,y,z
1/2-x,-y,z
x,1/2-y,1/2-z
1/2-x,1/2+y,1/2-z
-x,-y,-z
1/2+x,y,-z
-x,1/2+y,1/2+z
1/2+x,1/2-y,1/2+z
loop_
_atom_site_type_symbol
_atom_site_label
_atom_site_fract_x
_atom_site_fract_y
_atom_site_fract_z
Si Si1 0.494360 0.483799 0.824902
Si Si2 0.147539 0.388279 0.132594
Si Si3 0.250000 0.000000 0.870423
Si Si4 0.666404 0.206526 0.059944
Si Si5 0.163438 0.560575 0.353459
Si Si6 0.232279 0.317638 0.905627
Si Si7 0.408777 0.342413 0.486241
Si Si8 0.976284 0.191557 0.294610
O O1 0.535621 0.426022 0.841800
O O2 0.367488 0.494687 0.738366
O O3 0.593788 0.513999 0.723370
O O4 0.500000 0.500000 0.000000
O O5 0.254484 0.413887 0.225643
O O6 0.106103 0.333627 0.188097
O O7 0.185817 0.371546 0.964523
O O8 0.237227 0.954846 0.994538
O O9 0.680260 0.265501 0.027502
O O10 0.699530 0.192409 0.231655
O O11 0.525220 0.192009 0.048080
O O12 0.771800 0.178674 0.961761
O O13 0.072992 0.604173 0.408659
O O14 0.379103 0.314703 0.928643
O O15 0.419225 0.343461 0.665016
O O16 0.975939 0.250000 0.250000
#
# Coordination Sequence:
#
# PCOD9412162 Si02
#       8
#     8   8   4   8   8   8   8   8
#     4  12  31  52  80 118 161 203 273 344 407 488
#     4  12  27  45  77 110 156 198 263 328 407 460
#     4  12  28  54  86 102 162 216 254 340 420 486
#     4  10  22  45  68 109 153 203 265 311 399 478
#     4  12  28  51  78 117 157 205 278 328 410 502
#     4  10  23  43  71 102 157 209 247 324 395 478
#     4  11  23  40  74 104 145 200 256 314 380 476
#     4  11  22  45  71 109 155 202 259 314 394 477
#
# _framework density 23.178412999999999
#
# number of rings (size 3 to 8) (size 9 to 14) (size 15 to 20)
#    0.000    0.800    4.000    2.800    9.333    1.067 
#    2.400    0.000    0.000    0.000    0.000    0.000 
#    0.000    0.000    0.000    0.000    0.000    0.000 
#
# Total GULP energy -334387.207072 kJ/mol
# GULP energy per Si atom -5573.120118 kJ/mol
# Density = 2.312566 g / cm^3
# Si number density = 23.178413 Si / 1000 Ang^3
#
#
#
# Elastic Constant Matrix: (Units=GPa)
#
#
# Indices 1 2 3 4 5 6 
#
# 1 101.6155 61.0222 49.3279 0.0000 0.0000 0.0000
# 2 61.0222 134.4242 61.5017 0.0000 0.0000 0.0000
# 3 49.3279 61.5017 99.8048 0.0000 0.0000 0.0000
# 4 0.0000 0.0000 0.0000 53.1211 0.0000 0.0000
# 5 0.0000 0.0000 0.0000 0.0000 374.3400 0.0000
# 6 0.0000 0.0000 0.0000 0.0000 0.0000 27.4329
#
#
#
# Elastic Compliance Matrix: (Units=1/GPa)
#
#
# Indices 1 2 3 4 5 6 
#
# 1 0.014811 -0.004699 -0.004424 0.000000 0.000000 0.000000
# 2 -0.004699 0.011851 -0.004980 0.000000 0.000000 0.000000
# 3 -0.004424 -0.004980 0.015275 0.000000 0.000000 0.000000
# 4 0.000000 0.000000 0.000000 0.018825 0.000000 0.000000
# 5 0.000000 0.000000 0.000000 0.000000 0.002671 0.000000
# 6 0.000000 0.000000 0.000000 0.000000 0.000000 0.036453
#
#
# Mechanical properties :
#
#
# Convention : Reuss Voigt Hill
#
# Bulk Modulus (GPa) = 72.83706 75.50535 74.17121
# Shear Modulus (GPa) = 37.68761 101.91165 69.79963
#
# Velocity S-wave (km/s) = 4.03672 6.63806 5.49358
# Velocity P-wave (km/s) = 7.29517 9.56024 8.50346
#
# Compressibility (1/GPa) = 0.01372927
#
# Stress axis : x y z
#
# Youngs Moduli (GPa) = 67.51878 84.38214 65.46550
#
# Poissons Ratio (x) = 0.39652 0.28965
# Poissons Ratio (y) = 0.31728 0.32603
# Poissons Ratio (z) = 0.29873 0.42024
#
# Static dielectric constant tensor:
#      x y z
#    x 2.071060 0.000000 0.000000 
#    y 0.000000 1.904600 0.000000 
#    z 0.000000 0.000000 1.996880 
# 
# From -- ./inp_files/9041.got.cif
#   From: 2010.05.17/outbox.cif.g08.bks.cpg/sg52_5_cif.got.tgz:9041.got - 2010.06.03 12:15:38.
