data_PCOD9412287
_publ_section_title
;
Structure prediction by ZEFSAII (Michael W. Deem and Ramdas Pophale) SiO2 
 PCOD9412287
Probable space group: P N N A
;
_chemical_formula_sum "Si O2"
_cell_formula_units_Z 40
_cell_length_a 29.030483
_cell_length_b 11.663054
_cell_length_c 4.954610
_cell_angle_alpha 90.000000
_cell_angle_beta 90.000000
_cell_angle_gamma 90.000000
_cell_volume 1677.552122
_symmetry_space_group_name_H-M "P N N A"
_symmetry_group_IT_number 52
_symmetry_cell_setting 'orthorhombic'
loop_
_space_group_symop_operation_xyz
x,y,z
1/2-x,-y,z
x,1/2-y,1/2-z
1/2-x,1/2+y,1/2-z
-x,-y,-z
1/2+x,y,-z
-x,1/2+y,1/2+z
1/2+x,1/2-y,1/2+z
loop_
_atom_site_type_symbol
_atom_site_label
_atom_site_fract_x
_atom_site_fract_y
_atom_site_fract_z
Si Si1 0.839115 0.250000 0.250000
Si Si2 0.663919 0.367247 0.596484
Si Si3 0.526829 0.580183 0.797625
Si Si4 0.399370 0.250000 0.250000
Si Si5 0.197559 0.995293 0.582715
Si Si6 0.441149 0.854704 0.043957
O O1 0.868324 0.294050 0.507104
O O2 0.812746 0.363298 0.152433
O O3 0.680148 0.250000 0.750000
O O4 0.691678 0.422698 0.346641
O O5 0.612799 0.342084 0.476958
O O6 0.664773 0.458071 0.843656
O O7 0.565529 0.664581 0.901460
O O8 0.485896 0.644295 0.644420
O O9 0.555551 0.487345 0.630086
O O10 0.500000 0.500000 0.000000
O O11 0.250000 0.000000 0.483570
O O12 0.449363 0.750000 0.250000
#
# Coordination Sequence:
#
# PCOD9412287 Si02
#       6
#     4   8   8   4   8   8
#     4  12  28  48  76 109 150 201 248 316 386 460
#     4  11  26  47  77 109 149 193 246 311 373 448
#     4  11  24  39  67  96 143 191 245 298 351 430
#     4  12  28  46  72 107 152 197 256 302 376 442
#     4  12  27  50  78 111 147 192 251 313 390 461
#     4  10  23  41  64 100 137 186 240 294 362 422
#
# _framework density 23.844266000000001
#
# number of rings (size 3 to 8) (size 9 to 14) (size 15 to 20)
#    0.000    0.800    0.000    6.000   15.400    0.000 
#    0.000    0.000    0.000    0.000    0.000    0.000 
#    0.000    0.000    0.000    0.000    0.000    0.000 
#
# Total GULP energy -223249.867407 kJ/mol
# GULP energy per Si atom -5581.246685 kJ/mol
# Density = 2.379000 g / cm^3
# Si number density = 23.844266 Si / 1000 Ang^3
#
#
#
# Elastic Constant Matrix: (Units=GPa)
#
#
# Indices 1 2 3 4 5 6 
#
# 1 100.4039 43.4548 26.7802 0.0000 0.0000 0.0000
# 2 43.4548 128.0963 16.0926 0.0000 0.0000 0.0000
# 3 26.7802 16.0926 68.8027 0.0000 0.0000 0.0000
# 4 0.0000 0.0000 0.0000 39.5086 0.0000 0.0000
# 5 0.0000 0.0000 0.0000 0.0000 7.9583 0.0000
# 6 0.0000 0.0000 0.0000 0.0000 0.0000 -1.6374
#
#
#
# Elastic Compliance Matrix: (Units=1/GPa)
#
#
# Indices 1 2 3 4 5 6 
#
# 1 0.012681 -0.003793 -0.004049 0.000000 0.000000 0.000000
# 2 -0.003793 0.009178 -0.000670 0.000000 0.000000 0.000000
# 3 -0.004049 -0.000670 0.016267 0.000000 0.000000 0.000000
# 4 0.000000 0.000000 0.000000 0.025311 0.000000 0.000000
# 5 0.000000 0.000000 0.000000 0.000000 0.125656 0.000000
# 6 0.000000 0.000000 0.000000 0.000000 0.000000 -0.610728
#
#
# Mechanical properties :
#
#
# Convention : Reuss Voigt Hill
#
# Bulk Modulus (GPa) = 47.38984 52.21759 49.80371
# Shear Modulus (GPa) = -12.57618 23.23091 5.32737
#
# Velocity S-wave (km/s) = -2.29908 3.12473 1.49636
# Velocity P-wave (km/s) = 3.58751 5.91317 4.89059
#
# Compressibility (1/GPa) = 0.02110157
#
# Stress axis : x y z
#
# Youngs Moduli (GPa) = 78.85531 108.96035 61.47426
#
# Poissons Ratio (x) = 0.41333 0.24890
# Poissons Ratio (y) = 0.29913 0.04119
# Poissons Ratio (z) = 0.31927 0.07302
#
# Static dielectric constant tensor:
#      x y z
#    x 1.802440 0.000000 0.000000 
#    y 0.000000 1.931310 0.000000 
#    z 0.000000 0.000000 1.963960 
# 
# From -- ./inp_files/5636.got.cif
#   From: 2010.05.17/outbox.cif.g08.bks.cpg/sg52_3_cif.got.tgz:5636.got - 2010.06.03 12:15:38.
