data_PCOD9412756
_publ_section_title
;
Structure prediction by ZEFSAII (Michael W. Deem and Ramdas Pophale) SiO2 
 PCOD9412756
Probable space group: P N N A
;
_chemical_formula_sum "Si O2"
_cell_formula_units_Z 56
_cell_length_a 11.161303
_cell_length_b 15.793042
_cell_length_c 14.984230
_cell_angle_alpha 90.000000
_cell_angle_beta 90.000000
_cell_angle_gamma 90.000000
_cell_volume 2641.284113
_symmetry_space_group_name_H-M "P N N A"
_symmetry_group_IT_number 52
_symmetry_cell_setting 'orthorhombic'
loop_
_space_group_symop_operation_xyz
x,y,z
1/2-x,-y,z
x,1/2-y,1/2-z
1/2-x,1/2+y,1/2-z
-x,-y,-z
1/2+x,y,-z
-x,1/2+y,1/2+z
1/2+x,1/2-y,1/2+z
loop_
_atom_site_type_symbol
_atom_site_label
_atom_site_fract_x
_atom_site_fract_y
_atom_site_fract_z
Si Si1 0.340081 0.422773 0.476396
Si Si2 0.236023 0.750000 0.750000
Si Si3 0.250000 0.000000 0.509100
Si Si4 0.876518 0.125848 0.629038
Si Si5 0.394517 0.012476 0.204305
Si Si6 0.466028 0.146416 0.847210
Si Si7 0.866763 0.837752 0.413101
Si Si8 0.194745 0.260708 0.408587
O O1 0.250000 0.500000 0.500928
O O2 0.422064 0.453399 0.394438
O O3 0.416883 0.390354 0.559144
O O4 0.261725 0.347944 0.431725
O O5 0.148171 0.815655 0.798438
O O6 0.313727 0.799312 0.677001
O O7 0.170372 0.943040 0.442163
O O8 0.326679 0.934742 0.568650
O O9 0.920107 0.077791 0.717328
O O10 0.773963 0.194918 0.648252
O O11 0.990804 0.171046 0.587416
O O12 0.250000 0.000000 0.208006
O O13 0.467279 0.925607 0.210641
O O14 0.566662 0.217074 0.867201
O O15 0.818671 0.785417 0.496741
#
# Coordination Sequence:
#
# PCOD9412756 Si02
#       8
#     8   4   4   8   8   8   8   8
#     4  11  23  45  70 102 139 184 235 288 362 433
#     4  12  30  46  68 112 144 194 240 300 370 428
#     4  10  24  46  76 106 136 188 242 290 374 424
#     4  11  25  45  75 103 141 183 241 301 350 431
#     4  11  24  43  67 108 133 177 243 289 352 425
#     4  12  26  45  73  99 151 187 234 303 357 434
#     4  11  26  47  69 105 145 186 240 294 363 435
#     4  11  24  45  73 102 139 189 239 293 364 423
#
# _framework density 21.201808
#
# number of rings (size 3 to 8) (size 9 to 14) (size 15 to 20)
#    0.000    0.857    5.000    1.714    6.000    4.000 
#    0.000    0.000    0.000    0.000    0.000    0.000 
#    0.000    0.000    0.000    0.000    0.000    0.000 
#
# Total GULP energy -313275.777009 kJ/mol
# GULP energy per Si atom -5594.210304 kJ/mol
# Density = 2.115355 g / cm^3
# Si number density = 21.201808 Si / 1000 Ang^3
#
#
#
# Elastic Constant Matrix: (Units=GPa)
#
#
# Indices 1 2 3 4 5 6 
#
# 1 78.5742 32.6479 17.4551 0.0000 0.0000 0.0000
# 2 32.6479 101.4581 28.5892 0.0000 0.0000 0.0000
# 3 17.4551 28.5892 67.5021 0.0000 0.0000 0.0000
# 4 0.0000 0.0000 0.0000 22.5592 0.0000 0.0000
# 5 0.0000 0.0000 0.0000 0.0000 15.3435 0.0000
# 6 0.0000 0.0000 0.0000 0.0000 0.0000 29.2118
#
#
#
# Elastic Compliance Matrix: (Units=1/GPa)
#
#
# Indices 1 2 3 4 5 6 
#
# 1 0.014943 -0.004224 -0.002075 0.000000 0.000000 0.000000
# 2 -0.004224 0.012386 -0.004154 0.000000 0.000000 0.000000
# 3 -0.002075 -0.004154 0.017110 0.000000 0.000000 0.000000
# 4 0.000000 0.000000 0.000000 0.044328 0.000000 0.000000
# 5 0.000000 0.000000 0.000000 0.000000 0.065174 0.000000
# 6 0.000000 0.000000 0.000000 0.000000 0.000000 0.034233
#
#
# Mechanical properties :
#
#
# Convention : Reuss Voigt Hill
#
# Bulk Modulus (GPa) = 42.49185 44.99098 43.74141
# Shear Modulus (GPa) = 23.04966 24.67906 23.86436
#
# Velocity S-wave (km/s) = 3.30078 3.41546 3.35861
# Velocity P-wave (km/s) = 5.88320 6.06797 5.97630
#
# Compressibility (1/GPa) = 0.02353393
#
# Stress axis : x y z
#
# Youngs Moduli (GPa) = 66.92207 80.73759 58.44494
#
# Poissons Ratio (x) = 0.34101 0.12128
# Poissons Ratio (y) = 0.28265 0.24276
# Poissons Ratio (z) = 0.13887 0.33535
#
# Static dielectric constant tensor:
#      x y z
#    x 1.755000 0.000000 0.000000 
#    y 0.000000 1.806290 0.000000 
#    z 0.000000 0.000000 1.756710 
# 
# From -- ./inp_files/26186.got.cif
#   From: 2010.05.17/outbox.cif.g08.bks.cpg/sg52_14_cif.got.tgz:26186.got - 2010.06.03 12:15:38.
