data_PCOD9412959
_publ_section_title
;
Structure prediction by ZEFSAII (Michael W. Deem and Ramdas Pophale) SiO2 
 PCOD9412959
Probable space group: P N N A
;
_chemical_formula_sum "Si O2"
_cell_formula_units_Z 48
_cell_length_a 12.107448
_cell_length_b 11.177454
_cell_length_c 15.372580
_cell_angle_alpha 90.000000
_cell_angle_beta 90.000000
_cell_angle_gamma 90.000000
_cell_volume 2080.378063
_symmetry_space_group_name_H-M "P N N A"
_symmetry_group_IT_number 52
_symmetry_cell_setting 'orthorhombic'
loop_
_space_group_symop_operation_xyz
x,y,z
1/2-x,-y,z
x,1/2-y,1/2-z
1/2-x,1/2+y,1/2-z
-x,-y,-z
1/2+x,y,-z
-x,1/2+y,1/2+z
1/2+x,1/2-y,1/2+z
loop_
_atom_site_type_symbol
_atom_site_label
_atom_site_fract_x
_atom_site_fract_y
_atom_site_fract_z
Si Si1 0.212928 0.873831 0.379752
Si Si2 0.475248 0.823580 0.601485
Si Si3 0.195984 0.250000 0.750000
Si Si4 0.356231 0.435399 0.921469
Si Si5 0.750000 0.500000 0.497016
Si Si6 0.403845 0.692971 0.419761
Si Si7 0.372138 0.165469 0.860699
O O1 0.179666 0.904001 0.480103
O O2 0.318914 0.788540 0.379928
O O3 0.096355 0.813170 0.354949
O O4 0.250000 0.000000 0.338400
O O5 0.382619 0.778879 0.668792
O O6 0.455821 0.753765 0.509121
O O7 0.451057 0.965111 0.585625
O O8 0.281839 0.150674 0.785861
O O9 0.250000 0.500000 0.882451
O O10 0.375340 0.307636 0.879701
O O11 0.668586 0.418256 0.551107
O O12 0.675888 0.588826 0.439358
O O13 0.497906 0.643671 0.354870
#
# Coordination Sequence:
#
# PCOD9412959 Si02
#       7
#     8   8   4   8   4   8   8
#     4  11  20  36  68 106 129 169 222 279 333 389
#     4  12  22  40  68  98 141 172 212 280 339 408
#     4  12  26  46  62 104 134 174 212 280 358 406
#     4  11  17  36  64  99 130 157 214 272 329 389
#     4  12  22  42  62  96 132 178 244 270 324 396
#     4  12  22  41  66  98 128 178 231 274 326 396
#     4  12  25  40  65  96 135 172 221 279 336 400
#
# _framework density 23.072728999999999
#
# number of rings (size 3 to 8) (size 9 to 14) (size 15 to 20)
#    0.000    0.333   10.000    2.000    0.000    1.333 
#    0.000    0.833    0.000    0.000    4.333    0.000 
#    0.000    0.000    0.000    0.000    0.000    0.000 
#
# Total GULP energy -267965.172090 kJ/mol
# GULP energy per Si atom -5582.607752 kJ/mol
# Density = 2.302021 g / cm^3
# Si number density = 23.072729 Si / 1000 Ang^3
#
#
#
# Elastic Constant Matrix: (Units=GPa)
#
#
# Indices 1 2 3 4 5 6 
#
# 1 197.8383 29.4057 31.5853 0.0000 0.0000 0.0000
# 2 29.4057 78.4823 16.2582 0.0000 0.0000 0.0000
# 3 31.5853 16.2582 41.9938 0.0000 0.0000 0.0000
# 4 0.0000 0.0000 0.0000 4.3957 0.0000 0.0000
# 5 0.0000 0.0000 0.0000 0.0000 29.5597 0.0000
# 6 0.0000 0.0000 0.0000 0.0000 0.0000 17.5100
#
#
#
# Elastic Compliance Matrix: (Units=1/GPa)
#
#
# Indices 1 2 3 4 5 6 
#
# 1 0.005883 -0.001400 -0.003883 0.000000 0.000000 0.000000
# 2 -0.001400 0.014186 -0.004439 0.000000 0.000000 0.000000
# 3 -0.003883 -0.004439 0.028452 0.000000 0.000000 0.000000
# 4 0.000000 0.000000 0.000000 0.227493 0.000000 0.000000
# 5 0.000000 0.000000 0.000000 0.000000 0.033830 0.000000
# 6 0.000000 0.000000 0.000000 0.000000 0.000000 0.057110
#
#
# Mechanical properties :
#
#
# Convention : Reuss Voigt Hill
#
# Bulk Modulus (GPa) = 34.39142 52.53477 43.46309
# Shear Modulus (GPa) = 12.62342 26.36410 19.49376
#
# Velocity S-wave (km/s) = 2.34159 3.38398 2.90984
# Velocity P-wave (km/s) = 4.71685 6.17147 5.49253
#
# Compressibility (1/GPa) = 0.02907702
#
# Stress axis : x y z
#
# Youngs Moduli (GPa) = 169.99441 70.49291 35.14694
#
# Poissons Ratio (x) = 0.09867 0.13646
# Poissons Ratio (y) = 0.23795 0.15603
# Poissons Ratio (z) = 0.66002 0.31294
#
# Static dielectric constant tensor:
#      x y z
#    x 1.998180 0.000000 0.000000 
#    y 0.000000 1.874610 0.000000 
#    z 0.000000 0.000000 1.933330 
# 
# From -- ./inp_files/32252.got.cif
#   From: 2010.05.17/outbox.cif.g08.bks.cpg/sg52_17_cif.got.tgz:32252.got - 2010.06.03 12:15:38.
