data_PCOD9412847
_publ_section_title
;
Structure prediction by ZEFSAII (Michael W. Deem and Ramdas Pophale) SiO2 
 PCOD9412847
Probable space group: P N N A
;
_chemical_formula_sum "Si O2"
_cell_formula_units_Z 40
_cell_length_a 7.895332
_cell_length_b 21.048826
_cell_length_c 9.652351
_cell_angle_alpha 90.000000
_cell_angle_beta 90.000000
_cell_angle_gamma 90.000000
_cell_volume 1604.099787
_symmetry_space_group_name_H-M "P N N A"
_symmetry_group_IT_number 52
_symmetry_cell_setting 'orthorhombic'
loop_
_space_group_symop_operation_xyz
x,y,z
1/2-x,-y,z
x,1/2-y,1/2-z
1/2-x,1/2+y,1/2-z
-x,-y,-z
1/2+x,y,-z
-x,1/2+y,1/2+z
1/2+x,1/2-y,1/2+z
loop_
_atom_site_type_symbol
_atom_site_label
_atom_site_fract_x
_atom_site_fract_y
_atom_site_fract_z
Si Si1 0.674168 0.116151 0.129298
Si Si2 0.932546 0.583370 0.658132
Si Si3 0.442410 0.522787 0.845855
Si Si4 0.615036 0.240846 0.391380
Si Si5 0.242230 0.190982 0.332377
O O1 0.876326 0.113204 0.153847
O O2 0.579105 0.091297 0.268278
O O3 0.608633 0.184585 0.070705
O O4 0.632462 0.072700 0.997074
O O5 0.947422 0.518505 0.741428
O O6 0.810399 0.629359 0.747716
O O7 0.250000 0.500000 0.839711
O O8 0.500000 0.500000 0.000000
O O9 0.721966 0.250000 0.250000
O O10 0.437247 0.210249 0.350145
O O11 0.681740 0.195706 0.510174
O O12 0.160877 0.250000 0.250000
#
# Coordination Sequence:
#
# PCOD9412847 Si02
#       5
#     8   8   8   8   8
#     4  11  24  46  71 102 141 187 235 289 356 419
#     4  11  25  43  74 102 143 185 238 291 347 429
#     4  10  25  46  70 108 138 181 235 293 354 420
#     4  11  26  41  66  99 139 183 229 282 355 405
#     4  11  25  43  65 101 139 179 239 278 349 419
#
# _framework density 24.936104
#
# number of rings (size 3 to 8) (size 9 to 14) (size 15 to 20)
#    0.000    1.200    2.000    1.800    8.400    3.200 
#    0.000    0.000    0.000    0.000    0.000    0.000 
#    0.000    0.000    0.000    0.000    0.000    0.000 
#
# Total GULP energy -223255.763439 kJ/mol
# GULP energy per Si atom -5581.394086 kJ/mol
# Density = 2.487935 g / cm^3
# Si number density = 24.936104 Si / 1000 Ang^3
#
#
#
# Elastic Constant Matrix: (Units=GPa)
#
#
# Indices 1 2 3 4 5 6 
#
# 1 130.5366 51.9838 33.1306 0.0000 0.0000 0.0000
# 2 51.9838 45.3059 14.5596 0.0000 0.0000 0.0000
# 3 33.1306 14.5596 170.2113 0.0000 0.0000 0.0000
# 4 0.0000 0.0000 0.0000 49.3987 0.0000 0.0000
# 5 0.0000 0.0000 0.0000 0.0000 26.3449 0.0000
# 6 0.0000 0.0000 0.0000 0.0000 0.0000 31.9130
#
#
#
# Elastic Compliance Matrix: (Units=1/GPa)
#
#
# Indices 1 2 3 4 5 6 
#
# 1 0.014438 -0.016106 -0.001433 0.000000 0.000000 0.000000
# 2 -0.016106 0.040662 -0.000343 0.000000 0.000000 0.000000
# 3 -0.001433 -0.000343 0.006183 0.000000 0.000000 0.000000
# 4 0.000000 0.000000 0.000000 0.020243 0.000000 0.000000
# 5 0.000000 0.000000 0.000000 0.000000 0.037958 0.000000
# 6 0.000000 0.000000 0.000000 0.000000 0.000000 0.031335
#
#
# Mechanical properties :
#
#
# Convention : Reuss Voigt Hill
#
# Bulk Modulus (GPa) = 39.18472 60.60022 49.89247
# Shear Modulus (GPa) = 25.62909 37.95663 31.79286
#
# Velocity S-wave (km/s) = 3.20939 3.90571 3.57455
# Velocity P-wave (km/s) = 5.42971 6.68539 6.09000
#
# Compressibility (1/GPa) = 0.02552015
#
# Stress axis : x y z
#
# Youngs Moduli (GPa) = 69.26079 24.59277 161.72676
#
# Poissons Ratio (x) = 0.39609 0.23169
# Poissons Ratio (y) = 1.11551 0.05552
# Poissons Ratio (z) = 0.09923 0.00844
#
# Static dielectric constant tensor:
#      x y z
#    x 1.987620 0.000000 0.000000 
#    y 0.000000 2.121520 0.000000 
#    z 0.000000 0.000000 2.179590 
# 
# From -- ./inp_files/7432.got.cif
#   From: 2010.05.17/outbox.cif.g08.bks.cpg/sg52_4_cif.got.tgz:7432.got - 2010.06.03 12:15:38.
