data_PCOD9412457
_publ_section_title
;
Structure prediction by ZEFSAII (Michael W. Deem and Ramdas Pophale) SiO2 
 PCOD9412457
Probable space group: P N N A
;
_chemical_formula_sum "Si O2"
_cell_formula_units_Z 48
_cell_length_a 5.589786
_cell_length_b 24.988785
_cell_length_c 12.894601
_cell_angle_alpha 90.000000
_cell_angle_beta 90.000000
_cell_angle_gamma 90.000000
_cell_volume 1801.143148
_symmetry_space_group_name_H-M "P N N A"
_symmetry_group_IT_number 52
_symmetry_cell_setting 'orthorhombic'
loop_
_space_group_symop_operation_xyz
x,y,z
1/2-x,-y,z
x,1/2-y,1/2-z
1/2-x,1/2+y,1/2-z
-x,-y,-z
1/2+x,y,-z
-x,1/2+y,1/2+z
1/2+x,1/2-y,1/2+z
loop_
_atom_site_type_symbol
_atom_site_label
_atom_site_fract_x
_atom_site_fract_y
_atom_site_fract_z
Si Si1 0.750000 0.000000 0.128175
Si Si2 0.921129 0.297868 0.949994
Si Si3 0.638774 0.066287 0.763379
Si Si4 0.786458 0.750000 0.750000
Si Si5 0.506037 0.392547 0.430745
Si Si6 0.605898 0.840374 0.155831
Si Si7 0.612866 0.926364 0.547885
O O1 0.970720 0.018377 0.198995
O O2 0.670469 0.052747 0.063944
O O3 0.871445 0.281621 0.832419
O O4 0.910101 0.362065 0.960164
O O5 0.183318 0.278537 0.987059
O O6 0.796219 0.084873 0.859930
O O7 0.458907 0.116773 0.754009
O O8 0.797278 0.060182 0.662832
O O9 0.962423 0.788662 0.814879
O O10 0.611856 0.345267 0.357533
O O11 0.454137 0.363163 0.539260
O O12 0.343699 0.944877 0.520481
#
# Coordination Sequence:
#
# PCOD9412457 Si02
#       7
#     4   8   8   4   8   8   8
#     4  10  26  44  76 112 154 192 254 318 410 472
#     4  10  24  44  69 103 143 198 258 310 382 460
#     4  11  23  46  72 108 150 200 252 323 391 476
#     4  12  26  46  70 110 154 200 258 332 392 464
#     4  11  24  45  74 105 158 196 257 315 396 478
#     4  11  25  44  67 108 145 203 251 317 387 476
#     4  10  23  44  72 102 146 203 259 317 382 456
#
# _framework density 26.649740999999999
#
# number of rings (size 3 to 8) (size 9 to 14) (size 15 to 20)
#    0.000    1.333    3.333    0.500    7.000    4.667 
#    0.000    0.833    0.000    0.000    0.000    0.000 
#    0.000    0.000    0.000    0.000    0.000    0.000 
#
# Total GULP energy -268528.284757 kJ/mol
# GULP energy per Si atom -5594.339266 kJ/mol
# Density = 2.658909 g / cm^3
# Si number density = 26.649741 Si / 1000 Ang^3
#
#
#
# Elastic Constant Matrix: (Units=GPa)
#
#
# Indices 1 2 3 4 5 6 
#
# 1 112.2557 24.6864 52.9051 0.0000 0.0000 0.0000
# 2 24.6864 77.1873 28.9370 0.0000 0.0000 0.0000
# 3 52.9051 28.9370 130.8164 0.0000 0.0000 0.0000
# 4 0.0000 0.0000 0.0000 36.1767 0.0000 0.0000
# 5 0.0000 0.0000 0.0000 0.0000 38.7273 0.0000
# 6 0.0000 0.0000 0.0000 0.0000 0.0000 30.6405
#
#
#
# Elastic Compliance Matrix: (Units=1/GPa)
#
#
# Indices 1 2 3 4 5 6 
#
# 1 0.011302 -0.002073 -0.004112 0.000000 0.000000 0.000000
# 2 -0.002073 0.014507 -0.002371 0.000000 0.000000 0.000000
# 3 -0.004112 -0.002371 0.009832 0.000000 0.000000 0.000000
# 4 0.000000 0.000000 0.000000 0.027642 0.000000 0.000000
# 5 0.000000 0.000000 0.000000 0.000000 0.025822 0.000000
# 6 0.000000 0.000000 0.000000 0.000000 0.000000 0.032636
#
#
# Mechanical properties :
#
#
# Convention : Reuss Voigt Hill
#
# Bulk Modulus (GPa) = 53.96875 59.25739 56.61307
# Shear Modulus (GPa) = 34.47564 35.35763 34.91664
#
# Velocity S-wave (km/s) = 3.60065 3.64641 3.62360
# Velocity P-wave (km/s) = 6.13036 6.32553 6.22871
#
# Compressibility (1/GPa) = 0.01852924
#
# Stress axis : x y z
#
# Youngs Moduli (GPa) = 88.47826 68.93100 101.71067
#
# Poissons Ratio (x) = 0.14290 0.41827
# Poissons Ratio (y) = 0.18342 0.24112
# Poissons Ratio (z) = 0.36385 0.16341
#
# Static dielectric constant tensor:
#      x y z
#    x 2.521470 0.000000 0.000000 
#    y 0.000000 2.158890 0.000000 
#    z 0.000000 0.000000 2.012110 
# 
# From -- ./inp_files/23751.got.cif
#   From: 2010.05.17/outbox.cif.g08.bks.cpg/sg52_12_cif.got.tgz:23751.got - 2010.06.03 12:15:38.
