data_PCOD9412555
_publ_section_title
;
Structure prediction by ZEFSAII (Michael W. Deem and Ramdas Pophale) SiO2 
 PCOD9412555
Probable space group: P N N A
;
_chemical_formula_sum "Si O2"
_cell_formula_units_Z 60
_cell_length_a 21.643997
_cell_length_b 12.481598
_cell_length_c 11.410139
_cell_angle_alpha 90.000000
_cell_angle_beta 90.000000
_cell_angle_gamma 90.000000
_cell_volume 3082.468102
_symmetry_space_group_name_H-M "P N N A"
_symmetry_group_IT_number 52
_symmetry_cell_setting 'orthorhombic'
loop_
_space_group_symop_operation_xyz
x,y,z
1/2-x,-y,z
x,1/2-y,1/2-z
1/2-x,1/2+y,1/2-z
-x,-y,-z
1/2+x,y,-z
-x,1/2+y,1/2+z
1/2+x,1/2-y,1/2+z
loop_
_atom_site_type_symbol
_atom_site_label
_atom_site_fract_x
_atom_site_fract_y
_atom_site_fract_z
Si Si1 0.935677 0.797775 0.917796
Si Si2 0.392130 0.136201 0.536904
Si Si3 0.896904 0.479803 0.658980
Si Si4 0.045896 0.750000 0.750000
Si Si5 0.375382 0.932201 0.416932
Si Si6 0.742924 0.658966 0.924351
Si Si7 0.978628 0.207934 0.880346
Si Si8 0.274217 0.116758 0.146444
O O1 0.904687 0.683736 0.890478
O O2 0.997624 0.809633 0.837540
O O3 0.895474 0.903031 0.897194
O O4 0.957810 0.788417 0.050258
O O5 0.412184 0.175025 0.666437
O O6 0.319495 0.144533 0.499967
O O7 0.431875 0.213068 0.450861
O O8 0.406750 0.010716 0.511628
O O9 0.882803 0.502623 0.795454
O O10 0.958495 0.416150 0.628992
O O11 0.846078 0.394082 0.617973
O O12 0.304264 0.908311 0.452497
O O13 0.756480 0.785973 0.921577
O O14 0.731510 0.634309 0.786288
O O15 0.981792 0.250000 0.750000
O O16 0.250000 0.000000 0.118384
#
# Coordination Sequence:
#
# PCOD9412555 Si02
#       8
#     8   8   8   4   8   8   8   8
#     4  11  25  40  59  93 126 171 216 262 321 375
#     4  11  22  40  62  93 123 166 214 255 321 373
#     4  12  20  37  57  92 130 163 204 256 325 389
#     4  10  24  40  62  86 124 170 218 264 294 388
#     4  12  22  37  64  94 131 163 211 270 318 385
#     4  11  21  34  58  93 126 158 206 259 321 387
#     4  11  22  40  62  87 124 168 212 263 317 387
#     4  11  19  30  54  88 126 160 187 250 327 382
#
# _framework density 19.464922000000001
#
# number of rings (size 3 to 8) (size 9 to 14) (size 15 to 20)
#    0.000    0.800    6.667    1.600    1.867    3.200 
#    0.000    0.000    1.467    1.600    0.000    0.000 
#    0.000    0.000    0.000    0.000    0.000    0.000 
#
# Total GULP energy -334543.437368 kJ/mol
# GULP energy per Si atom -5575.723956 kJ/mol
# Density = 1.942062 g / cm^3
# Si number density = 19.464922 Si / 1000 Ang^3
#
#
#
# Elastic Constant Matrix: (Units=GPa)
#
#
# Indices 1 2 3 4 5 6 
#
# 1 32.1752 -3.0273 22.1468 0.0000 0.0000 0.0000
# 2 -3.0273 115.2238 24.1514 0.0000 0.0000 0.0000
# 3 22.1468 24.1514 64.2243 0.0000 0.0000 0.0000
# 4 0.0000 0.0000 0.0000 25.9619 0.0000 0.0000
# 5 0.0000 0.0000 0.0000 0.0000 18.4462 0.0000
# 6 0.0000 0.0000 0.0000 0.0000 0.0000 8.1833
#
#
#
# Elastic Compliance Matrix: (Units=1/GPa)
#
#
# Indices 1 2 3 4 5 6 
#
# 1 0.042876 0.004587 -0.016510 0.000000 0.000000 0.000000
# 2 0.004587 0.009912 -0.005309 0.000000 0.000000 0.000000
# 3 -0.016510 -0.005309 0.023260 0.000000 0.000000 0.000000
# 4 0.000000 0.000000 0.000000 0.038518 0.000000 0.000000
# 5 0.000000 0.000000 0.000000 0.000000 0.054212 0.000000
# 6 0.000000 0.000000 0.000000 0.000000 0.000000 0.122200
#
#
# Mechanical properties :
#
#
# Convention : Reuss Voigt Hill
#
# Bulk Modulus (GPa) = 24.04792 33.12947 28.58869
# Shear Modulus (GPa) = 14.73610 21.74179 18.23895
#
# Velocity S-wave (km/s) = 2.75446 3.34574 3.06439
# Velocity P-wave (km/s) = 4.74314 5.65529 5.21918
#
# Compressibility (1/GPa) = 0.04158364
#
# Stress axis : x y z
#
# Youngs Moduli (GPa) = 23.32326 100.88662 42.99193
#
# Poissons Ratio (x) = -0.46277 0.70980
# Poissons Ratio (y) = -0.10699 0.22825
# Poissons Ratio (z) = 0.38507 0.53563
#
# Static dielectric constant tensor:
#      x y z
#    x 1.816840 0.000000 0.000000 
#    y 0.000000 1.719790 0.000000 
#    z 0.000000 0.000000 1.655250 
# 
# From -- ./inp_files/21748.got.cif
#   From: 2010.05.17/outbox.cif.g08.bks.cpg/sg52_11_cif.got.tgz:21748.got - 2010.06.03 12:15:38.
