data_PCOD9412565
_publ_section_title
;
Structure prediction by ZEFSAII (Michael W. Deem and Ramdas Pophale) SiO2 
 PCOD9412565
Probable space group: P N N A
;
_chemical_formula_sum "Si O2"
_cell_formula_units_Z 44
_cell_length_a 12.593000
_cell_length_b 21.509022
_cell_length_c 7.188705
_cell_angle_alpha 90.000000
_cell_angle_beta 90.000000
_cell_angle_gamma 90.000000
_cell_volume 1947.155022
_symmetry_space_group_name_H-M "P N N A"
_symmetry_group_IT_number 52
_symmetry_cell_setting 'orthorhombic'
loop_
_space_group_symop_operation_xyz
x,y,z
1/2-x,-y,z
x,1/2-y,1/2-z
1/2-x,1/2+y,1/2-z
-x,-y,-z
1/2+x,y,-z
-x,1/2+y,1/2+z
1/2+x,1/2-y,1/2+z
loop_
_atom_site_type_symbol
_atom_site_label
_atom_site_fract_x
_atom_site_fract_y
_atom_site_fract_z
Si Si1 0.273423 0.933020 0.750138
Si Si2 0.100794 0.155326 0.195259
Si Si3 0.057280 0.750000 0.750000
Si Si4 0.255546 0.795501 0.908111
Si Si5 0.286637 0.431283 0.163995
Si Si6 0.997705 0.934767 0.113608
O O1 0.248602 0.868357 0.852346
O O2 0.206299 0.931958 0.560090
O O3 0.401497 0.934797 0.736115
O O4 0.250000 0.000000 0.844436
O O5 0.012859 0.191723 0.309692
O O6 0.188548 0.114135 0.295222
O O7 0.169979 0.205875 0.083479
O O8 0.037829 0.114661 0.042330
O O9 0.136150 0.769922 0.916118
O O10 0.303010 0.750000 0.750000
O O11 0.250000 0.500000 0.218309
O O12 0.393341 0.419052 0.279983
O O13 0.000000 0.000000 0.000000
#
# Coordination Sequence:
#
# PCOD9412565 Si02
#       6
#     8   8   4   8   8   8
#     4  10  25  42  69  99 140 175 227 294 343 410
#     4  11  23  41  70  97 134 182 231 278 347 420
#     4  10  24  40  68  92 132 178 224 278 342 398
#     4   9  23  44  63  96 136 177 229 281 344 410
#     4  11  24  42  65 104 137 172 231 282 351 415
#     4  11  24  42  72 100 135 184 225 285 356 417
#
# _framework density 22.597072000000001
#
# number of rings (size 3 to 8) (size 9 to 14) (size 15 to 20)
#    0.545    1.091    1.818    1.091   10.182    4.364 
#    3.273    0.000    4.000    0.000    0.000    0.000 
#    0.000    0.000    0.000    0.000    0.000    0.000 
#
# Total GULP energy -245480.488629 kJ/mol
# GULP energy per Si atom -5579.102014 kJ/mol
# Density = 2.254564 g / cm^3
# Si number density = 22.597072 Si / 1000 Ang^3
#
#
#
# Elastic Constant Matrix: (Units=GPa)
#
#
# Indices 1 2 3 4 5 6 
#
# 1 145.1359 55.6508 22.9343 0.0000 0.0000 0.0000
# 2 55.6508 114.9343 33.4450 0.0000 0.0000 0.0000
# 3 22.9343 33.4450 63.4329 0.0000 0.0000 0.0000
# 4 0.0000 0.0000 0.0000 22.1244 0.0000 0.0000
# 5 0.0000 0.0000 0.0000 0.0000 39.2379 0.0000
# 6 0.0000 0.0000 0.0000 0.0000 0.0000 43.7201
#
#
#
# Elastic Compliance Matrix: (Units=1/GPa)
#
#
# Indices 1 2 3 4 5 6 
#
# 1 0.008522 -0.003815 -0.001070 0.000000 0.000000 0.000000
# 2 -0.003815 0.011985 -0.004940 0.000000 0.000000 0.000000
# 3 -0.001070 -0.004940 0.018756 0.000000 0.000000 0.000000
# 4 0.000000 0.000000 0.000000 0.045199 0.000000 0.000000
# 5 0.000000 0.000000 0.000000 0.000000 0.025486 0.000000
# 6 0.000000 0.000000 0.000000 0.000000 0.000000 0.022873
#
#
# Mechanical properties :
#
#
# Convention : Reuss Voigt Hill
#
# Bulk Modulus (GPa) = 50.98386 60.84036 55.91211
# Shear Modulus (GPa) = 31.44498 35.11468 33.27983
#
# Velocity S-wave (km/s) = 3.73440 3.94629 3.84181
# Velocity P-wave (km/s) = 6.41915 6.90990 6.66904
#
# Compressibility (1/GPa) = 0.01961405
#
# Stress axis : x y z
#
# Youngs Moduli (GPa) = 117.34393 83.43526 53.31622
#
# Poissons Ratio (x) = 0.31831 0.05703
# Poissons Ratio (y) = 0.44767 0.26338
# Poissons Ratio (z) = 0.12552 0.41217
#
# Static dielectric constant tensor:
#      x y z
#    x 1.865080 0.000000 0.000000 
#    y 0.000000 1.850890 0.000000 
#    z 0.000000 0.000000 1.835660 
# 
# From -- ./inp_files/8792.got.cif
#   From: 2010.05.17/outbox.cif.g08.bks.cpg/sg52_5_cif.got.tgz:8792.got - 2010.06.03 12:15:38.
