data_PCOD9412482
_publ_section_title
;
Structure prediction by ZEFSAII (Michael W. Deem and Ramdas Pophale) SiO2 
 PCOD9412482
Probable space group: P N N A
;
_chemical_formula_sum "Si O2"
_cell_formula_units_Z 48
_cell_length_a 18.428651
_cell_length_b 8.342754
_cell_length_c 14.269079
_cell_angle_alpha 90.000000
_cell_angle_beta 90.000000
_cell_angle_gamma 90.000000
_cell_volume 2193.809566
_symmetry_space_group_name_H-M "P N N A"
_symmetry_group_IT_number 52
_symmetry_cell_setting 'orthorhombic'
loop_
_space_group_symop_operation_xyz
x,y,z
1/2-x,-y,z
x,1/2-y,1/2-z
1/2-x,1/2+y,1/2-z
-x,-y,-z
1/2+x,y,-z
-x,1/2+y,1/2+z
1/2+x,1/2-y,1/2+z
loop_
_atom_site_type_symbol
_atom_site_label
_atom_site_fract_x
_atom_site_fract_y
_atom_site_fract_z
Si Si1 0.071071 0.878389 0.663412
Si Si2 0.175825 0.070086 0.772602
Si Si3 0.835097 0.529939 0.008918
Si Si4 0.053799 0.595583 0.375176
Si Si5 0.109374 0.104545 0.955912
Si Si6 0.423938 0.471341 0.161085
O O1 0.076686 0.750000 0.750000
O O2 0.102475 0.029348 0.718882
O O3 0.121523 0.893288 0.570408
O O4 0.989547 0.910086 0.630668
O O5 0.187240 0.250000 0.750000
O O6 0.164109 0.028610 0.880517
O O7 0.250000 0.000000 0.735234
O O8 0.750000 0.500000 0.023489
O O9 0.865269 0.709397 0.034473
O O10 0.854185 0.517298 0.898855
O O11 0.102225 0.497753 0.449627
O O12 0.072159 0.522994 0.273314
O O13 0.064261 0.786091 0.366553
O O14 0.970187 0.584104 0.408619
#
# Coordination Sequence:
#
# PCOD9412482 Si02
#       6
#     8   8   8   8   8   8
#     4  12  26  41  72 105 140 188 246 300 372 441
#     4  12  24  42  64 101 144 184 227 297 374 449
#     4  12  28  46  67 107 153 194 240 307 385 463
#     4  10  23  45  72 102 135 185 250 313 363 426
#     4  11  24  42  71 102 143 187 242 306 374 448
#     4  11  24  46  72 103 138 183 253 311 360 442
#
# _framework density 21.879746999999998
#
# number of rings (size 3 to 8) (size 9 to 14) (size 15 to 20)
#    0.000    0.667    5.000    1.500    7.000    0.000 
#    0.000    4.167    0.000    0.000    0.000    0.000 
#    0.000    0.000    0.000    0.000    0.000    0.000 
#
# Total GULP energy -267543.547833 kJ/mol
# GULP energy per Si atom -5573.823913 kJ/mol
# Density = 2.182995 g / cm^3
# Si number density = 21.879747 Si / 1000 Ang^3
#
#
#
# Elastic Constant Matrix: (Units=GPa)
#
#
# Indices 1 2 3 4 5 6 
#
# 1 96.8144 15.3087 56.2507 0.0000 0.0000 0.0000
# 2 15.3087 55.4808 20.9791 0.0000 0.0000 0.0000
# 3 56.2507 20.9791 164.5065 0.0000 0.0000 0.0000
# 4 0.0000 0.0000 0.0000 34.6210 0.0000 0.0000
# 5 0.0000 0.0000 0.0000 0.0000 -455.4229 0.0000
# 6 0.0000 0.0000 0.0000 0.0000 0.0000 -11.3213
#
#
#
# Elastic Compliance Matrix: (Units=1/GPa)
#
#
# Indices 1 2 3 4 5 6 
#
# 1 0.013102 -0.002018 -0.004222 0.000000 0.000000 0.000000
# 2 -0.002018 0.019248 -0.001765 0.000000 0.000000 0.000000
# 3 -0.004222 -0.001765 0.007748 0.000000 0.000000 0.000000
# 4 0.000000 0.000000 0.000000 0.028884 0.000000 0.000000
# 5 0.000000 0.000000 0.000000 0.000000 -0.002196 0.000000
# 6 0.000000 0.000000 0.000000 0.000000 0.000000 -0.088329
#
#
# Mechanical properties :
#
#
# Convention : Reuss Voigt Hill
#
# Bulk Modulus (GPa) = 41.51669 55.76432 48.64051
# Shear Modulus (GPa) = 2002.97273 -71.47374 965.74950
#
# Velocity S-wave (km/s) = 30.28916 -5.72167 21.03207
# Velocity P-wave (km/s) = 35.24572 4.25535 24.74018
#
# Compressibility (1/GPa) = 0.02408670
#
# Stress axis : x y z
#
# Youngs Moduli (GPa) = 76.32696 51.95236 129.07165
#
# Poissons Ratio (x) = 0.10486 0.54500
# Poissons Ratio (y) = 0.15406 0.22775
# Poissons Ratio (z) = 0.32229 0.09167
#
# Static dielectric constant tensor:
#      x y z
#    x 1.762990 0.000000 0.000000 
#    y 0.000000 1.821890 0.000000 
#    z 0.000000 0.000000 1.884390 
# 
# From -- ./inp_files/28081.got.cif
#   From: 2010.05.17/outbox.cif.g08.bks.cpg/sg52_15_cif.got.tgz:28081.got - 2010.06.03 12:15:38.
