data_PCOD9412982
_publ_section_title
;
Structure prediction by ZEFSAII (Michael W. Deem and Ramdas Pophale) SiO2 
 PCOD9412982
Probable space group: P N N A
;
_chemical_formula_sum "Si O2"
_cell_formula_units_Z 64
_cell_length_a 11.140180
_cell_length_b 18.060888
_cell_length_c 17.488186
_cell_angle_alpha 90.000000
_cell_angle_beta 90.000000
_cell_angle_gamma 90.000000
_cell_volume 3518.650012
_symmetry_space_group_name_H-M "P N N A"
_symmetry_group_IT_number 52
_symmetry_cell_setting 'orthorhombic'
loop_
_space_group_symop_operation_xyz
x,y,z
1/2-x,-y,z
x,1/2-y,1/2-z
1/2-x,1/2+y,1/2-z
-x,-y,-z
1/2+x,y,-z
-x,1/2+y,1/2+z
1/2+x,1/2-y,1/2+z
loop_
_atom_site_type_symbol
_atom_site_label
_atom_site_fract_x
_atom_site_fract_y
_atom_site_fract_z
Si Si1 0.373676 0.896430 0.654608
Si Si2 0.073293 0.284393 0.335160
Si Si3 0.260180 0.201985 0.443930
Si Si4 0.107994 0.676866 0.200639
Si Si5 0.816009 0.574143 0.728331
Si Si6 0.852458 0.943926 0.509817
Si Si7 0.512700 0.956551 0.356741
Si Si8 0.350832 0.194854 0.615543
O O1 0.482427 0.864291 0.702477
O O2 0.397183 0.897655 0.562871
O O3 0.260114 0.841600 0.662927
O O4 0.384897 0.985426 0.668257
O O5 0.099121 0.250000 0.250000
O O6 0.156078 0.249677 0.402369
O O7 0.112581 0.370040 0.327933
O O8 0.935251 0.260487 0.352103
O O9 0.370228 0.203571 0.385880
O O10 0.214206 0.117898 0.440874
O O11 0.301495 0.215884 0.531118
O O12 0.108436 0.750000 0.250000
O O13 0.212631 0.622985 0.230808
O O14 0.750000 0.500000 0.697977
O O15 0.915562 0.551186 0.790519
O O16 0.942398 0.983672 0.567613
O O17 0.750000 0.000000 0.481753
O O18 0.562874 0.877469 0.384144
#
# Coordination Sequence:
#
# PCOD9412982 Si02
#       8
#     8   8   8   8   8   8   8   8
#     4  11  24  33  49  84 128 168 197 238 308 374
#     4  12  21  43  65  88 123 170 217 262 310 379
#     4  11  20  35  58  87 119 161 212 254 297 363
#     4  12  21  37  57  85 121 154 209 268 304 361
#     4  12  22  39  67  92 114 163 221 272 318 366
#     4  11  19  32  52  84 125 166 199 234 293 378
#     4  12  19  36  56  86 131 168 204 246 300 379
#     4  11  24  37  59  88 130 172 203 247 317 390
#
# _framework density 18.188794000000001
#
# number of rings (size 3 to 8) (size 9 to 14) (size 15 to 20)
#    0.000    0.500    7.500    4.125    1.750    0.500 
#    0.000    0.000    0.000    0.750    0.000    0.000 
#    0.000    0.000    0.000    0.000    0.000    0.000 
#
# Total GULP energy -356475.377415 kJ/mol
# GULP energy per Si atom -5569.927772 kJ/mol
# Density = 1.814740 g / cm^3
# Si number density = 18.188794 Si / 1000 Ang^3
#
#
#
# Elastic Constant Matrix: (Units=GPa)
#
#
# Indices 1 2 3 4 5 6 
#
# 1 111.7977 48.7835 29.3374 0.0000 0.0000 0.0000
# 2 48.7835 104.7199 40.6818 0.0000 0.0000 0.0000
# 3 29.3374 40.6818 47.3649 0.0000 0.0000 0.0000
# 4 0.0000 0.0000 0.0000 4.1786 0.0000 0.0000
# 5 0.0000 0.0000 0.0000 0.0000 38.0447 0.0000
# 6 0.0000 0.0000 0.0000 0.0000 0.0000 42.1796
#
#
#
# Elastic Compliance Matrix: (Units=1/GPa)
#
#
# Indices 1 2 3 4 5 6 
#
# 1 0.011675 -0.003946 -0.003842 0.000000 0.000000 0.000000
# 2 -0.003946 0.015665 -0.011010 0.000000 0.000000 0.000000
# 3 -0.003842 -0.011010 0.032949 0.000000 0.000000 0.000000
# 4 0.000000 0.000000 0.000000 0.239312 0.000000 0.000000
# 5 0.000000 0.000000 0.000000 0.000000 0.026285 0.000000
# 6 0.000000 0.000000 0.000000 0.000000 0.000000 0.023708
#
#
# Mechanical properties :
#
#
# Convention : Reuss Voigt Hill
#
# Bulk Modulus (GPa) = 44.06847 55.72088 49.89467
# Shear Modulus (GPa) = 12.66608 26.55258 19.60933
#
# Velocity S-wave (km/s) = 2.64174 3.82492 3.28700
# Velocity P-wave (km/s) = 5.79534 7.08575 6.47279
#
# Compressibility (1/GPa) = 0.02269196
#
# Stress axis : x y z
#
# Youngs Moduli (GPa) = 85.65419 63.83684 30.34974
#
# Poissons Ratio (x) = 0.25191 0.11660
# Poissons Ratio (y) = 0.33801 0.33416
# Poissons Ratio (z) = 0.32908 0.70287
#
# Static dielectric constant tensor:
#      x y z
#    x 1.847870 0.000000 0.000000 
#    y 0.000000 1.657610 0.000000 
#    z 0.000000 0.000000 1.622170 
# 
# From -- ./inp_files/26346.got.cif
#   From: 2010.05.17/outbox.cif.g08.bks.cpg/sg52_14_cif.got.tgz:26346.got - 2010.06.03 12:15:38.
