data_PCOD9412743
_publ_section_title
;
Structure prediction by ZEFSAII (Michael W. Deem and Ramdas Pophale) SiO2 
 PCOD9412743
Probable space group: P N N A
;
_chemical_formula_sum "Si O2"
_cell_formula_units_Z 40
_cell_length_a 8.577858
_cell_length_b 23.403132
_cell_length_c 9.308392
_cell_angle_alpha 90.000000
_cell_angle_beta 90.000000
_cell_angle_gamma 90.000000
_cell_volume 1868.647994
_symmetry_space_group_name_H-M "P N N A"
_symmetry_group_IT_number 52
_symmetry_cell_setting 'orthorhombic'
loop_
_space_group_symop_operation_xyz
x,y,z
1/2-x,-y,z
x,1/2-y,1/2-z
1/2-x,1/2+y,1/2-z
-x,-y,-z
1/2+x,y,-z
-x,1/2+y,1/2+z
1/2+x,1/2-y,1/2+z
loop_
_atom_site_type_symbol
_atom_site_label
_atom_site_fract_x
_atom_site_fract_y
_atom_site_fract_z
Si Si1 0.108024 0.190485 0.522707
Si Si2 0.256901 0.250000 0.250000
Si Si3 0.971654 0.423688 0.119028
Si Si4 0.250000 0.000000 0.417385
Si Si5 0.718516 0.845132 0.199523
Si Si6 0.965755 0.305772 0.567222
O O1 0.162467 0.224177 0.383285
O O2 0.238844 0.182725 0.645922
O O3 0.994574 0.237797 0.590667
O O4 0.036128 0.130504 0.473518
O O5 0.327332 0.309595 0.318758
O O6 0.866760 0.402806 0.251943
O O7 0.122745 0.460845 0.162547
O O8 0.856758 0.459503 0.017041
O O9 0.883880 0.841599 0.115585
O O10 0.597434 0.815812 0.091577
#
# Coordination Sequence:
#
# PCOD9412743 Si02
#       6
#     8   4   8   4   8   8
#     4  12  24  41  69 104 145 190 223 289 354 437
#     4  12  24  38  64 108 148 188 228 278 340 456
#     4  11  24  44  74 105 135 178 241 311 364 411
#     4  10  24  46  72 114 126 174 256 326 358 414
#     4  12  26  45  66 102 147 193 230 283 350 435
#     4  12  26  42  61 104 154 188 235 263 344 456
#
# _framework density 21.405849
#
# number of rings (size 3 to 8) (size 9 to 14) (size 15 to 20)
#    0.000    0.400    6.000    2.400    2.800    0.000 
#    0.000    0.000    0.000    3.600    0.000    0.000 
#    0.000    0.000    0.000    0.000    0.000    0.000 
#
# Total GULP energy -223015.942887 kJ/mol
# GULP energy per Si atom -5575.398572 kJ/mol
# Density = 2.135713 g / cm^3
# Si number density = 21.405849 Si / 1000 Ang^3
#
#
#
# Elastic Constant Matrix: (Units=GPa)
#
#
# Indices 1 2 3 4 5 6 
#
# 1 94.8722 35.3264 48.5666 0.0000 0.0000 0.0000
# 2 35.3264 66.0109 26.5534 0.0000 0.0000 0.0000
# 3 48.5666 26.5534 110.6249 0.0000 0.0000 0.0000
# 4 0.0000 0.0000 0.0000 14.6912 0.0000 0.0000
# 5 0.0000 0.0000 0.0000 0.0000 40.3498 0.0000
# 6 0.0000 0.0000 0.0000 0.0000 0.0000 44.6485
#
#
#
# Elastic Compliance Matrix: (Units=1/GPa)
#
#
# Indices 1 2 3 4 5 6 
#
# 1 0.015587 -0.006186 -0.005358 0.000000 0.000000 0.000000
# 2 -0.006186 0.019223 -0.001898 0.000000 0.000000 0.000000
# 3 -0.005358 -0.001898 0.011848 0.000000 0.000000 0.000000
# 4 0.000000 0.000000 0.000000 0.068068 0.000000 0.000000
# 5 0.000000 0.000000 0.000000 0.000000 0.024783 0.000000
# 6 0.000000 0.000000 0.000000 0.000000 0.000000 0.022397
#
#
# Mechanical properties :
#
#
# Convention : Reuss Voigt Hill
#
# Bulk Modulus (GPa) = 50.57532 54.71121 52.64326
# Shear Modulus (GPa) = 25.59092 30.67534 28.13313
#
# Velocity S-wave (km/s) = 3.46137 3.78965 3.62922
# Velocity P-wave (km/s) = 6.29706 6.69052 6.49677
#
# Compressibility (1/GPa) = 0.01977249
#
# Stress axis : x y z
#
# Youngs Moduli (GPa) = 64.15671 52.02048 84.40578
#
# Poissons Ratio (x) = 0.32180 0.45225
# Poissons Ratio (y) = 0.39688 0.16023
# Poissons Ratio (z) = 0.34376 0.09875
#
# Static dielectric constant tensor:
#      x y z
#    x 1.923140 0.000000 0.000000 
#    y 0.000000 1.843610 0.000000 
#    z 0.000000 0.000000 1.831650 
# 
# From -- ./inp_files/7466.got.cif
#   From: 2010.05.17/outbox.cif.g08.bks.cpg/sg52_4_cif.got.tgz:7466.got - 2010.06.03 12:15:38.
