data_PCOD9412562
_publ_section_title
;
Structure prediction by ZEFSAII (Michael W. Deem and Ramdas Pophale) SiO2 
 PCOD9412562
Probable space group: P N N A
;
_chemical_formula_sum "Si O2"
_cell_formula_units_Z 40
_cell_length_a 9.696290
_cell_length_b 19.139210
_cell_length_c 10.288973
_cell_angle_alpha 90.000000
_cell_angle_beta 90.000000
_cell_angle_gamma 90.000000
_cell_volume 1909.420721
_symmetry_space_group_name_H-M "P N N A"
_symmetry_group_IT_number 52
_symmetry_cell_setting 'orthorhombic'
loop_
_space_group_symop_operation_xyz
x,y,z
1/2-x,-y,z
x,1/2-y,1/2-z
1/2-x,1/2+y,1/2-z
-x,-y,-z
1/2+x,y,-z
-x,1/2+y,1/2+z
1/2+x,1/2-y,1/2+z
loop_
_atom_site_type_symbol
_atom_site_label
_atom_site_fract_x
_atom_site_fract_y
_atom_site_fract_z
Si Si1 0.473234 0.250603 0.507109
Si Si2 0.250000 0.000000 0.025170
Si Si3 0.708303 0.306238 0.148936
Si Si4 0.667444 0.563369 0.267238
Si Si5 0.895761 0.873993 0.820800
Si Si6 0.294091 0.250000 0.250000
O O1 0.597756 0.198984 0.466352
O O2 0.359325 0.217221 0.601234
O O3 0.533698 0.320872 0.573395
O O4 0.385238 0.263254 0.377110
O O5 0.184134 0.062091 0.109611
O O6 0.346169 0.039615 0.918564
O O7 0.656212 0.250000 0.250000
O O8 0.729408 0.374198 0.235420
O O9 0.750000 0.500000 0.201094
O O10 0.515015 0.589516 0.234971
O O11 0.798850 0.820097 0.742742
#
# Coordination Sequence:
#
# PCOD9412562 Si02
#       6
#     8   4   8   8   8   4
#     4  12  25  40  73 103 139 184 239 290 352 415
#     4  10  24  40  70  96 140 192 226 296 360 414
#     4  12  23  45  70 101 141 185 235 293 351 421
#     4  10  24  40  67  96 135 183 230 286 355 415
#     4  12  22  45  65 107 144 180 238 295 352 417
#     4  12  26  38  72 108 138 184 236 292 356 412
#
# _framework density 20.948761999999999
#
# number of rings (size 3 to 8) (size 9 to 14) (size 15 to 20)
#    0.600    0.000    5.000    4.200    0.000    1.600 
#    0.000    1.000    2.200    0.000    0.000    0.000 
#    0.000    0.000    0.000    0.000    0.000    0.000 
#
# Total GULP energy -222838.697668 kJ/mol
# GULP energy per Si atom -5570.967442 kJ/mol
# Density = 2.090108 g / cm^3
# Si number density = 20.948762 Si / 1000 Ang^3
#
#
#
# Elastic Constant Matrix: (Units=GPa)
#
#
# Indices 1 2 3 4 5 6 
#
# 1 96.0686 36.6616 15.7914 0.0000 0.0000 0.0000
# 2 36.6616 116.9480 12.5593 0.0000 0.0000 0.0000
# 3 15.7914 12.5593 65.7358 0.0000 0.0000 0.0000
# 4 0.0000 0.0000 0.0000 37.9026 0.0000 0.0000
# 5 0.0000 0.0000 0.0000 0.0000 43.1172 0.0000
# 6 0.0000 0.0000 0.0000 0.0000 0.0000 26.8795
#
#
#
# Elastic Compliance Matrix: (Units=1/GPa)
#
#
# Indices 1 2 3 4 5 6 
#
# 1 0.012137 -0.003565 -0.002235 0.000000 0.000000 0.000000
# 2 -0.003565 0.009777 -0.001012 0.000000 0.000000 0.000000
# 3 -0.002235 -0.001012 0.015942 0.000000 0.000000 0.000000
# 4 0.000000 0.000000 0.000000 0.026383 0.000000 0.000000
# 5 0.000000 0.000000 0.000000 0.000000 0.023193 0.000000
# 6 0.000000 0.000000 0.000000 0.000000 0.000000 0.037203
#
#
# Mechanical properties :
#
#
# Convention : Reuss Voigt Hill
#
# Bulk Modulus (GPa) = 41.26345 45.41968 43.34156
# Shear Modulus (GPa) = 34.16806 35.82919 34.99862
#
# Velocity S-wave (km/s) = 4.04298 4.14009 4.09183
# Velocity P-wave (km/s) = 6.44472 6.67699 6.56188
#
# Compressibility (1/GPa) = 0.02423452
#
# Stress axis : x y z
#
# Youngs Moduli (GPa) = 82.39327 102.28129 62.72552
#
# Poissons Ratio (x) = 0.36461 0.14016
# Poissons Ratio (y) = 0.29371 0.06345
# Poissons Ratio (z) = 0.18411 0.10347
#
# Static dielectric constant tensor:
#      x y z
#    x 1.820680 0.000000 0.000000 
#    y 0.000000 1.725000 0.000000 
#    z 0.000000 0.000000 2.355950 
# 
# From -- ./inp_files/16831.got.cif
#   From: 2010.05.17/outbox.cif.g08.bks.cpg/sg52_9_cif.got.tgz:16831.got - 2010.06.03 12:15:38.
