data_PCOD9412071
_publ_section_title
;
Structure prediction by ZEFSAII (Michael W. Deem and Ramdas Pophale) SiO2 
 PCOD9412071
Probable space group: P N N A
;
_chemical_formula_sum "Si O2"
_cell_formula_units_Z 40
_cell_length_a 14.595188
_cell_length_b 5.681971
_cell_length_c 21.664857
_cell_angle_alpha 90.000000
_cell_angle_beta 90.000000
_cell_angle_gamma 90.000000
_cell_volume 1796.654349
_symmetry_space_group_name_H-M "P N N A"
_symmetry_group_IT_number 52
_symmetry_cell_setting 'orthorhombic'
loop_
_space_group_symop_operation_xyz
x,y,z
1/2-x,-y,z
x,1/2-y,1/2-z
1/2-x,1/2+y,1/2-z
-x,-y,-z
1/2+x,y,-z
-x,1/2+y,1/2+z
1/2+x,1/2-y,1/2+z
loop_
_atom_site_type_symbol
_atom_site_label
_atom_site_fract_x
_atom_site_fract_y
_atom_site_fract_z
Si Si1 0.859092 0.499029 0.722103
Si Si2 0.887489 0.750000 0.250000
Si Si3 0.605184 0.903866 0.362153
Si Si4 0.250000 0.500000 0.659385
Si Si5 0.438712 0.914648 0.091718
Si Si6 0.433700 0.697229 0.971798
O O1 0.750000 0.500000 0.732962
O O2 0.896098 0.250000 0.750000
O O3 0.879919 0.499533 0.649276
O O4 0.892762 0.750000 0.750000
O O5 0.918767 0.539392 0.202288
O O6 0.826271 0.611412 0.297668
O O7 0.689058 0.717565 0.366527
O O8 0.512080 0.769103 0.380782
O O9 0.624606 0.089965 0.416832
O O10 0.500624 0.117369 0.061995
O O11 0.386201 0.807776 0.032293
O O12 0.500000 0.500000 0.000000
#
# Coordination Sequence:
#
# PCOD9412071 Si02
#       6
#     8   4   8   4   8   8
#     4  10  24  45  72 103 137 173 220 289 357 414
#     4  12  22  40  60  88 138 188 222 276 332 400
#     4  11  23  39  65  95 133 184 230 275 341 399
#     4  12  22  40  58  88 142 182 218 282 330 396
#     4  10  22  43  71  97 133 171 227 283 344 408
#     4   9  21  41  68  93 129 175 222 282 330 410
#
# _framework density 22.263604000000001
#
# number of rings (size 3 to 8) (size 9 to 14) (size 15 to 20)
#    0.000    1.600    2.000    1.200    5.600    3.200 
#    1.800    0.000   52.800    0.000    0.000    0.000 
#    0.000    0.000    0.000    0.000    0.000    0.000 
#
# Total GULP energy -222713.345012 kJ/mol
# GULP energy per Si atom -5567.833625 kJ/mol
# Density = 2.221293 g / cm^3
# Si number density = 22.263604 Si / 1000 Ang^3
#
#
#
# Elastic Constant Matrix: (Units=GPa)
#
#
# Indices 1 2 3 4 5 6 
#
# 1 25.1105 28.5427 18.9875 0.0000 0.0000 0.0000
# 2 28.5427 135.2942 65.9090 0.0000 0.0000 0.0000
# 3 18.9875 65.9090 123.1294 0.0000 0.0000 0.0000
# 4 0.0000 0.0000 0.0000 39.9156 0.0000 0.0000
# 5 0.0000 0.0000 0.0000 0.0000 -79.9571 0.0000
# 6 0.0000 0.0000 0.0000 0.0000 0.0000 22.9866
#
#
#
# Elastic Compliance Matrix: (Units=1/GPa)
#
#
# Indices 1 2 3 4 5 6 
#
# 1 0.053177 -0.009772 -0.002970 0.000000 0.000000 0.000000
# 2 -0.009772 0.011794 -0.004806 0.000000 0.000000 0.000000
# 3 -0.002970 -0.004806 0.011152 0.000000 0.000000 0.000000
# 4 0.000000 0.000000 0.000000 0.025053 0.000000 0.000000
# 5 0.000000 0.000000 0.000000 0.000000 -0.012507 0.000000
# 6 0.000000 0.000000 0.000000 0.000000 0.000000 0.043504
#
#
# Mechanical properties :
#
#
# Convention : Reuss Voigt Hill
#
# Bulk Modulus (GPa) = 24.37370 56.71248 40.54309
# Shear Modulus (GPa) = 27.63268 7.92869 17.78069
#
# Velocity S-wave (km/s) = 3.52683 1.88918 2.82909
# Velocity P-wave (km/s) = 5.24941 5.50338 5.37789
#
# Compressibility (1/GPa) = 0.04102783
#
# Stress axis : x y z
#
# Youngs Moduli (GPa) = 18.80508 84.78652 89.66816
#
# Poissons Ratio (x) = 0.82854 0.26627
# Poissons Ratio (y) = 0.18376 0.43098
# Poissons Ratio (z) = 0.05584 0.40752
#
# Static dielectric constant tensor:
#      x y z
#    x 1.836610 0.000000 0.000000 
#    y 0.000000 1.184880 0.000000 
#    z 0.000000 0.000000 1.894510 
# 
# From -- ./inp_files/33496.got.cif
#   From: 2010.05.17/outbox.cif.g08.bks.cpg/sg52_17_cif.got.tgz:33496.got - 2010.06.03 12:15:38.
