data_PCOD9412877
_publ_section_title
;
Structure prediction by ZEFSAII (Michael W. Deem and Ramdas Pophale) SiO2 
 PCOD9412877
Probable space group: P N N A
;
_chemical_formula_sum "Si O2"
_cell_formula_units_Z 56
_cell_length_a 14.378693
_cell_length_b 28.623261
_cell_length_c 5.936194
_cell_angle_alpha 90.000000
_cell_angle_beta 90.000000
_cell_angle_gamma 90.000000
_cell_volume 2443.130174
_symmetry_space_group_name_H-M "P N N A"
_symmetry_group_IT_number 52
_symmetry_cell_setting 'orthorhombic'
loop_
_space_group_symop_operation_xyz
x,y,z
1/2-x,-y,z
x,1/2-y,1/2-z
1/2-x,1/2+y,1/2-z
-x,-y,-z
1/2+x,y,-z
-x,1/2+y,1/2+z
1/2+x,1/2-y,1/2+z
loop_
_atom_site_type_symbol
_atom_site_label
_atom_site_fract_x
_atom_site_fract_y
_atom_site_fract_z
Si Si1 0.856215 0.075238 0.131472
Si Si2 0.337470 0.750000 0.250000
Si Si3 0.698846 0.419837 0.981515
Si Si4 0.251805 0.324745 0.971721
Si Si5 0.750000 0.000000 0.865740
Si Si6 0.592519 0.301596 0.359262
Si Si7 0.996168 0.444640 0.005897
Si Si8 0.087881 0.636620 0.249039
O O1 0.776699 0.078623 0.324480
O O2 0.956599 0.070007 0.249813
O O3 0.857774 0.121975 0.978042
O O4 0.827634 0.026548 0.011794
O O5 0.271242 0.774794 0.427255
O O6 0.397149 0.711170 0.378470
O O7 0.703946 0.367379 0.891759
O O8 0.712693 0.459159 0.794816
O O9 0.596639 0.427815 0.068552
O O10 0.189850 0.322389 0.741936
O O11 0.357861 0.336437 0.046363
O O12 0.575849 0.250000 0.250000
O O13 0.505980 0.335201 0.304585
O O14 0.929984 0.416029 0.840128
O O15 0.000000 0.500000 0.000000
#
# Coordination Sequence:
#
# PCOD9412877 Si02
#       8
#     8   4   8   8   4   8   8   8
#     4  12  26  44  70 105 141 196 250 304 371 443
#     4  10  26  48  74 110 140 192 240 304 388 444
#     4  12  25  45  70  98 152 189 239 314 365 445
#     4  11  24  47  72 104 148 190 243 304 378 451
#     4  12  24  46  68 102 150 194 244 302 366 448
#     4  10  25  50  77 107 151 187 242 309 375 447
#     4  12  26  45  68 104 147 194 251 307 372 451
#     4  12  26  44  75 112 142 195 254 299 380 458
#
# _framework density 22.921417000000002
#
# number of rings (size 3 to 8) (size 9 to 14) (size 15 to 20)
#    0.000    0.571    4.286    3.000    5.000    3.429 
#    0.000    0.000    1.571    0.000    0.000    0.000 
#    0.000    0.000    0.000    0.000    0.000    0.000 
#
# Total GULP energy -312138.250863 kJ/mol
# GULP energy per Si atom -5573.897337 kJ/mol
# Density = 2.286925 g / cm^3
# Si number density = 22.921417 Si / 1000 Ang^3
#
#
#
# Elastic Constant Matrix: (Units=GPa)
#
#
# Indices 1 2 3 4 5 6 
#
# 1 113.2791 34.8419 51.8627 0.0000 0.0000 0.0000
# 2 34.8419 108.6691 28.0375 0.0000 0.0000 0.0000
# 3 51.8627 28.0375 84.4195 0.0000 0.0000 0.0000
# 4 0.0000 0.0000 0.0000 45.0842 0.0000 0.0000
# 5 0.0000 0.0000 0.0000 0.0000 20.5796 0.0000
# 6 0.0000 0.0000 0.0000 0.0000 0.0000 39.1511
#
#
#
# Elastic Compliance Matrix: (Units=1/GPa)
#
#
# Indices 1 2 3 4 5 6 
#
# 1 0.012772 -0.002265 -0.007095 0.000000 0.000000 0.000000
# 2 -0.002265 0.010466 -0.002085 0.000000 0.000000 0.000000
# 3 -0.007095 -0.002085 0.016896 0.000000 0.000000 0.000000
# 4 0.000000 0.000000 0.000000 0.022181 0.000000 0.000000
# 5 0.000000 0.000000 0.000000 0.000000 0.048592 0.000000
# 6 0.000000 0.000000 0.000000 0.000000 0.000000 0.025542
#
#
# Mechanical properties :
#
#
# Convention : Reuss Voigt Hill
#
# Bulk Modulus (GPa) = 57.98043 59.53911 58.75977
# Shear Modulus (GPa) = 30.28712 33.73802 32.01257
#
# Velocity S-wave (km/s) = 3.63898 3.84070 3.74120
# Velocity P-wave (km/s) = 6.55793 6.76015 6.65981
#
# Compressibility (1/GPa) = 0.01724720
#
# Stress axis : x y z
#
# Youngs Moduli (GPa) = 78.29370 95.54528 59.18390
#
# Poissons Ratio (x) = 0.21638 0.41988
# Poissons Ratio (y) = 0.17731 0.12338
# Poissons Ratio (z) = 0.55546 0.19919
#
# Static dielectric constant tensor:
#      x y z
#    x 1.900450 0.000000 0.000000 
#    y 0.000000 1.959360 0.000000 
#    z 0.000000 0.000000 2.011190 
# 
# From -- ./inp_files/2684.got.cif
#   From: 2010.05.17/outbox.cif.g08.bks.cpg/sg52_2_cif.got.tgz:2684.got - 2010.06.03 12:15:38.
