data_PCOD9412636
_publ_section_title
;
Structure prediction by ZEFSAII (Michael W. Deem and Ramdas Pophale) SiO2 
 PCOD9412636
Probable space group: P N N A
;
_chemical_formula_sum "Si O2"
_cell_formula_units_Z 48
_cell_length_a 14.707253
_cell_length_b 25.428478
_cell_length_c 4.859425
_cell_angle_alpha 90.000000
_cell_angle_beta 90.000000
_cell_angle_gamma 90.000000
_cell_volume 1817.342628
_symmetry_space_group_name_H-M "P N N A"
_symmetry_group_IT_number 52
_symmetry_cell_setting 'orthorhombic'
loop_
_space_group_symop_operation_xyz
x,y,z
1/2-x,-y,z
x,1/2-y,1/2-z
1/2-x,1/2+y,1/2-z
-x,-y,-z
1/2+x,y,-z
-x,1/2+y,1/2+z
1/2+x,1/2-y,1/2+z
loop_
_atom_site_type_symbol
_atom_site_label
_atom_site_fract_x
_atom_site_fract_y
_atom_site_fract_z
Si Si1 0.067679 0.301029 0.383585
Si Si2 0.221879 0.250000 0.750000
Si Si3 0.283341 0.138437 0.705203
Si Si4 0.817779 0.602792 0.706736
Si Si5 0.048843 0.613612 0.395869
Si Si6 0.250000 0.000000 0.474748
Si Si7 0.439680 0.454990 0.864367
O O1 0.020059 0.250000 0.250000
O O2 0.154513 0.273099 0.520787
O O3 0.106852 0.352123 0.215774
O O4 0.005296 0.331856 0.599772
O O5 0.281490 0.200717 0.676158
O O6 0.266218 0.121690 0.394893
O O7 0.366371 0.124041 0.901016
O O8 0.199570 0.113420 0.883965
O O9 0.807529 0.541445 0.786331
O O10 0.057274 0.591154 0.093304
O O11 0.011646 0.564676 0.583310
O O12 0.333076 0.026046 0.650712
O O13 0.500000 0.500000 0.000000
#
# Coordination Sequence:
#
# PCOD9412636 Si02
#       7
#     8   4   8   8   8   4   8
#     4  11  25  45  73 106 149 202 247 315 389 464
#     4  10  24  42  74 102 142 186 254 292 386 444
#     4  11  22  45  66 104 139 184 240 312 352 459
#     4  11  24  43  71 102 143 183 254 293 378 454
#     4  12  26  47  69 109 149 186 248 313 382 450
#     4  12  24  48  78 106 148 208 244 318 394 446
#     4  12  28  48  73 108 148 194 253 315 378 462
#
# _framework density 26.412188
#
# number of rings (size 3 to 8) (size 9 to 14) (size 15 to 20)
#    0.000    0.667    5.000    1.500    3.500    5.333 
#    0.000    0.000    0.000    0.000    0.000    0.000 
#    0.000    0.000    0.000    0.000    0.000    0.000 
#
# Total GULP energy -267679.999490 kJ/mol
# GULP energy per Si atom -5576.666656 kJ/mol
# Density = 2.635207 g / cm^3
# Si number density = 26.412188 Si / 1000 Ang^3
#
#
#
# Elastic Constant Matrix: (Units=GPa)
#
#
# Indices 1 2 3 4 5 6 
#
# 1 57.3216 24.5737 3.5593 0.0000 0.0000 0.0000
# 2 24.5737 145.5737 24.3238 0.0000 0.0000 0.0000
# 3 3.5593 24.3238 129.4015 0.0000 0.0000 0.0000
# 4 0.0000 0.0000 0.0000 39.2348 0.0000 0.0000
# 5 0.0000 0.0000 0.0000 0.0000 21.9891 0.0000
# 6 0.0000 0.0000 0.0000 0.0000 0.0000 -12.7439
#
#
#
# Elastic Compliance Matrix: (Units=1/GPa)
#
#
# Indices 1 2 3 4 5 6 
#
# 1 0.018807 -0.003188 0.000082 0.000000 0.000000 0.000000
# 2 -0.003188 0.007633 -0.001347 0.000000 0.000000 0.000000
# 3 0.000082 -0.001347 0.007979 0.000000 0.000000 0.000000
# 4 0.000000 0.000000 0.000000 0.025488 0.000000 0.000000
# 5 0.000000 0.000000 0.000000 0.000000 0.045477 0.000000
# 6 0.000000 0.000000 0.000000 0.000000 0.000000 -0.078469
#
#
# Mechanical properties :
#
#
# Convention : Reuss Voigt Hill
#
# Bulk Modulus (GPa) = 39.19755 48.57894 43.88824
# Shear Modulus (GPa) = 112.80150 28.35199 70.57675
#
# Velocity S-wave (km/s) = 6.54224 3.27990 5.17487
# Velocity P-wave (km/s) = 8.48179 5.72505 7.23591
#
# Compressibility (1/GPa) = 0.02551180
#
# Stress axis : x y z
#
# Youngs Moduli (GPa) = 53.17104 131.01556 125.33165
#
# Poissons Ratio (x) = 0.41774 -0.01028
# Poissons Ratio (y) = 0.16953 0.16882
# Poissons Ratio (z) = -0.00436 0.17648
#
# Static dielectric constant tensor:
#      x y z
#    x 2.290250 0.000000 0.000000 
#    y 0.000000 2.174840 0.000000 
#    z 0.000000 0.000000 2.053050 
# 
# From -- ./inp_files/3475.got.cif
#   From: 2010.05.17/outbox.cif.g08.bks.cpg/sg52_2_cif.got.tgz:3475.got - 2010.06.03 12:15:38.
