data_PCOD9412619
_publ_section_title
;
Structure prediction by ZEFSAII (Michael W. Deem and Ramdas Pophale) SiO2 
 PCOD9412619
Probable space group: P N N A
;
_chemical_formula_sum "Si O2"
_cell_formula_units_Z 28
_cell_length_a 9.200207
_cell_length_b 26.130962
_cell_length_c 4.695304
_cell_angle_alpha 90.000000
_cell_angle_beta 90.000000
_cell_angle_gamma 90.000000
_cell_volume 1128.799253
_symmetry_space_group_name_H-M "P N N A"
_symmetry_group_IT_number 52
_symmetry_cell_setting 'orthorhombic'
loop_
_space_group_symop_operation_xyz
x,y,z
1/2-x,-y,z
x,1/2-y,1/2-z
1/2-x,1/2+y,1/2-z
-x,-y,-z
1/2+x,y,-z
-x,1/2+y,1/2+z
1/2+x,1/2-y,1/2+z
loop_
_atom_site_type_symbol
_atom_site_label
_atom_site_fract_x
_atom_site_fract_y
_atom_site_fract_z
Si Si1 0.344114 0.690182 0.820473
Si Si2 0.910325 0.539597 0.804266
Si Si3 0.020704 0.849234 0.819711
Si Si4 0.750000 0.000000 0.244540
O O1 0.343688 0.750000 0.750000
O O2 0.184163 0.668248 0.749936
O O3 0.470945 0.838070 0.859091
O O4 0.398398 0.681373 0.140492
O O5 0.994642 0.591456 0.748778
O O6 0.136584 0.482032 0.500397
O O7 0.000000 0.500000 0.000000
O O8 0.771904 0.545546 0.017733
#
# Coordination Sequence:
#
# PCOD9412619 Si02
#       4
#     8   8   8   4
#     4  12  26  50  77 112 149 194 254 322 383 448
#     4  11  25  44  72 104 149 197 250 303 372 451
#     4  12  28  46  81 109 151 198 253 307 387 454
#     4  10  24  42  68  96 148 184 242 296 364 422
#
# _framework density 24.805118
#
# number of rings (size 3 to 8) (size 9 to 14) (size 15 to 20)
#    0.000    0.571    0.000    6.857   12.000    0.000 
#    0.000    0.000    0.000    0.000    0.000    0.000 
#    0.000    0.000    0.000    0.000    0.000    0.000 
#
# Total GULP energy -156271.771582 kJ/mol
# GULP energy per Si atom -5581.134699 kJ/mol
# Density = 2.474866 g / cm^3
# Si number density = 24.805118 Si / 1000 Ang^3
#
#
#
# Elastic Constant Matrix: (Units=GPa)
#
#
# Indices 1 2 3 4 5 6 
#
# 1 113.0201 0.4828 -4.2219 0.0000 0.0000 0.0000
# 2 0.4828 97.7002 -5.7468 0.0000 0.0000 0.0000
# 3 -4.2219 -5.7468 149.6037 0.0000 0.0000 0.0000
# 4 0.0000 0.0000 0.0000 32.7465 0.0000 0.0000
# 5 0.0000 0.0000 0.0000 0.0000 39.1954 0.0000
# 6 0.0000 0.0000 0.0000 0.0000 0.0000 38.1608
#
#
#
# Elastic Compliance Matrix: (Units=1/GPa)
#
#
# Indices 1 2 3 4 5 6 
#
# 1 0.008857 -0.000029 0.000249 0.000000 0.000000 0.000000
# 2 -0.000029 0.010259 0.000393 0.000000 0.000000 0.000000
# 3 0.000249 0.000393 0.006706 0.000000 0.000000 0.000000
# 4 0.000000 0.000000 0.000000 0.030538 0.000000 0.000000
# 5 0.000000 0.000000 0.000000 0.000000 0.025513 0.000000
# 6 0.000000 0.000000 0.000000 0.000000 0.000000 0.026205
#
#
# Mechanical properties :
#
#
# Convention : Reuss Voigt Hill
#
# Bulk Modulus (GPa) = 36.97069 37.92802 37.44936
# Shear Modulus (GPa) = 43.15237 46.67453 44.91345
#
# Velocity S-wave (km/s) = 4.17544 4.34250 4.25979
# Velocity P-wave (km/s) = 6.17921 6.36135 6.27094
#
# Compressibility (1/GPa) = 0.02704845
#
# Stress axis : x y z
#
# Youngs Moduli (GPa) = 112.89994 97.47849 149.11008
#
# Poissons Ratio (x) = 0.00284 -0.03710
# Poissons Ratio (y) = 0.00329 -0.05864
# Poissons Ratio (z) = -0.02809 -0.03833
#
# Static dielectric constant tensor:
#      x y z
#    x 4.540250 0.000000 0.000000 
#    y 0.000000 2.028090 0.000000 
#    z 0.000000 0.000000 1.932100 
# 
# From -- ./inp_files/348.got.cif
#   From: 2010.05.17/outbox.cif.g08.bks.cpg/sg52_1_cif.got.tgz:348.got - 2010.06.03 12:15:38.
