data_PCOD9412553
_publ_section_title
;
Structure prediction by ZEFSAII (Michael W. Deem and Ramdas Pophale) SiO2 
 PCOD9412553
Probable space group: P N N A
;
_chemical_formula_sum "Si O2"
_cell_formula_units_Z 52
_cell_length_a 16.528305
_cell_length_b 4.964551
_cell_length_c 28.871954
_cell_angle_alpha 90.000000
_cell_angle_beta 90.000000
_cell_angle_gamma 90.000000
_cell_volume 2369.105887
_symmetry_space_group_name_H-M "P N N A"
_symmetry_group_IT_number 52
_symmetry_cell_setting 'orthorhombic'
loop_
_space_group_symop_operation_xyz
x,y,z
1/2-x,-y,z
x,1/2-y,1/2-z
1/2-x,1/2+y,1/2-z
-x,-y,-z
1/2+x,y,-z
-x,1/2+y,1/2+z
1/2+x,1/2-y,1/2+z
loop_
_atom_site_type_symbol
_atom_site_label
_atom_site_fract_x
_atom_site_fract_y
_atom_site_fract_z
Si Si1 0.566869 0.070495 0.960550
Si Si2 0.395269 0.138455 0.816885
Si Si3 0.497353 0.223004 0.130868
Si Si4 0.342342 0.089069 0.489166
Si Si5 0.974139 0.989293 0.717583
Si Si6 0.345464 0.444242 0.902304
Si Si7 0.799116 0.750000 0.250000
O O1 0.538124 0.946812 0.911762
O O2 0.644629 0.890382 0.972189
O O3 0.595029 0.380866 0.964385
O O4 0.500000 0.000000 0.000000
O O5 0.430854 0.400085 0.790552
O O6 0.354120 0.207894 0.865175
O O7 0.342907 0.926977 0.788796
O O8 0.477646 0.996138 0.831493
O O9 0.448942 0.434944 0.164196
O O10 0.581386 0.358756 0.113443
O O11 0.362861 0.099288 0.543700
O O12 0.250000 0.000000 0.483113
O O13 0.968215 0.250000 0.750000
O O14 0.938365 0.750000 0.750000
O O15 0.250000 0.500000 0.900609
O O16 0.750000 0.500000 0.225783
#
# Coordination Sequence:
#
# PCOD9412553 Si02
#       7
#     8   8   8   8   8   8   4
#     4  12  24  42  70 103 134 171 231 284 338 404
#     4  11  25  43  59  82 123 167 229 284 333 382
#     4  11  24  37  66  93 122 174 219 288 334 390
#     4  11  25  46  69  95 139 180 218 275 348 412
#     4  11  22  40  61  84 122 168 211 270 339 398
#     4  10  24  40  60  87 122 172 228 273 334 397
#     4  12  32  44  58  80 118 180 234 284 344 390
#
# _framework density 21.949207000000001
#
# number of rings (size 3 to 8) (size 9 to 14) (size 15 to 20)
#    0.000    0.923    3.077    2.769   11.846    0.000 
#    2.769    0.000    0.000    0.000    0.000    0.000 
#    0.000    3.692    0.923    0.000    0.000    0.000 
#
# Total GULP energy -289917.150684 kJ/mol
# GULP energy per Si atom -5575.329821 kJ/mol
# Density = 2.189925 g / cm^3
# Si number density = 21.949207 Si / 1000 Ang^3
#
#
#
# Elastic Constant Matrix: (Units=GPa)
#
#
# Indices 1 2 3 4 5 6 
#
# 1 30.4963 4.8195 18.1055 0.0000 0.0000 0.0000
# 2 4.8195 111.4132 31.4372 0.0000 0.0000 0.0000
# 3 18.1055 31.4372 129.4391 0.0000 0.0000 0.0000
# 4 0.0000 0.0000 0.0000 39.1302 0.0000 0.0000
# 5 0.0000 0.0000 0.0000 0.0000 20.0182 0.0000
# 6 0.0000 0.0000 0.0000 0.0000 0.0000 28.3527
#
#
#
# Elastic Compliance Matrix: (Units=1/GPa)
#
#
# Indices 1 2 3 4 5 6 
#
# 1 0.035763 -0.000145 -0.004967 0.000000 0.000000 0.000000
# 2 -0.000145 0.009637 -0.002320 0.000000 0.000000 0.000000
# 3 -0.004967 -0.002320 0.008984 0.000000 0.000000 0.000000
# 4 0.000000 0.000000 0.000000 0.025556 0.000000 0.000000
# 5 0.000000 0.000000 0.000000 0.000000 0.049955 0.000000
# 6 0.000000 0.000000 0.000000 0.000000 0.000000 0.035270
#
#
# Mechanical properties :
#
#
# Convention : Reuss Voigt Hill
#
# Bulk Modulus (GPa) = 25.30498 42.23036 33.76767
# Shear Modulus (GPa) = 25.87974 31.96598 28.92286
#
# Velocity S-wave (km/s) = 3.43749 3.82037 3.63398
# Velocity P-wave (km/s) = 5.22580 6.22432 5.74679
#
# Compressibility (1/GPa) = 0.03951791
#
# Stress axis : x y z
#
# Youngs Moduli (GPa) = 27.96209 103.77160 111.31022
#
# Poissons Ratio (x) = 0.01510 0.55288
# Poissons Ratio (y) = 0.00407 0.25825
# Poissons Ratio (z) = 0.13889 0.24076
#
# Static dielectric constant tensor:
#      x y z
#    x 1.850300 0.000000 0.000000 
#    y 0.000000 1.835200 0.000000 
#    z 0.000000 0.000000 1.898490 
# 
# From -- ./inp_files/43174.got.cif
#   From: 2010.05.17/outbox.cif.g08.bks.cpg/sg52_22_cif.got.tgz:43174.got - 2010.06.03 12:15:38.
