data_PCOD9412079
_publ_section_title
;
Structure prediction by ZEFSAII (Michael W. Deem and Ramdas Pophale) SiO2 
 PCOD9412079
Probable space group: P N N A
;
_chemical_formula_sum "Si O2"
_cell_formula_units_Z 56
_cell_length_a 14.571650
_cell_length_b 29.620688
_cell_length_c 5.666309
_cell_angle_alpha 90.000000
_cell_angle_beta 90.000000
_cell_angle_gamma 90.000000
_cell_volume 2445.705313
_symmetry_space_group_name_H-M "P N N A"
_symmetry_group_IT_number 52
_symmetry_cell_setting 'orthorhombic'
loop_
_space_group_symop_operation_xyz
x,y,z
1/2-x,-y,z
x,1/2-y,1/2-z
1/2-x,1/2+y,1/2-z
-x,-y,-z
1/2+x,y,-z
-x,1/2+y,1/2+z
1/2+x,1/2-y,1/2+z
loop_
_atom_site_type_symbol
_atom_site_label
_atom_site_fract_x
_atom_site_fract_y
_atom_site_fract_z
Si Si1 0.873064 0.653548 0.371368
Si Si2 0.905804 0.479015 0.583735
Si Si3 0.695199 0.457392 0.894592
Si Si4 0.453602 0.347833 0.666461
Si Si5 0.490613 0.586156 0.935575
Si Si6 0.022894 0.750000 0.750000
Si Si7 0.590023 0.250000 0.250000
Si Si8 0.799905 0.398359 0.559595
O O1 0.854752 0.703345 0.273131
O O2 0.783250 0.624692 0.421245
O O3 0.938471 0.657410 0.600910
O O4 0.942373 0.626585 0.205090
O O5 0.842713 0.520524 0.652453
O O6 0.842373 0.443867 0.445161
O O7 0.000000 0.500000 0.500000
O O8 0.940508 0.446738 0.798078
O O9 0.750000 0.500000 0.003350
O O10 0.599671 0.443753 0.010145
O O11 0.756656 0.415215 0.809608
O O12 0.457623 0.388405 0.853685
O O13 0.424358 0.297854 0.745316
O O14 0.384730 0.363512 0.458188
O O15 0.968076 0.752213 0.496789
#
# Coordination Sequence:
#
# PCOD9412079 Si02
#       8
#     8   8   8   8   8   4   4   8
#     4  11  23  43  69  99 142 183 235 297 367 428
#     4  11  23  41  65  94 135 184 229 296 357 426
#     4  10  23  39  60  97 133 173 235 291 349 418
#     4  11  23  44  70 101 142 186 233 298 363 446
#     4  12  22  42  70  96 133 188 237 289 359 440
#     4  10  22  43  74 105 152 194 244 293 382 443
#     4  10  22  43  72 107 146 198 232 303 372 447
#     4  11  23  42  69  97 138 181 234 296 356 424
#
# _framework density 22.897281
#
# number of rings (size 3 to 8) (size 9 to 14) (size 15 to 20)
#    0.000    1.143    4.286    2.143    0.000    4.000 
#    0.000    0.000    0.000    6.000    0.000    0.000 
#    0.000    0.000    0.000    0.000    0.000    0.000 
#
# Total GULP energy -312004.493744 kJ/mol
# GULP energy per Si atom -5571.508817 kJ/mol
# Density = 2.284517 g / cm^3
# Si number density = 22.897281 Si / 1000 Ang^3
#
#
#
# Elastic Constant Matrix: (Units=GPa)
#
#
# Indices 1 2 3 4 5 6 
#
# 1 130.6132 38.9757 22.7786 0.0000 0.0000 0.0000
# 2 38.9757 111.8972 30.2837 0.0000 0.0000 0.0000
# 3 22.7786 30.2837 58.6333 0.0000 0.0000 0.0000
# 4 0.0000 0.0000 0.0000 42.4478 0.0000 0.0000
# 5 0.0000 0.0000 0.0000 0.0000 25.5314 0.0000
# 6 0.0000 0.0000 0.0000 0.0000 0.0000 27.2670
#
#
#
# Elastic Compliance Matrix: (Units=1/GPa)
#
#
# Indices 1 2 3 4 5 6 
#
# 1 0.008766 -0.002478 -0.002126 0.000000 0.000000 0.000000
# 2 -0.002478 0.011090 -0.004765 0.000000 0.000000 0.000000
# 3 -0.002126 -0.004765 0.020342 0.000000 0.000000 0.000000
# 4 0.000000 0.000000 0.000000 0.023558 0.000000 0.000000
# 5 0.000000 0.000000 0.000000 0.000000 0.039167 0.000000
# 6 0.000000 0.000000 0.000000 0.000000 0.000000 0.036674
#
#
# Mechanical properties :
#
#
# Convention : Reuss Voigt Hill
#
# Bulk Modulus (GPa) = 46.59757 53.91327 50.25542
# Shear Modulus (GPa) = 30.21344 32.98962 31.60153
#
# Velocity S-wave (km/s) = 3.63646 3.79986 3.71906
# Velocity P-wave (km/s) = 6.16658 6.54589 6.35907
#
# Compressibility (1/GPa) = 0.02146035
#
# Stress axis : x y z
#
# Youngs Moduli (GPa) = 114.07163 90.17508 49.15933
#
# Poissons Ratio (x) = 0.22347 0.10450
# Poissons Ratio (y) = 0.28269 0.23424
# Poissons Ratio (z) = 0.24248 0.42968
#
# Static dielectric constant tensor:
#      x y z
#    x 1.913760 0.000000 0.000000 
#    y 0.000000 1.889860 0.000000 
#    z 0.000000 0.000000 2.060680 
# 
# From -- ./inp_files/2658.got.cif
#   From: 2010.05.17/outbox.cif.g08.bks.cpg/sg52_2_cif.got.tgz:2658.got - 2010.06.03 12:15:38.
