data_PCOD9412112
_publ_section_title
;
Structure prediction by ZEFSAII (Michael W. Deem and Ramdas Pophale) SiO2 
 PCOD9412112
Probable space group: P N N A
;
_chemical_formula_sum "Si O2"
_cell_formula_units_Z 40
_cell_length_a 24.126460
_cell_length_b 11.542266
_cell_length_c 6.492820
_cell_angle_alpha 90.000000
_cell_angle_beta 90.000000
_cell_angle_gamma 90.000000
_cell_volume 1808.081680
_symmetry_space_group_name_H-M "P N N A"
_symmetry_group_IT_number 52
_symmetry_cell_setting 'orthorhombic'
loop_
_space_group_symop_operation_xyz
x,y,z
1/2-x,-y,z
x,1/2-y,1/2-z
1/2-x,1/2+y,1/2-z
-x,-y,-z
1/2+x,y,-z
-x,1/2+y,1/2+z
1/2+x,1/2-y,1/2+z
loop_
_atom_site_type_symbol
_atom_site_label
_atom_site_fract_x
_atom_site_fract_y
_atom_site_fract_z
Si Si1 0.750000 0.500000 0.357057
Si Si2 0.860876 0.520685 0.599441
Si Si3 0.945684 0.498407 0.222722
Si Si4 0.115302 0.672516 0.081134
Si Si5 0.299594 0.250000 0.750000
Si Si6 0.050439 0.132982 0.333023
O O1 0.802444 0.537252 0.493137
O O2 0.731690 0.623756 0.249687
O O3 0.905211 0.498610 0.415824
O O4 0.855741 0.422233 0.773484
O O5 0.890002 0.622319 0.726701
O O6 0.010027 0.468353 0.252136
O O7 0.923299 0.395233 0.075979
O O8 0.943304 0.611747 0.076404
O O9 0.084004 0.750000 0.250000
O O10 0.160070 0.743646 0.949001
O O11 0.024471 0.250000 0.250000
#
# Coordination Sequence:
#
# PCOD9412112 Si02
#       6
#     4   8   8   8   4   8
#     4  12  26  46  72 100 142 190 238 296 356 414
#     4  11  24  45  66 100 136 186 233 292 353 428
#     4  10  22  44  67 101 139 179 238 289 353 432
#     4  11  21  42  72  96 134 179 242 286 342 425
#     4  12  26  48  68 110 138 188 242 302 350 428
#     4  10  24  41  66 103 140 184 225 294 366 431
#
# _framework density 22.122895
#
# number of rings (size 3 to 8) (size 9 to 14) (size 15 to 20)
#    0.000    1.200    4.000    0.600    4.200    3.200 
#    3.600    0.000    0.000    0.000    0.000    0.000 
#    0.000    0.000    0.000    0.000    0.000    0.000 
#
# Total GULP energy -222997.793609 kJ/mol
# GULP energy per Si atom -5574.944840 kJ/mol
# Density = 2.207254 g / cm^3
# Si number density = 22.122895 Si / 1000 Ang^3
#
#
#
# Elastic Constant Matrix: (Units=GPa)
#
#
# Indices 1 2 3 4 5 6 
#
# 1 98.0342 12.9145 40.7822 0.0000 0.0000 0.0000
# 2 12.9145 106.0855 46.3261 0.0000 0.0000 0.0000
# 3 40.7822 46.3261 113.5785 0.0000 0.0000 0.0000
# 4 0.0000 0.0000 0.0000 20.7954 0.0000 0.0000
# 5 0.0000 0.0000 0.0000 0.0000 27.2403 0.0000
# 6 0.0000 0.0000 0.0000 0.0000 0.0000 27.4670
#
#
#
# Elastic Compliance Matrix: (Units=1/GPa)
#
#
# Indices 1 2 3 4 5 6 
#
# 1 0.012015 0.000513 -0.004523 0.000000 0.000000 0.000000
# 2 0.000513 0.011491 -0.004871 0.000000 0.000000 0.000000
# 3 -0.004523 -0.004871 0.012415 0.000000 0.000000 0.000000
# 4 0.000000 0.000000 0.000000 0.048088 0.000000 0.000000
# 5 0.000000 0.000000 0.000000 0.000000 0.036710 0.000000
# 6 0.000000 0.000000 0.000000 0.000000 0.000000 0.036407
#
#
# Mechanical properties :
#
#
# Convention : Reuss Voigt Hill
#
# Bulk Modulus (GPa) = 55.07227 57.52707 56.29967
# Shear Modulus (GPa) = 27.63317 29.61223 28.62270
#
# Velocity S-wave (km/s) = 3.53806 3.66257 3.60085
# Velocity P-wave (km/s) = 6.45278 6.62916 6.54156
#
# Compressibility (1/GPa) = 0.01815796
#
# Stress axis : x y z
#
# Youngs Moduli (GPa) = 83.23197 87.02428 80.54551
#
# Poissons Ratio (x) = -0.04461 0.36432
# Poissons Ratio (y) = -0.04266 0.39234
# Poissons Ratio (z) = 0.37647 0.42389
#
# Static dielectric constant tensor:
#      x y z
#    x 1.804780 0.000000 0.000000 
#    y 0.000000 2.127820 0.000000 
#    z 0.000000 0.000000 1.818840 
# 
# From -- ./inp_files/5617.got.cif
#   From: 2010.05.17/outbox.cif.g08.bks.cpg/sg52_3_cif.got.tgz:5617.got - 2010.06.03 12:15:38.
