data_PCOD9412809
_publ_section_title
;
Structure prediction by ZEFSAII (Michael W. Deem and Ramdas Pophale) SiO2 
 PCOD9412809
Probable space group: P N N A
;
_chemical_formula_sum "Si O2"
_cell_formula_units_Z 36
_cell_length_a 22.266985
_cell_length_b 5.325812
_cell_length_c 13.304990
_cell_angle_alpha 90.000000
_cell_angle_beta 90.000000
_cell_angle_gamma 90.000000
_cell_volume 1577.835783
_symmetry_space_group_name_H-M "P N N A"
_symmetry_group_IT_number 52
_symmetry_cell_setting 'orthorhombic'
loop_
_space_group_symop_operation_xyz
x,y,z
1/2-x,-y,z
x,1/2-y,1/2-z
1/2-x,1/2+y,1/2-z
-x,-y,-z
1/2+x,y,-z
-x,1/2+y,1/2+z
1/2+x,1/2-y,1/2+z
loop_
_atom_site_type_symbol
_atom_site_label
_atom_site_fract_x
_atom_site_fract_y
_atom_site_fract_z
Si Si1 0.516467 0.222062 0.370044
Si Si2 0.681480 0.496022 0.682649
Si Si3 0.788206 0.750000 0.250000
Si Si4 0.593689 0.597171 0.511778
Si Si5 0.627048 0.908087 0.352217
O O1 0.507860 0.250000 0.250000
O O2 0.556842 0.428052 0.430993
O O3 0.453796 0.230528 0.427290
O O4 0.558028 0.977625 0.372280
O O5 0.750000 0.500000 0.642188
O O6 0.672066 0.750000 0.750000
O O7 0.631052 0.461388 0.597808
O O8 0.677673 0.250000 0.750000
O O9 0.750000 0.500000 0.274271
O O10 0.832664 0.653053 0.163131
O O11 0.643162 0.749610 0.448583
O O12 0.630881 0.750000 0.250000
#
# Coordination Sequence:
#
# PCOD9412809 Si02
#       5
#     8   8   4   8   8
#     4  11  23  45  69 107 155 193 250 317 377 456
#     4  10  24  51  77 105 146 190 249 317 369 443
#     4  12  26  48  74 106 150 212 250 304 386 454
#     4  11  25  44  74 110 144 204 249 306 389 454
#     4  12  23  48  72 106 158 192 255 314 375 454
#
# _framework density 22.816063
#
# number of rings (size 3 to 8) (size 9 to 14) (size 15 to 20)
#    0.000    0.889    4.444    1.333    3.111    0.000 
#   16.000    0.000    0.000    0.000    0.000    0.000 
#    0.000    0.000    0.000    0.000    0.000    0.000 
#
# Total GULP energy -200948.139333 kJ/mol
# GULP energy per Si atom -5581.892759 kJ/mol
# Density = 2.276413 g / cm^3
# Si number density = 22.816063 Si / 1000 Ang^3
#
#
#
# Elastic Constant Matrix: (Units=GPa)
#
#
# Indices 1 2 3 4 5 6 
#
# 1 107.7946 39.1009 62.1633 0.0000 0.0000 0.0000
# 2 39.1009 106.3343 33.7541 0.0000 0.0000 0.0000
# 3 62.1633 33.7541 126.9619 0.0000 0.0000 0.0000
# 4 0.0000 0.0000 0.0000 34.6090 0.0000 0.0000
# 5 0.0000 0.0000 0.0000 0.0000 -129.6769 0.0000
# 6 0.0000 0.0000 0.0000 0.0000 0.0000 14.9081
#
#
#
# Elastic Compliance Matrix: (Units=1/GPa)
#
#
# Indices 1 2 3 4 5 6 
#
# 1 0.013865 -0.003215 -0.005934 0.000000 0.000000 0.000000
# 2 -0.003215 0.011016 -0.001355 0.000000 0.000000 0.000000
# 3 -0.005934 -0.001355 0.011142 0.000000 0.000000 0.000000
# 4 0.000000 0.000000 0.000000 0.028894 0.000000 0.000000
# 5 0.000000 0.000000 0.000000 0.000000 -0.007711 0.000000
# 6 0.000000 0.000000 0.000000 0.000000 0.000000 0.067078
#
#
# Mechanical properties :
#
#
# Convention : Reuss Voigt Hill
#
# Bulk Modulus (GPa) = 66.59382 67.90304 67.24843
# Shear Modulus (GPa) = 33.26763 -2.29380 15.48692
#
# Velocity S-wave (km/s) = 3.82262 -1.00376 2.60815
# Velocity P-wave (km/s) = 6.98097 5.33688 6.21354
#
# Compressibility (1/GPa) = 0.01501641
#
# Stress axis : x y z
#
# Youngs Moduli (GPa) = 72.12397 90.77295 89.75083
#
# Poissons Ratio (x) = 0.29181 0.53258
# Poissons Ratio (y) = 0.23186 0.12160
# Poissons Ratio (z) = 0.42798 0.12298
#
# Static dielectric constant tensor:
#      x y z
#    x 1.864930 0.000000 0.000000 
#    y 0.000000 1.861570 0.000000 
#    z 0.000000 0.000000 3.933730 
# 
# From -- ./inp_files/22045.got.cif
#   From: 2010.05.17/outbox.cif.g08.bks.cpg/sg52_12_cif.got.tgz:22045.got - 2010.06.03 12:15:38.
