data_PCOD9412552
_publ_section_title
;
Structure prediction by ZEFSAII (Michael W. Deem and Ramdas Pophale) SiO2 
 PCOD9412552
Probable space group: P N N A
;
_chemical_formula_sum "Si O2"
_cell_formula_units_Z 52
_cell_length_a 11.482185
_cell_length_b 23.295782
_cell_length_c 8.380343
_cell_angle_alpha 90.000000
_cell_angle_beta 90.000000
_cell_angle_gamma 90.000000
_cell_volume 2241.628439
_symmetry_space_group_name_H-M "P N N A"
_symmetry_group_IT_number 52
_symmetry_cell_setting 'orthorhombic'
loop_
_space_group_symop_operation_xyz
x,y,z
1/2-x,-y,z
x,1/2-y,1/2-z
1/2-x,1/2+y,1/2-z
-x,-y,-z
1/2+x,y,-z
-x,1/2+y,1/2+z
1/2+x,1/2-y,1/2+z
loop_
_atom_site_type_symbol
_atom_site_label
_atom_site_fract_x
_atom_site_fract_y
_atom_site_fract_z
Si Si1 0.891436 0.395692 0.135739
Si Si2 0.524787 0.678642 0.606610
Si Si3 0.250000 0.000000 0.070700
Si Si4 0.934437 0.918352 0.871574
Si Si5 0.047892 0.283544 0.086547
Si Si6 0.303647 0.099663 0.284130
Si Si7 0.292837 0.808731 0.687932
O O1 0.782145 0.364891 0.218561
O O2 0.961413 0.438350 0.252515
O O3 0.975234 0.341310 0.104916
O O4 0.844741 0.414141 0.962744
O O5 0.492454 0.631682 0.473413
O O6 0.529780 0.739935 0.521246
O O7 0.631282 0.654049 0.708210
O O8 0.413044 0.683464 0.719567
O O9 0.355239 0.958819 0.011906
O O10 0.172149 0.956771 0.177744
O O11 0.833718 0.895557 0.750916
O O12 0.070592 0.250000 0.250000
O O13 0.167714 0.297730 0.993485
O O14 0.234867 0.750000 0.750000
#
# Coordination Sequence:
#
# PCOD9412552 Si02
#       7
#     8   8   4   8   8   8   8
#     4  12  22  40  68  94 136 174 218 268 340 406
#     4  11  23  40  68  93 136 177 219 269 342 399
#     4   8  24  48  64 100 124 172 236 298 338 394
#     4  10  24  43  67  98 128 173 228 278 342 399
#     4  11  22  40  60 100 137 175 221 264 329 409
#     4  10  24  44  67  94 134 168 230 287 335 397
#     4  10  24  40  58  97 138 176 220 260 317 413
#
# _framework density 23.197420000000001
#
# number of rings (size 3 to 8) (size 9 to 14) (size 15 to 20)
#    0.923    0.615    3.077    1.385    2.154    2.462 
#    0.000    0.000    0.000    1.846    0.000    0.000 
#    0.000    0.000    0.000    0.000    0.000    0.000 
#
# Total GULP energy -289912.502689 kJ/mol
# GULP energy per Si atom -5575.240436 kJ/mol
# Density = 2.314462 g / cm^3
# Si number density = 23.197420 Si / 1000 Ang^3
#
#
#
# Elastic Constant Matrix: (Units=GPa)
#
#
# Indices 1 2 3 4 5 6 
#
# 1 72.0474 -0.1793 13.8660 0.0000 0.0000 0.0000
# 2 -0.1793 34.8188 -9.9920 0.0000 0.0000 0.0000
# 3 13.8660 -9.9920 62.8908 0.0000 0.0000 0.0000
# 4 0.0000 0.0000 0.0000 9.3158 0.0000 0.0000
# 5 0.0000 0.0000 0.0000 0.0000 16.3384 0.0000
# 6 0.0000 0.0000 0.0000 0.0000 0.0000 24.8981
#
#
#
# Elastic Compliance Matrix: (Units=1/GPa)
#
#
# Indices 1 2 3 4 5 6 
#
# 1 0.014521 -0.000884 -0.003342 0.000000 0.000000 0.000000
# 2 -0.000884 0.030146 0.004985 0.000000 0.000000 0.000000
# 3 -0.003342 0.004985 0.017429 0.000000 0.000000 0.000000
# 4 0.000000 0.000000 0.000000 0.107345 0.000000 0.000000
# 5 0.000000 0.000000 0.000000 0.000000 0.061205 0.000000
# 6 0.000000 0.000000 0.000000 0.000000 0.000000 0.040164
#
#
# Mechanical properties :
#
#
# Convention : Reuss Voigt Hill
#
# Bulk Modulus (GPa) = 15.72015 19.68292 17.70154
# Shear Modulus (GPa) = 17.21183 21.18128 19.19655
#
# Velocity S-wave (km/s) = 2.72687 3.02501 2.87980
# Velocity P-wave (km/s) = 4.08728 4.55020 4.32494
#
# Compressibility (1/GPa) = 0.06361261
#
# Stress axis : x y z
#
# Youngs Moduli (GPa) = 68.86706 33.17190 57.37452
#
# Poissons Ratio (x) = 0.02933 0.19174
# Poissons Ratio (y) = 0.06090 -0.28598
# Poissons Ratio (z) = 0.23015 -0.16535
#
# Static dielectric constant tensor:
#      x y z
#    x 1.885370 0.000000 0.000000 
#    y 0.000000 1.963020 0.000000 
#    z 0.000000 0.000000 1.960760 
# 
# From -- ./inp_files/8997.got.cif
#   From: 2010.05.17/outbox.cif.g08.bks.cpg/sg52_5_cif.got.tgz:8997.got - 2010.06.03 12:15:38.
