data_PCOD9412377
_publ_section_title
;
Structure prediction by ZEFSAII (Michael W. Deem and Ramdas Pophale) SiO2 
 PCOD9412377
Probable space group: P N N A
;
_chemical_formula_sum "Si O2"
_cell_formula_units_Z 56
_cell_length_a 15.063281
_cell_length_b 11.690162
_cell_length_c 15.471725
_cell_angle_alpha 90.000000
_cell_angle_beta 90.000000
_cell_angle_gamma 90.000000
_cell_volume 2724.450018
_symmetry_space_group_name_H-M "P N N A"
_symmetry_group_IT_number 52
_symmetry_cell_setting 'orthorhombic'
loop_
_space_group_symop_operation_xyz
x,y,z
1/2-x,-y,z
x,1/2-y,1/2-z
1/2-x,1/2+y,1/2-z
-x,-y,-z
1/2+x,y,-z
-x,1/2+y,1/2+z
1/2+x,1/2-y,1/2+z
loop_
_atom_site_type_symbol
_atom_site_label
_atom_site_fract_x
_atom_site_fract_y
_atom_site_fract_z
Si Si1 0.839244 0.863802 0.444083
Si Si2 0.837954 0.284047 0.151015
Si Si3 0.108947 0.371311 0.471845
Si Si4 0.636310 0.618193 0.775139
Si Si5 0.452479 0.496071 0.809215
Si Si6 0.250000 0.500000 0.370324
Si Si7 0.750000 0.000000 0.588305
Si Si8 0.068236 0.938514 0.886261
O O1 0.743820 0.839105 0.399738
O O2 0.882878 0.750222 0.482776
O O3 0.898735 0.918125 0.369662
O O4 0.823541 0.948286 0.524500
O O5 0.813925 0.250000 0.250000
O O6 0.922219 0.370498 0.156734
O O7 0.865101 0.166985 0.105225
O O8 0.200666 0.405664 0.427049
O O9 0.088234 0.465110 0.544563
O O10 0.029336 0.385735 0.403137
O O11 0.616007 0.750000 0.750000
O O12 0.552529 0.542730 0.805789
O O13 0.677498 0.560141 0.690179
O O14 0.709691 0.598988 0.850288
O O15 0.423786 0.491320 0.708978
#
# Coordination Sequence:
#
# PCOD9412377 Si02
#       8
#     8   8   8   8   8   4   4   8
#     4  12  25  43  70 104 142 181 234 293 359 431
#     4  10  23  43  66  95 140 185 229 287 349 431
#     4  11  24  40  72 102 138 185 237 294 350 423
#     4  11  26  44  73  99 138 185 237 295 359 434
#     4  11  24  45  68  99 140 183 235 285 362 425
#     4  11  22  48  65 100 140 182 235 290 360 425
#     4  11  26  48  65 108 140 178 235 294 364 433
#     4  10  24  44  65 102 139 185 240 291 355 423
#
# _framework density 20.554608000000002
#
# number of rings (size 3 to 8) (size 9 to 14) (size 15 to 20)
#    0.000    1.143    2.857    1.714    6.000    1.714 
#    0.000    0.000    0.000    0.000    0.000    0.000 
#    0.000    0.000    0.000    0.000    0.000    0.000 
#
# Total GULP energy -312882.574554 kJ/mol
# GULP energy per Si atom -5587.188831 kJ/mol
# Density = 2.050782 g / cm^3
# Si number density = 20.554608 Si / 1000 Ang^3
#
#
#
# Elastic Constant Matrix: (Units=GPa)
#
#
# Indices 1 2 3 4 5 6 
#
# 1 55.7376 15.3543 34.6034 0.0000 0.0000 0.0000
# 2 15.3543 96.6509 53.6109 0.0000 0.0000 0.0000
# 3 34.6034 53.6109 98.3643 0.0000 0.0000 0.0000
# 4 0.0000 0.0000 0.0000 18.6176 0.0000 0.0000
# 5 0.0000 0.0000 0.0000 0.0000 34.9450 0.0000
# 6 0.0000 0.0000 0.0000 0.0000 0.0000 31.7036
#
#
#
# Elastic Compliance Matrix: (Units=1/GPa)
#
#
# Indices 1 2 3 4 5 6 
#
# 1 0.023051 0.001198 -0.008762 0.000000 0.000000 0.000000
# 2 0.001198 0.014892 -0.008538 0.000000 0.000000 0.000000
# 3 -0.008762 -0.008538 0.017902 0.000000 0.000000 0.000000
# 4 0.000000 0.000000 0.000000 0.053713 0.000000 0.000000
# 5 0.000000 0.000000 0.000000 0.000000 0.028616 0.000000
# 6 0.000000 0.000000 0.000000 0.000000 0.000000 0.031542
#
#
# Mechanical properties :
#
#
# Convention : Reuss Voigt Hill
#
# Bulk Modulus (GPa) = 42.29890 50.87665 46.58778
# Shear Modulus (GPa) = 23.83216 26.86551 25.34883
#
# Velocity S-wave (km/s) = 3.40877 3.61921 3.51557
# Velocity P-wave (km/s) = 6.00970 6.50158 6.26047
#
# Compressibility (1/GPa) = 0.02364128
#
# Stress axis : x y z
#
# Youngs Moduli (GPa) = 43.38236 67.14965 55.85923
#
# Poissons Ratio (x) = -0.08046 0.48944
# Poissons Ratio (y) = -0.05198 0.47693
# Poissons Ratio (z) = 0.38012 0.57333
#
# Static dielectric constant tensor:
#      x y z
#    x 1.746500 0.000000 0.000000 
#    y 0.000000 1.719280 0.000000 
#    z 0.000000 0.000000 1.711490 
# 
# From -- ./inp_files/27313.got.cif
#   From: 2010.05.17/outbox.cif.g08.bks.cpg/sg52_14_cif.got.tgz:27313.got - 2010.06.03 12:15:38.
