data_PCOD9412458
_publ_section_title
;
Structure prediction by ZEFSAII (Michael W. Deem and Ramdas Pophale) SiO2 
 PCOD9412458
Probable space group: P N N A
;
_chemical_formula_sum "Si O2"
_cell_formula_units_Z 36
_cell_length_a 21.257644
_cell_length_b 7.841979
_cell_length_c 9.149188
_cell_angle_alpha 90.000000
_cell_angle_beta 90.000000
_cell_angle_gamma 90.000000
_cell_volume 1525.187918
_symmetry_space_group_name_H-M "P N N A"
_symmetry_group_IT_number 52
_symmetry_cell_setting 'orthorhombic'
loop_
_space_group_symop_operation_xyz
x,y,z
1/2-x,-y,z
x,1/2-y,1/2-z
1/2-x,1/2+y,1/2-z
-x,-y,-z
1/2+x,y,-z
-x,1/2+y,1/2+z
1/2+x,1/2-y,1/2+z
loop_
_atom_site_type_symbol
_atom_site_label
_atom_site_fract_x
_atom_site_fract_y
_atom_site_fract_z
Si Si1 0.114897 0.433278 0.328154
Si Si2 0.714862 0.683020 0.086378
Si Si3 0.418302 0.382340 0.053673
Si Si4 0.950619 0.747372 0.076178
Si Si5 0.250000 0.500000 0.413765
O O1 0.113133 0.250000 0.250000
O O2 0.077948 0.562235 0.223695
O O3 0.087210 0.392851 0.488101
O O4 0.186028 0.500791 0.324266
O O5 0.750000 0.500000 0.084679
O O6 0.703135 0.750000 0.250000
O O7 0.649337 0.681784 0.997831
O O8 0.755885 0.829538 0.009731
O O9 0.476905 0.259899 0.022153
O O10 0.425941 0.560754 0.969154
O O11 0.944715 0.750000 0.250000
#
# Coordination Sequence:
#
# PCOD9412458 Si02
#       5
#     8   8   8   8   4
#     4  10  24  45  71 106 149 195 250 311 377 450
#     4  12  27  48  73 108 151 194 254 311 380 454
#     4  10  25  44  70 104 145 195 242 311 377 445
#     4  10  23  44  72 103 145 192 252 306 369 448
#     4  12  28  44  76 110 146 204 244 310 382 448
#
# _framework density 23.603646999999999
#
# number of rings (size 3 to 8) (size 9 to 14) (size 15 to 20)
#    0.000    1.333    1.111    2.667   10.889    7.111 
#    0.000    0.000    0.000    0.000    0.000    0.000 
#    0.000    0.000    0.000    0.000    0.000    0.000 
#
# Total GULP energy -201478.943881 kJ/mol
# GULP energy per Si atom -5596.637330 kJ/mol
# Density = 2.354992 g / cm^3
# Si number density = 23.603647 Si / 1000 Ang^3
#
#
#
# Elastic Constant Matrix: (Units=GPa)
#
#
# Indices 1 2 3 4 5 6 
#
# 1 101.0378 13.4691 8.5403 0.0000 0.0000 0.0000
# 2 13.4691 112.0902 3.5231 0.0000 0.0000 0.0000
# 3 8.5403 3.5231 78.9275 0.0000 0.0000 0.0000
# 4 0.0000 0.0000 0.0000 -36.8412 0.0000 0.0000
# 5 0.0000 0.0000 0.0000 0.0000 -13.0828 0.0000
# 6 0.0000 0.0000 0.0000 0.0000 0.0000 40.0288
#
#
#
# Elastic Compliance Matrix: (Units=1/GPa)
#
#
# Indices 1 2 3 4 5 6 
#
# 1 0.010144 -0.001186 -0.001045 0.000000 0.000000 0.000000
# 2 -0.001186 0.009073 -0.000277 0.000000 0.000000 0.000000
# 3 -0.001045 -0.000277 0.012795 0.000000 0.000000 0.000000
# 4 0.000000 0.000000 0.000000 -0.027144 0.000000 0.000000
# 5 0.000000 0.000000 0.000000 0.000000 -0.076436 0.000000
# 6 0.000000 0.000000 0.000000 0.000000 0.000000 0.024982
#
#
# Mechanical properties :
#
#
# Convention : Reuss Voigt Hill
#
# Bulk Modulus (GPa) = 37.04137 38.12449 37.58293
# Shear Modulus (GPa) = -153.50413 15.78915 -68.85749
#
# Velocity S-wave (km/s) = -8.07312 2.58917 -5.40701
# Velocity P-wave (km/s) = 8.43642 5.01253 4.79832
#
# Compressibility (1/GPa) = 0.02699684
#
# Stress axis : x y z
#
# Youngs Moduli (GPa) = 98.58333 110.22197 78.15403
#
# Poissons Ratio (x) = 0.13073 0.08164
# Poissons Ratio (y) = 0.11693 0.02162
# Poissons Ratio (z) = 0.10299 0.03049
#
# Static dielectric constant tensor:
#      x y z
#    x 1.888610 0.000000 0.000000 
#    y 0.000000 1.953330 0.000000 
#    z 0.000000 0.000000 1.892940 
# 
# From -- ./inp_files/12913.got.cif
#   From: 2010.05.17/outbox.cif.g08.bks.cpg/sg52_7_cif.got.tgz:12913.got - 2010.06.03 12:15:38.
