data_PCOD9412626
_publ_section_title
;
Structure prediction by ZEFSAII (Michael W. Deem and Ramdas Pophale) SiO2 
 PCOD9412626
Probable space group: P N N A
;
_chemical_formula_sum "Si O2"
_cell_formula_units_Z 40
_cell_length_a 18.299893
_cell_length_b 17.478698
_cell_length_c 5.077405
_cell_angle_alpha 90.000000
_cell_angle_beta 90.000000
_cell_angle_gamma 90.000000
_cell_volume 1624.050148
_symmetry_space_group_name_H-M "P N N A"
_symmetry_group_IT_number 52
_symmetry_cell_setting 'orthorhombic'
loop_
_space_group_symop_operation_xyz
x,y,z
1/2-x,-y,z
x,1/2-y,1/2-z
1/2-x,1/2+y,1/2-z
-x,-y,-z
1/2+x,y,-z
-x,1/2+y,1/2+z
1/2+x,1/2-y,1/2+z
loop_
_atom_site_type_symbol
_atom_site_label
_atom_site_fract_x
_atom_site_fract_y
_atom_site_fract_z
Si Si1 0.750000 0.500000 0.285593
Si Si2 0.181023 0.250000 0.750000
Si Si3 0.495542 0.573997 0.206042
Si Si4 0.050841 0.662446 0.275783
Si Si5 0.344494 0.603015 0.013204
Si Si6 0.779762 0.149728 0.879882
O O1 0.772554 0.427200 0.452192
O O2 0.676840 0.474303 0.133478
O O3 0.134092 0.176851 0.658625
O O4 0.234051 0.285173 0.528659
O O5 0.521568 0.599473 0.503469
O O6 0.408225 0.588480 0.217779
O O7 0.500000 0.500000 0.000000
O O8 0.537638 0.632231 0.017710
O O9 0.022338 0.750000 0.250000
O O10 0.136902 0.668046 0.334787
O O11 0.266208 0.628007 0.123723
#
# Coordination Sequence:
#
# PCOD9412626 Si02
#       6
#     4   4   8   8   8   8
#     4  10  24  42  76 104 142 188 260 308 376 450
#     4  10  24  42  70 104 140 186 258 304 368 438
#     4  12  30  50  77 111 160 203 256 318 396 469
#     4  12  29  49  77 112 156 205 257 321 393 466
#     4  11  25  45  72 105 143 195 247 309 374 452
#     4  11  25  44  75 104 146 193 256 311 376 449
#
# _framework density 24.629783
#
# number of rings (size 3 to 8) (size 9 to 14) (size 15 to 20)
#    0.000    0.800    0.000    4.800   21.000    1.600 
#    0.000    0.000    0.000    0.000    0.000    0.000 
#    0.000    0.000    0.000    0.000    0.000    0.000 
#
# Total GULP energy -223151.744775 kJ/mol
# GULP energy per Si atom -5578.793619 kJ/mol
# Density = 2.457372 g / cm^3
# Si number density = 24.629783 Si / 1000 Ang^3
#
#
#
# Elastic Constant Matrix: (Units=GPa)
#
#
# Indices 1 2 3 4 5 6 
#
# 1 90.5658 9.3134 2.3985 0.0000 0.0000 0.0000
# 2 9.3134 87.8308 16.7992 0.0000 0.0000 0.0000
# 3 2.3985 16.7992 99.2896 0.0000 0.0000 0.0000
# 4 0.0000 0.0000 0.0000 -174.1338 0.0000 0.0000
# 5 0.0000 0.0000 0.0000 0.0000 17.2286 0.0000
# 6 0.0000 0.0000 0.0000 0.0000 0.0000 14.1211
#
#
#
# Elastic Compliance Matrix: (Units=1/GPa)
#
#
# Indices 1 2 3 4 5 6 
#
# 1 0.011164 -0.001170 -0.000072 0.000000 0.000000 0.000000
# 2 -0.001170 0.011889 -0.001983 0.000000 0.000000 0.000000
# 3 -0.000072 -0.001983 0.010409 0.000000 0.000000 0.000000
# 4 0.000000 0.000000 0.000000 -0.005743 0.000000 0.000000
# 5 0.000000 0.000000 0.000000 0.000000 0.058043 0.000000
# 6 0.000000 0.000000 0.000000 0.000000 0.000000 0.070816
#
#
# Mechanical properties :
#
#
# Convention : Reuss Voigt Hill
#
# Bulk Modulus (GPa) = 37.02116 37.18981 37.10549
# Shear Modulus (GPa) = 29.06437 -11.94514 8.55962
#
# Velocity S-wave (km/s) = 3.43891 -2.20463 1.86624
# Velocity P-wave (km/s) = 5.55264 2.94139 4.44318
#
# Compressibility (1/GPa) = 0.02701158
#
# Stress axis : x y z
#
# Youngs Moduli (GPa) = 89.57428 84.11184 96.07225
#
# Poissons Ratio (x) = 0.09842 0.00689
# Poissons Ratio (y) = 0.10481 0.19054
# Poissons Ratio (z) = 0.00642 0.16682
#
# Static dielectric constant tensor:
#      x y z
#    x 2.367170 0.000000 0.000000 
#    y 0.000000 1.280660 0.000000 
#    z 0.000000 0.000000 0.385390 
# 
# From -- ./inp_files/3261.got.cif
#   From: 2010.05.17/outbox.cif.g08.bks.cpg/sg52_2_cif.got.tgz:3261.got - 2010.06.03 12:15:38.
