data_PCOD9412668
_publ_section_title
;
Structure prediction by ZEFSAII (Michael W. Deem and Ramdas Pophale) SiO2 
 PCOD9412668
Probable space group: P N N A
;
_chemical_formula_sum "Si O2"
_cell_formula_units_Z 44
_cell_length_a 8.321168
_cell_length_b 22.100912
_cell_length_c 11.288058
_cell_angle_alpha 90.000000
_cell_angle_beta 90.000000
_cell_angle_gamma 90.000000
_cell_volume 2075.934841
_symmetry_space_group_name_H-M "P N N A"
_symmetry_group_IT_number 52
_symmetry_cell_setting 'orthorhombic'
loop_
_space_group_symop_operation_xyz
x,y,z
1/2-x,-y,z
x,1/2-y,1/2-z
1/2-x,1/2+y,1/2-z
-x,-y,-z
1/2+x,y,-z
-x,1/2+y,1/2+z
1/2+x,1/2-y,1/2+z
loop_
_atom_site_type_symbol
_atom_site_label
_atom_site_fract_x
_atom_site_fract_y
_atom_site_fract_z
Si Si1 0.718919 0.232696 0.427537
Si Si2 0.539322 0.856009 0.568003
Si Si3 0.535520 0.065647 0.844815
Si Si4 0.317424 0.939308 0.400149
Si Si5 0.750000 0.000000 0.039601
Si Si6 0.970180 0.791866 0.855968
O O1 0.845586 0.185918 0.487103
O O2 0.584302 0.189639 0.367093
O O3 0.621745 0.270002 0.526755
O O4 0.839053 0.278258 0.363424
O O5 0.432503 0.899801 0.484374
O O6 0.665074 0.897688 0.637115
O O7 0.590009 0.040963 0.717765
O O8 0.549873 0.137644 0.835081
O O9 0.360207 0.042291 0.879467
O O10 0.645490 0.041372 0.951453
O O11 0.250000 0.000000 0.460981
O O12 0.905513 0.750000 0.750000
#
# Coordination Sequence:
#
# PCOD9412668 Si02
#       6
#     8   8   8   8   4   8
#     4   9  19  37  57  90 116 156 192 239 315 363
#     4   9  19  37  59  84 128 148 188 250 300 384
#     4  11  22  43  63  89 123 163 220 259 308 365
#     4  11  21  39  59  92 118 163 201 247 310 364
#     4  10  24  44  64  86 122 176 216 266 302 364
#     4  11  21  38  63  90 122 159 200 256 315 368
#
# _framework density 21.195269
#
# number of rings (size 3 to 8) (size 9 to 14) (size 15 to 20)
#    0.000    1.818    0.909    4.909    0.000    0.000 
#   11.455    9.091    0.000    0.000    0.000    0.000 
#    0.000    0.000    0.000    0.000    0.000    0.000 
#
# Total GULP energy -245575.262491 kJ/mol
# GULP energy per Si atom -5581.255966 kJ/mol
# Density = 2.114703 g / cm^3
# Si number density = 21.195269 Si / 1000 Ang^3
#
#
#
# Elastic Constant Matrix: (Units=GPa)
#
#
# Indices 1 2 3 4 5 6 
#
# 1 91.5965 22.8158 8.4957 0.0000 0.0000 0.0000
# 2 22.8158 112.1710 1.2530 0.0000 0.0000 0.0000
# 3 8.4957 1.2530 43.6576 0.0000 0.0000 0.0000
# 4 0.0000 0.0000 0.0000 23.0626 0.0000 0.0000
# 5 0.0000 0.0000 0.0000 0.0000 35.7555 0.0000
# 6 0.0000 0.0000 0.0000 0.0000 0.0000 29.4735
#
#
#
# Elastic Compliance Matrix: (Units=1/GPa)
#
#
# Indices 1 2 3 4 5 6 
#
# 1 0.011710 -0.002357 -0.002211 0.000000 0.000000 0.000000
# 2 -0.002357 0.009392 0.000189 0.000000 0.000000 0.000000
# 3 -0.002211 0.000189 0.023330 0.000000 0.000000 0.000000
# 4 0.000000 0.000000 0.000000 0.043360 0.000000 0.000000
# 5 0.000000 0.000000 0.000000 0.000000 0.027968 0.000000
# 6 0.000000 0.000000 0.000000 0.000000 0.000000 0.033929
#
#
# Mechanical properties :
#
#
# Convention : Reuss Voigt Hill
#
# Bulk Modulus (GPa) = 28.03137 34.72825 31.37981
# Shear Modulus (GPa) = 29.35333 31.98236 30.66784
#
# Velocity S-wave (km/s) = 3.72546 3.88872 3.80797
# Velocity P-wave (km/s) = 5.63555 6.04842 5.84563
#
# Compressibility (1/GPa) = 0.03567432
#
# Stress axis : x y z
#
# Youngs Moduli (GPa) = 85.39965 106.47046 42.86256
#
# Poissons Ratio (x) = 0.25096 0.09477
# Poissons Ratio (y) = 0.20129 -0.00811
# Poissons Ratio (z) = 0.18882 -0.02013
#
# Static dielectric constant tensor:
#      x y z
#    x 1.795860 0.000000 0.000000 
#    y 0.000000 1.753960 0.000000 
#    z 0.000000 0.000000 1.694240 
# 
# From -- ./inp_files/16899.got.cif
#   From: 2010.05.17/outbox.cif.g08.bks.cpg/sg52_9_cif.got.tgz:16899.got - 2010.06.03 12:15:38.
