data_PCOD9412906
_publ_section_title
;
Structure prediction by ZEFSAII (Michael W. Deem and Ramdas Pophale) SiO2 
 PCOD9412906
Probable space group: P N N A
;
_chemical_formula_sum "Si O2"
_cell_formula_units_Z 44
_cell_length_a 5.014168
_cell_length_b 25.729328
_cell_length_c 13.727895
_cell_angle_alpha 90.000000
_cell_angle_beta 90.000000
_cell_angle_gamma 90.000000
_cell_volume 1771.051838
_symmetry_space_group_name_H-M "P N N A"
_symmetry_group_IT_number 52
_symmetry_cell_setting 'orthorhombic'
loop_
_space_group_symop_operation_xyz
x,y,z
1/2-x,-y,z
x,1/2-y,1/2-z
1/2-x,1/2+y,1/2-z
-x,-y,-z
1/2+x,y,-z
-x,1/2+y,1/2+z
1/2+x,1/2-y,1/2+z
loop_
_atom_site_type_symbol
_atom_site_label
_atom_site_fract_x
_atom_site_fract_y
_atom_site_fract_z
Si Si1 0.812751 0.772980 0.440370
Si Si2 0.750000 0.000000 0.341691
Si Si3 0.750000 0.500000 0.697765
Si Si4 0.633452 0.144318 0.750272
Si Si5 0.634455 0.112247 0.360985
Si Si6 0.837829 0.399927 0.563006
Si Si7 0.109861 0.750000 0.250000
O O1 0.521605 0.758653 0.475697
O O2 0.831920 0.836252 0.426545
O O3 0.913298 0.745759 0.342329
O O4 0.790999 0.945323 0.398326
O O5 0.501230 0.993841 0.268594
O O6 0.790913 0.452035 0.625119
O O7 0.337744 0.125378 0.727978
O O8 0.732380 0.141828 0.860555
O O9 0.698043 0.202849 0.722041
O O10 0.837045 0.111619 0.682225
O O11 0.641506 0.397687 0.470840
#
# Coordination Sequence:
#
# PCOD9412906 Si02
#       7
#     8   4   4   8   8   8   4
#     4  11  25  45  72 105 139 177 228 286 349 419
#     4  12  20  39  68  93 126 178 238 276 338 416
#     4  12  22  37  60  91 128 182 232 278 342 422
#     4  11  23  42  63  93 128 176 235 274 345 412
#     4  11  22  42  67  95 131 174 224 282 333 411
#     4  12  23  37  56  91 135 174 220 287 341 410
#     4  10  26  46  76 100 136 186 228 292 354 412
#
# _framework density 24.843995
#
# number of rings (size 3 to 8) (size 9 to 14) (size 15 to 20)
#    0.000    0.727    3.636    4.909    0.000    8.000 
#    0.000    0.909    0.000    0.000    0.000    0.000 
#    0.000    0.000    0.000    0.000    0.000    0.000 
#
# Total GULP energy -246414.902971 kJ/mol
# GULP energy per Si atom -5600.338704 kJ/mol
# Density = 2.478745 g / cm^3
# Si number density = 24.843995 Si / 1000 Ang^3
#
#
#
# Elastic Constant Matrix: (Units=GPa)
#
#
# Indices 1 2 3 4 5 6 
#
# 1 75.1782 15.8159 8.1278 0.0000 0.0000 0.0000
# 2 15.8159 52.9556 0.2280 0.0000 0.0000 0.0000
# 3 8.1278 0.2280 52.8355 0.0000 0.0000 0.0000
# 4 0.0000 0.0000 0.0000 36.5826 0.0000 0.0000
# 5 0.0000 0.0000 0.0000 0.0000 40.8327 0.0000
# 6 0.0000 0.0000 0.0000 0.0000 0.0000 21.8924
#
#
#
# Elastic Compliance Matrix: (Units=1/GPa)
#
#
# Indices 1 2 3 4 5 6 
#
# 1 0.014446 -0.004305 -0.002204 0.000000 0.000000 0.000000
# 2 -0.004305 0.020167 0.000575 0.000000 0.000000 0.000000
# 3 -0.002204 0.000575 0.019263 0.000000 0.000000 0.000000
# 4 0.000000 0.000000 0.000000 0.027335 0.000000 0.000000
# 5 0.000000 0.000000 0.000000 0.000000 0.024490 0.000000
# 6 0.000000 0.000000 0.000000 0.000000 0.000000 0.045678
#
#
# Mechanical properties :
#
#
# Convention : Reuss Voigt Hill
#
# Bulk Modulus (GPa) = 23.80434 25.47919 24.64176
# Shear Modulus (GPa) = 28.20889 30.31470 29.26180
#
# Velocity S-wave (km/s) = 3.37329 3.49693 3.43566
# Velocity P-wave (km/s) = 4.97739 5.15583 5.06740
#
# Compressibility (1/GPa) = 0.04200915
#
# Stress axis : x y z
#
# Youngs Moduli (GPa) = 69.22509 49.58603 51.91256
#
# Poissons Ratio (x) = 0.21346 0.11440
# Poissons Ratio (y) = 0.29801 -0.02986
# Poissons Ratio (z) = 0.15255 -0.02852
#
# Static dielectric constant tensor:
#      x y z
#    x 1.926950 0.000000 0.000000 
#    y 0.000000 2.065700 0.000000 
#    z 0.000000 0.000000 1.951360 
# 
# From -- ./inp_files/23686.got.cif
#   From: 2010.05.17/outbox.cif.g08.bks.cpg/sg52_12_cif.got.tgz:23686.got - 2010.06.03 12:15:38.
