data_PCOD9412725
_publ_section_title
;
Structure prediction by ZEFSAII (Michael W. Deem and Ramdas Pophale) SiO2 
 PCOD9412725
Probable space group: P N N A
;
_chemical_formula_sum "Si O2"
_cell_formula_units_Z 36
_cell_length_a 12.797831
_cell_length_b 6.600804
_cell_length_c 14.862067
_cell_angle_alpha 90.000000
_cell_angle_beta 90.000000
_cell_angle_gamma 90.000000
_cell_volume 1255.487586
_symmetry_space_group_name_H-M "P N N A"
_symmetry_group_IT_number 52
_symmetry_cell_setting 'orthorhombic'
loop_
_space_group_symop_operation_xyz
x,y,z
1/2-x,-y,z
x,1/2-y,1/2-z
1/2-x,1/2+y,1/2-z
-x,-y,-z
1/2+x,y,-z
-x,1/2+y,1/2+z
1/2+x,1/2-y,1/2+z
loop_
_atom_site_type_symbol
_atom_site_label
_atom_site_fract_x
_atom_site_fract_y
_atom_site_fract_z
Si Si1 0.225169 0.736705 0.152710
Si Si2 0.750000 0.000000 0.373008
Si Si3 0.572443 0.250000 0.750000
Si Si4 0.536211 0.874255 0.430428
Si Si5 0.405510 0.750000 0.750000
Si Si6 0.522843 0.876862 0.927347
O O1 0.250000 0.500000 0.130608
O O2 0.169777 0.750000 0.250000
O O3 0.337377 0.830307 0.179540
O O4 0.147755 0.839566 0.083979
O O5 0.837008 0.119363 0.428948
O O6 0.676456 0.129829 0.310733
O O7 0.505229 0.130488 0.675321
O O8 0.508644 0.622182 0.451840
O O9 0.506921 0.124913 0.453380
O O10 0.470212 0.871148 0.826694
#
# Coordination Sequence:
#
# PCOD9412725 Si02
#       6
#     8   4   4   8   4   8
#     4  10  24  45  81 115 169 223 280 349 442 499
#     4  12  30  50  82 112 170 226 272 354 436 520
#     4  10  26  44  80 110 162 216 278 342 432 492
#     4  12  27  50  78 115 160 221 278 342 431 511
#     4  12  28  56  76 120 174 216 282 350 438 504
#     4  12  29  48  84 123 170 217 286 356 427 522
#
# _framework density 28.674118
#
# number of rings (size 3 to 8) (size 9 to 14) (size 15 to 20)
#    0.667    0.000    3.333    2.000   14.000    0.000 
#    0.000    0.000    0.000    0.000    0.000    0.000 
#    0.000    0.000    0.000    0.000    0.000    0.000 
#
# Total GULP energy -200559.217076 kJ/mol
# GULP energy per Si atom -5571.089363 kJ/mol
# Density = 2.860885 g / cm^3
# Si number density = 28.674118 Si / 1000 Ang^3
#
#
#
# Elastic Constant Matrix: (Units=GPa)
#
#
# Indices 1 2 3 4 5 6 
#
# 1 254.6823 89.5144 122.0357 0.0000 0.0000 0.0000
# 2 89.5144 243.4897 157.0534 0.0000 0.0000 0.0000
# 3 122.0357 157.0534 297.1581 0.0000 0.0000 0.0000
# 4 0.0000 0.0000 0.0000 107.1120 0.0000 0.0000
# 5 0.0000 0.0000 0.0000 0.0000 78.3586 0.0000
# 6 0.0000 0.0000 0.0000 0.0000 0.0000 20.7710
#
#
#
# Elastic Compliance Matrix: (Units=1/GPa)
#
#
# Indices 1 2 3 4 5 6 
#
# 1 0.004983 -0.000777 -0.001636 0.000000 0.000000 0.000000
# 2 -0.000777 0.006352 -0.003038 0.000000 0.000000 0.000000
# 3 -0.001636 -0.003038 0.005643 0.000000 0.000000 0.000000
# 4 0.000000 0.000000 0.000000 0.009336 0.000000 0.000000
# 5 0.000000 0.000000 0.000000 0.000000 0.012762 0.000000
# 6 0.000000 0.000000 0.000000 0.000000 0.000000 0.048144
#
#
# Mechanical properties :
#
#
# Convention : Reuss Voigt Hill
#
# Bulk Modulus (GPa) = 164.57245 170.28192 167.42718
# Shear Modulus (GPa) = 49.92616 69.69678 59.81147
#
# Velocity S-wave (km/s) = 4.17724 4.93551 4.57213
# Velocity P-wave (km/s) = 8.98802 9.59131 9.29456
#
# Compressibility (1/GPa) = 0.00607635
#
# Stress axis : x y z
#
# Youngs Moduli (GPa) = 200.66561 157.42498 177.21544
#
# Poissons Ratio (x) = 0.12229 0.28993
# Poissons Ratio (y) = 0.15588 0.53842
# Poissons Ratio (z) = 0.32829 0.47830
#
# Static dielectric constant tensor:
#      x y z
#    x 2.199210 0.000000 0.000000 
#    y 0.000000 2.600680 0.000000 
#    z 0.000000 0.000000 2.315290 
# 
# From -- ./inp_files/25791.got.cif
#   From: 2010.05.17/outbox.cif.g08.bks.cpg/sg52_13_cif.got.tgz:25791.got - 2010.06.03 12:15:38.
