data_PCOD9412834
_publ_section_title
;
Structure prediction by ZEFSAII (Michael W. Deem and Ramdas Pophale) SiO2 
 PCOD9412834
Probable space group: P N N A
;
_chemical_formula_sum "Si O2"
_cell_formula_units_Z 32
_cell_length_a 16.352766
_cell_length_b 15.634299
_cell_length_c 4.952267
_cell_angle_alpha 90.000000
_cell_angle_beta 90.000000
_cell_angle_gamma 90.000000
_cell_volume 1266.116554
_symmetry_space_group_name_H-M "P N N A"
_symmetry_group_IT_number 52
_symmetry_cell_setting 'orthorhombic'
loop_
_space_group_symop_operation_xyz
x,y,z
1/2-x,-y,z
x,1/2-y,1/2-z
1/2-x,1/2+y,1/2-z
-x,-y,-z
1/2+x,y,-z
-x,1/2+y,1/2+z
1/2+x,1/2-y,1/2+z
loop_
_atom_site_type_symbol
_atom_site_label
_atom_site_fract_x
_atom_site_fract_y
_atom_site_fract_z
Si Si1 0.425623 0.117351 0.580649
Si Si2 0.030352 0.158998 0.904231
Si Si3 0.829291 0.544539 0.300080
Si Si4 0.247756 0.808902 0.491588
O O1 0.483713 0.104463 0.325530
O O2 0.348873 0.171946 0.470807
O O3 0.384923 0.031913 0.694397
O O4 0.475315 0.159652 0.828148
O O5 0.042508 0.250000 0.750000
O O6 0.113937 0.109008 0.966644
O O7 0.750000 0.500000 0.436136
O O8 0.793567 0.602966 0.057360
O O9 0.257645 0.750000 0.750000
O O10 0.277041 0.750000 0.250000
#
# Coordination Sequence:
#
# PCOD9412834 Si02
#       4
#     8   8   8   8
#     4  11  24  44  69  99 138 184 234 291 354 423
#     4  12  24  43  70 100 134 181 237 294 351 425
#     4  10  25  45  68 100 140 183 230 291 362 431
#     4  11  23  42  68 101 140 184 233 292 357 425
#
# _framework density 25.274134
#
# number of rings (size 3 to 8) (size 9 to 14) (size 15 to 20)
#    0.000    1.000    0.000    6.750    0.000    6.000 
#    0.000   13.750    0.000    0.000    0.000    0.000 
#    0.000    0.000    0.000    0.000    0.000    0.000 
#
# Total GULP energy -179317.701750 kJ/mol
# GULP energy per Si atom -5603.678180 kJ/mol
# Density = 2.521661 g / cm^3
# Si number density = 25.274134 Si / 1000 Ang^3
#
#
#
# Elastic Constant Matrix: (Units=GPa)
#
#
# Indices 1 2 3 4 5 6 
#
# 1 128.5983 67.9012 16.2668 0.0000 0.0000 0.0000
# 2 67.9012 130.9942 12.6912 0.0000 0.0000 0.0000
# 3 16.2668 12.6912 74.3549 0.0000 0.0000 0.0000
# 4 0.0000 0.0000 0.0000 9.2107 0.0000 0.0000
# 5 0.0000 0.0000 0.0000 0.0000 17.3707 0.0000
# 6 0.0000 0.0000 0.0000 0.0000 0.0000 29.5669
#
#
#
# Elastic Compliance Matrix: (Units=1/GPa)
#
#
# Indices 1 2 3 4 5 6 
#
# 1 0.010856 -0.005488 -0.001438 0.000000 0.000000 0.000000
# 2 -0.005488 0.010536 -0.000598 0.000000 0.000000 0.000000
# 3 -0.001438 -0.000598 0.013866 0.000000 0.000000 0.000000
# 4 0.000000 0.000000 0.000000 0.108569 0.000000 0.000000
# 5 0.000000 0.000000 0.000000 0.000000 0.057568 0.000000
# 6 0.000000 0.000000 0.000000 0.000000 0.000000 0.033822
#
#
# Mechanical properties :
#
#
# Convention : Reuss Voigt Hill
#
# Bulk Modulus (GPa) = 49.48005 58.62954 54.05479
# Shear Modulus (GPa) = 19.45519 27.03556 23.24537
#
# Velocity S-wave (km/s) = 2.77748 3.27416 3.03599
# Velocity P-wave (km/s) = 5.46861 6.12710 5.80720
#
# Compressibility (1/GPa) = 0.02021016
#
# Stress axis : x y z
#
# Youngs Moduli (GPa) = 92.11788 94.90891 72.12043
#
# Poissons Ratio (x) = 0.52083 0.10373
# Poissons Ratio (y) = 0.50552 0.04312
# Poissons Ratio (z) = 0.13249 0.05674
#
# Static dielectric constant tensor:
#      x y z
#    x 2.050480 0.000000 0.000000 
#    y 0.000000 2.035650 0.000000 
#    z 0.000000 0.000000 1.925670 
# 
# From -- ./inp_files/2009.got.cif
#   From: 2010.05.17/outbox.cif.g08.bks.cpg/sg52_2_cif.got.tgz:2009.got - 2010.06.03 12:15:38.
