data_PCOD9412796
_publ_section_title
;
Structure prediction by ZEFSAII (Michael W. Deem and Ramdas Pophale) SiO2 
 PCOD9412796
Probable space group: P N N A
;
_chemical_formula_sum "Si O2"
_cell_formula_units_Z 64
_cell_length_a 17.703020
_cell_length_b 8.912141
_cell_length_c 16.100961
_cell_angle_alpha 90.000000
_cell_angle_beta 90.000000
_cell_angle_gamma 90.000000
_cell_volume 2540.277766
_symmetry_space_group_name_H-M "P N N A"
_symmetry_group_IT_number 52
_symmetry_cell_setting 'orthorhombic'
loop_
_space_group_symop_operation_xyz
x,y,z
1/2-x,-y,z
x,1/2-y,1/2-z
1/2-x,1/2+y,1/2-z
-x,-y,-z
1/2+x,y,-z
-x,1/2+y,1/2+z
1/2+x,1/2-y,1/2+z
loop_
_atom_site_type_symbol
_atom_site_label
_atom_site_fract_x
_atom_site_fract_y
_atom_site_fract_z
Si Si1 0.538545 0.906202 0.135276
Si Si2 0.860821 0.101889 0.694602
Si Si3 0.234887 0.336548 0.882252
Si Si4 0.002198 0.551561 0.904516
Si Si5 0.757842 0.727636 0.930553
Si Si6 0.822402 0.093862 0.054519
Si Si7 0.901150 0.888523 0.281838
Si Si8 0.382357 0.629374 0.317809
O O1 0.593660 0.963019 0.062442
O O2 0.453709 0.962140 0.147715
O O3 0.334297 0.981051 0.238072
O O4 0.586696 0.975903 0.214131
O O5 0.875642 0.250000 0.750000
O O6 0.930649 0.022929 0.644755
O O7 0.795725 0.133291 0.628088
O O8 0.250000 0.500000 0.847741
O O9 0.311051 0.238372 0.885413
O O10 0.167153 0.285183 0.824308
O O11 0.216107 0.340892 0.980680
O O12 0.017839 0.729678 0.886745
O O13 0.072831 0.468715 0.864735
O O14 0.000000 0.500000 0.000000
O O15 0.830819 0.789734 0.884791
O O16 0.700723 0.857371 0.962920
O O17 0.750000 0.000000 0.083361
O O18 0.951626 0.750000 0.250000
O O19 0.412494 0.750000 0.250000
#
# Coordination Sequence:
#
# PCOD9412796 Si02
#       8
#     8   8   8   8   8   8   8   8
#     4  12  25  51  79 114 165 214 270 348 415 499
#     4  12  27  49  79 119 157 215 270 346 420 497
#     4  10  25  43  72 111 148 208 265 325 393 482
#     4  12  27  48  79 111 154 215 273 332 413 496
#     4  10  28  48  77 112 167 202 284 329 421 494
#     4  10  24  48  76 111 155 213 272 330 411 490
#     4  12  26  47  75 114 159 204 267 337 402 492
#     4  12  26  46  77 116 159 210 266 340 419 493
#
# _framework density 25.194095999999998
#
# number of rings (size 3 to 8) (size 9 to 14) (size 15 to 20)
#    0.750    0.000    2.500    3.375    7.000    2.500 
#    0.000    1.250    0.000    0.000    0.000    0.000 
#    0.000    0.000    0.000    0.000    0.000    0.000 
#
# Total GULP energy -356397.185442 kJ/mol
# GULP energy per Si atom -5568.706023 kJ/mol
# Density = 2.513675 g / cm^3
# Si number density = 25.194096 Si / 1000 Ang^3
#
#
#
# Elastic Constant Matrix: (Units=GPa)
#
#
# Indices 1 2 3 4 5 6 
#
# 1 139.1337 1.9490 42.1008 0.0000 0.0000 0.0000
# 2 1.9490 90.1822 34.1164 0.0000 0.0000 0.0000
# 3 42.1008 34.1164 128.3250 0.0000 0.0000 0.0000
# 4 0.0000 0.0000 0.0000 -36.0371 0.0000 0.0000
# 5 0.0000 0.0000 0.0000 0.0000 6.6005 0.0000
# 6 0.0000 0.0000 0.0000 0.0000 0.0000 29.4771
#
#
#
# Elastic Compliance Matrix: (Units=1/GPa)
#
#
# Indices 1 2 3 4 5 6 
#
# 1 0.008047 0.000917 -0.002884 0.000000 0.000000 0.000000
# 2 0.000917 0.012433 -0.003606 0.000000 0.000000 0.000000
# 3 -0.002884 -0.003606 0.009698 0.000000 0.000000 0.000000
# 4 0.000000 0.000000 0.000000 -0.027749 0.000000 0.000000
# 5 0.000000 0.000000 0.000000 0.000000 0.151505 0.000000
# 6 0.000000 0.000000 0.000000 0.000000 0.000000 0.033925
#
#
# Mechanical properties :
#
#
# Convention : Reuss Voigt Hill
#
# Bulk Modulus (GPa) = 52.54424 57.10814 54.82619
# Shear Modulus (GPa) = 24.34888 18.63974 21.49431
#
# Velocity S-wave (km/s) = 3.11215 2.72296 2.92404
# Velocity P-wave (km/s) = 5.81507 5.70986 5.76271
#
# Compressibility (1/GPa) = 0.01903158
#
# Stress axis : x y z
#
# Youngs Moduli (GPa) = 124.26781 80.43018 103.11778
#
# Poissons Ratio (x) = -0.07376 0.29738
# Poissons Ratio (y) = -0.11396 0.37188
# Poissons Ratio (z) = 0.35838 0.29006
#
# Static dielectric constant tensor:
#      x y z
#    x -48.222730 0.000000 0.000000 
#    y 0.000000 2.253840 0.000000 
#    z 0.000000 0.000000 1.973240 
# 
# From -- ./inp_files/28322.got.cif
#   From: 2010.05.17/outbox.cif.g08.bks.cpg/sg52_15_cif.got.tgz:28322.got - 2010.06.03 12:15:38.
