data_PCOD9412738
_publ_section_title
;
Structure prediction by ZEFSAII (Michael W. Deem and Ramdas Pophale) SiO2 
 PCOD9412738
Probable space group: P N N A
;
_chemical_formula_sum "Si O2"
_cell_formula_units_Z 32
_cell_length_a 5.185859
_cell_length_b 8.862438
_cell_length_c 28.541987
_cell_angle_alpha 90.000000
_cell_angle_beta 90.000000
_cell_angle_gamma 90.000000
_cell_volume 1311.771281
_symmetry_space_group_name_H-M "P N N A"
_symmetry_group_IT_number 52
_symmetry_cell_setting 'orthorhombic'
loop_
_space_group_symop_operation_xyz
x,y,z
1/2-x,-y,z
x,1/2-y,1/2-z
1/2-x,1/2+y,1/2-z
-x,-y,-z
1/2+x,y,-z
-x,1/2+y,1/2+z
1/2+x,1/2-y,1/2+z
loop_
_atom_site_type_symbol
_atom_site_label
_atom_site_fract_x
_atom_site_fract_y
_atom_site_fract_z
Si Si1 0.368449 0.332044 0.299023
Si Si2 0.250000 0.000000 0.859061
Si Si3 0.250000 0.000000 0.560742
Si Si4 0.006130 0.211875 0.972713
Si Si5 0.887562 0.747180 0.609159
O O1 0.250000 0.500000 0.292871
O O2 0.393332 0.250000 0.250000
O O3 0.631801 0.372829 0.325214
O O4 0.208022 0.236571 0.337322
O O5 0.444803 0.094998 0.890056
O O6 0.424077 0.888817 0.530418
O O7 0.058276 0.888058 0.590546
O O8 0.858195 0.204896 0.923050
O O9 0.788587 0.159498 0.009673
#
# Coordination Sequence:
#
# PCOD9412738 Si02
#       5
#     8   4   4   8   8
#     4  10  24  46  72 102 142 186 238 297 361 433
#     4  10  24  48  69  98 150 188 232 295 366 434
#     4  12  24  42  73 106 144 186 248 303 360 422
#     4  12  25  43  70 107 148 192 247 304 359 420
#     4  11  25  44  71 104 147 188 237 299 359 431
#
# _framework density 24.394494999999999
#
# number of rings (size 3 to 8) (size 9 to 14) (size 15 to 20)
#    0.000    1.000    2.500    3.000    0.000    8.000 
#    0.000    3.750    0.000    0.000    0.000    0.000 
#    0.000    0.000    0.000    0.000    0.000    0.000 
#
# Total GULP energy -178637.622122 kJ/mol
# GULP energy per Si atom -5582.425691 kJ/mol
# Density = 2.433897 g / cm^3
# Si number density = 24.394495 Si / 1000 Ang^3
#
#
#
# Elastic Constant Matrix: (Units=GPa)
#
#
# Indices 1 2 3 4 5 6 
#
# 1 139.8605 22.9952 38.7896 0.0000 0.0000 0.0000
# 2 22.9952 102.5573 36.3469 0.0000 0.0000 0.0000
# 3 38.7896 36.3469 136.3983 0.0000 0.0000 0.0000
# 4 0.0000 0.0000 0.0000 36.5261 0.0000 0.0000
# 5 0.0000 0.0000 0.0000 0.0000 27.3456 0.0000
# 6 0.0000 0.0000 0.0000 0.0000 0.0000 47.7769
#
#
#
# Elastic Compliance Matrix: (Units=1/GPa)
#
#
# Indices 1 2 3 4 5 6 
#
# 1 0.007868 -0.001072 -0.001952 0.000000 0.000000 0.000000
# 2 -0.001072 0.010914 -0.002603 0.000000 0.000000 0.000000
# 3 -0.001952 -0.002603 0.008580 0.000000 0.000000 0.000000
# 4 0.000000 0.000000 0.000000 0.027378 0.000000 0.000000
# 5 0.000000 0.000000 0.000000 0.000000 0.036569 0.000000
# 6 0.000000 0.000000 0.000000 0.000000 0.000000 0.020931
#
#
# Mechanical properties :
#
#
# Convention : Reuss Voigt Hill
#
# Bulk Modulus (GPa) = 62.08528 63.89771 62.99149
# Shear Modulus (GPa) = 38.80107 41.04198 39.92153
#
# Velocity S-wave (km/s) = 3.99252 4.10619 4.04975
# Velocity P-wave (km/s) = 6.83808 6.98079 6.90980
#
# Compressibility (1/GPa) = 0.01610688
#
# Stress axis : x y z
#
# Youngs Moduli (GPa) = 127.10385 91.62784 116.54734
#
# Poissons Ratio (x) = 0.09826 0.22746
# Poissons Ratio (y) = 0.13630 0.30341
# Poissons Ratio (z) = 0.24806 0.23853
#
# Static dielectric constant tensor:
#      x y z
#    x 2.075580 0.000000 0.000000 
#    y 0.000000 1.927780 0.000000 
#    z 0.000000 0.000000 1.933360 
# 
# From -- ./inp_files/43585.got.cif
#   From: 2010.05.17/outbox.cif.g08.bks.cpg/sg52_22_cif.got.tgz:43585.got - 2010.06.03 12:15:38.
