data_PCOD9412612
_publ_section_title
;
Structure prediction by ZEFSAII (Michael W. Deem and Ramdas Pophale) SiO2 
 PCOD9412612
Probable space group: P N N A
;
_chemical_formula_sum "Si O2"
_cell_formula_units_Z 60
_cell_length_a 8.595247
_cell_length_b 27.494636
_cell_length_c 11.562923
_cell_angle_alpha 90.000000
_cell_angle_beta 90.000000
_cell_angle_gamma 90.000000
_cell_volume 2732.586821
_symmetry_space_group_name_H-M "P N N A"
_symmetry_group_IT_number 52
_symmetry_cell_setting 'orthorhombic'
loop_
_space_group_symop_operation_xyz
x,y,z
1/2-x,-y,z
x,1/2-y,1/2-z
1/2-x,1/2+y,1/2-z
-x,-y,-z
1/2+x,y,-z
-x,1/2+y,1/2+z
1/2+x,1/2-y,1/2+z
loop_
_atom_site_type_symbol
_atom_site_label
_atom_site_fract_x
_atom_site_fract_y
_atom_site_fract_z
Si Si1 0.845588 0.134462 0.418261
Si Si2 0.593556 0.533187 0.656532
Si Si3 0.283011 0.390110 0.667737
Si Si4 0.106297 0.963832 0.427284
Si Si5 0.599608 0.737726 0.624773
Si Si6 0.250000 0.500000 0.642556
Si Si7 0.615159 0.296192 0.945268
Si Si8 0.461184 0.369141 0.457498
O O1 0.763120 0.128932 0.295782
O O2 0.871029 0.085417 0.496007
O O3 0.737419 0.170046 0.489331
O O4 0.003294 0.163660 0.388691
O O5 0.750000 0.500000 0.644757
O O6 0.558625 0.544666 0.793045
O O7 0.429107 0.513764 0.603772
O O8 0.627622 0.583679 0.592479
O O9 0.293580 0.447577 0.692006
O O10 0.431604 0.371760 0.594874
O O11 0.136866 0.375791 0.587741
O O12 0.250000 0.000000 0.412911
O O13 0.000000 0.000000 0.500000
O O14 0.531049 0.750000 0.750000
O O15 0.773296 0.759751 0.622936
O O16 0.492150 0.764231 0.529903
O O17 0.600353 0.681021 0.594829
#
# Coordination Sequence:
#
# PCOD9412612 Si02
#       8
#     8   8   8   8   8   4   8   8
#     4  11  24  43  70 102 141 177 233 287 360 426
#     4  10  25  44  70 106 144 192 242 292 359 438
#     4  11  26  43  69 100 142 188 236 288 350 424
#     4  11  24  39  66 102 139 179 228 287 358 436
#     4  11  24  46  71  98 136 177 233 293 359 415
#     4  10  24  42  68 100 148 192 232 296 348 418
#     4  10  25  43  69 103 131 179 229 295 356 427
#     4  11  26  44  72  98 139 186 240 292 355 422
#
# _framework density 21.957215999999999
#
# number of rings (size 3 to 8) (size 9 to 14) (size 15 to 20)
#    0.000    1.333    0.000    3.200   15.867    4.267 
#    0.000    2.667    0.000    0.000    0.000    0.000 
#    0.000    0.000    0.000    0.000    0.000    0.000 
#
# Total GULP energy -334305.480630 kJ/mol
# GULP energy per Si atom -5571.758011 kJ/mol
# Density = 2.190724 g / cm^3
# Si number density = 21.957216 Si / 1000 Ang^3
#
#
#
# Elastic Constant Matrix: (Units=GPa)
#
#
# Indices 1 2 3 4 5 6 
#
# 1 83.2431 36.5146 16.6661 0.0000 0.0000 0.0000
# 2 36.5146 129.6181 11.7626 0.0000 0.0000 0.0000
# 3 16.6661 11.7626 78.2178 0.0000 0.0000 0.0000
# 4 0.0000 0.0000 0.0000 55.9074 0.0000 0.0000
# 5 0.0000 0.0000 0.0000 0.0000 34.6516 0.0000
# 6 0.0000 0.0000 0.0000 0.0000 0.0000 22.6952
#
#
#
# Elastic Compliance Matrix: (Units=1/GPa)
#
#
# Indices 1 2 3 4 5 6 
#
# 1 0.014155 -0.003765 -0.002450 0.000000 0.000000 0.000000
# 2 -0.003765 0.008823 -0.000525 0.000000 0.000000 0.000000
# 3 -0.002450 -0.000525 0.013386 0.000000 0.000000 0.000000
# 4 0.000000 0.000000 0.000000 0.017887 0.000000 0.000000
# 5 0.000000 0.000000 0.000000 0.000000 0.028859 0.000000
# 6 0.000000 0.000000 0.000000 0.000000 0.000000 0.044062
#
#
# Mechanical properties :
#
#
# Convention : Reuss Voigt Hill
#
# Bulk Modulus (GPa) = 43.69741 46.77397 45.23569
# Shear Modulus (GPa) = 33.72011 37.72656 35.72333
#
# Velocity S-wave (km/s) = 3.92308 4.14960 4.03792
# Velocity P-wave (km/s) = 6.36122 6.65638 6.51047
#
# Compressibility (1/GPa) = 0.02288465
#
# Stress axis : x y z
#
# Youngs Moduli (GPa) = 70.64569 113.33633 74.70662
#
# Poissons Ratio (x) = 0.42675 0.18302
# Poissons Ratio (y) = 0.26600 0.03919
# Poissons Ratio (z) = 0.17307 0.05945
#
# Static dielectric constant tensor:
#      x y z
#    x 1.859260 0.000000 0.000000 
#    y 0.000000 1.787500 0.000000 
#    z 0.000000 0.000000 2.323970 
# 
# From -- ./inp_files/17127.got.cif
#   From: 2010.05.17/outbox.cif.g08.bks.cpg/sg52_9_cif.got.tgz:17127.got - 2010.06.03 12:15:38.
