data_PCOD9412470
_publ_section_title
;
Structure prediction by ZEFSAII (Michael W. Deem and Ramdas Pophale) SiO2 
 PCOD9412470
Probable space group: P N N A
;
_chemical_formula_sum "Si O2"
_cell_formula_units_Z 28
_cell_length_a 13.579765
_cell_length_b 16.039828
_cell_length_c 5.271360
_cell_angle_alpha 90.000000
_cell_angle_beta 90.000000
_cell_angle_gamma 90.000000
_cell_volume 1148.192321
_symmetry_space_group_name_H-M "P N N A"
_symmetry_group_IT_number 52
_symmetry_cell_setting 'orthorhombic'
loop_
_space_group_symop_operation_xyz
x,y,z
1/2-x,-y,z
x,1/2-y,1/2-z
1/2-x,1/2+y,1/2-z
-x,-y,-z
1/2+x,y,-z
-x,1/2+y,1/2+z
1/2+x,1/2-y,1/2+z
loop_
_atom_site_type_symbol
_atom_site_label
_atom_site_fract_x
_atom_site_fract_y
_atom_site_fract_z
Si Si1 0.324959 0.386825 0.762466
Si Si2 0.616458 0.530268 0.734589
Si Si3 0.837211 0.750000 0.250000
Si Si4 0.528536 0.362963 0.562304
O O1 0.316108 0.433388 0.492664
O O2 0.236336 0.325026 0.820374
O O3 0.430904 0.342164 0.721344
O O4 0.341698 0.448610 0.993662
O O5 0.590727 0.433881 0.704103
O O6 0.516410 0.584383 0.679343
O O7 0.907146 0.713325 0.467507
#
# Coordination Sequence:
#
# PCOD9412470 Si02
#       4
#     8   8   4   8
#     4  10  23  45  69 106 146 189 255 310 365 460
#     4   9  21  48  74  94 149 198 251 307 363 456
#     4  12  26  44  74 122 152 202 248 326 412 426
#     4   9  23  45  75 103 145 199 248 313 374 453
#
# _framework density 24.38616
#
# number of rings (size 3 to 8) (size 9 to 14) (size 15 to 20)
#    1.714    0.571    0.000    0.857    4.000    2.286 
#   10.286    2.857    0.000    0.000    0.000    0.000 
#    0.000    0.000    0.000    0.000    0.000    0.000 
#
# Total GULP energy -156521.321231 kJ/mol
# GULP energy per Si atom -5590.047187 kJ/mol
# Density = 2.433066 g / cm^3
# Si number density = 24.386160 Si / 1000 Ang^3
#
#
#
# Elastic Constant Matrix: (Units=GPa)
#
#
# Indices 1 2 3 4 5 6 
#
# 1 172.1484 86.4457 54.0660 0.0000 0.0000 0.0000
# 2 86.4457 112.3620 39.6344 0.0000 0.0000 0.0000
# 3 54.0660 39.6344 113.4012 0.0000 0.0000 0.0000
# 4 0.0000 0.0000 0.0000 25.8760 0.0000 0.0000
# 5 0.0000 0.0000 0.0000 0.0000 508.7773 0.0000
# 6 0.0000 0.0000 0.0000 0.0000 0.0000 55.8135
#
#
#
# Elastic Compliance Matrix: (Units=1/GPa)
#
#
# Indices 1 2 3 4 5 6 
#
# 1 0.009995 -0.006854 -0.002370 0.000000 0.000000 0.000000
# 2 -0.006854 0.014851 -0.001923 0.000000 0.000000 0.000000
# 3 -0.002370 -0.001923 0.010620 0.000000 0.000000 0.000000
# 4 0.000000 0.000000 0.000000 0.038646 0.000000 0.000000
# 5 0.000000 0.000000 0.000000 0.000000 0.001965 0.000000
# 6 0.000000 0.000000 0.000000 0.000000 0.000000 0.017917
#
#
# Mechanical properties :
#
#
# Convention : Reuss Voigt Hill
#
# Bulk Modulus (GPa) = 75.91151 84.24487 80.07819
# Shear Modulus (GPa) = 41.43267 132.61108 87.02187
#
# Velocity S-wave (km/s) = 4.12639 7.38226 5.98017
# Velocity P-wave (km/s) = 7.34162 10.35784 8.97731
#
# Compressibility (1/GPa) = 0.01317323
#
# Stress axis : x y z
#
# Youngs Moduli (GPa) = 100.05206 67.33606 94.16041
#
# Poissons Ratio (x) = 0.46149 0.22314
# Poissons Ratio (y) = 0.68571 0.18106
# Poissons Ratio (z) = 0.23711 0.12948
#
# Static dielectric constant tensor:
#      x y z
#    x 2.020510 0.000000 0.000000 
#    y 0.000000 1.903570 0.000000 
#    z 0.000000 0.000000 1.910160 
# 
# From -- ./inp_files/1865.got.cif
#   From: 2010.05.17/outbox.cif.g08.bks.cpg/sg52_1_cif.got.tgz:1865.got - 2010.06.03 12:15:38.
