data_PCOD9412357
_publ_section_title
;
Structure prediction by ZEFSAII (Michael W. Deem and Ramdas Pophale) SiO2 
 PCOD9412357
Probable space group: P N N A
;
_chemical_formula_sum "Si O2"
_cell_formula_units_Z 40
_cell_length_a 13.843498
_cell_length_b 8.398869
_cell_length_c 15.266757
_cell_angle_alpha 90.000000
_cell_angle_beta 90.000000
_cell_angle_gamma 90.000000
_cell_volume 1775.061656
_symmetry_space_group_name_H-M "P N N A"
_symmetry_group_IT_number 52
_symmetry_cell_setting 'orthorhombic'
loop_
_space_group_symop_operation_xyz
x,y,z
1/2-x,-y,z
x,1/2-y,1/2-z
1/2-x,1/2+y,1/2-z
-x,-y,-z
1/2+x,y,-z
-x,1/2+y,1/2+z
1/2+x,1/2-y,1/2+z
loop_
_atom_site_type_symbol
_atom_site_label
_atom_site_fract_x
_atom_site_fract_y
_atom_site_fract_z
Si Si1 0.340489 0.115219 0.598346
Si Si2 0.798988 0.171742 0.953554
Si Si3 0.006815 0.703567 0.667681
Si Si4 0.892602 0.669914 0.994687
Si Si5 0.999482 0.328983 0.653471
O O1 0.324048 0.288879 0.555006
O O2 0.408297 0.162326 0.677780
O O3 0.250000 0.000000 0.620612
O O4 0.392517 0.013751 0.521793
O O5 0.892971 0.188907 0.892398
O O6 0.750000 0.000000 0.942119
O O7 0.711133 0.297189 0.949313
O O8 0.939635 0.750000 0.750000
O O9 0.963199 0.758358 0.575985
O O10 0.019482 0.516183 0.661749
O O11 0.921067 0.755067 0.086698
O O12 0.001405 0.250000 0.750000
#
# Coordination Sequence:
#
# PCOD9412357 Si02
#       5
#     8   8   8   8   8
#     4  10  23  42  70 101 137 186 243 294 361 433
#     4  11  22  43  69 104 142 187 238 292 364 429
#     4  12  24  41  70 103 141 186 237 294 364 436
#     4  11  23  45  73  99 144 190 237 295 364 434
#     4  12  26  45  74 107 146 192 245 299 366 438
#
# _framework density 22.534428999999999
#
# number of rings (size 3 to 8) (size 9 to 14) (size 15 to 20)
#    0.000    0.800    4.000    3.600    2.800    0.800 
#    0.000    9.000    0.000    0.000    0.000    0.000 
#    0.000    0.000    0.000    0.000    0.000    0.000 
#
# Total GULP energy -222709.950512 kJ/mol
# GULP energy per Si atom -5567.748763 kJ/mol
# Density = 2.248314 g / cm^3
# Si number density = 22.534429 Si / 1000 Ang^3
#
#
#
# Elastic Constant Matrix: (Units=GPa)
#
#
# Indices 1 2 3 4 5 6 
#
# 1 106.3928 41.0773 33.4135 0.0000 0.0000 0.0000
# 2 41.0773 135.4668 63.4914 0.0000 0.0000 0.0000
# 3 33.4135 63.4914 114.9617 0.0000 0.0000 0.0000
# 4 0.0000 0.0000 0.0000 36.9578 0.0000 0.0000
# 5 0.0000 0.0000 0.0000 0.0000 7.4894 0.0000
# 6 0.0000 0.0000 0.0000 0.0000 0.0000 30.9632
#
#
#
# Elastic Compliance Matrix: (Units=1/GPa)
#
#
# Indices 1 2 3 4 5 6 
#
# 1 0.010919 -0.002460 -0.001815 0.000000 0.000000 0.000000
# 2 -0.002460 0.010514 -0.005092 0.000000 0.000000 0.000000
# 3 -0.001815 -0.005092 0.012038 0.000000 0.000000 0.000000
# 4 0.000000 0.000000 0.000000 0.027058 0.000000 0.000000
# 5 0.000000 0.000000 0.000000 0.000000 0.133522 0.000000
# 6 0.000000 0.000000 0.000000 0.000000 0.000000 0.032296
#
#
# Mechanical properties :
#
#
# Convention : Reuss Voigt Hill
#
# Bulk Modulus (GPa) = 67.85366 70.30951 69.08158
# Shear Modulus (GPa) = 20.00045 29.67136 24.83591
#
# Velocity S-wave (km/s) = 2.98241 3.63259 3.32344
# Velocity P-wave (km/s) = 6.48353 6.99020 6.74163
#
# Compressibility (1/GPa) = 0.01473760
#
# Stress axis : x y z
#
# Youngs Moduli (GPa) = 91.58342 95.10764 83.06933
#
# Poissons Ratio (x) = 0.23400 0.15075
# Poissons Ratio (y) = 0.22533 0.42297
# Poissons Ratio (z) = 0.16620 0.48427
#
# Static dielectric constant tensor:
#      x y z
#    x 2.088070 0.000000 0.000000 
#    y 0.000000 1.847370 0.000000 
#    z 0.000000 0.000000 1.846450 
# 
# From -- ./inp_files/26903.got.cif
#   From: 2010.05.17/outbox.cif.g08.bks.cpg/sg52_14_cif.got.tgz:26903.got - 2010.06.03 12:15:38.
