data_PCOD9412272
_publ_section_title
;
Structure prediction by ZEFSAII (Michael W. Deem and Ramdas Pophale) SiO2 
 PCOD9412272
Probable space group: P N N A
;
_chemical_formula_sum "Si O2"
_cell_formula_units_Z 40
_cell_length_a 16.386068
_cell_length_b 10.408033
_cell_length_c 10.173624
_cell_angle_alpha 90.000000
_cell_angle_beta 90.000000
_cell_angle_gamma 90.000000
_cell_volume 1735.078371
_symmetry_space_group_name_H-M "P N N A"
_symmetry_group_IT_number 52
_symmetry_cell_setting 'orthorhombic'
loop_
_space_group_symop_operation_xyz
x,y,z
1/2-x,-y,z
x,1/2-y,1/2-z
1/2-x,1/2+y,1/2-z
-x,-y,-z
1/2+x,y,-z
-x,1/2+y,1/2+z
1/2+x,1/2-y,1/2+z
loop_
_atom_site_type_symbol
_atom_site_label
_atom_site_fract_x
_atom_site_fract_y
_atom_site_fract_z
Si Si1 0.737862 0.144799 0.007773
Si Si2 0.581527 0.123667 0.577281
Si Si3 0.450622 0.872225 0.961523
Si Si4 0.070679 0.007191 0.692387
Si Si5 0.671207 0.750000 0.250000
Si Si6 0.719207 0.250000 0.750000
O O1 0.641117 0.141978 0.985254
O O2 0.772898 0.235301 0.120362
O O3 0.750000 0.000000 0.052386
O O4 0.771439 0.180815 0.863724
O O5 0.519751 0.240395 0.528753
O O6 0.521325 0.030522 0.654604
O O7 0.657678 0.155014 0.671502
O O8 0.610521 0.062802 0.439951
O O9 0.436194 0.888026 0.806869
O O10 0.500000 0.000000 0.000000
O O11 0.117414 0.879587 0.740614
#
# Coordination Sequence:
#
# PCOD9412272 Si02
#       6
#     8   8   8   8   4   4
#     4  11  25  41  65  99 131 181 222 280 353 412
#     4  10  23  40  67  98 130 180 227 282 346 407
#     4  11  22  41  68  92 134 179 228 279 340 413
#     4  11  22  41  66 101 132 174 229 290 345 414
#     4  12  25  42  70 101 138 176 236 294 354 427
#     4  10  23  42  62  85 134 172 218 272 334 409
#
# _framework density 23.053712999999998
#
# number of rings (size 3 to 8) (size 9 to 14) (size 15 to 20)
#    0.000    1.200    2.000    4.800    5.600    1.600 
#    0.000    0.000    0.000    0.000    0.000    0.000 
#    0.000    0.000    0.000    0.000    0.000    0.000 
#
# Total GULP energy -223144.282438 kJ/mol
# GULP energy per Si atom -5578.607061 kJ/mol
# Density = 2.300124 g / cm^3
# Si number density = 23.053713 Si / 1000 Ang^3
#
#
#
# Elastic Constant Matrix: (Units=GPa)
#
#
# Indices 1 2 3 4 5 6 
#
# 1 18.9919 -7.4993 7.5296 0.0000 0.0000 0.0000
# 2 -7.4993 67.0893 24.4861 0.0000 0.0000 0.0000
# 3 7.5296 24.4861 114.2039 0.0000 0.0000 0.0000
# 4 0.0000 0.0000 0.0000 42.9912 0.0000 0.0000
# 5 0.0000 0.0000 0.0000 0.0000 23.7048 0.0000
# 6 0.0000 0.0000 0.0000 0.0000 0.0000 -6.2853
#
#
#
# Elastic Compliance Matrix: (Units=1/GPa)
#
#
# Indices 1 2 3 4 5 6 
#
# 1 0.058301 0.008592 -0.005686 0.000000 0.000000 0.000000
# 2 0.008592 0.017437 -0.004305 0.000000 0.000000 0.000000
# 3 -0.005686 -0.004305 0.010054 0.000000 0.000000 0.000000
# 4 0.000000 0.000000 0.000000 0.023261 0.000000 0.000000
# 5 0.000000 0.000000 0.000000 0.000000 0.042186 0.000000
# 6 0.000000 0.000000 0.000000 0.000000 0.000000 -0.159101
#
#
# Mechanical properties :
#
#
# Convention : Reuss Voigt Hill
#
# Bulk Modulus (GPa) = 12.04896 27.70199 19.87547
# Shear Modulus (GPa) = 221.23351 23.80005 122.51678
#
# Velocity S-wave (km/s) = 9.80677 3.21654 7.29791
# Velocity P-wave (km/s) = 11.55284 5.08303 8.92483
#
# Compressibility (1/GPa) = 0.08299473
#
# Stress axis : x y z
#
# Youngs Moduli (GPa) = 17.15229 57.34849 99.46072
#
# Poissons Ratio (x) = -0.49276 0.56555
# Poissons Ratio (y) = -0.14738 0.42820
# Poissons Ratio (z) = 0.09753 0.24689
#
# Static dielectric constant tensor:
#      x y z
#    x 20.399250 0.000000 0.000000 
#    y 0.000000 3.202600 0.000000 
#    z 0.000000 0.000000 1.921500 
# 
# From -- ./inp_files/11671.got.cif
#   From: 2010.05.17/outbox.cif.g08.bks.cpg/sg52_6_cif.got.tgz:11671.got - 2010.06.03 12:15:38.
