data_PCOD9412080
_publ_section_title
;
Structure prediction by ZEFSAII (Michael W. Deem and Ramdas Pophale) SiO2 
 PCOD9412080
Probable space group: P N N A
;
_chemical_formula_sum "Si O2"
_cell_formula_units_Z 24
_cell_length_a 12.596535
_cell_length_b 12.128837
_cell_length_c 6.456620
_cell_angle_alpha 90.000000
_cell_angle_beta 90.000000
_cell_angle_gamma 90.000000
_cell_volume 986.450925
_symmetry_space_group_name_H-M "P N N A"
_symmetry_group_IT_number 52
_symmetry_cell_setting 'orthorhombic'
loop_
_space_group_symop_operation_xyz
x,y,z
1/2-x,-y,z
x,1/2-y,1/2-z
1/2-x,1/2+y,1/2-z
-x,-y,-z
1/2+x,y,-z
-x,1/2+y,1/2+z
1/2+x,1/2-y,1/2+z
loop_
_atom_site_type_symbol
_atom_site_label
_atom_site_fract_x
_atom_site_fract_y
_atom_site_fract_z
Si Si1 0.258291 0.619295 0.115949
Si Si2 0.998153 0.612450 0.872251
Si Si3 0.128459 0.810709 0.998460
O O1 0.250000 0.500000 0.011670
O O2 0.377413 0.629356 0.196288
O O3 0.173142 0.622996 0.305359
O O4 0.225852 0.722830 0.975041
O O5 0.033608 0.719082 0.007690
O O6 0.081668 0.612937 0.681784
O O7 0.000000 0.500000 0.000000
#
# Coordination Sequence:
#
# PCOD9412080 Si02
#       3
#     8   8   8
#     4  11  23  46  71 105 153 193 260 319 382 469
#     4  11  23  47  74 107 152 201 256 324 393 462
#     4  10  22  43  72 108 144 198 251 315 385 454
#
# _framework density 24.329643999999998
#
# number of rings (size 3 to 8) (size 9 to 14) (size 15 to 20)
#    0.000    1.333    3.333    4.000    0.000    1.333 
#   12.000   13.333    0.000    0.000    0.000    0.000 
#    0.000    0.000    0.000    0.000    0.000    0.000 
#
# Total GULP energy -133604.267045 kJ/mol
# GULP energy per Si atom -5566.844460 kJ/mol
# Density = 2.427427 g / cm^3
# Si number density = 24.329644 Si / 1000 Ang^3
#
#
#
# Elastic Constant Matrix: (Units=GPa)
#
#
# Indices 1 2 3 4 5 6 
#
# 1 163.7467 20.7298 82.4137 0.0000 0.0000 0.0000
# 2 20.7298 152.9303 43.9054 0.0000 0.0000 0.0000
# 3 82.4137 43.9054 132.6903 0.0000 0.0000 0.0000
# 4 0.0000 0.0000 0.0000 53.0349 0.0000 0.0000
# 5 0.0000 0.0000 0.0000 0.0000 51.1496 0.0000
# 6 0.0000 0.0000 0.0000 0.0000 0.0000 34.4980
#
#
#
# Elastic Compliance Matrix: (Units=1/GPa)
#
#
# Indices 1 2 3 4 5 6 
#
# 1 0.008909 0.000421 -0.005672 0.000000 0.000000 0.000000
# 2 0.000421 0.007245 -0.002659 0.000000 0.000000 0.000000
# 3 -0.005672 -0.002659 0.011939 0.000000 0.000000 0.000000
# 4 0.000000 0.000000 0.000000 0.018856 0.000000 0.000000
# 5 0.000000 0.000000 0.000000 0.000000 0.019550 0.000000
# 6 0.000000 0.000000 0.000000 0.000000 0.000000 0.028987
#
#
# Mechanical properties :
#
#
# Convention : Reuss Voigt Hill
#
# Bulk Modulus (GPa) = 81.48273 82.60722 82.04497
# Shear Modulus (GPa) = 43.32845 47.89106 45.60975
#
# Velocity S-wave (km/s) = 4.22464 4.44151 4.33443
# Velocity P-wave (km/s) = 7.57368 7.76722 7.67106
#
# Compressibility (1/GPa) = 0.01227254
#
# Stress axis : x y z
#
# Youngs Moduli (GPa) = 112.25071 138.02263 83.75747
#
# Poissons Ratio (x) = -0.05810 0.47511
# Poissons Ratio (y) = -0.04725 0.22269
# Poissons Ratio (z) = 0.63673 0.36697
#
# Static dielectric constant tensor:
#      x y z
#    x 1.962550 0.000000 0.000000 
#    y 0.000000 1.993650 0.000000 
#    z 0.000000 0.000000 2.126760 
# 
# From -- ./inp_files/7993.got.cif
#   From: 2010.05.17/outbox.cif.g08.bks.cpg/sg52_4_cif.got.tgz:7993.got - 2010.06.03 12:15:38.
