data_PCOD9412509
_publ_section_title
;
Structure prediction by ZEFSAII (Michael W. Deem and Ramdas Pophale) SiO2 
 PCOD9412509
Probable space group: P N N A
;
_chemical_formula_sum "Si O2"
_cell_formula_units_Z 56
_cell_length_a 13.724296
_cell_length_b 19.735870
_cell_length_c 9.463347
_cell_angle_alpha 90.000000
_cell_angle_beta 90.000000
_cell_angle_gamma 90.000000
_cell_volume 2563.250891
_symmetry_space_group_name_H-M "P N N A"
_symmetry_group_IT_number 52
_symmetry_cell_setting 'orthorhombic'
loop_
_space_group_symop_operation_xyz
x,y,z
1/2-x,-y,z
x,1/2-y,1/2-z
1/2-x,1/2+y,1/2-z
-x,-y,-z
1/2+x,y,-z
-x,1/2+y,1/2+z
1/2+x,1/2-y,1/2+z
loop_
_atom_site_type_symbol
_atom_site_label
_atom_site_fract_x
_atom_site_fract_y
_atom_site_fract_z
Si Si1 0.769055 0.250000 0.750000
Si Si2 0.071976 0.710711 0.022435
Si Si3 0.671587 0.378498 0.786270
Si Si4 0.138654 0.019652 0.648316
Si Si5 0.632703 0.326308 0.099912
Si Si6 0.184328 0.750000 0.750000
Si Si7 0.376072 0.065938 0.385988
Si Si8 0.476883 0.984761 0.161400
O O1 0.841740 0.271393 0.871698
O O2 0.706569 0.313518 0.697753
O O3 0.083722 0.628476 0.021435
O O4 0.964971 0.720230 0.093768
O O5 0.104334 0.749632 0.879912
O O6 0.766389 0.420374 0.836242
O O7 0.596279 0.423793 0.699533
O O8 0.639807 0.343917 0.933063
O O9 0.120856 0.099248 0.668990
O O10 0.250000 0.000000 0.665284
O O11 0.112696 0.998480 0.488180
O O12 0.077359 0.974970 0.756128
O O13 0.732089 0.297901 0.171709
O O14 0.431448 0.049881 0.241566
O O15 0.500000 0.000000 0.000000
#
# Coordination Sequence:
#
# PCOD9412509 Si02
#       8
#     4   8   8   8   8   4   8   8
#     4  10  23  47  66  96 146 198 245 301 402 434
#     4  11  24  45  73 108 146 197 256 322 382 470
#     4  11  23  44  75 100 144 194 244 298 384 460
#     4  12  22  42  77 108 141 187 247 313 386 466
#     4  12  23  44  77 109 146 193 253 321 386 461
#     4  12  25  45  74 110 144 194 277 317 368 470
#     4  11  20  46  76 105 139 194 246 308 386 471
#     4  12  26  41  68 113 152 189 246 315 387 463
#
# _framework density 21.847258
#
# number of rings (size 3 to 8) (size 9 to 14) (size 15 to 20)
#    0.000    0.571    7.143    2.143    0.000    2.857 
#    0.000    7.143    0.000    0.000    0.000    0.000 
#    0.000    0.000    0.000    0.000    0.000    0.000 
#
# Total GULP energy -311900.369875 kJ/mol
# GULP energy per Si atom -5569.649462 kJ/mol
# Density = 2.179753 g / cm^3
# Si number density = 21.847258 Si / 1000 Ang^3
#
#
#
# Elastic Constant Matrix: (Units=GPa)
#
#
# Indices 1 2 3 4 5 6 
#
# 1 142.8511 24.8717 47.2658 0.0000 0.0000 0.0000
# 2 24.8717 54.1610 27.6249 0.0000 0.0000 0.0000
# 3 47.2658 27.6249 122.5467 0.0000 0.0000 0.0000
# 4 0.0000 0.0000 0.0000 20.0440 0.0000 0.0000
# 5 0.0000 0.0000 0.0000 0.0000 31.2131 0.0000
# 6 0.0000 0.0000 0.0000 0.0000 0.0000 35.6060
#
#
#
# Elastic Compliance Matrix: (Units=1/GPa)
#
#
# Indices 1 2 3 4 5 6 
#
# 1 0.008305 -0.002463 -0.002648 0.000000 0.000000 0.000000
# 2 -0.002463 0.021593 -0.003917 0.000000 0.000000 0.000000
# 3 -0.002648 -0.003917 0.010065 0.000000 0.000000 0.000000
# 4 0.000000 0.000000 0.000000 0.049890 0.000000 0.000000
# 5 0.000000 0.000000 0.000000 0.000000 0.032038 0.000000
# 6 0.000000 0.000000 0.000000 0.000000 0.000000 0.028085
#
#
# Mechanical properties :
#
#
# Convention : Reuss Voigt Hill
#
# Bulk Modulus (GPa) = 45.65146 57.67596 51.66371
# Shear Modulus (GPa) = 28.51678 32.02570 30.27124
#
# Velocity S-wave (km/s) = 3.61678 3.83285 3.72638
# Velocity P-wave (km/s) = 6.19537 6.78562 6.49720
#
# Compressibility (1/GPa) = 0.02190510
#
# Stress axis : x y z
#
# Youngs Moduli (GPa) = 120.40420 46.31177 99.35843
#
# Poissons Ratio (x) = 0.11408 0.26311
# Poissons Ratio (y) = 0.29660 0.38923
# Poissons Ratio (z) = 0.31884 0.18142
#
# Static dielectric constant tensor:
#      x y z
#    x 1.904400 0.000000 0.000000 
#    y 0.000000 1.915600 0.000000 
#    z 0.000000 0.000000 1.788460 
# 
# From -- ./inp_files/10838.got.cif
#   From: 2010.05.17/outbox.cif.g08.bks.cpg/sg52_6_cif.got.tgz:10838.got - 2010.06.03 12:15:38.
