data_PCOD9412024
_publ_section_title
;
Structure prediction by ZEFSAII (Michael W. Deem and Ramdas Pophale) SiO2 
 PCOD9412024
Probable space group: P N N A
;
_chemical_formula_sum "Si O2"
_cell_formula_units_Z 40
_cell_length_a 9.354581
_cell_length_b 9.864028
_cell_length_c 17.439300
_cell_angle_alpha 90.000000
_cell_angle_beta 90.000000
_cell_angle_gamma 90.000000
_cell_volume 1609.191333
_symmetry_space_group_name_H-M "P N N A"
_symmetry_group_IT_number 52
_symmetry_cell_setting 'orthorhombic'
loop_
_space_group_symop_operation_xyz
x,y,z
1/2-x,-y,z
x,1/2-y,1/2-z
1/2-x,1/2+y,1/2-z
-x,-y,-z
1/2+x,y,-z
-x,1/2+y,1/2+z
1/2+x,1/2-y,1/2+z
loop_
_atom_site_type_symbol
_atom_site_label
_atom_site_fract_x
_atom_site_fract_y
_atom_site_fract_z
Si Si1 0.750000 0.000000 0.036004
Si Si2 0.343119 0.250000 0.250000
Si Si3 0.997839 0.675983 0.465511
Si Si4 0.390200 0.748478 0.131115
Si Si5 0.138186 0.750000 0.750000
Si Si6 0.250000 0.500000 0.832428
Si Si7 0.552024 0.559042 0.872511
O O1 0.865149 0.083581 0.985165
O O2 0.634988 0.100775 0.079173
O O3 0.239708 0.196108 0.182226
O O4 0.429110 0.371368 0.210851
O O5 0.920607 0.706351 0.545946
O O6 0.060508 0.814762 0.430510
O O7 0.531131 0.783207 0.180193
O O8 0.367129 0.584891 0.127127
O O9 0.231999 0.628035 0.778615
O O10 0.389266 0.511585 0.883402
#
# Coordination Sequence:
#
# PCOD9412024 Si02
#       7
#     4   4   8   8   4   4   8
#     4  10  26  45  64 110 143 198 238 290 408 437
#     4  11  23  46  66 110 149 187 244 294 392 451
#     4  11  24  49  72 107 150 192 257 314 376 465
#     4  10  23  45  71 105 136 192 246 307 372 441
#     4   9  21  40  62  98 139 177 238 294 368 443
#     4  10  22  43  64 110 135 194 248 294 392 429
#     4  11  24  44  73 105 142 194 247 313 372 446
#
# _framework density 24.857206000000001
#
# number of rings (size 3 to 8) (size 9 to 14) (size 15 to 20)
#    0.000    1.600    0.000    3.000    5.600    0.800 
#   50.400    0.000    0.000    0.000    0.000    0.000 
#    0.000    0.000    0.000    0.000    0.000    0.000 
#
# Total GULP energy -223472.575143 kJ/mol
# GULP energy per Si atom -5586.814379 kJ/mol
# Density = 2.480063 g / cm^3
# Si number density = 24.857206 Si / 1000 Ang^3
#
#
#
# Elastic Constant Matrix: (Units=GPa)
#
#
# Indices 1 2 3 4 5 6 
#
# 1 93.8903 0.4715 -0.0924 0.0000 0.0000 0.0000
# 2 0.4715 87.8636 8.6993 0.0000 0.0000 0.0000
# 3 -0.0924 8.6993 78.7995 0.0000 0.0000 0.0000
# 4 0.0000 0.0000 0.0000 25.7126 0.0000 0.0000
# 5 0.0000 0.0000 0.0000 0.0000 15.6038 0.0000
# 6 0.0000 0.0000 0.0000 0.0000 0.0000 40.0881
#
#
#
# Elastic Compliance Matrix: (Units=1/GPa)
#
#
# Indices 1 2 3 4 5 6 
#
# 1 0.010651 -0.000059 0.000019 0.000000 0.000000 0.000000
# 2 -0.000059 0.011507 -0.001270 0.000000 0.000000 0.000000
# 3 0.000019 -0.001270 0.012831 0.000000 0.000000 0.000000
# 4 0.000000 0.000000 0.000000 0.038892 0.000000 0.000000
# 5 0.000000 0.000000 0.000000 0.000000 0.064087 0.000000
# 6 0.000000 0.000000 0.000000 0.000000 0.000000 0.024945
#
#
# Mechanical properties :
#
#
# Convention : Reuss Voigt Hill
#
# Bulk Modulus (GPa) = 30.89457 30.96781 30.93119
# Shear Modulus (GPa) = 28.35703 33.04588 30.70145
#
# Velocity S-wave (km/s) = 3.38123 3.65009 3.51823
# Velocity P-wave (km/s) = 5.26303 5.49996 5.38280
#
# Compressibility (1/GPa) = 0.03236815
#
# Stress axis : x y z
#
# Youngs Moduli (GPa) = 93.88749 86.90069 77.93802
#
# Poissons Ratio (x) = 0.00513 -0.00148
# Poissons Ratio (y) = 0.00554 0.09902
# Poissons Ratio (z) = -0.00179 0.11040
#
# Static dielectric constant tensor:
#      x y z
#    x 2.049770 0.000000 0.000000 
#    y 0.000000 2.051580 0.000000 
#    z 0.000000 0.000000 1.955700 
# 
# From -- ./inp_files/35828.got.cif
#   From: 2010.05.17/outbox.cif.g08.bks.cpg/sg52_18_cif.got.tgz:35828.got - 2010.06.03 12:15:38.
