data_PCOD9412322
_publ_section_title
;
Structure prediction by ZEFSAII (Michael W. Deem and Ramdas Pophale) SiO2 
 PCOD9412322
Probable space group: P N N A
;
_chemical_formula_sum "Si O2"
_cell_formula_units_Z 48
_cell_length_a 27.450582
_cell_length_b 9.225893
_cell_length_c 9.940513
_cell_angle_alpha 90.000000
_cell_angle_beta 90.000000
_cell_angle_gamma 90.000000
_cell_volume 2517.495876
_symmetry_space_group_name_H-M "P N N A"
_symmetry_group_IT_number 52
_symmetry_cell_setting 'orthorhombic'
loop_
_space_group_symop_operation_xyz
x,y,z
1/2-x,-y,z
x,1/2-y,1/2-z
1/2-x,1/2+y,1/2-z
-x,-y,-z
1/2+x,y,-z
-x,1/2+y,1/2+z
1/2+x,1/2-y,1/2+z
loop_
_atom_site_type_symbol
_atom_site_label
_atom_site_fract_x
_atom_site_fract_y
_atom_site_fract_z
Si Si1 0.375507 0.416057 0.244713
Si Si2 0.203296 0.918661 0.486818
Si Si3 0.838932 0.921664 0.259273
Si Si4 0.963763 0.887506 0.660141
Si Si5 0.698833 0.923470 0.991320
Si Si6 0.050695 0.383381 0.848204
O O1 0.393787 0.250000 0.250000
O O2 0.419577 0.525793 0.229121
O O3 0.340281 0.439021 0.371787
O O4 0.341784 0.431714 0.113915
O O5 0.209788 0.747427 0.511462
O O6 0.250000 0.000000 0.425682
O O7 0.191231 0.002942 0.622897
O O8 0.828172 0.750000 0.250000
O O9 0.896018 0.933921 0.298194
O O10 0.824469 0.002060 0.122395
O O11 0.974976 0.750000 0.750000
O O12 0.948677 0.844637 0.507281
O O13 0.010660 0.991090 0.659139
O O14 0.750000 0.000000 0.959490
O O15 0.037282 0.250000 0.750000
#
# Coordination Sequence:
#
# PCOD9412322 Si02
#       6
#     8   8   8   8   8   8
#     4  10  23  42  63  92 126 166 207 262 315 371
#     4  11  22  40  63  88 126 164 209 262 315 372
#     4  11  23  41  63  91 125 167 207 262 311 370
#     4  11  24  42  69  97 127 168 209 258 316 375
#     4  11  24  40  63  94 125 167 214 258 314 375
#     4  10  24  45  64  96 133 164 209 260 314 375
#
# _framework density 19.066566999999999
#
# number of rings (size 3 to 8) (size 9 to 14) (size 15 to 20)
#    0.000    1.333    1.667    3.000    4.667    3.333 
#    3.000    0.000    0.000    0.000    0.000    0.000 
#    0.000    0.000    0.000    0.000    0.000    0.000 
#
# Total GULP energy -268250.174495 kJ/mol
# GULP energy per Si atom -5588.545302 kJ/mol
# Density = 1.902317 g / cm^3
# Si number density = 19.066567 Si / 1000 Ang^3
#
#
#
# Elastic Constant Matrix: (Units=GPa)
#
#
# Indices 1 2 3 4 5 6 
#
# 1 57.6078 47.3920 18.1434 0.0000 0.0000 0.0000
# 2 47.3920 113.9403 48.2644 0.0000 0.0000 0.0000
# 3 18.1434 48.2644 98.1997 0.0000 0.0000 0.0000
# 4 0.0000 0.0000 0.0000 31.2402 0.0000 0.0000
# 5 0.0000 0.0000 0.0000 0.0000 4.4931 0.0000
# 6 0.0000 0.0000 0.0000 0.0000 0.0000 25.4172
#
#
#
# Elastic Compliance Matrix: (Units=1/GPa)
#
#
# Indices 1 2 3 4 5 6 
#
# 1 0.026422 -0.011268 0.000656 0.000000 0.000000 0.000000
# 2 -0.011268 0.015889 -0.005728 0.000000 0.000000 0.000000
# 3 0.000656 -0.005728 0.012877 0.000000 0.000000 0.000000
# 4 0.000000 0.000000 0.000000 0.032010 0.000000 0.000000
# 5 0.000000 0.000000 0.000000 0.000000 0.222565 0.000000
# 6 0.000000 0.000000 0.000000 0.000000 0.000000 0.039343
#
#
# Mechanical properties :
#
#
# Convention : Reuss Voigt Hill
#
# Bulk Modulus (GPa) = 44.42460 55.26082 49.84271
# Shear Modulus (GPa) = 12.84393 22.62663 17.73528
#
# Velocity S-wave (km/s) = 2.59827 3.44861 3.05319
# Velocity P-wave (km/s) = 5.68785 6.70099 6.21510
#
# Compressibility (1/GPa) = 0.02251005
#
# Stress axis : x y z
#
# Youngs Moduli (GPa) = 37.84770 62.93490 77.65675
#
# Poissons Ratio (x) = 0.70914 -0.05097
# Poissons Ratio (y) = 0.42646 0.44479
# Poissons Ratio (z) = -0.02484 0.36047
#
# Static dielectric constant tensor:
#      x y z
#    x 1.610280 0.000000 0.000000 
#    y 0.000000 1.641830 0.000000 
#    z 0.000000 0.000000 1.651210 
# 
# From -- ./inp_files/15508.got.cif
#   From: 2010.05.17/outbox.cif.g08.bks.cpg/sg52_8_cif.got.tgz:15508.got - 2010.06.03 12:15:38.
