data_PCOD9412954
_publ_section_title
;
Structure prediction by ZEFSAII (Michael W. Deem and Ramdas Pophale) SiO2 
 PCOD9412954
Probable space group: P N N A
;
_chemical_formula_sum "Si O2"
_cell_formula_units_Z 48
_cell_length_a 20.892389
_cell_length_b 14.327596
_cell_length_c 9.359340
_cell_angle_alpha 90.000000
_cell_angle_beta 90.000000
_cell_angle_gamma 90.000000
_cell_volume 2801.603394
_symmetry_space_group_name_H-M "P N N A"
_symmetry_group_IT_number 52
_symmetry_cell_setting 'orthorhombic'
loop_
_space_group_symop_operation_xyz
x,y,z
1/2-x,-y,z
x,1/2-y,1/2-z
1/2-x,1/2+y,1/2-z
-x,-y,-z
1/2+x,y,-z
-x,1/2+y,1/2+z
1/2+x,1/2-y,1/2+z
loop_
_atom_site_type_symbol
_atom_site_label
_atom_site_fract_x
_atom_site_fract_y
_atom_site_fract_z
Si Si1 0.014431 0.646184 0.821966
Si Si2 0.861915 0.740531 0.418452
Si Si3 0.684561 0.445732 0.555160
Si Si4 0.438156 0.442833 0.553097
Si Si5 0.514530 0.757405 0.918279
Si Si6 0.866438 0.646613 0.822385
O O1 0.017313 0.750000 0.750000
O O2 0.055276 0.577649 0.722787
O O3 0.940426 0.615603 0.815270
O O4 0.030916 0.666194 0.987001
O O5 0.853415 0.750000 0.250000
O O6 0.821272 0.653680 0.475504
O O7 0.847182 0.831788 0.514524
O O8 0.938411 0.722975 0.445340
O O9 0.750000 0.500000 0.532079
O O10 0.625364 0.505152 0.494375
O O11 0.673797 0.421584 0.722605
O O12 0.500000 0.500000 0.500000
O O13 0.444601 0.342982 0.476939
O O14 0.523059 0.750000 0.750000
O O15 0.864131 0.750000 0.750000
#
# Coordination Sequence:
#
# PCOD9412954 Si02
#       6
#     8   8   8   8   8   8
#     4   8  14  27  50  74  97 133 167 203 256 312
#     4   9  17  33  55  75 100 138 176 208 254 323
#     4  11  21  33  50  78 103 135 176 218 259 306
#     4  11  17  31  52  74 101 129 171 219 265 298
#     4   9  17  31  52  79 104 132 172 215 260 315
#     4   8  14  29  51  72  96 130 173 201 245 314
#
# _framework density 17.133044999999999
#
# number of rings (size 3 to 8) (size 9 to 14) (size 15 to 20)
#    0.000    2.667    3.333    2.000    0.000    0.000 
#    0.000    8.333    0.000    0.000    0.000    0.000 
#    0.000    0.000    0.000    0.000    0.000    0.000 
#
# Total GULP energy -267272.674278 kJ/mol
# GULP energy per Si atom -5568.180714 kJ/mol
# Density = 1.709405 g / cm^3
# Si number density = 17.133045 Si / 1000 Ang^3
#
#
#
# Elastic Constant Matrix: (Units=GPa)
#
#
# Indices 1 2 3 4 5 6 
#
# 1 84.0030 40.3488 38.7067 0.0000 0.0000 0.0000
# 2 40.3488 48.7054 35.3080 0.0000 0.0000 0.0000
# 3 38.7067 35.3080 141.8990 0.0000 0.0000 0.0000
# 4 0.0000 0.0000 0.0000 24.5429 0.0000 0.0000
# 5 0.0000 0.0000 0.0000 0.0000 11.0541 0.0000
# 6 0.0000 0.0000 0.0000 0.0000 0.0000 20.8853
#
#
#
# Elastic Compliance Matrix: (Units=1/GPa)
#
#
# Indices 1 2 3 4 5 6 
#
# 1 0.020077 -0.015449 -0.001632 0.000000 0.000000 0.000000
# 2 -0.015449 0.036938 -0.004977 0.000000 0.000000 0.000000
# 3 -0.001632 -0.004977 0.008731 0.000000 0.000000 0.000000
# 4 0.000000 0.000000 0.000000 0.040745 0.000000 0.000000
# 5 0.000000 0.000000 0.000000 0.000000 0.090465 0.000000
# 6 0.000000 0.000000 0.000000 0.000000 0.000000 0.047880
#
#
# Mechanical properties :
#
#
# Convention : Reuss Voigt Hill
#
# Bulk Modulus (GPa) = 46.23393 55.92608 51.08000
# Shear Modulus (GPa) = 16.88264 21.97938 19.43101
#
# Velocity S-wave (km/s) = 3.14249 3.58560 3.37133
# Velocity P-wave (km/s) = 6.34120 7.06081 6.71066
#
# Compressibility (1/GPa) = 0.02162914
#
# Stress axis : x y z
#
# Youngs Moduli (GPa) = 49.80808 27.07253 114.53501
#
# Poissons Ratio (x) = 0.41824 0.18698
# Poissons Ratio (y) = 0.76948 0.57003
# Poissons Ratio (z) = 0.08131 0.13474
#
# Static dielectric constant tensor:
#      x y z
#    x 1.548730 0.000000 0.000000 
#    y 0.000000 1.600710 0.000000 
#    z 0.000000 0.000000 1.651310 
# 
# From -- ./inp_files/12071.got.cif
#   From: 2010.05.17/outbox.cif.g08.bks.cpg/sg52_7_cif.got.tgz:12071.got - 2010.06.03 12:15:38.
