data_PCOD9412368
_publ_section_title
;
Structure prediction by ZEFSAII (Michael W. Deem and Ramdas Pophale) SiO2 
 PCOD9412368
Probable space group: P N N A
;
_chemical_formula_sum "Si O2"
_cell_formula_units_Z 40
_cell_length_a 14.292819
_cell_length_b 22.892302
_cell_length_c 6.042319
_cell_angle_alpha 90.000000
_cell_angle_beta 90.000000
_cell_angle_gamma 90.000000
_cell_volume 1977.019761
_symmetry_space_group_name_H-M "P N N A"
_symmetry_group_IT_number 52
_symmetry_cell_setting 'orthorhombic'
loop_
_space_group_symop_operation_xyz
x,y,z
1/2-x,-y,z
x,1/2-y,1/2-z
1/2-x,1/2+y,1/2-z
-x,-y,-z
1/2+x,y,-z
-x,1/2+y,1/2+z
1/2+x,1/2-y,1/2+z
loop_
_atom_site_type_symbol
_atom_site_label
_atom_site_fract_x
_atom_site_fract_y
_atom_site_fract_z
Si Si1 0.344833 0.402993 0.952387
Si Si2 0.298464 0.595249 0.324968
Si Si3 0.094787 0.008657 0.858461
Si Si4 0.946175 0.615089 0.051071
Si Si5 0.793902 0.681926 0.294302
O O1 0.363899 0.451557 0.762642
O O2 0.278474 0.353235 0.857154
O O3 0.287239 0.424770 0.167966
O O4 0.444689 0.377002 0.016847
O O5 0.332375 0.544747 0.491372
O O6 0.276183 0.653881 0.464567
O O7 0.387349 0.611971 0.173799
O O8 0.067591 0.051933 0.660555
O O9 0.000000 0.000000 0.000000
O O10 0.896611 0.661157 0.213193
O O11 0.783585 0.750000 0.250000
#
# Coordination Sequence:
#
# PCOD9412368 Si02
#       5
#     8   8   8   8   8
#     4  11  24  41  67 103 133 177 232 267 352 407
#     4  10  24  43  67  94 144 174 220 286 332 410
#     4  11  23  41  66  98 143 181 219 277 342 414
#     4  10  23  43  63  98 133 179 222 274 346 405
#     4  10  25  47  66  97 130 176 232 284 343 400
#
# _framework density 20.232472999999999
#
# number of rings (size 3 to 8) (size 9 to 14) (size 15 to 20)
#    0.000    1.600    2.000    0.600    2.800   12.000 
#    7.200    0.000    0.000    0.000    0.000    0.000 
#    0.000    0.000    0.000    0.000    0.000    0.000 
#
# Total GULP energy -223568.529825 kJ/mol
# GULP energy per Si atom -5589.213246 kJ/mol
# Density = 2.018642 g / cm^3
# Si number density = 20.232473 Si / 1000 Ang^3
#
#
#
# Elastic Constant Matrix: (Units=GPa)
#
#
# Indices 1 2 3 4 5 6 
#
# 1 140.7941 33.4334 50.5167 0.0000 0.0000 0.0000
# 2 33.4334 141.0004 44.3470 0.0000 0.0000 0.0000
# 3 50.5167 44.3470 94.1902 0.0000 0.0000 0.0000
# 4 0.0000 0.0000 0.0000 14.9739 0.0000 0.0000
# 5 0.0000 0.0000 0.0000 0.0000 32.4907 0.0000
# 6 0.0000 0.0000 0.0000 0.0000 0.0000 11.7249
#
#
#
# Elastic Compliance Matrix: (Units=1/GPa)
#
#
# Indices 1 2 3 4 5 6 
#
# 1 0.008855 -0.000711 -0.004414 0.000000 0.000000 0.000000
# 2 -0.000711 0.008382 -0.003565 0.000000 0.000000 0.000000
# 3 -0.004414 -0.003565 0.014663 0.000000 0.000000 0.000000
# 4 0.000000 0.000000 0.000000 0.066783 0.000000 0.000000
# 5 0.000000 0.000000 0.000000 0.000000 0.030778 0.000000
# 6 0.000000 0.000000 0.000000 0.000000 0.000000 0.085288
#
#
# Mechanical properties :
#
#
# Convention : Reuss Voigt Hill
#
# Bulk Modulus (GPa) = 68.87616 70.28654 69.58135
# Shear Modulus (GPa) = 21.09965 28.35042 24.72504
#
# Velocity S-wave (km/s) = 3.23284 3.74737 3.49957
# Velocity P-wave (km/s) = 6.93190 7.31701 7.12706
#
# Compressibility (1/GPa) = 0.01451881
#
# Stress axis : x y z
#
# Youngs Moduli (GPa) = 112.92565 119.30195 68.19938
#
# Poissons Ratio (x) = 0.08486 0.30106
# Poissons Ratio (y) = 0.08033 0.24313
# Poissons Ratio (z) = 0.49851 0.42531
#
# Static dielectric constant tensor:
#      x y z
#    x 1.848350 0.000000 0.000000 
#    y 0.000000 1.706760 0.000000 
#    z 0.000000 0.000000 1.781960 
# 
# From -- ./inp_files/2285.got.cif
#   From: 2010.05.17/outbox.cif.g08.bks.cpg/sg52_2_cif.got.tgz:2285.got - 2010.06.03 12:15:38.
