data_PCOD9412655
_publ_section_title
;
Structure prediction by ZEFSAII (Michael W. Deem and Ramdas Pophale) SiO2 
 PCOD9412655
Probable space group: P N N A
;
_chemical_formula_sum "Si O2"
_cell_formula_units_Z 48
_cell_length_a 28.167760
_cell_length_b 9.797570
_cell_length_c 9.483652
_cell_angle_alpha 90.000000
_cell_angle_beta 90.000000
_cell_angle_gamma 90.000000
_cell_volume 2617.256554
_symmetry_space_group_name_H-M "P N N A"
_symmetry_group_IT_number 52
_symmetry_cell_setting 'orthorhombic'
loop_
_space_group_symop_operation_xyz
x,y,z
1/2-x,-y,z
x,1/2-y,1/2-z
1/2-x,1/2+y,1/2-z
-x,-y,-z
1/2+x,y,-z
-x,1/2+y,1/2+z
1/2+x,1/2-y,1/2+z
loop_
_atom_site_type_symbol
_atom_site_label
_atom_site_fract_x
_atom_site_fract_y
_atom_site_fract_z
Si Si1 0.482941 0.869348 0.915052
Si Si2 0.190225 0.250000 0.750000
Si Si3 0.250000 0.500000 0.880378
Si Si4 0.519245 0.590427 0.874449
Si Si5 0.120100 0.473643 0.215632
Si Si6 0.878917 0.711358 0.515451
Si Si7 0.714965 0.883203 0.662798
O O1 0.521261 0.747135 0.924130
O O2 0.481218 0.910413 0.751781
O O3 0.432992 0.809353 0.964720
O O4 0.500000 0.000000 0.000000
O O5 0.219976 0.388159 0.790976
O O6 0.157126 0.285348 0.615045
O O7 0.277756 0.401307 0.993535
O O8 0.568044 0.534691 0.810388
O O9 0.500000 0.500000 0.000000
O O10 0.127668 0.407861 0.369284
O O11 0.126306 0.352079 0.101948
O O12 0.160560 0.583627 0.191716
O O13 0.728563 0.750000 0.750000
O O14 0.750000 0.000000 0.720333
#
# Coordination Sequence:
#
# PCOD9412655 Si02
#       7
#     8   4   4   8   8   8   8
#     4  11  23  40  62  96 133 173 219 268 331 389
#     4  12  24  46  70 100 136 180 226 278 350 420
#     4  10  26  44  68 102 138 174 226 284 352 414
#     4  11  23  39  63  93 133 171 215 271 320 391
#     4  11  23  41  68  99 130 179 228 275 334 407
#     4  11  23  41  69  95 134 180 226 271 339 414
#     4  10  24  43  69 102 133 171 228 286 346 406
#
# _framework density 18.339814000000001
#
# number of rings (size 3 to 8) (size 9 to 14) (size 15 to 20)
#    0.500    0.667    5.000    1.000    7.000    2.000 
#    0.000    0.000    0.000    0.000    0.000    0.000 
#    0.000    0.000    0.000    0.000    0.000    0.000 
#
# Total GULP energy -267522.473154 kJ/mol
# GULP energy per Si atom -5573.384857 kJ/mol
# Density = 1.829807 g / cm^3
# Si number density = 18.339814 Si / 1000 Ang^3
#
#
#
# Elastic Constant Matrix: (Units=GPa)
#
#
# Indices 1 2 3 4 5 6 
#
# 1 72.5371 35.0252 46.1340 0.0000 0.0000 0.0000
# 2 35.0252 124.3536 70.2171 0.0000 0.0000 0.0000
# 3 46.1340 70.2171 131.0783 0.0000 0.0000 0.0000
# 4 0.0000 0.0000 0.0000 30.4490 0.0000 0.0000
# 5 0.0000 0.0000 0.0000 0.0000 18.5371 0.0000
# 6 0.0000 0.0000 0.0000 0.0000 0.0000 39.0496
#
#
#
# Elastic Compliance Matrix: (Units=1/GPa)
#
#
# Indices 1 2 3 4 5 6 
#
# 1 0.018157 -0.002159 -0.005234 0.000000 0.000000 0.000000
# 2 -0.002159 0.011785 -0.005554 0.000000 0.000000 0.000000
# 3 -0.005234 -0.005554 0.012446 0.000000 0.000000 0.000000
# 4 0.000000 0.000000 0.000000 0.032842 0.000000 0.000000
# 5 0.000000 0.000000 0.000000 0.000000 0.053946 0.000000
# 6 0.000000 0.000000 0.000000 0.000000 0.000000 0.025608
#
#
# Mechanical properties :
#
#
# Convention : Reuss Voigt Hill
#
# Bulk Modulus (GPa) = 60.62023 70.08018 65.35021
# Shear Modulus (GPa) = 26.85615 29.37997 28.11806
#
# Velocity S-wave (km/s) = 3.83085 4.00681 3.91982
# Velocity P-wave (km/s) = 7.25899 7.72665 7.49646
#
# Compressibility (1/GPa) = 0.01649614
#
# Stress axis : x y z
#
# Youngs Moduli (GPa) = 55.07398 84.85039 80.34535
#
# Poissons Ratio (x) = 0.18316 0.42055
# Poissons Ratio (y) = 0.11888 0.44621
# Poissons Ratio (z) = 0.28827 0.47122
#
# Static dielectric constant tensor:
#      x y z
#    x 1.626550 0.000000 0.000000 
#    y 0.000000 1.653370 0.000000 
#    z 0.000000 0.000000 1.661090 
# 
# From -- ./inp_files/15590.got.cif
#   From: 2010.05.17/outbox.cif.g08.bks.cpg/sg52_8_cif.got.tgz:15590.got - 2010.06.03 12:15:38.
