data_PCOD9412631
_publ_section_title
;
Structure prediction by ZEFSAII (Michael W. Deem and Ramdas Pophale) SiO2 
 PCOD9412631
Probable space group: P N N A
;
_chemical_formula_sum "Si O2"
_cell_formula_units_Z 36
_cell_length_a 8.618081
_cell_length_b 8.857379
_cell_length_c 21.446091
_cell_angle_alpha 90.000000
_cell_angle_beta 90.000000
_cell_angle_gamma 90.000000
_cell_volume 1637.057539
_symmetry_space_group_name_H-M "P N N A"
_symmetry_group_IT_number 52
_symmetry_cell_setting 'orthorhombic'
loop_
_space_group_symop_operation_xyz
x,y,z
1/2-x,-y,z
x,1/2-y,1/2-z
1/2-x,1/2+y,1/2-z
-x,-y,-z
1/2+x,y,-z
-x,1/2+y,1/2+z
1/2+x,1/2-y,1/2+z
loop_
_atom_site_type_symbol
_atom_site_label
_atom_site_fract_x
_atom_site_fract_y
_atom_site_fract_z
Si Si1 0.405197 0.750000 0.750000
Si Si2 0.660584 0.653253 0.447424
Si Si3 0.536019 0.341959 0.037264
Si Si4 0.928342 0.457770 0.836492
Si Si5 0.399398 0.243261 0.820852
O O1 0.511402 0.615812 0.772789
O O2 0.282717 0.778317 0.805282
O O3 0.750000 0.500000 0.462140
O O4 0.786912 0.791845 0.448890
O O5 0.534630 0.707335 0.496537
O O6 0.578494 0.634374 0.379376
O O7 0.449778 0.353086 0.103486
O O8 0.500000 0.500000 0.000000
O O9 0.750000 0.500000 0.831372
O O10 0.043174 0.597845 0.847516
O O11 0.469561 0.250000 0.750000
#
# Coordination Sequence:
#
# PCOD9412631 Si02
#       5
#     4   8   8   8   8
#     4  10  24  42  70  98 134 178 240 292 340 428
#     4  12  26  44  69 106 142 188 239 304 368 426
#     4  12  24  45  71 102 140 190 243 291 353 442
#     4  12  25  44  68 106 138 185 241 299 362 429
#     4  10  24  42  71  96 139 183 241 288 359 444
#
# _framework density 21.990673999999999
#
# number of rings (size 3 to 8) (size 9 to 14) (size 15 to 20)
#    0.667    0.000    4.444    3.333    4.667    0.000 
#    0.000    1.111    0.000    0.000    0.000    0.000 
#    0.000    0.000    0.000    0.000    0.000    0.000 
#
# Total GULP energy -200616.859739 kJ/mol
# GULP energy per Si atom -5572.690548 kJ/mol
# Density = 2.194062 g / cm^3
# Si number density = 21.990674 Si / 1000 Ang^3
#
#
#
# Elastic Constant Matrix: (Units=GPa)
#
#
# Indices 1 2 3 4 5 6 
#
# 1 77.4098 12.7466 45.8249 0.0000 0.0000 0.0000
# 2 12.7466 71.7509 22.3447 0.0000 0.0000 0.0000
# 3 45.8249 22.3447 109.4280 0.0000 0.0000 0.0000
# 4 0.0000 0.0000 0.0000 42.5069 0.0000 0.0000
# 5 0.0000 0.0000 0.0000 0.0000 141.4804 0.0000
# 6 0.0000 0.0000 0.0000 0.0000 0.0000 88.9480
#
#
#
# Elastic Compliance Matrix: (Units=1/GPa)
#
#
# Indices 1 2 3 4 5 6 
#
# 1 0.017227 -0.000869 -0.007037 0.000000 0.000000 0.000000
# 2 -0.000869 0.014927 -0.002684 0.000000 0.000000 0.000000
# 3 -0.007037 -0.002684 0.012633 0.000000 0.000000 0.000000
# 4 0.000000 0.000000 0.000000 0.023526 0.000000 0.000000
# 5 0.000000 0.000000 0.000000 0.000000 0.007068 0.000000
# 6 0.000000 0.000000 0.000000 0.000000 0.000000 0.011243
#
#
# Mechanical properties :
#
#
# Convention : Reuss Voigt Hill
#
# Bulk Modulus (GPa) = 42.35876 46.71346 44.53611
# Shear Modulus (GPa) = 43.22541 66.43188 54.82865
#
# Velocity S-wave (km/s) = 4.43835 5.50224 4.99868
# Velocity P-wave (km/s) = 6.75050 7.85206 7.32202
#
# Compressibility (1/GPa) = 0.02360787
#
# Stress axis : x y z
#
# Youngs Moduli (GPa) = 58.04887 66.99084 79.15626
#
# Poissons Ratio (x) = 0.05822 0.55699
# Poissons Ratio (y) = 0.05045 0.21247
# Poissons Ratio (z) = 0.40847 0.17982
#
# Static dielectric constant tensor:
#      x y z
#    x 2.458390 0.000000 0.000000 
#    y 0.000000 1.842280 0.000000 
#    z 0.000000 0.000000 1.832000 
# 
# From -- ./inp_files/35579.got.cif
#   From: 2010.05.17/outbox.cif.g08.bks.cpg/sg52_18_cif.got.tgz:35579.got - 2010.06.03 12:15:38.
