data_PCOD9412076
_publ_section_title
;
Structure prediction by ZEFSAII (Michael W. Deem and Ramdas Pophale) SiO2 
 PCOD9412076
Probable space group: P N N A
;
_chemical_formula_sum "Si O2"
_cell_formula_units_Z 48
_cell_length_a 15.815475
_cell_length_b 24.828884
_cell_length_c 4.928844
_cell_angle_alpha 90.000000
_cell_angle_beta 90.000000
_cell_angle_gamma 90.000000
_cell_volume 1935.461391
_symmetry_space_group_name_H-M "P N N A"
_symmetry_group_IT_number 52
_symmetry_cell_setting 'orthorhombic'
loop_
_space_group_symop_operation_xyz
x,y,z
1/2-x,-y,z
x,1/2-y,1/2-z
1/2-x,1/2+y,1/2-z
-x,-y,-z
1/2+x,y,-z
-x,1/2+y,1/2+z
1/2+x,1/2-y,1/2+z
loop_
_atom_site_type_symbol
_atom_site_label
_atom_site_fract_x
_atom_site_fract_y
_atom_site_fract_z
Si Si1 0.240163 0.250000 0.750000
Si Si2 0.429327 0.528084 0.821150
Si Si3 0.400968 0.136117 0.085063
Si Si4 0.302648 0.451498 0.072404
Si Si5 0.780671 0.635102 0.306635
Si Si6 0.366821 0.250000 0.250000
Si Si7 0.930931 0.595510 0.679030
O O1 0.188523 0.305411 0.773852
O O2 0.303202 0.246389 0.499088
O O3 0.424000 0.583294 0.002169
O O4 0.500000 0.500000 0.000000
O O5 0.351718 0.487204 0.851091
O O6 0.440323 0.542391 0.509907
O O7 0.372280 0.084356 0.267192
O O8 0.415564 0.193038 0.236865
O O9 0.482491 0.125759 0.898491
O O10 0.314104 0.143742 0.920747
O O11 0.250000 0.500000 0.223353
O O12 0.241562 0.409344 0.920945
O O13 0.844562 0.617838 0.545410
#
# Coordination Sequence:
#
# PCOD9412076 Si02
#       7
#     4   8   8   8   8   4   8
#     4  10  22  43  72  95 140 180 230 295 352 405
#     4  12  25  44  63 100 141 183 224 283 348 408
#     4  11  25  44  71  98 144 183 238 287 359 412
#     4  12  23  39  69  98 137 187 229 286 343 426
#     4  11  25  44  69 104 137 187 237 290 354 419
#     4  10  22  43  72 101 132 188 234 289 354 415
#     4  12  27  44  70 102 142 181 235 286 347 422
#
# _framework density 24.800287999999998
#
# number of rings (size 3 to 8) (size 9 to 14) (size 15 to 20)
#    0.000    0.667    5.000    2.500    2.333    1.333 
#    0.000    0.000    0.000    7.000    0.000    0.000 
#    0.000    0.000    0.000    0.000    0.000    0.000 
#
# Total GULP energy -267948.758187 kJ/mol
# GULP energy per Si atom -5582.265796 kJ/mol
# Density = 2.474384 g / cm^3
# Si number density = 24.800288 Si / 1000 Ang^3
#
#
#
# Elastic Constant Matrix: (Units=GPa)
#
#
# Indices 1 2 3 4 5 6 
#
# 1 107.0851 15.6175 -9.9123 0.0000 0.0000 0.0000
# 2 15.6175 167.3945 10.1134 0.0000 0.0000 0.0000
# 3 -9.9123 10.1134 88.3802 0.0000 0.0000 0.0000
# 4 0.0000 0.0000 0.0000 27.6458 0.0000 0.0000
# 5 0.0000 0.0000 0.0000 0.0000 24.5091 0.0000
# 6 0.0000 0.0000 0.0000 0.0000 0.0000 22.0318
#
#
#
# Elastic Compliance Matrix: (Units=1/GPa)
#
#
# Indices 1 2 3 4 5 6 
#
# 1 0.009589 -0.000966 0.001186 0.000000 0.000000 0.000000
# 2 -0.000966 0.006113 -0.000808 0.000000 0.000000 0.000000
# 3 0.001186 -0.000808 0.011540 0.000000 0.000000 0.000000
# 4 0.000000 0.000000 0.000000 0.036172 0.000000 0.000000
# 5 0.000000 0.000000 0.000000 0.000000 0.040801 0.000000
# 6 0.000000 0.000000 0.000000 0.000000 0.000000 0.045389
#
#
# Mechanical properties :
#
#
# Convention : Reuss Voigt Hill
#
# Bulk Modulus (GPa) = 38.36428 43.83299 41.09864
# Shear Modulus (GPa) = 31.35406 37.97344 34.66375
#
# Velocity S-wave (km/s) = 3.55950 3.91726 3.74266
# Velocity P-wave (km/s) = 5.69177 6.17840 5.94007
#
# Compressibility (1/GPa) = 0.02606591
#
# Stress axis : x y z
#
# Youngs Moduli (GPa) = 104.28534 163.58924 86.65351
#
# Poissons Ratio (x) = 0.15807 -0.10277
# Poissons Ratio (y) = 0.10077 0.07000
# Poissons Ratio (z) = -0.12369 0.13216
#
# Static dielectric constant tensor:
#      x y z
#    x 2.041660 0.000000 0.000000 
#    y 0.000000 2.183720 0.000000 
#    z 0.000000 0.000000 1.935820 
# 
# From -- ./inp_files/3482.got.cif
#   From: 2010.05.17/outbox.cif.g08.bks.cpg/sg52_2_cif.got.tgz:3482.got - 2010.06.03 12:15:38.
