data_PCOD9412899
_publ_section_title
;
Structure prediction by ZEFSAII (Michael W. Deem and Ramdas Pophale) SiO2 
 PCOD9412899
Probable space group: P N N A
;
_chemical_formula_sum "Si O2"
_cell_formula_units_Z 56
_cell_length_a 14.633944
_cell_length_b 12.511569
_cell_length_c 13.077362
_cell_angle_alpha 90.000000
_cell_angle_beta 90.000000
_cell_angle_gamma 90.000000
_cell_volume 2394.381288
_symmetry_space_group_name_H-M "P N N A"
_symmetry_group_IT_number 52
_symmetry_cell_setting 'orthorhombic'
loop_
_space_group_symop_operation_xyz
x,y,z
1/2-x,-y,z
x,1/2-y,1/2-z
1/2-x,1/2+y,1/2-z
-x,-y,-z
1/2+x,y,-z
-x,1/2+y,1/2+z
1/2+x,1/2-y,1/2+z
loop_
_atom_site_type_symbol
_atom_site_label
_atom_site_fract_x
_atom_site_fract_y
_atom_site_fract_z
Si Si1 0.728007 0.126384 0.439116
Si Si2 0.438300 0.814386 0.420851
Si Si3 0.592008 0.708481 0.949262
Si Si4 0.181650 0.097221 0.774888
Si Si5 0.156815 0.600436 0.335817
Si Si6 0.303515 0.750000 0.250000
Si Si7 0.986295 0.023162 0.690132
Si Si8 0.250000 0.500000 0.528666
O O1 0.631279 0.140245 0.494917
O O2 0.811274 0.184573 0.497246
O O3 0.712505 0.170133 0.322974
O O4 0.750000 0.000000 0.447138
O O5 0.517819 0.746586 0.471930
O O6 0.369749 0.756518 0.345652
O O7 0.492731 0.907653 0.361094
O O8 0.601987 0.792220 0.859271
O O9 0.549850 0.602525 0.898269
O O10 0.078281 0.064937 0.744502
O O11 0.250000 0.000000 0.751140
O O12 0.199700 0.089434 0.898254
O O13 0.241060 0.644733 0.267711
O O14 0.094293 0.520777 0.273250
O O15 0.183957 0.557601 0.447419
#
# Coordination Sequence:
#
# PCOD9412899 Si02
#       8
#     8   8   8   8   8   4   8   4
#     4  11  19  39  69  93 138 172 225 288 341 412
#     4  12  24  39  71 103 134 182 229 292 353 414
#     4  12  24  41  68 108 135 178 235 291 348 419
#     4   9  22  42  66  97 128 173 230 276 340 427
#     4  12  25  46  68  96 140 182 234 291 346 427
#     4  12  26  44  62 102 142 172 234 288 352 406
#     4  12  22  42  72 100 134 180 234 282 360 431
#     4  10  26  46  68  96 130 192 228 274 362 414
#
# _framework density 23.388088
#
# number of rings (size 3 to 8) (size 9 to 14) (size 15 to 20)
#    0.429    0.286    5.714    3.000    0.000    2.857 
#    0.000    0.000    0.000    0.000    0.000    0.000 
#    0.000    0.000    0.000    0.000    0.000    0.000 
#
# Total GULP energy -312440.822638 kJ/mol
# GULP energy per Si atom -5579.300404 kJ/mol
# Density = 2.333486 g / cm^3
# Si number density = 23.388088 Si / 1000 Ang^3
#
#
#
# Elastic Constant Matrix: (Units=GPa)
#
#
# Indices 1 2 3 4 5 6 
#
# 1 119.3048 0.9118 50.9190 0.0000 0.0000 0.0000
# 2 0.9118 15.7464 6.0699 0.0000 0.0000 0.0000
# 3 50.9190 6.0699 142.5800 0.0000 0.0000 0.0000
# 4 0.0000 0.0000 0.0000 6.6721 0.0000 0.0000
# 5 0.0000 0.0000 0.0000 0.0000 27.1141 0.0000
# 6 0.0000 0.0000 0.0000 0.0000 0.0000 15.3333
#
#
#
# Elastic Compliance Matrix: (Units=1/GPa)
#
#
# Indices 1 2 3 4 5 6 
#
# 1 0.009899 0.000803 -0.003569 0.000000 0.000000 0.000000
# 2 0.000803 0.064631 -0.003038 0.000000 0.000000 0.000000
# 3 -0.003569 -0.003038 0.008418 0.000000 0.000000 0.000000
# 4 0.000000 0.000000 0.000000 0.149878 0.000000 0.000000
# 5 0.000000 0.000000 0.000000 0.000000 0.036881 0.000000
# 6 0.000000 0.000000 0.000000 0.000000 0.000000 0.065218
#
#
# Mechanical properties :
#
#
# Convention : Reuss Voigt Hill
#
# Bulk Modulus (GPa) = 14.01770 43.71473 28.86622
# Shear Modulus (GPa) = 13.50204 24.47259 18.98732
#
# Velocity S-wave (km/s) = 2.40532 3.23827 2.85237
# Velocity P-wave (km/s) = 3.70414 5.71957 4.81841
#
# Compressibility (1/GPa) = 0.07133837
#
# Stress axis : x y z
#
# Youngs Moduli (GPa) = 101.01844 15.47240 118.79761
#
# Poissons Ratio (x) = -0.01242 0.42404
# Poissons Ratio (y) = -0.08109 0.36092
# Poissons Ratio (z) = 0.36058 0.04701
#
# Static dielectric constant tensor:
#      x y z
#    x 1.859980 0.000000 0.000000 
#    y 0.000000 1.955120 0.000000 
#    z 0.000000 0.000000 2.049870 
# 
# From -- ./inp_files/26213.got.cif
#   From: 2010.05.17/outbox.cif.g08.bks.cpg/sg52_14_cif.got.tgz:26213.got - 2010.06.03 12:15:38.
