data_PCOD9412710
_publ_section_title
;
Structure prediction by ZEFSAII (Michael W. Deem and Ramdas Pophale) SiO2 
 PCOD9412710
Probable space group: P N N A
;
_chemical_formula_sum "Si O2"
_cell_formula_units_Z 56
_cell_length_a 19.785946
_cell_length_b 14.427283
_cell_length_c 9.552243
_cell_angle_alpha 90.000000
_cell_angle_beta 90.000000
_cell_angle_gamma 90.000000
_cell_volume 2726.758856
_symmetry_space_group_name_H-M "P N N A"
_symmetry_group_IT_number 52
_symmetry_cell_setting 'orthorhombic'
loop_
_space_group_symop_operation_xyz
x,y,z
1/2-x,-y,z
x,1/2-y,1/2-z
1/2-x,1/2+y,1/2-z
-x,-y,-z
1/2+x,y,-z
-x,1/2+y,1/2+z
1/2+x,1/2-y,1/2+z
loop_
_atom_site_type_symbol
_atom_site_label
_atom_site_fract_x
_atom_site_fract_y
_atom_site_fract_z
Si Si1 0.147018 0.537593 0.734792
Si Si2 0.399705 0.353168 0.191642
Si Si3 0.751485 0.839342 0.645580
Si Si4 0.021856 0.593700 0.926890
Si Si5 0.279833 0.848640 0.680242
Si Si6 0.610918 0.141144 0.745628
Si Si7 0.576113 0.507268 0.552933
O O1 0.081399 0.573924 0.817084
O O2 0.209433 0.607117 0.762714
O O3 0.168080 0.434076 0.789613
O O4 0.126258 0.535730 0.571700
O O5 0.398953 0.250000 0.250000
O O6 0.323394 0.381133 0.149296
O O7 0.421795 0.424519 0.312884
O O8 0.446622 0.349304 0.054773
O O9 0.746532 0.750000 0.750000
O O10 0.769337 0.824213 0.483100
O O11 0.816286 0.897269 0.697207
O O12 0.953975 0.627185 0.852307
O O13 0.000000 0.500000 0.000000
O O14 0.297283 0.750000 0.750000
O O15 0.619476 0.250000 0.750000
O O16 0.596112 0.093887 0.892321
O O17 0.500000 0.500000 0.500000
#
# Coordination Sequence:
#
# PCOD9412710 Si02
#       7
#     8   8   8   8   8   8   8
#     4  11  26  43  71 101 142 185 234 287 362 423
#     4  11  26  44  76 102 140 187 244 297 357 434
#     4  10  24  45  70 107 136 179 245 287 359 417
#     4  12  22  47  67 102 136 187 232 292 355 422
#     4  11  26  45  71 105 143 183 233 301 358 432
#     4  11  26  43  74 101 145 188 236 299 363 426
#     4  12  26  47  66 105 146 182 238 295 355 434
#
# _framework density 20.537203999999999
#
# number of rings (size 3 to 8) (size 9 to 14) (size 15 to 20)
#    0.000    0.857    4.286    0.857   10.000    2.286 
#    0.000    1.429    0.000    0.000    0.000    0.000 
#    0.000    0.000    0.000    0.000    0.000    0.000 
#
# Total GULP energy -312572.679005 kJ/mol
# GULP energy per Si atom -5581.654982 kJ/mol
# Density = 2.049046 g / cm^3
# Si number density = 20.537204 Si / 1000 Ang^3
#
#
#
# Elastic Constant Matrix: (Units=GPa)
#
#
# Indices 1 2 3 4 5 6 
#
# 1 77.8739 -33.0947 -1.1376 0.0000 0.0000 0.0000
# 2 -33.0947 52.6309 -10.7578 0.0000 0.0000 0.0000
# 3 -1.1376 -10.7578 106.3458 0.0000 0.0000 0.0000
# 4 0.0000 0.0000 0.0000 33.0356 0.0000 0.0000
# 5 0.0000 0.0000 0.0000 0.0000 61.2956 0.0000
# 6 0.0000 0.0000 0.0000 0.0000 0.0000 15.5940
#
#
#
# Elastic Compliance Matrix: (Units=1/GPa)
#
#
# Indices 1 2 3 4 5 6 
#
# 1 0.017710 0.011411 0.001344 0.000000 0.000000 0.000000
# 2 0.011411 0.026754 0.002828 0.000000 0.000000 0.000000
# 3 0.001344 0.002828 0.009704 0.000000 0.000000 0.000000
# 4 0.000000 0.000000 0.000000 0.030270 0.000000 0.000000
# 5 0.000000 0.000000 0.000000 0.000000 0.016314 0.000000
# 6 0.000000 0.000000 0.000000 0.000000 0.000000 0.064127
#
#
# Mechanical properties :
#
#
# Convention : Reuss Voigt Hill
#
# Bulk Modulus (GPa) = 11.71862 16.31896 14.01879
# Shear Modulus (GPa) = 30.83407 40.77440 35.80423
#
# Velocity S-wave (km/s) = 3.87896 4.46061 4.17991
# Velocity P-wave (km/s) = 5.07742 5.87304 5.48967
#
# Compressibility (1/GPa) = 0.08533429
#
# Stress axis : x y z
#
# Youngs Moduli (GPa) = 56.46421 37.37801 103.05267
#
# Poissons Ratio (x) = -0.42652 -0.13848
# Poissons Ratio (y) = -0.64432 -0.29148
# Poissons Ratio (z) = -0.07588 -0.10572
#
# Static dielectric constant tensor:
#      x y z
#    x 1.970830 0.000000 0.000000 
#    y 0.000000 1.742900 0.000000 
#    z 0.000000 0.000000 1.850260 
# 
# From -- ./inp_files/13441.got.cif
#   From: 2010.05.17/outbox.cif.g08.bks.cpg/sg52_7_cif.got.tgz:13441.got - 2010.06.03 12:15:38.
