data_PCOD9412928
_publ_section_title
;
Structure prediction by ZEFSAII (Michael W. Deem and Ramdas Pophale) SiO2 
 PCOD9412928
Probable space group: P N N A
;
_chemical_formula_sum "Si O2"
_cell_formula_units_Z 20
_cell_length_a 5.611937
_cell_length_b 5.165091
_cell_length_c 26.510575
_cell_angle_alpha 90.000000
_cell_angle_beta 90.000000
_cell_angle_gamma 90.000000
_cell_volume 768.439909
_symmetry_space_group_name_H-M "P N N A"
_symmetry_group_IT_number 52
_symmetry_cell_setting 'orthorhombic'
loop_
_space_group_symop_operation_xyz
x,y,z
1/2-x,-y,z
x,1/2-y,1/2-z
1/2-x,1/2+y,1/2-z
-x,-y,-z
1/2+x,y,-z
-x,1/2+y,1/2+z
1/2+x,1/2-y,1/2+z
loop_
_atom_site_type_symbol
_atom_site_label
_atom_site_fract_x
_atom_site_fract_y
_atom_site_fract_z
Si Si1 0.250000 0.500000 0.886653
Si Si2 0.002354 0.395471 0.442388
Si Si3 0.080349 0.750855 0.307051
O O1 0.041395 0.600394 0.925030
O O2 0.374273 0.698647 0.847480
O O3 0.750000 0.500000 0.424051
O O4 0.250000 0.500000 0.421538
O O5 0.000000 0.500000 0.500000
O O6 0.250000 0.500000 0.312640
O O7 0.980456 0.750000 0.250000
O O8 0.250000 0.000000 0.311483
#
# Coordination Sequence:
#
# PCOD9412928 Si02
#       3
#     4   8   8
#     4  12  28  44  86 116 166 220 290 336 440 506
#     4  10  26  49  77 117 165 215 281 345 420 492
#     4  10  26  50  78 118 168 217 279 353 428 515
#
# _framework density 26.026755000000001
#
# number of rings (size 3 to 8) (size 9 to 14) (size 15 to 20)
#    0.000    1.600    0.000    0.000   11.200   11.200 
#    0.000    0.000    0.000    2.400    0.000    0.000 
#    0.000    0.000    0.000    0.000    0.000    0.000 
#
# Total GULP energy -111610.457891 kJ/mol
# GULP energy per Si atom -5580.522895 kJ/mol
# Density = 2.596752 g / cm^3
# Si number density = 26.026755 Si / 1000 Ang^3
#
#
#
# Elastic Constant Matrix: (Units=GPa)
#
#
# Indices 1 2 3 4 5 6 
#
# 1 192.2463 64.8964 62.7550 0.0000 0.0000 0.0000
# 2 64.8964 150.6293 74.5207 0.0000 0.0000 0.0000
# 3 62.7550 74.5207 256.6871 0.0000 0.0000 0.0000
# 4 0.0000 0.0000 0.0000 30.8341 0.0000 0.0000
# 5 0.0000 0.0000 0.0000 0.0000 112.3658 0.0000
# 6 0.0000 0.0000 0.0000 0.0000 0.0000 58.2952
#
#
#
# Elastic Compliance Matrix: (Units=1/GPa)
#
#
# Indices 1 2 3 4 5 6 
#
# 1 0.006249 -0.002261 -0.000871 0.000000 0.000000 0.000000
# 2 -0.002261 0.008571 -0.001935 0.000000 0.000000 0.000000
# 3 -0.000871 -0.001935 0.004671 0.000000 0.000000 0.000000
# 4 0.000000 0.000000 0.000000 0.032432 0.000000 0.000000
# 5 0.000000 0.000000 0.000000 0.000000 0.008900 0.000000
# 6 0.000000 0.000000 0.000000 0.000000 0.000000 0.017154
#
#
# Mechanical properties :
#
#
# Convention : Reuss Voigt Hill
#
# Bulk Modulus (GPa) = 106.89959 111.54521 109.22240
# Shear Modulus (GPa) = 54.80639 66.79174 60.79907
#
# Velocity S-wave (km/s) = 4.59385 5.07133 4.83848
# Velocity P-wave (km/s) = 8.32466 8.78875 8.55985
#
# Compressibility (1/GPa) = 0.00935457
#
# Stress axis : x y z
#
# Youngs Moduli (GPa) = 160.01335 116.67837 214.10174
#
# Poissons Ratio (x) = 0.26386 0.18656
# Poissons Ratio (y) = 0.36186 0.41435
# Poissons Ratio (z) = 0.13943 0.22581
#
# Static dielectric constant tensor:
#      x y z
#    x 2.054630 0.000000 0.000000 
#    y 0.000000 1.891380 0.000000 
#    z 0.000000 0.000000 2.144760 
# 
# From -- ./inp_files/41270.got.cif
#   From: 2010.05.17/outbox.cif.g08.bks.cpg/sg52_21_cif.got.tgz:41270.got - 2010.06.03 12:15:38.
