data_PCOD9412801
_publ_section_title
;
Structure prediction by ZEFSAII (Michael W. Deem and Ramdas Pophale) SiO2 
 PCOD9412801
Probable space group: P N N A
;
_chemical_formula_sum "Si O2"
_cell_formula_units_Z 32
_cell_length_a 11.308229
_cell_length_b 8.859500
_cell_length_c 12.882971
_cell_angle_alpha 90.000000
_cell_angle_beta 90.000000
_cell_angle_gamma 90.000000
_cell_volume 1290.683733
_symmetry_space_group_name_H-M "P N N A"
_symmetry_group_IT_number 52
_symmetry_cell_setting 'orthorhombic'
loop_
_space_group_symop_operation_xyz
x,y,z
1/2-x,-y,z
x,1/2-y,1/2-z
1/2-x,1/2+y,1/2-z
-x,-y,-z
1/2+x,y,-z
-x,1/2+y,1/2+z
1/2+x,1/2-y,1/2+z
loop_
_atom_site_type_symbol
_atom_site_label
_atom_site_fract_x
_atom_site_fract_y
_atom_site_fract_z
Si Si1 0.061867 0.091714 0.098943
Si Si2 0.725166 0.822654 0.578502
Si Si3 0.357534 0.175692 0.642783
Si Si4 0.495711 0.893373 0.703915
O O1 0.310812 0.819624 0.104931
O O2 0.052543 0.989022 0.201649
O O3 0.974284 0.231101 0.113320
O O4 0.000000 0.000000 0.000000
O O5 0.725165 0.808395 0.454873
O O6 0.594876 0.819953 0.629379
O O7 0.750000 0.000000 0.603407
O O8 0.318668 0.250000 0.750000
O O9 0.402813 0.005758 0.653397
O O10 0.431027 0.750000 0.750000
#
# Coordination Sequence:
#
# PCOD9412801 Si02
#       4
#     8   8   8   8
#     4  11  26  47  71 109 152 196 249 327 396 463
#     4  12  26  43  76 107 146 199 267 316 386 470
#     4  10  24  49  66 102 150 195 250 320 388 464
#     4  11  25  42  77 105 149 195 255 320 394 457
#
# _framework density 24.793060000000001
#
# number of rings (size 3 to 8) (size 9 to 14) (size 15 to 20)
#    0.000    1.000    2.500    2.250    7.000    3.000 
#    9.000    0.000    0.000    0.000    0.000    0.000 
#    0.000    0.000    0.000    0.000    0.000    0.000 
#
# Total GULP energy -178583.906141 kJ/mol
# GULP energy per Si atom -5580.747067 kJ/mol
# Density = 2.473663 g / cm^3
# Si number density = 24.793060 Si / 1000 Ang^3
#
#
#
# Elastic Constant Matrix: (Units=GPa)
#
#
# Indices 1 2 3 4 5 6 
#
# 1 83.2962 22.5200 22.1320 0.0000 0.0000 0.0000
# 2 22.5200 129.7450 2.9573 0.0000 0.0000 0.0000
# 3 22.1320 2.9573 97.7787 0.0000 0.0000 0.0000
# 4 0.0000 0.0000 0.0000 45.8533 0.0000 0.0000
# 5 0.0000 0.0000 0.0000 0.0000 3.3450 0.0000
# 6 0.0000 0.0000 0.0000 0.0000 0.0000 12.3072
#
#
#
# Elastic Compliance Matrix: (Units=1/GPa)
#
#
# Indices 1 2 3 4 5 6 
#
# 1 0.013404 -0.002259 -0.002966 0.000000 0.000000 0.000000
# 2 -0.002259 0.008093 0.000267 0.000000 0.000000 0.000000
# 3 -0.002966 0.000267 0.010890 0.000000 0.000000 0.000000
# 4 0.000000 0.000000 0.000000 0.021809 0.000000 0.000000
# 5 0.000000 0.000000 0.000000 0.000000 0.298950 0.000000
# 6 0.000000 0.000000 0.000000 0.000000 0.000000 0.081253
#
#
# Mechanical properties :
#
#
# Convention : Reuss Voigt Hill
#
# Bulk Modulus (GPa) = 44.50039 45.11537 44.80788
# Shear Modulus (GPa) = 11.06668 29.84847 20.45757
#
# Velocity S-wave (km/s) = 2.11502 3.47350 2.87563
# Velocity P-wave (km/s) = 4.89409 5.85860 5.39793
#
# Compressibility (1/GPa) = 0.02247171
#
# Stress axis : x y z
#
# Youngs Moduli (GPa) = 74.60427 123.55682 91.82408
#
# Poissons Ratio (x) = 0.27911 0.27232
# Poissons Ratio (y) = 0.16853 -0.02447
# Poissons Ratio (z) = 0.22125 -0.03293
#
# Static dielectric constant tensor:
#      x y z
#    x 2.029810 0.000000 0.000000 
#    y 0.000000 2.509960 0.000000 
#    z 0.000000 0.000000 1.974110 
# 
# From -- ./inp_files/26671.got.cif
#   From: 2010.05.17/outbox.cif.g08.bks.cpg/sg52_14_cif.got.tgz:26671.got - 2010.06.03 12:15:38.
