data_PCOD9412303
_publ_section_title
;
Structure prediction by ZEFSAII (Michael W. Deem and Ramdas Pophale) SiO2 
 PCOD9412303
Probable space group: P N N A
;
_chemical_formula_sum "Si O2"
_cell_formula_units_Z 32
_cell_length_a 14.695187
_cell_length_b 13.985655
_cell_length_c 6.703827
_cell_angle_alpha 90.000000
_cell_angle_beta 90.000000
_cell_angle_gamma 90.000000
_cell_volume 1377.782696
_symmetry_space_group_name_H-M "P N N A"
_symmetry_group_IT_number 52
_symmetry_cell_setting 'orthorhombic'
loop_
_space_group_symop_operation_xyz
x,y,z
1/2-x,-y,z
x,1/2-y,1/2-z
1/2-x,1/2+y,1/2-z
-x,-y,-z
1/2+x,y,-z
-x,1/2+y,1/2+z
1/2+x,1/2-y,1/2+z
loop_
_atom_site_type_symbol
_atom_site_label
_atom_site_fract_x
_atom_site_fract_y
_atom_site_fract_z
Si Si1 0.958472 0.835047 0.093599
Si Si2 0.652425 0.581430 0.504925
Si Si3 0.179978 0.376238 0.282934
Si Si4 0.788901 0.862458 0.315378
O O1 0.980617 0.750000 0.250000
O O2 0.885213 0.896882 0.219895
O O3 0.897704 0.815659 0.896876
O O4 0.050245 0.882967 0.018733
O O5 0.722495 0.650099 0.623370
O O6 0.658291 0.483295 0.633075
O O7 0.701037 0.587992 0.286685
O O8 0.196057 0.375769 0.048698
O O9 0.783567 0.750000 0.250000
#
# Coordination Sequence:
#
# PCOD9412303 Si02
#       4
#     8   8   8   8
#     4  10  23  41  68 103 135 173 233 282 346 408
#     4  10  23  42  70  99 133 180 234 274 347 412
#     4  10  23  43  67  98 145 179 222 290 343 405
#     4  10  24  44  66 100 141 180 228 286 347 413
#
# _framework density 23.225722999999999
#
# number of rings (size 3 to 8) (size 9 to 14) (size 15 to 20)
#    0.000    2.000    0.000    0.750    3.500   19.000 
#    4.500    0.000    0.000    4.500    0.000    0.000 
#    0.000    0.000    0.000    0.000    0.000    0.000 
#
# Total GULP energy -178210.629363 kJ/mol
# GULP energy per Si atom -5569.082168 kJ/mol
# Density = 2.317286 g / cm^3
# Si number density = 23.225723 Si / 1000 Ang^3
#
#
#
# Elastic Constant Matrix: (Units=GPa)
#
#
# Indices 1 2 3 4 5 6 
#
# 1 188.5758 47.1487 83.8972 0.0000 0.0000 0.0000
# 2 47.1487 95.4734 55.4739 0.0000 0.0000 0.0000
# 3 83.8972 55.4739 275.7891 0.0000 0.0000 0.0000
# 4 0.0000 0.0000 0.0000 23.2397 0.0000 0.0000
# 5 0.0000 0.0000 0.0000 0.0000 4.7730 0.0000
# 6 0.0000 0.0000 0.0000 0.0000 0.0000 0.3971
#
#
#
# Elastic Compliance Matrix: (Units=1/GPa)
#
#
# Indices 1 2 3 4 5 6 
#
# 1 0.006571 -0.002359 -0.001524 0.000000 0.000000 0.000000
# 2 -0.002359 0.012707 -0.001838 0.000000 0.000000 0.000000
# 3 -0.001524 -0.001838 0.004459 0.000000 0.000000 0.000000
# 4 0.000000 0.000000 0.000000 0.043030 0.000000 0.000000
# 5 0.000000 0.000000 0.000000 0.000000 0.209510 0.000000
# 6 0.000000 0.000000 0.000000 0.000000 0.000000 2.518553
#
#
# Mechanical properties :
#
#
# Convention : Reuss Voigt Hill
#
# Bulk Modulus (GPa) = 81.34167 103.65311 92.49739
# Shear Modulus (GPa) = 1.77912 30.56985 16.17449
#
# Velocity S-wave (km/s) = 0.87617 3.63189 2.64181
# Velocity P-wave (km/s) = 6.01014 7.89386 7.01551
#
# Compressibility (1/GPa) = 0.01229382
#
# Stress axis : x y z
#
# Youngs Moduli (GPa) = 152.18416 78.69441 224.24240
#
# Poissons Ratio (x) = 0.18566 0.34183
# Poissons Ratio (y) = 0.35905 0.41223
# Poissons Ratio (z) = 0.23199 0.14467
#
# Static dielectric constant tensor:
#      x y z
#    x 1.884850 0.000000 0.000000 
#    y 0.000000 2.292610 0.000000 
#    z 0.000000 0.000000 1.908000 
# 
# From -- ./inp_files/1994.got.cif
#   From: 2010.05.17/outbox.cif.g08.bks.cpg/sg52_1_cif.got.tgz:1994.got - 2010.06.03 12:15:38.
