data_PCOD9412832
_publ_section_title
;
Structure prediction by ZEFSAII (Michael W. Deem and Ramdas Pophale) SiO2 
 PCOD9412832
Probable space group: P N N A
;
_chemical_formula_sum "Si O2"
_cell_formula_units_Z 32
_cell_length_a 18.844494
_cell_length_b 11.197229
_cell_length_c 6.848272
_cell_angle_alpha 90.000000
_cell_angle_beta 90.000000
_cell_angle_gamma 90.000000
_cell_volume 1445.027267
_symmetry_space_group_name_H-M "P N N A"
_symmetry_group_IT_number 52
_symmetry_cell_setting 'orthorhombic'
loop_
_space_group_symop_operation_xyz
x,y,z
1/2-x,-y,z
x,1/2-y,1/2-z
1/2-x,1/2+y,1/2-z
-x,-y,-z
1/2+x,y,-z
-x,1/2+y,1/2+z
1/2+x,1/2-y,1/2+z
loop_
_atom_site_type_symbol
_atom_site_label
_atom_site_fract_x
_atom_site_fract_y
_atom_site_fract_z
Si Si1 0.916341 0.330913 0.441074
Si Si2 0.571308 0.243756 0.979901
Si Si3 0.200751 0.750000 0.250000
Si Si4 0.622435 0.430753 0.237561
Si Si5 0.750000 0.000000 0.549099
O O1 0.913273 0.250000 0.250000
O O2 0.852349 0.294306 0.580351
O O3 0.907536 0.462961 0.363558
O O4 0.995240 0.314342 0.523894
O O5 0.583377 0.250000 0.750000
O O6 0.569968 0.372820 0.079020
O O7 0.632469 0.170974 0.094865
O O8 0.239099 0.625726 0.172152
O O9 0.685745 0.475506 0.101121
#
# Coordination Sequence:
#
# PCOD9412832 Si02
#       5
#     8   8   4   8   4
#     4  11  24  47  76 109 147 188 245 315 378 438
#     4  10  25  44  76 112 145 190 244 311 380 442
#     4  12  28  52  74 110 142 210 248 306 372 444
#     4  11  25  47  69 110 149 192 248 308 365 446
#     4  12  30  48  78 102 156 202 256 298 368 456
#
# _framework density 22.144909999999999
#
# number of rings (size 3 to 8) (size 9 to 14) (size 15 to 20)
#    0.000    1.000    2.500    2.250    5.250   11.000 
#    0.000    0.000    0.000    0.000    0.000    0.000 
#    0.000    0.000    0.000    0.000    0.000    0.000 
#
# Total GULP energy -178520.512900 kJ/mol
# GULP energy per Si atom -5578.766028 kJ/mol
# Density = 2.209451 g / cm^3
# Si number density = 22.144910 Si / 1000 Ang^3
#
#
#
# Elastic Constant Matrix: (Units=GPa)
#
#
# Indices 1 2 3 4 5 6 
#
# 1 89.2425 58.3951 38.7316 0.0000 0.0000 0.0000
# 2 58.3951 148.9176 49.9245 0.0000 0.0000 0.0000
# 3 38.7316 49.9245 118.9662 0.0000 0.0000 0.0000
# 4 0.0000 0.0000 0.0000 37.6319 0.0000 0.0000
# 5 0.0000 0.0000 0.0000 0.0000 38.9234 0.0000
# 6 0.0000 0.0000 0.0000 0.0000 0.0000 69.7988
#
#
#
# Elastic Compliance Matrix: (Units=1/GPa)
#
#
# Indices 1 2 3 4 5 6 
#
# 1 0.015935 -0.005248 -0.002986 0.000000 0.000000 0.000000
# 2 -0.005248 0.009543 -0.002296 0.000000 0.000000 0.000000
# 3 -0.002986 -0.002296 0.010341 0.000000 0.000000 0.000000
# 4 0.000000 0.000000 0.000000 0.026573 0.000000 0.000000
# 5 0.000000 0.000000 0.000000 0.000000 0.025691 0.000000
# 6 0.000000 0.000000 0.000000 0.000000 0.000000 0.014327
#
#
# Mechanical properties :
#
#
# Convention : Reuss Voigt Hill
#
# Bulk Modulus (GPa) = 67.75061 72.35874 70.05468
# Shear Modulus (GPa) = 38.94396 43.27583 41.10989
#
# Velocity S-wave (km/s) = 4.19811 4.42544 4.31327
# Velocity P-wave (km/s) = 7.35931 7.67195 7.51726
#
# Compressibility (1/GPa) = 0.01476001
#
# Stress axis : x y z
#
# Youngs Moduli (GPa) = 62.75503 104.79268 96.69873
#
# Poissons Ratio (x) = 0.54991 0.28872
# Poissons Ratio (y) = 0.32931 0.22203
# Poissons Ratio (z) = 0.18737 0.24062
#
# Static dielectric constant tensor:
#      x y z
#    x 1.836330 0.000000 0.000000 
#    y 0.000000 1.810340 0.000000 
#    z 0.000000 0.000000 1.799330 
# 
# From -- ./inp_files/3957.got.cif
#   From: 2010.05.17/outbox.cif.g08.bks.cpg/sg52_2_cif.got.tgz:3957.got - 2010.06.03 12:15:38.
