data_PCOD9412590
_publ_section_title
;
Structure prediction by ZEFSAII (Michael W. Deem and Ramdas Pophale) SiO2 
 PCOD9412590
Probable space group: P N N A
;
_chemical_formula_sum "Si O2"
_cell_formula_units_Z 40
_cell_length_a 13.383386
_cell_length_b 9.127370
_cell_length_c 14.240380
_cell_angle_alpha 90.000000
_cell_angle_beta 90.000000
_cell_angle_gamma 90.000000
_cell_volume 1739.535269
_symmetry_space_group_name_H-M "P N N A"
_symmetry_group_IT_number 52
_symmetry_cell_setting 'orthorhombic'
loop_
_space_group_symop_operation_xyz
x,y,z
1/2-x,-y,z
x,1/2-y,1/2-z
1/2-x,1/2+y,1/2-z
-x,-y,-z
1/2+x,y,-z
-x,1/2+y,1/2+z
1/2+x,1/2-y,1/2+z
loop_
_atom_site_type_symbol
_atom_site_label
_atom_site_fract_x
_atom_site_fract_y
_atom_site_fract_z
Si Si1 0.422920 0.630337 0.497670
Si Si2 0.562118 0.421824 0.110330
Si Si3 0.250000 0.500000 0.625475
Si Si4 0.291932 0.750000 0.750000
Si Si5 0.647475 0.913400 0.564563
Si Si6 0.231740 0.170819 0.150976
O O1 0.500000 0.500000 0.500000
O O2 0.458202 0.778048 0.546724
O O3 0.334465 0.565290 0.560480
O O4 0.375220 0.678534 0.399644
O O5 0.634566 0.359870 0.191321
O O6 0.446371 0.461533 0.130335
O O7 0.616051 0.539142 0.041865
O O8 0.224622 0.640993 0.688933
O O9 0.684341 0.748022 0.584614
O O10 0.750000 0.000000 0.585290
O O11 0.236097 0.250000 0.250000
O O12 0.250000 0.000000 0.162584
#
# Coordination Sequence:
#
# PCOD9412590 Si02
#       6
#     8   8   4   4   8   8
#     4  11  23  46  69 105 146 191 243 297 371 432
#     4  10  24  41  72 105 143 192 242 300 364 438
#     4  10  24  46  72 100 142 194 228 302 360 424
#     4  10  24  46  68 106 144 184 244 296 354 430
#     4  11  23  46  72 104 142 193 242 296 374 436
#     4  12  26  45  74 105 146 190 243 304 366 437
#
# _framework density 22.994645999999999
#
# number of rings (size 3 to 8) (size 9 to 14) (size 15 to 20)
#    0.000    1.200    3.000    1.800    2.800    0.000 
#   12.600    0.000    0.000    0.000    0.000    0.000 
#    0.000    0.000    0.000    0.000    0.000    0.000 
#
# Total GULP energy -223450.782832 kJ/mol
# GULP energy per Si atom -5586.269571 kJ/mol
# Density = 2.294231 g / cm^3
# Si number density = 22.994646 Si / 1000 Ang^3
#
#
#
# Elastic Constant Matrix: (Units=GPa)
#
#
# Indices 1 2 3 4 5 6 
#
# 1 74.8157 41.8481 15.8073 0.0000 0.0000 0.0000
# 2 41.8481 146.8744 52.0987 0.0000 0.0000 0.0000
# 3 15.8073 52.0987 71.1447 0.0000 0.0000 0.0000
# 4 0.0000 0.0000 0.0000 55.1229 0.0000 0.0000
# 5 0.0000 0.0000 0.0000 0.0000 -4.0850 0.0000
# 6 0.0000 0.0000 0.0000 0.0000 0.0000 38.5297
#
#
#
# Elastic Compliance Matrix: (Units=1/GPa)
#
#
# Indices 1 2 3 4 5 6 
#
# 1 0.015905 -0.004428 -0.000291 0.000000 0.000000 0.000000
# 2 -0.004428 0.010431 -0.006654 0.000000 0.000000 0.000000
# 3 -0.000291 -0.006654 0.018993 0.000000 0.000000 0.000000
# 4 0.000000 0.000000 0.000000 0.018141 0.000000 0.000000
# 5 0.000000 0.000000 0.000000 0.000000 -0.244800 0.000000
# 6 0.000000 0.000000 0.000000 0.000000 0.000000 0.025954
#
#
# Mechanical properties :
#
#
# Convention : Reuss Voigt Hill
#
# Bulk Modulus (GPa) = 44.28420 56.92700 50.60560
# Shear Modulus (GPa) = -39.96774 30.11890 -4.92442
#
# Velocity S-wave (km/s) = -4.17361 3.62307 -1.46499
# Velocity P-wave (km/s) = 1.98119 6.50481 4.38107
#
# Compressibility (1/GPa) = 0.02258142
#
# Stress axis : x y z
#
# Youngs Moduli (GPa) = 62.87453 95.87050 52.64974
#
# Poissons Ratio (x) = 0.42456 0.01531
# Poissons Ratio (y) = 0.27844 0.35035
# Poissons Ratio (z) = 0.01829 0.63796
#
# Static dielectric constant tensor:
#      x y z
#    x 3.624600 0.000000 0.000000 
#    y 0.000000 2.038270 0.000000 
#    z 0.000000 0.000000 1.913700 
# 
# From -- ./inp_files/26938.got.cif
#   From: 2010.05.17/outbox.cif.g08.bks.cpg/sg52_14_cif.got.tgz:26938.got - 2010.06.03 12:15:38.
