data_PCOD9412201
_publ_section_title
;
Structure prediction by ZEFSAII (Michael W. Deem and Ramdas Pophale) SiO2 
 PCOD9412201
Probable space group: P N N A
;
_chemical_formula_sum "Si O2"
_cell_formula_units_Z 36
_cell_length_a 14.198900
_cell_length_b 9.745132
_cell_length_c 10.494822
_cell_angle_alpha 90.000000
_cell_angle_beta 90.000000
_cell_angle_gamma 90.000000
_cell_volume 1452.170144
_symmetry_space_group_name_H-M "P N N A"
_symmetry_group_IT_number 52
_symmetry_cell_setting 'orthorhombic'
loop_
_space_group_symop_operation_xyz
x,y,z
1/2-x,-y,z
x,1/2-y,1/2-z
1/2-x,1/2+y,1/2-z
-x,-y,-z
1/2+x,y,-z
-x,1/2+y,1/2+z
1/2+x,1/2-y,1/2+z
loop_
_atom_site_type_symbol
_atom_site_label
_atom_site_fract_x
_atom_site_fract_y
_atom_site_fract_z
Si Si1 0.030613 0.846096 0.538748
Si Si2 0.250000 0.500000 0.669268
Si Si3 0.842711 0.804659 0.876163
Si Si4 0.738680 0.854704 0.408454
Si Si5 0.595752 0.925392 0.963010
O O1 0.127074 0.849479 0.618463
O O2 0.066892 0.731632 0.434655
O O3 0.942416 0.774253 0.607127
O O4 0.000000 0.000000 0.500000
O O5 0.215242 0.386831 0.771790
O O6 0.335902 0.445716 0.585017
O O7 0.794023 0.750000 0.750000
O O8 0.785728 0.758822 0.002280
O O9 0.858265 0.967838 0.864625
O O10 0.750000 0.000000 0.482959
O O11 0.500000 0.000000 0.000000
#
# Coordination Sequence:
#
# PCOD9412201 Si02
#       5
#     8   4   8   8   8
#     4  11  22  45  70 100 146 195 247 302 377 460
#     4  10  22  46  74 108 148 188 260 318 370 474
#     4  11  25  47  73 105 153 194 250 320 387 458
#     4  10  23  43  74 106 137 201 249 306 385 448
#     4  10  24  41  70 109 139 190 251 310 376 447
#
# _framework density 24.790482999999998
#
# number of rings (size 3 to 8) (size 9 to 14) (size 15 to 20)
#    0.667    0.889    2.222    1.333    6.222    2.667 
#    6.000    1.111    4.889    0.000    0.000    0.000 
#    0.000    0.000    0.000    0.000    0.000    0.000 
#
# Total GULP energy -200561.321015 kJ/mol
# GULP energy per Si atom -5571.147806 kJ/mol
# Density = 2.473406 g / cm^3
# Si number density = 24.790483 Si / 1000 Ang^3
#
#
#
# Elastic Constant Matrix: (Units=GPa)
#
#
# Indices 1 2 3 4 5 6 
#
# 1 153.1315 19.8090 29.4305 0.0000 0.0000 0.0000
# 2 19.8090 234.7038 35.3744 0.0000 0.0000 0.0000
# 3 29.4305 35.3744 94.8925 0.0000 0.0000 0.0000
# 4 0.0000 0.0000 0.0000 18.1131 0.0000 0.0000
# 5 0.0000 0.0000 0.0000 0.0000 10.5492 0.0000
# 6 0.0000 0.0000 0.0000 0.0000 0.0000 39.4279
#
#
#
# Elastic Compliance Matrix: (Units=1/GPa)
#
#
# Indices 1 2 3 4 5 6 
#
# 1 0.006961 -0.000278 -0.002055 0.000000 0.000000 0.000000
# 2 -0.000278 0.004525 -0.001601 0.000000 0.000000 0.000000
# 3 -0.002055 -0.001601 0.011773 0.000000 0.000000 0.000000
# 4 0.000000 0.000000 0.000000 0.055209 0.000000 0.000000
# 5 0.000000 0.000000 0.000000 0.000000 0.094794 0.000000
# 6 0.000000 0.000000 0.000000 0.000000 0.000000 0.025363
#
#
# Mechanical properties :
#
#
# Convention : Reuss Voigt Hill
#
# Bulk Modulus (GPa) = 64.97272 72.43951 68.70612
# Shear Modulus (GPa) = 23.62691 40.15897 31.89294
#
# Velocity S-wave (km/s) = 3.09052 4.02921 3.59067
# Velocity P-wave (km/s) = 6.24506 7.13654 6.70563
#
# Compressibility (1/GPa) = 0.01539107
#
# Stress axis : x y z
#
# Youngs Moduli (GPa) = 143.65115 220.97443 84.94355
#
# Poissons Ratio (x) = 0.06137 0.17460
# Poissons Ratio (y) = 0.03990 0.13598
# Poissons Ratio (z) = 0.29527 0.35375
#
# Static dielectric constant tensor:
#      x y z
#    x 1.968960 0.000000 0.000000 
#    y 0.000000 2.233550 0.000000 
#    z 0.000000 0.000000 2.003800 
# 
# From -- ./inp_files/26780.got.cif
#   From: 2010.05.17/outbox.cif.g08.bks.cpg/sg52_14_cif.got.tgz:26780.got - 2010.06.03 12:15:38.
