data_PCOD9412489
_publ_section_title
;
Structure prediction by ZEFSAII (Michael W. Deem and Ramdas Pophale) SiO2 
 PCOD9412489
Probable space group: P N N A
;
_chemical_formula_sum "Si O2"
_cell_formula_units_Z 40
_cell_length_a 25.870919
_cell_length_b 11.669553
_cell_length_c 4.557141
_cell_angle_alpha 90.000000
_cell_angle_beta 90.000000
_cell_angle_gamma 90.000000
_cell_volume 1375.810258
_symmetry_space_group_name_H-M "P N N A"
_symmetry_group_IT_number 52
_symmetry_cell_setting 'orthorhombic'
loop_
_space_group_symop_operation_xyz
x,y,z
1/2-x,-y,z
x,1/2-y,1/2-z
1/2-x,1/2+y,1/2-z
-x,-y,-z
1/2+x,y,-z
-x,1/2+y,1/2+z
1/2+x,1/2-y,1/2+z
loop_
_atom_site_type_symbol
_atom_site_label
_atom_site_fract_x
_atom_site_fract_y
_atom_site_fract_z
Si Si1 0.107738 0.671531 0.530171
Si Si2 0.998589 0.616958 0.701934
Si Si3 0.938601 0.750000 0.250000
Si Si4 0.289559 0.633422 0.920982
Si Si5 0.611750 0.421287 0.699357
Si Si6 0.750000 0.500000 0.587481
O O1 0.096570 0.750000 0.250000
O O2 0.122654 0.550452 0.390392
O O3 0.059570 0.633935 0.742817
O O4 0.141889 0.750000 0.750000
O O5 0.983917 0.723897 0.493693
O O6 0.944187 0.588983 0.876199
O O7 0.000000 0.500000 0.500000
O O8 0.899888 0.661619 0.422650
O O9 0.280341 0.750000 0.750000
O O10 0.341924 0.625032 0.106631
O O11 0.247002 0.602559 0.173147
O O12 0.708903 0.458675 0.344066
#
# Coordination Sequence:
#
# PCOD9412489 Si02
#       6
#     8   8   4   8   8   4
#     4  11  23  43  68 100 157 233 283 330 401 473
#     4   9  19  37  62 106 156 211 281 348 405 456
#     4   8  20  40  64 114 154 206 276 360 396 450
#     4  11  25  52  85 126 157 202 253 332 414 497
#     4  10  23  45  75 117 158 205 277 341 405 464
#     4  10  26  52  80 122 160 192 244 314 416 522
#
# _framework density 29.073778000000001
#
# number of rings (size 3 to 8) (size 9 to 14) (size 15 to 20)
#    1.200    0.800    1.000    1.200    0.000    6.400 
#   10.800   10.000    0.000    0.000    0.000    1.400 
#    0.000    0.000    0.000    0.000    0.000    0.000 
#
# Total GULP energy -222675.977758 kJ/mol
# GULP energy per Si atom -5566.899444 kJ/mol
# Density = 2.900761 g / cm^3
# Si number density = 29.073778 Si / 1000 Ang^3
#
#
#
# Elastic Constant Matrix: (Units=GPa)
#
#
# Indices 1 2 3 4 5 6 
#
# 1 79.2659 33.2588 53.0233 0.0000 0.0000 0.0000
# 2 33.2588 126.9882 64.6136 0.0000 0.0000 0.0000
# 3 53.0233 64.6136 230.2383 0.0000 0.0000 0.0000
# 4 0.0000 0.0000 0.0000 71.3371 0.0000 0.0000
# 5 0.0000 0.0000 0.0000 0.0000 64.4938 0.0000
# 6 0.0000 0.0000 0.0000 0.0000 0.0000 21.5659
#
#
#
# Elastic Compliance Matrix: (Units=1/GPa)
#
#
# Indices 1 2 3 4 5 6 
#
# 1 0.015637 -0.002640 -0.002860 0.000000 0.000000 0.000000
# 2 -0.002640 0.009632 -0.002095 0.000000 0.000000 0.000000
# 3 -0.002860 -0.002095 0.005590 0.000000 0.000000 0.000000
# 4 0.000000 0.000000 0.000000 0.014018 0.000000 0.000000
# 5 0.000000 0.000000 0.000000 0.000000 0.015505 0.000000
# 6 0.000000 0.000000 0.000000 0.000000 0.000000 0.046370
#
#
# Mechanical properties :
#
#
# Convention : Reuss Voigt Hill
#
# Bulk Modulus (GPa) = 63.82364 82.03156 72.92760
# Shear Modulus (GPa) = 39.31884 50.51913 44.91899
#
# Velocity S-wave (km/s) = 3.68146 4.17300 3.93491
# Velocity P-wave (km/s) = 6.33015 7.17598 6.76630
#
# Compressibility (1/GPa) = 0.01566817
#
# Stress axis : x y z
#
# Youngs Moduli (GPa) = 63.95187 103.81795 178.89043
#
# Poissons Ratio (x) = 0.27408 0.51167
# Poissons Ratio (y) = 0.16883 0.37481
# Poissons Ratio (z) = 0.18292 0.21752
#
# Static dielectric constant tensor:
#      x y z
#    x 2.382890 0.000000 0.000000 
#    y 0.000000 4.104280 0.000000 
#    z 0.000000 0.000000 3.179500 
# 
# From -- ./inp_files/5609.got.cif
#   From: 2010.05.17/outbox.cif.g08.bks.cpg/sg52_3_cif.got.tgz:5609.got - 2010.06.03 12:15:38.
