data_PCOD9412123
_publ_section_title
;
Structure prediction by ZEFSAII (Michael W. Deem and Ramdas Pophale) SiO2 
 PCOD9412123
Probable space group: P N N A
;
_chemical_formula_sum "Si O2"
_cell_formula_units_Z 44
_cell_length_a 14.002305
_cell_length_b 24.232038
_cell_length_c 6.288643
_cell_angle_alpha 90.000000
_cell_angle_beta 90.000000
_cell_angle_gamma 90.000000
_cell_volume 2133.764157
_symmetry_space_group_name_H-M "P N N A"
_symmetry_group_IT_number 52
_symmetry_cell_setting 'orthorhombic'
loop_
_space_group_symop_operation_xyz
x,y,z
1/2-x,-y,z
x,1/2-y,1/2-z
1/2-x,1/2+y,1/2-z
-x,-y,-z
1/2+x,y,-z
-x,1/2+y,1/2+z
1/2+x,1/2-y,1/2+z
loop_
_atom_site_type_symbol
_atom_site_label
_atom_site_fract_x
_atom_site_fract_y
_atom_site_fract_z
Si Si1 0.929965 0.293334 0.082945
Si Si2 0.198825 0.941576 0.661070
Si Si3 0.837372 0.863029 0.065857
Si Si4 0.582444 0.250000 0.250000
Si Si5 0.316706 0.363371 0.225634
Si Si6 0.036973 0.891869 0.902335
O O1 0.890484 0.250000 0.250000
O O2 0.967150 0.345212 0.219217
O O3 0.014490 0.266793 0.946806
O O4 0.848774 0.314007 0.925263
O O5 0.267801 0.898658 0.784629
O O6 0.186273 0.917193 0.424725
O O7 0.097624 0.940343 0.787935
O O8 0.250000 0.000000 0.660053
O O9 0.862286 0.805062 0.177730
O O10 0.780952 0.852980 0.847232
O O11 0.932553 0.897056 0.003103
O O12 0.397284 0.370573 0.404840
#
# Coordination Sequence:
#
# PCOD9412123 Si02
#       6
#     8   8   8   4   8   8
#     4  11  20  40  65  93 137 181 215 270 335 403
#     4  10  25  46  70 100 136 179 236 296 345 400
#     4  11  24  44  68 104 135 182 235 276 345 423
#     4  12  24  42  68 100 138 178 220 282 338 412
#     4  10  23  44  62  97 137 178 227 277 340 401
#     4  10  22  44  68  96 134 175 225 278 338 407
#
# _framework density 20.620837000000002
#
# number of rings (size 3 to 8) (size 9 to 14) (size 15 to 20)
#    0.000    1.455    3.636    0.000    2.545    3.636 
#   27.818    1.818    0.000    0.000    0.000    0.000 
#    0.000    0.000    0.000    0.000    0.000    0.000 
#
# Total GULP energy -245921.254749 kJ/mol
# GULP energy per Si atom -5589.119426 kJ/mol
# Density = 2.057390 g / cm^3
# Si number density = 20.620837 Si / 1000 Ang^3
#
#
#
# Elastic Constant Matrix: (Units=GPa)
#
#
# Indices 1 2 3 4 5 6 
#
# 1 100.1343 3.5961 34.5225 0.0000 0.0000 0.0000
# 2 3.5961 59.7830 26.7094 0.0000 0.0000 0.0000
# 3 34.5225 26.7094 116.7040 0.0000 0.0000 0.0000
# 4 0.0000 0.0000 0.0000 14.0499 0.0000 0.0000
# 5 0.0000 0.0000 0.0000 0.0000 30.7362 0.0000
# 6 0.0000 0.0000 0.0000 0.0000 0.0000 14.7061
#
#
#
# Elastic Compliance Matrix: (Units=1/GPa)
#
#
# Indices 1 2 3 4 5 6 
#
# 1 0.011164 0.000895 -0.003507 0.000000 0.000000 0.000000
# 2 0.000895 0.018704 -0.004546 0.000000 0.000000 0.000000
# 3 -0.003507 -0.004546 0.010647 0.000000 0.000000 0.000000
# 4 0.000000 0.000000 0.000000 0.071175 0.000000 0.000000
# 5 0.000000 0.000000 0.000000 0.000000 0.032535 0.000000
# 6 0.000000 0.000000 0.000000 0.000000 0.000000 0.067999
#
#
# Mechanical properties :
#
#
# Convention : Reuss Voigt Hill
#
# Bulk Modulus (GPa) = 38.16882 45.14192 41.65537
# Shear Modulus (GPa) = 21.25209 26.01799 23.63504
#
# Velocity S-wave (km/s) = 3.21380 3.55594 3.38919
# Velocity P-wave (km/s) = 5.68519 6.22885 5.96322
#
# Compressibility (1/GPa) = 0.02619939
#
# Stress axis : x y z
#
# Youngs Moduli (GPa) = 89.57682 53.46405 93.92749
#
# Poissons Ratio (x) = -0.04787 0.32943
# Poissons Ratio (y) = -0.08021 0.42696
# Poissons Ratio (z) = 0.31417 0.24303
#
# Static dielectric constant tensor:
#      x y z
#    x 1.737210 0.000000 0.000000 
#    y 0.000000 1.729760 0.000000 
#    z 0.000000 0.000000 1.728940 
# 
# From -- ./inp_files/2404.got.cif
#   From: 2010.05.17/outbox.cif.g08.bks.cpg/sg52_2_cif.got.tgz:2404.got - 2010.06.03 12:15:38.
