data_PCOD9412047
_publ_section_title
;
Structure prediction by ZEFSAII (Michael W. Deem and Ramdas Pophale) SiO2 
 PCOD9412047
Probable space group: P N N A
;
_chemical_formula_sum "Si O2"
_cell_formula_units_Z 32
_cell_length_a 9.357671
_cell_length_b 8.062406
_cell_length_c 19.699030
_cell_angle_alpha 90.000000
_cell_angle_beta 90.000000
_cell_angle_gamma 90.000000
_cell_volume 1486.200072
_symmetry_space_group_name_H-M "P N N A"
_symmetry_group_IT_number 52
_symmetry_cell_setting 'orthorhombic'
loop_
_space_group_symop_operation_xyz
x,y,z
1/2-x,-y,z
x,1/2-y,1/2-z
1/2-x,1/2+y,1/2-z
-x,-y,-z
1/2+x,y,-z
-x,1/2+y,1/2+z
1/2+x,1/2-y,1/2+z
loop_
_atom_site_type_symbol
_atom_site_label
_atom_site_fract_x
_atom_site_fract_y
_atom_site_fract_z
Si Si1 0.948625 0.250000 0.250000
Si Si2 0.750000 0.000000 0.168830
Si Si3 0.093026 0.139066 0.960647
Si Si4 0.176369 0.670995 0.038192
Si Si5 0.768442 0.698376 0.679379
O O1 0.844230 0.112748 0.218921
O O2 0.067795 0.237160 0.310430
O O3 0.639074 0.090014 0.116075
O O4 0.991453 0.299979 0.968332
O O5 0.239030 0.187042 0.997421
O O6 0.000000 0.000000 0.000000
O O7 0.250000 0.500000 0.018704
O O8 0.205188 0.707454 0.116653
O O9 0.750000 0.500000 0.670803
O O10 0.695124 0.750000 0.750000
#
# Coordination Sequence:
#
# PCOD9412047 Si02
#       5
#     4   4   8   8   8
#     4  10  26  42  68  98 138 182 240 278 360 420
#     4  12  24  48  70 102 140 192 234 300 354 436
#     4  12  24  46  74  98 143 187 236 287 367 429
#     4  12  25  42  69 106 135 181 235 296 354 425
#     4  10  22  43  68  96 138 180 233 288 353 427
#
# _framework density 21.531421000000002
#
# number of rings (size 3 to 8) (size 9 to 14) (size 15 to 20)
#    0.750    0.000    2.500    6.000    0.000    2.000 
#    6.750    0.000    0.000    0.000    0.000    0.000 
#    0.000    0.000    0.000    0.000    0.000    0.000 
#
# Total GULP energy -178290.280637 kJ/mol
# GULP energy per Si atom -5571.571270 kJ/mol
# Density = 2.148241 g / cm^3
# Si number density = 21.531421 Si / 1000 Ang^3
#
#
#
# Elastic Constant Matrix: (Units=GPa)
#
#
# Indices 1 2 3 4 5 6 
#
# 1 139.9353 33.0787 37.7907 0.0000 0.0000 0.0000
# 2 33.0787 88.0961 20.6679 0.0000 0.0000 0.0000
# 3 37.7907 20.6679 68.1068 0.0000 0.0000 0.0000
# 4 0.0000 0.0000 0.0000 24.7259 0.0000 0.0000
# 5 0.0000 0.0000 0.0000 0.0000 -17.5741 0.0000
# 6 0.0000 0.0000 0.0000 0.0000 0.0000 -17.0578
#
#
#
# Elastic Compliance Matrix: (Units=1/GPa)
#
#
# Indices 1 2 3 4 5 6 
#
# 1 0.008829 -0.002332 -0.004192 0.000000 0.000000 0.000000
# 2 -0.002332 0.012837 -0.002602 0.000000 0.000000 0.000000
# 3 -0.004192 -0.002602 0.017798 0.000000 0.000000 0.000000
# 4 0.000000 0.000000 0.000000 0.040443 0.000000 0.000000
# 5 0.000000 0.000000 0.000000 0.000000 -0.056902 0.000000
# 6 0.000000 0.000000 0.000000 0.000000 0.000000 -0.058624
#
#
# Mechanical properties :
#
#
# Convention : Reuss Voigt Hill
#
# Bulk Modulus (GPa) = 47.13785 53.24587 50.19186
# Shear Modulus (GPa) = -485.61320 11.65886 -236.97717
#
# Velocity S-wave (km/s) = -15.03418 2.32950 -10.50238
# Velocity P-wave (km/s) = 16.71612 5.65849 11.12228
#
# Compressibility (1/GPa) = 0.02121438
#
# Stress axis : x y z
#
# Youngs Moduli (GPa) = 113.25860 77.89853 56.18574
#
# Poissons Ratio (x) = 0.18165 0.23550
# Poissons Ratio (y) = 0.26411 0.14618
# Poissons Ratio (z) = 0.47473 0.20267
#
# Static dielectric constant tensor:
#      x y z
#    x 1.850570 0.000000 0.000000 
#    y 0.000000 1.835350 0.000000 
#    z 0.000000 0.000000 1.796320 
# 
# From -- ./inp_files/35504.got.cif
#   From: 2010.05.17/outbox.cif.g08.bks.cpg/sg52_18_cif.got.tgz:35504.got - 2010.06.03 12:15:38.
