data_PCOD9412718
_publ_section_title
;
Structure prediction by ZEFSAII (Michael W. Deem and Ramdas Pophale) SiO2 
 PCOD9412718
Probable space group: P N N A
;
_chemical_formula_sum "Si O2"
_cell_formula_units_Z 24
_cell_length_a 14.182117
_cell_length_b 12.875502
_cell_length_c 5.078458
_cell_angle_alpha 90.000000
_cell_angle_beta 90.000000
_cell_angle_gamma 90.000000
_cell_volume 927.335957
_symmetry_space_group_name_H-M "P N N A"
_symmetry_group_IT_number 52
_symmetry_cell_setting 'orthorhombic'
loop_
_space_group_symop_operation_xyz
x,y,z
1/2-x,-y,z
x,1/2-y,1/2-z
1/2-x,1/2+y,1/2-z
-x,-y,-z
1/2+x,y,-z
-x,1/2+y,1/2+z
1/2+x,1/2-y,1/2+z
loop_
_atom_site_type_symbol
_atom_site_label
_atom_site_fract_x
_atom_site_fract_y
_atom_site_fract_z
Si Si1 0.313946 0.629164 0.754578
Si Si2 0.907518 0.137126 0.355206
Si Si3 0.906916 0.520186 0.738815
O O1 0.342911 0.750000 0.750000
O O2 0.200816 0.626249 0.769490
O O3 0.349285 0.567165 0.501565
O O4 0.357801 0.576891 0.011550
O O5 0.936525 0.250000 0.250000
O O6 0.986143 0.061746 0.230679
O O7 0.907249 0.100681 0.664490
#
# Coordination Sequence:
#
# PCOD9412718 Si02
#       3
#     8   8   8
#     4  11  24  44  71 104 146 196 250 309 374 448
#     4  10  24  45  73 108 147 196 251 309 378 452
#     4  11  25  46  72 105 147 194 250 312 375 449
#
# _framework density 25.880587999999999
#
# number of rings (size 3 to 8) (size 9 to 14) (size 15 to 20)
#    0.000    1.333    0.000    4.000    0.000   13.333 
#    0.000   11.667    0.000    0.000    0.000    0.000 
#    0.000    0.000    0.000    0.000    0.000    0.000 
#
# Total GULP energy -134486.869926 kJ/mol
# GULP energy per Si atom -5603.619580 kJ/mol
# Density = 2.582168 g / cm^3
# Si number density = 25.880588 Si / 1000 Ang^3
#
#
#
# Elastic Constant Matrix: (Units=GPa)
#
#
# Indices 1 2 3 4 5 6 
#
# 1 128.5384 32.7086 31.1435 0.0000 0.0000 0.0000
# 2 32.7086 204.9886 75.3880 0.0000 0.0000 0.0000
# 3 31.1435 75.3880 180.8105 0.0000 0.0000 0.0000
# 4 0.0000 0.0000 0.0000 40.9079 0.0000 0.0000
# 5 0.0000 0.0000 0.0000 0.0000 25.4664 0.0000
# 6 0.0000 0.0000 0.0000 0.0000 0.0000 42.9817
#
#
#
# Elastic Compliance Matrix: (Units=1/GPa)
#
#
# Indices 1 2 3 4 5 6 
#
# 1 0.008269 -0.000940 -0.001032 0.000000 0.000000 0.000000
# 2 -0.000940 0.005869 -0.002285 0.000000 0.000000 0.000000
# 3 -0.001032 -0.002285 0.006661 0.000000 0.000000 0.000000
# 4 0.000000 0.000000 0.000000 0.024445 0.000000 0.000000
# 5 0.000000 0.000000 0.000000 0.000000 0.039267 0.000000
# 6 0.000000 0.000000 0.000000 0.000000 0.000000 0.023266
#
#
# Mechanical properties :
#
#
# Convention : Reuss Voigt Hill
#
# Bulk Modulus (GPa) = 81.40381 88.09085 84.74733
# Shear Modulus (GPa) = 41.53289 46.87769 44.20529
#
# Velocity S-wave (km/s) = 4.01033 4.26056 4.13734
# Velocity P-wave (km/s) = 7.27774 7.63639 7.45922
#
# Compressibility (1/GPa) = 0.01228444
#
# Stress axis : x y z
#
# Youngs Moduli (GPa) = 120.93269 170.39777 150.12262
#
# Poissons Ratio (x) = 0.16013 0.15500
# Poissons Ratio (y) = 0.11364 0.34303
# Poissons Ratio (z) = 0.12486 0.38936
#
# Static dielectric constant tensor:
#      x y z
#    x 1.984750 0.000000 0.000000 
#    y 0.000000 2.110040 0.000000 
#    z 0.000000 0.000000 2.250180 
# 
# From -- ./inp_files/1778.got.cif
#   From: 2010.05.17/outbox.cif.g08.bks.cpg/sg52_1_cif.got.tgz:1778.got - 2010.06.03 12:15:38.
