data_PCOD9412312
_publ_section_title
;
Structure prediction by ZEFSAII (Michael W. Deem and Ramdas Pophale) SiO2 
 PCOD9412312
Probable space group: P N N A
;
_chemical_formula_sum "Si O2"
_cell_formula_units_Z 40
_cell_length_a 14.483419
_cell_length_b 8.333477
_cell_length_c 14.116222
_cell_angle_alpha 90.000000
_cell_angle_beta 90.000000
_cell_angle_gamma 90.000000
_cell_volume 1703.789022
_symmetry_space_group_name_H-M "P N N A"
_symmetry_group_IT_number 52
_symmetry_cell_setting 'orthorhombic'
loop_
_space_group_symop_operation_xyz
x,y,z
1/2-x,-y,z
x,1/2-y,1/2-z
1/2-x,1/2+y,1/2-z
-x,-y,-z
1/2+x,y,-z
-x,1/2+y,1/2+z
1/2+x,1/2-y,1/2+z
loop_
_atom_site_type_symbol
_atom_site_label
_atom_site_fract_x
_atom_site_fract_y
_atom_site_fract_z
Si Si1 0.040317 0.503891 0.307886
Si Si2 0.153217 0.466493 0.967266
Si Si3 0.954824 0.366018 0.884468
Si Si4 0.171239 0.132251 0.039273
Si Si5 0.845231 0.913790 0.187196
O O1 0.078922 0.521649 0.201998
O O2 0.044194 0.684209 0.350006
O O3 0.090048 0.397574 0.385453
O O4 0.932257 0.472081 0.293107
O O5 0.250000 0.500000 0.914339
O O6 0.059744 0.413543 0.912993
O O7 0.112791 0.613723 0.027315
O O8 0.184651 0.323488 0.038019
O O9 0.250000 0.000000 0.063329
O O10 0.151275 0.107669 0.927181
O O11 0.851870 0.750000 0.250000
O O12 0.750000 0.000000 0.206951
#
# Coordination Sequence:
#
# PCOD9412312 Si02
#       5
#     8   8   8   8   8
#     4  11  21  45  64  96 136 172 223 276 332 393
#     4  11  23  43  66  98 134 174 222 275 336 398
#     4  10  23  41  69  94 130 179 218 275 336 393
#     4  11  24  41  69  97 130 176 222 273 333 399
#     4  11  23  43  66 100 135 176 216 272 337 398
#
# _framework density 23.477084999999999
#
# number of rings (size 3 to 8) (size 9 to 14) (size 15 to 20)
#    0.000    1.200    4.000    1.800    0.000    4.800 
#    7.200    0.000    0.000    0.000    0.000    0.000 
#    0.000    0.000    0.000    0.000    0.000    0.000 
#
# Total GULP energy -223116.556824 kJ/mol
# GULP energy per Si atom -5577.913921 kJ/mol
# Density = 2.342365 g / cm^3
# Si number density = 23.477085 Si / 1000 Ang^3
#
#
#
# Elastic Constant Matrix: (Units=GPa)
#
#
# Indices 1 2 3 4 5 6 
#
# 1 96.3518 8.6542 43.2264 0.0000 0.0000 0.0000
# 2 8.6542 35.3619 3.1261 0.0000 0.0000 0.0000
# 3 43.2264 3.1261 70.8478 0.0000 0.0000 0.0000
# 4 0.0000 0.0000 0.0000 31.1974 0.0000 0.0000
# 5 0.0000 0.0000 0.0000 0.0000 -18.1610 0.0000
# 6 0.0000 0.0000 0.0000 0.0000 0.0000 34.4792
#
#
#
# Elastic Compliance Matrix: (Units=1/GPa)
#
#
# Indices 1 2 3 4 5 6 
#
# 1 0.014559 -0.002789 -0.008760 0.000000 0.000000 0.000000
# 2 -0.002789 0.028924 0.000425 0.000000 0.000000 0.000000
# 3 -0.008760 0.000425 0.019441 0.000000 0.000000 0.000000
# 4 0.000000 0.000000 0.000000 0.032054 0.000000 0.000000
# 5 0.000000 0.000000 0.000000 0.000000 -0.055063 0.000000
# 6 0.000000 0.000000 0.000000 0.000000 0.000000 0.029003
#
#
# Mechanical properties :
#
#
# Convention : Reuss Voigt Hill
#
# Bulk Modulus (GPa) = 24.58393 34.73055 29.65724
# Shear Modulus (GPa) = 47.74495 19.34012 33.54254
#
# Velocity S-wave (km/s) = 4.51453 2.87328 3.78396
# Velocity P-wave (km/s) = 6.13749 5.08263 5.63480
#
# Compressibility (1/GPa) = 0.04067699
#
# Stress axis : x y z
#
# Youngs Moduli (GPa) = 68.68571 34.57346 51.43852
#
# Poissons Ratio (x) = 0.09641 0.45060
# Poissons Ratio (y) = 0.19154 -0.02187
# Poissons Ratio (z) = 0.60168 -0.01470
#
# Static dielectric constant tensor:
#      x y z
#    x 1.916020 0.000000 0.000000 
#    y 0.000000 1.913280 0.000000 
#    z 0.000000 0.000000 1.920090 
# 
# From -- ./inp_files/26924.got.cif
#   From: 2010.05.17/outbox.cif.g08.bks.cpg/sg52_14_cif.got.tgz:26924.got - 2010.06.03 12:15:38.
