data_PCOD9412999
_publ_section_title
;
Structure prediction by ZEFSAII (Michael W. Deem and Ramdas Pophale) SiO2 
 PCOD9412999
Probable space group: P N N A
;
_chemical_formula_sum "Si O2"
_cell_formula_units_Z 48
_cell_length_a 9.273038
_cell_length_b 22.351349
_cell_length_c 10.865246
_cell_angle_alpha 90.000000
_cell_angle_beta 90.000000
_cell_angle_gamma 90.000000
_cell_volume 2251.984219
_symmetry_space_group_name_H-M "P N N A"
_symmetry_group_IT_number 52
_symmetry_cell_setting 'orthorhombic'
loop_
_space_group_symop_operation_xyz
x,y,z
1/2-x,-y,z
x,1/2-y,1/2-z
1/2-x,1/2+y,1/2-z
-x,-y,-z
1/2+x,y,-z
-x,1/2+y,1/2+z
1/2+x,1/2-y,1/2+z
loop_
_atom_site_type_symbol
_atom_site_label
_atom_site_fract_x
_atom_site_fract_y
_atom_site_fract_z
Si Si1 0.601897 0.970514 0.618052
Si Si2 0.112167 0.852964 0.533073
Si Si3 0.859953 0.052438 0.285447
Si Si4 0.679445 0.307463 0.837249
Si Si5 0.025055 0.068582 0.037606
Si Si6 0.682069 0.902964 0.849848
O O1 0.567533 0.905718 0.562095
O O2 0.633862 0.956338 0.761072
O O3 0.750000 0.000000 0.567897
O O4 0.474925 0.018538 0.625421
O O5 0.199385 0.891602 0.636206
O O6 0.208472 0.807390 0.452941
O O7 0.973301 0.826351 0.602408
O O8 0.943795 0.076729 0.167291
O O9 0.750000 0.000000 0.250367
O O10 0.665138 0.250000 0.750000
O O11 0.745402 0.356085 0.742744
O O12 0.192924 0.079126 0.056192
O O13 0.955936 0.111130 0.933592
O O14 0.000000 0.000000 0.000000
#
# Coordination Sequence:
#
# PCOD9412999 Si02
#       6
#     8   8   8   8   8   8
#     4  11  19  37  61  96 143 172 208 259 326 398
#     4  11  23  43  69  98 129 167 218 274 334 394
#     4  12  21  33  60 103 138 178 212 255 318 406
#     4  11  26  50  71  91 126 167 226 292 335 373
#     4  12  21  36  59  94 143 181 210 250 315 399
#     4  11  23  40  59  93 134 179 219 264 313 384
#
# _framework density 21.314536
#
# number of rings (size 3 to 8) (size 9 to 14) (size 15 to 20)
#    0.000    0.667    5.000    4.500    0.000    1.333 
#    0.000    0.833    0.000    0.000    0.000    0.000 
#    0.000    0.000    0.000    0.000    0.000    0.000 
#
# Total GULP energy -267991.772082 kJ/mol
# GULP energy per Si atom -5583.161918 kJ/mol
# Density = 2.126602 g / cm^3
# Si number density = 21.314536 Si / 1000 Ang^3
#
#
#
# Elastic Constant Matrix: (Units=GPa)
#
#
# Indices 1 2 3 4 5 6 
#
# 1 86.7072 35.8703 27.8518 0.0000 0.0000 0.0000
# 2 35.8703 63.5733 37.5660 0.0000 0.0000 0.0000
# 3 27.8518 37.5660 88.5528 0.0000 0.0000 0.0000
# 4 0.0000 0.0000 0.0000 33.1173 0.0000 0.0000
# 5 0.0000 0.0000 0.0000 0.0000 54.4889 0.0000
# 6 0.0000 0.0000 0.0000 0.0000 0.0000 20.7381
#
#
#
# Elastic Compliance Matrix: (Units=1/GPa)
#
#
# Indices 1 2 3 4 5 6 
#
# 1 0.015197 -0.007674 -0.001524 0.000000 0.000000 0.000000
# 2 -0.007674 0.024867 -0.008136 0.000000 0.000000 0.000000
# 3 -0.001524 -0.008136 0.015223 0.000000 0.000000 0.000000
# 4 0.000000 0.000000 0.000000 0.030196 0.000000 0.000000
# 5 0.000000 0.000000 0.000000 0.000000 0.018352 0.000000
# 6 0.000000 0.000000 0.000000 0.000000 0.000000 0.048220
#
#
# Mechanical properties :
#
#
# Convention : Reuss Voigt Hill
#
# Bulk Modulus (GPa) = 48.49667 49.04550 48.77108
# Shear Modulus (GPa) = 25.82669 30.83855 28.33262
#
# Velocity S-wave (km/s) = 3.48472 3.80785 3.64986
# Velocity P-wave (km/s) = 6.24446 6.51101 6.37913
#
# Compressibility (1/GPa) = 0.02061997
#
# Stress axis : x y z
#
# Youngs Moduli (GPa) = 65.80032 40.21349 65.68819
#
# Poissons Ratio (x) = 0.30861 0.10014
# Poissons Ratio (y) = 0.50496 0.53441
# Poissons Ratio (z) = 0.10031 0.32716
#
# Static dielectric constant tensor:
#      x y z
#    x 1.788380 0.000000 0.000000 
#    y 0.000000 1.782000 0.000000 
#    z 0.000000 0.000000 1.859270 
# 
# From -- ./inp_files/17055.got.cif
#   From: 2010.05.17/outbox.cif.g08.bks.cpg/sg52_9_cif.got.tgz:17055.got - 2010.06.03 12:15:38.
