data_PCOD9412865
_publ_section_title
;
Structure prediction by ZEFSAII (Michael W. Deem and Ramdas Pophale) SiO2 
 PCOD9412865
Probable space group: P N N A
;
_chemical_formula_sum "Si O2"
_cell_formula_units_Z 32
_cell_length_a 5.075372
_cell_length_b 8.785961
_cell_length_c 29.958399
_cell_angle_alpha 90.000000
_cell_angle_beta 90.000000
_cell_angle_gamma 90.000000
_cell_volume 1335.905541
_symmetry_space_group_name_H-M "P N N A"
_symmetry_group_IT_number 52
_symmetry_cell_setting 'orthorhombic'
loop_
_space_group_symop_operation_xyz
x,y,z
1/2-x,-y,z
x,1/2-y,1/2-z
1/2-x,1/2+y,1/2-z
-x,-y,-z
1/2+x,y,-z
-x,1/2+y,1/2+z
1/2+x,1/2-y,1/2+z
loop_
_atom_site_type_symbol
_atom_site_label
_atom_site_fract_x
_atom_site_fract_y
_atom_site_fract_z
Si Si1 0.828082 0.172366 0.115475
Si Si2 0.297654 0.182713 0.525629
Si Si3 0.849514 0.671110 0.708922
Si Si4 0.503981 0.603821 0.836259
O O1 0.926313 0.252341 0.070792
O O2 0.576872 0.277209 0.126243
O O3 0.996228 0.172242 0.161536
O O4 0.750000 0.000000 0.106447
O O5 0.503338 0.232617 0.487348
O O6 0.250000 0.000000 0.529122
O O7 0.750000 0.500000 0.717031
O O8 0.003840 0.750000 0.750000
O O9 0.609155 0.788979 0.702801
O O10 0.250000 0.500000 0.826495
O O11 0.750000 0.500000 0.849319
#
# Coordination Sequence:
#
# PCOD9412865 Si02
#       4
#     8   8   8   8
#     4  12  27  49  81 115 162 204 262 326 396 464
#     4  10  25  47  77 114 153 199 256 317 387 474
#     4  12  28  52  78 117 159 210 267 329 388 465
#     4  12  26  48  78 111 148 206 257 317 387 457
#
# _framework density 23.953787999999999
#
# number of rings (size 3 to 8) (size 9 to 14) (size 15 to 20)
#    0.000    0.500    5.000    1.500    3.500    3.000 
#    4.500    0.000    0.000    0.000    0.000    0.000 
#    0.000    0.000    0.000    0.000    0.000    0.000 
#
# Total GULP energy -178769.397933 kJ/mol
# GULP energy per Si atom -5586.543685 kJ/mol
# Density = 2.389927 g / cm^3
# Si number density = 23.953788 Si / 1000 Ang^3
#
#
#
# Elastic Constant Matrix: (Units=GPa)
#
#
# Indices 1 2 3 4 5 6 
#
# 1 125.5799 51.4053 29.8823 0.0000 0.0000 0.0000
# 2 51.4053 138.2830 20.2042 0.0000 0.0000 0.0000
# 3 29.8823 20.2042 129.0555 0.0000 0.0000 0.0000
# 4 0.0000 0.0000 0.0000 36.0215 0.0000 0.0000
# 5 0.0000 0.0000 0.0000 0.0000 37.4089 0.0000
# 6 0.0000 0.0000 0.0000 0.0000 0.0000 5.9408
#
#
#
# Elastic Compliance Matrix: (Units=1/GPa)
#
#
# Indices 1 2 3 4 5 6 
#
# 1 0.009756 -0.003374 -0.001731 0.000000 0.000000 0.000000
# 2 -0.003374 0.008568 -0.000560 0.000000 0.000000 0.000000
# 3 -0.001731 -0.000560 0.008237 0.000000 0.000000 0.000000
# 4 0.000000 0.000000 0.000000 0.027761 0.000000 0.000000
# 5 0.000000 0.000000 0.000000 0.000000 0.026732 0.000000
# 6 0.000000 0.000000 0.000000 0.000000 0.000000 0.168328
#
#
# Mechanical properties :
#
#
# Convention : Reuss Voigt Hill
#
# Bulk Modulus (GPa) = 65.65461 66.21131 65.93296
# Shear Modulus (GPa) = 18.81200 35.30269 27.05734
#
# Velocity S-wave (km/s) = 2.80544 3.84315 3.36455
# Velocity P-wave (km/s) = 6.16136 6.88436 6.53287
#
# Compressibility (1/GPa) = 0.01523122
#
# Stress axis : x y z
#
# Youngs Moduli (GPa) = 102.50164 116.71940 121.40281
#
# Poissons Ratio (x) = 0.39379 0.21012
# Poissons Ratio (y) = 0.34582 0.06800
# Poissons Ratio (z) = 0.17741 0.06537
#
# Static dielectric constant tensor:
#      x y z
#    x 2.110530 0.000000 0.000000 
#    y 0.000000 1.881100 0.000000 
#    z 0.000000 0.000000 2.035690 
# 
# From -- ./inp_files/43469.got.cif
#   From: 2010.05.17/outbox.cif.g08.bks.cpg/sg52_22_cif.got.tgz:43469.got - 2010.06.03 12:15:38.
