data_PCOD9412563
_publ_section_title
;
Structure prediction by ZEFSAII (Michael W. Deem and Ramdas Pophale) SiO2 
 PCOD9412563
Probable space group: P N N A
;
_chemical_formula_sum "Si O2"
_cell_formula_units_Z 48
_cell_length_a 25.296842
_cell_length_b 14.402147
_cell_length_c 5.340322
_cell_angle_alpha 90.000000
_cell_angle_beta 90.000000
_cell_angle_gamma 90.000000
_cell_volume 1945.633304
_symmetry_space_group_name_H-M "P N N A"
_symmetry_group_IT_number 52
_symmetry_cell_setting 'orthorhombic'
loop_
_space_group_symop_operation_xyz
x,y,z
1/2-x,-y,z
x,1/2-y,1/2-z
1/2-x,1/2+y,1/2-z
-x,-y,-z
1/2+x,y,-z
-x,1/2+y,1/2+z
1/2+x,1/2-y,1/2+z
loop_
_atom_site_type_symbol
_atom_site_label
_atom_site_fract_x
_atom_site_fract_y
_atom_site_fract_z
Si Si1 0.803860 0.626169 0.895187
Si Si2 0.097859 0.162029 0.606131
Si Si3 0.777557 0.250000 0.750000
Si Si4 0.750000 0.500000 0.295785
Si Si5 0.521920 0.250000 0.750000
Si Si6 0.366361 0.507619 0.484243
Si Si7 0.157807 0.750000 0.750000
Si Si8 0.426038 0.168040 0.048169
O O1 0.762157 0.665324 0.700575
O O2 0.846054 0.561167 0.761832
O O3 0.844395 0.697568 0.015141
O O4 0.769295 0.580831 0.110522
O O5 0.074917 0.250000 0.750000
O O6 0.057445 0.167969 0.372763
O O7 0.109241 0.075121 0.795863
O O8 0.809607 0.232639 0.499472
O O9 0.693545 0.525572 0.426560
O O10 0.482228 0.304232 0.561793
O O11 0.410389 0.435776 0.375635
O O12 0.116193 0.670380 0.681598
O O13 0.413841 0.250000 0.250000
#
# Coordination Sequence:
#
# PCOD9412563 Si02
#       8
#     8   8   4   4   4   8   4   8
#     4  11  25  40  69 103 144 190 243 296 367 448
#     4  11  24  48  72 103 141 185 250 317 382 455
#     4  12  25  40  69 106 145 204 249 302 378 444
#     4  10  24  40  68 100 150 194 234 296 362 448
#     4  11  25  48  76 100 138 192 245 325 386 456
#     4  11  25  44  71 107 148 193 247 312 373 465
#     4  11  26  42  71 102 151 202 254 307 374 454
#     4  11  26  48  72 106 146 194 252 316 381 459
#
# _framework density 24.670632999999999
#
# number of rings (size 3 to 8) (size 9 to 14) (size 15 to 20)
#    0.000    1.000    0.833    4.500   10.500    6.000 
#    0.000    5.833    0.000    0.000    0.000    0.000 
#    0.000    0.000    0.000    0.000    0.000    0.000 
#
# Total GULP energy -267297.902509 kJ/mol
# GULP energy per Si atom -5568.706302 kJ/mol
# Density = 2.461448 g / cm^3
# Si number density = 24.670633 Si / 1000 Ang^3
#
#
#
# Elastic Constant Matrix: (Units=GPa)
#
#
# Indices 1 2 3 4 5 6 
#
# 1 170.5024 64.9105 61.2416 0.0000 0.0000 0.0000
# 2 64.9105 70.4310 34.5265 0.0000 0.0000 0.0000
# 3 61.2416 34.5265 114.1203 0.0000 0.0000 0.0000
# 4 0.0000 0.0000 0.0000 36.2625 0.0000 0.0000
# 5 0.0000 0.0000 0.0000 0.0000 -31.2738 0.0000
# 6 0.0000 0.0000 0.0000 0.0000 0.0000 47.3042
#
#
#
# Elastic Compliance Matrix: (Units=1/GPa)
#
#
# Indices 1 2 3 4 5 6 
#
# 1 0.009826 -0.007598 -0.002974 0.000000 0.000000 0.000000
# 2 -0.007598 0.022545 -0.002744 0.000000 0.000000 0.000000
# 3 -0.002974 -0.002744 0.011189 0.000000 0.000000 0.000000
# 4 0.000000 0.000000 0.000000 0.027577 0.000000 0.000000
# 5 0.000000 0.000000 0.000000 0.000000 -0.031976 0.000000
# 6 0.000000 0.000000 0.000000 0.000000 0.000000 0.021140
#
#
# Mechanical properties :
#
#
# Convention : Reuss Voigt Hill
#
# Bulk Modulus (GPa) = 59.07114 75.15677 67.11396
# Shear Modulus (GPa) = 54.01017 23.41690 38.71353
#
# Velocity S-wave (km/s) = 4.68402 3.08422 3.96563
# Velocity P-wave (km/s) = 7.29721 6.57369 6.94488
#
# Compressibility (1/GPa) = 0.01692874
#
# Stress axis : x y z
#
# Youngs Moduli (GPa) = 101.77370 44.35497 89.37386
#
# Poissons Ratio (x) = 0.33699 0.26582
# Poissons Ratio (y) = 0.77323 0.24523
# Poissons Ratio (z) = 0.30271 0.12170
#
# Static dielectric constant tensor:
#      x y z
#    x 1.955910 0.000000 0.000000 
#    y 0.000000 2.650570 0.000000 
#    z 0.000000 0.000000 2.268670 
# 
# From -- ./inp_files/4412.got.cif
#   From: 2010.05.17/outbox.cif.g08.bks.cpg/sg52_3_cif.got.tgz:4412.got - 2010.06.03 12:15:38.
