data_PCOD9412226
_publ_section_title
;
Structure prediction by ZEFSAII (Michael W. Deem and Ramdas Pophale) SiO2 
 PCOD9412226
Probable space group: P N N A
;
_chemical_formula_sum "Si O2"
_cell_formula_units_Z 48
_cell_length_a 13.333080
_cell_length_b 24.702579
_cell_length_c 6.417636
_cell_angle_alpha 90.000000
_cell_angle_beta 90.000000
_cell_angle_gamma 90.000000
_cell_volume 2113.721976
_symmetry_space_group_name_H-M "P N N A"
_symmetry_group_IT_number 52
_symmetry_cell_setting 'orthorhombic'
loop_
_space_group_symop_operation_xyz
x,y,z
1/2-x,-y,z
x,1/2-y,1/2-z
1/2-x,1/2+y,1/2-z
-x,-y,-z
1/2+x,y,-z
-x,1/2+y,1/2+z
1/2+x,1/2-y,1/2+z
loop_
_atom_site_type_symbol
_atom_site_label
_atom_site_fract_x
_atom_site_fract_y
_atom_site_fract_z
Si Si1 0.091054 0.750000 0.250000
Si Si2 0.714724 0.697383 0.125080
Si Si3 0.390350 0.984678 0.434704
Si Si4 0.750000 0.000000 0.202529
Si Si5 0.837349 0.867066 0.686379
Si Si6 0.971205 0.335483 0.425286
Si Si7 0.345052 0.080252 0.119486
O O1 0.159946 0.781223 0.416550
O O2 0.028734 0.709835 0.396285
O O3 0.754098 0.750000 0.250000
O O4 0.625365 0.672680 0.270369
O O5 0.799909 0.657103 0.035304
O O6 0.380832 0.928260 0.316561
O O7 0.500000 0.000000 0.500000
O O8 0.330281 0.974719 0.644621
O O9 0.351784 0.037047 0.307621
O O10 0.697517 0.954843 0.067305
O O11 0.735989 0.874107 0.821174
O O12 0.926622 0.833963 0.793964
O O13 0.947401 0.391373 0.547921
#
# Coordination Sequence:
#
# PCOD9412226 Si02
#       7
#     4   8   8   4   8   8   8
#     4  10  22  52  72 102 146 180 252 326 364 446
#     4  10  24  52  75 108 145 188 251 322 366 450
#     4  12  27  44  72 107 153 193 251 304 365 453
#     4  12  22  44  68 100 148 200 238 302 360 436
#     4  12  24  48  73 111 146 202 242 300 391 445
#     4  11  26  45  76 106 149 192 246 316 382 442
#     4  12  25  46  69 110 149 191 257 307 363 461
#
# _framework density 22.708756999999999
#
# number of rings (size 3 to 8) (size 9 to 14) (size 15 to 20)
#    0.000    0.667    5.000    2.000    4.667    1.333 
#    9.000    0.000    0.000    0.000    0.000    0.000 
#    0.000    0.000    0.000    0.000    0.000    0.000 
#
# Total GULP energy -268381.512777 kJ/mol
# GULP energy per Si atom -5591.281516 kJ/mol
# Density = 2.265707 g / cm^3
# Si number density = 22.708757 Si / 1000 Ang^3
#
#
#
# Elastic Constant Matrix: (Units=GPa)
#
#
# Indices 1 2 3 4 5 6 
#
# 1 91.6522 34.6420 43.9726 0.0000 0.0000 0.0000
# 2 34.6420 98.1173 48.4853 0.0000 0.0000 0.0000
# 3 43.9726 48.4853 112.8486 0.0000 0.0000 0.0000
# 4 0.0000 0.0000 0.0000 43.9226 0.0000 0.0000
# 5 0.0000 0.0000 0.0000 0.0000 36.6776 0.0000
# 6 0.0000 0.0000 0.0000 0.0000 0.0000 19.0718
#
#
#
# Elastic Compliance Matrix: (Units=1/GPa)
#
#
# Indices 1 2 3 4 5 6 
#
# 1 0.014024 -0.002858 -0.004237 0.000000 0.000000 0.000000
# 2 -0.002858 0.013521 -0.004696 0.000000 0.000000 0.000000
# 3 -0.004237 -0.004696 0.012530 0.000000 0.000000 0.000000
# 4 0.000000 0.000000 0.000000 0.022767 0.000000 0.000000
# 5 0.000000 0.000000 0.000000 0.000000 0.027265 0.000000
# 6 0.000000 0.000000 0.000000 0.000000 0.000000 0.052434
#
#
# Mechanical properties :
#
#
# Convention : Reuss Voigt Hill
#
# Bulk Modulus (GPa) = 60.62686 61.86864 61.24775
# Shear Modulus (GPa) = 29.13434 31.63562 30.38498
#
# Velocity S-wave (km/s) = 3.58572 3.73648 3.66188
# Velocity P-wave (km/s) = 6.62561 6.77632 6.70139
#
# Compressibility (1/GPa) = 0.01649434
#
# Stress axis : x y z
#
# Youngs Moduli (GPa) = 71.30854 73.95700 79.80931
#
# Poissons Ratio (x) = 0.21135 0.33812
# Poissons Ratio (y) = 0.20378 0.37478
# Poissons Ratio (z) = 0.30211 0.34730
#
# Static dielectric constant tensor:
#      x y z
#    x 1.854010 0.000000 0.000000 
#    y 0.000000 1.903510 0.000000 
#    z 0.000000 0.000000 1.821930 
# 
# From -- ./inp_files/2517.got.cif
#   From: 2010.05.17/outbox.cif.g08.bks.cpg/sg52_2_cif.got.tgz:2517.got - 2010.06.03 12:15:38.
