data_PCOD9412361
_publ_section_title
;
Structure prediction by ZEFSAII (Michael W. Deem and Ramdas Pophale) SiO2 
 PCOD9412361
Probable space group: P N N A
;
_chemical_formula_sum "Si O2"
_cell_formula_units_Z 40
_cell_length_a 13.152200
_cell_length_b 7.643939
_cell_length_c 17.990333
_cell_angle_alpha 90.000000
_cell_angle_beta 90.000000
_cell_angle_gamma 90.000000
_cell_volume 1808.651193
_symmetry_space_group_name_H-M "P N N A"
_symmetry_group_IT_number 52
_symmetry_cell_setting 'orthorhombic'
loop_
_space_group_symop_operation_xyz
x,y,z
1/2-x,-y,z
x,1/2-y,1/2-z
1/2-x,1/2+y,1/2-z
-x,-y,-z
1/2+x,y,-z
-x,1/2+y,1/2+z
1/2+x,1/2-y,1/2+z
loop_
_atom_site_type_symbol
_atom_site_label
_atom_site_fract_x
_atom_site_fract_y
_atom_site_fract_z
Si Si1 0.633777 0.750000 0.750000
Si Si2 0.461675 0.507018 0.727258
Si Si3 0.489675 0.829001 0.372305
Si Si4 0.311348 0.320261 0.952832
Si Si5 0.250000 0.000000 0.843886
Si Si6 0.759833 0.711997 0.613556
O O1 0.554532 0.629692 0.705205
O O2 0.709312 0.806339 0.684427
O O3 0.478758 0.334282 0.679289
O O4 0.485676 0.483990 0.814571
O O5 0.346200 0.552838 0.707467
O O6 0.568752 0.845093 0.438760
O O7 0.374441 0.786880 0.392963
O O8 0.250000 0.500000 0.938838
O O9 0.275136 0.166021 0.896675
O O10 0.293385 0.258760 0.036561
O O11 0.750000 0.500000 0.625193
#
# Coordination Sequence:
#
# PCOD9412361 Si02
#       6
#     4   8   8   8   4   8
#     4  12  26  40  72 106 128 192 244 292 372 438
#     4  10  23  42  71 102 140 183 234 303 359 435
#     4  10  24  45  67 101 143 184 239 300 364 434
#     4  11  27  46  71 105 145 195 246 302 368 445
#     4  10  24  48  72 106 148 190 240 302 372 436
#     4  12  26  47  71 101 147 194 244 310 369 440
#
# _framework density 22.115926999999999
#
# number of rings (size 3 to 8) (size 9 to 14) (size 15 to 20)
#    0.000    1.200    3.000    1.200    7.000    4.800 
#    0.000    0.000    0.000    0.000    0.000    0.000 
#    0.000    0.000    0.000    0.000    0.000    0.000 
#
# Total GULP energy -223225.481383 kJ/mol
# GULP energy per Si atom -5580.637035 kJ/mol
# Density = 2.206559 g / cm^3
# Si number density = 22.115927 Si / 1000 Ang^3
#
#
#
# Elastic Constant Matrix: (Units=GPa)
#
#
# Indices 1 2 3 4 5 6 
#
# 1 199.8810 28.9836 87.6602 0.0000 0.0000 0.0000
# 2 28.9836 99.1925 22.8635 0.0000 0.0000 0.0000
# 3 87.6602 22.8635 117.2304 0.0000 0.0000 0.0000
# 4 0.0000 0.0000 0.0000 18.6276 0.0000 0.0000
# 5 0.0000 0.0000 0.0000 0.0000 39.7453 0.0000
# 6 0.0000 0.0000 0.0000 0.0000 0.0000 22.5020
#
#
#
# Elastic Compliance Matrix: (Units=1/GPa)
#
#
# Indices 1 2 3 4 5 6 
#
# 1 0.007528 -0.000945 -0.005445 0.000000 0.000000 0.000000
# 2 -0.000945 0.010674 -0.001376 0.000000 0.000000 0.000000
# 3 -0.005445 -0.001376 0.012870 0.000000 0.000000 0.000000
# 4 0.000000 0.000000 0.000000 0.053684 0.000000 0.000000
# 5 0.000000 0.000000 0.000000 0.000000 0.025160 0.000000
# 6 0.000000 0.000000 0.000000 0.000000 0.000000 0.044441
#
#
# Mechanical properties :
#
#
# Convention : Reuss Voigt Hill
#
# Bulk Modulus (GPa) = 64.34026 77.25761 70.79893
# Shear Modulus (GPa) = 28.56044 34.62807 31.59426
#
# Velocity S-wave (km/s) = 3.59750 3.96125 3.78375
# Velocity P-wave (km/s) = 6.81259 7.47869 7.15340
#
# Compressibility (1/GPa) = 0.01554237
#
# Stress axis : x y z
#
# Youngs Moduli (GPa) = 132.84058 93.68151 77.70088
#
# Poissons Ratio (x) = 0.08849 0.42306
# Poissons Ratio (y) = 0.12548 0.10688
# Poissons Ratio (z) = 0.72329 0.12886
#
# Static dielectric constant tensor:
#      x y z
#    x 1.838300 0.000000 0.000000 
#    y 0.000000 1.754020 0.000000 
#    z 0.000000 0.000000 1.699870 
# 
# From -- ./inp_files/32007.got.cif
#   From: 2010.05.17/outbox.cif.g08.bks.cpg/sg52_17_cif.got.tgz:32007.got - 2010.06.03 12:15:38.
