data_PCOD9412662
_publ_section_title
;
Structure prediction by ZEFSAII (Michael W. Deem and Ramdas Pophale) SiO2 
 PCOD9412662
Probable space group: P N N A
;
_chemical_formula_sum "Si O2"
_cell_formula_units_Z 56
_cell_length_a 14.287020
_cell_length_b 8.976049
_cell_length_c 21.659983
_cell_angle_alpha 90.000000
_cell_angle_beta 90.000000
_cell_angle_gamma 90.000000
_cell_volume 2777.697698
_symmetry_space_group_name_H-M "P N N A"
_symmetry_group_IT_number 52
_symmetry_cell_setting 'orthorhombic'
loop_
_space_group_symop_operation_xyz
x,y,z
1/2-x,-y,z
x,1/2-y,1/2-z
1/2-x,1/2+y,1/2-z
-x,-y,-z
1/2+x,y,-z
-x,1/2+y,1/2+z
1/2+x,1/2-y,1/2+z
loop_
_atom_site_type_symbol
_atom_site_label
_atom_site_fract_x
_atom_site_fract_y
_atom_site_fract_z
Si Si1 0.976504 0.750000 0.250000
Si Si2 0.938094 0.650055 0.595309
Si Si3 0.924684 0.203333 0.879141
Si Si4 0.149209 0.966015 0.751332
Si Si5 0.439285 0.858023 0.521216
Si Si6 0.629771 0.762339 0.352942
Si Si7 0.250000 0.500000 0.926099
Si Si8 0.734153 0.320963 0.681242
O O1 0.908932 0.888388 0.239407
O O2 0.037895 0.754075 0.188796
O O3 0.932044 0.470562 0.600386
O O4 0.919077 0.731095 0.530261
O O5 0.865677 0.704725 0.648133
O O6 0.043598 0.700045 0.609410
O O7 0.813844 0.233287 0.867829
O O8 0.994097 0.288660 0.925559
O O9 0.250000 0.000000 0.723394
O O10 0.093069 0.871118 0.701103
O O11 0.170214 0.873406 0.812888
O O12 0.339130 0.925177 0.540721
O O13 0.500000 0.000000 0.500000
O O14 0.702789 0.859004 0.391049
O O15 0.750000 0.500000 0.688137
O O16 0.739599 0.250000 0.750000
#
# Coordination Sequence:
#
# PCOD9412662 Si02
#       8
#     4   8   8   8   8   8   4   8
#     4  12  22  40  72 102 136 180 224 300 356 428
#     4  11  25  47  69 103 140 189 237 297 362 427
#     4  11  25  47  71 104 142 184 240 291 368 434
#     4  11  24  37  62  99 137 182 221 278 354 424
#     4  12  28  47  74  99 142 192 243 300 356 430
#     4  11  23  41  65  95 142 175 228 285 346 426
#     4  12  26  48  68 104 136 184 248 296 358 426
#     4  10  24  43  71 106 143 184 235 296 362 429
#
# _framework density 20.160581000000001
#
# number of rings (size 3 to 8) (size 9 to 14) (size 15 to 20)
#    0.000    0.857    4.286    2.143    6.000    1.143 
#    0.000    0.000    0.000    0.000    0.000    0.000 
#    0.000    0.000    0.000    0.000    0.000    0.000 
#
# Total GULP energy -312137.184689 kJ/mol
# GULP energy per Si atom -5573.878298 kJ/mol
# Density = 2.011469 g / cm^3
# Si number density = 20.160581 Si / 1000 Ang^3
#
#
#
# Elastic Constant Matrix: (Units=GPa)
#
#
# Indices 1 2 3 4 5 6 
#
# 1 109.9953 47.0577 42.3813 0.0000 0.0000 0.0000
# 2 47.0577 85.2234 61.7339 0.0000 0.0000 0.0000
# 3 42.3813 61.7339 112.8467 0.0000 0.0000 0.0000
# 4 0.0000 0.0000 0.0000 20.2311 0.0000 0.0000
# 5 0.0000 0.0000 0.0000 0.0000 37.6404 0.0000
# 6 0.0000 0.0000 0.0000 0.0000 0.0000 30.0195
#
#
#
# Elastic Compliance Matrix: (Units=1/GPa)
#
#
# Indices 1 2 3 4 5 6 
#
# 1 0.012048 -0.005590 -0.001467 0.000000 0.000000 0.000000
# 2 -0.005590 0.022030 -0.009952 0.000000 0.000000 0.000000
# 3 -0.001467 -0.009952 0.014857 0.000000 0.000000 0.000000
# 4 0.000000 0.000000 0.000000 0.049429 0.000000 0.000000
# 5 0.000000 0.000000 0.000000 0.000000 0.026567 0.000000
# 6 0.000000 0.000000 0.000000 0.000000 0.000000 0.033312
#
#
# Mechanical properties :
#
#
# Convention : Reuss Voigt Hill
#
# Bulk Modulus (GPa) = 67.03906 67.82347 67.43126
# Shear Modulus (GPa) = 25.35087 28.03770 26.69428
#
# Velocity S-wave (km/s) = 3.54990 3.73328 3.64274
# Velocity P-wave (km/s) = 7.08005 7.23172 7.15629
#
# Compressibility (1/GPa) = 0.01491668
#
# Stress axis : x y z
#
# Youngs Moduli (GPa) = 83.00192 45.39362 67.30929
#
# Poissons Ratio (x) = 0.25375 0.09872
# Poissons Ratio (y) = 0.46398 0.66987
# Poissons Ratio (z) = 0.12174 0.45176
#
# Static dielectric constant tensor:
#      x y z
#    x 1.691070 0.000000 0.000000 
#    y 0.000000 1.724170 0.000000 
#    z 0.000000 0.000000 1.788260 
# 
# From -- ./inp_files/37392.got.cif
#   From: 2010.05.17/outbox.cif.g08.bks.cpg/sg52_19_cif.got.tgz:37392.got - 2010.06.03 12:15:38.
