data_PCOD9412642
_publ_section_title
;
Structure prediction by ZEFSAII (Michael W. Deem and Ramdas Pophale) SiO2 
 PCOD9412642
Probable space group: P N N A
;
_chemical_formula_sum "Si O2"
_cell_formula_units_Z 32
_cell_length_a 16.147356
_cell_length_b 16.667195
_cell_length_c 5.041784
_cell_angle_alpha 90.000000
_cell_angle_beta 90.000000
_cell_angle_gamma 90.000000
_cell_volume 1356.901031
_symmetry_space_group_name_H-M "P N N A"
_symmetry_group_IT_number 52
_symmetry_cell_setting 'orthorhombic'
loop_
_space_group_symop_operation_xyz
x,y,z
1/2-x,-y,z
x,1/2-y,1/2-z
1/2-x,1/2+y,1/2-z
-x,-y,-z
1/2+x,y,-z
-x,1/2+y,1/2+z
1/2+x,1/2-y,1/2+z
loop_
_atom_site_type_symbol
_atom_site_label
_atom_site_fract_x
_atom_site_fract_y
_atom_site_fract_z
Si Si1 0.905992 0.084697 0.540193
Si Si2 0.888510 0.526858 0.458058
Si Si3 0.731704 0.409578 0.088435
Si Si4 0.934326 0.658521 0.831703
O O1 0.821384 0.129277 0.448043
O O2 0.987053 0.138541 0.515201
O O3 0.892129 0.043145 0.824088
O O4 0.084795 0.987284 0.679029
O O5 0.801189 0.569998 0.383938
O O6 0.941102 0.598831 0.580631
O O7 0.750000 0.500000 0.977962
O O8 0.654831 0.364080 0.958690
O O9 0.934870 0.750000 0.750000
#
# Coordination Sequence:
#
# PCOD9412642 Si02
#       4
#     8   8   8   8
#     4  11  26  45  78 103 142 193 255 292 361 441
#     4  11  23  45  73 106 135 193 247 300 340 442
#     4  10  24  42  78 104 141 188 255 298 358 429
#     4  12  27  48  70 112 154 191 236 311 376 427
#
# _framework density 23.583151999999998
#
# number of rings (size 3 to 8) (size 9 to 14) (size 15 to 20)
#    0.000    1.000    5.000    1.500   14.000    1.000 
#    4.500    0.000    0.000    0.000    0.000    0.000 
#    0.000    0.000    0.000    0.000    0.000    0.000 
#
# Total GULP energy -178653.969907 kJ/mol
# GULP energy per Si atom -5582.936560 kJ/mol
# Density = 2.352948 g / cm^3
# Si number density = 23.583152 Si / 1000 Ang^3
#
#
#
# Elastic Constant Matrix: (Units=GPa)
#
#
# Indices 1 2 3 4 5 6 
#
# 1 231.3026 72.6291 58.4815 0.0000 0.0000 0.0000
# 2 72.6291 84.5965 31.1763 0.0000 0.0000 0.0000
# 3 58.4815 31.1763 133.5847 0.0000 0.0000 0.0000
# 4 0.0000 0.0000 0.0000 16.0081 0.0000 0.0000
# 5 0.0000 0.0000 0.0000 0.0000 41.6256 0.0000
# 6 0.0000 0.0000 0.0000 0.0000 0.0000 21.2905
#
#
#
# Elastic Compliance Matrix: (Units=1/GPa)
#
#
# Indices 1 2 3 4 5 6 
#
# 1 0.006222 -0.004746 -0.001616 0.000000 0.000000 0.000000
# 2 -0.004746 0.016554 -0.001785 0.000000 0.000000 0.000000
# 3 -0.001616 -0.001785 0.008610 0.000000 0.000000 0.000000
# 4 0.000000 0.000000 0.000000 0.062468 0.000000 0.000000
# 5 0.000000 0.000000 0.000000 0.000000 0.024024 0.000000
# 6 0.000000 0.000000 0.000000 0.000000 0.000000 0.046969
#
#
# Mechanical properties :
#
#
# Convention : Reuss Voigt Hill
#
# Bulk Modulus (GPa) = 66.26941 86.00639 76.13790
# Shear Modulus (GPa) = 26.85657 34.93132 30.89395
#
# Velocity S-wave (km/s) = 3.37828 3.85281 3.62332
# Velocity P-wave (km/s) = 6.58622 7.50605 7.06113
#
# Compressibility (1/GPa) = 0.01508992
#
# Stress axis : x y z
#
# Youngs Moduli (GPa) = 160.70947 60.40900 116.14163
#
# Poissons Ratio (x) = 0.28673 0.18772
# Poissons Ratio (y) = 0.76281 0.20736
# Poissons Ratio (z) = 0.25976 0.10786
#
# Static dielectric constant tensor:
#      x y z
#    x 2.109010 0.000000 0.000000 
#    y 0.000000 1.839140 0.000000 
#    z 0.000000 0.000000 1.959590 
# 
# From -- ./inp_files/1939.got.cif
#   From: 2010.05.17/outbox.cif.g08.bks.cpg/sg52_1_cif.got.tgz:1939.got - 2010.06.03 12:15:38.
