data_PCOD9412665
_publ_section_title
;
Structure prediction by ZEFSAII (Michael W. Deem and Ramdas Pophale) SiO2 
 PCOD9412665
Probable space group: P N N A
;
_chemical_formula_sum "Si O2"
_cell_formula_units_Z 36
_cell_length_a 8.641342
_cell_length_b 7.209442
_cell_length_c 24.411242
_cell_angle_alpha 90.000000
_cell_angle_beta 90.000000
_cell_angle_gamma 90.000000
_cell_volume 1520.802165
_symmetry_space_group_name_H-M "P N N A"
_symmetry_group_IT_number 52
_symmetry_cell_setting 'orthorhombic'
loop_
_space_group_symop_operation_xyz
x,y,z
1/2-x,-y,z
x,1/2-y,1/2-z
1/2-x,1/2+y,1/2-z
-x,-y,-z
1/2+x,y,-z
-x,1/2+y,1/2+z
1/2+x,1/2-y,1/2+z
loop_
_atom_site_type_symbol
_atom_site_label
_atom_site_fract_x
_atom_site_fract_y
_atom_site_fract_z
Si Si1 0.009361 0.215016 0.065241
Si Si2 0.631411 0.250000 0.250000
Si Si3 0.250000 0.500000 0.835330
Si Si4 0.250000 0.500000 0.510777
Si Si5 0.422948 0.040738 0.164094
Si Si6 0.584273 0.937010 0.613673
O O1 0.071804 0.426346 0.061514
O O2 0.837816 0.157579 0.046133
O O3 0.025355 0.131888 0.126803
O O4 0.125595 0.099930 0.027206
O O5 0.743180 0.326192 0.204104
O O6 0.523876 0.105031 0.216367
O O7 0.414386 0.509979 0.863941
O O8 0.416595 0.215679 0.121078
O O9 0.250000 0.000000 0.183508
O O10 0.750000 0.000000 0.639571
#
# Coordination Sequence:
#
# PCOD9412665 Si02
#       6
#     8   4   4   4   8   8
#     4  11  23  46  72  98 147 181 239 302 355 440
#     4  10  26  40  66 110 136 186 252 294 358 442
#     4  10  26  41  64 106 138 178 249 280 358 442
#     4  10  24  43  72 110 132 192 245 286 378 424
#     4  11  23  45  71 101 144 189 241 292 369 435
#     4  11  23  44  71  99 134 194 232 285 367 422
#
# _framework density 23.671721000000002
#
# number of rings (size 3 to 8) (size 9 to 14) (size 15 to 20)
#    0.000    1.333    3.333    0.000    9.333    3.556 
#    0.000   13.333    0.000    0.000    0.000    0.000 
#    0.000    0.000    0.000    0.000    0.000    0.000 
#
# Total GULP energy -200581.895401 kJ/mol
# GULP energy per Si atom -5571.719317 kJ/mol
# Density = 2.361784 g / cm^3
# Si number density = 23.671721 Si / 1000 Ang^3
#
#
#
# Elastic Constant Matrix: (Units=GPa)
#
#
# Indices 1 2 3 4 5 6 
#
# 1 150.6905 22.9231 27.8529 0.0000 0.0000 0.0000
# 2 22.9231 89.7131 -9.9159 0.0000 0.0000 0.0000
# 3 27.8529 -9.9159 40.6929 0.0000 0.0000 0.0000
# 4 0.0000 0.0000 0.0000 70.0919 0.0000 0.0000
# 5 0.0000 0.0000 0.0000 0.0000 -1.5995 0.0000
# 6 0.0000 0.0000 0.0000 0.0000 0.0000 43.3490
#
#
#
# Elastic Compliance Matrix: (Units=1/GPa)
#
#
# Indices 1 2 3 4 5 6 
#
# 1 0.008229 -0.002801 -0.006315 0.000000 0.000000 0.000000
# 2 -0.002801 0.012408 0.004941 0.000000 0.000000 0.000000
# 3 -0.006315 0.004941 0.030101 0.000000 0.000000 0.000000
# 4 0.000000 0.000000 0.000000 0.014267 0.000000 0.000000
# 5 0.000000 0.000000 0.000000 0.000000 -0.625188 0.000000
# 6 0.000000 0.000000 0.000000 0.000000 0.000000 0.023069
#
#
# Mechanical properties :
#
#
# Convention : Reuss Voigt Hill
#
# Bulk Modulus (GPa) = 23.59167 40.31297 31.95232
# Shear Modulus (GPa) = -9.71564 38.38402 14.33419
#
# Velocity S-wave (km/s) = -2.02811 4.03117 2.46344
# Velocity P-wave (km/s) = 2.12215 6.22367 4.64960
#
# Compressibility (1/GPa) = 0.04238785
#
# Stress axis : x y z
#
# Youngs Moduli (GPa) = 121.51469 80.59077 33.22172
#
# Poissons Ratio (x) = 0.22572 0.20980
# Poissons Ratio (y) = 0.34033 -0.16414
# Poissons Ratio (z) = 0.76740 -0.39817
#
# Static dielectric constant tensor:
#      x y z
#    x 3.465380 0.000000 0.000000 
#    y 0.000000 6.142280 0.000000 
#    z 0.000000 0.000000 1.950920 
# 
# From -- ./inp_files/42078.got.cif
#   From: 2010.05.17/outbox.cif.g08.bks.cpg/sg52_22_cif.got.tgz:42078.got - 2010.06.03 12:15:38.
