data_PCOD9412644
_publ_section_title
;
Structure prediction by ZEFSAII (Michael W. Deem and Ramdas Pophale) SiO2 
 PCOD9412644
Probable space group: P N N A
;
_chemical_formula_sum "Si O2"
_cell_formula_units_Z 64
_cell_length_a 12.982993
_cell_length_b 19.659935
_cell_length_c 13.124008
_cell_angle_alpha 90.000000
_cell_angle_beta 90.000000
_cell_angle_gamma 90.000000
_cell_volume 3349.834777
_symmetry_space_group_name_H-M "P N N A"
_symmetry_group_IT_number 52
_symmetry_cell_setting 'orthorhombic'
loop_
_space_group_symop_operation_xyz
x,y,z
1/2-x,-y,z
x,1/2-y,1/2-z
1/2-x,1/2+y,1/2-z
-x,-y,-z
1/2+x,y,-z
-x,1/2+y,1/2+z
1/2+x,1/2-y,1/2+z
loop_
_atom_site_type_symbol
_atom_site_label
_atom_site_fract_x
_atom_site_fract_y
_atom_site_fract_z
Si Si1 0.346121 0.184416 0.009930
Si Si2 0.597574 0.673448 0.732094
Si Si3 0.514192 0.770504 0.359861
Si Si4 0.752178 0.920491 0.143647
Si Si5 0.780977 0.569226 0.011727
Si Si6 0.561684 0.066456 0.305864
Si Si7 0.903883 0.083401 0.326927
Si Si8 0.718944 0.200555 0.624368
O O1 0.432430 0.220714 0.940303
O O2 0.273214 0.132010 0.947625
O O3 0.397126 0.154364 0.112933
O O4 0.281273 0.247029 0.054558
O O5 0.552369 0.750000 0.750000
O O6 0.531819 0.618081 0.792809
O O7 0.712576 0.680892 0.777592
O O8 0.557227 0.750000 0.250000
O O9 0.537629 0.850765 0.366863
O O10 0.391555 0.766146 0.359176
O O11 0.856035 0.916538 0.214110
O O12 0.658841 0.906321 0.222338
O O13 0.750000 0.000000 0.110473
O O14 0.750000 0.500000 0.954050
O O15 0.879364 0.572983 0.086504
O O16 0.685300 0.572013 0.090160
O O17 0.790395 0.631492 0.937671
O O18 0.533594 0.986184 0.306919
#
# Coordination Sequence:
#
# PCOD9412644 Si02
#       8
#     8   8   8   8   8   8   8   8
#     4  11  23  40  63  87 124 163 215 252 311 374
#     4  10  24  43  55  87 130 166 201 256 314 377
#     4  12  23  39  64  91 121 163 208 258 308 371
#     4   9  19  39  63  92 120 152 204 269 307 362
#     4   9  19  36  62  92 120 155 200 253 318 371
#     4   9  20  37  67  89 123 155 203 262 314 369
#     4   9  18  39  59  94 121 151 200 264 314 366
#     4  11  25  40  58  88 131 163 198 257 313 370
#
# _framework density 19.105419999999999
#
# number of rings (size 3 to 8) (size 9 to 14) (size 15 to 20)
#    0.000    2.000    2.500    2.625    5.250    1.000 
#    0.000    8.125    0.000    0.000    0.000    0.000 
#    0.000    0.000    0.000    0.000    0.000    0.000 
#
# Total GULP energy -356491.314968 kJ/mol
# GULP energy per Si atom -5570.176796 kJ/mol
# Density = 1.906193 g / cm^3
# Si number density = 19.105420 Si / 1000 Ang^3
#
#
#
# Elastic Constant Matrix: (Units=GPa)
#
#
# Indices 1 2 3 4 5 6 
#
# 1 68.6173 23.0914 11.9458 0.0000 0.0000 0.0000
# 2 23.0914 75.9867 26.3267 0.0000 0.0000 0.0000
# 3 11.9458 26.3267 84.9639 0.0000 0.0000 0.0000
# 4 0.0000 0.0000 0.0000 18.2913 0.0000 0.0000
# 5 0.0000 0.0000 0.0000 0.0000 6.1270 0.0000
# 6 0.0000 0.0000 0.0000 0.0000 0.0000 16.5213
#
#
#
# Elastic Compliance Matrix: (Units=1/GPa)
#
#
# Indices 1 2 3 4 5 6 
#
# 1 0.016288 -0.004656 -0.000847 0.000000 0.000000 0.000000
# 2 -0.004656 0.016074 -0.004326 0.000000 0.000000 0.000000
# 3 -0.000847 -0.004326 0.013229 0.000000 0.000000 0.000000
# 4 0.000000 0.000000 0.000000 0.054671 0.000000 0.000000
# 5 0.000000 0.000000 0.000000 0.000000 0.163212 0.000000
# 6 0.000000 0.000000 0.000000 0.000000 0.000000 0.060528
#
#
# Mechanical properties :
#
#
# Convention : Reuss Voigt Hill
#
# Bulk Modulus (GPa) = 38.56194 39.14396 38.85295
# Shear Modulus (GPa) = 14.19227 19.40152 16.79689
#
# Velocity S-wave (km/s) = 2.72847 3.19015 2.96830
# Velocity P-wave (km/s) = 5.49123 5.83971 5.66815
#
# Compressibility (1/GPa) = 0.02593230
#
# Stress axis : x y z
#
# Youngs Moduli (GPa) = 61.39487 62.21250 75.58994
#
# Poissons Ratio (x) = 0.28967 0.06405
# Poissons Ratio (y) = 0.28586 0.32700
# Poissons Ratio (z) = 0.05202 0.26913
#
# Static dielectric constant tensor:
#      x y z
#    x 1.679890 0.000000 0.000000 
#    y 0.000000 1.727840 0.000000 
#    z 0.000000 0.000000 1.676670 
# 
# From -- ./inp_files/26363.got.cif
#   From: 2010.05.17/outbox.cif.g08.bks.cpg/sg52_14_cif.got.tgz:26363.got - 2010.06.03 12:15:38.
