data_PCOD9412753
_publ_section_title
;
Structure prediction by ZEFSAII (Michael W. Deem and Ramdas Pophale) SiO2 
 PCOD9412753
Probable space group: P N N A
;
_chemical_formula_sum "Si O2"
_cell_formula_units_Z 32
_cell_length_a 5.092907
_cell_length_b 19.750003
_cell_length_c 13.120147
_cell_angle_alpha 90.000000
_cell_angle_beta 90.000000
_cell_angle_gamma 90.000000
_cell_volume 1319.689048
_symmetry_space_group_name_H-M "P N N A"
_symmetry_group_IT_number 52
_symmetry_cell_setting 'orthorhombic'
loop_
_space_group_symop_operation_xyz
x,y,z
1/2-x,-y,z
x,1/2-y,1/2-z
1/2-x,1/2+y,1/2-z
-x,-y,-z
1/2+x,y,-z
-x,1/2+y,1/2+z
1/2+x,1/2-y,1/2+z
loop_
_atom_site_type_symbol
_atom_site_label
_atom_site_fract_x
_atom_site_fract_y
_atom_site_fract_z
Si Si1 0.750000 0.000000 0.427253
Si Si2 0.781854 0.581628 0.439940
Si Si3 0.829532 0.288198 0.927026
Si Si4 0.655189 0.372912 0.211193
Si Si5 0.949751 0.750000 0.750000
O O1 0.736531 0.934423 0.355701
O O2 0.500000 0.000000 0.500000
O O3 0.750000 0.500000 0.440052
O O4 0.500338 0.605776 0.479815
O O5 0.866316 0.603493 0.327562
O O6 0.740412 0.232385 0.844623
O O7 0.891316 0.349977 0.848495
O O8 0.594080 0.287692 0.007493
O O9 0.855493 0.309704 0.215338
#
# Coordination Sequence:
#
# PCOD9412753 Si02
#       5
#     4   8   8   8   4
#     4  12  30  50  84 124 162 224 280 358 430 500
#     4  10  24  46  75 111 151 197 259 329 398 475
#     4  12  27  50  77 114 163 207 267 341 407 493
#     4  12  27  54  81 121 164 218 281 342 424 512
#     4  12  30  50  80 120 160 220 280 332 422 496
#
# _framework density 24.248135000000001
#
# number of rings (size 3 to 8) (size 9 to 14) (size 15 to 20)
#    0.000    0.500    3.750    2.250    7.000    2.000 
#    0.000    0.000    0.000    0.000    0.000    0.000 
#    0.000    0.000    0.000    0.000    0.000    0.000 
#
# Total GULP energy -179042.222109 kJ/mol
# GULP energy per Si atom -5595.069441 kJ/mol
# Density = 2.419295 g / cm^3
# Si number density = 24.248135 Si / 1000 Ang^3
#
#
#
# Elastic Constant Matrix: (Units=GPa)
#
#
# Indices 1 2 3 4 5 6 
#
# 1 174.9023 51.6478 68.9634 0.0000 0.0000 0.0000
# 2 51.6478 121.0849 56.5428 0.0000 0.0000 0.0000
# 3 68.9634 56.5428 199.9484 0.0000 0.0000 0.0000
# 4 0.0000 0.0000 0.0000 45.9696 0.0000 0.0000
# 5 0.0000 0.0000 0.0000 0.0000 37.0561 0.0000
# 6 0.0000 0.0000 0.0000 0.0000 0.0000 20.3199
#
#
#
# Elastic Compliance Matrix: (Units=1/GPa)
#
#
# Indices 1 2 3 4 5 6 
#
# 1 0.007078 -0.002165 -0.001829 0.000000 0.000000 0.000000
# 2 -0.002165 0.010177 -0.002131 0.000000 0.000000 0.000000
# 3 -0.001829 -0.002131 0.006235 0.000000 0.000000 0.000000
# 4 0.000000 0.000000 0.000000 0.021753 0.000000 0.000000
# 5 0.000000 0.000000 0.000000 0.000000 0.026986 0.000000
# 6 0.000000 0.000000 0.000000 0.000000 0.000000 0.049213
#
#
# Mechanical properties :
#
#
# Convention : Reuss Voigt Hill
#
# Bulk Modulus (GPa) = 88.97124 94.47154 91.72139
# Shear Modulus (GPa) = 36.37961 41.92124 39.15043
#
# Velocity S-wave (km/s) = 3.87758 4.16245 4.02254
# Velocity P-wave (km/s) = 7.53785 7.88329 7.71250
#
# Compressibility (1/GPa) = 0.01123959
#
# Stress axis : x y z
#
# Youngs Moduli (GPa) = 141.28386 98.25717 160.38916
#
# Poissons Ratio (x) = 0.21272 0.29335
# Poissons Ratio (y) = 0.30587 0.34184
# Poissons Ratio (z) = 0.25841 0.20942
#
# Static dielectric constant tensor:
#      x y z
#    x 1.939050 0.000000 0.000000 
#    y 0.000000 2.002720 0.000000 
#    z 0.000000 0.000000 1.933240 
# 
# From -- ./inp_files/16006.got.cif
#   From: 2010.05.17/outbox.cif.g08.bks.cpg/sg52_9_cif.got.tgz:16006.got - 2010.06.03 12:15:38.
