data_PCOD9412202
_publ_section_title
;
Structure prediction by ZEFSAII (Michael W. Deem and Ramdas Pophale) SiO2 
 PCOD9412202
Probable space group: P N N A
;
_chemical_formula_sum "Si O2"
_cell_formula_units_Z 20
_cell_length_a 13.043466
_cell_length_b 7.536593
_cell_length_c 8.351401
_cell_angle_alpha 90.000000
_cell_angle_beta 90.000000
_cell_angle_gamma 90.000000
_cell_volume 820.970232
_symmetry_space_group_name_H-M "P N N A"
_symmetry_group_IT_number 52
_symmetry_cell_setting 'orthorhombic'
loop_
_space_group_symop_operation_xyz
x,y,z
1/2-x,-y,z
x,1/2-y,1/2-z
1/2-x,1/2+y,1/2-z
-x,-y,-z
1/2+x,y,-z
-x,1/2+y,1/2+z
1/2+x,1/2-y,1/2+z
loop_
_atom_site_type_symbol
_atom_site_label
_atom_site_fract_x
_atom_site_fract_y
_atom_site_fract_z
Si Si1 0.250000 0.500000 0.173585
Si Si2 0.734776 0.710530 0.431471
Si Si3 0.057636 0.638533 0.387505
O O1 0.152143 0.557691 0.280870
O O2 0.211356 0.338221 0.060290
O O3 0.750000 0.500000 0.444851
O O4 0.757873 0.750000 0.250000
O O5 0.616975 0.754650 0.479043
O O6 0.998663 0.750000 0.250000
O O7 0.000000 0.500000 0.500000
#
# Coordination Sequence:
#
# PCOD9412202 Si02
#       3
#     4   8   8
#     4  10  22  46  74  98 142 188 234 286 358 430
#     4  11  22  42  71 102 136 183 233 287 353 417
#     4  10  23  46  70 105 140 189 238 291 360 423
#
# _framework density 24.361419999999999
#
# number of rings (size 3 to 8) (size 9 to 14) (size 15 to 20)
#    0.000    1.600    4.000    0.000    0.000    1.600 
#    7.200    4.000    0.000    0.000    0.000    0.000 
#    0.000    0.000    0.000    0.000    0.000    0.000 
#
# Total GULP energy -111367.461545 kJ/mol
# GULP energy per Si atom -5568.373077 kJ/mol
# Density = 2.430597 g / cm^3
# Si number density = 24.361420 Si / 1000 Ang^3
#
#
#
# Elastic Constant Matrix: (Units=GPa)
#
#
# Indices 1 2 3 4 5 6 
#
# 1 64.2586 16.4910 58.5428 0.0000 0.0000 0.0000
# 2 16.4910 154.8966 94.2523 0.0000 0.0000 0.0000
# 3 58.5428 94.2523 226.3636 0.0000 0.0000 0.0000
# 4 0.0000 0.0000 0.0000 61.6633 0.0000 0.0000
# 5 0.0000 0.0000 0.0000 0.0000 -4.4881 0.0000
# 6 0.0000 0.0000 0.0000 0.0000 0.0000 23.1616
#
#
#
# Elastic Compliance Matrix: (Units=1/GPa)
#
#
# Indices 1 2 3 4 5 6 
#
# 1 0.020584 0.001403 -0.005908 0.000000 0.000000 0.000000
# 2 0.001403 0.008742 -0.004003 0.000000 0.000000 0.000000
# 3 -0.005908 -0.004003 0.007612 0.000000 0.000000 0.000000
# 4 0.000000 0.000000 0.000000 0.016217 0.000000 0.000000
# 5 0.000000 0.000000 0.000000 0.000000 -0.222813 0.000000
# 6 0.000000 0.000000 0.000000 0.000000 0.000000 0.043175
#
#
# Mechanical properties :
#
#
# Convention : Reuss Voigt Hill
#
# Bulk Modulus (GPa) = 50.19101 87.12123 68.65612
# Shear Modulus (GPa) = -48.62589 34.48287 -7.07151
#
# Velocity S-wave (km/s) = -4.47253 3.76636 -1.70559
# Velocity P-wave (km/s) = 2.45438 7.39956 4.93607
#
# Compressibility (1/GPa) = 0.01992389
#
# Stress axis : x y z
#
# Youngs Moduli (GPa) = 48.58053 114.38655 131.36541
#
# Poissons Ratio (x) = -0.16053 0.77610
# Poissons Ratio (y) = -0.06818 0.52586
# Poissons Ratio (z) = 0.28701 0.45789
#
# Static dielectric constant tensor:
#      x y z
#    x 2.085590 0.000000 0.000000 
#    y 0.000000 2.159590 0.000000 
#    z 0.000000 0.000000 2.024720 
# 
# From -- ./inp_files/7865.got.cif
#   From: 2010.05.17/outbox.cif.g08.bks.cpg/sg52_4_cif.got.tgz:7865.got - 2010.06.03 12:15:38.
