data_PCOD9412118
_publ_section_title
;
Structure prediction by ZEFSAII (Michael W. Deem and Ramdas Pophale) SiO2 
 PCOD9412118
Probable space group: P N N A
;
_chemical_formula_sum "Si O2"
_cell_formula_units_Z 28
_cell_length_a 20.526662
_cell_length_b 10.956830
_cell_length_c 4.990260
_cell_angle_alpha 90.000000
_cell_angle_beta 90.000000
_cell_angle_gamma 90.000000
_cell_volume 1122.345134
_symmetry_space_group_name_H-M "P N N A"
_symmetry_group_IT_number 52
_symmetry_cell_setting 'orthorhombic'
loop_
_space_group_symop_operation_xyz
x,y,z
1/2-x,-y,z
x,1/2-y,1/2-z
1/2-x,1/2+y,1/2-z
-x,-y,-z
1/2+x,y,-z
-x,1/2+y,1/2+z
1/2+x,1/2-y,1/2+z
loop_
_atom_site_type_symbol
_atom_site_label
_atom_site_fract_x
_atom_site_fract_y
_atom_site_fract_z
Si Si1 0.463016 0.250000 0.250000
Si Si2 0.250000 0.500000 0.046959
Si Si3 0.074314 0.111717 0.056171
Si Si4 0.190551 0.250000 0.250000
Si Si5 0.604272 0.539361 0.070241
O O1 0.512349 0.184110 0.044868
O O2 0.418704 0.336962 0.066882
O O3 0.232958 0.370590 0.190559
O O4 0.317897 0.470803 0.904336
O O5 0.079138 0.996477 0.860091
O O6 0.138852 0.196387 0.032908
O O7 0.077001 0.061763 0.359023
#
# Coordination Sequence:
#
# PCOD9412118 Si02
#       5
#     4   4   8   4   8
#     4  12  23  44  70 100 133 182 236 286 348 430
#     4  10  22  44  68 100 136 180 234 282 350 424
#     4  11  25  44  66  99 140 179 225 293 360 408
#     4  10  23  46  72 100 141 190 232 294 356 426
#     4  11  26  43  69 101 138 183 231 291 350 421
#
# _framework density 24.947763999999999
#
# number of rings (size 3 to 8) (size 9 to 14) (size 15 to 20)
#    0.000    1.143    0.000    6.000    0.000   10.286 
#    0.000    2.857    0.000    0.000    0.000    0.000 
#    0.000    0.000    0.000    0.000    0.000    0.000 
#
# Total GULP energy -156639.420124 kJ/mol
# GULP energy per Si atom -5594.265004 kJ/mol
# Density = 2.489098 g / cm^3
# Si number density = 24.947764 Si / 1000 Ang^3
#
#
#
# Elastic Constant Matrix: (Units=GPa)
#
#
# Indices 1 2 3 4 5 6 
#
# 1 136.5594 59.6717 22.8583 0.0000 0.0000 0.0000
# 2 59.6717 165.4995 21.1518 0.0000 0.0000 0.0000
# 3 22.8583 21.1518 89.2609 0.0000 0.0000 0.0000
# 4 0.0000 0.0000 0.0000 38.2795 0.0000 0.0000
# 5 0.0000 0.0000 0.0000 0.0000 -21.9923 0.0000
# 6 0.0000 0.0000 0.0000 0.0000 0.0000 47.4284
#
#
#
# Elastic Compliance Matrix: (Units=1/GPa)
#
#
# Indices 1 2 3 4 5 6 
#
# 1 0.008900 -0.003009 -0.001566 0.000000 0.000000 0.000000
# 2 -0.003009 0.007248 -0.000947 0.000000 0.000000 0.000000
# 3 -0.001566 -0.000947 0.011829 0.000000 0.000000 0.000000
# 4 0.000000 0.000000 0.000000 0.026124 0.000000 0.000000
# 5 0.000000 0.000000 0.000000 0.000000 -0.045470 0.000000
# 6 0.000000 0.000000 0.000000 0.000000 0.000000 0.021084
#
#
# Mechanical properties :
#
#
# Convention : Reuss Voigt Hill
#
# Bulk Modulus (GPa) = 59.05742 66.52037 62.78890
# Shear Modulus (GPa) = 107.75411 31.91898 69.83654
#
# Velocity S-wave (km/s) = 6.57918 3.58080 5.29659
# Velocity P-wave (km/s) = 9.02430 6.61951 7.91378
#
# Compressibility (1/GPa) = 0.01693267
#
# Stress axis : x y z
#
# Youngs Moduli (GPa) = 112.36400 137.96632 84.54089
#
# Poissons Ratio (x) = 0.41509 0.13240
# Poissons Ratio (y) = 0.33806 0.08007
# Poissons Ratio (z) = 0.17597 0.13067
#
# Static dielectric constant tensor:
#      x y z
#    x 1.955680 0.000000 0.000000 
#    y 0.000000 2.061520 0.000000 
#    z 0.000000 0.000000 1.947330 
# 
# From -- ./inp_files/4769.got.cif
#   From: 2010.05.17/outbox.cif.g08.bks.cpg/sg52_3_cif.got.tgz:4769.got - 2010.06.03 12:15:38.
