data_PCOD9412616
_publ_section_title
;
Structure prediction by ZEFSAII (Michael W. Deem and Ramdas Pophale) SiO2 
 PCOD9412616
Probable space group: P N N A
;
_chemical_formula_sum "Si O2"
_cell_formula_units_Z 28
_cell_length_a 9.743388
_cell_length_b 5.359447
_cell_length_c 22.010624
_cell_angle_alpha 90.000000
_cell_angle_beta 90.000000
_cell_angle_gamma 90.000000
_cell_volume 1149.376551
_symmetry_space_group_name_H-M "P N N A"
_symmetry_group_IT_number 52
_symmetry_cell_setting 'orthorhombic'
loop_
_space_group_symop_operation_xyz
x,y,z
1/2-x,-y,z
x,1/2-y,1/2-z
1/2-x,1/2+y,1/2-z
-x,-y,-z
1/2+x,y,-z
-x,1/2+y,1/2+z
1/2+x,1/2-y,1/2+z
loop_
_atom_site_type_symbol
_atom_site_label
_atom_site_fract_x
_atom_site_fract_y
_atom_site_fract_z
Si Si1 0.325638 0.247535 0.620093
Si Si2 0.627373 0.665846 0.518054
Si Si3 0.413633 0.477160 0.132792
Si Si4 0.844466 0.250000 0.750000
O O1 0.250000 0.500000 0.639292
O O2 0.316614 0.240154 0.546363
O O3 0.250000 0.000000 0.643295
O O4 0.486132 0.213597 0.636608
O O5 0.750000 0.500000 0.546601
O O6 0.500000 0.500000 0.500000
O O7 0.568751 0.859994 0.566350
O O8 0.250000 0.500000 0.135457
O O9 0.437043 0.303064 0.191019
O O10 0.750000 0.500000 0.739420
#
# Coordination Sequence:
#
# PCOD9412616 Si02
#       4
#     8   8   8   4
#     4  11  24  41  63  97 137 176 220 276 340 407
#     4  11  21  36  63  99 137 178 224 277 343 409
#     4  11  22  41  69 100 138 181 231 286 347 413
#     4  10  24  42  68 104 136 174 232 296 348 410
#
# _framework density 24.361035000000001
#
# number of rings (size 3 to 8) (size 9 to 14) (size 15 to 20)
#    0.000    1.143    0.000    7.714    0.000    6.857 
#    0.000    0.000    0.000   13.714    0.000    2.000 
#    0.000    0.000    0.000    0.000    0.000    0.000 
#
# Total GULP energy -156525.275043 kJ/mol
# GULP energy per Si atom -5590.188394 kJ/mol
# Density = 2.430559 g / cm^3
# Si number density = 24.361035 Si / 1000 Ang^3
#
#
#
# Elastic Constant Matrix: (Units=GPa)
#
#
# Indices 1 2 3 4 5 6 
#
# 1 161.2496 90.3065 13.6610 0.0000 0.0000 0.0000
# 2 90.3065 162.7986 16.6349 0.0000 0.0000 0.0000
# 3 13.6610 16.6349 52.8802 0.0000 0.0000 0.0000
# 4 0.0000 0.0000 0.0000 28.6309 0.0000 0.0000
# 5 0.0000 0.0000 0.0000 0.0000 3.8359 0.0000
# 6 0.0000 0.0000 0.0000 0.0000 0.0000 58.7460
#
#
#
# Elastic Compliance Matrix: (Units=1/GPa)
#
#
# Indices 1 2 3 4 5 6 
#
# 1 0.009028 -0.004928 -0.000782 0.000000 0.000000 0.000000
# 2 -0.004928 0.009036 -0.001570 0.000000 0.000000 0.000000
# 3 -0.000782 -0.001570 0.019606 0.000000 0.000000 0.000000
# 4 0.000000 0.000000 0.000000 0.034927 0.000000 0.000000
# 5 0.000000 0.000000 0.000000 0.000000 0.260697 0.000000
# 6 0.000000 0.000000 0.000000 0.000000 0.000000 0.017022
#
#
# Mechanical properties :
#
#
# Convention : Reuss Voigt Hill
#
# Bulk Modulus (GPa) = 43.26821 68.68146 55.97483
# Shear Modulus (GPa) = 13.41994 35.33095 24.37544
#
# Velocity S-wave (km/s) = 2.34962 3.81242 3.16664
# Velocity P-wave (km/s) = 5.01605 6.90172 6.03301
#
# Compressibility (1/GPa) = 0.02311166
#
# Stress axis : x y z
#
# Youngs Moduli (GPa) = 110.77140 110.66266 51.00360
#
# Poissons Ratio (x) = 0.54533 0.03988
# Poissons Ratio (y) = 0.54586 0.08006
# Poissons Ratio (z) = 0.08662 0.17370
#
# Static dielectric constant tensor:
#      x y z
#    x 2.131710 0.000000 0.000000 
#    y 0.000000 1.994980 0.000000 
#    z 0.000000 0.000000 2.129450 
# 
# From -- ./inp_files/41934.got.cif
#   From: 2010.05.17/outbox.cif.g08.bks.cpg/sg52_21_cif.got.tgz:41934.got - 2010.06.03 12:15:38.
