data_PCOD9412791
_publ_section_title
;
Structure prediction by ZEFSAII (Michael W. Deem and Ramdas Pophale) SiO2 
 PCOD9412791
Probable space group: P N N A
;
_chemical_formula_sum "Si O2"
_cell_formula_units_Z 32
_cell_length_a 4.841804
_cell_length_b 21.279462
_cell_length_c 13.017081
_cell_angle_alpha 90.000000
_cell_angle_beta 90.000000
_cell_angle_gamma 90.000000
_cell_volume 1341.162667
_symmetry_space_group_name_H-M "P N N A"
_symmetry_group_IT_number 52
_symmetry_cell_setting 'orthorhombic'
loop_
_space_group_symop_operation_xyz
x,y,z
1/2-x,-y,z
x,1/2-y,1/2-z
1/2-x,1/2+y,1/2-z
-x,-y,-z
1/2+x,y,-z
-x,1/2+y,1/2+z
1/2+x,1/2-y,1/2+z
loop_
_atom_site_type_symbol
_atom_site_label
_atom_site_fract_x
_atom_site_fract_y
_atom_site_fract_z
Si Si1 0.450655 0.250000 0.250000
Si Si2 0.179430 0.316906 0.069724
Si Si3 0.033755 0.106669 0.068236
Si Si4 0.568067 0.882145 0.744693
Si Si5 0.750000 0.000000 0.169771
O O1 0.263761 0.262103 0.148897
O O2 0.605300 0.183210 0.244788
O O3 0.278278 0.377668 0.134981
O O4 0.868590 0.313814 0.031688
O O5 0.193625 0.126211 0.170316
O O6 0.973440 0.034068 0.098310
O O7 0.732345 0.124419 0.026543
O O8 0.395059 0.944571 0.765425
#
# Coordination Sequence:
#
# PCOD9412791 Si02
#       5
#     4   8   8   8   4
#     4   8  24  48  72 106 138 190 250 302 360 440
#     4  10  24  48  72 100 143 186 239 305 361 429
#     4  12  25  43  70 109 150 190 235 296 370 441
#     4  10  25  44  72 105 147 190 248 301 361 443
#     4  12  24  44  70 108 160 192 242 302 366 440
#
# _framework density 23.859897
#
# number of rings (size 3 to 8) (size 9 to 14) (size 15 to 20)
#    1.500    0.000    2.500    1.500    3.500    3.000 
#    4.500    1.250    0.000    0.000    0.000    0.000 
#    0.000    0.000    0.000    0.000    0.000    0.000 
#
# Total GULP energy -178281.010237 kJ/mol
# GULP energy per Si atom -5571.281570 kJ/mol
# Density = 2.380559 g / cm^3
# Si number density = 23.859897 Si / 1000 Ang^3
#
#
#
# Elastic Constant Matrix: (Units=GPa)
#
#
# Indices 1 2 3 4 5 6 
#
# 1 97.5766 13.4227 17.2862 0.0000 0.0000 0.0000
# 2 13.4227 67.2011 23.7242 0.0000 0.0000 0.0000
# 3 17.2862 23.7242 119.7053 0.0000 0.0000 0.0000
# 4 0.0000 0.0000 0.0000 38.2488 0.0000 0.0000
# 5 0.0000 0.0000 0.0000 0.0000 25.5484 0.0000
# 6 0.0000 0.0000 0.0000 0.0000 0.0000 18.8708
#
#
#
# Elastic Compliance Matrix: (Units=1/GPa)
#
#
# Indices 1 2 3 4 5 6 
#
# 1 0.010697 -0.001711 -0.001206 0.000000 0.000000 0.000000
# 2 -0.001711 0.016274 -0.002978 0.000000 0.000000 0.000000
# 3 -0.001206 -0.002978 0.009118 0.000000 0.000000 0.000000
# 4 0.000000 0.000000 0.000000 0.026145 0.000000 0.000000
# 5 0.000000 0.000000 0.000000 0.000000 0.039141 0.000000
# 6 0.000000 0.000000 0.000000 0.000000 0.000000 0.052992
#
#
# Mechanical properties :
#
#
# Convention : Reuss Voigt Hill
#
# Bulk Modulus (GPa) = 41.15295 43.70547 42.42921
# Shear Modulus (GPa) = 28.69324 31.87024 30.28174
#
# Velocity S-wave (km/s) = 3.47157 3.65872 3.56638
# Velocity P-wave (km/s) = 5.77532 6.01711 5.89745
#
# Compressibility (1/GPa) = 0.02429959
#
# Stress axis : x y z
#
# Youngs Moduli (GPa) = 93.48133 61.44818 109.67079
#
# Poissons Ratio (x) = 0.10514 0.13223
# Poissons Ratio (y) = 0.15995 0.32662
# Poissons Ratio (z) = 0.11271 0.18301
#
# Static dielectric constant tensor:
#      x y z
#    x 1.954380 0.000000 0.000000 
#    y 0.000000 1.993090 0.000000 
#    z 0.000000 0.000000 1.937180 
# 
# From -- ./inp_files/15997.got.cif
#   From: 2010.05.17/outbox.cif.g08.bks.cpg/sg52_8_cif.got.tgz:15997.got - 2010.06.03 12:15:38.
