data_PCOD9412465
_publ_section_title
;
Structure prediction by ZEFSAII (Michael W. Deem and Ramdas Pophale) SiO2 
 PCOD9412465
Probable space group: P N N A
;
_chemical_formula_sum "Si O2"
_cell_formula_units_Z 36
_cell_length_a 14.868325
_cell_length_b 9.749231
_cell_length_c 11.185215
_cell_angle_alpha 90.000000
_cell_angle_beta 90.000000
_cell_angle_gamma 90.000000
_cell_volume 1621.349876
_symmetry_space_group_name_H-M "P N N A"
_symmetry_group_IT_number 52
_symmetry_cell_setting 'orthorhombic'
loop_
_space_group_symop_operation_xyz
x,y,z
1/2-x,-y,z
x,1/2-y,1/2-z
1/2-x,1/2+y,1/2-z
-x,-y,-z
1/2+x,y,-z
-x,1/2+y,1/2+z
1/2+x,1/2-y,1/2+z
loop_
_atom_site_type_symbol
_atom_site_label
_atom_site_fract_x
_atom_site_fract_y
_atom_site_fract_z
Si Si1 0.545454 0.215916 0.464296
Si Si2 0.620023 0.862186 0.853966
Si Si3 0.238824 0.349466 0.555763
Si Si4 0.358721 0.250000 0.750000
Si Si5 0.504867 0.460001 0.802303
O O1 0.460227 0.313594 0.441765
O O2 0.637091 0.299943 0.453396
O O3 0.539211 0.136501 0.590029
O O4 0.534658 0.098484 0.362362
O O5 0.629995 0.750000 0.750000
O O6 0.583906 0.998087 0.788215
O O7 0.710130 0.864080 0.930031
O O8 0.250000 0.500000 0.613765
O O9 0.294958 0.242718 0.635334
O O10 0.424531 0.379301 0.740021
#
# Coordination Sequence:
#
# PCOD9412465 Si02
#       5
#     8   8   8   4   8
#     4  10  23  47  68  99 138 186 229 293 351 424
#     4  10  23  47  69 102 136 181 236 282 358 427
#     4  12  28  41  67 103 140 179 237 298 346 425
#     4  12  26  42  68 104 128 186 230 286 356 422
#     4  10  23  44  75  94 141 189 227 289 360 427
#
# _framework density 22.203721000000002
#
# number of rings (size 3 to 8) (size 9 to 14) (size 15 to 20)
#    0.000    1.333    2.222    1.333   10.889    3.556 
#    0.000    0.000    0.000    0.000    0.000    0.000 
#    0.000    0.000    0.000    0.000    0.000    0.000 
#
# Total GULP energy -201471.224712 kJ/mol
# GULP energy per Si atom -5596.422909 kJ/mol
# Density = 2.215318 g / cm^3
# Si number density = 22.203721 Si / 1000 Ang^3
#
#
#
# Elastic Constant Matrix: (Units=GPa)
#
#
# Indices 1 2 3 4 5 6 
#
# 1 101.8539 21.6402 25.0029 0.0000 0.0000 0.0000
# 2 21.6402 56.2199 14.1547 0.0000 0.0000 0.0000
# 3 25.0029 14.1547 81.4492 0.0000 0.0000 0.0000
# 4 0.0000 0.0000 0.0000 22.0627 0.0000 0.0000
# 5 0.0000 0.0000 0.0000 0.0000 18.1037 0.0000
# 6 0.0000 0.0000 0.0000 0.0000 0.0000 38.6388
#
#
#
# Elastic Compliance Matrix: (Units=1/GPa)
#
#
# Indices 1 2 3 4 5 6 
#
# 1 0.011285 -0.003630 -0.002833 0.000000 0.000000 0.000000
# 2 -0.003630 0.019769 -0.002321 0.000000 0.000000 0.000000
# 3 -0.002833 -0.002321 0.013551 0.000000 0.000000 0.000000
# 4 0.000000 0.000000 0.000000 0.045325 0.000000 0.000000
# 5 0.000000 0.000000 0.000000 0.000000 0.055237 0.000000
# 6 0.000000 0.000000 0.000000 0.000000 0.000000 0.025881
#
#
# Mechanical properties :
#
#
# Convention : Reuss Voigt Hill
#
# Bulk Modulus (GPa) = 36.98903 40.12429 38.55666
# Shear Modulus (GPa) = 25.29988 27.67605 26.48797
#
# Velocity S-wave (km/s) = 3.37923 3.53435 3.45766
# Velocity P-wave (km/s) = 5.64984 5.89625 5.77436
#
# Compressibility (1/GPa) = 0.02703504
#
# Stress axis : x y z
#
# Youngs Moduli (GPa) = 88.61462 50.58390 73.79689
#
# Poissons Ratio (x) = 0.18364 0.20908
# Poissons Ratio (y) = 0.32171 0.17129
# Poissons Ratio (z) = 0.25107 0.11741
#
# Static dielectric constant tensor:
#      x y z
#    x 1.751050 0.000000 0.000000 
#    y 0.000000 1.866430 0.000000 
#    z 0.000000 0.000000 1.834860 
# 
# From -- ./inp_files/17790.got.cif
#   From: 2010.05.17/outbox.cif.g08.bks.cpg/sg52_9_cif.got.tgz:17790.got - 2010.06.03 12:15:38.
