data_PCOD9412455
_publ_section_title
;
Structure prediction by ZEFSAII (Michael W. Deem and Ramdas Pophale) SiO2 
 PCOD9412455
Probable space group: P N N A
;
_chemical_formula_sum "Si O2"
_cell_formula_units_Z 40
_cell_length_a 9.113235
_cell_length_b 10.338952
_cell_length_c 17.021862
_cell_angle_alpha 90.000000
_cell_angle_beta 90.000000
_cell_angle_gamma 90.000000
_cell_volume 1603.821953
_symmetry_space_group_name_H-M "P N N A"
_symmetry_group_IT_number 52
_symmetry_cell_setting 'orthorhombic'
loop_
_space_group_symop_operation_xyz
x,y,z
1/2-x,-y,z
x,1/2-y,1/2-z
1/2-x,1/2+y,1/2-z
-x,-y,-z
1/2+x,y,-z
-x,1/2+y,1/2+z
1/2+x,1/2-y,1/2+z
loop_
_atom_site_type_symbol
_atom_site_label
_atom_site_fract_x
_atom_site_fract_y
_atom_site_fract_z
Si Si1 0.423658 0.514072 0.379279
Si Si2 0.372957 0.107214 0.735417
Si Si3 0.070812 0.297471 0.528855
Si Si4 0.820623 0.638802 0.816950
Si Si5 0.308235 0.140162 0.489791
O O1 0.250000 0.500000 0.364716
O O2 0.525617 0.567749 0.310137
O O3 0.434097 0.609055 0.453839
O O4 0.494696 0.377516 0.402728
O O5 0.308793 0.250000 0.750000
O O6 0.504094 0.120336 0.672117
O O7 0.250000 0.000000 0.720556
O O8 0.235460 0.251267 0.543501
O O9 0.979090 0.167755 0.513356
O O10 0.750000 0.500000 0.795991
O O11 0.796199 0.750000 0.750000
O O12 0.750588 0.669003 0.901266
O O13 0.250000 0.000000 0.511946
#
# Coordination Sequence:
#
# PCOD9412455 Si02
#       5
#     8   8   8   8   8
#     4  11  24  44  74 103 136 179 235 297 342 419
#     4  11  26  46  70 103 141 180 232 297 355 413
#     4  11  23  41  70 104 137 181 233 282 351 416
#     4  10  23  44  71  99 137 187 239 287 347 423
#     4  11  24  44  65 103 145 188 231 289 356 420
#
# _framework density 24.940425000000001
#
# number of rings (size 3 to 8) (size 9 to 14) (size 15 to 20)
#    0.000    1.200    2.000    3.600    5.600    0.800 
#    3.600    5.000    0.000    0.000    0.000    0.000 
#    0.000    0.000    0.000    0.000    0.000    0.000 
#
# Total GULP energy -223911.314030 kJ/mol
# GULP energy per Si atom -5597.782851 kJ/mol
# Density = 2.488366 g / cm^3
# Si number density = 24.940425 Si / 1000 Ang^3
#
#
#
# Elastic Constant Matrix: (Units=GPa)
#
#
# Indices 1 2 3 4 5 6 
#
# 1 115.8601 45.2435 18.5675 0.0000 0.0000 0.0000
# 2 45.2435 161.8127 16.3714 0.0000 0.0000 0.0000
# 3 18.5675 16.3714 75.5057 0.0000 0.0000 0.0000
# 4 0.0000 0.0000 0.0000 24.6110 0.0000 0.0000
# 5 0.0000 0.0000 0.0000 0.0000 22.0385 0.0000
# 6 0.0000 0.0000 0.0000 0.0000 0.0000 64.5543
#
#
#
# Elastic Compliance Matrix: (Units=1/GPa)
#
#
# Indices 1 2 3 4 5 6 
#
# 1 0.009944 -0.002590 -0.001884 0.000000 0.000000 0.000000
# 2 -0.002590 0.006993 -0.000879 0.000000 0.000000 0.000000
# 3 -0.001884 -0.000879 0.013898 0.000000 0.000000 0.000000
# 4 0.000000 0.000000 0.000000 0.040632 0.000000 0.000000
# 5 0.000000 0.000000 0.000000 0.000000 0.045375 0.000000
# 6 0.000000 0.000000 0.000000 0.000000 0.000000 0.015491
#
#
# Mechanical properties :
#
#
# Convention : Reuss Voigt Hill
#
# Bulk Modulus (GPa) = 49.67918 57.06036 53.36977
# Shear Modulus (GPa) = 33.38911 40.44052 36.91482
#
# Velocity S-wave (km/s) = 3.66287 4.03114 3.85141
# Velocity P-wave (km/s) = 6.15233 6.67795 6.42052
#
# Compressibility (1/GPa) = 0.02012916
#
# Stress axis : x y z
#
# Youngs Moduli (GPa) = 100.55958 142.99808 71.95302
#
# Poissons Ratio (x) = 0.37035 0.13555
# Poissons Ratio (y) = 0.26044 0.06328
# Poissons Ratio (z) = 0.18944 0.12575
#
# Static dielectric constant tensor:
#      x y z
#    x 1.910330 0.000000 0.000000 
#    y 0.000000 1.990290 0.000000 
#    z 0.000000 0.000000 2.035710 
# 
# From -- ./inp_files/35770.got.cif
#   From: 2010.05.17/outbox.cif.g08.bks.cpg/sg52_18_cif.got.tgz:35770.got - 2010.06.03 12:15:38.
