data_PCOD9412594
_publ_section_title
;
Structure prediction by ZEFSAII (Michael W. Deem and Ramdas Pophale) SiO2 
 PCOD9412594
Probable space group: P N N A
;
_chemical_formula_sum "Si O2"
_cell_formula_units_Z 64
_cell_length_a 14.282906
_cell_length_b 8.891736
_cell_length_c 25.948312
_cell_angle_alpha 90.000000
_cell_angle_beta 90.000000
_cell_angle_gamma 90.000000
_cell_volume 3295.431199
_symmetry_space_group_name_H-M "P N N A"
_symmetry_group_IT_number 52
_symmetry_cell_setting 'orthorhombic'
loop_
_space_group_symop_operation_xyz
x,y,z
1/2-x,-y,z
x,1/2-y,1/2-z
1/2-x,1/2+y,1/2-z
-x,-y,-z
1/2+x,y,-z
-x,1/2+y,1/2+z
1/2+x,1/2-y,1/2+z
loop_
_atom_site_type_symbol
_atom_site_label
_atom_site_fract_x
_atom_site_fract_y
_atom_site_fract_z
Si Si1 0.832095 0.620115 0.289880
Si Si2 0.349007 0.585246 0.966905
Si Si3 0.851360 0.582334 0.829409
Si Si4 0.028766 0.423408 0.068271
Si Si5 0.163580 0.386508 0.593382
Si Si6 0.649509 0.069774 0.856911
Si Si7 0.495161 0.922141 0.055840
Si Si8 0.957280 0.074765 0.764312
O O1 0.750000 0.500000 0.289479
O O2 0.809113 0.750000 0.250000
O O3 0.837937 0.679226 0.348710
O O4 0.931595 0.552418 0.271667
O O5 0.250000 0.500000 0.960652
O O6 0.437707 0.528343 0.933571
O O7 0.333977 0.757512 0.949853
O O8 0.392366 0.558645 0.023813
O O9 0.750000 0.500000 0.831725
O O10 0.916873 0.550746 0.878767
O O11 0.841720 0.762985 0.832948
O O12 0.907224 0.525119 0.779354
O O13 0.987508 0.256506 0.056927
O O14 0.250000 0.500000 0.587538
O O15 0.072051 0.488439 0.588020
O O16 0.601634 0.068753 0.912957
O O17 0.750000 0.000000 0.861419
O O18 0.589700 0.968938 0.818026
O O19 0.500000 0.000000 0.000000
O O20 0.943187 0.250000 0.750000
#
# Coordination Sequence:
#
# PCOD9412594 Si02
#       8
#     8   8   8   8   8   8   8   8
#     4  10  24  43  65  97 128 168 216 266 326 386
#     4  11  23  42  64  95 133 169 216 264 321 386
#     4  11  24  42  65  95 131 168 214 262 324 387
#     4  10  24  42  64  94 130 173 213 266 325 376
#     4  11  23  42  69  95 128 169 220 270 321 387
#     4  11  24  42  65  97 128 167 216 265 321 386
#     4  11  22  44  64  94 129 169 218 264 320 380
#     4  11  23  42  68  95 129 170 212 264 325 381
#
# _framework density 19.420829000000001
#
# number of rings (size 3 to 8) (size 9 to 14) (size 15 to 20)
#    0.000    1.250    2.500    2.625    3.500    3.000 
#    6.750    0.000    0.000    0.000    0.000    0.000 
#    0.000    0.000    0.000    0.000    0.000    0.000 
#
# Total GULP energy -357247.208510 kJ/mol
# GULP energy per Si atom -5581.987633 kJ/mol
# Density = 1.937663 g / cm^3
# Si number density = 19.420829 Si / 1000 Ang^3
#
#
#
# Elastic Constant Matrix: (Units=GPa)
#
#
# Indices 1 2 3 4 5 6 
#
# 1 95.0705 55.1861 27.5260 0.0000 0.0000 0.0000
# 2 55.1861 67.5201 20.1049 0.0000 0.0000 0.0000
# 3 27.5260 20.1049 73.2633 0.0000 0.0000 0.0000
# 4 0.0000 0.0000 0.0000 27.4952 0.0000 0.0000
# 5 0.0000 0.0000 0.0000 0.0000 -29.5856 0.0000
# 6 0.0000 0.0000 0.0000 0.0000 0.0000 29.7596
#
#
#
# Elastic Compliance Matrix: (Units=1/GPa)
#
#
# Indices 1 2 3 4 5 6 
#
# 1 0.020775 -0.015960 -0.003426 0.000000 0.000000 0.000000
# 2 -0.015960 0.028389 -0.001794 0.000000 0.000000 0.000000
# 3 -0.003426 -0.001794 0.015429 0.000000 0.000000 0.000000
# 4 0.000000 0.000000 0.000000 0.036370 0.000000 0.000000
# 5 0.000000 0.000000 0.000000 0.000000 -0.033800 0.000000
# 6 0.000000 0.000000 0.000000 0.000000 0.000000 0.033603
#
#
# Mechanical properties :
#
#
# Convention : Reuss Voigt Hill
#
# Bulk Modulus (GPa) = 44.97755 49.05420 47.01588
# Shear Modulus (GPa) = 33.21493 14.40295 23.80894
#
# Velocity S-wave (km/s) = 4.14003 2.72623 3.50515
# Velocity P-wave (km/s) = 6.78696 5.93491 6.37519
#
# Compressibility (1/GPa) = 0.02223331
#
# Stress axis : x y z
#
# Youngs Moduli (GPa) = 48.13592 35.22503 64.81374
#
# Poissons Ratio (x) = 0.56218 0.22203
# Poissons Ratio (y) = 0.76823 0.11629
# Poissons Ratio (z) = 0.16490 0.06320
#
# Static dielectric constant tensor:
#      x y z
#    x 1.657710 0.000000 0.000000 
#    y 0.000000 1.676560 0.000000 
#    z 0.000000 0.000000 1.695910 
# 
# From -- ./inp_files/40689.got.cif
#   From: 2010.05.17/outbox.cif.g08.bks.cpg/sg52_21_cif.got.tgz:40689.got - 2010.06.03 12:15:38.
