data_PCOD9412677
_publ_section_title
;
Structure prediction by ZEFSAII (Michael W. Deem and Ramdas Pophale) SiO2 
 PCOD9412677
Probable space group: P N N A
;
_chemical_formula_sum "Si O2"
_cell_formula_units_Z 24
_cell_length_a 15.407062
_cell_length_b 9.111930
_cell_length_c 7.731777
_cell_angle_alpha 90.000000
_cell_angle_beta 90.000000
_cell_angle_gamma 90.000000
_cell_volume 1085.449254
_symmetry_space_group_name_H-M "P N N A"
_symmetry_group_IT_number 52
_symmetry_cell_setting 'orthorhombic'
loop_
_space_group_symop_operation_xyz
x,y,z
1/2-x,-y,z
x,1/2-y,1/2-z
1/2-x,1/2+y,1/2-z
-x,-y,-z
1/2+x,y,-z
-x,1/2+y,1/2+z
1/2+x,1/2-y,1/2+z
loop_
_atom_site_type_symbol
_atom_site_label
_atom_site_fract_x
_atom_site_fract_y
_atom_site_fract_z
Si Si1 0.618020 0.094063 0.899382
Si Si2 0.917339 0.410910 0.283774
Si Si3 0.839218 0.929913 0.523206
O O1 0.515395 0.110752 0.855002
O O2 0.651657 0.021629 0.722829
O O3 0.654214 0.254156 0.952349
O O4 0.631578 0.991200 0.062109
O O5 0.881084 0.250000 0.250000
O O6 0.910499 0.509218 0.111098
O O7 0.750000 0.000000 0.456662
#
# Coordination Sequence:
#
# PCOD9412677 Si02
#       3
#     8   8   8
#     4  10  24  44  67  99 138 176 232 275 339 414
#     4  11  23  41  70 100 134 179 227 280 336 408
#     4  11  24  43  68  98 140 180 226 288 342 399
#
# _framework density 22.110662000000001
#
# number of rings (size 3 to 8) (size 9 to 14) (size 15 to 20)
#    0.000    1.333    3.333    2.000    0.000   10.667 
#    0.000    0.000    0.000    0.000    0.000    0.000 
#    0.000    0.000    0.000    0.000    0.000    0.000 
#
# Total GULP energy -133977.685477 kJ/mol
# GULP energy per Si atom -5582.403562 kJ/mol
# Density = 2.206034 g / cm^3
# Si number density = 22.110662 Si / 1000 Ang^3
#
#
#
# Elastic Constant Matrix: (Units=GPa)
#
#
# Indices 1 2 3 4 5 6 
#
# 1 54.8081 27.6867 13.8111 0.0000 0.0000 0.0000
# 2 27.6867 94.8042 84.2376 0.0000 0.0000 0.0000
# 3 13.8111 84.2376 171.2410 0.0000 0.0000 0.0000
# 4 0.0000 0.0000 0.0000 3.8469 0.0000 0.0000
# 5 0.0000 0.0000 0.0000 0.0000 29.1164 0.0000
# 6 0.0000 0.0000 0.0000 0.0000 0.0000 14.7294
#
#
#
# Elastic Compliance Matrix: (Units=1/GPa)
#
#
# Indices 1 2 3 4 5 6 
#
# 1 0.021971 -0.008602 0.002459 0.000000 0.000000 0.000000
# 2 -0.008602 0.022106 -0.010181 0.000000 0.000000 0.000000
# 3 0.002459 -0.010181 0.010650 0.000000 0.000000 0.000000
# 4 0.000000 0.000000 0.000000 0.259947 0.000000 0.000000
# 5 0.000000 0.000000 0.000000 0.000000 0.034345 0.000000
# 6 0.000000 0.000000 0.000000 0.000000 0.000000 0.067891
#
#
# Mechanical properties :
#
#
# Convention : Reuss Voigt Hill
#
# Bulk Modulus (GPa) = 45.28901 63.59158 54.44029
# Shear Modulus (GPa) = 10.94293 22.54641 16.74467
#
# Velocity S-wave (km/s) = 2.22708 3.19675 2.75492
# Velocity P-wave (km/s) = 5.20966 6.51526 5.89869
#
# Compressibility (1/GPa) = 0.02208041
#
# Stress axis : x y z
#
# Youngs Moduli (GPa) = 45.51473 45.23626 93.90064
#
# Poissons Ratio (x) = 0.38911 -0.23093
# Poissons Ratio (y) = 0.39150 0.95598
# Poissons Ratio (z) = -0.11194 0.46054
#
# Static dielectric constant tensor:
#      x y z
#    x 1.965170 0.000000 0.000000 
#    y 0.000000 1.782470 0.000000 
#    z 0.000000 0.000000 1.804670 
# 
# From -- ./inp_files/11263.got.cif
#   From: 2010.05.17/outbox.cif.g08.bks.cpg/sg52_6_cif.got.tgz:11263.got - 2010.06.03 12:15:38.
