data_PCOD9412127
_publ_section_title
;
Structure prediction by ZEFSAII (Michael W. Deem and Ramdas Pophale) SiO2 
 PCOD9412127
Probable space group: P N N A
;
_chemical_formula_sum "Si O2"
_cell_formula_units_Z 64
_cell_length_a 19.651121
_cell_length_b 9.917174
_cell_length_c 17.739656
_cell_angle_alpha 90.000000
_cell_angle_beta 90.000000
_cell_angle_gamma 90.000000
_cell_volume 3457.167780
_symmetry_space_group_name_H-M "P N N A"
_symmetry_group_IT_number 52
_symmetry_cell_setting 'orthorhombic'
loop_
_space_group_symop_operation_xyz
x,y,z
1/2-x,-y,z
x,1/2-y,1/2-z
1/2-x,1/2+y,1/2-z
-x,-y,-z
1/2+x,y,-z
-x,1/2+y,1/2+z
1/2+x,1/2-y,1/2+z
loop_
_atom_site_type_symbol
_atom_site_label
_atom_site_fract_x
_atom_site_fract_y
_atom_site_fract_z
Si Si1 0.446299 0.182000 0.832267
Si Si2 0.708109 0.634834 0.312813
Si Si3 0.010349 0.841805 0.518893
Si Si4 0.136096 0.283195 0.070942
Si Si5 0.829584 0.476551 0.823654
Si Si6 0.877801 0.275356 0.587364
Si Si7 0.409330 0.951447 0.173796
Si Si8 0.243108 0.839225 0.977970
O O1 0.451292 0.250000 0.750000
O O2 0.371898 0.112573 0.833631
O O3 0.455531 0.290775 0.901109
O O4 0.510504 0.080981 0.833617
O O5 0.750000 0.500000 0.291583
O O6 0.710832 0.750000 0.250000
O O7 0.740727 0.688869 0.389747
O O8 0.054223 0.782099 0.450730
O O9 0.934672 0.783740 0.526748
O O10 0.000000 0.000000 0.500000
O O11 0.153258 0.428083 0.105418
O O12 0.128151 0.179439 0.140146
O O13 0.194921 0.233375 0.017488
O O14 0.750000 0.500000 0.803316
O O15 0.846041 0.325493 0.850696
O O16 0.880203 0.519225 0.756632
O O17 0.891314 0.419537 0.623914
O O18 0.824227 0.291347 0.520122
O O19 0.250000 0.000000 0.987274
#
# Coordination Sequence:
#
# PCOD9412127 Si02
#       8
#     8   8   8   8   8   8   8   8
#     4  10  22  44  69  91 131 178 212 264 333 402
#     4  10  23  46  70  96 128 168 219 275 335 392
#     4  11  23  42  66  95 128 166 219 269 324 385
#     4  11  23  41  66  93 127 176 218 257 323 390
#     4  12  25  40  62  95 138 176 215 262 317 385
#     4  12  24  40  63  96 131 166 217 272 320 370
#     4  11  25  40  63  94 130 175 217 253 321 390
#     4  11  22  42  66  96 131 165 214 272 318 381
#
# _framework density 18.512263000000001
#
# number of rings (size 3 to 8) (size 9 to 14) (size 15 to 20)
#    0.000    1.000    5.000    2.250    1.750    5.000 
#    6.750    1.250    0.000    0.000    0.000    0.000 
#    0.000    0.000    0.000    0.000    0.000    0.000 
#
# Total GULP energy -357301.364132 kJ/mol
# GULP energy per Si atom -5582.833815 kJ/mol
# Density = 1.847013 g / cm^3
# Si number density = 18.512263 Si / 1000 Ang^3
#
#
#
# Elastic Constant Matrix: (Units=GPa)
#
#
# Indices 1 2 3 4 5 6 
#
# 1 96.0805 20.2307 18.2806 0.0000 0.0000 0.0000
# 2 20.2307 61.3838 9.1466 0.0000 0.0000 0.0000
# 3 18.2806 9.1466 57.8217 0.0000 0.0000 0.0000
# 4 0.0000 0.0000 0.0000 37.1851 0.0000 0.0000
# 5 0.0000 0.0000 0.0000 0.0000 -6.0678 0.0000
# 6 0.0000 0.0000 0.0000 0.0000 0.0000 27.9527
#
#
#
# Elastic Compliance Matrix: (Units=1/GPa)
#
#
# Indices 1 2 3 4 5 6 
#
# 1 0.011725 -0.003392 -0.003170 0.000000 0.000000 0.000000
# 2 -0.003392 0.017665 -0.001722 0.000000 0.000000 0.000000
# 3 -0.003170 -0.001722 0.018569 0.000000 0.000000 0.000000
# 4 0.000000 0.000000 0.000000 0.026893 0.000000 0.000000
# 5 0.000000 0.000000 0.000000 0.000000 -0.164804 0.000000
# 6 0.000000 0.000000 0.000000 0.000000 0.000000 0.035775
#
#
# Mechanical properties :
#
#
# Convention : Reuss Voigt Hill
#
# Bulk Modulus (GPa) = 31.85611 34.51130 33.18371
# Shear Modulus (GPa) = -184.20070 22.98920 -80.60575
#
# Velocity S-wave (km/s) = -9.98589 3.52779 -6.60578
# Velocity P-wave (km/s) = 10.75694 5.93941 6.34174
#
# Compressibility (1/GPa) = 0.03139115
#
# Stress axis : x y z
#
# Youngs Moduli (GPa) = 85.28509 56.60765 53.85228
#
# Poissons Ratio (x) = 0.19201 0.17074
# Poissons Ratio (y) = 0.28929 0.09274
# Poissons Ratio (z) = 0.27039 0.09748
#
# Static dielectric constant tensor:
#      x y z
#    x 1.642210 0.000000 0.000000 
#    y 0.000000 1.626280 0.000000 
#    z 0.000000 0.000000 1.625670 
# 
# From -- ./inp_files/34119.got.cif
#   From: 2010.05.17/outbox.cif.g08.bks.cpg/sg52_18_cif.got.tgz:34119.got - 2010.06.03 12:15:38.
