data_PCOD9412812
_publ_section_title
;
Structure prediction by ZEFSAII (Michael W. Deem and Ramdas Pophale) SiO2 
 PCOD9412812
Probable space group: P N N A
;
_chemical_formula_sum "Si O2"
_cell_formula_units_Z 32
_cell_length_a 8.918326
_cell_length_b 5.277199
_cell_length_c 26.868012
_cell_angle_alpha 90.000000
_cell_angle_beta 90.000000
_cell_angle_gamma 90.000000
_cell_volume 1264.510234
_symmetry_space_group_name_H-M "P N N A"
_symmetry_group_IT_number 52
_symmetry_cell_setting 'orthorhombic'
loop_
_space_group_symop_operation_xyz
x,y,z
1/2-x,-y,z
x,1/2-y,1/2-z
1/2-x,1/2+y,1/2-z
-x,-y,-z
1/2+x,y,-z
-x,1/2+y,1/2+z
1/2+x,1/2-y,1/2+z
loop_
_atom_site_type_symbol
_atom_site_label
_atom_site_fract_x
_atom_site_fract_y
_atom_site_fract_z
Si Si1 0.750000 0.000000 0.877516
Si Si2 0.250000 0.000000 0.509130
Si Si3 0.543891 0.589536 0.834574
Si Si4 0.653792 0.250000 0.250000
Si Si5 0.496711 0.793170 0.432530
Si Si6 0.851078 0.750000 0.750000
O O1 0.693497 0.749749 0.848457
O O2 0.900791 0.935406 0.908619
O O3 0.377007 0.885910 0.473562
O O4 0.159191 0.791433 0.541609
O O5 0.444259 0.772352 0.800256
O O6 0.484275 0.489091 0.886816
O O7 0.555093 0.348909 0.796928
O O8 0.750000 0.500000 0.244613
O O9 0.750000 0.500000 0.741362
#
# Coordination Sequence:
#
# PCOD9412812 Si02
#       6
#     4   4   8   4   8   4
#     4  12  26  48  81 124 162 215 284 354 428 498
#     4  10  24  52  77 112 170 217 288 346 442 498
#     4  12  29  48  79 119 166 215 281 345 419 507
#     4  12  32  54  76 114 170 224 274 336 428 516
#     4  11  25  49  78 119 161 221 280 354 422 511
#     4  12  28  44  78 118 166 212 266 338 416 494
#
# _framework density 25.306242000000001
#
# number of rings (size 3 to 8) (size 9 to 14) (size 15 to 20)
#    0.000    0.500    2.500    3.000   19.250    1.000 
#    0.000    0.000    0.000    0.000    0.000    0.000 
#    0.000    0.000    0.000    0.000    0.000    0.000 
#
# Total GULP energy -178806.611898 kJ/mol
# GULP energy per Si atom -5587.706622 kJ/mol
# Density = 2.524864 g / cm^3
# Si number density = 25.306242 Si / 1000 Ang^3
#
#
#
# Elastic Constant Matrix: (Units=GPa)
#
#
# Indices 1 2 3 4 5 6 
#
# 1 121.2371 39.1470 67.2925 0.0000 0.0000 0.0000
# 2 39.1470 145.5599 45.1209 0.0000 0.0000 0.0000
# 3 67.2925 45.1209 153.2670 0.0000 0.0000 0.0000
# 4 0.0000 0.0000 0.0000 15.3456 0.0000 0.0000
# 5 0.0000 0.0000 0.0000 0.0000 -47.9018 0.0000
# 6 0.0000 0.0000 0.0000 0.0000 0.0000 41.4926
#
#
#
# Elastic Compliance Matrix: (Units=1/GPa)
#
#
# Indices 1 2 3 4 5 6 
#
# 1 0.011253 -0.001645 -0.004456 0.000000 0.000000 0.000000
# 2 -0.001645 0.007800 -0.001574 0.000000 0.000000 0.000000
# 3 -0.004456 -0.001574 0.008945 0.000000 0.000000 0.000000
# 4 0.000000 0.000000 0.000000 0.065165 0.000000 0.000000
# 5 0.000000 0.000000 0.000000 0.000000 -0.020876 0.000000
# 6 0.000000 0.000000 0.000000 0.000000 0.000000 0.024101
#
#
# Mechanical properties :
#
#
# Convention : Reuss Voigt Hill
#
# Bulk Modulus (GPa) = 79.07084 80.35386 79.71235
# Shear Modulus (GPa) = 43.12031 19.68752 31.40391
#
# Velocity S-wave (km/s) = 4.13236 2.79224 3.52654
# Velocity P-wave (km/s) = 7.35404 6.49746 6.93898
#
# Compressibility (1/GPa) = 0.01264689
#
# Stress axis : x y z
#
# Youngs Moduli (GPa) = 88.86542 128.19882 111.79957
#
# Poissons Ratio (x) = 0.21089 0.49822
# Poissons Ratio (y) = 0.14618 0.17599
# Poissons Ratio (z) = 0.39602 0.20180
#
# Static dielectric constant tensor:
#      x y z
#    x 2.095370 0.000000 0.000000 
#    y 0.000000 2.087400 0.000000 
#    z 0.000000 0.000000 2.084760 
# 
# From -- ./inp_files/44084.got.cif
#   From: 2010.05.17/outbox.cif.g08.bks.cpg/sg52_23_cif.got.tgz:44084.got - 2010.06.03 12:15:38.
