data_PCOD9412960
_publ_section_title
;
Structure prediction by ZEFSAII (Michael W. Deem and Ramdas Pophale) SiO2 
 PCOD9412960
Probable space group: P N N A
;
_chemical_formula_sum "Si O2"
_cell_formula_units_Z 48
_cell_length_a 9.266177
_cell_length_b 17.029579
_cell_length_c 18.337136
_cell_angle_alpha 90.000000
_cell_angle_beta 90.000000
_cell_angle_gamma 90.000000
_cell_volume 2893.583434
_symmetry_space_group_name_H-M "P N N A"
_symmetry_group_IT_number 52
_symmetry_cell_setting 'orthorhombic'
loop_
_space_group_symop_operation_xyz
x,y,z
1/2-x,-y,z
x,1/2-y,1/2-z
1/2-x,1/2+y,1/2-z
-x,-y,-z
1/2+x,y,-z
-x,1/2+y,1/2+z
1/2+x,1/2-y,1/2+z
loop_
_atom_site_type_symbol
_atom_site_label
_atom_site_fract_x
_atom_site_fract_y
_atom_site_fract_z
Si Si1 0.149947 0.117220 0.663058
Si Si2 0.842713 0.242562 0.165536
Si Si3 0.079314 0.494722 0.206848
Si Si4 0.041937 0.137340 0.416591
Si Si5 0.777357 0.086273 0.495617
Si Si6 0.660143 0.930881 0.195122
O O1 0.189506 0.210362 0.660408
O O2 0.207053 0.087418 0.585150
O O3 0.252591 0.087561 0.729134
O O4 0.996906 0.076527 0.680904
O O5 0.890019 0.250000 0.250000
O O6 0.839279 0.150205 0.151502
O O7 0.957001 0.288927 0.116065
O O8 0.250000 0.500000 0.217722
O O9 0.049398 0.428993 0.145313
O O10 0.993749 0.463384 0.278052
O O11 0.198574 0.147591 0.451669
O O12 0.943288 0.104288 0.482254
O O13 0.750000 0.000000 0.527130
O O14 0.750000 0.000000 0.157809
#
# Coordination Sequence:
#
# PCOD9412960 Si02
#       6
#     8   8   8   8   8   8
#     4   9  17  30  47  66  94 132 165 191 216 277
#     4   9  16  32  53  63  90 122 174 202 231 275
#     4  11  19  28  44  73 102 130 160 187 241 277
#     4  11  21  28  45  68  98 141 157 192 233 274
#     4  11  18  29  40  65 100 134 168 180 215 287
#     4   9  16  33  56  67  85 125 169 208 237 280
#
# _framework density 16.588428
#
# number of rings (size 3 to 8) (size 9 to 14) (size 15 to 20)
#    0.000    2.000    6.667    1.500    2.333    0.000 
#    0.000    0.000   18.333    0.000    0.000    4.667 
#    0.000    0.000    0.000    0.000    0.000    0.000 
#
# Total GULP energy -267214.168238 kJ/mol
# GULP energy per Si atom -5566.961838 kJ/mol
# Density = 1.655067 g / cm^3
# Si number density = 16.588428 Si / 1000 Ang^3
#
#
#
# Elastic Constant Matrix: (Units=GPa)
#
#
# Indices 1 2 3 4 5 6 
#
# 1 104.1069 43.2858 5.6397 0.0000 0.0000 0.0000
# 2 43.2858 128.8002 16.0627 0.0000 0.0000 0.0000
# 3 5.6397 16.0627 18.7613 0.0000 0.0000 0.0000
# 4 0.0000 0.0000 0.0000 10.4474 0.0000 0.0000
# 5 0.0000 0.0000 0.0000 0.0000 11.9357 0.0000
# 6 0.0000 0.0000 0.0000 0.0000 0.0000 14.4252
#
#
#
# Elastic Compliance Matrix: (Units=1/GPa)
#
#
# Indices 1 2 3 4 5 6 
#
# 1 0.011166 -0.003733 -0.000161 0.000000 0.000000 0.000000
# 2 -0.003733 0.009940 -0.007388 0.000000 0.000000 0.000000
# 3 -0.000161 -0.007388 0.059675 0.000000 0.000000 0.000000
# 4 0.000000 0.000000 0.000000 0.095717 0.000000 0.000000
# 5 0.000000 0.000000 0.000000 0.000000 0.083782 0.000000
# 6 0.000000 0.000000 0.000000 0.000000 0.000000 0.069323
#
#
# Mechanical properties :
#
#
# Convention : Reuss Voigt Hill
#
# Bulk Modulus (GPa) = 17.17685 42.40496 29.79090
# Shear Modulus (GPa) = 13.45634 19.80702 16.63168
#
# Velocity S-wave (km/s) = 2.85123 3.45922 3.16983
# Velocity P-wave (km/s) = 4.60614 6.44774 5.60312
#
# Compressibility (1/GPa) = 0.05821790
#
# Stress axis : x y z
#
# Youngs Moduli (GPa) = 89.55642 100.60656 16.75747
#
# Poissons Ratio (x) = 0.37552 0.00270
# Poissons Ratio (y) = 0.33427 0.12380
# Poissons Ratio (z) = 0.01441 0.74328
#
# Static dielectric constant tensor:
#      x y z
#    x 1.593480 0.000000 0.000000 
#    y 0.000000 1.613620 0.000000 
#    z 0.000000 0.000000 1.554450 
# 
# From -- ./inp_files/36101.got.cif
#   From: 2010.05.17/outbox.cif.g08.bks.cpg/sg52_19_cif.got.tgz:36101.got - 2010.06.03 12:15:38.
