data_PCOD9412667
_publ_section_title
;
Structure prediction by ZEFSAII (Michael W. Deem and Ramdas Pophale) SiO2 
 PCOD9412667
Probable space group: P N N A
;
_chemical_formula_sum "Si O2"
_cell_formula_units_Z 32
_cell_length_a 5.115003
_cell_length_b 9.620285
_cell_length_c 31.102463
_cell_angle_alpha 90.000000
_cell_angle_beta 90.000000
_cell_angle_gamma 90.000000
_cell_volume 1530.483363
_symmetry_space_group_name_H-M "P N N A"
_symmetry_group_IT_number 52
_symmetry_cell_setting 'orthorhombic'
loop_
_space_group_symop_operation_xyz
x,y,z
1/2-x,-y,z
x,1/2-y,1/2-z
1/2-x,1/2+y,1/2-z
-x,-y,-z
1/2+x,y,-z
-x,1/2+y,1/2+z
1/2+x,1/2-y,1/2+z
loop_
_atom_site_type_symbol
_atom_site_label
_atom_site_fract_x
_atom_site_fract_y
_atom_site_fract_z
Si Si1 0.381020 0.636175 0.281985
Si Si2 0.176492 0.712859 0.894051
Si Si3 0.750000 0.000000 0.144845
Si Si4 0.250000 0.500000 0.969629
Si Si5 0.340291 0.349282 0.157214
O O1 0.250000 0.500000 0.261490
O O2 0.513275 0.750000 0.250000
O O3 0.548517 0.569174 0.320875
O O4 0.170673 0.734152 0.305824
O O5 0.225897 0.634809 0.938694
O O6 0.370873 0.638965 0.860703
O O7 0.875161 0.696236 0.878997
O O8 0.281017 0.870300 0.887797
O O9 0.500000 0.500000 0.000000
O O10 0.250000 0.500000 0.171179
#
# Coordination Sequence:
#
# PCOD9412667 Si02
#       5
#     8   8   4   4   8
#     4  11  23  40  60  92 132 170 225 284 318 364
#     4  11  22  41  68  91 134 168 217 256 317 416
#     4  10  24  44  63  92 130 190 222 258 329 392
#     4  12  24  42  67 106 130 158 208 278 339 386
#     4  11  20  39  63  94 123 179 219 258 320 380
#
# _framework density 20.908425000000001
#
# number of rings (size 3 to 8) (size 9 to 14) (size 15 to 20)
#    0.000    1.000    5.000    2.250    0.000    1.000 
#    9.000    1.250    0.000    0.000    0.000    0.000 
#    0.000    0.000    0.000    0.000    0.000    0.000 
#
# Total GULP energy -178243.519307 kJ/mol
# GULP energy per Si atom -5570.109978 kJ/mol
# Density = 2.086084 g / cm^3
# Si number density = 20.908425 Si / 1000 Ang^3
#
#
#
# Elastic Constant Matrix: (Units=GPa)
#
#
# Indices 1 2 3 4 5 6 
#
# 1 57.0590 23.8872 9.1337 0.0000 0.0000 0.0000
# 2 23.8872 216.5071 67.5491 0.0000 0.0000 0.0000
# 3 9.1337 67.5491 99.0597 0.0000 0.0000 0.0000
# 4 0.0000 0.0000 0.0000 18.9637 0.0000 0.0000
# 5 0.0000 0.0000 0.0000 0.0000 55.2885 0.0000
# 6 0.0000 0.0000 0.0000 0.0000 0.0000 28.4932
#
#
#
# Elastic Compliance Matrix: (Units=1/GPa)
#
#
# Indices 1 2 3 4 5 6 
#
# 1 0.018387 -0.001905 -0.000396 0.000000 0.000000 0.000000
# 2 -0.001905 0.006064 -0.003960 0.000000 0.000000 0.000000
# 3 -0.000396 -0.003960 0.012832 0.000000 0.000000 0.000000
# 4 0.000000 0.000000 0.000000 0.052732 0.000000 0.000000
# 5 0.000000 0.000000 0.000000 0.000000 0.018087 0.000000
# 6 0.000000 0.000000 0.000000 0.000000 0.000000 0.035096
#
#
# Mechanical properties :
#
#
# Convention : Reuss Voigt Hill
#
# Bulk Modulus (GPa) = 40.38662 63.75178 52.06920
# Shear Modulus (GPa) = 30.49276 38.68612 34.58944
#
# Velocity S-wave (km/s) = 3.82304 4.30614 4.07176
# Velocity P-wave (km/s) = 6.23261 7.43511 6.86026
#
# Compressibility (1/GPa) = 0.02476067
#
# Stress axis : x y z
#
# Youngs Moduli (GPa) = 54.38733 164.89816 77.93280
#
# Poissons Ratio (x) = 0.31412 0.03089
# Poissons Ratio (y) = 0.10360 0.30859
# Poissons Ratio (z) = 0.02156 0.65294
#
# Static dielectric constant tensor:
#      x y z
#    x 1.784510 0.000000 0.000000 
#    y 0.000000 1.808550 0.000000 
#    z 0.000000 0.000000 1.775970 
# 
# From -- ./inp_files/43494.got.cif
#   From: 2010.05.17/outbox.cif.g08.bks.cpg/sg52_22_cif.got.tgz:43494.got - 2010.06.03 12:15:38.
