data_PCOD9412107
_publ_section_title
;
Structure prediction by ZEFSAII (Michael W. Deem and Ramdas Pophale) SiO2 
 PCOD9412107
Probable space group: P N N A
;
_chemical_formula_sum "Si O2"
_cell_formula_units_Z 48
_cell_length_a 19.223879
_cell_length_b 17.007393
_cell_length_c 5.556541
_cell_angle_alpha 90.000000
_cell_angle_beta 90.000000
_cell_angle_gamma 90.000000
_cell_volume 1816.700329
_symmetry_space_group_name_H-M "P N N A"
_symmetry_group_IT_number 52
_symmetry_cell_setting 'orthorhombic'
loop_
_space_group_symop_operation_xyz
x,y,z
1/2-x,-y,z
x,1/2-y,1/2-z
1/2-x,1/2+y,1/2-z
-x,-y,-z
1/2+x,y,-z
-x,1/2+y,1/2+z
1/2+x,1/2-y,1/2+z
loop_
_atom_site_type_symbol
_atom_site_label
_atom_site_fract_x
_atom_site_fract_y
_atom_site_fract_z
Si Si1 0.057907 0.158879 0.822300
Si Si2 0.782358 0.335779 0.861306
Si Si3 0.586816 0.612718 0.547742
Si Si4 0.387604 0.501530 0.884925
Si Si5 0.351362 0.585757 0.296459
Si Si6 0.369142 0.250000 0.750000
Si Si7 0.750000 0.000000 0.173855
O O1 0.063127 0.250000 0.750000
O O2 0.099789 0.093246 0.672488
O O3 0.980840 0.122654 0.789437
O O4 0.092949 0.144377 0.085346
O O5 0.766569 0.250000 0.750000
O O6 0.707694 0.376660 0.872777
O O7 0.838180 0.377584 0.681376
O O8 0.821235 0.309957 0.103503
O O9 0.576880 0.549815 0.327372
O O10 0.583604 0.698256 0.418769
O O11 0.393889 0.512628 0.175066
O O12 0.309191 0.469336 0.852769
O O13 0.298762 0.552257 0.502342
#
# Coordination Sequence:
#
# PCOD9412107 Si02
#       7
#     8   8   8   8   8   4   4
#     4  11  27  47  71 104 149 200 252 315 381 453
#     4  10  23  43  69 104 145 191 249 311 382 462
#     4  11  24  49  72 103 147 198 252 305 378 466
#     4  11  25  42  75 105 144 194 248 311 383 459
#     4  11  25  42  71 108 148 194 252 319 392 458
#     4  10  24  38  74 102 136 196 250 310 376 458
#     4  10  22  44  66 106 148 190 234 314 382 454
#
# _framework density 26.421530000000001
#
# number of rings (size 3 to 8) (size 9 to 14) (size 15 to 20)
#    0.000    1.333    1.667    2.500    7.000    4.667 
#    1.500    0.000    0.000    0.000    0.000    0.000 
#    0.000    0.000    0.000    0.000    0.000    0.000 
#
# Total GULP energy -267616.869416 kJ/mol
# GULP energy per Si atom -5575.351446 kJ/mol
# Density = 2.636139 g / cm^3
# Si number density = 26.421530 Si / 1000 Ang^3
#
#
#
# Elastic Constant Matrix: (Units=GPa)
#
#
# Indices 1 2 3 4 5 6 
#
# 1 125.3357 50.9472 24.2520 0.0000 0.0000 0.0000
# 2 50.9472 171.1573 18.4298 0.0000 0.0000 0.0000
# 3 24.2520 18.4298 70.4400 0.0000 0.0000 0.0000
# 4 0.0000 0.0000 0.0000 42.2392 0.0000 0.0000
# 5 0.0000 0.0000 0.0000 0.0000 -46.9158 0.0000
# 6 0.0000 0.0000 0.0000 0.0000 0.0000 38.1011
#
#
#
# Elastic Compliance Matrix: (Units=1/GPa)
#
#
# Indices 1 2 3 4 5 6 
#
# 1 0.009521 -0.002553 -0.002610 0.000000 0.000000 0.000000
# 2 -0.002553 0.006697 -0.000873 0.000000 0.000000 0.000000
# 3 -0.002610 -0.000873 0.015324 0.000000 0.000000 0.000000
# 4 0.000000 0.000000 0.000000 0.023675 0.000000 0.000000
# 5 0.000000 0.000000 0.000000 0.000000 -0.021315 0.000000
# 6 0.000000 0.000000 0.000000 0.000000 0.000000 0.026246
#
#
# Mechanical properties :
#
#
# Convention : Reuss Voigt Hill
#
# Bulk Modulus (GPa) = 51.36403 61.57676 56.47040
# Shear Modulus (GPa) = 63.52455 24.90517 44.21486
#
# Velocity S-wave (km/s) = 4.90866 3.07352 4.09521
# Velocity P-wave (km/s) = 7.18394 5.99596 6.61666
#
# Compressibility (1/GPa) = 0.01946888
#
# Stress axis : x y z
#
# Youngs Moduli (GPa) = 105.02618 149.33045 65.25894
#
# Poissons Ratio (x) = 0.38126 0.17034
# Poissons Ratio (y) = 0.26814 0.05697
# Poissons Ratio (z) = 0.27414 0.13037
#
# Static dielectric constant tensor:
#      x y z
#    x 2.053600 0.000000 0.000000 
#    y 0.000000 2.241140 0.000000 
#    z 0.000000 0.000000 2.465260 
# 
# From -- ./inp_files/3497.got.cif
#   From: 2010.05.17/outbox.cif.g08.bks.cpg/sg52_2_cif.got.tgz:3497.got - 2010.06.03 12:15:38.
