data_PCOD9412681
_publ_section_title
;
Structure prediction by ZEFSAII (Michael W. Deem and Ramdas Pophale) SiO2 
 PCOD9412681
Probable space group: P N N A
;
_chemical_formula_sum "Si O2"
_cell_formula_units_Z 28
_cell_length_a 23.395504
_cell_length_b 9.734772
_cell_length_c 5.046327
_cell_angle_alpha 90.000000
_cell_angle_beta 90.000000
_cell_angle_gamma 90.000000
_cell_volume 1149.300456
_symmetry_space_group_name_H-M "P N N A"
_symmetry_group_IT_number 52
_symmetry_cell_setting 'orthorhombic'
loop_
_space_group_symop_operation_xyz
x,y,z
1/2-x,-y,z
x,1/2-y,1/2-z
1/2-x,1/2+y,1/2-z
-x,-y,-z
1/2+x,y,-z
-x,1/2+y,1/2+z
1/2+x,1/2-y,1/2+z
loop_
_atom_site_type_symbol
_atom_site_label
_atom_site_fract_x
_atom_site_fract_y
_atom_site_fract_z
Si Si1 0.967021 0.386532 0.667401
Si Si2 0.384402 0.898053 0.322241
Si Si3 0.618925 0.750000 0.250000
Si Si4 0.682792 0.482293 0.291157
O O1 0.002387 0.250000 0.750000
O O2 0.933134 0.485816 0.873410
O O3 0.920791 0.310079 0.480603
O O4 0.000000 0.500000 0.500000
O O5 0.410089 0.750000 0.250000
O O6 0.341037 0.880777 0.566140
O O7 0.348085 0.948830 0.067983
O O8 0.660216 0.626514 0.174220
O O9 0.750000 0.500000 0.324221
#
# Coordination Sequence:
#
# PCOD9412681 Si02
#       4
#     8   8   4   8
#     4  11  25  46  72 102 141 191 236 302 364 427
#     4  11  25  45  69 106 143 179 243 292 350 435
#     4  10  24  44  68 102 142 180 246 288 348 434
#     4  11  24  44  72 102 144 188 233 293 357 422
#
# _framework density 24.362646000000002
#
# number of rings (size 3 to 8) (size 9 to 14) (size 15 to 20)
#    0.000    1.143    2.857    1.714    6.000    5.714 
#    0.000    0.000    0.000    0.000    0.000    0.000 
#    0.000    0.000    0.000    0.000    0.000    0.000 
#
# Total GULP energy -156486.385765 kJ/mol
# GULP energy per Si atom -5588.799492 kJ/mol
# Density = 2.430720 g / cm^3
# Si number density = 24.362646 Si / 1000 Ang^3
#
#
#
# Elastic Constant Matrix: (Units=GPa)
#
#
# Indices 1 2 3 4 5 6 
#
# 1 70.4811 37.1320 15.0975 0.0000 0.0000 0.0000
# 2 37.1320 196.4930 10.2836 0.0000 0.0000 0.0000
# 3 15.0975 10.2836 97.6683 0.0000 0.0000 0.0000
# 4 0.0000 0.0000 0.0000 38.0052 0.0000 0.0000
# 5 0.0000 0.0000 0.0000 0.0000 14.2711 0.0000
# 6 0.0000 0.0000 0.0000 0.0000 0.0000 27.6788
#
#
#
# Elastic Compliance Matrix: (Units=1/GPa)
#
#
# Indices 1 2 3 4 5 6 
#
# 1 0.016212 -0.002949 -0.002196 0.000000 0.000000 0.000000
# 2 -0.002949 0.005654 -0.000139 0.000000 0.000000 0.000000
# 3 -0.002196 -0.000139 0.010593 0.000000 0.000000 0.000000
# 4 0.000000 0.000000 0.000000 0.026312 0.000000 0.000000
# 5 0.000000 0.000000 0.000000 0.000000 0.070072 0.000000
# 6 0.000000 0.000000 0.000000 0.000000 0.000000 0.036129
#
#
# Mechanical properties :
#
#
# Convention : Reuss Voigt Hill
#
# Bulk Modulus (GPa) = 45.68080 54.40761 50.04420
# Shear Modulus (GPa) = 27.34695 36.13298 31.73997
#
# Velocity S-wave (km/s) = 3.35400 3.85532 3.61337
# Velocity P-wave (km/s) = 5.81293 6.49607 6.16397
#
# Compressibility (1/GPa) = 0.02189104
#
# Stress axis : x y z
#
# Youngs Moduli (GPa) = 61.68274 176.87306 94.40363
#
# Poissons Ratio (x) = 0.52155 0.20727
# Poissons Ratio (y) = 0.18189 0.01317
# Poissons Ratio (z) = 0.13543 0.02467
#
# Static dielectric constant tensor:
#      x y z
#    x 1.930650 0.000000 0.000000 
#    y 0.000000 2.072060 0.000000 
#    z 0.000000 0.000000 2.083450 
# 
# From -- ./inp_files/3761.got.cif
#   From: 2010.05.17/outbox.cif.g08.bks.cpg/sg52_2_cif.got.tgz:3761.got - 2010.06.03 12:15:38.
