data_PCOD9412664
_publ_section_title
;
Structure prediction by ZEFSAII (Michael W. Deem and Ramdas Pophale) SiO2 
 PCOD9412664
Probable space group: P N N A
;
_chemical_formula_sum "Si O2"
_cell_formula_units_Z 28
_cell_length_a 21.961380
_cell_length_b 9.980374
_cell_length_c 4.949870
_cell_angle_alpha 90.000000
_cell_angle_beta 90.000000
_cell_angle_gamma 90.000000
_cell_volume 1084.926297
_symmetry_space_group_name_H-M "P N N A"
_symmetry_group_IT_number 52
_symmetry_cell_setting 'orthorhombic'
loop_
_space_group_symop_operation_xyz
x,y,z
1/2-x,-y,z
x,1/2-y,1/2-z
1/2-x,1/2+y,1/2-z
-x,-y,-z
1/2+x,y,-z
-x,1/2+y,1/2+z
1/2+x,1/2-y,1/2+z
loop_
_atom_site_type_symbol
_atom_site_label
_atom_site_fract_x
_atom_site_fract_y
_atom_site_fract_z
Si Si1 0.541582 0.604115 0.326903
Si Si2 0.267934 0.133492 0.592973
Si Si3 0.382773 0.036365 0.292861
Si Si4 0.839633 0.750000 0.750000
O O1 0.514923 0.750000 0.250000
O O2 0.500000 0.500000 0.500000
O O3 0.593353 0.626955 0.551165
O O4 0.572968 0.543892 0.056087
O O5 0.300543 0.250000 0.750000
O O6 0.314868 0.080671 0.371793
O O7 0.207115 0.201790 0.479799
O O8 0.250000 0.000000 0.756162
O O9 0.378254 0.882463 0.190285
#
# Coordination Sequence:
#
# PCOD9412664 Si02
#       4
#     8   8   8   4
#     4  12  29  54  82 112 149 204 268 337 401 462
#     4  10  24  43  71 113 159 205 256 304 379 470
#     4  11  27  49  80 112 160 203 259 325 391 471
#     4  10  26  44  74 116 156 212 246 308 388 480
#
# _framework density 25.808205000000001
#
# number of rings (size 3 to 8) (size 9 to 14) (size 15 to 20)
#    0.000    1.143    0.000    2.571   18.000    1.143 
#    0.000    0.000    0.000    0.000    0.000    0.000 
#    0.000    0.000    0.000    0.000    0.000    0.000 
#
# Total GULP energy -156689.388573 kJ/mol
# GULP energy per Si atom -5596.049592 kJ/mol
# Density = 2.574946 g / cm^3
# Si number density = 25.808205 Si / 1000 Ang^3
#
#
#
# Elastic Constant Matrix: (Units=GPa)
#
#
# Indices 1 2 3 4 5 6 
#
# 1 104.0370 54.1436 37.4736 0.0000 0.0000 0.0000
# 2 54.1436 217.8882 64.8108 0.0000 0.0000 0.0000
# 3 37.4736 64.8108 121.0949 0.0000 0.0000 0.0000
# 4 0.0000 0.0000 0.0000 41.1333 0.0000 0.0000
# 5 0.0000 0.0000 0.0000 0.0000 34.5668 0.0000
# 6 0.0000 0.0000 0.0000 0.0000 0.0000 46.0686
#
#
#
# Elastic Compliance Matrix: (Units=1/GPa)
#
#
# Indices 1 2 3 4 5 6 
#
# 1 0.011615 -0.002161 -0.002438 0.000000 0.000000 0.000000
# 2 -0.002161 0.005861 -0.002468 0.000000 0.000000 0.000000
# 3 -0.002438 -0.002468 0.010333 0.000000 0.000000 0.000000
# 4 0.000000 0.000000 0.000000 0.024311 0.000000 0.000000
# 5 0.000000 0.000000 0.000000 0.000000 0.028929 0.000000
# 6 0.000000 0.000000 0.000000 0.000000 0.000000 0.021707
#
#
# Mechanical properties :
#
#
# Convention : Reuss Voigt Hill
#
# Bulk Modulus (GPa) = 73.12466 83.98623 78.55544
# Shear Modulus (GPa) = 41.17009 43.45988 42.31499
#
# Velocity S-wave (km/s) = 3.99837 4.10806 4.05358
# Velocity P-wave (km/s) = 7.05063 7.42392 7.23968
#
# Compressibility (1/GPa) = 0.01367528
#
# Stress axis : x y z
#
# Youngs Moduli (GPa) = 86.09807 170.63119 96.77605
#
# Poissons Ratio (x) = 0.36875 0.23590
# Poissons Ratio (y) = 0.18607 0.23883
# Poissons Ratio (z) = 0.20987 0.42110
#
# Static dielectric constant tensor:
#      x y z
#    x 2.099570 0.000000 0.000000 
#    y 0.000000 2.135090 0.000000 
#    z 0.000000 0.000000 2.093270 
# 
# From -- ./inp_files/5483.got.cif
#   From: 2010.05.17/outbox.cif.g08.bks.cpg/sg52_3_cif.got.tgz:5483.got - 2010.06.03 12:15:38.
