data_PCOD9412025
_publ_section_title
;
Structure prediction by ZEFSAII (Michael W. Deem and Ramdas Pophale) SiO2 
 PCOD9412025
Probable space group: P N N A
;
_chemical_formula_sum "Si O2"
_cell_formula_units_Z 28
_cell_length_a 13.254656
_cell_length_b 5.166716
_cell_length_c 18.616443
_cell_angle_alpha 90.000000
_cell_angle_beta 90.000000
_cell_angle_gamma 90.000000
_cell_volume 1274.910671
_symmetry_space_group_name_H-M "P N N A"
_symmetry_group_IT_number 52
_symmetry_cell_setting 'orthorhombic'
loop_
_space_group_symop_operation_xyz
x,y,z
1/2-x,-y,z
x,1/2-y,1/2-z
1/2-x,1/2+y,1/2-z
-x,-y,-z
1/2+x,y,-z
-x,1/2+y,1/2+z
1/2+x,1/2-y,1/2+z
loop_
_atom_site_type_symbol
_atom_site_label
_atom_site_fract_x
_atom_site_fract_y
_atom_site_fract_z
Si Si1 0.971361 0.922216 0.647930
Si Si2 0.093931 0.250000 0.750000
Si Si3 0.750000 0.000000 0.612433
Si Si4 0.081351 0.096881 0.898024
Si Si5 0.750000 0.500000 0.514740
O O1 0.851758 0.936939 0.655160
O O2 0.012999 0.652088 0.618749
O O3 0.023396 0.018002 0.721508
O O4 0.011170 0.150296 0.594597
O O5 0.144408 0.340945 0.676084
O O6 0.731283 0.750431 0.562971
O O7 0.154607 0.053647 0.963721
#
# Coordination Sequence:
#
# PCOD9412025 Si02
#       5
#     8   4   4   8   4
#     4  10  22  43  64  93 125 165 205 267 308 369
#     4   8  22  44  62  92 124 164 214 254 330 348
#     4  12  26  42  64  98 126 168 214 246 320 378
#     4  10  22  43  64  93 125 165 205 267 308 369
#     4  12  26  42  64  98 126 168 214 246 320 378
#
# _framework density 21.962322
#
# number of rings (size 3 to 8) (size 9 to 14) (size 15 to 20)
#    1.714    0.000    0.000    4.286    0.000    6.857 
#   10.286    0.000    0.000    0.000    0.000    0.000 
#    0.000    0.000    0.000    0.000    0.000    0.000 
#
# Total GULP energy -156182.622484 kJ/mol
# GULP energy per Si atom -5577.950803 kJ/mol
# Density = 2.191234 g / cm^3
# Si number density = 21.962322 Si / 1000 Ang^3
#
#
#
# Elastic Constant Matrix: (Units=GPa)
#
#
# Indices 1 2 3 4 5 6 
#
# 1 41.4110 -3.5397 -15.7154 0.0000 0.0000 0.0000
# 2 -3.5397 135.6843 3.0880 0.0000 0.0000 0.0000
# 3 -15.7154 3.0880 39.6420 0.0000 0.0000 0.0000
# 4 0.0000 0.0000 0.0000 18.5231 0.0000 0.0000
# 5 0.0000 0.0000 0.0000 0.0000 -0.5196 0.0000
# 6 0.0000 0.0000 0.0000 0.0000 0.0000 23.2456
#
#
#
# Elastic Compliance Matrix: (Units=1/GPa)
#
#
# Indices 1 2 3 4 5 6 
#
# 1 0.028456 0.000486 0.011243 0.000000 0.000000 0.000000
# 2 0.000486 0.007391 -0.000383 0.000000 0.000000 0.000000
# 3 0.011243 -0.000383 0.029713 0.000000 0.000000 0.000000
# 4 0.000000 0.000000 0.000000 0.053987 0.000000 0.000000
# 5 0.000000 0.000000 0.000000 0.000000 -1.924521 0.000000
# 6 0.000000 0.000000 0.000000 0.000000 0.000000 0.043019
#
#
# Mechanical properties :
#
#
# Convention : Reuss Voigt Hill
#
# Bulk Modulus (GPa) = 11.33091 20.48925 15.91008
# Shear Modulus (GPa) = -2.84863 23.77677 10.46407
#
# Velocity S-wave (km/s) = -1.14012 3.29388 2.18515
# Velocity P-wave (km/s) = 1.85399 4.88014 3.69141
#
# Compressibility (1/GPa) = 0.08825420
#
# Stress axis : x y z
#
# Youngs Moduli (GPa) = 35.14138 135.29137 33.65554
#
# Poissons Ratio (x) = -0.06582 -0.37840
# Poissons Ratio (y) = -0.01710 0.01289
# Poissons Ratio (z) = -0.39510 0.05181
#
# Static dielectric constant tensor:
#      x y z
#    x 1.796700 0.000000 0.000000 
#    y 0.000000 1.786710 0.000000 
#    z 0.000000 0.000000 1.832530 
# 
# From -- ./inp_files/32558.got.cif
#   From: 2010.05.17/outbox.cif.g08.bks.cpg/sg52_17_cif.got.tgz:32558.got - 2010.06.03 12:15:38.
