data_PCOD9412675
_publ_section_title
;
Structure prediction by ZEFSAII (Michael W. Deem and Ramdas Pophale) SiO2 
 PCOD9412675
Probable space group: P N N A
;
_chemical_formula_sum "Si O2"
_cell_formula_units_Z 48
_cell_length_a 9.692099
_cell_length_b 7.928455
_cell_length_c 27.331601
_cell_angle_alpha 90.000000
_cell_angle_beta 90.000000
_cell_angle_gamma 90.000000
_cell_volume 2100.252350
_symmetry_space_group_name_H-M "P N N A"
_symmetry_group_IT_number 52
_symmetry_cell_setting 'orthorhombic'
loop_
_space_group_symop_operation_xyz
x,y,z
1/2-x,-y,z
x,1/2-y,1/2-z
1/2-x,1/2+y,1/2-z
-x,-y,-z
1/2+x,y,-z
-x,1/2+y,1/2+z
1/2+x,1/2-y,1/2+z
loop_
_atom_site_type_symbol
_atom_site_label
_atom_site_fract_x
_atom_site_fract_y
_atom_site_fract_z
Si Si1 0.925954 0.845829 0.847347
Si Si2 0.468207 0.188919 0.018921
Si Si3 0.522948 0.228057 0.131007
Si Si4 0.316536 0.176372 0.296681
Si Si5 0.281643 0.300704 0.693486
Si Si6 0.681411 0.182550 0.552144
O O1 0.806353 0.805366 0.808965
O O2 0.866734 0.771635 0.897910
O O3 0.067602 0.764203 0.828226
O O4 0.964481 0.041863 0.854497
O O5 0.528923 0.224634 0.072892
O O6 0.304385 0.214317 0.025320
O O7 0.545979 0.312738 0.981661
O O8 0.500000 0.000000 0.000000
O O9 0.410153 0.347711 0.155670
O O10 0.665123 0.271352 0.157617
O O11 0.397981 0.250000 0.250000
O O12 0.250000 0.000000 0.284601
O O13 0.250000 0.500000 0.691710
O O14 0.272276 0.250000 0.750000
O O15 0.750000 0.000000 0.559794
#
# Coordination Sequence:
#
# PCOD9412675 Si02
#       6
#     8   8   8   8   8   8
#     4  11  23  43  72  99 140 185 238 299 364 438
#     4  12  26  45  77 105 144 195 251 303 377 449
#     4  11  24  44  70 104 140 187 245 302 360 444
#     4  12  25  43  70 104 142 189 240 301 367 437
#     4  10  24  44  67 101 142 183 237 293 357 434
#     4  12  27  48  70 108 149 186 244 309 376 449
#
# _framework density 22.854395
#
# number of rings (size 3 to 8) (size 9 to 14) (size 15 to 20)
#    0.000    0.667    3.333    4.000    2.333    5.333 
#    0.000    0.000    0.000    0.000    0.000    0.000 
#    0.000    0.000    0.000    0.000    0.000    0.000 
#
# Total GULP energy -268643.508222 kJ/mol
# GULP energy per Si atom -5596.739755 kJ/mol
# Density = 2.280238 g / cm^3
# Si number density = 22.854395 Si / 1000 Ang^3
#
#
#
# Elastic Constant Matrix: (Units=GPa)
#
#
# Indices 1 2 3 4 5 6 
#
# 1 132.8987 10.5476 48.8283 0.0000 0.0000 0.0000
# 2 10.5476 58.0777 15.2933 0.0000 0.0000 0.0000
# 3 48.8283 15.2933 144.3561 0.0000 0.0000 0.0000
# 4 0.0000 0.0000 0.0000 34.3866 0.0000 0.0000
# 5 0.0000 0.0000 0.0000 0.0000 43.1423 0.0000
# 6 0.0000 0.0000 0.0000 0.0000 0.0000 23.4200
#
#
#
# Elastic Compliance Matrix: (Units=1/GPa)
#
#
# Indices 1 2 3 4 5 6 
#
# 1 0.008630 -0.000822 -0.002832 0.000000 0.000000 0.000000
# 2 -0.000822 0.017791 -0.001607 0.000000 0.000000 0.000000
# 3 -0.002832 -0.001607 0.008056 0.000000 0.000000 0.000000
# 4 0.000000 0.000000 0.000000 0.029081 0.000000 0.000000
# 5 0.000000 0.000000 0.000000 0.000000 0.023179 0.000000
# 6 0.000000 0.000000 0.000000 0.000000 0.000000 0.042699
#
#
# Mechanical properties :
#
#
# Convention : Reuss Voigt Hill
#
# Bulk Modulus (GPa) = 41.74448 53.85229 47.79839
# Shear Modulus (GPa) = 33.79713 37.56732 35.68223
#
# Velocity S-wave (km/s) = 3.84969 4.05874 3.95560
# Velocity P-wave (km/s) = 6.16970 6.75121 6.46700
#
# Compressibility (1/GPa) = 0.02395526
#
# Stress axis : x y z
#
# Youngs Moduli (GPa) = 115.87091 56.20932 124.13851
#
# Poissons Ratio (x) = 0.04618 0.35158
# Poissons Ratio (y) = 0.09520 0.19947
# Poissons Ratio (z) = 0.32816 0.09032
#
# Static dielectric constant tensor:
#      x y z
#    x 1.862110 0.000000 0.000000 
#    y 0.000000 1.900840 0.000000 
#    z 0.000000 0.000000 1.838530 
# 
# From -- ./inp_files/44349.got.cif
#   From: 2010.05.17/outbox.cif.g08.bks.cpg/sg52_23_cif.got.tgz:44349.got - 2010.06.03 12:15:38.
