data_PCOD9412985
_publ_section_title
;
Structure prediction by ZEFSAII (Michael W. Deem and Ramdas Pophale) SiO2 
 PCOD9412985
Probable space group: P N N A
;
_chemical_formula_sum "Si O2"
_cell_formula_units_Z 64
_cell_length_a 13.652557
_cell_length_b 17.488962
_cell_length_c 13.709948
_cell_angle_alpha 90.000000
_cell_angle_beta 90.000000
_cell_angle_gamma 90.000000
_cell_volume 3273.511267
_symmetry_space_group_name_H-M "P N N A"
_symmetry_group_IT_number 52
_symmetry_cell_setting 'orthorhombic'
loop_
_space_group_symop_operation_xyz
x,y,z
1/2-x,-y,z
x,1/2-y,1/2-z
1/2-x,1/2+y,1/2-z
-x,-y,-z
1/2+x,y,-z
-x,1/2+y,1/2+z
1/2+x,1/2-y,1/2+z
loop_
_atom_site_type_symbol
_atom_site_label
_atom_site_fract_x
_atom_site_fract_y
_atom_site_fract_z
Si Si1 0.436768 0.618973 0.371623
Si Si2 0.323314 0.831778 0.303833
Si Si3 0.908637 0.167683 0.997356
Si Si4 0.028788 0.046440 0.866453
Si Si5 0.395130 0.296641 0.157457
Si Si6 0.516237 0.442908 0.134940
Si Si7 0.350282 0.951172 0.459663
Si Si8 0.718528 0.419497 0.485123
O O1 0.394869 0.617872 0.263556
O O2 0.514885 0.679433 0.413857
O O3 0.485256 0.536520 0.393882
O O4 0.340214 0.629324 0.436395
O O5 0.343269 0.750000 0.250000
O O6 0.204769 0.835053 0.301249
O O7 0.342633 0.866433 0.411592
O O8 0.876230 0.239424 0.932447
O O9 0.962564 0.110652 0.919877
O O10 0.814753 0.125905 0.042610
O O11 0.028298 0.050386 0.750413
O O12 0.139572 0.058903 0.903424
O O13 0.436698 0.250000 0.250000
O O14 0.468359 0.360133 0.119444
O O15 0.437398 0.503778 0.095382
O O16 0.614733 0.448913 0.071655
O O17 0.250000 0.000000 0.447405
O O18 0.750000 0.500000 0.532265
#
# Coordination Sequence:
#
# PCOD9412985 Si02
#       8
#     8   8   8   8   8   8   8   8
#     4  11  22  36  62  95 125 167 209 269 326 386
#     4  11  24  40  63  99 124 160 217 272 329 378
#     4  11  22  39  60  93 137 168 207 264 331 394
#     4  11  21  38  61  95 128 170 216 260 325 390
#     4  11  22  40  65  93 127 170 218 268 323 382
#     4  11  24  42  67  92 122 174 219 268 314 381
#     4  11  24  45  67  93 125 167 225 268 317 377
#     4  11  19  33  58  92 130 162 206 254 324 399
#
# _framework density 19.550871000000001
#
# number of rings (size 3 to 8) (size 9 to 14) (size 15 to 20)
#    0.000    1.000    6.250    2.250    1.750    1.000 
#    0.000    0.000    0.000    0.000    0.000    0.000 
#    0.000    0.000    0.000    0.000    0.000    0.000 
#
# Total GULP energy -356562.328988 kJ/mol
# GULP energy per Si atom -5571.286390 kJ/mol
# Density = 1.950637 g / cm^3
# Si number density = 19.550871 Si / 1000 Ang^3
#
#
#
# Elastic Constant Matrix: (Units=GPa)
#
#
# Indices 1 2 3 4 5 6 
#
# 1 101.2171 13.1694 30.1612 0.0000 0.0000 0.0000
# 2 13.1694 53.3961 5.3045 0.0000 0.0000 0.0000
# 3 30.1612 5.3045 89.1430 0.0000 0.0000 0.0000
# 4 0.0000 0.0000 0.0000 19.3739 0.0000 0.0000
# 5 0.0000 0.0000 0.0000 0.0000 22.2833 0.0000
# 6 0.0000 0.0000 0.0000 0.0000 0.0000 15.5234
#
#
#
# Elastic Compliance Matrix: (Units=1/GPa)
#
#
# Indices 1 2 3 4 5 6 
#
# 1 0.011290 -0.002419 -0.003676 0.000000 0.000000 0.000000
# 2 -0.002419 0.019358 -0.000333 0.000000 0.000000 0.000000
# 3 -0.003676 -0.000333 0.012482 0.000000 0.000000 0.000000
# 4 0.000000 0.000000 0.000000 0.051616 0.000000 0.000000
# 5 0.000000 0.000000 0.000000 0.000000 0.044877 0.000000
# 6 0.000000 0.000000 0.000000 0.000000 0.000000 0.064419
#
#
# Mechanical properties :
#
#
# Convention : Reuss Voigt Hill
#
# Bulk Modulus (GPa) = 33.03381 37.89183 35.46282
# Shear Modulus (GPa) = 22.02757 24.44420 23.23588
#
# Velocity S-wave (km/s) = 3.36025 3.53978 3.45118
# Velocity P-wave (km/s) = 5.65580 6.01082 5.83601
#
# Compressibility (1/GPa) = 0.03027202
#
# Stress axis : x y z
#
# Youngs Moduli (GPa) = 88.57470 51.65882 80.11856
#
# Poissons Ratio (x) = 0.12498 0.29451
# Poissons Ratio (y) = 0.21429 0.02671
# Poissons Ratio (z) = 0.32560 0.01722
#
# Static dielectric constant tensor:
#      x y z
#    x 1.675750 0.000000 0.000000 
#    y 0.000000 1.753520 0.000000 
#    z 0.000000 0.000000 1.715230 
# 
# From -- ./inp_files/26343.got.cif
#   From: 2010.05.17/outbox.cif.g08.bks.cpg/sg52_14_cif.got.tgz:26343.got - 2010.06.03 12:15:38.
