data_PCOD9412981
_publ_section_title
;
Structure prediction by ZEFSAII (Michael W. Deem and Ramdas Pophale) SiO2 
 PCOD9412981
Probable space group: P N N A
;
_chemical_formula_sum "Si O2"
_cell_formula_units_Z 32
_cell_length_a 5.061512
_cell_length_b 10.444045
_cell_length_c 30.813112
_cell_angle_alpha 90.000000
_cell_angle_beta 90.000000
_cell_angle_gamma 90.000000
_cell_volume 1628.863035
_symmetry_space_group_name_H-M "P N N A"
_symmetry_group_IT_number 52
_symmetry_cell_setting 'orthorhombic'
loop_
_space_group_symop_operation_xyz
x,y,z
1/2-x,-y,z
x,1/2-y,1/2-z
1/2-x,1/2+y,1/2-z
-x,-y,-z
1/2+x,y,-z
-x,1/2+y,1/2+z
1/2+x,1/2-y,1/2+z
loop_
_atom_site_type_symbol
_atom_site_label
_atom_site_fract_x
_atom_site_fract_y
_atom_site_fract_z
Si Si1 0.237795 0.344450 0.973947
Si Si2 0.266459 0.845312 0.625362
Si Si3 0.224313 0.229625 0.322853
Si Si4 0.954151 0.114457 0.244256
O O1 0.250000 0.500000 0.974437
O O2 0.173762 0.310861 0.924445
O O3 0.518494 0.300821 0.991955
O O4 0.486863 0.790866 0.658070
O O5 0.982797 0.790859 0.638515
O O6 0.250000 0.000000 0.629248
O O7 0.140639 0.124631 0.286475
O O8 0.143002 0.358950 0.297061
O O9 0.795084 0.250000 0.250000
O O10 0.750000 0.000000 0.242057
#
# Coordination Sequence:
#
# PCOD9412981 Si02
#       4
#     8   8   8   8
#     4   9  17  28  44  67 104 145 181 222 283 347
#     4  11  19  32  49  79 109 147 190 235 285 348
#     4   9  21  32  54  77 109 146 194 233 283 345
#     4   8  19  37  59  80 118 153 193 242 296 344
#
# _framework density 19.645603999999999
#
# number of rings (size 3 to 8) (size 9 to 14) (size 15 to 20)
#    1.500    1.000    0.000    3.000    0.000    8.000 
#    0.000    3.750    0.000    0.000    0.000    0.000 
#    0.000   20.000    0.000    0.000    0.000    0.000 
#
# Total GULP energy -178268.580716 kJ/mol
# GULP energy per Si atom -5570.893147 kJ/mol
# Density = 1.960089 g / cm^3
# Si number density = 19.645604 Si / 1000 Ang^3
#
#
#
# Elastic Constant Matrix: (Units=GPa)
#
#
# Indices 1 2 3 4 5 6 
#
# 1 76.6587 16.9363 21.2074 0.0000 0.0000 0.0000
# 2 16.9363 72.1513 13.5039 0.0000 0.0000 0.0000
# 3 21.2074 13.5039 110.7725 0.0000 0.0000 0.0000
# 4 0.0000 0.0000 0.0000 17.4753 0.0000 0.0000
# 5 0.0000 0.0000 0.0000 0.0000 37.6712 0.0000
# 6 0.0000 0.0000 0.0000 0.0000 0.0000 27.6861
#
#
#
# Elastic Compliance Matrix: (Units=1/GPa)
#
#
# Indices 1 2 3 4 5 6 
#
# 1 0.014352 -0.002921 -0.002392 0.000000 0.000000 0.000000
# 2 -0.002921 0.014778 -0.001242 0.000000 0.000000 0.000000
# 3 -0.002392 -0.001242 0.009637 0.000000 0.000000 0.000000
# 4 0.000000 0.000000 0.000000 0.057224 0.000000 0.000000
# 5 0.000000 0.000000 0.000000 0.000000 0.026545 0.000000
# 6 0.000000 0.000000 0.000000 0.000000 0.000000 0.036119
#
#
# Mechanical properties :
#
#
# Convention : Reuss Voigt Hill
#
# Bulk Modulus (GPa) = 38.97644 40.31975 39.64809
# Shear Modulus (GPa) = 27.72892 30.42885 29.07888
#
# Velocity S-wave (km/s) = 3.76101 3.93986 3.85147
# Velocity P-wave (km/s) = 6.22440 6.42377 6.32487
#
# Compressibility (1/GPa) = 0.02565653
#
# Stress axis : x y z
#
# Youngs Moduli (GPa) = 69.67747 67.66827 103.76881
#
# Poissons Ratio (x) = 0.19768 0.24817
# Poissons Ratio (y) = 0.20355 0.12891
# Poissons Ratio (z) = 0.16664 0.08406
#
# Static dielectric constant tensor:
#      x y z
#    x 1.683810 0.000000 0.000000 
#    y 0.000000 1.744460 0.000000 
#    z 0.000000 0.000000 1.712240 
# 
# From -- ./inp_files/38532.got.cif
#   From: 2010.05.17/outbox.cif.g08.bks.cpg/sg52_20_cif.got.tgz:38532.got - 2010.06.03 12:15:38.
