data_PCOD9412234
_publ_section_title
;
Structure prediction by ZEFSAII (Michael W. Deem and Ramdas Pophale) SiO2 
 PCOD9412234
Probable space group: P N N A
;
_chemical_formula_sum "Si O2"
_cell_formula_units_Z 36
_cell_length_a 15.145655
_cell_length_b 5.160630
_cell_length_c 21.609616
_cell_angle_alpha 90.000000
_cell_angle_beta 90.000000
_cell_angle_gamma 90.000000
_cell_volume 1689.031823
_symmetry_space_group_name_H-M "P N N A"
_symmetry_group_IT_number 52
_symmetry_cell_setting 'orthorhombic'
loop_
_space_group_symop_operation_xyz
x,y,z
1/2-x,-y,z
x,1/2-y,1/2-z
1/2-x,1/2+y,1/2-z
-x,-y,-z
1/2+x,y,-z
-x,1/2+y,1/2+z
1/2+x,1/2-y,1/2+z
loop_
_atom_site_type_symbol
_atom_site_label
_atom_site_fract_x
_atom_site_fract_y
_atom_site_fract_z
Si Si1 0.305802 0.252912 0.675150
Si Si2 0.354626 0.488953 0.371798
Si Si3 0.521560 0.749490 0.959062
Si Si4 0.435698 0.250000 0.250000
Si Si5 0.493143 0.410129 0.850352
O O1 0.250000 0.500000 0.656033
O O2 0.312740 0.250000 0.750000
O O3 0.404151 0.253521 0.648030
O O4 0.250000 0.000000 0.657015
O O5 0.250000 0.500000 0.373506
O O6 0.382889 0.316711 0.430806
O O7 0.378526 0.356567 0.306442
O O8 0.419960 0.743735 0.370867
O O9 0.476865 0.660336 0.894292
O O10 0.500000 0.500000 0.000000
O O11 0.500000 0.000000 0.000000
O O12 0.492386 0.474980 0.218108
#
# Coordination Sequence:
#
# PCOD9412234 Si02
#       5
#     8   8   8   4   8
#     4  10  23  38  65  97 139 181 230 283 352 428
#     4  11  25  43  74 108 148 199 242 296 373 448
#     4  11  24  48  74  95 136 186 244 303 357 418
#     4  10  24  36  72 106 158 188 238 288 378 448
#     4  11  24  44  73 103 148 191 237 303 374 434
#
# _framework density 21.313987000000001
#
# number of rings (size 3 to 8) (size 9 to 14) (size 15 to 20)
#    0.000    1.333    2.222    2.000   14.000    2.667 
#    0.000    3.333    0.000    0.000    0.000    0.000 
#    0.000    0.000    0.000    0.000    0.000    0.000 
#
# Total GULP energy -200681.975561 kJ/mol
# GULP energy per Si atom -5574.499321 kJ/mol
# Density = 2.126548 g / cm^3
# Si number density = 21.313987 Si / 1000 Ang^3
#
#
#
# Elastic Constant Matrix: (Units=GPa)
#
#
# Indices 1 2 3 4 5 6 
#
# 1 179.7322 88.3402 56.3260 0.0000 0.0000 0.0000
# 2 88.3402 175.1688 50.8966 0.0000 0.0000 0.0000
# 3 56.3260 50.8966 105.0357 0.0000 0.0000 0.0000
# 4 0.0000 0.0000 0.0000 46.6117 0.0000 0.0000
# 5 0.0000 0.0000 0.0000 0.0000 10.6987 0.0000
# 6 0.0000 0.0000 0.0000 0.0000 0.0000 27.1874
#
#
#
# Elastic Compliance Matrix: (Units=1/GPa)
#
#
# Indices 1 2 3 4 5 6 
#
# 1 0.008015 -0.003251 -0.002723 0.000000 0.000000 0.000000
# 2 -0.003251 0.007963 -0.002115 0.000000 0.000000 0.000000
# 3 -0.002723 -0.002115 0.012006 0.000000 0.000000 0.000000
# 4 0.000000 0.000000 0.000000 0.021454 0.000000 0.000000
# 5 0.000000 0.000000 0.000000 0.000000 0.093469 0.000000
# 6 0.000000 0.000000 0.000000 0.000000 0.000000 0.036782
#
#
# Mechanical properties :
#
#
# Convention : Reuss Voigt Hill
#
# Bulk Modulus (GPa) = 84.70529 94.56248 89.63388
# Shear Modulus (GPa) = 25.02487 34.52449 29.77468
#
# Velocity S-wave (km/s) = 3.43024 4.02905 3.74164
# Velocity P-wave (km/s) = 7.45095 8.13062 7.79819
#
# Compressibility (1/GPa) = 0.01180564
#
# Stress axis : x y z
#
# Youngs Moduli (GPa) = 124.76609 125.58292 83.29428
#
# Poissons Ratio (x) = 0.40826 0.22679
# Poissons Ratio (y) = 0.40561 0.17618
# Poissons Ratio (z) = 0.33971 0.26563
#
# Static dielectric constant tensor:
#      x y z
#    x 1.776940 0.000000 0.000000 
#    y 0.000000 1.834680 0.000000 
#    z 0.000000 0.000000 1.813440 
# 
# From -- ./inp_files/37052.got.cif
#   From: 2010.05.17/outbox.cif.g08.bks.cpg/sg52_19_cif.got.tgz:37052.got - 2010.06.03 12:15:38.
