data_PCOD9412187
_publ_section_title
;
Structure prediction by ZEFSAII (Michael W. Deem and Ramdas Pophale) SiO2 
 PCOD9412187
Probable space group: P N N A
;
_chemical_formula_sum "Si O2"
_cell_formula_units_Z 40
_cell_length_a 10.502236
_cell_length_b 23.338435
_cell_length_c 7.276126
_cell_angle_alpha 90.000000
_cell_angle_beta 90.000000
_cell_angle_gamma 90.000000
_cell_volume 1783.420337
_symmetry_space_group_name_H-M "P N N A"
_symmetry_group_IT_number 52
_symmetry_cell_setting 'orthorhombic'
loop_
_space_group_symop_operation_xyz
x,y,z
1/2-x,-y,z
x,1/2-y,1/2-z
1/2-x,1/2+y,1/2-z
-x,-y,-z
1/2+x,y,-z
-x,1/2+y,1/2+z
1/2+x,1/2-y,1/2+z
loop_
_atom_site_type_symbol
_atom_site_label
_atom_site_fract_x
_atom_site_fract_y
_atom_site_fract_z
Si Si1 0.239302 0.303283 0.361471
Si Si2 0.067417 0.897514 0.294247
Si Si3 0.978281 0.152200 0.317622
Si Si4 0.722995 0.750000 0.250000
Si Si5 0.750000 0.500000 0.766182
Si Si6 0.451810 0.937552 0.045800
O O1 0.295055 0.250000 0.250000
O O2 0.337819 0.354458 0.316146
O O3 0.105924 0.320399 0.267269
O O4 0.214153 0.279467 0.568843
O O5 0.010840 0.870007 0.476511
O O6 0.141158 0.957519 0.350950
O O7 0.953265 0.907539 0.150343
O O8 0.958823 0.097837 0.183693
O O9 0.867176 0.198453 0.317453
O O10 0.677943 0.452354 0.646076
O O11 0.500000 0.000000 0.000000
#
# Coordination Sequence:
#
# PCOD9412187 Si02
#       6
#     8   8   8   4   4   8
#     4  12  25  46  71 110 141 187 245 297 371 435
#     4  11  24  46  72 105 151 190 242 307 367 446
#     4  12  25  46  72 105 145 191 244 303 373 436
#     4  12  26  46  72 102 148 190 238 308 364 442
#     4  10  22  46  70 104 148 192 248 296 368 442
#     4  10  23  44  69 103 146 191 244 305 362 439
#
# _framework density 22.428811
#
# number of rings (size 3 to 8) (size 9 to 14) (size 15 to 20)
#    0.000    0.800    7.000    0.000    0.000    4.800 
#    9.000    2.000    0.000    0.000    0.000    0.000 
#    0.000    0.000    0.000    0.000    0.000    0.000 
#
# Total GULP energy -222915.201376 kJ/mol
# GULP energy per Si atom -5572.880034 kJ/mol
# Density = 2.237776 g / cm^3
# Si number density = 22.428811 Si / 1000 Ang^3
#
#
#
# Elastic Constant Matrix: (Units=GPa)
#
#
# Indices 1 2 3 4 5 6 
#
# 1 48.5240 21.6327 28.8587 0.0000 0.0000 0.0000
# 2 21.6327 135.6370 49.3763 0.0000 0.0000 0.0000
# 3 28.8587 49.3763 180.3542 0.0000 0.0000 0.0000
# 4 0.0000 0.0000 0.0000 40.1286 0.0000 0.0000
# 5 0.0000 0.0000 0.0000 0.0000 164.4096 0.0000
# 6 0.0000 0.0000 0.0000 0.0000 0.0000 21.1876
#
#
#
# Elastic Compliance Matrix: (Units=1/GPa)
#
#
# Indices 1 2 3 4 5 6 
#
# 1 0.023606 -0.002654 -0.003051 0.000000 0.000000 0.000000
# 2 -0.002654 0.008487 -0.001899 0.000000 0.000000 0.000000
# 3 -0.003051 -0.001899 0.006553 0.000000 0.000000 0.000000
# 4 0.000000 0.000000 0.000000 0.024920 0.000000 0.000000
# 5 0.000000 0.000000 0.000000 0.000000 0.006082 0.000000
# 6 0.000000 0.000000 0.000000 0.000000 0.000000 0.047197
#
#
# Mechanical properties :
#
#
# Convention : Reuss Voigt Hill
#
# Bulk Modulus (GPa) = 42.66530 62.69451 52.67991
# Shear Modulus (GPa) = 35.74856 62.78832 49.26844
#
# Velocity S-wave (km/s) = 3.99666 5.29672 4.69194
# Velocity P-wave (km/s) = 6.35307 8.08829 7.27262
#
# Compressibility (1/GPa) = 0.02343825
#
# Stress axis : x y z
#
# Youngs Moduli (GPa) = 42.36216 117.82429 152.61082
#
# Poissons Ratio (x) = 0.31276 0.46554
# Poissons Ratio (y) = 0.11245 0.28978
# Poissons Ratio (z) = 0.12923 0.22373
#
# Static dielectric constant tensor:
#      x y z
#    x 1.883910 0.000000 0.000000 
#    y 0.000000 1.859940 0.000000 
#    z 0.000000 0.000000 1.956420 
# 
# From -- ./inp_files/1411.got.cif
#   From: 2010.05.17/outbox.cif.g08.bks.cpg/sg52_1_cif.got.tgz:1411.got - 2010.06.03 12:15:38.
