data_PCOD9412673
_publ_section_title
;
Structure prediction by ZEFSAII (Michael W. Deem and Ramdas Pophale) SiO2 
 PCOD9412673
Probable space group: P N N A
;
_chemical_formula_sum "Si O2"
_cell_formula_units_Z 40
_cell_length_a 25.918422
_cell_length_b 8.260435
_cell_length_c 8.166273
_cell_angle_alpha 90.000000
_cell_angle_beta 90.000000
_cell_angle_gamma 90.000000
_cell_volume 1748.378146
_symmetry_space_group_name_H-M "P N N A"
_symmetry_group_IT_number 52
_symmetry_cell_setting 'orthorhombic'
loop_
_space_group_symop_operation_xyz
x,y,z
1/2-x,-y,z
x,1/2-y,1/2-z
1/2-x,1/2+y,1/2-z
-x,-y,-z
1/2+x,y,-z
-x,1/2+y,1/2+z
1/2+x,1/2-y,1/2+z
loop_
_atom_site_type_symbol
_atom_site_label
_atom_site_fract_x
_atom_site_fract_y
_atom_site_fract_z
Si Si1 0.173073 0.250000 0.750000
Si Si2 0.750000 0.000000 0.343273
Si Si3 0.121759 0.153845 0.409542
Si Si4 0.075423 0.840150 0.927175
Si Si5 0.468851 0.707497 0.564963
Si Si6 0.825985 0.190597 0.574157
O O1 0.208370 0.091874 0.763864
O O2 0.143887 0.223020 0.580198
O O3 0.720153 0.868891 0.456540
O O4 0.139673 0.250000 0.250000
O O5 0.061158 0.181915 0.434470
O O6 0.139575 0.970273 0.398155
O O7 0.074626 0.750000 0.750000
O O8 0.055686 0.026091 0.940742
O O9 0.133073 0.815652 0.995772
O O10 0.029249 0.764131 0.032986
O O11 0.458326 0.750000 0.750000
O O12 0.806601 0.250000 0.750000
#
# Coordination Sequence:
#
# PCOD9412673 Si02
#       6
#     4   4   8   8   8   8
#     4  10  24  44  66 102 134 186 234 302 354 430
#     4  10  26  44  72 100 136 184 244 298 378 418
#     4  11  23  42  70 100 142 189 237 288 359 424
#     4  11  25  40  68 103 144 193 235 291 360 426
#     4  11  23  42  66 104 148 191 238 287 351 437
#     4  11  25  46  69 104 138 182 244 302 360 434
#
# _framework density 22.878347999999999
#
# number of rings (size 3 to 8) (size 9 to 14) (size 15 to 20)
#    0.000    1.200    1.000    3.600    4.200   11.200 
#    0.000    1.000    0.000    0.000    0.000    0.000 
#    0.000    0.000    0.000    0.000    0.000    0.000 
#
# Total GULP energy -223505.425097 kJ/mol
# GULP energy per Si atom -5587.635627 kJ/mol
# Density = 2.282628 g / cm^3
# Si number density = 22.878348 Si / 1000 Ang^3
#
#
#
# Elastic Constant Matrix: (Units=GPa)
#
#
# Indices 1 2 3 4 5 6 
#
# 1 77.0277 9.9564 7.0612 0.0000 0.0000 0.0000
# 2 9.9564 37.1868 14.4414 0.0000 0.0000 0.0000
# 3 7.0612 14.4414 79.9031 0.0000 0.0000 0.0000
# 4 0.0000 0.0000 0.0000 40.7775 0.0000 0.0000
# 5 0.0000 0.0000 0.0000 0.0000 -0.8878 0.0000
# 6 0.0000 0.0000 0.0000 0.0000 0.0000 44.6979
#
#
#
# Elastic Compliance Matrix: (Units=1/GPa)
#
#
# Indices 1 2 3 4 5 6 
#
# 1 0.013473 -0.003382 -0.000579 0.000000 0.000000 0.000000
# 2 -0.003382 0.029770 -0.005082 0.000000 0.000000 0.000000
# 3 -0.000579 -0.005082 0.013485 0.000000 0.000000 0.000000
# 4 0.000000 0.000000 0.000000 0.024523 0.000000 0.000000
# 5 0.000000 0.000000 0.000000 0.000000 -1.126404 0.000000
# 6 0.000000 0.000000 0.000000 0.000000 0.000000 0.022372
#
#
# Mechanical properties :
#
#
# Convention : Reuss Voigt Hill
#
# Bulk Modulus (GPa) = 25.87906 28.55953 27.21929
# Shear Modulus (GPa) = -5.04127 27.76142 11.36008
#
# Velocity S-wave (km/s) = -1.48603 3.48722 2.23074
# Velocity P-wave (km/s) = 2.89685 5.35953 4.30792
#
# Compressibility (1/GPa) = 0.03864128
#
# Stress axis : x y z
#
# Youngs Moduli (GPa) = 74.22454 33.59060 74.15761
#
# Poissons Ratio (x) = 0.11361 0.04296
# Poissons Ratio (y) = 0.25104 0.37684
# Poissons Ratio (z) = 0.04300 0.17070
#
# Static dielectric constant tensor:
#      x y z
#    x 1.900090 0.000000 0.000000 
#    y 0.000000 1.933030 0.000000 
#    z 0.000000 0.000000 1.827610 
# 
# From -- ./inp_files/14885.got.cif
#   From: 2010.05.17/outbox.cif.g08.bks.cpg/sg52_8_cif.got.tgz:14885.got - 2010.06.03 12:15:38.
