data_PCOD9412145
_publ_section_title
;
Structure prediction by ZEFSAII (Michael W. Deem and Ramdas Pophale) SiO2 
 PCOD9412145
Probable space group: P N N A
;
_chemical_formula_sum "Si O2"
_cell_formula_units_Z 40
_cell_length_a 24.646514
_cell_length_b 8.323431
_cell_length_c 8.657518
_cell_angle_alpha 90.000000
_cell_angle_beta 90.000000
_cell_angle_gamma 90.000000
_cell_volume 1776.034052
_symmetry_space_group_name_H-M "P N N A"
_symmetry_group_IT_number 52
_symmetry_cell_setting 'orthorhombic'
loop_
_space_group_symop_operation_xyz
x,y,z
1/2-x,-y,z
x,1/2-y,1/2-z
1/2-x,1/2+y,1/2-z
-x,-y,-z
1/2+x,y,-z
-x,1/2+y,1/2+z
1/2+x,1/2-y,1/2+z
loop_
_atom_site_type_symbol
_atom_site_label
_atom_site_fract_x
_atom_site_fract_y
_atom_site_fract_z
Si Si1 0.259572 0.757439 0.067087
Si Si2 0.058043 0.952477 0.433209
Si Si3 0.829638 0.053943 0.058887
Si Si4 0.444754 0.065223 0.075244
Si Si5 0.843349 0.591111 0.136013
O O1 0.259114 0.750000 0.250000
O O2 0.198266 0.787027 0.009082
O O3 0.294617 0.622453 0.982682
O O4 0.294864 0.911959 0.016809
O O5 0.061271 0.994942 0.251466
O O6 0.058434 0.758660 0.433682
O O7 0.104156 0.036352 0.538249
O O8 0.000000 0.000000 0.500000
O O9 0.825765 0.043669 0.241902
O O10 0.891385 0.017271 0.017448
O O11 0.500000 0.000000 0.000000
O O12 0.851530 0.750000 0.250000
#
# Coordination Sequence:
#
# PCOD9412145 Si02
#       5
#     8   8   8   8   8
#     4  10  22  44  72  98 139 187 234 291 350 422
#     4  11  26  44  74 105 137 190 239 290 364 426
#     4  10  23  45  67 104 137 185 238 283 363 420
#     4  11  26  47  72 103 144 183 237 299 354 432
#     4  10  23  46  70 104 145 184 240 298 356 433
#
# _framework density 22.522089999999999
#
# number of rings (size 3 to 8) (size 9 to 14) (size 15 to 20)
#    0.000    1.600    0.000    2.400   11.200    3.200 
#   21.600    0.000    0.000    0.000    0.000    0.000 
#    0.000    0.000    0.000    0.000    0.000    0.000 
#
# Total GULP energy -223624.002362 kJ/mol
# GULP energy per Si atom -5590.600059 kJ/mol
# Density = 2.247083 g / cm^3
# Si number density = 22.522090 Si / 1000 Ang^3
#
#
#
# Elastic Constant Matrix: (Units=GPa)
#
#
# Indices 1 2 3 4 5 6 
#
# 1 185.6952 39.7899 93.3456 0.0000 0.0000 0.0000
# 2 39.7899 51.7904 48.8402 0.0000 0.0000 0.0000
# 3 93.3456 48.8402 231.7340 0.0000 0.0000 0.0000
# 4 0.0000 0.0000 0.0000 21.2933 0.0000 0.0000
# 5 0.0000 0.0000 0.0000 0.0000 46.3913 0.0000
# 6 0.0000 0.0000 0.0000 0.0000 0.0000 43.0755
#
#
#
# Elastic Compliance Matrix: (Units=1/GPa)
#
#
# Indices 1 2 3 4 5 6 
#
# 1 0.007228 -0.003504 -0.002173 0.000000 0.000000 0.000000
# 2 -0.003504 0.025797 -0.004025 0.000000 0.000000 0.000000
# 3 -0.002173 -0.004025 0.006039 0.000000 0.000000 0.000000
# 4 0.000000 0.000000 0.000000 0.046963 0.000000 0.000000
# 5 0.000000 0.000000 0.000000 0.000000 0.021556 0.000000
# 6 0.000000 0.000000 0.000000 0.000000 0.000000 0.023215
#
#
# Mechanical properties :
#
#
# Convention : Reuss Voigt Hill
#
# Bulk Modulus (GPa) = 50.86747 92.57454 71.72100
# Shear Modulus (GPa) = 31.89655 41.30162 36.59908
#
# Velocity S-wave (km/s) = 3.76737 4.28697 4.03554
# Velocity P-wave (km/s) = 6.44661 8.10538 7.32311
#
# Compressibility (1/GPa) = 0.01965893
#
# Stress axis : x y z
#
# Youngs Moduli (GPa) = 138.34251 38.76435 165.58810
#
# Poissons Ratio (x) = 0.13583 0.35985
# Poissons Ratio (y) = 0.48477 0.66656
# Poissons Ratio (z) = 0.30064 0.15604
#
# Static dielectric constant tensor:
#      x y z
#    x 1.787510 0.000000 0.000000 
#    y 0.000000 1.956330 0.000000 
#    z 0.000000 0.000000 1.822210 
# 
# From -- ./inp_files/13987.got.cif
#   From: 2010.05.17/outbox.cif.g08.bks.cpg/sg52_7_cif.got.tgz:13987.got - 2010.06.03 12:15:38.
