data_PCOD9412742
_publ_section_title
;
Structure prediction by ZEFSAII (Michael W. Deem and Ramdas Pophale) SiO2 
 PCOD9412742
Probable space group: P N N A
;
_chemical_formula_sum "Si O2"
_cell_formula_units_Z 28
_cell_length_a 9.339079
_cell_length_b 19.769405
_cell_length_c 5.553442
_cell_angle_alpha 90.000000
_cell_angle_beta 90.000000
_cell_angle_gamma 90.000000
_cell_volume 1025.321084
_symmetry_space_group_name_H-M "P N N A"
_symmetry_group_IT_number 52
_symmetry_cell_setting 'orthorhombic'
loop_
_space_group_symop_operation_xyz
x,y,z
1/2-x,-y,z
x,1/2-y,1/2-z
1/2-x,1/2+y,1/2-z
-x,-y,-z
1/2+x,y,-z
-x,1/2+y,1/2+z
1/2+x,1/2-y,1/2+z
loop_
_atom_site_type_symbol
_atom_site_label
_atom_site_fract_x
_atom_site_fract_y
_atom_site_fract_z
Si Si1 0.558419 0.604418 0.025976
Si Si2 0.698095 0.064924 0.818029
Si Si3 0.381482 0.815586 0.867001
Si Si4 0.398228 0.250000 0.750000
O O1 0.685776 0.566475 0.894491
O O2 0.450671 0.633701 0.822566
O O3 0.462740 0.563066 0.215269
O O4 0.623444 0.670314 0.148465
O O5 0.750000 0.000000 0.969391
O O6 0.704701 0.137578 0.948169
O O7 0.295930 0.750000 0.750000
O O8 0.500746 0.775412 0.019748
#
# Coordination Sequence:
#
# PCOD9412742 Si02
#       4
#     8   8   8   4
#     4  12  25  48  75 107 151 196 249 318 364 451
#     4  12  28  48  75 111 155 203 249 304 383 454
#     4  10  25  44  75 107 146 189 252 306 370 435
#     4  10  24  46  72 108 144 190 246 310 374 428
#
# _framework density 27.308520000000001
#
# number of rings (size 3 to 8) (size 9 to 14) (size 15 to 20)
#    0.857    0.000    2.857    2.571    8.000    4.571 
#    0.000    0.000    0.000    0.000    0.000    0.000 
#    0.000    0.000    0.000    0.000    0.000    0.000 
#
# Total GULP energy -156712.598446 kJ/mol
# GULP energy per Si atom -5596.878516 kJ/mol
# Density = 2.724636 g / cm^3
# Si number density = 27.308520 Si / 1000 Ang^3
#
#
#
# Elastic Constant Matrix: (Units=GPa)
#
#
# Indices 1 2 3 4 5 6 
#
# 1 162.2290 63.4622 41.9641 0.0000 0.0000 0.0000
# 2 63.4622 129.5701 17.3342 0.0000 0.0000 0.0000
# 3 41.9641 17.3342 74.7345 0.0000 0.0000 0.0000
# 4 0.0000 0.0000 0.0000 26.9866 0.0000 0.0000
# 5 0.0000 0.0000 0.0000 0.0000 56.5368 0.0000
# 6 0.0000 0.0000 0.0000 0.0000 0.0000 31.9667
#
#
#
# Elastic Compliance Matrix: (Units=1/GPa)
#
#
# Indices 1 2 3 4 5 6 
#
# 1 0.008645 -0.003700 -0.003996 0.000000 0.000000 0.000000
# 2 -0.003700 0.009548 -0.000137 0.000000 0.000000 0.000000
# 3 -0.003996 -0.000137 0.015656 0.000000 0.000000 0.000000
# 4 0.000000 0.000000 0.000000 0.037055 0.000000 0.000000
# 5 0.000000 0.000000 0.000000 0.000000 0.017688 0.000000
# 6 0.000000 0.000000 0.000000 0.000000 0.000000 0.031283
#
#
# Mechanical properties :
#
#
# Convention : Reuss Voigt Hill
#
# Bulk Modulus (GPa) = 54.99475 68.00606 61.50040
# Shear Modulus (GPa) = 35.31003 39.34956 37.32980
#
# Velocity S-wave (km/s) = 3.59974 3.80007 3.70126
# Velocity P-wave (km/s) = 6.12042 6.64913 6.39025
#
# Compressibility (1/GPa) = 0.01818356
#
# Stress axis : x y z
#
# Youngs Moduli (GPa) = 115.67260 104.73124 63.87151
#
# Poissons Ratio (x) = 0.38747 0.25524
# Poissons Ratio (y) = 0.42795 0.00877
# Poissons Ratio (z) = 0.46225 0.01438
#
# Static dielectric constant tensor:
#      x y z
#    x 2.154760 0.000000 0.000000 
#    y 0.000000 2.175930 0.000000 
#    z 0.000000 0.000000 2.165440 
# 
# From -- ./inp_files/926.got.cif
#   From: 2010.05.17/outbox.cif.g08.bks.cpg/sg52_1_cif.got.tgz:926.got - 2010.06.03 12:15:38.
