data_PCOD9412479
_publ_section_title
;
Structure prediction by ZEFSAII (Michael W. Deem and Ramdas Pophale) SiO2 
 PCOD9412479
Probable space group: P N N A
;
_chemical_formula_sum "Si O2"
_cell_formula_units_Z 48
_cell_length_a 8.705588
_cell_length_b 8.800117
_cell_length_c 30.539311
_cell_angle_alpha 90.000000
_cell_angle_beta 90.000000
_cell_angle_gamma 90.000000
_cell_volume 2339.622508
_symmetry_space_group_name_H-M "P N N A"
_symmetry_group_IT_number 52
_symmetry_cell_setting 'orthorhombic'
loop_
_space_group_symop_operation_xyz
x,y,z
1/2-x,-y,z
x,1/2-y,1/2-z
1/2-x,1/2+y,1/2-z
-x,-y,-z
1/2+x,y,-z
-x,1/2+y,1/2+z
1/2+x,1/2-y,1/2+z
loop_
_atom_site_type_symbol
_atom_site_label
_atom_site_fract_x
_atom_site_fract_y
_atom_site_fract_z
Si Si1 0.696188 0.666276 0.903437
Si Si2 0.785664 0.250000 0.750000
Si Si3 0.074363 0.941819 0.044895
Si Si4 0.250000 0.000000 0.187433
Si Si5 0.837099 0.278171 0.197888
Si Si6 0.025768 0.394187 0.372279
Si Si7 0.494177 0.601122 0.817857
O O1 0.750000 0.500000 0.920408
O O2 0.602068 0.767538 0.939065
O O3 0.844772 0.764800 0.885354
O O4 0.585577 0.627110 0.862553
O O5 0.700294 0.357563 0.716248
O O6 0.890664 0.360411 0.778594
O O7 0.250000 0.000000 0.045486
O O8 0.979359 0.029039 0.082660
O O9 0.000000 0.000000 0.000000
O O10 0.111016 0.971885 0.154900
O O11 0.854894 0.250000 0.250000
O O12 0.656963 0.297776 0.188408
O O13 0.930830 0.431595 0.187452
O O14 0.900689 0.163842 0.161455
#
# Coordination Sequence:
#
# PCOD9412479 Si02
#       7
#     8   4   8   4   8   8   8
#     4  11  21  41  69  93 124 166 212 268 323 394
#     4  12  24  36  54  90 122 172 216 270 302 368
#     4  10  23  45  70  98 126 158 206 268 337 409
#     4  12  24  36  60  92 124 164 228 262 314 368
#     4  11  24  38  57  89 134 180 218 269 313 375
#     4  11  21  41  63  91 126 166 216 267 318 384
#     4  11  23  39  57  88 132 172 222 264 322 370
#
# _framework density 20.516131000000001
#
# number of rings (size 3 to 8) (size 9 to 14) (size 15 to 20)
#    0.000    1.000    6.667    1.000    4.667    1.333 
#    0.000    3.333    3.667    0.000    0.000    0.000 
#    0.000    0.000    0.000    0.000    0.000    0.000 
#
# Total GULP energy -267799.385002 kJ/mol
# GULP energy per Si atom -5579.153854 kJ/mol
# Density = 2.046944 g / cm^3
# Si number density = 20.516131 Si / 1000 Ang^3
#
#
#
# Elastic Constant Matrix: (Units=GPa)
#
#
# Indices 1 2 3 4 5 6 
#
# 1 36.9058 26.9374 35.1764 0.0000 0.0000 0.0000
# 2 26.9374 92.9974 52.3475 0.0000 0.0000 0.0000
# 3 35.1764 52.3475 159.4976 0.0000 0.0000 0.0000
# 4 0.0000 0.0000 0.0000 25.5419 0.0000 0.0000
# 5 0.0000 0.0000 0.0000 0.0000 10.6587 0.0000
# 6 0.0000 0.0000 0.0000 0.0000 0.0000 27.1733
#
#
#
# Elastic Compliance Matrix: (Units=1/GPa)
#
#
# Indices 1 2 3 4 5 6 
#
# 1 0.038428 -0.007802 -0.005915 0.000000 0.000000 0.000000
# 2 -0.007802 0.014774 -0.003128 0.000000 0.000000 0.000000
# 3 -0.005915 -0.003128 0.008601 0.000000 0.000000 0.000000
# 4 0.000000 0.000000 0.000000 0.039151 0.000000 0.000000
# 5 0.000000 0.000000 0.000000 0.000000 0.093820 0.000000
# 6 0.000000 0.000000 0.000000 0.000000 0.000000 0.036801
#
#
# Mechanical properties :
#
#
# Convention : Reuss Voigt Hill
#
# Bulk Modulus (GPa) = 35.57001 57.59147 46.58074
# Shear Modulus (GPa) = 18.20606 24.33742 21.27174
#
# Velocity S-wave (km/s) = 2.98216 3.44795 3.22348
# Velocity P-wave (km/s) = 5.40675 6.63199 6.05047
#
# Compressibility (1/GPa) = 0.02811357
#
# Stress axis : x y z
#
# Youngs Moduli (GPa) = 26.02283 67.68839 116.26873
#
# Poissons Ratio (x) = 0.52808 0.68768
# Poissons Ratio (y) = 0.20302 0.36370
# Poissons Ratio (z) = 0.15391 0.21174
#
# Static dielectric constant tensor:
#      x y z
#    x 1.747060 0.000000 0.000000 
#    y 0.000000 1.490980 0.000000 
#    z 0.000000 0.000000 1.724130 
# 
# From -- ./inp_files/44418.got.cif
#   From: 2010.05.17/outbox.cif.g08.bks.cpg/sg52_23_cif.got.tgz:44418.got - 2010.06.03 12:15:38.
