data_PCOD9412332
_publ_section_title
;
Structure prediction by ZEFSAII (Michael W. Deem and Ramdas Pophale) SiO2 
 PCOD9412332
Probable space group: P N N A
;
_chemical_formula_sum "Si O2"
_cell_formula_units_Z 56
_cell_length_a 13.482941
_cell_length_b 17.448253
_cell_length_c 10.535119
_cell_angle_alpha 90.000000
_cell_angle_beta 90.000000
_cell_angle_gamma 90.000000
_cell_volume 2478.426417
_symmetry_space_group_name_H-M "P N N A"
_symmetry_group_IT_number 52
_symmetry_cell_setting 'orthorhombic'
loop_
_space_group_symop_operation_xyz
x,y,z
1/2-x,-y,z
x,1/2-y,1/2-z
1/2-x,1/2+y,1/2-z
-x,-y,-z
1/2+x,y,-z
-x,1/2+y,1/2+z
1/2+x,1/2-y,1/2+z
loop_
_atom_site_type_symbol
_atom_site_label
_atom_site_fract_x
_atom_site_fract_y
_atom_site_fract_z
Si Si1 0.848365 0.451650 0.412220
Si Si2 0.940249 0.162957 0.908099
Si Si3 0.277406 0.285868 0.061623
Si Si4 0.582144 0.589593 0.983693
Si Si5 0.057073 0.068085 0.722731
Si Si6 0.225633 0.624218 0.825052
Si Si7 0.454912 0.727261 0.106081
O O1 0.750000 0.500000 0.443518
O O2 0.901466 0.415601 0.531124
O O3 0.919319 0.506688 0.331084
O O4 0.812884 0.383307 0.317564
O O5 0.843253 0.215533 0.892649
O O6 0.004142 0.141818 0.786258
O O7 0.009498 0.206549 0.010031
O O8 0.337473 0.362284 0.100707
O O9 0.163812 0.282326 0.100566
O O10 0.282590 0.298145 0.907080
O O11 0.517377 0.540357 0.887366
O O12 0.655722 0.564479 0.096064
O O13 0.508499 0.650643 0.052806
O O14 0.161376 0.098605 0.671130
O O15 0.483425 0.750000 0.250000
#
# Coordination Sequence:
#
# PCOD9412332 Si02
#       7
#     8   8   8   8   8   8   8
#     4  10  23  42  65  91 131 176 222 267 311 394
#     4  11  25  40  63  99 124 175 216 268 332 388
#     4   9  22  37  60  96 127 157 209 276 321 392
#     4   9  19  40  61  95 124 163 213 261 321 391
#     4  11  22  41  66  92 130 177 216 266 319 393
#     4   9  20  41  64  92 127 168 218 267 323 392
#     4  11  22  38  62  93 131 163 200 272 332 387
#
# _framework density 22.594982000000002
#
# number of rings (size 3 to 8) (size 9 to 14) (size 15 to 20)
#    0.857    1.143    1.429    1.286    6.000    2.286 
#    0.000    0.000    0.000    2.571    0.000    0.000 
#    0.000    0.000    0.000    0.000    0.000    0.000 
#
# Total GULP energy -312558.241945 kJ/mol
# GULP energy per Si atom -5581.397178 kJ/mol
# Density = 2.254355 g / cm^3
# Si number density = 22.594982 Si / 1000 Ang^3
#
#
#
# Elastic Constant Matrix: (Units=GPa)
#
#
# Indices 1 2 3 4 5 6 
#
# 1 165.8311 25.9402 43.6585 0.0000 0.0000 0.0000
# 2 25.9402 49.5835 5.1548 0.0000 0.0000 0.0000
# 3 43.6585 5.1548 41.9095 0.0000 0.0000 0.0000
# 4 0.0000 0.0000 0.0000 35.8872 0.0000 0.0000
# 5 0.0000 0.0000 0.0000 0.0000 39.7856 0.0000
# 6 0.0000 0.0000 0.0000 0.0000 0.0000 18.0139
#
#
#
# Elastic Compliance Matrix: (Units=1/GPa)
#
#
# Indices 1 2 3 4 5 6 
#
# 1 0.008952 -0.003762 -0.008863 0.000000 0.000000 0.000000
# 2 -0.003762 0.022010 0.001212 0.000000 0.000000 0.000000
# 3 -0.008863 0.001212 0.032945 0.000000 0.000000 0.000000
# 4 0.000000 0.000000 0.000000 0.027865 0.000000 0.000000
# 5 0.000000 0.000000 0.000000 0.000000 0.025135 0.000000
# 6 0.000000 0.000000 0.000000 0.000000 0.000000 0.055513
#
#
# Mechanical properties :
#
#
# Convention : Reuss Voigt Hill
#
# Bulk Modulus (GPa) = 24.34240 45.20345 34.77292
# Shear Modulus (GPa) = 23.93041 30.90871 27.41956
#
# Velocity S-wave (km/s) = 3.25792 3.70259 3.48735
# Velocity P-wave (km/s) = 4.99488 6.19098 5.62481
#
# Compressibility (1/GPa) = 0.04108059
#
# Stress axis : x y z
#
# Youngs Moduli (GPa) = 111.70630 45.43356 30.35388
#
# Poissons Ratio (x) = 0.17092 0.26902
# Poissons Ratio (y) = 0.42023 -0.03678
# Poissons Ratio (z) = 0.99004 -0.05505
#
# Static dielectric constant tensor:
#      x y z
#    x 1.813330 0.000000 0.000000 
#    y 0.000000 1.875400 0.000000 
#    z 0.000000 0.000000 1.909070 
# 
# From -- ./inp_files/18344.got.cif
#   From: 2010.05.17/outbox.cif.g08.bks.cpg/sg52_10_cif.got.tgz:18344.got - 2010.06.03 12:15:38.
