data_PCOD9412745
_publ_section_title
;
Structure prediction by ZEFSAII (Michael W. Deem and Ramdas Pophale) SiO2 
 PCOD9412745
Probable space group: P N N A
;
_chemical_formula_sum "Si O2"
_cell_formula_units_Z 40
_cell_length_a 9.949498
_cell_length_b 14.100466
_cell_length_c 12.951756
_cell_angle_alpha 90.000000
_cell_angle_beta 90.000000
_cell_angle_gamma 90.000000
_cell_volume 1817.034983
_symmetry_space_group_name_H-M "P N N A"
_symmetry_group_IT_number 52
_symmetry_cell_setting 'orthorhombic'
loop_
_space_group_symop_operation_xyz
x,y,z
1/2-x,-y,z
x,1/2-y,1/2-z
1/2-x,1/2+y,1/2-z
-x,-y,-z
1/2+x,y,-z
-x,1/2+y,1/2+z
1/2+x,1/2-y,1/2+z
loop_
_atom_site_type_symbol
_atom_site_label
_atom_site_fract_x
_atom_site_fract_y
_atom_site_fract_z
Si Si1 0.518058 0.432833 0.731443
Si Si2 0.394837 0.046446 0.421967
Si Si3 0.326196 0.750000 0.250000
Si Si4 0.750000 0.000000 0.158694
Si Si5 0.827429 0.263725 0.551632
Si Si6 0.412101 0.875233 0.001961
O O1 0.563569 0.519435 0.804221
O O2 0.577542 0.336591 0.783475
O O3 0.355743 0.436821 0.723417
O O4 0.579531 0.425439 0.614946
O O5 0.380491 0.157429 0.445818
O O6 0.250000 0.000000 0.438669
O O7 0.500000 0.000000 0.500000
O O8 0.224392 0.712992 0.334809
O O9 0.850834 0.942990 0.084223
O O10 0.687879 0.284647 0.493582
O O11 0.939404 0.336830 0.516303
#
# Coordination Sequence:
#
# PCOD9412745 Si02
#       6
#     8   8   4   4   8   8
#     4  11  26  46  72 108 146 198 245 317 382 451
#     4  12  27  47  73 103 147 196 250 306 375 459
#     4  10  24  46  72  98 150 194 250 294 390 450
#     4  12  26  44  74 112 148 188 256 322 374 470
#     4  11  24  46  71 107 141 195 242 308 375 457
#     4  11  25  46  77 107 151 190 253 316 388 454
#
# _framework density 22.013885999999999
#
# number of rings (size 3 to 8) (size 9 to 14) (size 15 to 20)
#    0.000    0.800    4.000    1.800    8.400    0.000 
#    3.600    0.000    0.000    0.000    0.000    0.000 
#    0.000    0.000    0.000    0.000    0.000    0.000 
#
# Total GULP energy -223269.576482 kJ/mol
# GULP energy per Si atom -5581.739412 kJ/mol
# Density = 2.196378 g / cm^3
# Si number density = 22.013886 Si / 1000 Ang^3
#
#
#
# Elastic Constant Matrix: (Units=GPa)
#
#
# Indices 1 2 3 4 5 6 
#
# 1 144.6820 28.1831 50.5165 0.0000 0.0000 0.0000
# 2 28.1831 93.4754 36.9134 0.0000 0.0000 0.0000
# 3 50.5165 36.9134 71.4754 0.0000 0.0000 0.0000
# 4 0.0000 0.0000 0.0000 21.3829 0.0000 0.0000
# 5 0.0000 0.0000 0.0000 0.0000 29.5756 0.0000
# 6 0.0000 0.0000 0.0000 0.0000 0.0000 52.4226
#
#
#
# Elastic Compliance Matrix: (Units=1/GPa)
#
#
# Indices 1 2 3 4 5 6 
#
# 1 0.009181 -0.000258 -0.006355 0.000000 0.000000 0.000000
# 2 -0.000258 0.013446 -0.006762 0.000000 0.000000 0.000000
# 3 -0.006355 -0.006762 0.021975 0.000000 0.000000 0.000000
# 4 0.000000 0.000000 0.000000 0.046766 0.000000 0.000000
# 5 0.000000 0.000000 0.000000 0.000000 0.033812 0.000000
# 6 0.000000 0.000000 0.000000 0.000000 0.000000 0.019076
#
#
# Mechanical properties :
#
#
# Convention : Reuss Voigt Hill
#
# Bulk Modulus (GPa) = 56.01936 60.09544 58.05740
# Shear Modulus (GPa) = 28.25547 33.61086 30.93317
#
# Velocity S-wave (km/s) = 3.58652 3.91167 3.75262
# Velocity P-wave (km/s) = 6.53096 6.91084 6.72358
#
# Compressibility (1/GPa) = 0.01785097
#
# Stress axis : x y z
#
# Youngs Moduli (GPa) = 108.91962 74.37127 45.50684
#
# Poissons Ratio (x) = 0.01921 0.28922
# Poissons Ratio (y) = 0.02814 0.30770
# Poissons Ratio (z) = 0.69224 0.50287
#
# Static dielectric constant tensor:
#      x y z
#    x 1.804850 0.000000 0.000000 
#    y 0.000000 1.891730 0.000000 
#    z 0.000000 0.000000 1.906340 
# 
# From -- ./inp_files/24486.got.cif
#   From: 2010.05.17/outbox.cif.g08.bks.cpg/sg52_13_cif.got.tgz:24486.got - 2010.06.03 12:15:38.
