data_PCOD9412193
_publ_section_title
;
Structure prediction by ZEFSAII (Michael W. Deem and Ramdas Pophale) SiO2 
 PCOD9412193
Probable space group: P N N A
;
_chemical_formula_sum "Si O2"
_cell_formula_units_Z 40
_cell_length_a 23.196376
_cell_length_b 13.870274
_cell_length_c 5.362478
_cell_angle_alpha 90.000000
_cell_angle_beta 90.000000
_cell_angle_gamma 90.000000
_cell_volume 1725.324159
_symmetry_space_group_name_H-M "P N N A"
_symmetry_group_IT_number 52
_symmetry_cell_setting 'orthorhombic'
loop_
_space_group_symop_operation_xyz
x,y,z
1/2-x,-y,z
x,1/2-y,1/2-z
1/2-x,1/2+y,1/2-z
-x,-y,-z
1/2+x,y,-z
-x,1/2+y,1/2+z
1/2+x,1/2-y,1/2+z
loop_
_atom_site_type_symbol
_atom_site_label
_atom_site_fract_x
_atom_site_fract_y
_atom_site_fract_z
Si Si1 0.093083 0.024068 0.406693
Si Si2 0.883080 0.160436 0.932877
Si Si3 0.799779 0.847704 0.647814
Si Si4 0.264920 0.110738 0.831931
Si Si5 0.482405 0.414957 0.688585
O O1 0.151117 0.081614 0.449920
O O2 0.043435 0.099954 0.322435
O O3 0.110822 0.940752 0.212886
O O4 0.063084 0.965062 0.626698
O O5 0.871500 0.250000 0.750000
O O6 0.830955 0.141668 0.123601
O O7 0.946558 0.169192 0.056763
O O8 0.827875 0.750000 0.750000
O O9 0.758461 0.832726 0.411041
O O10 0.764851 0.880143 0.894294
O O11 0.250000 0.000000 0.763128
O O12 0.500000 0.500000 0.500000
#
# Coordination Sequence:
#
# PCOD9412193 Si02
#       5
#     8   8   8   8   8
#     4  10  22  46  72 101 146 193 239 307 367 449
#     4  11  24  43  71 107 142 189 245 305 371 440
#     4  12  27  47  71 107 145 194 249 302 367 445
#     4  12  25  47  74 101 148 196 245 304 376 438
#     4   9  21  44  71 101 141 186 243 296 374 439
#
# _framework density 23.184049999999999
#
# number of rings (size 3 to 8) (size 9 to 14) (size 15 to 20)
#    0.000    1.200    2.000    3.000    5.600    0.800 
#   10.800    0.000    0.000    0.000    0.000    0.000 
#    0.000    0.000    0.000    0.000    0.000    0.000 
#
# Total GULP energy -223383.488074 kJ/mol
# GULP energy per Si atom -5584.587202 kJ/mol
# Density = 2.313128 g / cm^3
# Si number density = 23.184050 Si / 1000 Ang^3
#
#
#
# Elastic Constant Matrix: (Units=GPa)
#
#
# Indices 1 2 3 4 5 6 
#
# 1 162.1914 36.2678 59.4337 0.0000 0.0000 0.0000
# 2 36.2678 68.5849 13.0381 0.0000 0.0000 0.0000
# 3 59.4337 13.0381 111.6989 0.0000 0.0000 0.0000
# 4 0.0000 0.0000 0.0000 27.0968 0.0000 0.0000
# 5 0.0000 0.0000 0.0000 0.0000 33.7714 0.0000
# 6 0.0000 0.0000 0.0000 0.0000 0.0000 21.6508
#
#
#
# Elastic Compliance Matrix: (Units=1/GPa)
#
#
# Indices 1 2 3 4 5 6 
#
# 1 0.008493 -0.003715 -0.004086 0.000000 0.000000 0.000000
# 2 -0.003715 0.016536 0.000046 0.000000 0.000000 0.000000
# 3 -0.004086 0.000046 0.011121 0.000000 0.000000 0.000000
# 4 0.000000 0.000000 0.000000 0.036905 0.000000 0.000000
# 5 0.000000 0.000000 0.000000 0.000000 0.029611 0.000000
# 6 0.000000 0.000000 0.000000 0.000000 0.000000 0.046188
#
#
# Mechanical properties :
#
#
# Convention : Reuss Voigt Hill
#
# Bulk Modulus (GPa) = 48.44338 62.21716 55.33027
# Shear Modulus (GPa) = 29.19839 32.08617 30.64228
#
# Velocity S-wave (km/s) = 3.55268 3.72422 3.63946
# Velocity P-wave (km/s) = 6.14566 6.73703 6.44813
#
# Compressibility (1/GPa) = 0.02064265
#
# Stress axis : x y z
#
# Youngs Moduli (GPa) = 117.73947 60.47425 89.91880
#
# Poissons Ratio (x) = 0.22464 0.36737
# Poissons Ratio (y) = 0.43736 -0.00417
# Poissons Ratio (z) = 0.48104 -0.00280
#
# Static dielectric constant tensor:
#      x y z
#    x 1.895070 0.000000 0.000000 
#    y 0.000000 1.913510 0.000000 
#    z 0.000000 0.000000 1.892580 
# 
# From -- ./inp_files/5028.got.cif
#   From: 2010.05.17/outbox.cif.g08.bks.cpg/sg52_3_cif.got.tgz:5028.got - 2010.06.03 12:15:38.
