data_PCOD9412709
_publ_section_title
;
Structure prediction by ZEFSAII (Michael W. Deem and Ramdas Pophale) SiO2 
 PCOD9412709
Probable space group: P N N A
;
_chemical_formula_sum "Si O2"
_cell_formula_units_Z 32
_cell_length_a 17.044142
_cell_length_b 14.996173
_cell_length_c 4.691030
_cell_angle_alpha 90.000000
_cell_angle_beta 90.000000
_cell_angle_gamma 90.000000
_cell_volume 1199.012736
_symmetry_space_group_name_H-M "P N N A"
_symmetry_group_IT_number 52
_symmetry_cell_setting 'orthorhombic'
loop_
_space_group_symop_operation_xyz
x,y,z
1/2-x,-y,z
x,1/2-y,1/2-z
1/2-x,1/2+y,1/2-z
-x,-y,-z
1/2+x,y,-z
-x,1/2+y,1/2+z
1/2+x,1/2-y,1/2+z
loop_
_atom_site_type_symbol
_atom_site_label
_atom_site_fract_x
_atom_site_fract_y
_atom_site_fract_z
Si Si1 0.861289 0.750000 0.750000
Si Si2 0.342060 0.008498 0.503151
Si Si3 0.134256 0.883704 0.996584
Si Si4 0.242094 0.250000 0.750000
Si Si5 0.467437 0.907943 0.149075
O O1 0.808605 0.793589 0.502031
O O2 0.909509 0.825403 0.921910
O O3 0.345271 0.021964 0.841690
O O4 0.250000 0.000000 0.426607
O O5 0.415505 0.945980 0.413468
O O6 0.366319 0.098725 0.331542
O O7 0.203425 0.819933 0.908270
O O8 0.051042 0.857475 0.864411
O O9 0.500000 0.000000 0.000000
#
# Coordination Sequence:
#
# PCOD9412709 Si02
#       5
#     4   8   8   4   8
#     4  12  27  46  69 100 138 180 236 298 357 434
#     4  11  22  39  65  95 130 175 224 275 339 413
#     4  11  23  40  64  93 131 174 220 278 341 412
#     4  12  25  44  67 100 138 182 234 292 359 426
#     4  10  24  45  70 103 140 186 237 295 364 435
#
# _framework density 26.688621000000001
#
# number of rings (size 3 to 8) (size 9 to 14) (size 15 to 20)
#    0.000    1.000    0.000    6.750    0.000   10.000 
#    0.000    2.500    0.000    0.000    0.000    0.000 
#    0.000    0.000    0.000    0.000    0.000    0.000 
#
# Total GULP energy -178247.979087 kJ/mol
# GULP energy per Si atom -5570.249346 kJ/mol
# Density = 2.662788 g / cm^3
# Si number density = 26.688621 Si / 1000 Ang^3
#
#
#
# Elastic Constant Matrix: (Units=GPa)
#
#
# Indices 1 2 3 4 5 6 
#
# 1 183.5964 20.7969 35.1793 0.0000 0.0000 0.0000
# 2 20.7969 74.5683 -1.8612 0.0000 0.0000 0.0000
# 3 35.1793 -1.8612 76.6749 0.0000 0.0000 0.0000
# 4 0.0000 0.0000 0.0000 29.7411 0.0000 0.0000
# 5 0.0000 0.0000 0.0000 0.0000 24.3439 0.0000
# 6 0.0000 0.0000 0.0000 0.0000 0.0000 45.2939
#
#
#
# Elastic Compliance Matrix: (Units=1/GPa)
#
#
# Indices 1 2 3 4 5 6 
#
# 1 0.006205 -0.001803 -0.002891 0.000000 0.000000 0.000000
# 2 -0.001803 0.013942 0.001166 0.000000 0.000000 0.000000
# 3 -0.002891 0.001166 0.014397 0.000000 0.000000 0.000000
# 4 0.000000 0.000000 0.000000 0.033624 0.000000 0.000000
# 5 0.000000 0.000000 0.000000 0.000000 0.041078 0.000000
# 6 0.000000 0.000000 0.000000 0.000000 0.000000 0.022078
#
#
# Mechanical properties :
#
#
# Convention : Reuss Voigt Hill
#
# Bulk Modulus (GPa) = 36.37912 49.22998 42.80455
# Shear Modulus (GPa) = 33.88876 38.59075 36.23975
#
# Velocity S-wave (km/s) = 3.56727 3.80671 3.68893
# Velocity P-wave (km/s) = 5.53423 6.14878 5.84958
#
# Compressibility (1/GPa) = 0.02748829
#
# Stress axis : x y z
#
# Youngs Moduli (GPa) = 161.16558 71.72384 69.46085
#
# Poissons Ratio (x) = 0.12929 0.20078
# Poissons Ratio (y) = 0.29053 -0.08096
# Poissons Ratio (z) = 0.46586 -0.08359
#
# Static dielectric constant tensor:
#      x y z
#    x 2.120530 0.000000 0.000000 
#    y 0.000000 2.221760 0.000000 
#    z 0.000000 0.000000 2.054120 
# 
# From -- ./inp_files/1985.got.cif
#   From: 2010.05.17/outbox.cif.g08.bks.cpg/sg52_1_cif.got.tgz:1985.got - 2010.06.03 12:15:38.
