data_PCOD9412114
_publ_section_title
;
Structure prediction by ZEFSAII (Michael W. Deem and Ramdas Pophale) SiO2 
 PCOD9412114
Probable space group: P N N A
;
_chemical_formula_sum "Si O2"
_cell_formula_units_Z 44
_cell_length_a 13.563701
_cell_length_b 9.216573
_cell_length_c 17.861907
_cell_angle_alpha 90.000000
_cell_angle_beta 90.000000
_cell_angle_gamma 90.000000
_cell_volume 2232.932006
_symmetry_space_group_name_H-M "P N N A"
_symmetry_group_IT_number 52
_symmetry_cell_setting 'orthorhombic'
loop_
_space_group_symop_operation_xyz
x,y,z
1/2-x,-y,z
x,1/2-y,1/2-z
1/2-x,1/2+y,1/2-z
-x,-y,-z
1/2+x,y,-z
-x,1/2+y,1/2+z
1/2+x,1/2-y,1/2+z
loop_
_atom_site_type_symbol
_atom_site_label
_atom_site_fract_x
_atom_site_fract_y
_atom_site_fract_z
Si Si1 0.635606 0.520857 0.766487
Si Si2 0.496904 0.750000 0.250000
Si Si3 0.064514 0.831136 0.909693
Si Si4 0.396205 0.213794 0.128775
Si Si5 0.776569 0.168536 0.494070
Si Si6 0.410345 0.644484 0.533171
O O1 0.750000 0.500000 0.784111
O O2 0.573772 0.377074 0.779187
O O3 0.593707 0.647914 0.817872
O O4 0.627306 0.577069 0.681129
O O5 0.556036 0.814887 0.179322
O O6 0.128994 0.697586 0.940932
O O7 0.113467 0.979837 0.941575
O O8 0.957237 0.840592 0.949843
O O9 0.497630 0.189037 0.085129
O O10 0.309773 0.253741 0.070993
O O11 0.682666 0.252085 0.461119
O O12 0.750000 0.000000 0.504450
#
# Coordination Sequence:
#
# PCOD9412114 Si02
#       6
#     8   4   8   8   8   8
#     4  11  24  38  64  97 133 167 207 267 336 394
#     4  12  24  42  66  94 134 168 218 272 324 398
#     4  10  24  42  64  97 126 176 216 264 333 386
#     4  10  23  42  61  98 129 170 210 262 336 386
#     4  11  25  40  67  96 127 170 225 271 319 383
#     4  10  22  44  67  89 133 173 216 270 317 393
#
# _framework density 19.705034000000001
#
# number of rings (size 3 to 8) (size 9 to 14) (size 15 to 20)
#    0.000    1.455    1.818    2.182   10.182    1.455 
#    0.000    3.636    0.000    0.000    0.000    0.000 
#    0.000    0.000    0.000    0.000    0.000    0.000 
#
# Total GULP energy -245751.602215 kJ/mol
# GULP energy per Si atom -5585.263687 kJ/mol
# Density = 1.966018 g / cm^3
# Si number density = 19.705034 Si / 1000 Ang^3
#
#
#
# Elastic Constant Matrix: (Units=GPa)
#
#
# Indices 1 2 3 4 5 6 
#
# 1 50.0517 25.1242 10.4943 0.0000 0.0000 0.0000
# 2 25.1242 90.8671 11.8163 0.0000 0.0000 0.0000
# 3 10.4943 11.8163 88.7289 0.0000 0.0000 0.0000
# 4 0.0000 0.0000 0.0000 28.3281 0.0000 0.0000
# 5 0.0000 0.0000 0.0000 0.0000 -8.6144 0.0000
# 6 0.0000 0.0000 0.0000 0.0000 0.0000 30.1564
#
#
#
# Elastic Compliance Matrix: (Units=1/GPa)
#
#
# Indices 1 2 3 4 5 6 
#
# 1 0.023526 -0.006251 -0.001950 0.000000 0.000000 0.000000
# 2 -0.006251 0.012860 -0.000973 0.000000 0.000000 0.000000
# 3 -0.001950 -0.000973 0.011631 0.000000 0.000000 0.000000
# 4 0.000000 0.000000 0.000000 0.035301 0.000000 0.000000
# 5 0.000000 0.000000 0.000000 0.000000 -0.116085 0.000000
# 6 0.000000 0.000000 0.000000 0.000000 0.000000 0.033160
#
#
# Mechanical properties :
#
#
# Convention : Reuss Voigt Hill
#
# Bulk Modulus (GPa) = 33.70673 36.05747 34.88210
# Shear Modulus (GPa) = 174.63233 22.12153 98.37693
#
# Velocity S-wave (km/s) = 9.42420 3.35421 7.07341
# Velocity P-wave (km/s) = 11.64318 5.77402 9.18975
#
# Compressibility (1/GPa) = 0.02966767
#
# Stress axis : x y z
#
# Youngs Moduli (GPa) = 42.50600 77.76002 85.98058
#
# Poissons Ratio (x) = 0.48610 0.16766
# Poissons Ratio (y) = 0.26572 0.08368
# Poissons Ratio (z) = 0.08289 0.07568
#
# Static dielectric constant tensor:
#      x y z
#    x 1.654860 0.000000 0.000000 
#    y 0.000000 1.727840 0.000000 
#    z 0.000000 0.000000 1.728360 
# 
# From -- ./inp_files/32957.got.cif
#   From: 2010.05.17/outbox.cif.g08.bks.cpg/sg52_17_cif.got.tgz:32957.got - 2010.06.03 12:15:38.
