data_PCOD9412140
_publ_section_title
;
Structure prediction by ZEFSAII (Michael W. Deem and Ramdas Pophale) SiO2 
 PCOD9412140
Probable space group: P N N A
;
_chemical_formula_sum "Si O2"
_cell_formula_units_Z 32
_cell_length_a 18.735059
_cell_length_b 12.929388
_cell_length_c 5.266060
_cell_angle_alpha 90.000000
_cell_angle_beta 90.000000
_cell_angle_gamma 90.000000
_cell_volume 1275.612706
_symmetry_space_group_name_H-M "P N N A"
_symmetry_group_IT_number 52
_symmetry_cell_setting 'orthorhombic'
loop_
_space_group_symop_operation_xyz
x,y,z
1/2-x,-y,z
x,1/2-y,1/2-z
1/2-x,1/2+y,1/2-z
-x,-y,-z
1/2+x,y,-z
-x,1/2+y,1/2+z
1/2+x,1/2-y,1/2+z
loop_
_atom_site_type_symbol
_atom_site_label
_atom_site_fract_x
_atom_site_fract_y
_atom_site_fract_z
Si Si1 0.205962 0.627822 0.247057
Si Si2 0.948070 0.858397 0.395171
Si Si3 0.201910 0.372603 0.741554
Si Si4 0.936747 0.001272 0.794087
O O1 0.186225 0.750000 0.250000
O O2 0.261332 0.610264 0.474490
O O3 0.138907 0.556655 0.313776
O O4 0.244491 0.606681 0.976496
O O5 0.957002 0.750000 0.250000
O O6 0.927449 0.883409 0.688991
O O7 0.023935 0.915272 0.391845
O O8 0.878663 0.915288 0.267988
O O9 0.189232 0.250000 0.750000
O O10 0.000000 0.000000 0.000000
#
# Coordination Sequence:
#
# PCOD9412140 Si02
#       4
#     8   8   8   8
#     4  10  22  44  71 103 141 187 241 303 369 449
#     4  10  24  47  68  99 144 190 243 304 372 452
#     4   9  21  42  72 101 137 187 240 296 372 442
#     4  11  26  43  67 106 142 190 247 301 377 450
#
# _framework density 25.085985999999998
#
# number of rings (size 3 to 8) (size 9 to 14) (size 15 to 20)
#    0.000    2.000    0.000    0.750   10.500    2.000 
#    4.500    0.000    0.000    0.000    0.000    0.000 
#    0.000    0.000    0.000    0.000    0.000    0.000 
#
# Total GULP energy -178365.438197 kJ/mol
# GULP energy per Si atom -5573.919944 kJ/mol
# Density = 2.502889 g / cm^3
# Si number density = 25.085986 Si / 1000 Ang^3
#
#
#
# Elastic Constant Matrix: (Units=GPa)
#
#
# Indices 1 2 3 4 5 6 
#
# 1 177.7962 43.1667 42.0159 0.0000 0.0000 0.0000
# 2 43.1667 167.1659 24.8521 0.0000 0.0000 0.0000
# 3 42.0159 24.8521 124.7072 0.0000 0.0000 0.0000
# 4 0.0000 0.0000 0.0000 -12.0053 0.0000 0.0000
# 5 0.0000 0.0000 0.0000 0.0000-2737.4501 0.0000
# 6 0.0000 0.0000 0.0000 0.0000 0.0000 40.2752
#
#
#
# Elastic Compliance Matrix: (Units=1/GPa)
#
#
# Indices 1 2 3 4 5 6 
#
# 1 0.006403 -0.001373 -0.001884 0.000000 0.000000 0.000000
# 2 -0.001373 0.006459 -0.000825 0.000000 0.000000 0.000000
# 3 -0.001884 -0.000825 0.008818 0.000000 0.000000 0.000000
# 4 0.000000 0.000000 0.000000 -0.083296 0.000000 0.000000
# 5 0.000000 0.000000 0.000000 0.000000 -0.000365 0.000000
# 6 0.000000 0.000000 0.000000 0.000000 0.000000 0.024829
#
#
# Mechanical properties :
#
#
# Convention : Reuss Voigt Hill
#
# Bulk Modulus (GPa) = 73.98078 76.63762 75.30920
# Shear Modulus (GPa) = -204.21636 -517.86040 -361.03838
#
# Velocity S-wave (km/s) = -9.03235 -14.38340 -12.00970
# Velocity P-wave (km/s) = 8.90072 15.65972 12.73675
#
# Compressibility (1/GPa) = 0.01351702
#
# Stress axis : x y z
#
# Youngs Moduli (GPa) = 156.17739 154.81535 113.40825
#
# Poissons Ratio (x) = 0.21262 0.21361
# Poissons Ratio (y) = 0.21449 0.09351
# Poissons Ratio (z) = 0.29417 0.12765
#
# Static dielectric constant tensor:
#      x y z
#    x 1.973390 0.000000 0.000000 
#    y 0.000000 2.092290 0.000000 
#    z 0.000000 0.000000 2.269150 
# 
# From -- ./inp_files/3067.got.cif
#   From: 2010.05.17/outbox.cif.g08.bks.cpg/sg52_2_cif.got.tgz:3067.got - 2010.06.03 12:15:38.
