data_PCOD9412813
_publ_section_title
;
Structure prediction by ZEFSAII (Michael W. Deem and Ramdas Pophale) SiO2 
 PCOD9412813
Probable space group: P N N A
;
_chemical_formula_sum "Si O2"
_cell_formula_units_Z 36
_cell_length_a 20.142447
_cell_length_b 13.362336
_cell_length_c 5.331157
_cell_angle_alpha 90.000000
_cell_angle_beta 90.000000
_cell_angle_gamma 90.000000
_cell_volume 1434.881678
_symmetry_space_group_name_H-M "P N N A"
_symmetry_group_IT_number 52
_symmetry_cell_setting 'orthorhombic'
loop_
_space_group_symop_operation_xyz
x,y,z
1/2-x,-y,z
x,1/2-y,1/2-z
1/2-x,1/2+y,1/2-z
-x,-y,-z
1/2+x,y,-z
-x,1/2+y,1/2+z
1/2+x,1/2-y,1/2+z
loop_
_atom_site_type_symbol
_atom_site_label
_atom_site_fract_x
_atom_site_fract_y
_atom_site_fract_z
Si Si1 0.148577 0.062529 0.984860
Si Si2 0.239411 0.607541 0.893189
Si Si3 0.622203 0.861589 0.690070
Si Si4 0.679925 0.250000 0.750000
Si Si5 0.015053 0.061561 0.746472
O O1 0.093171 0.079209 0.770089
O O2 0.219933 0.089578 0.862291
O O3 0.136046 0.155964 0.167061
O O4 0.142261 0.955372 0.126093
O O5 0.250000 0.500000 0.028180
O O6 0.159911 0.619630 0.922752
O O7 0.274461 0.698231 0.036833
O O8 0.645841 0.750000 0.750000
O O9 0.542883 0.857778 0.716304
O O10 0.000000 0.000000 0.500000
O O11 0.000000 0.000000 0.000000
#
# Coordination Sequence:
#
# PCOD9412813 Si02
#       5
#     8   8   8   4   8
#     4  11  27  48  80 117 161 216 271 332 411 503
#     4  12  25  44  75 109 157 205 269 322 409 477
#     4  11  25  50  77 116 159 208 268 335 410 478
#     4  12  26  46  74 114 158 208 272 330 404 502
#     4  10  24  52  79 112 158 208 273 334 401 485
#
# _framework density 25.089175000000001
#
# number of rings (size 3 to 8) (size 9 to 14) (size 15 to 20)
#    0.000    0.889    3.333    2.000    6.222    3.556 
#    0.000    7.778    0.000    0.000    0.000    0.000 
#    0.000    0.000    0.000    0.000    0.000    0.000 
#
# Total GULP energy -200629.901842 kJ/mol
# GULP energy per Si atom -5573.052829 kJ/mol
# Density = 2.503207 g / cm^3
# Si number density = 25.089175 Si / 1000 Ang^3
#
#
#
# Elastic Constant Matrix: (Units=GPa)
#
#
# Indices 1 2 3 4 5 6 
#
# 1 90.6145 42.4799 23.1358 0.0000 0.0000 0.0000
# 2 42.4799 210.6347 48.6248 0.0000 0.0000 0.0000
# 3 23.1358 48.6248 100.7447 0.0000 0.0000 0.0000
# 4 0.0000 0.0000 0.0000 24.9198 0.0000 0.0000
# 5 0.0000 0.0000 0.0000 0.0000 29.5559 0.0000
# 6 0.0000 0.0000 0.0000 0.0000 0.0000 32.9002
#
#
#
# Elastic Compliance Matrix: (Units=1/GPa)
#
#
# Indices 1 2 3 4 5 6 
#
# 1 0.012490 -0.002090 -0.001860 0.000000 0.000000 0.000000
# 2 -0.002090 0.005692 -0.002268 0.000000 0.000000 0.000000
# 3 -0.001860 -0.002268 0.011448 0.000000 0.000000 0.000000
# 4 0.000000 0.000000 0.000000 0.040129 0.000000 0.000000
# 5 0.000000 0.000000 0.000000 0.000000 0.033834 0.000000
# 6 0.000000 0.000000 0.000000 0.000000 0.000000 0.030395
#
#
# Mechanical properties :
#
#
# Convention : Reuss Voigt Hill
#
# Bulk Modulus (GPa) = 58.15213 70.05276 64.10244
# Shear Modulus (GPa) = 32.86136 36.65874 34.76005
#
# Velocity S-wave (km/s) = 3.62302 3.82663 3.72621
# Velocity P-wave (km/s) = 6.38202 6.89248 6.64215
#
# Compressibility (1/GPa) = 0.01719628
#
# Stress axis : x y z
#
# Youngs Moduli (GPa) = 80.06258 175.67087 87.35425
#
# Poissons Ratio (x) = 0.36709 0.16246
# Poissons Ratio (y) = 0.16730 0.19808
# Poissons Ratio (z) = 0.14890 0.39835
#
# Static dielectric constant tensor:
#      x y z
#    x 2.321290 0.000000 0.000000 
#    y 0.000000 2.150040 0.000000 
#    z 0.000000 0.000000 2.177720 
# 
# From -- ./inp_files/4857.got.cif
#   From: 2010.05.17/outbox.cif.g08.bks.cpg/sg52_3_cif.got.tgz:4857.got - 2010.06.03 12:15:38.
