data_PCOD9412468
_publ_section_title
;
Structure prediction by ZEFSAII (Michael W. Deem and Ramdas Pophale) SiO2 
 PCOD9412468
Probable space group: P N N A
;
_chemical_formula_sum "Si O2"
_cell_formula_units_Z 40
_cell_length_a 9.431753
_cell_length_b 14.427051
_cell_length_c 14.532534
_cell_angle_alpha 90.000000
_cell_angle_beta 90.000000
_cell_angle_gamma 90.000000
_cell_volume 1977.476511
_symmetry_space_group_name_H-M "P N N A"
_symmetry_group_IT_number 52
_symmetry_cell_setting 'orthorhombic'
loop_
_space_group_symop_operation_xyz
x,y,z
1/2-x,-y,z
x,1/2-y,1/2-z
1/2-x,1/2+y,1/2-z
-x,-y,-z
1/2+x,y,-z
-x,1/2+y,1/2+z
1/2+x,1/2-y,1/2+z
loop_
_atom_site_type_symbol
_atom_site_label
_atom_site_fract_x
_atom_site_fract_y
_atom_site_fract_z
Si Si1 0.597383 0.968465 0.115706
Si Si2 0.487250 0.352240 0.446135
Si Si3 0.144660 0.585573 0.817288
Si Si4 0.893065 0.554840 0.932561
Si Si5 0.247449 0.226946 0.529569
O O1 0.643522 0.913198 0.207143
O O2 0.750000 0.000000 0.073942
O O3 0.499971 0.061204 0.125264
O O4 0.516665 0.902849 0.045144
O O5 0.358106 0.279178 0.461154
O O6 0.632379 0.297817 0.432264
O O7 0.250000 0.500000 0.842685
O O8 0.183833 0.671195 0.884157
O O9 0.983033 0.563817 0.841197
O O10 0.750000 0.500000 0.919674
O O11 0.845143 0.652221 0.973930
O O12 0.000000 0.500000 0.000000
#
# Coordination Sequence:
#
# PCOD9412468 Si02
#       5
#     8   8   8   8   8
#     4  10  23  45  65  93 133 182 220 275 354 415
#     4  11  23  42  68  94 127 177 226 277 339 412
#     4  11  23  41  66  96 133 174 224 283 340 405
#     4  12  20  38  62  94 133 175 214 273 345 408
#     4  12  21  38  69  96 126 171 236 275 326 406
#
# _framework density 20.227800999999999
#
# number of rings (size 3 to 8) (size 9 to 14) (size 15 to 20)
#    0.000    0.800    8.000    0.000    0.000    0.800 
#    3.600    0.000    0.000    0.000    0.000    0.000 
#    0.000    0.000    0.000    0.000    0.000    0.000 
#
# Total GULP energy -222876.630139 kJ/mol
# GULP energy per Si atom -5571.915753 kJ/mol
# Density = 2.018176 g / cm^3
# Si number density = 20.227801 Si / 1000 Ang^3
#
#
#
# Elastic Constant Matrix: (Units=GPa)
#
#
# Indices 1 2 3 4 5 6 
#
# 1 111.7879 39.0849 25.5730 0.0000 0.0000 0.0000
# 2 39.0849 96.3701 17.8973 0.0000 0.0000 0.0000
# 3 25.5730 17.8973 52.1704 0.0000 0.0000 0.0000
# 4 0.0000 0.0000 0.0000 15.3296 0.0000 0.0000
# 5 0.0000 0.0000 0.0000 0.0000 25.4566 0.0000
# 6 0.0000 0.0000 0.0000 0.0000 0.0000 45.8995
#
#
#
# Elastic Compliance Matrix: (Units=1/GPa)
#
#
# Indices 1 2 3 4 5 6 
#
# 1 0.011227 -0.003772 -0.004209 0.000000 0.000000 0.000000
# 2 -0.003772 0.012350 -0.002388 0.000000 0.000000 0.000000
# 3 -0.004209 -0.002388 0.022051 0.000000 0.000000 0.000000
# 4 0.000000 0.000000 0.000000 0.065233 0.000000 0.000000
# 5 0.000000 0.000000 0.000000 0.000000 0.039283 0.000000
# 6 0.000000 0.000000 0.000000 0.000000 0.000000 0.021787
#
#
# Mechanical properties :
#
#
# Convention : Reuss Voigt Hill
#
# Bulk Modulus (GPa) = 40.17754 47.27100 43.72427
# Shear Modulus (GPa) = 24.88000 29.18868 27.03434
#
# Velocity S-wave (km/s) = 3.51093 3.80280 3.65978
# Velocity P-wave (km/s) = 6.02836 6.53466 6.28661
#
# Compressibility (1/GPa) = 0.02488953
#
# Stress axis : x y z
#
# Youngs Moduli (GPa) = 89.06946 80.97300 45.35031
#
# Poissons Ratio (x) = 0.30540 0.19090
# Poissons Ratio (y) = 0.33594 0.10829
# Poissons Ratio (z) = 0.37494 0.19335
#
# Static dielectric constant tensor:
#      x y z
#    x 1.738910 0.000000 0.000000 
#    y 0.000000 1.799420 0.000000 
#    z 0.000000 0.000000 1.810600 
# 
# From -- ./inp_files/24411.got.cif
#   From: 2010.05.17/outbox.cif.g08.bks.cpg/sg52_13_cif.got.tgz:24411.got - 2010.06.03 12:15:38.
