data_PCOD9412692
_publ_section_title
;
Structure prediction by ZEFSAII (Michael W. Deem and Ramdas Pophale) SiO2 
 PCOD9412692
Probable space group: P N N A
;
_chemical_formula_sum "Si O2"
_cell_formula_units_Z 40
_cell_length_a 17.766329
_cell_length_b 14.480838
_cell_length_c 6.634982
_cell_angle_alpha 90.000000
_cell_angle_beta 90.000000
_cell_angle_gamma 90.000000
_cell_volume 1706.990658
_symmetry_space_group_name_H-M "P N N A"
_symmetry_group_IT_number 52
_symmetry_cell_setting 'orthorhombic'
loop_
_space_group_symop_operation_xyz
x,y,z
1/2-x,-y,z
x,1/2-y,1/2-z
1/2-x,1/2+y,1/2-z
-x,-y,-z
1/2+x,y,-z
-x,1/2+y,1/2+z
1/2+x,1/2-y,1/2+z
loop_
_atom_site_type_symbol
_atom_site_label
_atom_site_fract_x
_atom_site_fract_y
_atom_site_fract_z
Si Si1 0.644182 0.040327 0.831176
Si Si2 0.335455 0.124285 0.862489
Si Si3 0.750000 0.000000 0.464041
Si Si4 0.421462 0.750000 0.750000
Si Si5 0.706165 0.273604 0.519759
Si Si6 0.491300 0.659843 0.375215
O O1 0.674799 0.121415 0.977392
O O2 0.557382 0.070535 0.813475
O O3 0.687960 0.039097 0.620603
O O4 0.659774 0.945765 0.946893
O O5 0.291998 0.073481 0.679963
O O6 0.422212 0.145453 0.821403
O O7 0.288959 0.213677 0.933558
O O8 0.357051 0.786700 0.593618
O O9 0.473869 0.685448 0.610260
O O10 0.711822 0.250000 0.750000
O O11 0.464902 0.750000 0.250000
#
# Coordination Sequence:
#
# PCOD9412692 Si02
#       6
#     8   8   4   4   8   8
#     4  11  23  48  69 101 143 186 241 298 356 441
#     4  12  26  44  70 110 141 186 249 295 363 437
#     4  12  24  42  78 100 142 188 238 298 364 412
#     4  10  24  44  70  92 144 188 222 288 366 414
#     4  11  24  41  73 104 138 184 241 295 357 438
#     4  11  28  45  69 107 146 190 242 296 369 437
#
# _framework density 23.433050000000001
#
# number of rings (size 3 to 8) (size 9 to 14) (size 15 to 20)
#    0.000    0.800    4.000    3.000    8.400    2.400 
#    0.000    0.000    0.000    0.000    0.000    0.000 
#    0.000    0.000    0.000    0.000    0.000    0.000 
#
# Total GULP energy -223412.252605 kJ/mol
# GULP energy per Si atom -5585.306315 kJ/mol
# Density = 2.337972 g / cm^3
# Si number density = 23.433050 Si / 1000 Ang^3
#
#
#
# Elastic Constant Matrix: (Units=GPa)
#
#
# Indices 1 2 3 4 5 6 
#
# 1 163.2417 14.1563 61.0927 0.0000 0.0000 0.0000
# 2 14.1563 62.0809 40.1953 0.0000 0.0000 0.0000
# 3 61.0927 40.1953 166.1086 0.0000 0.0000 0.0000
# 4 0.0000 0.0000 0.0000 45.0820 0.0000 0.0000
# 5 0.0000 0.0000 0.0000 0.0000 31.4476 0.0000
# 6 0.0000 0.0000 0.0000 0.0000 0.0000 13.7300
#
#
#
# Elastic Compliance Matrix: (Units=1/GPa)
#
#
# Indices 1 2 3 4 5 6 
#
# 1 0.007104 0.000085 -0.002633 0.000000 0.000000 0.000000
# 2 0.000085 0.019102 -0.004654 0.000000 0.000000 0.000000
# 3 -0.002633 -0.004654 0.008115 0.000000 0.000000 0.000000
# 4 0.000000 0.000000 0.000000 0.022182 0.000000 0.000000
# 5 0.000000 0.000000 0.000000 0.000000 0.031799 0.000000
# 6 0.000000 0.000000 0.000000 0.000000 0.000000 0.072833
#
#
# Mechanical properties :
#
#
# Convention : Reuss Voigt Hill
#
# Bulk Modulus (GPa) = 50.20896 69.14663 59.67779
# Shear Modulus (GPa) = 27.44589 36.45107 31.94848
#
# Velocity S-wave (km/s) = 3.42606 3.94831 3.69642
# Velocity P-wave (km/s) = 6.09291 7.09632 6.61368
#
# Compressibility (1/GPa) = 0.01991676
#
# Stress axis : x y z
#
# Youngs Moduli (GPa) = 140.76505 52.35157 123.23238
#
# Poissons Ratio (x) = -0.00445 0.32452
# Poissons Ratio (y) = -0.01198 0.57347
# Poissons Ratio (z) = 0.37069 0.24362
#
# Static dielectric constant tensor:
#      x y z
#    x 1.942180 0.000000 0.000000 
#    y 0.000000 1.973930 0.000000 
#    z 0.000000 0.000000 1.916200 
# 
# From -- ./inp_files/3225.got.cif
#   From: 2010.05.17/outbox.cif.g08.bks.cpg/sg52_2_cif.got.tgz:3225.got - 2010.06.03 12:15:38.
