data_PCOD9412011
_publ_section_title
;
Structure prediction by ZEFSAII (Michael W. Deem and Ramdas Pophale) SiO2 
 PCOD9412011
Probable space group: P N N A
;
_chemical_formula_sum "Si O2"
_cell_formula_units_Z 32
_cell_length_a 10.849873
_cell_length_b 7.929134
_cell_length_c 15.640348
_cell_angle_alpha 90.000000
_cell_angle_beta 90.000000
_cell_angle_gamma 90.000000
_cell_volume 1345.540654
_symmetry_space_group_name_H-M "P N N A"
_symmetry_group_IT_number 52
_symmetry_cell_setting 'orthorhombic'
loop_
_space_group_symop_operation_xyz
x,y,z
1/2-x,-y,z
x,1/2-y,1/2-z
1/2-x,1/2+y,1/2-z
-x,-y,-z
1/2+x,y,-z
-x,1/2+y,1/2+z
1/2+x,1/2-y,1/2+z
loop_
_atom_site_type_symbol
_atom_site_label
_atom_site_fract_x
_atom_site_fract_y
_atom_site_fract_z
Si Si1 0.875192 0.205025 0.347012
Si Si2 0.750000 0.500000 0.437543
Si Si3 0.004665 0.359766 0.836223
Si Si4 0.250000 0.500000 0.104254
Si Si5 0.918165 0.724675 0.516783
O O1 0.895735 0.250000 0.250000
O O2 0.769076 0.331525 0.381242
O O3 0.988491 0.261041 0.405942
O O4 0.888748 0.002723 0.344661
O O5 0.861137 0.543175 0.500047
O O6 0.020882 0.250000 0.750000
O O7 0.865846 0.437364 0.838813
O O8 0.015157 0.272980 0.928660
O O9 0.192040 0.354787 0.043235
#
# Coordination Sequence:
#
# PCOD9412011 Si02
#       5
#     8   4   8   4   8
#     4  11  25  43  65  97 135 176 227 284 341 404
#     4  12  24  40  70 102 136 184 226 280 346 410
#     4  11  24  45  69  97 135 180 229 285 344 409
#     4  10  22  42  72  98 132 184 230 284 348 404
#     4  11  23  44  67  97 137 178 226 281 340 407
#
# _framework density 23.782260999999998
#
# number of rings (size 3 to 8) (size 9 to 14) (size 15 to 20)
#    0.000    1.000    0.000    8.250    0.000    9.000 
#    0.000    5.000    0.000    0.000    0.000    0.000 
#    0.000    0.000    0.000    0.000    0.000    0.000 
#
# Total GULP energy -178789.245345 kJ/mol
# GULP energy per Si atom -5587.163917 kJ/mol
# Density = 2.372813 g / cm^3
# Si number density = 23.782261 Si / 1000 Ang^3
#
#
#
# Elastic Constant Matrix: (Units=GPa)
#
#
# Indices 1 2 3 4 5 6 
#
# 1 110.4495 20.6897 14.4868 0.0000 0.0000 0.0000
# 2 20.6897 88.2475 -3.5803 0.0000 0.0000 0.0000
# 3 14.4868 -3.5803 81.7112 0.0000 0.0000 0.0000
# 4 0.0000 0.0000 0.0000 55.9194 0.0000 0.0000
# 5 0.0000 0.0000 0.0000 0.0000 42.6950 0.0000
# 6 0.0000 0.0000 0.0000 0.0000 0.0000 32.3899
#
#
#
# Elastic Compliance Matrix: (Units=1/GPa)
#
#
# Indices 1 2 3 4 5 6 
#
# 1 0.009735 -0.002357 -0.001829 0.000000 0.000000 0.000000
# 2 -0.002357 0.011922 0.000940 0.000000 0.000000 0.000000
# 3 -0.001829 0.000940 0.012604 0.000000 0.000000 0.000000
# 4 0.000000 0.000000 0.000000 0.017883 0.000000 0.000000
# 5 0.000000 0.000000 0.000000 0.000000 0.023422 0.000000
# 6 0.000000 0.000000 0.000000 0.000000 0.000000 0.030874
#
#
# Mechanical properties :
#
#
# Convention : Reuss Voigt Hill
#
# Bulk Modulus (GPa) = 36.00999 38.17783 37.09391
# Shear Modulus (GPa) = 40.92048 42.78834 41.85441
#
# Velocity S-wave (km/s) = 4.15255 4.24626 4.19967
# Velocity P-wave (km/s) = 6.17786 6.33474 6.25679
#
# Compressibility (1/GPa) = 0.02777007
#
# Stress axis : x y z
#
# Youngs Moduli (GPa) = 102.71899 83.87544 79.34155
#
# Poissons Ratio (x) = 0.19767 0.14514
# Poissons Ratio (y) = 0.24207 -0.07460
# Poissons Ratio (z) = 0.18790 -0.07886
#
# Static dielectric constant tensor:
#      x y z
#    x 2.074290 0.000000 0.000000 
#    y 0.000000 2.602240 0.000000 
#    z 0.000000 0.000000 1.801260 
# 
# From -- ./inp_files/25540.got.cif
#   From: 2010.05.17/outbox.cif.g08.bks.cpg/sg52_13_cif.got.tgz:25540.got - 2010.06.03 12:15:38.
