data_PCOD9412356
_publ_section_title
;
Structure prediction by ZEFSAII (Michael W. Deem and Ramdas Pophale) SiO2 
 PCOD9412356
Probable space group: P N N A
;
_chemical_formula_sum "Si O2"
_cell_formula_units_Z 64
_cell_length_a 9.335382
_cell_length_b 21.867329
_cell_length_c 12.993580
_cell_angle_alpha 90.000000
_cell_angle_beta 90.000000
_cell_angle_gamma 90.000000
_cell_volume 2652.507726
_symmetry_space_group_name_H-M "P N N A"
_symmetry_group_IT_number 52
_symmetry_cell_setting 'orthorhombic'
loop_
_space_group_symop_operation_xyz
x,y,z
1/2-x,-y,z
x,1/2-y,1/2-z
1/2-x,1/2+y,1/2-z
-x,-y,-z
1/2+x,y,-z
-x,1/2+y,1/2+z
1/2+x,1/2-y,1/2+z
loop_
_atom_site_type_symbol
_atom_site_label
_atom_site_fract_x
_atom_site_fract_y
_atom_site_fract_z
Si Si1 0.425052 0.799367 0.904125
Si Si2 0.484333 0.863451 0.429578
Si Si3 0.288971 0.893433 0.773008
Si Si4 0.734746 0.325408 0.076967
Si Si5 0.462939 0.598414 0.293023
Si Si6 0.447401 0.037881 0.181648
Si Si7 0.725543 0.648346 0.583914
Si Si8 0.105689 0.961704 0.426505
O O1 0.386788 0.836072 0.801939
O O2 0.361897 0.732383 0.895678
O O3 0.595292 0.803560 0.920734
O O4 0.331451 0.837841 0.988404
O O5 0.598213 0.809882 0.405258
O O6 0.332611 0.841332 0.467297
O O7 0.463352 0.905434 0.330318
O O8 0.570002 0.896442 0.521581
O O9 0.280031 0.885994 0.649652
O O10 0.381533 0.949383 0.815527
O O11 0.129030 0.888132 0.817743
O O12 0.422778 0.533182 0.341912
O O13 0.343647 0.647111 0.325112
O O14 0.364586 0.085090 0.106812
O O15 0.408290 0.046229 0.302876
O O16 0.250000 0.000000 0.442004
O O17 0.000000 0.000000 0.500000
#
# Coordination Sequence:
#
# PCOD9412356 Si02
#       8
#     8   8   8   8   8   8   8   8
#     4  11  24  47  70  91 129 179 235 303 348 403
#     4  11  24  37  65 100 139 174 225 268 340 432
#     4  10  23  42  69  98 133 174 234 284 354 416
#     4  11  23  42  67 100 133 178 227 288 347 413
#     4  11  23  41  64  99 138 175 221 285 344 418
#     4  11  23  41  65  99 144 181 221 283 350 425
#     4  11  25  45  71  97 132 182 236 294 353 415
#     4  12  23  36  62  98 144 187 223 270 348 425
#
# _framework density 24.128111000000001
#
# number of rings (size 3 to 8) (size 9 to 14) (size 15 to 20)
#    0.000    1.000    2.500    4.125    3.500    0.000 
#    0.000   15.625    0.000    0.000    0.000    0.000 
#    0.000    0.000    0.000    0.000    0.000    0.000 
#
# Total GULP energy -356799.582415 kJ/mol
# GULP energy per Si atom -5574.993475 kJ/mol
# Density = 2.407319 g / cm^3
# Si number density = 24.128111 Si / 1000 Ang^3
#
#
#
# Elastic Constant Matrix: (Units=GPa)
#
#
# Indices 1 2 3 4 5 6 
#
# 1 182.7135 17.9257 22.6023 0.0000 0.0000 0.0000
# 2 17.9257 51.9396 4.8341 0.0000 0.0000 0.0000
# 3 22.6023 4.8341 50.3046 0.0000 0.0000 0.0000
# 4 0.0000 0.0000 0.0000 26.8719 0.0000 0.0000
# 5 0.0000 0.0000 0.0000 0.0000 27.8622 0.0000
# 6 0.0000 0.0000 0.0000 0.0000 0.0000 35.6731
#
#
#
# Elastic Compliance Matrix: (Units=1/GPa)
#
#
# Indices 1 2 3 4 5 6 
#
# 1 0.005962 -0.001825 -0.002503 0.000000 0.000000 0.000000
# 2 -0.001825 0.019985 -0.001101 0.000000 0.000000 0.000000
# 3 -0.002503 -0.001101 0.021109 0.000000 0.000000 0.000000
# 4 0.000000 0.000000 0.000000 0.037214 0.000000 0.000000
# 5 0.000000 0.000000 0.000000 0.000000 0.035891 0.000000
# 6 0.000000 0.000000 0.000000 0.000000 0.000000 0.028032
#
#
# Mechanical properties :
#
#
# Convention : Reuss Voigt Hill
#
# Bulk Modulus (GPa) = 27.62489 41.74244 34.68366
# Shear Modulus (GPa) = 29.21978 34.05447 31.63712
#
# Velocity S-wave (km/s) = 3.48376 3.76094 3.62500
# Velocity P-wave (km/s) = 5.25891 6.01643 5.65038
#
# Compressibility (1/GPa) = 0.03619924
#
# Stress axis : x y z
#
# Youngs Moduli (GPa) = 167.73675 50.03679 47.37213
#
# Poissons Ratio (x) = 0.09130 0.11859
# Poissons Ratio (y) = 0.30605 0.05214
# Poissons Ratio (z) = 0.41990 0.05508
#
# Static dielectric constant tensor:
#      x y z
#    x 2.036580 0.000000 0.000000 
#    y 0.000000 1.945670 0.000000 
#    z 0.000000 0.000000 2.155300 
# 
# From -- ./inp_files/25136.got.cif
#   From: 2010.05.17/outbox.cif.g08.bks.cpg/sg52_13_cif.got.tgz:25136.got - 2010.06.03 12:15:38.
