data_PCOD9412460
_publ_section_title
;
Structure prediction by ZEFSAII (Michael W. Deem and Ramdas Pophale) SiO2 
 PCOD9412460
Probable space group: P N N A
;
_chemical_formula_sum "Si O2"
_cell_formula_units_Z 52
_cell_length_a 17.759422
_cell_length_b 24.801026
_cell_length_c 5.580408
_cell_angle_alpha 90.000000
_cell_angle_beta 90.000000
_cell_angle_gamma 90.000000
_cell_volume 2457.901233
_symmetry_space_group_name_H-M "P N N A"
_symmetry_group_IT_number 52
_symmetry_cell_setting 'orthorhombic'
loop_
_space_group_symop_operation_xyz
x,y,z
1/2-x,-y,z
x,1/2-y,1/2-z
1/2-x,1/2+y,1/2-z
-x,-y,-z
1/2+x,y,-z
-x,1/2+y,1/2+z
1/2+x,1/2-y,1/2+z
loop_
_atom_site_type_symbol
_atom_site_label
_atom_site_fract_x
_atom_site_fract_y
_atom_site_fract_z
Si Si1 0.215793 0.634545 0.594197
Si Si2 0.751760 0.250000 0.250000
Si Si3 0.123578 0.202125 0.421112
Si Si4 0.874258 0.606303 0.574834
Si Si5 0.916405 0.522870 0.945188
Si Si6 0.355958 0.092927 0.410709
Si Si7 0.525510 0.126449 0.302663
O O1 0.209352 0.700069 0.610904
O O2 0.302416 0.613555 0.596393
O O3 0.183000 0.609827 0.343350
O O4 0.178477 0.615876 0.843993
O O5 0.695830 0.221979 0.436976
O O6 0.098554 0.250000 0.250000
O O7 0.147516 0.149818 0.274274
O O8 0.057229 0.181258 0.589491
O O9 0.893969 0.548882 0.689254
O O10 0.954474 0.627272 0.475523
O O11 0.862113 0.471480 0.960789
O O12 0.921721 0.575689 0.113701
O O13 0.000000 0.500000 0.000000
O O14 0.441402 0.114104 0.376612
#
# Coordination Sequence:
#
# PCOD9412460 Si02
#       7
#     8   4   8   8   8   8   8
#     4  12  27  47  70 106 145 194 241 305 372 438
#     4  12  24  46  70  98 142 198 232 312 372 444
#     4  11  20  40  73 102 129 181 255 304 343 426
#     4  11  23  41  74 102 139 190 255 287 354 449
#     4   9  23  44  71 103 142 193 232 297 366 429
#     4  11  28  47  70 107 155 183 237 302 374 438
#     4  10  23  44  73 104 136 192 245 299 361 435
#
# _framework density 21.156262000000002
#
# number of rings (size 3 to 8) (size 9 to 14) (size 15 to 20)
#    0.000    1.231    3.077    0.923   10.769    1.846 
#    1.385    1.538    0.000    0.000    0.000    0.000 
#    0.000    0.000    0.000    0.000    0.000    0.000 
#
# Total GULP energy -289557.970395 kJ/mol
# GULP energy per Si atom -5568.422508 kJ/mol
# Density = 2.110811 g / cm^3
# Si number density = 21.156262 Si / 1000 Ang^3
#
#
#
# Elastic Constant Matrix: (Units=GPa)
#
#
# Indices 1 2 3 4 5 6 
#
# 1 79.6590 35.0358 46.5814 0.0000 0.0000 0.0000
# 2 35.0358 117.4376 40.6982 0.0000 0.0000 0.0000
# 3 46.5814 40.6982 98.2955 0.0000 0.0000 0.0000
# 4 0.0000 0.0000 0.0000 40.5610 0.0000 0.0000
# 5 0.0000 0.0000 0.0000 0.0000 -207.3494 0.0000
# 6 0.0000 0.0000 0.0000 0.0000 0.0000 38.4891
#
#
#
# Elastic Compliance Matrix: (Units=1/GPa)
#
#
# Indices 1 2 3 4 5 6 
#
# 1 0.018143 -0.002841 -0.007422 0.000000 0.000000 0.000000
# 2 -0.002841 0.010386 -0.002954 0.000000 0.000000 0.000000
# 3 -0.007422 -0.002954 0.014914 0.000000 0.000000 0.000000
# 4 0.000000 0.000000 0.000000 0.024654 0.000000 0.000000
# 5 0.000000 0.000000 0.000000 0.000000 -0.004823 0.000000
# 6 0.000000 0.000000 0.000000 0.000000 0.000000 0.025981
#
#
# Mechanical properties :
#
#
# Convention : Reuss Voigt Hill
#
# Bulk Modulus (GPa) = 58.78942 60.00256 59.39599
# Shear Modulus (GPa) = 41.20032 -14.12140 13.53946
#
# Velocity S-wave (km/s) = 4.41776 -2.58637 2.53252
# Velocity P-wave (km/s) = 7.33966 4.41635 6.05701
#
# Compressibility (1/GPa) = 0.01700986
#
# Stress axis : x y z
#
# Youngs Moduli (GPa) = 55.11858 96.27954 67.05305
#
# Poissons Ratio (x) = 0.27350 0.49764
# Poissons Ratio (y) = 0.15657 0.19809
# Poissons Ratio (z) = 0.40906 0.28443
#
# Static dielectric constant tensor:
#      x y z
#    x 1.776170 0.000000 0.000000 
#    y 0.000000 1.687310 0.000000 
#    z 0.000000 0.000000 1.919550 
# 
# From -- ./inp_files/3539.got.cif
#   From: 2010.05.17/outbox.cif.g08.bks.cpg/sg52_2_cif.got.tgz:3539.got - 2010.06.03 12:15:38.
