data_PCOD9412974
_publ_section_title
;
Structure prediction by ZEFSAII (Michael W. Deem and Ramdas Pophale) SiO2 
 PCOD9412974
Probable space group: P N N A
;
_chemical_formula_sum "Si O2"
_cell_formula_units_Z 60
_cell_length_a 20.087669
_cell_length_b 15.519772
_cell_length_c 10.021511
_cell_angle_alpha 90.000000
_cell_angle_beta 90.000000
_cell_angle_gamma 90.000000
_cell_volume 3124.266613
_symmetry_space_group_name_H-M "P N N A"
_symmetry_group_IT_number 52
_symmetry_cell_setting 'orthorhombic'
loop_
_space_group_symop_operation_xyz
x,y,z
1/2-x,-y,z
x,1/2-y,1/2-z
1/2-x,1/2+y,1/2-z
-x,-y,-z
1/2+x,y,-z
-x,1/2+y,1/2+z
1/2+x,1/2-y,1/2+z
loop_
_atom_site_type_symbol
_atom_site_label
_atom_site_fract_x
_atom_site_fract_y
_atom_site_fract_z
Si Si1 0.650400 0.093913 0.049992
Si Si2 0.750000 0.500000 0.119387
Si Si3 0.732645 0.791648 0.106559
Si Si4 0.594399 0.346638 0.731307
Si Si5 0.359920 0.080123 0.808467
Si Si6 0.989863 0.482461 0.157246
Si Si7 0.067805 0.338585 0.795473
Si Si8 0.820960 0.847720 0.519568
O O1 0.615370 0.131204 0.919059
O O2 0.726549 0.124269 0.057170
O O3 0.620947 0.139545 0.181069
O O4 0.638016 0.993332 0.077251
O O5 0.702547 0.556931 0.213078
O O6 0.796192 0.560219 0.030621
O O7 0.751385 0.750000 0.250000
O O8 0.657759 0.827304 0.127606
O O9 0.760915 0.718430 0.008858
O O10 0.564630 0.250000 0.750000
O O11 0.548256 0.423284 0.785876
O O12 0.658219 0.345637 0.827825
O O13 0.423609 0.066277 0.712792
O O14 0.981359 0.580598 0.206787
O O15 0.000000 0.500000 0.000000
O O16 0.034923 0.250000 0.750000
O O17 0.112011 0.329505 0.930567
#
# Coordination Sequence:
#
# PCOD9412974 Si02
#       8
#     8   4   8   8   8   8   8   8
#     4  11  20  37  62  94 127 157 218 264 321 387
#     4  12  18  36  60  92 122 158 220 254 320 384
#     4  12  18  34  66  94 120 160 218 266 310 391
#     4  12  25  42  64  93 131 171 216 271 337 389
#     4  11  21  35  64  97 127 163 207 277 325 376
#     4  11  24  42  65  95 135 171 224 275 330 401
#     4  11  18  36  66  90 118 173 220 259 310 391
#     4  12  21  38  63  93 122 172 215 266 315 401
#
# _framework density 19.204507
#
# number of rings (size 3 to 8) (size 9 to 14) (size 15 to 20)
#    0.000    0.533   10.667    0.000    0.000    2.667 
#    2.400    0.000    2.933    0.000    0.000    0.000 
#    0.000    0.000    0.000    0.000    0.000    0.000 
#
# Total GULP energy -334300.647554 kJ/mol
# GULP energy per Si atom -5571.677459 kJ/mol
# Density = 1.916080 g / cm^3
# Si number density = 19.204507 Si / 1000 Ang^3
#
#
#
# Elastic Constant Matrix: (Units=GPa)
#
#
# Indices 1 2 3 4 5 6 
#
# 1 48.1343 33.7149 16.1281 0.0000 0.0000 0.0000
# 2 33.7149 105.5384 14.8045 0.0000 0.0000 0.0000
# 3 16.1281 14.8045 76.8601 0.0000 0.0000 0.0000
# 4 0.0000 0.0000 0.0000 24.7337 0.0000 0.0000
# 5 0.0000 0.0000 0.0000 0.0000 20.4375 0.0000
# 6 0.0000 0.0000 0.0000 0.0000 0.0000 32.9614
#
#
#
# Elastic Compliance Matrix: (Units=1/GPa)
#
#
# Indices 1 2 3 4 5 6 
#
# 1 0.028069 -0.008367 -0.004278 0.000000 0.000000 0.000000
# 2 -0.008367 0.012232 -0.000600 0.000000 0.000000 0.000000
# 3 -0.004278 -0.000600 0.014024 0.000000 0.000000 0.000000
# 4 0.000000 0.000000 0.000000 0.040431 0.000000 0.000000
# 5 0.000000 0.000000 0.000000 0.000000 0.048930 0.000000
# 6 0.000000 0.000000 0.000000 0.000000 0.000000 0.030339
#
#
# Mechanical properties :
#
#
# Convention : Reuss Voigt Hill
#
# Bulk Modulus (GPa) = 35.92689 39.98084 37.95387
# Shear Modulus (GPa) = 23.83294 26.68551 25.25923
#
# Velocity S-wave (km/s) = 3.52662 3.73170 3.63061
# Velocity P-wave (km/s) = 5.94397 6.27942 6.11400
#
# Compressibility (1/GPa) = 0.02783431
#
# Stress axis : x y z
#
# Youngs Moduli (GPa) = 35.62641 81.75112 71.30594
#
# Poissons Ratio (x) = 0.68399 0.30507
# Poissons Ratio (y) = 0.29807 0.04282
# Poissons Ratio (z) = 0.15242 0.04909
#
# Static dielectric constant tensor:
#      x y z
#    x 1.716350 0.000000 0.000000 
#    y 0.000000 1.755790 0.000000 
#    z 0.000000 0.000000 1.665990 
# 
# From -- ./inp_files/14431.got.cif
#   From: 2010.05.17/outbox.cif.g08.bks.cpg/sg52_8_cif.got.tgz:14431.got - 2010.06.03 12:15:38.
