data_PCOD9412096
_publ_section_title
;
Structure prediction by ZEFSAII (Michael W. Deem and Ramdas Pophale) SiO2 
 PCOD9412096
Probable space group: P N N A
;
_chemical_formula_sum "Si O2"
_cell_formula_units_Z 52
_cell_length_a 14.656298
_cell_length_b 27.546763
_cell_length_c 5.615978
_cell_angle_alpha 90.000000
_cell_angle_beta 90.000000
_cell_angle_gamma 90.000000
_cell_volume 2267.358833
_symmetry_space_group_name_H-M "P N N A"
_symmetry_group_IT_number 52
_symmetry_cell_setting 'orthorhombic'
loop_
_space_group_symop_operation_xyz
x,y,z
1/2-x,-y,z
x,1/2-y,1/2-z
1/2-x,1/2+y,1/2-z
-x,-y,-z
1/2+x,y,-z
-x,1/2+y,1/2+z
1/2+x,1/2-y,1/2+z
loop_
_atom_site_type_symbol
_atom_site_label
_atom_site_fract_x
_atom_site_fract_y
_atom_site_fract_z
Si Si1 0.613137 0.477327 0.616013
Si Si2 0.270348 0.906364 0.412327
Si Si3 0.057273 0.924647 0.071721
Si Si4 0.750000 0.500000 0.227986
Si Si5 0.501542 0.250000 0.250000
Si Si6 0.946780 0.851849 0.406052
Si Si7 0.887867 0.250000 0.250000
Si Si8 0.873767 0.355480 0.186792
O O1 0.516139 0.451636 0.599756
O O2 0.598167 0.530851 0.732932
O O3 0.657278 0.497070 0.375357
O O4 0.686271 0.436498 0.693575
O O5 0.253481 0.951329 0.583435
O O6 0.351369 0.872104 0.504960
O O7 0.178717 0.875310 0.452519
O O8 0.125601 0.892030 0.912023
O O9 0.993209 0.889995 0.227513
O O10 0.557738 0.200511 0.282180
O O11 0.443225 0.253418 0.496981
O O12 0.019795 0.848597 0.621126
O O13 0.836636 0.301698 0.241513
#
# Coordination Sequence:
#
# PCOD9412096 Si02
#       8
#     8   8   8   4   4   8   4   8
#     4  11  25  40  64  95 134 183 233 283 352 430
#     4  12  26  42  67 102 137 183 242 286 359 426
#     4  11  22  43  66  94 136 183 231 288 363 425
#     4  12  24  40  56  94 134 182 220 294 332 422
#     4  10  22  43  78 103 144 188 238 301 374 437
#     4  11  24  43  69 100 138 181 232 292 359 434
#     4  10  22  45  74 109 140 190 246 295 378 443
#     4  11  24  44  71  98 141 186 231 304 362 433
#
# _framework density 22.934172
#
# number of rings (size 3 to 8) (size 9 to 14) (size 15 to 20)
#    0.000    0.923    6.154    0.462    4.308    1.231 
#    0.000    0.000    0.000    4.615    0.000    0.000 
#    0.000    0.000    0.000    0.000    0.000    0.000 
#
# Total GULP energy -289930.360005 kJ/mol
# GULP energy per Si atom -5575.583846 kJ/mol
# Density = 2.288197 g / cm^3
# Si number density = 22.934172 Si / 1000 Ang^3
#
#
#
# Elastic Constant Matrix: (Units=GPa)
#
#
# Indices 1 2 3 4 5 6 
#
# 1 90.2390 3.2637 -3.7546 0.0000 0.0000 0.0000
# 2 3.2637 144.5496 -11.8713 0.0000 0.0000 0.0000
# 3 -3.7546 -11.8713 32.9034 0.0000 0.0000 0.0000
# 4 0.0000 0.0000 0.0000 37.0183 0.0000 0.0000
# 5 0.0000 0.0000 0.0000 0.0000 61.9960 0.0000
# 6 0.0000 0.0000 0.0000 0.0000 0.0000 8.6034
#
#
#
# Elastic Compliance Matrix: (Units=1/GPa)
#
#
# Indices 1 2 3 4 5 6 
#
# 1 0.011138 -0.000152 0.001216 0.000000 0.000000 0.000000
# 2 -0.000152 0.007131 0.002556 0.000000 0.000000 0.000000
# 3 0.001216 0.002556 0.031453 0.000000 0.000000 0.000000
# 4 0.000000 0.000000 0.000000 0.027014 0.000000 0.000000
# 5 0.000000 0.000000 0.000000 0.000000 0.016130 0.000000
# 6 0.000000 0.000000 0.000000 0.000000 0.000000 0.116233
#
#
# Mechanical properties :
#
#
# Convention : Reuss Voigt Hill
#
# Bulk Modulus (GPa) = 17.55541 26.99641 22.27591
# Shear Modulus (GPa) = 22.64028 40.19381 31.41704
#
# Velocity S-wave (km/s) = 3.14536 4.19092 3.70520
# Velocity P-wave (km/s) = 4.56753 5.93424 5.29516
#
# Compressibility (1/GPa) = 0.05696250
#
# Stress axis : x y z
#
# Youngs Moduli (GPa) = 89.78459 140.22595 31.79363
#
# Poissons Ratio (x) = 0.02126 -0.03867
# Poissons Ratio (y) = 0.01361 -0.08125
# Poissons Ratio (z) = -0.10920 -0.35837
#
# Static dielectric constant tensor:
#      x y z
#    x 1.941690 0.000000 0.000000 
#    y 0.000000 1.930850 0.000000 
#    z 0.000000 0.000000 1.922430 
# 
# From -- ./inp_files/3581.got.cif
#   From: 2010.05.17/outbox.cif.g08.bks.cpg/sg52_2_cif.got.tgz:3581.got - 2010.06.03 12:15:38.
