data_PCOD9412870
_publ_section_title
;
Structure prediction by ZEFSAII (Michael W. Deem and Ramdas Pophale) SiO2 
 PCOD9412870
Probable space group: P N N A
;
_chemical_formula_sum "Si O2"
_cell_formula_units_Z 20
_cell_length_a 18.997583
_cell_length_b 5.218473
_cell_length_c 7.518918
_cell_angle_alpha 90.000000
_cell_angle_beta 90.000000
_cell_angle_gamma 90.000000
_cell_volume 745.413304
_symmetry_space_group_name_H-M "P N N A"
_symmetry_group_IT_number 52
_symmetry_cell_setting 'orthorhombic'
loop_
_space_group_symop_operation_xyz
x,y,z
1/2-x,-y,z
x,1/2-y,1/2-z
1/2-x,1/2+y,1/2-z
-x,-y,-z
1/2+x,y,-z
-x,1/2+y,1/2+z
1/2+x,1/2-y,1/2+z
loop_
_atom_site_type_symbol
_atom_site_label
_atom_site_fract_x
_atom_site_fract_y
_atom_site_fract_z
Si Si1 0.033258 0.750000 0.750000
Si Si2 0.409088 0.425805 0.391877
Si Si3 0.295676 0.751508 0.538501
O O1 0.079583 0.741900 0.571405
O O2 0.981327 0.514371 0.704394
O O3 0.370185 0.250000 0.250000
O O4 0.368899 0.684554 0.445204
O O5 0.250000 0.500000 0.499281
O O6 0.309144 0.750000 0.750000
O O7 0.250000 0.000000 0.494158
#
# Coordination Sequence:
#
# PCOD9412870 Si02
#       3
#     4   8   8
#     4  10  26  46  76 122 160 206 260 330 406 474
#     4  11  25  47  82 114 162 204 273 324 406 473
#     4  10  25  48  80 111 157 215 266 328 400 468
#
# _framework density 26.830750999999999
#
# number of rings (size 3 to 8) (size 9 to 14) (size 15 to 20)
#    0.000    1.600    0.000    1.200   14.000    6.400 
#    3.600    0.000    0.000    0.000    0.000    0.000 
#    0.000    0.000    0.000    0.000    0.000    0.000 
#
# Total GULP energy -112075.316713 kJ/mol
# GULP energy per Si atom -5603.765836 kJ/mol
# Density = 2.676968 g / cm^3
# Si number density = 26.830751 Si / 1000 Ang^3
#
#
#
# Elastic Constant Matrix: (Units=GPa)
#
#
# Indices 1 2 3 4 5 6 
#
# 1 95.3257 62.1838 77.5191 0.0000 0.0000 0.0000
# 2 62.1838 204.9859 98.8477 0.0000 0.0000 0.0000
# 3 77.5191 98.8477 208.6988 0.0000 0.0000 0.0000
# 4 0.0000 0.0000 0.0000 47.8653 0.0000 0.0000
# 5 0.0000 0.0000 0.0000 0.0000 -186.5334 0.0000
# 6 0.0000 0.0000 0.0000 0.0000 0.0000 13.7882
#
#
#
# Elastic Compliance Matrix: (Units=1/GPa)
#
#
# Indices 1 2 3 4 5 6 
#
# 1 0.016018 -0.002579 -0.004728 0.000000 0.000000 0.000000
# 2 -0.002579 0.006738 -0.002233 0.000000 0.000000 0.000000
# 3 -0.004728 -0.002233 0.007606 0.000000 0.000000 0.000000
# 4 0.000000 0.000000 0.000000 0.020892 0.000000 0.000000
# 5 0.000000 0.000000 0.000000 0.000000 -0.005361 0.000000
# 6 0.000000 0.000000 0.000000 0.000000 0.000000 0.072526
#
#
# Mechanical properties :
#
#
# Convention : Reuss Voigt Hill
#
# Bulk Modulus (GPa) = 88.65186 109.56794 99.10990
# Shear Modulus (GPa) = 35.39617 -6.94533 14.22542
#
# Velocity S-wave (km/s) = 3.63607 -1.61065 2.30509
# Velocity P-wave (km/s) = 7.12327 6.12098 6.64106
#
# Compressibility (1/GPa) = 0.01128008
#
# Stress axis : x y z
#
# Youngs Moduli (GPa) = 62.43119 148.41908 131.48351
#
# Poissons Ratio (x) = 0.38279 0.62166
# Poissons Ratio (y) = 0.16102 0.29363
# Poissons Ratio (z) = 0.29518 0.33145
#
# Static dielectric constant tensor:
#      x y z
#    x 2.262990 0.000000 0.000000 
#    y 0.000000 2.084530 0.000000 
#    z 0.000000 0.000000 2.065520 
# 
# From -- ./inp_files/11187.got.cif
#   From: 2010.05.17/outbox.cif.g08.bks.cpg/sg52_6_cif.got.tgz:11187.got - 2010.06.03 12:15:38.
