data_PCOD9412020
_publ_section_title
;
Structure prediction by ZEFSAII (Michael W. Deem and Ramdas Pophale) SiO2 
 PCOD9412020
Probable space group: P N N A
;
_chemical_formula_sum "Si O2"
_cell_formula_units_Z 40
_cell_length_a 13.703888
_cell_length_b 6.293697
_cell_length_c 18.963750
_cell_angle_alpha 90.000000
_cell_angle_beta 90.000000
_cell_angle_gamma 90.000000
_cell_volume 1635.587763
_symmetry_space_group_name_H-M "P N N A"
_symmetry_group_IT_number 52
_symmetry_cell_setting 'orthorhombic'
loop_
_space_group_symop_operation_xyz
x,y,z
1/2-x,-y,z
x,1/2-y,1/2-z
1/2-x,1/2+y,1/2-z
-x,-y,-z
1/2+x,y,-z
-x,1/2+y,1/2+z
1/2+x,1/2-y,1/2+z
loop_
_atom_site_type_symbol
_atom_site_label
_atom_site_fract_x
_atom_site_fract_y
_atom_site_fract_z
Si Si1 0.936844 0.111950 0.940045
Si Si2 0.649692 0.859490 0.446976
Si Si3 0.250000 0.500000 0.626916
Si Si4 0.335793 0.750000 0.750000
Si Si5 0.154949 0.750000 0.250000
Si Si6 0.250000 0.000000 0.130911
Si Si7 0.011000 0.431346 0.834406
O O1 0.847053 0.965894 0.914840
O O2 0.997375 0.200291 0.873203
O O3 0.888438 0.325272 0.973798
O O4 0.000000 0.000000 0.000000
O O5 0.675559 0.620971 0.422644
O O6 0.750000 0.000000 0.443993
O O7 0.560284 0.933992 0.397230
O O8 0.280355 0.683212 0.680896
O O9 0.404909 0.561695 0.775442
O O10 0.220602 0.816059 0.184531
O O11 0.085629 0.566597 0.214775
#
# Coordination Sequence:
#
# PCOD9412020 Si02
#       7
#     8   8   4   4   4   4   8
#     4  11  25  44  72 103 148 187 241 296 359 435
#     4  12  25  44  71 102 145 192 238 300 366 432
#     4  12  23  40  66 104 133 188 234 290 366 428
#     4  11  20  38  66  91 142 164 231 286 344 421
#     4   9  22  44  72  95 150 178 247 298 350 439
#     4  10  23  46  70 106 137 190 238 298 358 424
#     4  10  22  43  62 101 137 186 235 292 354 426
#
# _framework density 24.456039000000001
#
# number of rings (size 3 to 8) (size 9 to 14) (size 15 to 20)
#    0.000    1.200    2.000    3.600    2.800    1.600 
#    7.200    0.000    0.000    0.000    0.000    0.000 
#    0.000    0.000    0.000    0.000    0.000    0.000 
#
# Total GULP energy -222945.406946 kJ/mol
# GULP energy per Si atom -5573.635174 kJ/mol
# Density = 2.440038 g / cm^3
# Si number density = 24.456039 Si / 1000 Ang^3
#
#
#
# Elastic Constant Matrix: (Units=GPa)
#
#
# Indices 1 2 3 4 5 6 
#
# 1 118.9117 41.5136 55.7279 0.0000 0.0000 0.0000
# 2 41.5136 40.2078 10.7345 0.0000 0.0000 0.0000
# 3 55.7279 10.7345 124.6187 0.0000 0.0000 0.0000
# 4 0.0000 0.0000 0.0000 31.1933 0.0000 0.0000
# 5 0.0000 0.0000 0.0000 0.0000 34.6079 0.0000
# 6 0.0000 0.0000 0.0000 0.0000 0.0000 36.7769
#
#
#
# Elastic Compliance Matrix: (Units=1/GPa)
#
#
# Indices 1 2 3 4 5 6 
#
# 1 0.016756 -0.015660 -0.006144 0.000000 0.000000 0.000000
# 2 -0.015660 0.040092 0.003549 0.000000 0.000000 0.000000
# 3 -0.006144 0.003549 0.010466 0.000000 0.000000 0.000000
# 4 0.000000 0.000000 0.000000 0.032058 0.000000 0.000000
# 5 0.000000 0.000000 0.000000 0.000000 0.028895 0.000000
# 6 0.000000 0.000000 0.000000 0.000000 0.000000 0.027191
#
#
# Mechanical properties :
#
#
# Convention : Reuss Voigt Hill
#
# Bulk Modulus (GPa) = 32.46248 55.52114 43.99181
# Shear Modulus (GPa) = 24.72356 32.23309 28.47832
#
# Velocity S-wave (km/s) = 3.18298 3.63437 3.41614
# Velocity P-wave (km/s) = 5.17794 6.35320 5.79544
#
# Compressibility (1/GPa) = 0.03080480
#
# Stress axis : x y z
#
# Youngs Moduli (GPa) = 59.67944 24.94282 95.54429
#
# Poissons Ratio (x) = 0.39060 0.58705
# Poissons Ratio (y) = 0.93458 -0.33913
# Poissons Ratio (z) = 0.36668 -0.08853
#
# Static dielectric constant tensor:
#      x y z
#    x 2.006530 0.000000 0.000000 
#    y 0.000000 2.496440 0.000000 
#    z 0.000000 0.000000 1.886920 
# 
# From -- ./inp_files/32066.got.cif
#   From: 2010.05.17/outbox.cif.g08.bks.cpg/sg52_17_cif.got.tgz:32066.got - 2010.06.03 12:15:38.
