data_PCOD9412919
_publ_section_title
;
Structure prediction by ZEFSAII (Michael W. Deem and Ramdas Pophale) SiO2 
 PCOD9412919
Probable space group: P N N A
;
_chemical_formula_sum "Si O2"
_cell_formula_units_Z 28
_cell_length_a 13.268343
_cell_length_b 18.092865
_cell_length_c 4.704864
_cell_angle_alpha 90.000000
_cell_angle_beta 90.000000
_cell_angle_gamma 90.000000
_cell_volume 1129.460655
_symmetry_space_group_name_H-M "P N N A"
_symmetry_group_IT_number 52
_symmetry_cell_setting 'orthorhombic'
loop_
_space_group_symop_operation_xyz
x,y,z
1/2-x,-y,z
x,1/2-y,1/2-z
1/2-x,1/2+y,1/2-z
-x,-y,-z
1/2+x,y,-z
-x,1/2+y,1/2+z
1/2+x,1/2-y,1/2+z
loop_
_atom_site_type_symbol
_atom_site_label
_atom_site_fract_x
_atom_site_fract_y
_atom_site_fract_z
Si Si1 0.454293 0.250000 0.250000
Si Si2 0.750000 0.000000 0.023980
Si Si3 0.885838 0.981024 0.563273
Si Si4 0.868765 0.678189 0.951652
Si Si5 0.691645 0.750000 0.250000
O O1 0.530617 0.187552 0.361268
O O2 0.381462 0.275833 0.500571
O O3 0.672538 0.965699 0.785021
O O4 0.669586 0.027149 0.260632
O O5 0.875629 0.899513 0.702186
O O6 0.000000 0.000000 0.500000
O O7 0.868094 0.750000 0.750000
O O8 0.767167 0.687456 0.134713
#
# Coordination Sequence:
#
# PCOD9412919 Si02
#       5
#     4   4   8   8   4
#     4  11  24  43  68 108 136 191 228 287 378 422
#     4  10  26  48  70 106 132 198 242 282 360 440
#     4  11  26  49  73 101 151 189 242 301 357 433
#     4  11  26  45  71 109 143 182 245 303 353 431
#     4  11  24  43  64 100 146 181 228 301 356 432
#
# _framework density 24.790593000000001
#
# number of rings (size 3 to 8) (size 9 to 14) (size 15 to 20)
#    0.000    1.143    2.857    0.857    8.000    6.857 
#    5.143    0.000    0.000    0.000    0.000    0.000 
#    0.000    0.000    0.000    0.000    0.000    0.000 
#
# Total GULP energy -156217.499734 kJ/mol
# GULP energy per Si atom -5579.196419 kJ/mol
# Density = 2.473417 g / cm^3
# Si number density = 24.790593 Si / 1000 Ang^3
#
#
#
# Elastic Constant Matrix: (Units=GPa)
#
#
# Indices 1 2 3 4 5 6 
#
# 1 221.9955 46.7907 77.3878 0.0000 0.0000 0.0000
# 2 46.7907 69.0047 25.5282 0.0000 0.0000 0.0000
# 3 77.3878 25.5282 174.9548 0.0000 0.0000 0.0000
# 4 0.0000 0.0000 0.0000 23.2103 0.0000 0.0000
# 5 0.0000 0.0000 0.0000 0.0000 46.1166 0.0000
# 6 0.0000 0.0000 0.0000 0.0000 0.0000 2.0269
#
#
#
# Elastic Compliance Matrix: (Units=1/GPa)
#
#
# Indices 1 2 3 4 5 6 
#
# 1 0.005936 -0.003228 -0.002155 0.000000 0.000000 0.000000
# 2 -0.003228 0.017074 -0.001063 0.000000 0.000000 0.000000
# 3 -0.002155 -0.001063 0.006824 0.000000 0.000000 0.000000
# 4 0.000000 0.000000 0.000000 0.043084 0.000000 0.000000
# 5 0.000000 0.000000 0.000000 0.000000 0.021684 0.000000
# 6 0.000000 0.000000 0.000000 0.000000 0.000000 0.493373
#
#
# Mechanical properties :
#
#
# Convention : Reuss Voigt Hill
#
# Bulk Modulus (GPa) = 59.02570 85.04095 72.03332
# Shear Modulus (GPa) = 8.24381 35.35397 21.79889
#
# Velocity S-wave (km/s) = 1.82554 3.78048 2.96855
# Velocity P-wave (km/s) = 5.32023 7.30987 6.39293
#
# Compressibility (1/GPa) = 0.01694177
#
# Stress axis : x y z
#
# Youngs Moduli (GPa) = 168.46047 58.56836 146.54100
#
# Poissons Ratio (x) = 0.18906 0.31575
# Poissons Ratio (y) = 0.54380 0.15584
# Poissons Ratio (z) = 0.36298 0.06229
#
# Static dielectric constant tensor:
#      x y z
#    x 1.983940 0.000000 0.000000 
#    y 0.000000 2.005540 0.000000 
#    z 0.000000 0.000000 2.015590 
# 
# From -- ./inp_files/983.got.cif
#   From: 2010.05.17/outbox.cif.g08.bks.cpg/sg52_1_cif.got.tgz:983.got - 2010.06.03 12:15:38.
