data_PCOD9412933
_publ_section_title
;
Structure prediction by ZEFSAII (Michael W. Deem and Ramdas Pophale) SiO2 
 PCOD9412933
Probable space group: P N N A
;
_chemical_formula_sum "Si O2"
_cell_formula_units_Z 32
_cell_length_a 9.369434
_cell_length_b 23.124764
_cell_length_c 6.265689
_cell_angle_alpha 90.000000
_cell_angle_beta 90.000000
_cell_angle_gamma 90.000000
_cell_volume 1357.561460
_symmetry_space_group_name_H-M "P N N A"
_symmetry_group_IT_number 52
_symmetry_cell_setting 'orthorhombic'
loop_
_space_group_symop_operation_xyz
x,y,z
1/2-x,-y,z
x,1/2-y,1/2-z
1/2-x,1/2+y,1/2-z
-x,-y,-z
1/2+x,y,-z
-x,1/2+y,1/2+z
1/2+x,1/2-y,1/2+z
loop_
_atom_site_type_symbol
_atom_site_label
_atom_site_fract_x
_atom_site_fract_y
_atom_site_fract_z
Si Si1 0.924417 0.940279 0.567013
Si Si2 0.080420 0.250000 0.750000
Si Si3 0.654226 0.718767 0.449492
Si Si4 0.688236 0.597471 0.265530
Si Si5 0.750000 0.500000 0.570426
O O1 0.820616 0.918827 0.382743
O O2 0.048115 0.895406 0.621320
O O3 0.835608 0.957109 0.776095
O O4 0.000000 0.000000 0.500000
O O5 0.959691 0.289864 0.637542
O O6 0.199229 0.241893 0.558585
O O7 0.575630 0.750000 0.250000
O O8 0.712683 0.655735 0.392552
O O9 0.660819 0.542624 0.418987
#
# Coordination Sequence:
#
# PCOD9412933 Si02
#       5
#     8   4   8   8   4
#     4  12  24  45  66 106 149 185 246 302 354 449
#     4  10  26  50  74 106 146 184 252 304 380 436
#     4  10  28  47  76 106 148 192 248 311 372 446
#     4  12  27  43  74 105 146 195 241 300 374 435
#     4  12  24  42  70 102 146 192 240 290 374 432
#
# _framework density 23.571676
#
# number of rings (size 3 to 8) (size 9 to 14) (size 15 to 20)
#    0.750    0.000    5.000    0.750    8.750    2.000 
#    0.000    0.000    0.000    0.000    0.000    0.000 
#    0.000    0.000    0.000    0.000    0.000    0.000 
#
# Total GULP energy -178166.520144 kJ/mol
# GULP energy per Si atom -5567.703754 kJ/mol
# Density = 2.351803 g / cm^3
# Si number density = 23.571676 Si / 1000 Ang^3
#
#
#
# Elastic Constant Matrix: (Units=GPa)
#
#
# Indices 1 2 3 4 5 6 
#
# 1 139.0652 -2.2694 31.9240 0.0000 0.0000 0.0000
# 2 -2.2694 59.3695 8.6804 0.0000 0.0000 0.0000
# 3 31.9240 8.6804 44.8206 0.0000 0.0000 0.0000
# 4 0.0000 0.0000 0.0000 24.6633 0.0000 0.0000
# 5 0.0000 0.0000 0.0000 0.0000 39.5403 0.0000
# 6 0.0000 0.0000 0.0000 0.0000 0.0000 18.8199
#
#
#
# Elastic Compliance Matrix: (Units=1/GPa)
#
#
# Indices 1 2 3 4 5 6 
#
# 1 0.008689 0.001273 -0.006435 0.000000 0.000000 0.000000
# 2 0.001273 0.017521 -0.004300 0.000000 0.000000 0.000000
# 3 -0.006435 -0.004300 0.027728 0.000000 0.000000 0.000000
# 4 0.000000 0.000000 0.000000 0.040546 0.000000 0.000000
# 5 0.000000 0.000000 0.000000 0.000000 0.025291 0.000000
# 6 0.000000 0.000000 0.000000 0.000000 0.000000 0.053135
#
#
# Mechanical properties :
#
#
# Convention : Reuss Voigt Hill
#
# Bulk Modulus (GPa) = 28.56090 35.54725 32.05408
# Shear Modulus (GPa) = 24.56939 30.26604 27.41772
#
# Velocity S-wave (km/s) = 3.23201 3.58718 3.41422
# Velocity P-wave (km/s) = 5.10596 5.68070 5.40098
#
# Compressibility (1/GPa) = 0.03501290
#
# Stress axis : x y z
#
# Youngs Moduli (GPa) = 115.08862 57.07429 36.06514
#
# Poissons Ratio (x) = -0.07266 0.23209
# Poissons Ratio (y) = -0.14651 0.15508
# Poissons Ratio (z) = 0.74064 0.24542
#
# Static dielectric constant tensor:
#      x y z
#    x 1.994080 0.000000 0.000000 
#    y 0.000000 1.940000 0.000000 
#    z 0.000000 0.000000 1.963680 
# 
# From -- ./inp_files/419.got.cif
#   From: 2010.05.17/outbox.cif.g08.bks.cpg/sg52_1_cif.got.tgz:419.got - 2010.06.03 12:15:38.
