data_PCOD9412433
_publ_section_title
;
Structure prediction by ZEFSAII (Michael W. Deem and Ramdas Pophale) SiO2 
 PCOD9412433
Probable space group: P N N A
;
_chemical_formula_sum "Si O2"
_cell_formula_units_Z 56
_cell_length_a 15.455080
_cell_length_b 11.158495
_cell_length_c 14.022218
_cell_angle_alpha 90.000000
_cell_angle_beta 90.000000
_cell_angle_gamma 90.000000
_cell_volume 2418.207675
_symmetry_space_group_name_H-M "P N N A"
_symmetry_group_IT_number 52
_symmetry_cell_setting 'orthorhombic'
loop_
_space_group_symop_operation_xyz
x,y,z
1/2-x,-y,z
x,1/2-y,1/2-z
1/2-x,1/2+y,1/2-z
-x,-y,-z
1/2+x,y,-z
-x,1/2+y,1/2+z
1/2+x,1/2-y,1/2+z
loop_
_atom_site_type_symbol
_atom_site_label
_atom_site_fract_x
_atom_site_fract_y
_atom_site_fract_z
Si Si1 0.150301 0.504950 0.106930
Si Si2 0.671827 0.440220 0.096773
Si Si3 0.655784 0.456994 0.506386
Si Si4 0.731518 0.199088 0.148340
Si Si5 0.005751 0.392013 0.776217
Si Si6 0.923400 0.400232 0.366236
Si Si7 0.415541 0.745883 0.357722
O O1 0.250000 0.500000 0.141912
O O2 0.086710 0.581427 0.173270
O O3 0.107329 0.374167 0.102781
O O4 0.156907 0.527467 0.993328
O O5 0.750000 0.500000 0.157656
O O6 0.714079 0.310005 0.077004
O O7 0.582022 0.418220 0.148297
O O8 0.750000 0.500000 0.538672
O O9 0.672910 0.400856 0.401059
O O10 0.589363 0.560741 0.477318
O O11 0.622859 0.360899 0.579996
O O12 0.702960 0.250000 0.250000
O O13 0.827346 0.146728 0.160311
O O14 0.007751 0.250000 0.750000
O O15 0.027898 0.494204 0.695181
O O16 0.983543 0.284105 0.357104
O O17 0.382031 0.750000 0.250000
#
# Coordination Sequence:
#
# PCOD9412433 Si02
#       7
#     8   8   8   8   8   8   8
#     4  11  27  50  69 102 140 199 254 306 367 436
#     4  11  23  42  72 108 149 187 239 300 374 444
#     4  10  23  44  67 107 145 186 240 298 371 439
#     4  11  21  39  71 109 151 189 228 297 372 451
#     4  12  26  47  72 109 149 191 242 309 379 449
#     4  11  24  43  71 110 145 187 242 296 376 445
#     4  12  24  46  73  96 138 185 250 305 351 433
#
# _framework density 23.157647000000001
#
# number of rings (size 3 to 8) (size 9 to 14) (size 15 to 20)
#    0.000    0.857    2.857    4.286    2.000    2.286 
#    2.571    0.000    0.000    0.000    0.000    0.000 
#    0.000    0.000    0.000    0.000    0.000    0.000 
#
# Total GULP energy -312458.186669 kJ/mol
# GULP energy per Si atom -5579.610476 kJ/mol
# Density = 2.310494 g / cm^3
# Si number density = 23.157647 Si / 1000 Ang^3
#
#
#
# Elastic Constant Matrix: (Units=GPa)
#
#
# Indices 1 2 3 4 5 6 
#
# 1 166.5601 45.9418 51.7376 0.0000 0.0000 0.0000
# 2 45.9418 63.1506 9.7552 0.0000 0.0000 0.0000
# 3 51.7376 9.7552 85.7276 0.0000 0.0000 0.0000
# 4 0.0000 0.0000 0.0000 36.4038 0.0000 0.0000
# 5 0.0000 0.0000 0.0000 0.0000 23.5905 0.0000
# 6 0.0000 0.0000 0.0000 0.0000 0.0000 29.8951
#
#
#
# Elastic Compliance Matrix: (Units=1/GPa)
#
#
# Indices 1 2 3 4 5 6 
#
# 1 0.009134 -0.005897 -0.004842 0.000000 0.000000 0.000000
# 2 -0.005897 0.019926 0.001292 0.000000 0.000000 0.000000
# 3 -0.004842 0.001292 0.014440 0.000000 0.000000 0.000000
# 4 0.000000 0.000000 0.000000 0.027470 0.000000 0.000000
# 5 0.000000 0.000000 0.000000 0.000000 0.042390 0.000000
# 6 0.000000 0.000000 0.000000 0.000000 0.000000 0.033450
#
#
# Mechanical properties :
#
#
# Convention : Reuss Voigt Hill
#
# Bulk Modulus (GPa) = 40.64121 58.92306 49.78214
# Shear Modulus (GPa) = 28.75109 31.84481 30.29795
#
# Velocity S-wave (km/s) = 3.52737 3.71230 3.62101
# Velocity P-wave (km/s) = 5.84617 6.62378 6.24708
#
# Compressibility (1/GPa) = 0.02460556
#
# Stress axis : x y z
#
# Youngs Moduli (GPa) = 109.47617 50.18595 69.25280
#
# Poissons Ratio (x) = 0.29596 0.33530
# Poissons Ratio (y) = 0.64562 -0.08945
# Poissons Ratio (z) = 0.53004 -0.06482
#
# Static dielectric constant tensor:
#      x y z
#    x 1.897080 0.000000 0.000000 
#    y 0.000000 1.925830 0.000000 
#    z 0.000000 0.000000 2.073340 
# 
# From -- ./inp_files/27304.got.cif
#   From: 2010.05.17/outbox.cif.g08.bks.cpg/sg52_14_cif.got.tgz:27304.got - 2010.06.03 12:15:38.
