data_PCOD9412373
_publ_section_title
;
Structure prediction by ZEFSAII (Michael W. Deem and Ramdas Pophale) SiO2 
 PCOD9412373
Probable space group: P N N A
;
_chemical_formula_sum "Si O2"
_cell_formula_units_Z 48
_cell_length_a 12.787417
_cell_length_b 29.020372
_cell_length_c 5.442008
_cell_angle_alpha 90.000000
_cell_angle_beta 90.000000
_cell_angle_gamma 90.000000
_cell_volume 2019.505214
_symmetry_space_group_name_H-M "P N N A"
_symmetry_group_IT_number 52
_symmetry_cell_setting 'orthorhombic'
loop_
_space_group_symop_operation_xyz
x,y,z
1/2-x,-y,z
x,1/2-y,1/2-z
1/2-x,1/2+y,1/2-z
-x,-y,-z
1/2+x,y,-z
-x,1/2+y,1/2+z
1/2+x,1/2-y,1/2+z
loop_
_atom_site_type_symbol
_atom_site_label
_atom_site_fract_x
_atom_site_fract_y
_atom_site_fract_z
Si Si1 0.250160 0.640668 0.620469
Si Si2 0.530288 0.354990 0.081049
Si Si3 0.167638 0.298380 0.220391
Si Si4 0.186988 0.047211 0.085102
Si Si5 0.943634 0.953343 0.418685
Si Si6 0.129781 0.794901 0.587525
O O1 0.262455 0.682629 0.435711
O O2 0.243440 0.591416 0.490225
O O3 0.149273 0.655913 0.773936
O O4 0.363337 0.641228 0.757030
O O5 0.583277 0.337816 0.827766
O O6 0.487143 0.406686 0.090344
O O7 0.451964 0.311963 0.122779
O O8 0.112322 0.250000 0.250000
O O9 0.253293 0.287774 0.013208
O O10 0.108034 0.041218 0.851488
O O11 0.250000 0.000000 0.102663
O O12 0.136304 0.055810 0.353521
O O13 0.000000 0.000000 0.500000
O O14 0.105210 0.750000 0.750000
#
# Coordination Sequence:
#
# PCOD9412373 Si02
#       6
#     8   8   8   8   8   8
#     4  10  23  43  65  93 136 173 221 276 335 403
#     4  10  24  41  64  92 137 174 220 275 342 397
#     4  11  21  42  64  90 133 174 217 279 331 398
#     4  11  24  44  71  99 132 180 225 276 349 403
#     4  11  24  44  66 101 136 174 228 279 339 409
#     4  11  23  41  64 102 126 172 228 273 336 405
#
# _framework density 23.768197000000001
#
# number of rings (size 3 to 8) (size 9 to 14) (size 15 to 20)
#    0.000    1.333    3.333    1.500    2.333    2.667 
#    3.000    0.000    0.000    0.000    0.000    0.000 
#    0.000    0.000    0.000    0.000    0.000    0.000 
#
# Total GULP energy -267386.124499 kJ/mol
# GULP energy per Si atom -5570.544260 kJ/mol
# Density = 2.371410 g / cm^3
# Si number density = 23.768197 Si / 1000 Ang^3
#
#
#
# Elastic Constant Matrix: (Units=GPa)
#
#
# Indices 1 2 3 4 5 6 
#
# 1 71.6258 25.6333 0.2894 0.0000 0.0000 0.0000
# 2 25.6333 173.2310 -1.5447 0.0000 0.0000 0.0000
# 3 0.2894 -1.5447 58.5183 0.0000 0.0000 0.0000
# 4 0.0000 0.0000 0.0000 27.9902 0.0000 0.0000
# 5 0.0000 0.0000 0.0000 0.0000 16.9596 0.0000
# 6 0.0000 0.0000 0.0000 0.0000 0.0000 28.5498
#
#
#
# Elastic Compliance Matrix: (Units=1/GPa)
#
#
# Indices 1 2 3 4 5 6 
#
# 1 0.014743 -0.002183 -0.000131 0.000000 0.000000 0.000000
# 2 -0.002183 0.006097 0.000172 0.000000 0.000000 0.000000
# 3 -0.000131 0.000172 0.017094 0.000000 0.000000 0.000000
# 4 0.000000 0.000000 0.000000 0.035727 0.000000 0.000000
# 5 0.000000 0.000000 0.000000 0.000000 0.058963 0.000000
# 6 0.000000 0.000000 0.000000 0.000000 0.000000 0.035026
#
#
# Mechanical properties :
#
#
# Convention : Reuss Voigt Hill
#
# Bulk Modulus (GPa) = 29.71672 39.12567 34.42120
# Shear Modulus (GPa) = 27.29987 33.29973 30.29980
#
# Velocity S-wave (km/s) = 3.39276 3.74708 3.57431
# Velocity P-wave (km/s) = 5.27993 5.93447 5.61674
#
# Compressibility (1/GPa) = 0.03365109
#
# Stress axis : x y z
#
# Youngs Moduli (GPa) = 67.82819 164.01097 58.50057
#
# Poissons Ratio (x) = 0.35799 0.00764
# Poissons Ratio (y) = 0.14805 -0.01005
# Poissons Ratio (z) = 0.00885 -0.02817
#
# Static dielectric constant tensor:
#      x y z
#    x 1.998750 0.000000 0.000000 
#    y 0.000000 1.995360 0.000000 
#    z 0.000000 0.000000 2.011280 
# 
# From -- ./inp_files/2448.got.cif
#   From: 2010.05.17/outbox.cif.g08.bks.cpg/sg52_2_cif.got.tgz:2448.got - 2010.06.03 12:15:38.
