data_PCOD9412401
_publ_section_title
;
Structure prediction by ZEFSAII (Michael W. Deem and Ramdas Pophale) SiO2 
 PCOD9412401
Probable space group: P N N A
;
_chemical_formula_sum "Si O2"
_cell_formula_units_Z 56
_cell_length_a 18.981165
_cell_length_b 25.540947
_cell_length_c 5.008325
_cell_angle_alpha 90.000000
_cell_angle_beta 90.000000
_cell_angle_gamma 90.000000
_cell_volume 2428.020581
_symmetry_space_group_name_H-M "P N N A"
_symmetry_group_IT_number 52
_symmetry_cell_setting 'orthorhombic'
loop_
_space_group_symop_operation_xyz
x,y,z
1/2-x,-y,z
x,1/2-y,1/2-z
1/2-x,1/2+y,1/2-z
-x,-y,-z
1/2+x,y,-z
-x,1/2+y,1/2+z
1/2+x,1/2-y,1/2+z
loop_
_atom_site_type_symbol
_atom_site_label
_atom_site_fract_x
_atom_site_fract_y
_atom_site_fract_z
Si Si1 0.570442 0.107114 0.124771
Si Si2 0.545904 0.947105 0.543526
Si Si3 0.142371 0.016099 0.124012
Si Si4 0.204064 0.435925 0.867674
Si Si5 0.632282 0.691642 0.738318
Si Si6 0.849914 0.120395 0.251960
Si Si7 0.523513 0.216032 0.014426
O O1 0.504994 0.094147 0.314364
O O2 0.641683 0.105312 0.300208
O O3 0.579500 0.058001 0.925964
O O4 0.562114 0.161238 0.974428
O O5 0.584386 0.919718 0.293177
O O6 0.500000 0.000000 0.500000
O O7 0.608819 0.965426 0.742611
O O8 0.194303 0.042478 0.336755
O O9 0.180363 0.017928 0.838511
O O10 0.278354 0.409866 0.819895
O O11 0.665335 0.750000 0.750000
O O12 0.661206 0.649323 0.528631
O O13 0.553558 0.701272 0.626449
O O14 0.634897 0.665384 0.027943
O O15 0.517664 0.250000 0.750000
O O16 0.558374 0.250000 0.250000
#
# Coordination Sequence:
#
# PCOD9412401 Si02
#       7
#     8   8   8   8   8   8   8
#     4  10  24  43  71  99 147 183 235 304 352 430
#     4  12  24  44  73 110 140 192 245 293 364 428
#     4  10  23  43  69  97 150 183 237 285 353 424
#     4  10  24  44  68  96 146 187 232 286 357 419
#     4  11  24  46  72 104 138 181 241 301 352 426
#     4  12  26  44  74 104 142 191 239 292 365 422
#     4  11  24  40  69 107 136 174 232 297 371 418
#
# _framework density 23.064053999999999
#
# number of rings (size 3 to 8) (size 9 to 14) (size 15 to 20)
#    0.857    0.286    2.857    3.429    4.000    2.857 
#    0.000    5.000    0.000    0.000    0.000    0.000 
#    0.000    0.000    0.000    0.000    0.000    0.000 
#
# Total GULP energy -313219.570608 kJ/mol
# GULP energy per Si atom -5593.206618 kJ/mol
# Density = 2.301156 g / cm^3
# Si number density = 23.064054 Si / 1000 Ang^3
#
#
#
# Elastic Constant Matrix: (Units=GPa)
#
#
# Indices 1 2 3 4 5 6 
#
# 1 86.1313 36.5996 -13.7692 0.0000 0.0000 0.0000
# 2 36.5996 112.5820 22.3939 0.0000 0.0000 0.0000
# 3 -13.7692 22.3939 74.7527 0.0000 0.0000 0.0000
# 4 0.0000 0.0000 0.0000 45.1575 0.0000 0.0000
# 5 0.0000 0.0000 0.0000 0.0000 3.9212 0.0000
# 6 0.0000 0.0000 0.0000 0.0000 0.0000 22.3766
#
#
#
# Elastic Compliance Matrix: (Units=1/GPa)
#
#
# Indices 1 2 3 4 5 6 
#
# 1 0.014721 -0.005662 0.004408 0.000000 0.000000 0.000000
# 2 -0.005662 0.011623 -0.004525 0.000000 0.000000 0.000000
# 3 0.004408 -0.004525 0.015545 0.000000 0.000000 0.000000
# 4 0.000000 0.000000 0.000000 0.022145 0.000000 0.000000
# 5 0.000000 0.000000 0.000000 0.000000 0.255026 0.000000
# 6 0.000000 0.000000 0.000000 0.000000 0.000000 0.044690
#
#
# Mechanical properties :
#
#
# Convention : Reuss Voigt Hill
#
# Bulk Modulus (GPa) = 32.97068 40.43495 36.70282
# Shear Modulus (GPa) = 12.97290 29.50715 21.24002
#
# Velocity S-wave (km/s) = 2.37422 3.58069 3.03795
# Velocity P-wave (km/s) = 4.67357 5.88768 5.31540
#
# Compressibility (1/GPa) = 0.03032998
#
# Stress axis : x y z
#
# Youngs Moduli (GPa) = 67.93028 86.03388 64.32961
#
# Poissons Ratio (x) = 0.48716 -0.28356
# Poissons Ratio (y) = 0.38465 0.29109
# Poissons Ratio (z) = -0.29943 0.38931
#
# Static dielectric constant tensor:
#      x y z
#    x 1.892360 0.000000 0.000000 
#    y 0.000000 1.931300 0.000000 
#    z 0.000000 0.000000 1.888520 
# 
# From -- ./inp_files/4530.got.cif
#   From: 2010.05.17/outbox.cif.g08.bks.cpg/sg52_3_cif.got.tgz:4530.got - 2010.06.03 12:15:38.
