data_PCOD9412741
_publ_section_title
;
Structure prediction by ZEFSAII (Michael W. Deem and Ramdas Pophale) SiO2 
 PCOD9412741
Probable space group: P N N A
;
_chemical_formula_sum "Si O2"
_cell_formula_units_Z 32
_cell_length_a 5.938889
_cell_length_b 7.233420
_cell_length_c 33.674936
_cell_angle_alpha 90.000000
_cell_angle_beta 90.000000
_cell_angle_gamma 90.000000
_cell_volume 1446.624013
_symmetry_space_group_name_H-M "P N N A"
_symmetry_group_IT_number 52
_symmetry_cell_setting 'orthorhombic'
loop_
_space_group_symop_operation_xyz
x,y,z
1/2-x,-y,z
x,1/2-y,1/2-z
1/2-x,1/2+y,1/2-z
-x,-y,-z
1/2+x,y,-z
-x,1/2+y,1/2+z
1/2+x,1/2-y,1/2+z
loop_
_atom_site_type_symbol
_atom_site_label
_atom_site_fract_x
_atom_site_fract_y
_atom_site_fract_z
Si Si1 0.750000 0.500000 0.148130
Si Si2 0.418096 0.655376 0.212217
Si Si3 0.909478 0.660876 0.402195
Si Si4 0.750000 0.500000 0.661588
Si Si5 0.025652 0.786357 0.485987
O O1 0.551695 0.545474 0.178576
O O2 0.781365 0.674989 0.120000
O O3 0.250000 0.500000 0.228867
O O4 0.542613 0.750000 0.250000
O O5 0.307574 0.824916 0.188668
O O6 0.750000 0.500000 0.418276
O O7 0.054093 0.562816 0.368111
O O8 0.041181 0.752219 0.438771
O O9 0.270655 0.716164 0.502116
O O10 0.000000 0.000000 0.500000
#
# Coordination Sequence:
#
# PCOD9412741 Si02
#       5
#     4   8   8   4   8
#     4  12  26  46  72 110 144 192 244 310 376 442
#     4  12  26  45  74 105 149 193 243 307 375 449
#     4  12  27  45  76 107 146 192 251 312 377 454
#     4  12  26  46  72 110 144 188 254 308 374 452
#     4  10  24  46  72 105 149 198 251 307 384 456
#
# _framework density 22.120466
#
# number of rings (size 3 to 8) (size 9 to 14) (size 15 to 20)
#    0.000    0.500    6.250    1.500    3.500    8.000 
#    0.000    0.000    0.000    0.000    0.000    0.000 
#    0.000    0.000    0.000    0.000    0.000    0.000 
#
# Total GULP energy -178488.707942 kJ/mol
# GULP energy per Si atom -5577.772123 kJ/mol
# Density = 2.207012 g / cm^3
# Si number density = 22.120466 Si / 1000 Ang^3
#
#
#
# Elastic Constant Matrix: (Units=GPa)
#
#
# Indices 1 2 3 4 5 6 
#
# 1 77.8458 14.1568 15.6182 0.0000 0.0000 0.0000
# 2 14.1568 134.0260 35.3833 0.0000 0.0000 0.0000
# 3 15.6182 35.3833 126.4465 0.0000 0.0000 0.0000
# 4 0.0000 0.0000 0.0000 -997.6179 0.0000 0.0000
# 5 0.0000 0.0000 0.0000 0.0000 46.8770 0.0000
# 6 0.0000 0.0000 0.0000 0.0000 0.0000 19.2183
#
#
#
# Elastic Compliance Matrix: (Units=1/GPa)
#
#
# Indices 1 2 3 4 5 6 
#
# 1 0.013308 -0.001049 -0.001350 0.000000 0.000000 0.000000
# 2 -0.001049 0.008139 -0.002148 0.000000 0.000000 0.000000
# 3 -0.001350 -0.002148 0.008676 0.000000 0.000000 0.000000
# 4 0.000000 0.000000 0.000000 -0.001002 0.000000 0.000000
# 5 0.000000 0.000000 0.000000 0.000000 0.021332 0.000000
# 6 0.000000 0.000000 0.000000 0.000000 0.000000 0.052034
#
#
# Mechanical properties :
#
#
# Convention : Reuss Voigt Hill
#
# Bulk Modulus (GPa) = 47.55462 52.07057 49.81259
# Shear Modulus (GPa) = 42.16182 -168.09383 -62.96601
#
# Velocity S-wave (km/s) = 4.37052 -8.72669 -5.34105
# Velocity P-wave (km/s) = 6.85663 8.82890 3.93295
#
# Compressibility (1/GPa) = 0.02102845
#
# Stress axis : x y z
#
# Youngs Moduli (GPa) = 75.14513 122.86323 115.25646
#
# Poissons Ratio (x) = 0.12891 0.15561
# Poissons Ratio (y) = 0.07884 0.24757
# Poissons Ratio (z) = 0.10145 0.26391
#
# Static dielectric constant tensor:
#      x y z
#    x 1.893770 0.000000 0.000000 
#    y 0.000000 1.781260 0.000000 
#    z 0.000000 0.000000 1.809770 
# 
# From -- ./inp_files/43485.got.cif
#   From: 2010.05.17/outbox.cif.g08.bks.cpg/sg52_22_cif.got.tgz:43485.got - 2010.06.03 12:15:38.
