data_PCOD9412728
_publ_section_title
;
Structure prediction by ZEFSAII (Michael W. Deem and Ramdas Pophale) SiO2 
 PCOD9412728
Probable space group: P N N A
;
_chemical_formula_sum "Si O2"
_cell_formula_units_Z 32
_cell_length_a 13.124806
_cell_length_b 4.979941
_cell_length_c 20.090928
_cell_angle_alpha 90.000000
_cell_angle_beta 90.000000
_cell_angle_gamma 90.000000
_cell_volume 1313.158313
_symmetry_space_group_name_H-M "P N N A"
_symmetry_group_IT_number 52
_symmetry_cell_setting 'orthorhombic'
loop_
_space_group_symop_operation_xyz
x,y,z
1/2-x,-y,z
x,1/2-y,1/2-z
1/2-x,1/2+y,1/2-z
-x,-y,-z
1/2+x,y,-z
-x,1/2+y,1/2+z
1/2+x,1/2-y,1/2+z
loop_
_atom_site_type_symbol
_atom_site_label
_atom_site_fract_x
_atom_site_fract_y
_atom_site_fract_z
Si Si1 0.147468 0.813886 0.392724
Si Si2 0.250000 0.000000 0.700248
Si Si3 0.817181 0.250000 0.750000
Si Si4 0.569857 0.931336 0.407882
Si Si5 0.361137 0.558334 0.520359
O O1 0.135635 0.673106 0.320304
O O2 0.144708 0.583752 0.448791
O O3 0.045164 0.988065 0.393622
O O4 0.250000 0.000000 0.403102
O O5 0.262630 0.750000 0.750000
O O6 0.349724 0.035236 0.652622
O O7 0.750000 0.500000 0.769847
O O8 0.610658 0.134504 0.465942
O O9 0.932513 0.369300 0.435496
O O10 0.250000 0.500000 0.550545
#
# Coordination Sequence:
#
# PCOD9412728 Si02
#       5
#     8   4   4   8   8
#     4  11  26  47  73 108 147 194 241 300 369 434
#     4  12  26  50  76 108 148 190 242 298 366 428
#     4  10  24  46  66  98 146 188 240 288 358 442
#     4  12  26  47  76 109 144 190 244 304 356 440
#     4  12  23  46  74 107 146 186 245 303 362 423
#
# _framework density 24.368732999999999
#
# number of rings (size 3 to 8) (size 9 to 14) (size 15 to 20)
#    0.000    0.500    2.500    5.250    1.750    8.000 
#    9.000    0.000    0.000    0.000    0.000    0.000 
#    0.000    0.000    0.000    0.000    0.000    0.000 
#
# Total GULP energy -179022.081965 kJ/mol
# GULP energy per Si atom -5594.440061 kJ/mol
# Density = 2.431327 g / cm^3
# Si number density = 24.368733 Si / 1000 Ang^3
#
#
#
# Elastic Constant Matrix: (Units=GPa)
#
#
# Indices 1 2 3 4 5 6 
#
# 1 151.5053 3.1494 35.7223 0.0000 0.0000 0.0000
# 2 3.1494 98.4234 31.4951 0.0000 0.0000 0.0000
# 3 35.7223 31.4951 172.0597 0.0000 0.0000 0.0000
# 4 0.0000 0.0000 0.0000 14.2082 0.0000 0.0000
# 5 0.0000 0.0000 0.0000 0.0000 340.5324 0.0000
# 6 0.0000 0.0000 0.0000 0.0000 0.0000 43.4843
#
#
#
# Elastic Compliance Matrix: (Units=1/GPa)
#
#
# Indices 1 2 3 4 5 6 
#
# 1 0.006946 0.000254 -0.001489 0.000000 0.000000 0.000000
# 2 0.000254 0.010802 -0.002030 0.000000 0.000000 0.000000
# 3 -0.001489 -0.002030 0.006493 0.000000 0.000000 0.000000
# 4 0.000000 0.000000 0.000000 0.070382 0.000000 0.000000
# 5 0.000000 0.000000 0.000000 0.000000 0.002937 0.000000
# 6 0.000000 0.000000 0.000000 0.000000 0.000000 0.022997
#
#
# Mechanical properties :
#
#
# Convention : Reuss Voigt Hill
#
# Bulk Modulus (GPa) = 56.46100 62.52465 59.49283
# Shear Modulus (GPa) = 37.59725 103.08641 70.34183
#
# Velocity S-wave (km/s) = 3.93217 6.51111 5.37850
# Velocity P-wave (km/s) = 6.62085 9.06860 7.93962
#
# Compressibility (1/GPa) = 0.01771134
#
# Stress axis : x y z
#
# Youngs Moduli (GPa) = 143.96485 92.57852 154.02191
#
# Poissons Ratio (x) = -0.02352 0.22928
# Poissons Ratio (y) = -0.03658 0.31266
# Poissons Ratio (z) = 0.21431 0.18793
#
# Static dielectric constant tensor:
#      x y z
#    x 2.049580 0.000000 0.000000 
#    y 0.000000 1.935490 0.000000 
#    z 0.000000 0.000000 2.005000 
# 
# From -- ./inp_files/39872.got.cif
#   From: 2010.05.17/outbox.cif.g08.bks.cpg/sg52_20_cif.got.tgz:39872.got - 2010.06.03 12:15:38.
