data_PCOD9412848
_publ_section_title
;
Structure prediction by ZEFSAII (Michael W. Deem and Ramdas Pophale) SiO2 
 PCOD9412848
Probable space group: P N N A
;
_chemical_formula_sum "Si O2"
_cell_formula_units_Z 28
_cell_length_a 13.343390
_cell_length_b 10.223552
_cell_length_c 8.547812
_cell_angle_alpha 90.000000
_cell_angle_beta 90.000000
_cell_angle_gamma 90.000000
_cell_volume 1166.065515
_symmetry_space_group_name_H-M "P N N A"
_symmetry_group_IT_number 52
_symmetry_cell_setting 'orthorhombic'
loop_
_space_group_symop_operation_xyz
x,y,z
1/2-x,-y,z
x,1/2-y,1/2-z
1/2-x,1/2+y,1/2-z
-x,-y,-z
1/2+x,y,-z
-x,1/2+y,1/2+z
1/2+x,1/2-y,1/2+z
loop_
_atom_site_type_symbol
_atom_site_label
_atom_site_fract_x
_atom_site_fract_y
_atom_site_fract_z
Si Si1 0.250000 0.000000 0.239127
Si Si2 0.891101 0.092294 0.343821
Si Si3 0.104931 0.341299 0.035320
Si Si4 0.219006 0.818138 0.971695
O O1 0.172919 0.086214 0.336079
O O2 0.307685 0.098876 0.122532
O O3 0.833772 0.115991 0.179581
O O4 0.821275 0.170348 0.465635
O O5 0.997059 0.160870 0.382073
O O6 0.901431 0.941444 0.389158
O O7 0.160931 0.208935 0.980451
#
# Coordination Sequence:
#
# PCOD9412848 Si02
#       4
#     4   8   8   8
#     4  12  26  40  72 102 146 186 234 294 368 418
#     4  10  25  46  74 102 140 193 248 293 371 424
#     4  11  24  50  72 102 150 183 240 313 352 436
#     4  11  25  43  72 106 139 190 236 298 363 434
#
# _framework density 24.012373
#
# number of rings (size 3 to 8) (size 9 to 14) (size 15 to 20)
#    0.000    1.143    2.857    0.857   16.000    1.143 
#    0.000    0.000    0.000    0.000    0.000    0.000 
#    0.000    0.000    0.000    0.000    0.000    0.000 
#
# Total GULP energy -156304.596259 kJ/mol
# GULP energy per Si atom -5582.307009 kJ/mol
# Density = 2.395772 g / cm^3
# Si number density = 24.012373 Si / 1000 Ang^3
#
#
#
# Elastic Constant Matrix: (Units=GPa)
#
#
# Indices 1 2 3 4 5 6 
#
# 1 150.1376 11.0643 72.1366 0.0000 0.0000 0.0000
# 2 11.0643 52.0280 27.3037 0.0000 0.0000 0.0000
# 3 72.1366 27.3037 117.5634 0.0000 0.0000 0.0000
# 4 0.0000 0.0000 0.0000 63.5301 0.0000 0.0000
# 5 0.0000 0.0000 0.0000 0.0000 19.7899 0.0000
# 6 0.0000 0.0000 0.0000 0.0000 0.0000 6.7800
#
#
#
# Elastic Compliance Matrix: (Units=1/GPa)
#
#
# Indices 1 2 3 4 5 6 
#
# 1 0.009509 0.001184 -0.006110 0.000000 0.000000 0.000000
# 2 0.001184 0.022036 -0.005844 0.000000 0.000000 0.000000
# 3 -0.006110 -0.005844 0.013612 0.000000 0.000000 0.000000
# 4 0.000000 0.000000 0.000000 0.015741 0.000000 0.000000
# 5 0.000000 0.000000 0.000000 0.000000 0.050531 0.000000
# 6 0.000000 0.000000 0.000000 0.000000 0.000000 0.147493
#
#
# Mechanical properties :
#
#
# Convention : Reuss Voigt Hill
#
# Bulk Modulus (GPa) = 42.34222 60.08204 51.21213
# Shear Modulus (GPa) = 17.34107 31.96830 24.65469
#
# Velocity S-wave (km/s) = 2.69024 3.65269 3.20777
# Velocity P-wave (km/s) = 5.22701 6.54715 5.92397
#
# Compressibility (1/GPa) = 0.02361709
#
# Stress axis : x y z
#
# Youngs Moduli (GPa) = 105.16634 45.38108 73.46371
#
# Poissons Ratio (x) = -0.05373 0.44883
# Poissons Ratio (y) = -0.12453 0.42934
# Poissons Ratio (z) = 0.64252 0.26522
#
# Static dielectric constant tensor:
#      x y z
#    x 2.027260 0.000000 0.000000 
#    y 0.000000 1.987010 0.000000 
#    z 0.000000 0.000000 1.939000 
# 
# From -- ./inp_files/9419.got.cif
#   From: 2010.05.17/outbox.cif.g08.bks.cpg/sg52_5_cif.got.tgz:9419.got - 2010.06.03 12:15:38.
