data_PCOD9412593
_publ_section_title
;
Structure prediction by ZEFSAII (Michael W. Deem and Ramdas Pophale) SiO2 
 PCOD9412593
Probable space group: P N N A
;
_chemical_formula_sum "Si O2"
_cell_formula_units_Z 60
_cell_length_a 7.928694
_cell_length_b 24.948628
_cell_length_c 11.075549
_cell_angle_alpha 90.000000
_cell_angle_beta 90.000000
_cell_angle_gamma 90.000000
_cell_volume 2190.854759
_symmetry_space_group_name_H-M "P N N A"
_symmetry_group_IT_number 52
_symmetry_cell_setting 'orthorhombic'
loop_
_space_group_symop_operation_xyz
x,y,z
1/2-x,-y,z
x,1/2-y,1/2-z
1/2-x,1/2+y,1/2-z
-x,-y,-z
1/2+x,y,-z
-x,1/2+y,1/2+z
1/2+x,1/2-y,1/2+z
loop_
_atom_site_type_symbol
_atom_site_label
_atom_site_fract_x
_atom_site_fract_y
_atom_site_fract_z
Si Si1 0.525791 0.545025 0.840196
Si Si2 0.496943 0.121939 0.152029
Si Si3 0.986848 0.079896 0.098926
Si Si4 0.250000 0.000000 0.048851
Si Si5 0.830845 0.737612 0.114476
Si Si6 0.790994 0.277425 0.634738
Si Si7 0.693404 0.868157 0.330530
Si Si8 0.879812 0.572678 0.935166
O O1 0.508978 0.560652 0.702514
O O2 0.694336 0.575331 0.882577
O O3 0.548425 0.484493 0.884303
O O4 0.361250 0.567994 0.915505
O O5 0.337163 0.160759 0.164218
O O6 0.635791 0.142874 0.243710
O O7 0.536506 0.117862 0.011921
O O8 0.908682 0.110542 0.209264
O O9 0.854104 0.038383 0.040802
O O10 0.143568 0.041696 0.128087
O O11 0.757596 0.750000 0.250000
O O12 0.750913 0.680708 0.081702
O O13 0.031197 0.745456 0.125444
O O14 0.786097 0.773852 0.998310
O O15 0.698187 0.250000 0.750000
O O16 0.526803 0.886571 0.411606
#
# Coordination Sequence:
#
# PCOD9412593 Si02
#       8
#     8   8   8   4   8   8   8   8
#     4  10  24  44  66 101 142 188 232 286 348 424
#     4  12  25  43  71  98 142 186 238 300 364 441
#     4  11  25  41  66 105 145 194 243 288 369 428
#     4  10  24  42  64 100 156 196 236 300 350 444
#     4  11  25  52  74 103 146 188 238 311 381 446
#     4  11  26  50  77 106 143 183 246 316 382 438
#     4  12  25  43  72 100 138 190 238 294 361 441
#     4  10  24  43  68  99 144 185 235 285 344 431
#
# _framework density 27.386569999999999
#
# number of rings (size 3 to 8) (size 9 to 14) (size 15 to 20)
#    0.000    1.067    4.000    1.600    7.467    3.200 
#    2.400    0.000    0.000    0.000    0.000    0.000 
#    0.000    0.000    0.000    0.000    0.000    0.000 
#
# Total GULP energy -334452.901213 kJ/mol
# GULP energy per Si atom -5574.215020 kJ/mol
# Density = 2.732424 g / cm^3
# Si number density = 27.386570 Si / 1000 Ang^3
#
#
#
# Elastic Constant Matrix: (Units=GPa)
#
#
# Indices 1 2 3 4 5 6 
#
# 1 105.8525 30.1469 40.1493 0.0000 0.0000 0.0000
# 2 30.1469 151.8011 72.5661 0.0000 0.0000 0.0000
# 3 40.1493 72.5661 237.6904 0.0000 0.0000 0.0000
# 4 0.0000 0.0000 0.0000 34.3015 0.0000 0.0000
# 5 0.0000 0.0000 0.0000 0.0000 33.7099 0.0000
# 6 0.0000 0.0000 0.0000 0.0000 0.0000 49.6303
#
#
#
# Elastic Compliance Matrix: (Units=1/GPa)
#
#
# Indices 1 2 3 4 5 6 
#
# 1 0.010352 -0.001428 -0.001312 0.000000 0.000000 0.000000
# 2 -0.001428 0.007910 -0.002174 0.000000 0.000000 0.000000
# 3 -0.001312 -0.002174 0.005092 0.000000 0.000000 0.000000
# 4 0.000000 0.000000 0.000000 0.029153 0.000000 0.000000
# 5 0.000000 0.000000 0.000000 0.000000 0.029665 0.000000
# 6 0.000000 0.000000 0.000000 0.000000 0.000000 0.020149
#
#
# Mechanical properties :
#
#
# Convention : Reuss Voigt Hill
#
# Bulk Modulus (GPa) = 73.93508 86.78539 80.36023
# Shear Modulus (GPa) = 42.85985 47.02712 44.94348
#
# Velocity S-wave (km/s) = 3.96029 4.14836 4.05542
# Velocity P-wave (km/s) = 6.92585 7.39615 7.16486
#
# Compressibility (1/GPa) = 0.01352538
#
# Stress axis : x y z
#
# Youngs Moduli (GPa) = 96.60222 126.41657 196.36800
#
# Poissons Ratio (x) = 0.18057 0.25773
# Poissons Ratio (y) = 0.13799 0.42685
# Poissons Ratio (z) = 0.12679 0.27480
#
# Static dielectric constant tensor:
#      x y z
#    x 2.108140 0.000000 0.000000 
#    y 0.000000 2.469380 0.000000 
#    z 0.000000 0.000000 1.972920 
# 
# From -- ./inp_files/17142.got.cif
#   From: 2010.05.17/outbox.cif.g08.bks.cpg/sg52_9_cif.got.tgz:17142.got - 2010.06.03 12:15:38.
