data_PCOD9412726
_publ_section_title
;
Structure prediction by ZEFSAII (Michael W. Deem and Ramdas Pophale) SiO2 
 PCOD9412726
Probable space group: P N N A
;
_chemical_formula_sum "Si O2"
_cell_formula_units_Z 36
_cell_length_a 22.211437
_cell_length_b 11.888107
_cell_length_c 5.892831
_cell_angle_alpha 90.000000
_cell_angle_beta 90.000000
_cell_angle_gamma 90.000000
_cell_volume 1556.013456
_symmetry_space_group_name_H-M "P N N A"
_symmetry_group_IT_number 52
_symmetry_cell_setting 'orthorhombic'
loop_
_space_group_symop_operation_xyz
x,y,z
1/2-x,-y,z
x,1/2-y,1/2-z
1/2-x,1/2+y,1/2-z
-x,-y,-z
1/2+x,y,-z
-x,1/2+y,1/2+z
1/2+x,1/2-y,1/2+z
loop_
_atom_site_type_symbol
_atom_site_label
_atom_site_fract_x
_atom_site_fract_y
_atom_site_fract_z
Si Si1 0.783580 0.380454 0.045272
Si Si2 0.806649 0.750000 0.750000
Si Si3 0.401890 0.839976 0.945044
Si Si4 0.895777 0.097326 0.160211
Si Si5 0.876582 0.250000 0.750000
Si Si6 0.491937 0.250000 0.750000
O O1 0.750000 0.500000 0.034362
O O2 0.825914 0.378415 0.269876
O O3 0.732275 0.293880 0.962520
O O4 0.834525 0.345352 0.865689
O O5 0.850966 0.658357 0.641542
O O6 0.386147 0.750000 0.750000
O O7 0.405150 0.965651 0.854373
O O8 0.463069 0.797159 0.059542
O O9 0.947211 0.148695 0.322734
O O10 0.908209 0.171244 0.935547
#
# Coordination Sequence:
#
# PCOD9412726 Si02
#       6
#     8   4   8   8   4   4
#     4  11  23  40  70 101 145 185 235 302 363 445
#     4  10  24  46  64 108 138 181 241 288 380 430
#     4  11  26  47  76 103 147 190 246 304 361 442
#     4  12  25  46  71 106 143 189 248 297 371 431
#     4  11  24  43  68 104 147 186 239 302 360 445
#     4  11  26  49  68 110 143 197 250 300 364 425
#
# _framework density 23.136047000000001
#
# number of rings (size 3 to 8) (size 9 to 14) (size 15 to 20)
#    0.000    0.889    2.222    3.333    1.556   12.444 
#    0.000    0.000    0.000    0.000    0.000    0.000 
#    0.000    0.000    0.000    0.000    0.000    0.000 
#
# Total GULP energy -200674.246710 kJ/mol
# GULP energy per Si atom -5574.284631 kJ/mol
# Density = 2.308339 g / cm^3
# Si number density = 23.136047 Si / 1000 Ang^3
#
#
#
# Elastic Constant Matrix: (Units=GPa)
#
#
# Indices 1 2 3 4 5 6 
#
# 1 155.1331 54.1439 40.5228 0.0000 0.0000 0.0000
# 2 54.1439 174.6170 55.0822 0.0000 0.0000 0.0000
# 3 40.5228 55.0822 66.3577 0.0000 0.0000 0.0000
# 4 0.0000 0.0000 0.0000 32.1057 0.0000 0.0000
# 5 0.0000 0.0000 0.0000 0.0000 30.4730 0.0000
# 6 0.0000 0.0000 0.0000 0.0000 0.0000 9.2708
#
#
#
# Elastic Compliance Matrix: (Units=1/GPa)
#
#
# Indices 1 2 3 4 5 6 
#
# 1 0.007866 -0.001252 -0.003765 0.000000 0.000000 0.000000
# 2 -0.001252 0.007957 -0.005841 0.000000 0.000000 0.000000
# 3 -0.003765 -0.005841 0.022217 0.000000 0.000000 0.000000
# 4 0.000000 0.000000 0.000000 0.031147 0.000000 0.000000
# 5 0.000000 0.000000 0.000000 0.000000 0.032816 0.000000
# 6 0.000000 0.000000 0.000000 0.000000 0.000000 0.107865
#
#
# Mechanical properties :
#
#
# Convention : Reuss Voigt Hill
#
# Bulk Modulus (GPa) = 61.25063 77.28950 69.27006
# Shear Modulus (GPa) = 21.09467 30.79381 25.94424
#
# Velocity S-wave (km/s) = 3.02282 3.65223 3.35233
# Velocity P-wave (km/s) = 6.22213 7.15989 6.70742
#
# Compressibility (1/GPa) = 0.01632636
#
# Stress axis : x y z
#
# Youngs Moduli (GPa) = 127.12439 125.66912 45.00962
#
# Poissons Ratio (x) = 0.15728 0.16946
# Poissons Ratio (y) = 0.15910 0.26290
# Poissons Ratio (z) = 0.47861 0.73404
#
# Static dielectric constant tensor:
#      x y z
#    x 1.897140 0.000000 0.000000 
#    y 0.000000 1.853200 0.000000 
#    z 0.000000 0.000000 2.012970 
# 
# From -- ./inp_files/4915.got.cif
#   From: 2010.05.17/outbox.cif.g08.bks.cpg/sg52_3_cif.got.tgz:4915.got - 2010.06.03 12:15:38.
