data_PCOD9412902
_publ_section_title
;
Structure prediction by ZEFSAII (Michael W. Deem and Ramdas Pophale) SiO2 
 PCOD9412902
Probable space group: P N N A
;
_chemical_formula_sum "Si O2"
_cell_formula_units_Z 32
_cell_length_a 5.079767
_cell_length_b 19.266508
_cell_length_c 13.504991
_cell_angle_alpha 90.000000
_cell_angle_beta 90.000000
_cell_angle_gamma 90.000000
_cell_volume 1321.724982
_symmetry_space_group_name_H-M "P N N A"
_symmetry_group_IT_number 52
_symmetry_cell_setting 'orthorhombic'
loop_
_space_group_symop_operation_xyz
x,y,z
1/2-x,-y,z
x,1/2-y,1/2-z
1/2-x,1/2+y,1/2-z
-x,-y,-z
1/2+x,y,-z
-x,1/2+y,1/2+z
1/2+x,1/2-y,1/2+z
loop_
_atom_site_type_symbol
_atom_site_label
_atom_site_fract_x
_atom_site_fract_y
_atom_site_fract_z
Si Si1 0.402260 0.250000 0.750000
Si Si2 0.674911 0.427353 0.878434
Si Si3 0.825937 0.599771 0.248799
Si Si4 0.750000 0.000000 0.071076
Si Si5 0.723195 0.226241 0.554202
O O1 0.225455 0.318385 0.751536
O O2 0.593998 0.251181 0.655354
O O3 0.750000 0.500000 0.928257
O O4 0.386611 0.427932 0.830986
O O5 0.713612 0.357847 0.941428
O O6 0.882984 0.418575 0.787988
O O7 0.764967 0.565191 0.353968
O O8 0.500000 0.000000 0.000000
O O9 0.518570 0.248538 0.468788
#
# Coordination Sequence:
#
# PCOD9412902 Si02
#       5
#     4   8   8   4   8
#     4  10  26  46  72  96 144 192 230 298 366 416
#     4  11  21  41  69  94 133 177 222 282 349 418
#     4  11  23  42  67  98 131 188 236 281 357 431
#     4  12  24  40  66 104 138 180 240 302 356 424
#     4  11  25  42  66 102 136 175 234 282 343 430
#
# _framework density 24.210787
#
# number of rings (size 3 to 8) (size 9 to 14) (size 15 to 20)
#    0.000    1.000    2.500    4.500    0.000   12.000 
#    0.000    0.000    0.000    0.000    0.000    0.000 
#    0.000    0.000    0.000    0.000    0.000    0.000 
#
# Total GULP energy -179463.933505 kJ/mol
# GULP energy per Si atom -5608.247922 kJ/mol
# Density = 2.415568 g / cm^3
# Si number density = 24.210787 Si / 1000 Ang^3
#
#
#
# Elastic Constant Matrix: (Units=GPa)
#
#
# Indices 1 2 3 4 5 6 
#
# 1 106.9912 15.2663 30.0459 0.0000 0.0000 0.0000
# 2 15.2663 90.0837 2.1579 0.0000 0.0000 0.0000
# 3 30.0459 2.1579 98.6305 0.0000 0.0000 0.0000
# 4 0.0000 0.0000 0.0000 40.6061 0.0000 0.0000
# 5 0.0000 0.0000 0.0000 0.0000 59.2873 0.0000
# 6 0.0000 0.0000 0.0000 0.0000 0.0000 24.5980
#
#
#
# Elastic Compliance Matrix: (Units=1/GPa)
#
#
# Indices 1 2 3 4 5 6 
#
# 1 0.010475 -0.001700 -0.003154 0.000000 0.000000 0.000000
# 2 -0.001700 0.011382 0.000269 0.000000 0.000000 0.000000
# 3 -0.003154 0.000269 0.011094 0.000000 0.000000 0.000000
# 4 0.000000 0.000000 0.000000 0.024627 0.000000 0.000000
# 5 0.000000 0.000000 0.000000 0.000000 0.016867 0.000000
# 6 0.000000 0.000000 0.000000 0.000000 0.000000 0.040654
#
#
# Mechanical properties :
#
#
# Convention : Reuss Voigt Hill
#
# Bulk Modulus (GPa) = 42.04935 43.40507 42.72721
# Shear Modulus (GPa) = 37.82300 41.44732 39.63516
#
# Velocity S-wave (km/s) = 3.95680 4.14204 4.05048
# Velocity P-wave (km/s) = 6.18715 6.39080 6.28980
#
# Compressibility (1/GPa) = 0.02378158
#
# Stress axis : x y z
#
# Youngs Moduli (GPa) = 95.46795 87.85510 90.14127
#
# Poissons Ratio (x) = 0.14932 0.28428
# Poissons Ratio (y) = 0.16226 -0.02422
# Poissons Ratio (z) = 0.30108 -0.02361
#
# Static dielectric constant tensor:
#      x y z
#    x 1.869110 0.000000 0.000000 
#    y 0.000000 1.945020 0.000000 
#    z 0.000000 0.000000 1.910260 
# 
# From -- ./inp_files/15969.got.cif
#   From: 2010.05.17/outbox.cif.g08.bks.cpg/sg52_8_cif.got.tgz:15969.got - 2010.06.03 12:15:38.
