data_PCOD9412462
_publ_section_title
;
Structure prediction by ZEFSAII (Michael W. Deem and Ramdas Pophale) SiO2 
 PCOD9412462
Probable space group: P N N A
;
_chemical_formula_sum "Si O2"
_cell_formula_units_Z 24
_cell_length_a 5.349881
_cell_length_b 10.193475
_cell_length_c 18.049173
_cell_angle_alpha 90.000000
_cell_angle_beta 90.000000
_cell_angle_gamma 90.000000
_cell_volume 984.291402
_symmetry_space_group_name_H-M "P N N A"
_symmetry_group_IT_number 52
_symmetry_cell_setting 'orthorhombic'
loop_
_space_group_symop_operation_xyz
x,y,z
1/2-x,-y,z
x,1/2-y,1/2-z
1/2-x,1/2+y,1/2-z
-x,-y,-z
1/2+x,y,-z
-x,1/2+y,1/2+z
1/2+x,1/2-y,1/2+z
loop_
_atom_site_type_symbol
_atom_site_label
_atom_site_fract_x
_atom_site_fract_y
_atom_site_fract_z
Si Si1 0.747266 0.140104 0.909934
Si Si2 0.445209 0.590200 0.069894
Si Si3 0.739882 0.724286 0.336270
O O1 0.686378 0.272453 0.955101
O O2 0.510737 0.139454 0.853395
O O3 0.008968 0.164673 0.869821
O O4 0.750000 0.000000 0.949951
O O5 0.250000 0.500000 0.115588
O O6 0.670229 0.641688 0.120051
O O7 0.500000 0.500000 0.000000
O O8 0.767766 0.750000 0.250000
#
# Coordination Sequence:
#
# PCOD9412462 Si02
#       3
#     8   8   8
#     4  10  23  45  70 104 149 198 258 322 395 465
#     4  10  26  44  73 109 154 202 260 320 392 473
#     4  10  23  44  74 110 151 200 261 324 391 472
#
# _framework density 24.383022
#
# number of rings (size 3 to 8) (size 9 to 14) (size 15 to 20)
#    2.000    0.000    0.000    2.000    4.667    1.333 
#    6.000    1.667    0.000    0.000    0.000    0.000 
#    0.000    0.000    0.000    0.000    0.000    0.000 
#
# Total GULP energy -134022.332654 kJ/mol
# GULP energy per Si atom -5584.263861 kJ/mol
# Density = 2.432753 g / cm^3
# Si number density = 24.383022 Si / 1000 Ang^3
#
#
#
# Elastic Constant Matrix: (Units=GPa)
#
#
# Indices 1 2 3 4 5 6 
#
# 1 214.3023 52.3424 53.6850 0.0000 0.0000 0.0000
# 2 52.3424 238.1491 59.8990 0.0000 0.0000 0.0000
# 3 53.6850 59.8990 119.5638 0.0000 0.0000 0.0000
# 4 0.0000 0.0000 0.0000 20.6585 0.0000 0.0000
# 5 0.0000 0.0000 0.0000 0.0000 -6.6625 0.0000
# 6 0.0000 0.0000 0.0000 0.0000 0.0000 -38.4882
#
#
#
# Elastic Compliance Matrix: (Units=1/GPa)
#
#
# Indices 1 2 3 4 5 6 
#
# 1 0.005345 -0.000653 -0.002073 0.000000 0.000000 0.000000
# 2 -0.000653 0.004884 -0.002154 0.000000 0.000000 0.000000
# 3 -0.002073 -0.002154 0.010373 0.000000 0.000000 0.000000
# 4 0.000000 0.000000 0.000000 0.048406 0.000000 0.000000
# 5 0.000000 0.000000 0.000000 0.000000 -0.150093 0.000000
# 6 0.000000 0.000000 0.000000 0.000000 0.000000 -0.025982
#
#
# Mechanical properties :
#
#
# Convention : Reuss Voigt Hill
#
# Bulk Modulus (GPa) = 92.22186 100.42978 96.32582
# Shear Modulus (GPa) = -53.36603 22.17415 -15.59594
#
# Velocity S-wave (km/s) = -4.68338 3.01891 -2.53182
# Velocity P-wave (km/s) = 2.94259 7.30956 5.57173
#
# Compressibility (1/GPa) = 0.01084342
#
# Stress axis : x y z
#
# Youngs Moduli (GPa) = 187.08615 204.73615 96.40203
#
# Poissons Ratio (x) = 0.13379 0.19980
# Poissons Ratio (y) = 0.12226 0.20760
# Poissons Ratio (z) = 0.38776 0.44091
#
# Static dielectric constant tensor:
#      x y z
#    x 2.193260 0.000000 0.000000 
#    y 0.000000 2.013440 0.000000 
#    z 0.000000 0.000000 1.864740 
# 
# From -- ./inp_files/29909.got.cif
#   From: 2010.05.17/outbox.cif.g08.bks.cpg/sg52_15_cif.got.tgz:29909.got - 2010.06.03 12:15:38.
