data_PCOD9412214
_publ_section_title
;
Structure prediction by ZEFSAII (Michael W. Deem and Ramdas Pophale) SiO2 
 PCOD9412214
Probable space group: P N N A
;
_chemical_formula_sum "Si O2"
_cell_formula_units_Z 32
_cell_length_a 11.903189
_cell_length_b 18.799280
_cell_length_c 6.051950
_cell_angle_alpha 90.000000
_cell_angle_beta 90.000000
_cell_angle_gamma 90.000000
_cell_volume 1354.253221
_symmetry_space_group_name_H-M "P N N A"
_symmetry_group_IT_number 52
_symmetry_cell_setting 'orthorhombic'
loop_
_space_group_symop_operation_xyz
x,y,z
1/2-x,-y,z
x,1/2-y,1/2-z
1/2-x,1/2+y,1/2-z
-x,-y,-z
1/2+x,y,-z
-x,1/2+y,1/2+z
1/2+x,1/2-y,1/2+z
loop_
_atom_site_type_symbol
_atom_site_label
_atom_site_fract_x
_atom_site_fract_y
_atom_site_fract_z
Si Si1 0.767238 0.118729 0.450158
Si Si2 0.910673 0.683412 0.388049
Si Si3 0.575777 0.932304 0.073129
Si Si4 0.748368 0.750000 0.750000
Si Si5 0.750000 0.500000 0.740348
O O1 0.674234 0.143356 0.275820
O O2 0.805283 0.186931 0.597880
O O3 0.702320 0.059456 0.595088
O O4 0.872159 0.083050 0.316650
O O5 0.957019 0.750000 0.250000
O O6 0.830038 0.710087 0.580981
O O7 0.007381 0.635765 0.491916
O O8 0.680323 0.949658 0.918656
O O9 0.500000 0.000000 0.000000
#
# Coordination Sequence:
#
# PCOD9412214 Si02
#       5
#     8   8   8   4   4
#     4  11  24  45  73 104 145 193 243 307 371 436
#     4  10  24  48  70 105 145 189 246 305 366 443
#     4  12  25  45  73 107 145 193 249 301 373 441
#     4  10  22  48  70 100 148 188 240 306 368 440
#     4  12  26  46  70 102 144 192 240 312 360 430
#
# _framework density 23.629259999999999
#
# number of rings (size 3 to 8) (size 9 to 14) (size 15 to 20)
#    0.000    1.000    0.000    6.750    0.000    8.000 
#   29.250    0.000    0.000    0.000    0.000    0.000 
#    0.000    0.000    0.000    0.000    0.000    0.000 
#
# Total GULP energy -178688.401912 kJ/mol
# GULP energy per Si atom -5584.012560 kJ/mol
# Density = 2.357548 g / cm^3
# Si number density = 23.629260 Si / 1000 Ang^3
#
#
#
# Elastic Constant Matrix: (Units=GPa)
#
#
# Indices 1 2 3 4 5 6 
#
# 1 43.0698 34.2148 26.6332 0.0000 0.0000 0.0000
# 2 34.2148 142.2740 67.6685 0.0000 0.0000 0.0000
# 3 26.6332 67.6685 131.7126 0.0000 0.0000 0.0000
# 4 0.0000 0.0000 0.0000 137.8057 0.0000 0.0000
# 5 0.0000 0.0000 0.0000 0.0000 -21.9418 0.0000
# 6 0.0000 0.0000 0.0000 0.0000 0.0000 54.2658
#
#
#
# Elastic Compliance Matrix: (Units=1/GPa)
#
#
# Indices 1 2 3 4 5 6 
#
# 1 0.029618 -0.005656 -0.003083 0.000000 0.000000 0.000000
# 2 -0.005656 0.010382 -0.004190 0.000000 0.000000 0.000000
# 3 -0.003083 -0.004190 0.010368 0.000000 0.000000 0.000000
# 4 0.000000 0.000000 0.000000 0.007257 0.000000 0.000000
# 5 0.000000 0.000000 0.000000 0.000000 -0.045575 0.000000
# 6 0.000000 0.000000 0.000000 0.000000 0.000000 0.018428
#
#
# Mechanical properties :
#
#
# Convention : Reuss Voigt Hill
#
# Bulk Modulus (GPa) = 40.80051 63.78772 52.29412
# Shear Modulus (GPa) = 77.51232 46.59526 62.05379
#
# Velocity S-wave (km/s) = 5.73365 4.44546 5.13015
# Velocity P-wave (km/s) = 7.81904 7.30776 7.56772
#
# Compressibility (1/GPa) = 0.02450949
#
# Stress axis : x y z
#
# Youngs Moduli (GPa) = 33.76326 96.32219 96.44759
#
# Poissons Ratio (x) = 0.54484 0.29734
# Poissons Ratio (y) = 0.19098 0.40411
# Poissons Ratio (z) = 0.10409 0.40359
#
# Static dielectric constant tensor:
#      x y z
#    x 1.998360 0.000000 0.000000 
#    y 0.000000 1.864460 0.000000 
#    z 0.000000 0.000000 1.858760 
# 
# From -- ./inp_files/1085.got.cif
#   From: 2010.05.17/outbox.cif.g08.bks.cpg/sg52_1_cif.got.tgz:1085.got - 2010.06.03 12:15:38.
