data_PCOD9412914
_publ_section_title
;
Structure prediction by ZEFSAII (Michael W. Deem and Ramdas Pophale) SiO2 
 PCOD9412914
Probable space group: P N N A
;
_chemical_formula_sum "Si O2"
_cell_formula_units_Z 60
_cell_length_a 25.496363
_cell_length_b 9.443680
_cell_length_c 11.971104
_cell_angle_alpha 90.000000
_cell_angle_beta 90.000000
_cell_angle_gamma 90.000000
_cell_volume 2882.396356
_symmetry_space_group_name_H-M "P N N A"
_symmetry_group_IT_number 52
_symmetry_cell_setting 'orthorhombic'
loop_
_space_group_symop_operation_xyz
x,y,z
1/2-x,-y,z
x,1/2-y,1/2-z
1/2-x,1/2+y,1/2-z
-x,-y,-z
1/2+x,y,-z
-x,1/2+y,1/2+z
1/2+x,1/2-y,1/2+z
loop_
_atom_site_type_symbol
_atom_site_label
_atom_site_fract_x
_atom_site_fract_y
_atom_site_fract_z
Si Si1 0.592274 0.037744 0.004943
Si Si2 0.245371 0.830481 0.640590
Si Si3 0.045243 0.082973 0.227916
Si Si4 0.849387 0.485910 0.847968
Si Si5 0.679515 0.697279 0.558118
Si Si6 0.553813 0.413303 0.245802
Si Si7 0.859837 0.667026 0.065070
Si Si8 0.250000 0.500000 0.295760
O O1 0.571998 0.029396 0.132718
O O2 0.615863 0.196040 0.005430
O O3 0.550343 0.039987 0.903451
O O4 0.636456 0.918842 0.979966
O O5 0.226426 0.750000 0.750000
O O6 0.207455 0.779810 0.542593
O O7 0.305022 0.783839 0.616846
O O8 0.250000 0.000000 0.652751
O O9 0.041706 0.250000 0.250000
O O10 0.098951 0.028633 0.282054
O O11 0.995322 0.009517 0.285383
O O12 0.845751 0.318071 0.865183
O O13 0.798416 0.542375 0.782707
O O14 0.849993 0.554074 0.969522
O O15 0.725617 0.620103 0.626145
O O16 0.535035 0.250000 0.250000
O O17 0.602060 0.400107 0.159015
#
# Coordination Sequence:
#
# PCOD9412914 Si02
#       8
#     8   8   8   8   8   8   8   4
#     4  11  24  46  73 105 138 185 241 297 361 427
#     4  12  27  45  71 105 144 188 241 290 357 432
#     4  12  26  46  71 107 143 185 239 309 362 428
#     4  12  26  46  69 105 146 184 241 294 362 432
#     4  12  27  44  72 105 144 191 234 296 355 443
#     4  10  26  47  75 100 138 190 243 296 360 425
#     4  11  24  49  70 101 146 190 233 300 356 429
#     4  12  26  42  70 106 146 186 236 290 366 438
#
# _framework density 20.816012000000001
#
# number of rings (size 3 to 8) (size 9 to 14) (size 15 to 20)
#    0.000    0.533    4.000    3.600    6.533    3.733 
#    0.000    0.000    0.000    0.000    0.000    0.000 
#    0.000    0.000    0.000    0.000    0.000    0.000 
#
# Total GULP energy -335475.478129 kJ/mol
# GULP energy per Si atom -5591.257969 kJ/mol
# Density = 2.076863 g / cm^3
# Si number density = 20.816012 Si / 1000 Ang^3
#
#
#
# Elastic Constant Matrix: (Units=GPa)
#
#
# Indices 1 2 3 4 5 6 
#
# 1 93.7768 54.8221 23.8130 0.0000 0.0000 0.0000
# 2 54.8221 117.8003 55.1172 0.0000 0.0000 0.0000
# 3 23.8130 55.1172 80.8555 0.0000 0.0000 0.0000
# 4 0.0000 0.0000 0.0000 12.9480 0.0000 0.0000
# 5 0.0000 0.0000 0.0000 0.0000 27.3344 0.0000
# 6 0.0000 0.0000 0.0000 0.0000 0.0000 20.1825
#
#
#
# Elastic Compliance Matrix: (Units=1/GPa)
#
#
# Indices 1 2 3 4 5 6 
#
# 1 0.014662 -0.007052 0.000489 0.000000 0.000000 0.000000
# 2 -0.007052 0.015857 -0.008732 0.000000 0.000000 0.000000
# 3 0.000489 -0.008732 0.018176 0.000000 0.000000 0.000000
# 4 0.000000 0.000000 0.000000 0.077232 0.000000 0.000000
# 5 0.000000 0.000000 0.000000 0.000000 0.036584 0.000000
# 6 0.000000 0.000000 0.000000 0.000000 0.000000 0.049548
#
#
# Mechanical properties :
#
#
# Convention : Reuss Voigt Hill
#
# Bulk Modulus (GPa) = 55.23494 62.21525 58.72509
# Shear Modulus (GPa) = 20.10585 22.67168 21.38877
#
# Velocity S-wave (km/s) = 3.11124 3.30380 3.20897
# Velocity P-wave (km/s) = 6.28481 6.67132 6.48095
#
# Compressibility (1/GPa) = 0.01810448
#
# Stress axis : x y z
#
# Youngs Moduli (GPa) = 68.20229 63.06503 55.01742
#
# Poissons Ratio (x) = 0.44476 -0.02692
# Poissons Ratio (y) = 0.48099 0.48041
# Poissons Ratio (z) = -0.03337 0.55069
#
# Static dielectric constant tensor:
#      x y z
#    x 1.735570 0.000000 0.000000 
#    y 0.000000 1.728750 0.000000 
#    z 0.000000 0.000000 1.808780 
# 
# From -- ./inp_files/22912.got.cif
#   From: 2010.05.17/outbox.cif.g08.bks.cpg/sg52_12_cif.got.tgz:22912.got - 2010.06.03 12:15:38.
