data_PCOD9412663
_publ_section_title
;
Structure prediction by ZEFSAII (Michael W. Deem and Ramdas Pophale) SiO2 
 PCOD9412663
Probable space group: P N N A
;
_chemical_formula_sum "Si O2"
_cell_formula_units_Z 36
_cell_length_a 8.862433
_cell_length_b 9.133475
_cell_length_c 19.074745
_cell_angle_alpha 90.000000
_cell_angle_beta 90.000000
_cell_angle_gamma 90.000000
_cell_volume 1544.001614
_symmetry_space_group_name_H-M "P N N A"
_symmetry_group_IT_number 52
_symmetry_cell_setting 'orthorhombic'
loop_
_space_group_symop_operation_xyz
x,y,z
1/2-x,-y,z
x,1/2-y,1/2-z
1/2-x,1/2+y,1/2-z
-x,-y,-z
1/2+x,y,-z
-x,1/2+y,1/2+z
1/2+x,1/2-y,1/2+z
loop_
_atom_site_type_symbol
_atom_site_label
_atom_site_fract_x
_atom_site_fract_y
_atom_site_fract_z
Si Si1 0.250000 0.000000 0.520176
Si Si2 0.139378 0.862849 0.192740
Si Si3 0.250000 0.500000 0.531163
Si Si4 0.346367 0.750000 0.750000
Si Si5 0.679658 0.268416 0.575584
Si Si6 0.372881 0.270009 0.877821
O O1 0.318311 0.876273 0.470592
O O2 0.141607 0.908985 0.571075
O O3 0.199520 0.750000 0.250000
O O4 0.161831 0.794007 0.115488
O O5 0.963805 0.870654 0.217142
O O6 0.250000 0.000000 0.193411
O O7 0.349652 0.596510 0.476945
O O8 0.320585 0.375291 0.580244
O O9 0.236629 0.703829 0.812622
O O10 0.549610 0.255592 0.633658
#
# Coordination Sequence:
#
# PCOD9412663 Si02
#       6
#     4   8   4   4   8   8
#     4  10  26  45  67 110 146 180 244 294 362 422
#     4  10  25  45  71 100 140 184 236 284 355 425
#     4  10  24  43  71 108 140 178 248 292 354 422
#     4  10  28  46  70 104 150 180 240 296 352 428
#     4  11  23  45  78 100 139 192 239 296 355 421
#     4  11  25  44  72 106 147 184 237 299 358 411
#
# _framework density 23.316037000000001
#
# number of rings (size 3 to 8) (size 9 to 14) (size 15 to 20)
#    0.667    0.889    1.111    1.333    6.222   11.556 
#    0.000    0.000    0.000    0.000    0.000    0.000 
#    0.000    0.000    0.000    0.000    0.000    0.000 
#
# Total GULP energy -200820.424070 kJ/mol
# GULP energy per Si atom -5578.345113 kJ/mol
# Density = 2.326297 g / cm^3
# Si number density = 23.316037 Si / 1000 Ang^3
#
#
#
# Elastic Constant Matrix: (Units=GPa)
#
#
# Indices 1 2 3 4 5 6 
#
# 1 118.4374 23.8121 64.7557 0.0000 0.0000 0.0000
# 2 23.8121 133.1005 43.4222 0.0000 0.0000 0.0000
# 3 64.7557 43.4222 129.1780 0.0000 0.0000 0.0000
# 4 0.0000 0.0000 0.0000 24.3478 0.0000 0.0000
# 5 0.0000 0.0000 0.0000 0.0000 47.0520 0.0000
# 6 0.0000 0.0000 0.0000 0.0000 0.0000 0.2294
#
#
#
# Elastic Compliance Matrix: (Units=1/GPa)
#
#
# Indices 1 2 3 4 5 6 
#
# 1 0.011636 -0.000201 -0.005765 0.000000 0.000000 0.000000
# 2 -0.000201 0.008442 -0.002737 0.000000 0.000000 0.000000
# 3 -0.005765 -0.002737 0.011551 0.000000 0.000000 0.000000
# 4 0.000000 0.000000 0.000000 0.041072 0.000000 0.000000
# 5 0.000000 0.000000 0.000000 0.000000 0.021253 0.000000
# 6 0.000000 0.000000 0.000000 0.000000 0.000000 4.359174
#
#
# Mechanical properties :
#
#
# Convention : Reuss Voigt Hill
#
# Bulk Modulus (GPa) = 70.31004 71.63288 70.97146
# Shear Modulus (GPa) = 1.11725 30.90756 16.01240
#
# Velocity S-wave (km/s) = 0.69298 3.64482 2.62344
# Velocity P-wave (km/s) = 5.55527 6.96435 6.29933
#
# Compressibility (1/GPa) = 0.01422272
#
# Stress axis : x y z
#
# Youngs Moduli (GPa) = 85.94073 118.45580 86.56903
#
# Poissons Ratio (x) = 0.02379 0.49911
# Poissons Ratio (y) = 0.01726 0.23694
# Poissons Ratio (z) = 0.49549 0.32422
#
# Static dielectric constant tensor:
#      x y z
#    x 1.886160 0.000000 0.000000 
#    y 0.000000 1.937500 0.000000 
#    z 0.000000 0.000000 1.841340 
# 
# From -- ./inp_files/35626.got.cif
#   From: 2010.05.17/outbox.cif.g08.bks.cpg/sg52_18_cif.got.tgz:35626.got - 2010.06.03 12:15:38.
