data_PCOD9412811
_publ_section_title
;
Structure prediction by ZEFSAII (Michael W. Deem and Ramdas Pophale) SiO2 
 PCOD9412811
Probable space group: P N N A
;
_chemical_formula_sum "Si O2"
_cell_formula_units_Z 60
_cell_length_a 27.150230
_cell_length_b 18.010596
_cell_length_c 4.944165
_cell_angle_alpha 90.000000
_cell_angle_beta 90.000000
_cell_angle_gamma 90.000000
_cell_volume 2417.656261
_symmetry_space_group_name_H-M "P N N A"
_symmetry_group_IT_number 52
_symmetry_cell_setting 'orthorhombic'
loop_
_space_group_symop_operation_xyz
x,y,z
1/2-x,-y,z
x,1/2-y,1/2-z
1/2-x,1/2+y,1/2-z
-x,-y,-z
1/2+x,y,-z
-x,1/2+y,1/2+z
1/2+x,1/2-y,1/2+z
loop_
_atom_site_type_symbol
_atom_site_label
_atom_site_fract_x
_atom_site_fract_y
_atom_site_fract_z
Si Si1 0.507803 0.088253 0.967144
Si Si2 0.100480 0.173872 0.138239
Si Si3 0.810285 0.750000 0.750000
Si Si4 0.696867 0.969766 0.087255
Si Si5 0.867123 0.526653 0.914607
Si Si6 0.769124 0.175123 0.423653
Si Si7 0.947849 0.411260 0.959464
Si Si8 0.370021 0.203364 0.484216
O O1 0.560150 0.126537 0.026090
O O2 0.492847 0.100807 0.659247
O O3 0.465948 0.116286 0.170123
O O4 0.500000 0.000000 0.000000
O O5 0.075190 0.250000 0.250000
O O6 0.151842 0.210715 0.038207
O O7 0.121431 0.112060 0.345742
O O8 0.777442 0.815429 0.619899
O O9 0.669041 0.013896 0.331183
O O10 0.714759 0.891849 0.225147
O O11 0.750000 0.000000 0.993982
O O12 0.658925 0.982794 0.837784
O O13 0.921766 0.491272 0.953342
O O14 0.763752 0.250000 0.250000
O O15 0.816812 0.178291 0.618010
O O16 0.902738 0.364345 0.067318
O O17 0.394565 0.250000 0.250000
O O18 0.362319 0.250000 0.750000
#
# Coordination Sequence:
#
# PCOD9412811 Si02
#       8
#     8   8   4   8   8   8   8   8
#     4  12  26  49  80 114 146 202 259 329 400 473
#     4  10  27  50  80 109 158 206 268 325 401 473
#     4  10  24  52  72 104 158 204 264 314 394 464
#     4  12  28  44  76 112 159 206 270 319 384 472
#     4  12  26  49  76 114 153 207 263 329 393 464
#     4  11  25  41  75 107 154 206 262 312 394 461
#     4  12  26  46  80 108 153 194 257 327 393 464
#     4  11  24  42  70 108 150 191 244 309 386 459
#
# _framework density 24.817423000000002
#
# number of rings (size 3 to 8) (size 9 to 14) (size 15 to 20)
#    0.400    0.267    3.333    3.200    7.467    1.600 
#    2.400    2.000    0.000    0.000    0.000    0.000 
#    0.000    0.000    0.000    0.000    0.000    0.000 
#
# Total GULP energy -334618.278799 kJ/mol
# GULP energy per Si atom -5576.971313 kJ/mol
# Density = 2.476094 g / cm^3
# Si number density = 24.817423 Si / 1000 Ang^3
#
#
#
# Elastic Constant Matrix: (Units=GPa)
#
#
# Indices 1 2 3 4 5 6 
#
# 1 143.4211 29.5652 20.1750 0.0000 0.0000 0.0000
# 2 29.5652 97.4520 9.1367 0.0000 0.0000 0.0000
# 3 20.1750 9.1367 86.5218 0.0000 0.0000 0.0000
# 4 0.0000 0.0000 0.0000 24.7540 0.0000 0.0000
# 5 0.0000 0.0000 0.0000 0.0000 -11.4620 0.0000
# 6 0.0000 0.0000 0.0000 0.0000 0.0000 46.8950
#
#
#
# Elastic Compliance Matrix: (Units=1/GPa)
#
#
# Indices 1 2 3 4 5 6 
#
# 1 0.007638 -0.002172 -0.001552 0.000000 0.000000 0.000000
# 2 -0.002172 0.010982 -0.000653 0.000000 0.000000 0.000000
# 3 -0.001552 -0.000653 0.011989 0.000000 0.000000 0.000000
# 4 0.000000 0.000000 0.000000 0.040397 0.000000 0.000000
# 5 0.000000 0.000000 0.000000 0.000000 -0.087245 0.000000
# 6 0.000000 0.000000 0.000000 0.000000 0.000000 0.021324
#
#
# Mechanical properties :
#
#
# Convention : Reuss Voigt Hill
#
# Bulk Modulus (GPa) = 45.75627 49.46097 47.60862
# Shear Modulus (GPa) = 236.69775 29.93863 133.31819
#
# Velocity S-wave (km/s) = 9.77664 3.47703 7.33732
# Velocity P-wave (km/s) = 12.07977 6.00773 9.53975
#
# Compressibility (1/GPa) = 0.02185493
#
# Stress axis : x y z
#
# Youngs Moduli (GPa) = 130.91611 91.06128 83.41259
#
# Poissons Ratio (x) = 0.19778 0.12944
# Poissons Ratio (y) = 0.28434 0.05449
# Poissons Ratio (z) = 0.20315 0.05948
#
# Static dielectric constant tensor:
#      x y z
#    x 1.989800 0.000000 0.000000 
#    y 0.000000 2.092390 0.000000 
#    z 0.000000 0.000000 2.019300 
# 
# From -- ./inp_files/5970.got.cif
#   From: 2010.05.17/outbox.cif.g08.bks.cpg/sg52_3_cif.got.tgz:5970.got - 2010.06.03 12:15:38.
