data_PCOD9412524
_publ_section_title
;
Structure prediction by ZEFSAII (Michael W. Deem and Ramdas Pophale) SiO2 
 PCOD9412524
Probable space group: P N N A
;
_chemical_formula_sum "Si O2"
_cell_formula_units_Z 20
_cell_length_a 6.500223
_cell_length_b 9.193617
_cell_length_c 12.273695
_cell_angle_alpha 90.000000
_cell_angle_beta 90.000000
_cell_angle_gamma 90.000000
_cell_volume 733.482895
_symmetry_space_group_name_H-M "P N N A"
_symmetry_group_IT_number 52
_symmetry_cell_setting 'orthorhombic'
loop_
_space_group_symop_operation_xyz
x,y,z
1/2-x,-y,z
x,1/2-y,1/2-z
1/2-x,1/2+y,1/2-z
-x,-y,-z
1/2+x,y,-z
-x,1/2+y,1/2+z
1/2+x,1/2-y,1/2+z
loop_
_atom_site_type_symbol
_atom_site_label
_atom_site_fract_x
_atom_site_fract_y
_atom_site_fract_z
Si Si1 0.619962 0.881584 0.471274
Si Si2 0.778292 0.250000 0.250000
Si Si3 0.378287 0.146106 0.154106
O O1 0.377599 0.925390 0.516472
O O2 0.604552 0.836524 0.344357
O O3 0.636119 0.733951 0.543034
O O4 0.617744 0.139837 0.189573
O O5 0.294408 0.250000 0.250000
O O6 0.250000 0.000000 0.151474
#
# Coordination Sequence:
#
# PCOD9412524 Si02
#       3
#     8   4   8
#     4  12  24  51  78 117 168 220 270 348 425 494
#     4  10  26  48  78 120 168 216 280 344 414 492
#     4  10  23  48  76 119 166 219 278 341 421 501
#
# _framework density 27.267166
#
# number of rings (size 3 to 8) (size 9 to 14) (size 15 to 20)
#    1.200    0.000    4.000    1.200    0.000    3.200 
#   18.000    0.000    0.000    0.000    0.000    0.000 
#    0.000    0.000    0.000    0.000    0.000    0.000 
#
# Total GULP energy -111910.722556 kJ/mol
# GULP energy per Si atom -5595.536128 kJ/mol
# Density = 2.720510 g / cm^3
# Si number density = 27.267166 Si / 1000 Ang^3
#
#
#
# Elastic Constant Matrix: (Units=GPa)
#
#
# Indices 1 2 3 4 5 6 
#
# 1 159.3403 73.6264 57.9147 0.0000 0.0000 0.0000
# 2 73.6264 224.8234 98.6693 0.0000 0.0000 0.0000
# 3 57.9147 98.6693 220.7854 0.0000 0.0000 0.0000
# 4 0.0000 0.0000 0.0000 330.5926 0.0000 0.0000
# 5 0.0000 0.0000 0.0000 0.0000 68.6883 0.0000
# 6 0.0000 0.0000 0.0000 0.0000 0.0000 68.7288
#
#
#
# Elastic Compliance Matrix: (Units=1/GPa)
#
#
# Indices 1 2 3 4 5 6 
#
# 1 0.007603 -0.002008 -0.001097 0.000000 0.000000 0.000000
# 2 -0.002008 0.006064 -0.002183 0.000000 0.000000 0.000000
# 3 -0.001097 -0.002183 0.005793 0.000000 0.000000 0.000000
# 4 0.000000 0.000000 0.000000 0.003025 0.000000 0.000000
# 5 0.000000 0.000000 0.000000 0.000000 0.014559 0.000000
# 6 0.000000 0.000000 0.000000 0.000000 0.000000 0.014550
#
#
# Mechanical properties :
#
#
# Convention : Reuss Voigt Hill
#
# Bulk Modulus (GPa) = 112.58051 118.37445 115.47748
# Shear Modulus (GPa) = 76.77037 118.58452 97.67744
#
# Velocity S-wave (km/s) = 5.31187 6.60184 5.99167
# Velocity P-wave (km/s) = 8.88813 10.08065 9.50311
#
# Compressibility (1/GPa) = 0.00888253
#
# Stress axis : x y z
#
# Youngs Moduli (GPa) = 131.53562 164.91428 172.63487
#
# Poissons Ratio (x) = 0.33122 0.18932
# Poissons Ratio (y) = 0.26418 0.37687
# Poissons Ratio (z) = 0.14425 0.36002
#
# Static dielectric constant tensor:
#      x y z
#    x 2.257560 0.000000 0.000000 
#    y 0.000000 2.006400 0.000000 
#    z 0.000000 0.000000 2.104190 
# 
# From -- ./inp_files/23332.got.cif
#   From: 2010.05.17/outbox.cif.g08.bks.cpg/sg52_12_cif.got.tgz:23332.got - 2010.06.03 12:15:38.
