data_PCOD9412403
_publ_section_title
;
Structure prediction by ZEFSAII (Michael W. Deem and Ramdas Pophale) SiO2 
 PCOD9412403
Probable space group: P N N A
;
_chemical_formula_sum "Si O2"
_cell_formula_units_Z 32
_cell_length_a 8.898939
_cell_length_b 8.335912
_cell_length_c 19.281432
_cell_angle_alpha 90.000000
_cell_angle_beta 90.000000
_cell_angle_gamma 90.000000
_cell_volume 1430.311519
_symmetry_space_group_name_H-M "P N N A"
_symmetry_group_IT_number 52
_symmetry_cell_setting 'orthorhombic'
loop_
_space_group_symop_operation_xyz
x,y,z
1/2-x,-y,z
x,1/2-y,1/2-z
1/2-x,1/2+y,1/2-z
-x,-y,-z
1/2+x,y,-z
-x,1/2+y,1/2+z
1/2+x,1/2-y,1/2+z
loop_
_atom_site_type_symbol
_atom_site_label
_atom_site_fract_x
_atom_site_fract_y
_atom_site_fract_z
Si Si1 0.368981 0.127085 0.694511
Si Si2 0.912210 0.194315 0.928327
Si Si3 0.106966 0.605795 0.199679
Si Si4 0.449634 0.680008 0.422257
O O1 0.300143 0.250000 0.750000
O O2 0.462974 0.222487 0.636740
O O3 0.250000 0.000000 0.665991
O O4 0.489813 0.015178 0.734113
O O5 0.963419 0.316222 0.869078
O O6 0.730291 0.205523 0.925844
O O7 0.963440 0.012209 0.912162
O O8 0.976749 0.227495 0.004277
O O9 0.250000 0.500000 0.181195
O O10 0.151038 0.750000 0.250000
#
# Coordination Sequence:
#
# PCOD9412403 Si02
#       4
#     8   8   8   8
#     4  12  27  47  67 100 138 183 229 284 346 408
#     4  10  23  43  70 103 135 180 224 281 347 411
#     4  12  25  42  70  99 133 179 231 288 340 404
#     4  10  23  44  70 100 140 178 227 280 345 413
#
# _framework density 22.372748000000001
#
# number of rings (size 3 to 8) (size 9 to 14) (size 15 to 20)
#    0.000    1.000    2.500    3.000    7.000    2.000 
#    4.500    0.000    0.000    0.000    0.000    0.000 
#    0.000    0.000    0.000    0.000    0.000    0.000 
#
# Total GULP energy -178942.773724 kJ/mol
# GULP energy per Si atom -5591.961679 kJ/mol
# Density = 2.232183 g / cm^3
# Si number density = 22.372748 Si / 1000 Ang^3
#
#
#
# Elastic Constant Matrix: (Units=GPa)
#
#
# Indices 1 2 3 4 5 6 
#
# 1 69.0429 46.0231 35.6712 0.0000 0.0000 0.0000
# 2 46.0231 120.7898 76.2622 0.0000 0.0000 0.0000
# 3 35.6712 76.2622 126.6696 0.0000 0.0000 0.0000
# 4 0.0000 0.0000 0.0000 39.1710 0.0000 0.0000
# 5 0.0000 0.0000 0.0000 0.0000 26.6646 0.0000
# 6 0.0000 0.0000 0.0000 0.0000 0.0000 40.7470
#
#
#
# Elastic Compliance Matrix: (Units=1/GPa)
#
#
# Indices 1 2 3 4 5 6 
#
# 1 0.019627 -0.006434 -0.001653 0.000000 0.000000 0.000000
# 2 -0.006434 0.015465 -0.007499 0.000000 0.000000 0.000000
# 3 -0.001653 -0.007499 0.012875 0.000000 0.000000 0.000000
# 4 0.000000 0.000000 0.000000 0.025529 0.000000 0.000000
# 5 0.000000 0.000000 0.000000 0.000000 0.037503 0.000000
# 6 0.000000 0.000000 0.000000 0.000000 0.000000 0.024542
#
#
# Mechanical properties :
#
#
# Convention : Reuss Voigt Hill
#
# Bulk Modulus (GPa) = 59.54558 70.26835 64.90697
# Shear Modulus (GPa) = 29.01725 31.88623 30.45174
#
# Velocity S-wave (km/s) = 3.60528 3.77931 3.69332
# Velocity P-wave (km/s) = 6.63353 7.10778 6.87474
#
# Compressibility (1/GPa) = 0.01679386
#
# Stress axis : x y z
#
# Youngs Moduli (GPa) = 50.95012 64.66236 77.67119
#
# Poissons Ratio (x) = 0.41607 0.12841
# Poissons Ratio (y) = 0.32784 0.58244
# Poissons Ratio (z) = 0.08423 0.48489
#
# Static dielectric constant tensor:
#      x y z
#    x 1.852730 0.000000 0.000000 
#    y 0.000000 1.849160 0.000000 
#    z 0.000000 0.000000 1.777700 
# 
# From -- ./inp_files/35454.got.cif
#   From: 2010.05.17/outbox.cif.g08.bks.cpg/sg52_18_cif.got.tgz:35454.got - 2010.06.03 12:15:38.
