data_PCOD9412469
_publ_section_title
;
Structure prediction by ZEFSAII (Michael W. Deem and Ramdas Pophale) SiO2 
 PCOD9412469
Probable space group: P N N A
;
_chemical_formula_sum "Si O2"
_cell_formula_units_Z 28
_cell_length_a 20.531990
_cell_length_b 4.955611
_cell_length_c 11.699454
_cell_angle_alpha 90.000000
_cell_angle_beta 90.000000
_cell_angle_gamma 90.000000
_cell_volume 1190.402545
_symmetry_space_group_name_H-M "P N N A"
_symmetry_group_IT_number 52
_symmetry_cell_setting 'orthorhombic'
loop_
_space_group_symop_operation_xyz
x,y,z
1/2-x,-y,z
x,1/2-y,1/2-z
1/2-x,1/2+y,1/2-z
-x,-y,-z
1/2+x,y,-z
-x,1/2+y,1/2+z
1/2+x,1/2-y,1/2+z
loop_
_atom_site_type_symbol
_atom_site_label
_atom_site_fract_x
_atom_site_fract_y
_atom_site_fract_z
Si Si1 0.572841 0.920497 0.528665
Si Si2 0.639853 0.413330 0.594765
Si Si3 0.180035 0.140713 0.623776
Si Si4 0.241836 0.750000 0.250000
O O1 0.583426 0.629301 0.580138
O O2 0.500000 0.000000 0.500000
O O3 0.604480 0.131904 0.617595
O O4 0.620174 0.952843 0.418742
O O5 0.675248 0.372513 0.473036
O O6 0.693582 0.507357 0.685580
O O7 0.168211 0.250000 0.750000
O O8 0.250000 0.000000 0.622674
O O9 0.250000 0.500000 0.151737
#
# Coordination Sequence:
#
# PCOD9412469 Si02
#       4
#     8   8   8   4
#     4  10  23  45  66  95 136 181 229 286 343 422
#     4  10  24  41  65  97 132 178 231 283 344 413
#     4  10  25  39  68 102 137 182 226 293 354 421
#     4  12  24  40  68 100 140 180 230 290 350 410
#
# _framework density 23.521457000000002
#
# number of rings (size 3 to 8) (size 9 to 14) (size 15 to 20)
#    1.714    0.000    0.000    3.429    8.000    0.000 
#    5.143    0.000    0.000    0.000    0.000    0.000 
#    0.000    0.000    0.000    0.000    0.000    0.000 
#
# Total GULP energy -155945.149154 kJ/mol
# GULP energy per Si atom -5569.469613 kJ/mol
# Density = 2.346792 g / cm^3
# Si number density = 23.521457 Si / 1000 Ang^3
#
#
#
# Elastic Constant Matrix: (Units=GPa)
#
#
# Indices 1 2 3 4 5 6 
#
# 1 143.6372 3.9593 16.6473 0.0000 0.0000 0.0000
# 2 3.9593 128.8487 -2.1178 0.0000 0.0000 0.0000
# 3 16.6473 -2.1178 89.9936 0.0000 0.0000 0.0000
# 4 0.0000 0.0000 0.0000 31.9020 0.0000 0.0000
# 5 0.0000 0.0000 0.0000 0.0000 27.5804 0.0000
# 6 0.0000 0.0000 0.0000 0.0000 0.0000 28.9749
#
#
#
# Elastic Compliance Matrix: (Units=1/GPa)
#
#
# Indices 1 2 3 4 5 6 
#
# 1 0.007122 -0.000241 -0.001323 0.000000 0.000000 0.000000
# 2 -0.000241 0.007772 0.000227 0.000000 0.000000 0.000000
# 3 -0.001323 0.000227 0.011362 0.000000 0.000000 0.000000
# 4 0.000000 0.000000 0.000000 0.031346 0.000000 0.000000
# 5 0.000000 0.000000 0.000000 0.000000 0.036258 0.000000
# 6 0.000000 0.000000 0.000000 0.000000 0.000000 0.034513
#
#
# Mechanical properties :
#
#
# Convention : Reuss Voigt Hill
#
# Bulk Modulus (GPa) = 42.40245 44.38414 43.39330
# Shear Modulus (GPa) = 35.99554 40.62419 38.30986
#
# Velocity S-wave (km/s) = 3.91618 4.16036 4.04012
# Velocity P-wave (km/s) = 6.20604 6.47987 6.34443
#
# Compressibility (1/GPa) = 0.02358354
#
# Stress axis : x y z
#
# Youngs Moduli (GPa) = 140.41074 128.66420 88.01266
#
# Poissons Ratio (x) = 0.03096 0.11645
# Poissons Ratio (y) = 0.03378 -0.02001
# Poissons Ratio (z) = 0.18578 -0.02926
#
# Static dielectric constant tensor:
#      x y z
#    x 2.056240 0.000000 0.000000 
#    y 0.000000 0.694700 0.000000 
#    z 0.000000 0.000000 2.013070 
# 
# From -- ./inp_files/21084.got.cif
#   From: 2010.05.17/outbox.cif.g08.bks.cpg/sg52_11_cif.got.tgz:21084.got - 2010.06.03 12:15:38.
