data_PCOD9412497
_publ_section_title
;
Structure prediction by ZEFSAII (Michael W. Deem and Ramdas Pophale) SiO2 
 PCOD9412497
Probable space group: P N N A
;
_chemical_formula_sum "Si O2"
_cell_formula_units_Z 60
_cell_length_a 16.320955
_cell_length_b 26.713721
_cell_length_c 6.623809
_cell_angle_alpha 90.000000
_cell_angle_beta 90.000000
_cell_angle_gamma 90.000000
_cell_volume 2887.937261
_symmetry_space_group_name_H-M "P N N A"
_symmetry_group_IT_number 52
_symmetry_cell_setting 'orthorhombic'
loop_
_space_group_symop_operation_xyz
x,y,z
1/2-x,-y,z
x,1/2-y,1/2-z
1/2-x,1/2+y,1/2-z
-x,-y,-z
1/2+x,y,-z
-x,1/2+y,1/2+z
1/2+x,1/2-y,1/2+z
loop_
_atom_site_type_symbol
_atom_site_label
_atom_site_fract_x
_atom_site_fract_y
_atom_site_fract_z
Si Si1 0.939003 0.853827 0.923549
Si Si2 0.045794 0.549605 0.566650
Si Si3 0.771167 0.750000 0.250000
Si Si4 0.841588 0.104517 0.741976
Si Si5 0.762968 0.854492 0.093225
Si Si6 0.096313 0.211217 0.432304
Si Si7 0.698824 0.550789 0.156562
Si Si8 0.049632 0.696543 0.246788
O O1 0.905872 0.838377 0.703160
O O2 0.978188 0.907980 0.899582
O O3 0.860863 0.850778 0.071749
O O4 0.009652 0.820746 0.038108
O O5 0.103273 0.570724 0.388666
O O6 0.107539 0.543033 0.753991
O O7 0.000000 0.500000 0.500000
O O8 0.728827 0.800961 0.171328
O O9 0.826198 0.770541 0.437613
O O10 0.806328 0.068858 0.572433
O O11 0.897750 0.150253 0.664789
O O12 0.773799 0.132086 0.876341
O O13 0.738340 0.901508 0.229759
O O14 0.082847 0.250000 0.250000
O O15 0.023791 0.207122 0.592119
O O16 0.750000 0.500000 0.184548
O O17 0.095766 0.750000 0.250000
#
# Coordination Sequence:
#
# PCOD9412497 Si02
#       8
#     8   8   4   8   8   8   8   8
#     4  11  22  38  68  95 128 176 220 271 328 377
#     4  10  23  46  69  99 127 165 226 286 329 397
#     4  12  24  40  64 102 136 172 234 264 322 408
#     4  10  26  42  63  95 131 171 218 263 348 393
#     4  11  24  43  64  97 137 180 218 279 324 403
#     4  12  19  36  63  95 130 169 217 265 320 377
#     4  11  25  46  67  96 135 176 221 277 342 411
#     4  11  20  39  59  92 129 167 215 267 312 394
#
# _framework density 20.776074999999999
#
# number of rings (size 3 to 8) (size 9 to 14) (size 15 to 20)
#    0.000    1.067    4.667    1.600    1.867    4.800 
#    0.000    0.000    0.000    0.000    0.000    0.000 
#    0.000    0.000    0.000    0.000    0.000    0.000 
#
# Total GULP energy -334953.934379 kJ/mol
# GULP energy per Si atom -5582.565573 kJ/mol
# Density = 2.072879 g / cm^3
# Si number density = 20.776075 Si / 1000 Ang^3
#
#
#
# Elastic Constant Matrix: (Units=GPa)
#
#
# Indices 1 2 3 4 5 6 
#
# 1 38.2388 39.2912 4.7945 0.0000 0.0000 0.0000
# 2 39.2912 165.7815 42.5168 0.0000 0.0000 0.0000
# 3 4.7945 42.5168 86.0952 0.0000 0.0000 0.0000
# 4 0.0000 0.0000 0.0000 27.3894 0.0000 0.0000
# 5 0.0000 0.0000 0.0000 0.0000 10.5564 0.0000
# 6 0.0000 0.0000 0.0000 0.0000 0.0000 17.0248
#
#
#
# Elastic Compliance Matrix: (Units=1/GPa)
#
#
# Indices 1 2 3 4 5 6 
#
# 1 0.035020 -0.008931 0.002460 0.000000 0.000000 0.000000
# 2 -0.008931 0.009184 -0.004038 0.000000 0.000000 0.000000
# 3 0.002460 -0.004038 0.013472 0.000000 0.000000 0.000000
# 4 0.000000 0.000000 0.000000 0.036510 0.000000 0.000000
# 5 0.000000 0.000000 0.000000 0.000000 0.094730 0.000000
# 6 0.000000 0.000000 0.000000 0.000000 0.000000 0.058738
#
#
# Mechanical properties :
#
#
# Convention : Reuss Voigt Hill
#
# Bulk Modulus (GPa) = 27.27880 51.48006 39.37943
# Shear Modulus (GPa) = 17.80048 24.56164 21.18106
#
# Velocity S-wave (km/s) = 2.93025 3.44206 3.19641
# Velocity P-wave (km/s) = 4.96054 6.37411 5.71123
#
# Compressibility (1/GPa) = 0.03665850
#
# Stress axis : x y z
#
# Youngs Moduli (GPa) = 28.55541 108.88099 74.22664
#
# Poissons Ratio (x) = 0.97239 -0.18261
# Poissons Ratio (y) = 0.25502 0.29974
# Poissons Ratio (z) = -0.07025 0.43968
#
# Static dielectric constant tensor:
#      x y z
#    x 1.765880 0.000000 0.000000 
#    y 0.000000 1.793980 0.000000 
#    z 0.000000 0.000000 1.757650 
# 
# From -- ./inp_files/3601.got.cif
#   From: 2010.05.17/outbox.cif.g08.bks.cpg/sg52_2_cif.got.tgz:3601.got - 2010.06.03 12:15:38.
