data_PCOD9412102
_publ_section_title
;
Structure prediction by ZEFSAII (Michael W. Deem and Ramdas Pophale) SiO2 
 PCOD9412102
Probable space group: P N N A
;
_chemical_formula_sum "Si O2"
_cell_formula_units_Z 32
_cell_length_a 11.853144
_cell_length_b 7.258060
_cell_length_c 15.715829
_cell_angle_alpha 90.000000
_cell_angle_beta 90.000000
_cell_angle_gamma 90.000000
_cell_volume 1352.045818
_symmetry_space_group_name_H-M "P N N A"
_symmetry_group_IT_number 52
_symmetry_cell_setting 'orthorhombic'
loop_
_space_group_symop_operation_xyz
x,y,z
1/2-x,-y,z
x,1/2-y,1/2-z
1/2-x,1/2+y,1/2-z
-x,-y,-z
1/2+x,y,-z
-x,1/2+y,1/2+z
1/2+x,1/2-y,1/2+z
loop_
_atom_site_type_symbol
_atom_site_label
_atom_site_fract_x
_atom_site_fract_y
_atom_site_fract_z
Si Si1 0.999525 0.750000 0.750000
Si Si2 0.750000 0.500000 0.928622
Si Si3 0.360579 0.593686 0.683838
Si Si4 0.583320 0.222469 0.932643
Si Si5 0.575971 0.700465 0.574056
O O1 0.074715 0.571323 0.732135
O O2 0.925540 0.721022 0.834322
O O3 0.670297 0.358282 0.977513
O O4 0.661968 0.649686 0.888512
O O5 0.250000 0.500000 0.642479
O O6 0.323898 0.750000 0.750000
O O7 0.457815 0.680029 0.624370
O O8 0.618145 0.009518 0.932127
O O9 0.463217 0.247942 0.978223
#
# Coordination Sequence:
#
# PCOD9412102 Si02
#       5
#     4   4   8   8   8
#     4  10  22  44  64  90 134 172 226 274 340 404
#     4  12  22  42  66 100 130 180 224 278 338 412
#     4  11  22  41  67  99 132 177 225 285 344 406
#     4  10  23  44  64  96 131 177 226 282 334 409
#     4  10  24  43  67  98 138 175 225 280 346 415
#
# _framework density 23.667836000000001
#
# number of rings (size 3 to 8) (size 9 to 14) (size 15 to 20)
#    0.000    1.500    1.250    3.000    0.000    6.000 
#   15.750    0.000    0.000    0.000    0.000    0.000 
#    0.000    0.000    0.000    0.000    0.000    0.000 
#
# Total GULP energy -178531.587532 kJ/mol
# GULP energy per Si atom -5579.112110 kJ/mol
# Density = 2.361397 g / cm^3
# Si number density = 23.667836 Si / 1000 Ang^3
#
#
#
# Elastic Constant Matrix: (Units=GPa)
#
#
# Indices 1 2 3 4 5 6 
#
# 1 138.0731 74.9713 26.8870 0.0000 0.0000 0.0000
# 2 74.9713 167.5171 22.5593 0.0000 0.0000 0.0000
# 3 26.8870 22.5593 78.6643 0.0000 0.0000 0.0000
# 4 0.0000 0.0000 0.0000 14.9271 0.0000 0.0000
# 5 0.0000 0.0000 0.0000 0.0000 7.3179 0.0000
# 6 0.0000 0.0000 0.0000 0.0000 0.0000 63.1218
#
#
#
# Elastic Compliance Matrix: (Units=1/GPa)
#
#
# Indices 1 2 3 4 5 6 
#
# 1 0.009921 -0.004144 -0.002203 0.000000 0.000000 0.000000
# 2 -0.004144 0.007940 -0.000861 0.000000 0.000000 0.000000
# 3 -0.002203 -0.000861 0.013712 0.000000 0.000000 0.000000
# 4 0.000000 0.000000 0.000000 0.066992 0.000000 0.000000
# 5 0.000000 0.000000 0.000000 0.000000 0.136652 0.000000
# 6 0.000000 0.000000 0.000000 0.000000 0.000000 0.015842
#
#
# Mechanical properties :
#
#
# Convention : Reuss Voigt Hill
#
# Bulk Modulus (GPa) = 58.27836 70.34332 64.31084
# Shear Modulus (GPa) = 18.43700 34.39579 26.41639
#
# Velocity S-wave (km/s) = 2.79407 3.81632 3.34448
# Velocity P-wave (km/s) = 5.92334 7.01460 6.49194
#
# Compressibility (1/GPa) = 0.01715903
#
# Stress axis : x y z
#
# Youngs Moduli (GPa) = 100.79219 125.94600 72.92893
#
# Poissons Ratio (x) = 0.52187 0.16065
# Poissons Ratio (y) = 0.41764 0.06277
# Poissons Ratio (z) = 0.22202 0.10841
#
# Static dielectric constant tensor:
#      x y z
#    x 1.938310 0.000000 0.000000 
#    y 0.000000 1.918820 0.000000 
#    z 0.000000 0.000000 1.981830 
# 
# From -- ./inp_files/25625.got.cif
#   From: 2010.05.17/outbox.cif.g08.bks.cpg/sg52_13_cif.got.tgz:25625.got - 2010.06.03 12:15:38.
