data_PCOD9412503
_publ_section_title
;
Structure prediction by ZEFSAII (Michael W. Deem and Ramdas Pophale) SiO2 
 PCOD9412503
Probable space group: P N N A
;
_chemical_formula_sum "Si O2"
_cell_formula_units_Z 28
_cell_length_a 7.865701
_cell_length_b 8.591274
_cell_length_c 16.857173
_cell_angle_alpha 90.000000
_cell_angle_beta 90.000000
_cell_angle_gamma 90.000000
_cell_volume 1139.146939
_symmetry_space_group_name_H-M "P N N A"
_symmetry_group_IT_number 52
_symmetry_cell_setting 'orthorhombic'
loop_
_space_group_symop_operation_xyz
x,y,z
1/2-x,-y,z
x,1/2-y,1/2-z
1/2-x,1/2+y,1/2-z
-x,-y,-z
1/2+x,y,-z
-x,1/2+y,1/2+z
1/2+x,1/2-y,1/2+z
loop_
_atom_site_type_symbol
_atom_site_label
_atom_site_fract_x
_atom_site_fract_y
_atom_site_fract_z
Si Si1 0.602110 0.372650 0.818612
Si Si2 0.250000 0.500000 0.748182
Si Si3 0.834276 0.659083 0.408600
Si Si4 0.963398 0.177341 0.479171
O O1 0.750000 0.500000 0.824518
O O2 0.641308 0.250000 0.750000
O O3 0.418213 0.449243 0.795774
O O4 0.579784 0.285636 0.902459
O O5 0.186077 0.367243 0.685014
O O6 0.750000 0.500000 0.440392
O O7 0.721834 0.797813 0.443122
O O8 0.011300 0.706093 0.447017
O O9 0.000000 0.000000 0.500000
#
# Coordination Sequence:
#
# PCOD9412503 Si02
#       4
#     8   4   8   8
#     4  12  27  48  73 110 149 195 247 307 374 438
#     4  10  26  48  78 100 148 204 250 300 362 454
#     4  10  23  46  71  99 143 195 244 290 366 448
#     4  12  25  44  70 110 143 184 243 309 371 427
#
# _framework density 24.579799000000001
#
# number of rings (size 3 to 8) (size 9 to 14) (size 15 to 20)
#    0.857    0.000    2.857    3.429    4.000    6.857 
#    0.000    0.000    0.000    0.000    0.000    0.000 
#    0.000    0.000    0.000    0.000    0.000    0.000 
#
# Total GULP energy -156487.392886 kJ/mol
# GULP energy per Si atom -5588.835460 kJ/mol
# Density = 2.452385 g / cm^3
# Si number density = 24.579799 Si / 1000 Ang^3
#
#
#
# Elastic Constant Matrix: (Units=GPa)
#
#
# Indices 1 2 3 4 5 6 
#
# 1 94.8629 0.3770 23.9004 0.0000 0.0000 0.0000
# 2 0.3770 55.8601 12.5320 0.0000 0.0000 0.0000
# 3 23.9004 12.5320 122.0163 0.0000 0.0000 0.0000
# 4 0.0000 0.0000 0.0000 51.3518 0.0000 0.0000
# 5 0.0000 0.0000 0.0000 0.0000 31.2828 0.0000
# 6 0.0000 0.0000 0.0000 0.0000 0.0000 35.7610
#
#
#
# Elastic Compliance Matrix: (Units=1/GPa)
#
#
# Indices 1 2 3 4 5 6 
#
# 1 0.011099 0.000423 -0.002217 0.000000 0.000000 0.000000
# 2 0.000423 0.018340 -0.001966 0.000000 0.000000 0.000000
# 3 -0.002217 -0.001966 0.008832 0.000000 0.000000 0.000000
# 4 0.000000 0.000000 0.000000 0.019474 0.000000 0.000000
# 5 0.000000 0.000000 0.000000 0.000000 0.031966 0.000000
# 6 0.000000 0.000000 0.000000 0.000000 0.000000 0.027963
#
#
# Mechanical properties :
#
#
# Convention : Reuss Voigt Hill
#
# Bulk Modulus (GPa) = 32.52230 38.48423 35.50326
# Shear Modulus (GPa) = 36.91510 39.40777 38.16144
#
# Velocity S-wave (km/s) = 3.87957 4.00841 3.94452
# Velocity P-wave (km/s) = 5.77305 6.09213 5.93474
#
# Compressibility (1/GPa) = 0.03074813
#
# Stress axis : x y z
#
# Youngs Moduli (GPa) = 90.10216 54.52505 113.22553
#
# Poissons Ratio (x) = -0.02304 0.25106
# Poissons Ratio (y) = -0.03807 0.22265
# Poissons Ratio (z) = 0.19979 0.10722
#
# Static dielectric constant tensor:
#      x y z
#    x 2.114140 0.000000 0.000000 
#    y 0.000000 2.033110 0.000000 
#    z 0.000000 0.000000 2.020310 
# 
# From -- ./inp_files/30673.got.cif
#   From: 2010.05.17/outbox.cif.g08.bks.cpg/sg52_16_cif.got.tgz:30673.got - 2010.06.03 12:15:38.
