data_PCOD9412671
_publ_section_title
;
Structure prediction by ZEFSAII (Michael W. Deem and Ramdas Pophale) SiO2 
 PCOD9412671
Probable space group: P N N A
;
_chemical_formula_sum "Si O2"
_cell_formula_units_Z 20
_cell_length_a 11.362091
_cell_length_b 5.111132
_cell_length_c 13.920008
_cell_angle_alpha 90.000000
_cell_angle_beta 90.000000
_cell_angle_gamma 90.000000
_cell_volume 808.378669
_symmetry_space_group_name_H-M "P N N A"
_symmetry_group_IT_number 52
_symmetry_cell_setting 'orthorhombic'
loop_
_space_group_symop_operation_xyz
x,y,z
1/2-x,-y,z
x,1/2-y,1/2-z
1/2-x,1/2+y,1/2-z
-x,-y,-z
1/2+x,y,-z
-x,1/2+y,1/2+z
1/2+x,1/2-y,1/2+z
loop_
_atom_site_type_symbol
_atom_site_label
_atom_site_fract_x
_atom_site_fract_y
_atom_site_fract_z
Si Si1 0.250000 0.500000 0.006090
Si Si2 0.960108 0.718193 0.862100
Si Si3 0.375196 0.719600 0.638040
O O1 0.151912 0.378852 0.077695
O O2 0.261191 0.736864 0.927907
O O3 0.927410 0.750000 0.750000
O O4 0.033208 0.984321 0.883151
O O5 0.048000 0.479182 0.878827
O O6 0.340817 0.750000 0.750000
#
# Coordination Sequence:
#
# PCOD9412671 Si02
#       3
#     4   8   8
#     4  12  24  42  76 102 128 186 240 278 346 422
#     4  10  24  44  65  99 144 181 226 289 347 411
#     4  10  24  44  65  99 144 181 226 289 347 411
#
# _framework density 24.740881999999999
#
# number of rings (size 3 to 8) (size 9 to 14) (size 15 to 20)
#    0.000    1.600    0.000    2.400    0.000   16.000 
#    0.000    0.000    0.000    0.000    0.000    0.000 
#    0.000    0.000    0.000    0.000    0.000    0.000 
#
# Total GULP energy -111346.127497 kJ/mol
# GULP energy per Si atom -5567.306375 kJ/mol
# Density = 2.468457 g / cm^3
# Si number density = 24.740882 Si / 1000 Ang^3
#
#
#
# Elastic Constant Matrix: (Units=GPa)
#
#
# Indices 1 2 3 4 5 6 
#
# 1 162.9660 96.5670 108.6781 0.0000 0.0000 0.0000
# 2 96.5670 257.7376 71.6543 0.0000 0.0000 0.0000
# 3 108.6781 71.6543 168.5055 0.0000 0.0000 0.0000
# 4 0.0000 0.0000 0.0000 -33.5021 0.0000 0.0000
# 5 0.0000 0.0000 0.0000 0.0000 216.5929 0.0000
# 6 0.0000 0.0000 0.0000 0.0000 0.0000 43.4370
#
#
#
# Elastic Compliance Matrix: (Units=1/GPa)
#
#
# Indices 1 2 3 4 5 6 
#
# 1 0.012237 -0.002711 -0.006740 0.000000 0.000000 0.000000
# 2 -0.002711 0.005001 -0.000378 0.000000 0.000000 0.000000
# 3 -0.006740 -0.000378 0.010442 0.000000 0.000000 0.000000
# 4 0.000000 0.000000 0.000000 -0.029849 0.000000 0.000000
# 5 0.000000 0.000000 0.000000 0.000000 0.004617 0.000000
# 6 0.000000 0.000000 0.000000 0.000000 0.000000 0.023022
#
#
# Mechanical properties :
#
#
# Convention : Reuss Voigt Hill
#
# Bulk Modulus (GPa) = 124.64781 127.00088 125.82434
# Shear Modulus (GPa) = 104.59932 66.12623 85.36278
#
# Velocity S-wave (km/s) = 6.50920 5.17547 5.88027
# Velocity P-wave (km/s) = 10.34329 9.33584 9.85245
#
# Compressibility (1/GPa) = 0.00802260
#
# Stress axis : x y z
#
# Youngs Moduli (GPa) = 81.71748 199.96773 95.76809
#
# Poissons Ratio (x) = 0.54217 0.64543
# Poissons Ratio (y) = 0.22156 0.03619
# Poissons Ratio (z) = 0.55074 0.07556
#
# Static dielectric constant tensor:
#      x y z
#    x 2.096570 0.000000 0.000000 
#    y 0.000000 2.248390 0.000000 
#    z 0.000000 0.000000 2.043350 
# 
# From -- ./inp_files/16217.got.cif
#   From: 2010.05.17/outbox.cif.g08.bks.cpg/sg52_9_cif.got.tgz:16217.got - 2010.06.03 12:15:38.
