data_PCOD9412245
_publ_section_title
;
Structure prediction by ZEFSAII (Michael W. Deem and Ramdas Pophale) SiO2 
 PCOD9412245
Probable space group: P N N A
;
_chemical_formula_sum "Si O2"
_cell_formula_units_Z 44
_cell_length_a 28.836145
_cell_length_b 7.374284
_cell_length_c 9.506889
_cell_angle_alpha 90.000000
_cell_angle_beta 90.000000
_cell_angle_gamma 90.000000
_cell_volume 2021.601183
_symmetry_space_group_name_H-M "P N N A"
_symmetry_group_IT_number 52
_symmetry_cell_setting 'orthorhombic'
loop_
_space_group_symop_operation_xyz
x,y,z
1/2-x,-y,z
x,1/2-y,1/2-z
1/2-x,1/2+y,1/2-z
-x,-y,-z
1/2+x,y,-z
-x,1/2+y,1/2+z
1/2+x,1/2-y,1/2+z
loop_
_atom_site_type_symbol
_atom_site_label
_atom_site_fract_x
_atom_site_fract_y
_atom_site_fract_z
Si Si1 0.335624 0.250000 0.750000
Si Si2 0.195766 0.962616 0.233304
Si Si3 0.546670 0.473518 0.913404
Si Si4 0.044115 0.458740 0.403271
Si Si5 0.359884 0.942210 0.960390
Si Si6 0.853365 0.523426 0.018446
O O1 0.354380 0.425847 0.670587
O O2 0.323350 0.125760 0.606482
O O3 0.186855 0.750000 0.250000
O O4 0.250000 0.000000 0.248275
O O5 0.168031 0.050014 0.362798
O O6 0.178172 0.026114 0.081533
O O7 0.540982 0.539131 0.753111
O O8 0.550295 0.257490 0.897737
O O9 0.593222 0.541032 0.991729
O O10 0.500000 0.500000 0.000000
O O11 0.092105 0.511149 0.473412
O O12 0.000000 0.500000 0.500000
O O13 0.357569 0.728754 0.921784
#
# Coordination Sequence:
#
# PCOD9412245 Si02
#       6
#     4   8   8   8   8   8
#     4  12  26  42  72  98 146 184 226 276 368 428
#     4  12  24  46  81 109 137 185 244 299 356 424
#     4  10  23  39  61  92 133 179 233 291 348 414
#     4  10  23  39  61  92 133 179 233 291 348 414
#     4  11  24  46  70 104 141 185 238 296 355 422
#     4  11  24  46  70 104 141 185 238 296 355 422
#
# _framework density 21.764925999999999
#
# number of rings (size 3 to 8) (size 9 to 14) (size 15 to 20)
#    0.000    1.091    3.636    2.182    5.091    0.727 
#    0.000    0.909    0.000    0.000    0.000    0.000 
#    0.000    0.000    0.000    0.000    0.000    0.000 
#
# Total GULP energy -245111.065548 kJ/mol
# GULP energy per Si atom -5570.706035 kJ/mol
# Density = 2.171539 g / cm^3
# Si number density = 21.764926 Si / 1000 Ang^3
#
#
#
# Elastic Constant Matrix: (Units=GPa)
#
#
# Indices 1 2 3 4 5 6 
#
# 1 78.6686 -5.1231 5.6033 0.0000 0.0000 0.0000
# 2 -5.1231 123.1679 16.2756 0.0000 0.0000 0.0000
# 3 5.6033 16.2756 91.3255 0.0000 0.0000 0.0000
# 4 0.0000 0.0000 0.0000 32.8195 0.0000 0.0000
# 5 0.0000 0.0000 0.0000 0.0000 17.0833 0.0000
# 6 0.0000 0.0000 0.0000 0.0000 0.0000 22.9127
#
#
#
# Elastic Compliance Matrix: (Units=1/GPa)
#
#
# Indices 1 2 3 4 5 6 
#
# 1 0.012818 0.000652 -0.000903 0.000000 0.000000 0.000000
# 2 0.000652 0.008348 -0.001528 0.000000 0.000000 0.000000
# 3 -0.000903 -0.001528 0.011278 0.000000 0.000000 0.000000
# 4 0.000000 0.000000 0.000000 0.030470 0.000000 0.000000
# 5 0.000000 0.000000 0.000000 0.000000 0.058537 0.000000
# 6 0.000000 0.000000 0.000000 0.000000 0.000000 0.043644
#
#
# Mechanical properties :
#
#
# Convention : Reuss Voigt Hill
#
# Bulk Modulus (GPa) = 34.61677 36.29707 35.45692
# Shear Modulus (GPa) = 28.04583 32.99018 30.51801
#
# Velocity S-wave (km/s) = 3.59357 3.89749 3.74861
# Velocity P-wave (km/s) = 5.75827 6.08004 5.92135
#
# Compressibility (1/GPa) = 0.02888774
#
# Stress axis : x y z
#
# Youngs Moduli (GPa) = 78.01317 119.78887 88.67213
#
# Poissons Ratio (x) = -0.07816 0.08005
# Poissons Ratio (y) = -0.05090 0.13547
# Poissons Ratio (z) = 0.07043 0.18301
#
# Static dielectric constant tensor:
#      x y z
#    x 1.793660 0.000000 0.000000 
#    y 0.000000 1.809990 0.000000 
#    z 0.000000 0.000000 1.853880 
# 
# From -- ./inp_files/15396.got.cif
#   From: 2010.05.17/outbox.cif.g08.bks.cpg/sg52_8_cif.got.tgz:15396.got - 2010.06.03 12:15:38.
