data_PCOD9412852
_publ_section_title
;
Structure prediction by ZEFSAII (Michael W. Deem and Ramdas Pophale) SiO2 
 PCOD9412852
Probable space group: P N N A
;
_chemical_formula_sum "Si O2"
_cell_formula_units_Z 56
_cell_length_a 5.408263
_cell_length_b 22.148046
_cell_length_c 22.142940
_cell_angle_alpha 90.000000
_cell_angle_beta 90.000000
_cell_angle_gamma 90.000000
_cell_volume 2652.335774
_symmetry_space_group_name_H-M "P N N A"
_symmetry_group_IT_number 52
_symmetry_cell_setting 'orthorhombic'
loop_
_space_group_symop_operation_xyz
x,y,z
1/2-x,-y,z
x,1/2-y,1/2-z
1/2-x,1/2+y,1/2-z
-x,-y,-z
1/2+x,y,-z
-x,1/2+y,1/2+z
1/2+x,1/2-y,1/2+z
loop_
_atom_site_type_symbol
_atom_site_label
_atom_site_fract_x
_atom_site_fract_y
_atom_site_fract_z
Si Si1 0.776933 0.193559 0.774392
Si Si2 0.111527 0.763962 0.643365
Si Si3 0.250559 0.072672 0.966854
Si Si4 0.160609 0.360140 0.654167
Si Si5 0.898067 0.376545 0.213976
Si Si6 0.507629 0.963454 0.389641
Si Si7 0.910900 0.840401 0.537160
O O1 0.942417 0.250000 0.750000
O O2 0.567129 0.232040 0.808121
O O3 0.674015 0.150445 0.722353
O O4 0.881696 0.148172 0.824003
O O5 0.283982 0.707421 0.629348
O O6 0.229164 0.823951 0.673646
O O7 0.962860 0.788630 0.586384
O O8 0.222011 0.094254 0.898309
O O9 0.250000 0.000000 0.968627
O O10 0.508963 0.093829 0.995938
O O11 0.290429 0.376916 0.718385
O O12 0.912292 0.437011 0.175931
O O13 0.451948 0.905063 0.430676
O O14 0.750000 0.000000 0.412459
O O15 0.250000 0.000000 0.386092
O O16 0.134605 0.835678 0.488873
#
# Coordination Sequence:
#
# PCOD9412852 Si02
#       7
#     8   8   8   8   8   8   8
#     4   9  18  35  60  91 128 163 199 247 320 390
#     4   9  21  38  58  93 132 162 200 259 323 372
#     4  10  25  47  65  86 123 165 206 258 310 357
#     4  11  21  36  68  93 120 165 209 252 306 396
#     4   9  21  39  59  94 130 161 201 259 324 376
#     4  11  25  44  66  92 128 170 216 272 321 369
#     4  11  25  43  65  92 127 172 221 268 315 373
#
# _framework density 21.113465000000001
#
# number of rings (size 3 to 8) (size 9 to 14) (size 15 to 20)
#    0.000    2.000    0.000    3.000    8.000    3.429 
#    0.000    0.000    0.000    0.000    0.000    0.000 
#    0.000    0.000    0.000    0.000    0.000    0.000 
#
# Total GULP energy -312040.110734 kJ/mol
# GULP energy per Si atom -5572.144835 kJ/mol
# Density = 2.106541 g / cm^3
# Si number density = 21.113465 Si / 1000 Ang^3
#
#
#
# Elastic Constant Matrix: (Units=GPa)
#
#
# Indices 1 2 3 4 5 6 
#
# 1 48.4163 9.8565 -12.9326 0.0000 0.0000 0.0000
# 2 9.8565 17.8441 -2.3804 0.0000 0.0000 0.0000
# 3 -12.9326 -2.3804 58.0243 0.0000 0.0000 0.0000
# 4 0.0000 0.0000 0.0000 38.3680 0.0000 0.0000
# 5 0.0000 0.0000 0.0000 0.0000 21.7107 0.0000
# 6 0.0000 0.0000 0.0000 0.0000 0.0000 3.4949
#
#
#
# Elastic Compliance Matrix: (Units=1/GPa)
#
#
# Indices 1 2 3 4 5 6 
#
# 1 0.024611 -0.012933 0.004955 0.000000 0.000000 0.000000
# 2 -0.012933 0.063146 -0.000292 0.000000 0.000000 0.000000
# 3 0.004955 -0.000292 0.018326 0.000000 0.000000 0.000000
# 4 0.000000 0.000000 0.000000 0.026063 0.000000 0.000000
# 5 0.000000 0.000000 0.000000 0.000000 0.046060 0.000000
# 6 0.000000 0.000000 0.000000 0.000000 0.000000 0.286130
#
#
# Mechanical properties :
#
#
# Convention : Reuss Voigt Hill
#
# Bulk Modulus (GPa) = 11.16796 12.59686 11.88241
# Shear Modulus (GPa) = 9.79001 21.36414 15.57708
#
# Velocity S-wave (km/s) = 2.15567 3.18445 2.71916
# Velocity P-wave (km/s) = 3.39070 4.41590 3.93681
#
# Compressibility (1/GPa) = 0.08954184
#
# Stress axis : x y z
#
# Youngs Moduli (GPa) = 40.63296 15.83638 54.56586
#
# Poissons Ratio (x) = 0.20481 -0.27036
# Poissons Ratio (y) = 0.52551 0.01594
# Poissons Ratio (z) = -0.20132 0.00463
#
# Static dielectric constant tensor:
#      x y z
#    x 1.901360 0.000000 0.000000 
#    y 0.000000 1.656020 0.000000 
#    z 0.000000 0.000000 1.774970 
# 
# From -- ./inp_files/35249.got.cif
#   From: 2010.05.17/outbox.cif.g08.bks.cpg/sg52_18_cif.got.tgz:35249.got - 2010.06.03 12:15:38.
