data_PCOD9412337
_publ_section_title
;
Structure prediction by ZEFSAII (Michael W. Deem and Ramdas Pophale) SiO2 
 PCOD9412337
Probable space group: P N N A
;
_chemical_formula_sum "Si O2"
_cell_formula_units_Z 32
_cell_length_a 17.323098
_cell_length_b 4.861922
_cell_length_c 14.388143
_cell_angle_alpha 90.000000
_cell_angle_beta 90.000000
_cell_angle_gamma 90.000000
_cell_volume 1211.820500
_symmetry_space_group_name_H-M "P N N A"
_symmetry_group_IT_number 52
_symmetry_cell_setting 'orthorhombic'
loop_
_space_group_symop_operation_xyz
x,y,z
1/2-x,-y,z
x,1/2-y,1/2-z
1/2-x,1/2+y,1/2-z
-x,-y,-z
1/2+x,y,-z
-x,1/2+y,1/2+z
1/2+x,1/2-y,1/2+z
loop_
_atom_site_type_symbol
_atom_site_label
_atom_site_fract_x
_atom_site_fract_y
_atom_site_fract_z
Si Si1 0.673768 0.008318 0.814532
Si Si2 0.333178 0.140031 0.523673
Si Si3 0.876726 0.850274 0.150888
Si Si4 0.041013 0.567625 0.404512
O O1 0.706632 0.250000 0.750000
O O2 0.598642 0.147102 0.859082
O O3 0.647806 0.750000 0.750000
O O4 0.612140 0.729337 0.937031
O O5 0.250000 0.500000 0.381488
O O6 0.123812 0.097445 0.580196
O O7 0.335149 0.396892 0.597249
O O8 0.250000 0.000000 0.503877
O O9 0.843482 0.750000 0.250000
O O10 0.968110 0.906762 0.162467
O O11 0.000000 0.500000 0.500000
#
# Coordination Sequence:
#
# PCOD9412337 Si02
#       4
#     8   8   8   8
#     4  10  23  42  66  95 127 166 211 263 322 386
#     4  11  25  44  68  99 135 177 225 282 343 406
#     4  11  24  44  69  97 133 179 228 280 339 407
#     4  10  24  42  67  99 135 174 220 275 337 405
#
# _framework density 26.406551
#
# number of rings (size 3 to 8) (size 9 to 14) (size 15 to 20)
#    0.000    1.500    0.000    3.000    0.000   21.000 
#    0.000    0.000    0.000    0.000    0.000    0.000 
#    0.000    0.000    0.000    0.000    0.000    0.000 
#
# Total GULP energy -178181.635733 kJ/mol
# GULP energy per Si atom -5568.176117 kJ/mol
# Density = 2.634645 g / cm^3
# Si number density = 26.406551 Si / 1000 Ang^3
#
#
#
# Elastic Constant Matrix: (Units=GPa)
#
#
# Indices 1 2 3 4 5 6 
#
# 1 182.1204 8.9168 9.9504 0.0000 0.0000 0.0000
# 2 8.9168 118.4370 8.7810 0.0000 0.0000 0.0000
# 3 9.9504 8.7810 92.1602 0.0000 0.0000 0.0000
# 4 0.0000 0.0000 0.0000 34.9227 0.0000 0.0000
# 5 0.0000 0.0000 0.0000 0.0000 -897.2391 0.0000
# 6 0.0000 0.0000 0.0000 0.0000 0.0000 15.5170
#
#
#
# Elastic Compliance Matrix: (Units=1/GPa)
#
#
# Indices 1 2 3 4 5 6 
#
# 1 0.005540 -0.000375 -0.000562 0.000000 0.000000 0.000000
# 2 -0.000375 0.008529 -0.000772 0.000000 0.000000 0.000000
# 3 -0.000562 -0.000772 0.010985 0.000000 0.000000 0.000000
# 4 0.000000 0.000000 0.000000 0.028635 0.000000 0.000000
# 5 0.000000 0.000000 0.000000 0.000000 -0.001115 0.000000
# 6 0.000000 0.000000 0.000000 0.000000 0.000000 0.064446
#
#
# Mechanical properties :
#
#
# Convention : Reuss Voigt Hill
#
# Bulk Modulus (GPa) = 46.22349 49.77933 48.00141
# Shear Modulus (GPa) = 39.16942 -145.02192 -52.92625
#
# Velocity S-wave (km/s) = 3.85557 -7.41877 -4.48178
# Velocity P-wave (km/s) = 6.11254 7.38188 2.92652
#
# Compressibility (1/GPa) = 0.02163402
#
# Stress axis : x y z
#
# Youngs Moduli (GPa) = 180.50605 117.24961 91.03363
#
# Poissons Ratio (x) = 0.04402 0.05120
# Poissons Ratio (y) = 0.06776 0.07029
# Poissons Ratio (z) = 0.10151 0.09053
#
# Static dielectric constant tensor:
#      x y z
#    x 2.263400 0.000000 0.000000 
#    y 0.000000 2.049780 0.000000 
#    z 0.000000 0.000000 1.540690 
# 
# From -- ./inp_files/21957.got.cif
#   From: 2010.05.17/outbox.cif.g08.bks.cpg/sg52_11_cif.got.tgz:21957.got - 2010.06.03 12:15:38.
