data_PCOD9412937
_publ_section_title
;
Structure prediction by ZEFSAII (Michael W. Deem and Ramdas Pophale) SiO2 
 PCOD9412937
Probable space group: P N N A
;
_chemical_formula_sum "Si O2"
_cell_formula_units_Z 28
_cell_length_a 11.317712
_cell_length_b 20.156325
_cell_length_c 4.775918
_cell_angle_alpha 90.000000
_cell_angle_beta 90.000000
_cell_angle_gamma 90.000000
_cell_volume 1089.499041
_symmetry_space_group_name_H-M "P N N A"
_symmetry_group_IT_number 52
_symmetry_cell_setting 'orthorhombic'
loop_
_space_group_symop_operation_xyz
x,y,z
1/2-x,-y,z
x,1/2-y,1/2-z
1/2-x,1/2+y,1/2-z
-x,-y,-z
1/2+x,y,-z
-x,1/2+y,1/2+z
1/2+x,1/2-y,1/2+z
loop_
_atom_site_type_symbol
_atom_site_label
_atom_site_fract_x
_atom_site_fract_y
_atom_site_fract_z
Si Si1 0.717563 0.646450 0.049353
Si Si2 0.250000 0.500000 0.830292
Si Si3 0.887047 0.750000 0.750000
Si Si4 0.057895 0.847831 0.055167
Si Si5 0.500000 0.500000 0.500000
O O1 0.754306 0.569394 0.999523
O O2 0.678625 0.655736 0.370289
O O3 0.809232 0.699121 0.933456
O O4 0.597631 0.657034 0.874467
O O5 0.369338 0.496887 0.653948
O O6 0.969387 0.792770 0.952371
O O7 0.999089 0.919058 0.013541
#
# Coordination Sequence:
#
# PCOD9412937 Si02
#       5
#     8   4   4   8   4
#     4  11  28  49  78 114 162 207 274 337 415 485
#     4  10  26  52  86 122 166 218 278 350 412 500
#     4  12  28  48  82 112 164 216 270 344 416 502
#     4  11  28  48  76 115 156 208 270 337 409 497
#     4  10  26  50  84 116 160 210 280 332 416 490
#
# _framework density 25.699883
#
# number of rings (size 3 to 8) (size 9 to 14) (size 15 to 20)
#    0.000    1.143    0.000    1.714   16.000    5.714 
#    0.000    0.000    0.000    0.000    0.000    0.000 
#    0.000    0.000    0.000    0.000    0.000    0.000 
#
# Total GULP energy -156228.131691 kJ/mol
# GULP energy per Si atom -5579.576132 kJ/mol
# Density = 2.564139 g / cm^3
# Si number density = 25.699883 Si / 1000 Ang^3
#
#
#
# Elastic Constant Matrix: (Units=GPa)
#
#
# Indices 1 2 3 4 5 6 
#
# 1 86.1936 87.9095 14.8877 0.0000 0.0000 0.0000
# 2 87.9095 232.6839 25.1609 0.0000 0.0000 0.0000
# 3 14.8877 25.1609 65.7631 0.0000 0.0000 0.0000
# 4 0.0000 0.0000 0.0000 17.1355 0.0000 0.0000
# 5 0.0000 0.0000 0.0000 0.0000 14.0753 0.0000
# 6 0.0000 0.0000 0.0000 0.0000 0.0000 17.5814
#
#
#
# Elastic Compliance Matrix: (Units=1/GPa)
#
#
# Indices 1 2 3 4 5 6 
#
# 1 0.019040 -0.007018 -0.001625 0.000000 0.000000 0.000000
# 2 -0.007018 0.007070 -0.001116 0.000000 0.000000 0.000000
# 3 -0.001625 -0.001116 0.016001 0.000000 0.000000 0.000000
# 4 0.000000 0.000000 0.000000 0.058358 0.000000 0.000000
# 5 0.000000 0.000000 0.000000 0.000000 0.071046 0.000000
# 6 0.000000 0.000000 0.000000 0.000000 0.000000 0.056878
#
#
# Mechanical properties :
#
#
# Convention : Reuss Voigt Hill
#
# Bulk Modulus (GPa) = 44.26289 71.17296 57.71792
# Shear Modulus (GPa) = 19.57388 26.87063 23.22226
#
# Velocity S-wave (km/s) = 2.76276 3.23701 3.00924
# Velocity P-wave (km/s) = 5.23809 6.45949 5.88058
#
# Compressibility (1/GPa) = 0.02259229
#
# Stress axis : x y z
#
# Youngs Moduli (GPa) = 52.52138 141.44919 62.49575
#
# Poissons Ratio (x) = 0.99264 0.10158
# Poissons Ratio (y) = 0.36858 0.06976
# Poissons Ratio (z) = 0.08537 0.15788
#
# Static dielectric constant tensor:
#      x y z
#    x 2.027680 0.000000 0.000000 
#    y 0.000000 2.127910 0.000000 
#    z 0.000000 0.000000 2.020820 
# 
# From -- ./inp_files/990.got.cif
#   From: 2010.05.17/outbox.cif.g08.bks.cpg/sg52_1_cif.got.tgz:990.got - 2010.06.03 12:15:38.
