data_PCOD9412818
_publ_section_title
;
Structure prediction by ZEFSAII (Michael W. Deem and Ramdas Pophale) SiO2 
 PCOD9412818
Probable space group: P N N A
;
_chemical_formula_sum "Si O2"
_cell_formula_units_Z 56
_cell_length_a 14.937120
_cell_length_b 11.981347
_cell_length_c 12.492072
_cell_angle_alpha 90.000000
_cell_angle_beta 90.000000
_cell_angle_gamma 90.000000
_cell_volume 2235.666375
_symmetry_space_group_name_H-M "P N N A"
_symmetry_group_IT_number 52
_symmetry_cell_setting 'orthorhombic'
loop_
_space_group_symop_operation_xyz
x,y,z
1/2-x,-y,z
x,1/2-y,1/2-z
1/2-x,1/2+y,1/2-z
-x,-y,-z
1/2+x,y,-z
-x,1/2+y,1/2+z
1/2+x,1/2-y,1/2+z
loop_
_atom_site_type_symbol
_atom_site_label
_atom_site_fract_x
_atom_site_fract_y
_atom_site_fract_z
Si Si1 0.163806 0.153174 0.184443
Si Si2 0.718963 0.233414 0.047778
Si Si3 0.124928 0.473113 0.607480
Si Si4 0.150489 0.446603 0.846061
Si Si5 0.134109 0.590690 0.260895
Si Si6 0.103329 0.620405 0.012703
Si Si7 0.456544 0.161579 0.032516
O O1 0.116142 0.250000 0.250000
O O2 0.261232 0.124699 0.235942
O O3 0.119050 0.032447 0.188135
O O4 0.183737 0.204401 0.069804
O O5 0.712464 0.108708 0.099967
O O6 0.662414 0.317023 0.123531
O O7 0.808254 0.306618 0.022705
O O8 0.105453 0.475634 0.733461
O O9 0.108147 0.589448 0.545275
O O10 0.048669 0.399718 0.550506
O O11 0.250000 0.500000 0.839706
O O12 0.101412 0.511252 0.941331
O O13 0.106400 0.589904 0.137717
O O14 0.087629 0.668828 0.349087
O O15 0.028809 0.713489 0.991728
#
# Coordination Sequence:
#
# PCOD9412818 Si02
#       7
#     8   8   8   8   8   8   8
#     4  11  19  32  59  94 132 160 204 277 332 382
#     4  11  21  40  65  99 130 168 224 276 335 391
#     4  11  26  46  66  95 132 181 226 268 331 404
#     4  10  25  42  67  98 137 176 223 286 331 407
#     4  11  21  35  63  98 127 167 213 275 333 387
#     4  11  23  41  67 100 134 170 222 275 341 398
#     4  11  24  44  69  93 132 176 227 270 327 407
#
# _framework density 25.048459999999999
#
# number of rings (size 3 to 8) (size 9 to 14) (size 15 to 20)
#    0.000    1.143    4.286    1.714    6.000    2.857 
#    0.000    4.286    0.000    0.000    0.000    0.000 
#    0.000    0.000    0.000    0.000    0.000    0.000 
#
# Total GULP energy -313071.451041 kJ/mol
# GULP energy per Si atom -5590.561626 kJ/mol
# Density = 2.499145 g / cm^3
# Si number density = 25.048460 Si / 1000 Ang^3
#
#
#
# Elastic Constant Matrix: (Units=GPa)
#
#
# Indices 1 2 3 4 5 6 
#
# 1 53.0758 -3.4681 -5.9390 0.0000 0.0000 0.0000
# 2 -3.4681 143.2062 52.7257 0.0000 0.0000 0.0000
# 3 -5.9390 52.7257 151.5345 0.0000 0.0000 0.0000
# 4 0.0000 0.0000 0.0000 28.7055 0.0000 0.0000
# 5 0.0000 0.0000 0.0000 0.0000 20.9902 0.0000
# 6 0.0000 0.0000 0.0000 0.0000 0.0000 21.6247
#
#
#
# Elastic Compliance Matrix: (Units=1/GPa)
#
#
# Indices 1 2 3 4 5 6 
#
# 1 0.018930 0.000213 0.000668 0.000000 0.000000 0.000000
# 2 0.000213 0.008011 -0.002779 0.000000 0.000000 0.000000
# 3 0.000668 -0.002779 0.007592 0.000000 0.000000 0.000000
# 4 0.000000 0.000000 0.000000 0.034836 0.000000 0.000000
# 5 0.000000 0.000000 0.000000 0.000000 0.047641 0.000000
# 6 0.000000 0.000000 0.000000 0.000000 0.000000 0.046243
#
#
# Mechanical properties :
#
#
# Convention : Reuss Voigt Hill
#
# Bulk Modulus (GPa) = 32.53530 48.27262 40.40396
# Shear Modulus (GPa) = 28.20127 34.56396 31.38262
#
# Velocity S-wave (km/s) = 3.35904 3.71871 3.54344
# Velocity P-wave (km/s) = 5.29729 6.14426 5.73643
#
# Compressibility (1/GPa) = 0.03073584
#
# Stress axis : x y z
#
# Youngs Moduli (GPa) = 52.82730 124.82341 131.71181
#
# Poissons Ratio (x) = -0.02653 -0.08798
# Poissons Ratio (y) = -0.01123 0.36605
# Poissons Ratio (z) = -0.03529 0.34691
#
# Static dielectric constant tensor:
#      x y z
#    x 2.114150 0.000000 0.000000 
#    y 0.000000 2.022460 0.000000 
#    z 0.000000 0.000000 1.974420 
# 
# From -- ./inp_files/21687.got.cif
#   From: 2010.05.17/outbox.cif.g08.bks.cpg/sg52_11_cif.got.tgz:21687.got - 2010.06.03 12:15:38.
