data_PCOD9412439
_publ_section_title
;
Structure prediction by ZEFSAII (Michael W. Deem and Ramdas Pophale) SiO2 
 PCOD9412439
Probable space group: P N N A
;
_chemical_formula_sum "Si O2"
_cell_formula_units_Z 32
_cell_length_a 14.257795
_cell_length_b 9.150733
_cell_length_c 12.330143
_cell_angle_alpha 90.000000
_cell_angle_beta 90.000000
_cell_angle_gamma 90.000000
_cell_volume 1608.704820
_symmetry_space_group_name_H-M "P N N A"
_symmetry_group_IT_number 52
_symmetry_cell_setting 'orthorhombic'
loop_
_space_group_symop_operation_xyz
x,y,z
1/2-x,-y,z
x,1/2-y,1/2-z
1/2-x,1/2+y,1/2-z
-x,-y,-z
1/2+x,y,-z
-x,1/2+y,1/2+z
1/2+x,1/2-y,1/2+z
loop_
_atom_site_type_symbol
_atom_site_label
_atom_site_fract_x
_atom_site_fract_y
_atom_site_fract_z
Si Si1 0.872635 0.669899 0.360451
Si Si2 0.750000 0.000000 0.873951
Si Si3 0.158126 0.857666 0.924323
Si Si4 0.515387 0.160638 0.547587
Si Si5 0.638029 0.250000 0.750000
O O1 0.898464 0.750000 0.250000
O O2 0.883094 0.494394 0.356707
O O3 0.760897 0.688210 0.382809
O O4 0.931482 0.739655 0.458161
O O5 0.701149 0.124910 0.804496
O O6 0.824101 0.075703 0.955785
O O7 0.085751 0.728304 0.927744
O O8 0.575903 0.173926 0.656866
O O9 0.500000 0.000000 0.500000
#
# Coordination Sequence:
#
# PCOD9412439 Si02
#       5
#     8   4   8   8   4
#     4  10  23  44  68  95 127 182 223 273 349 398
#     4  10  24  46  72  92 138 186 230 284 340 420
#     4  10  23  48  65  94 140 183 221 285 340 415
#     4  12  28  40  67 105 139 176 233 286 340 417
#     4  12  26  46  70 106 134 188 236 284 352 408
#
# _framework density 19.891777000000001
#
# number of rings (size 3 to 8) (size 9 to 14) (size 15 to 20)
#    0.000    1.500    5.000    0.750    8.750    3.000 
#    0.000    0.000    0.000    0.000    0.000    0.000 
#    0.000    0.000    0.000    0.000    0.000    0.000 
#
# Total GULP energy -178901.495216 kJ/mol
# GULP energy per Si atom -5590.671726 kJ/mol
# Density = 1.984650 g / cm^3
# Si number density = 19.891777 Si / 1000 Ang^3
#
#
#
# Elastic Constant Matrix: (Units=GPa)
#
#
# Indices 1 2 3 4 5 6 
#
# 1 32.9477 40.4846 -2.8165 0.0000 0.0000 0.0000
# 2 40.4846 94.0179 10.8706 0.0000 0.0000 0.0000
# 3 -2.8165 10.8706 88.7559 0.0000 0.0000 0.0000
# 4 0.0000 0.0000 0.0000 36.7028 0.0000 0.0000
# 5 0.0000 0.0000 0.0000 0.0000 15.9833 0.0000
# 6 0.0000 0.0000 0.0000 0.0000 0.0000 35.4734
#
#
#
# Elastic Compliance Matrix: (Units=1/GPa)
#
#
# Indices 1 2 3 4 5 6 
#
# 1 0.067239 -0.029620 0.005761 0.000000 0.000000 0.000000
# 2 -0.029620 0.023837 -0.003859 0.000000 0.000000 0.000000
# 3 0.005761 -0.003859 0.011922 0.000000 0.000000 0.000000
# 4 0.000000 0.000000 0.000000 0.027246 0.000000 0.000000
# 5 0.000000 0.000000 0.000000 0.000000 0.062565 0.000000
# 6 0.000000 0.000000 0.000000 0.000000 0.000000 0.028190
#
#
# Mechanical properties :
#
#
# Convention : Reuss Voigt Hill
#
# Bulk Modulus (GPa) = 21.02477 34.75543 27.89010
# Shear Modulus (GPa) = 17.10638 28.77742 22.94190
#
# Velocity S-wave (km/s) = 2.93571 3.80768 3.39976
# Velocity P-wave (km/s) = 4.69933 6.06971 5.42794
#
# Compressibility (1/GPa) = 0.04756295
#
# Stress axis : x y z
#
# Youngs Moduli (GPa) = 14.87237 41.95188 83.87592
#
# Poissons Ratio (x) = 1.24259 -0.48324
# Poissons Ratio (y) = 0.44051 0.32371
# Poissons Ratio (z) = -0.08569 0.16191
#
# Static dielectric constant tensor:
#      x y z
#    x 1.685720 0.000000 0.000000 
#    y 0.000000 1.641420 0.000000 
#    z 0.000000 0.000000 1.709860 
# 
# From -- ./inp_files/18902.got.cif
#   From: 2010.05.17/outbox.cif.g08.bks.cpg/sg52_10_cif.got.tgz:18902.got - 2010.06.03 12:15:38.
