data_PCOD9412858
_publ_section_title
;
Structure prediction by ZEFSAII (Michael W. Deem and Ramdas Pophale) SiO2 
 PCOD9412858
Probable space group: P N N A
;
_chemical_formula_sum "Si O2"
_cell_formula_units_Z 40
_cell_length_a 7.996468
_cell_length_b 9.054873
_cell_length_c 23.817227
_cell_angle_alpha 90.000000
_cell_angle_beta 90.000000
_cell_angle_gamma 90.000000
_cell_volume 1724.534008
_symmetry_space_group_name_H-M "P N N A"
_symmetry_group_IT_number 52
_symmetry_cell_setting 'orthorhombic'
loop_
_space_group_symop_operation_xyz
x,y,z
1/2-x,-y,z
x,1/2-y,1/2-z
1/2-x,1/2+y,1/2-z
-x,-y,-z
1/2+x,y,-z
-x,1/2+y,1/2+z
1/2+x,1/2-y,1/2+z
loop_
_atom_site_type_symbol
_atom_site_label
_atom_site_fract_x
_atom_site_fract_y
_atom_site_fract_z
Si Si1 0.921711 0.850149 0.164129
Si Si2 0.958546 0.180472 0.191057
Si Si3 0.098803 0.846582 0.495669
Si Si4 0.165705 0.354804 0.538279
Si Si5 0.236112 0.669770 0.132245
O O1 0.739389 0.786268 0.180317
O O2 0.900240 0.896560 0.099040
O O3 0.079624 0.742697 0.164602
O O4 0.962146 0.002808 0.194926
O O5 0.008532 0.250000 0.250000
O O6 0.092164 0.242983 0.145783
O O7 0.230273 0.799879 0.543109
O O8 0.186076 0.835126 0.434318
O O9 0.980197 0.705221 0.499973
O O10 0.000000 0.000000 0.500000
O O11 0.250000 0.500000 0.513976
O O12 0.250000 0.500000 0.149659
#
# Coordination Sequence:
#
# PCOD9412858 Si02
#       5
#     8   8   8   8   8
#     4  10  25  47  72 104 146 179 246 300 364 449
#     4  11  25  47  75  99 138 187 238 315 371 430
#     4  11  25  41  65 104 152 196 237 292 361 438
#     4  11  22  40  68  99 139 193 237 293 350 426
#     4  11  26  43  69 107 146 189 242 298 355 442
#
# _framework density 23.194673999999999
#
# number of rings (size 3 to 8) (size 9 to 14) (size 15 to 20)
#    0.000    1.200    2.000    3.000    5.600    9.600 
#    0.000    0.000    0.000    0.000    0.000    0.000 
#    0.000    0.000    0.000    0.000    0.000    0.000 
#
# Total GULP energy -223227.972084 kJ/mol
# GULP energy per Si atom -5580.699302 kJ/mol
# Density = 2.314188 g / cm^3
# Si number density = 23.194674 Si / 1000 Ang^3
#
#
#
# Elastic Constant Matrix: (Units=GPa)
#
#
# Indices 1 2 3 4 5 6 
#
# 1 143.2875 91.7604 27.7285 0.0000 0.0000 0.0000
# 2 91.7604 156.0917 28.8969 0.0000 0.0000 0.0000
# 3 27.7285 28.8969 72.2020 0.0000 0.0000 0.0000
# 4 0.0000 0.0000 0.0000 24.5269 0.0000 0.0000
# 5 0.0000 0.0000 0.0000 0.0000 22.7117 0.0000
# 6 0.0000 0.0000 0.0000 0.0000 0.0000 57.4268
#
#
#
# Elastic Compliance Matrix: (Units=1/GPa)
#
#
# Indices 1 2 3 4 5 6 
#
# 1 0.011413 -0.006370 -0.001834 0.000000 0.000000 0.000000
# 2 -0.006370 0.010474 -0.001746 0.000000 0.000000 0.000000
# 3 -0.001834 -0.001746 0.015253 0.000000 0.000000 0.000000
# 4 0.000000 0.000000 0.000000 0.040771 0.000000 0.000000
# 5 0.000000 0.000000 0.000000 0.000000 0.044030 0.000000
# 6 0.000000 0.000000 0.000000 0.000000 0.000000 0.017413
#
#
# Mechanical properties :
#
#
# Convention : Reuss Voigt Hill
#
# Bulk Modulus (GPa) = 57.99916 74.26142 66.13029
# Shear Modulus (GPa) = 30.30283 35.81279 33.05781
#
# Velocity S-wave (km/s) = 3.61842 3.93365 3.77932
# Velocity P-wave (km/s) = 6.52050 7.26069 6.90052
#
# Compressibility (1/GPa) = 0.01724163
#
# Stress axis : x y z
#
# Youngs Moduli (GPa) = 87.61938 95.47231 65.56105
#
# Poissons Ratio (x) = 0.60814 0.12022
# Poissons Ratio (y) = 0.55812 0.11446
# Poissons Ratio (z) = 0.16067 0.16667
#
# Static dielectric constant tensor:
#      x y z
#    x 2.088600 0.000000 0.000000 
#    y 0.000000 1.774700 0.000000 
#    z 0.000000 0.000000 1.870030 
# 
# From -- ./inp_files/39247.got.cif
#   From: 2010.05.17/outbox.cif.g08.bks.cpg/sg52_20_cif.got.tgz:39247.got - 2010.06.03 12:15:38.
