data_PCOD9412769
_publ_section_title
;
Structure prediction by ZEFSAII (Michael W. Deem and Ramdas Pophale) SiO2 
 PCOD9412769
Probable space group: P N N A
;
_chemical_formula_sum "Si O2"
_cell_formula_units_Z 52
_cell_length_a 19.277572
_cell_length_b 21.200318
_cell_length_c 5.373304
_cell_angle_alpha 90.000000
_cell_angle_beta 90.000000
_cell_angle_gamma 90.000000
_cell_volume 2196.019140
_symmetry_space_group_name_H-M "P N N A"
_symmetry_group_IT_number 52
_symmetry_cell_setting 'orthorhombic'
loop_
_space_group_symop_operation_xyz
x,y,z
1/2-x,-y,z
x,1/2-y,1/2-z
1/2-x,1/2+y,1/2-z
-x,-y,-z
1/2+x,y,-z
-x,1/2+y,1/2+z
1/2+x,1/2-y,1/2+z
loop_
_atom_site_type_symbol
_atom_site_label
_atom_site_fract_x
_atom_site_fract_y
_atom_site_fract_z
Si Si1 0.457904 0.750000 0.250000
Si Si2 0.805745 0.250000 0.750000
Si Si3 0.235860 0.380614 0.220567
Si Si4 0.750000 0.000000 0.402966
Si Si5 0.429562 0.174490 0.057211
Si Si6 0.141335 0.553214 0.528108
Si Si7 0.963387 0.640066 0.068182
Si Si8 0.907093 0.582569 0.583410
O O1 0.508198 0.706925 0.413922
O O2 0.425158 0.796441 0.457767
O O3 0.759910 0.309509 0.845109
O O4 0.860712 0.217426 0.938611
O O5 0.301408 0.414237 0.351915
O O6 0.166987 0.381440 0.387208
O O7 0.219751 0.435939 0.024479
O O8 0.685393 0.972377 0.254657
O O9 0.459554 0.160866 0.336517
O O10 0.411305 0.109117 0.927234
O O11 0.105509 0.492012 0.417754
O O12 0.935319 0.606787 0.317779
O O13 0.952147 0.595886 0.830449
#
# Coordination Sequence:
#
# PCOD9412769 Si02
#       8
#     4   4   8   4   8   8   8   8
#     4  12  24  53  68 108 145 206 252 320 378 448
#     4  10  24  47  72 108 145 194 272 310 382 456
#     4  11  24  46  73 113 150 204 249 319 384 462
#     4  12  20  44  76 110 160 202 246 316 412 440
#     4  11  25  48  76 105 148 199 261 323 375 456
#     4  11  25  44  76 112 147 197 256 319 385 458
#     4  12  27  47  78 103 151 203 253 306 392 443
#     4  12  25  48  74 114 154 197 248 317 384 476
#
# _framework density 23.679209
#
# number of rings (size 3 to 8) (size 9 to 14) (size 15 to 20)
#    0.000    0.615    6.154    0.923    2.154    1.846 
#    0.000    0.000    0.000    0.000    0.000    0.000 
#    0.000    0.000    0.000    0.000    0.000    0.000 
#
# Total GULP energy -290083.732926 kJ/mol
# GULP energy per Si atom -5578.533325 kJ/mol
# Density = 2.362531 g / cm^3
# Si number density = 23.679209 Si / 1000 Ang^3
#
#
#
# Elastic Constant Matrix: (Units=GPa)
#
#
# Indices 1 2 3 4 5 6 
#
# 1 47.4551 55.0903 29.0768 0.0000 0.0000 0.0000
# 2 55.0903 172.7033 58.0413 0.0000 0.0000 0.0000
# 3 29.0768 58.0413 112.1996 0.0000 0.0000 0.0000
# 4 0.0000 0.0000 0.0000 46.9702 0.0000 0.0000
# 5 0.0000 0.0000 0.0000 0.0000 31.0035 0.0000
# 6 0.0000 0.0000 0.0000 0.0000 0.0000 82.5204
#
#
#
# Elastic Compliance Matrix: (Units=1/GPa)
#
#
# Indices 1 2 3 4 5 6 
#
# 1 0.034869 -0.009788 -0.003973 0.000000 0.000000 0.000000
# 2 -0.009788 0.009756 -0.002510 0.000000 0.000000 0.000000
# 3 -0.003973 -0.002510 0.011241 0.000000 0.000000 0.000000
# 4 0.000000 0.000000 0.000000 0.021290 0.000000 0.000000
# 5 0.000000 0.000000 0.000000 0.000000 0.032254 0.000000
# 6 0.000000 0.000000 0.000000 0.000000 0.000000 0.012118
#
#
# Mechanical properties :
#
#
# Convention : Reuss Voigt Hill
#
# Bulk Modulus (GPa) = 42.87443 68.53053 55.70248
# Shear Modulus (GPa) = 30.89344 44.77546 37.83445
#
# Velocity S-wave (km/s) = 3.61593 4.35319 4.00158
# Velocity P-wave (km/s) = 5.96481 7.36689 6.70261
#
# Compressibility (1/GPa) = 0.02332392
#
# Stress axis : x y z
#
# Youngs Moduli (GPa) = 28.67836 102.50009 88.95995
#
# Poissons Ratio (x) = 1.00323 0.35347
# Poissons Ratio (y) = 0.28069 0.22332
# Poissons Ratio (z) = 0.11395 0.25731
#
# Static dielectric constant tensor:
#      x y z
#    x 1.990500 0.000000 0.000000 
#    y 0.000000 2.009720 0.000000 
#    z 0.000000 0.000000 1.986750 
# 
# From -- ./inp_files/4462.got.cif
#   From: 2010.05.17/outbox.cif.g08.bks.cpg/sg52_3_cif.got.tgz:4462.got - 2010.06.03 12:15:38.
