data_PCOD9412822
_publ_section_title
;
Structure prediction by ZEFSAII (Michael W. Deem and Ramdas Pophale) SiO2 
 PCOD9412822
Probable space group: P N N A
;
_chemical_formula_sum "Si O2"
_cell_formula_units_Z 20
_cell_length_a 15.405216
_cell_length_b 11.018337
_cell_length_c 4.867665
_cell_angle_alpha 90.000000
_cell_angle_beta 90.000000
_cell_angle_gamma 90.000000
_cell_volume 826.236783
_symmetry_space_group_name_H-M "P N N A"
_symmetry_group_IT_number 52
_symmetry_cell_setting 'orthorhombic'
loop_
_space_group_symop_operation_xyz
x,y,z
1/2-x,-y,z
x,1/2-y,1/2-z
1/2-x,1/2+y,1/2-z
-x,-y,-z
1/2+x,y,-z
-x,1/2+y,1/2+z
1/2+x,1/2-y,1/2+z
loop_
_atom_site_type_symbol
_atom_site_label
_atom_site_fract_x
_atom_site_fract_y
_atom_site_fract_z
Si Si1 0.405530 0.642043 0.072373
Si Si2 0.150473 0.995175 0.952335
Si Si3 0.928669 0.250000 0.250000
O O1 0.358913 0.750000 0.250000
O O2 0.409155 0.534498 0.294101
O O3 0.501951 0.694141 0.033895
O O4 0.363972 0.590343 0.797795
O O5 0.127180 0.860869 0.856915
O O6 0.250000 0.000000 0.044229
#
# Coordination Sequence:
#
# PCOD9412822 Si02
#       3
#     8   8   4
#     4  10  25  43  69  93 139 172 226 262 332 399
#     4  12  25  45  67 105 131 173 223 279 329 386
#     4  10  26  40  76  90 142 178 220 266 334 394
#
# _framework density 24.206133999999999
#
# number of rings (size 3 to 8) (size 9 to 14) (size 15 to 20)
#    1.200    0.000    0.000    4.800    5.600    4.800 
#    0.000    0.000    0.000    0.000    0.000    0.000 
#    0.000    0.000    0.000    0.000    0.000    0.000 
#
# Total GULP energy -111846.363392 kJ/mol
# GULP energy per Si atom -5592.318170 kJ/mol
# Density = 2.415104 g / cm^3
# Si number density = 24.206134 Si / 1000 Ang^3
#
#
#
# Elastic Constant Matrix: (Units=GPa)
#
#
# Indices 1 2 3 4 5 6 
#
# 1 74.4440 38.7632 -2.9917 0.0000 0.0000 0.0000
# 2 38.7632 128.0277 28.7169 0.0000 0.0000 0.0000
# 3 -2.9917 28.7169 112.5609 0.0000 0.0000 0.0000
# 4 0.0000 0.0000 0.0000 23.1490 0.0000 0.0000
# 5 0.0000 0.0000 0.0000 0.0000 415.5940 0.0000
# 6 0.0000 0.0000 0.0000 0.0000 0.0000 19.6751
#
#
#
# Elastic Compliance Matrix: (Units=1/GPa)
#
#
# Indices 1 2 3 4 5 6 
#
# 1 0.016281 -0.005332 0.001793 0.000000 0.000000 0.000000
# 2 -0.005332 0.010031 -0.002701 0.000000 0.000000 0.000000
# 3 0.001793 -0.002701 0.009621 0.000000 0.000000 0.000000
# 4 0.000000 0.000000 0.000000 0.043198 0.000000 0.000000
# 5 0.000000 0.000000 0.000000 0.000000 0.002406 0.000000
# 6 0.000000 0.000000 0.000000 0.000000 0.000000 0.050826
#
#
# Mechanical properties :
#
#
# Convention : Reuss Voigt Hill
#
# Bulk Modulus (GPa) = 42.63700 49.33438 45.98569
# Shear Modulus (GPa) = 32.75252 108.38656 70.56954
#
# Velocity S-wave (km/s) = 3.68240 6.69878 5.40526
# Velocity P-wave (km/s) = 5.97766 8.95861 7.61542
#
# Compressibility (1/GPa) = 0.02345381
#
# Stress axis : x y z
#
# Youngs Moduli (GPa) = 61.42069 99.69218 103.94170
#
# Poissons Ratio (x) = 0.53152 -0.18636
# Poissons Ratio (y) = 0.32747 0.28073
# Poissons Ratio (z) = -0.11012 0.26925
#
# Static dielectric constant tensor:
#      x y z
#    x 1.854090 0.000000 0.000000 
#    y 0.000000 1.998560 0.000000 
#    z 0.000000 0.000000 1.897880 
# 
# From -- ./inp_files/1580.got.cif
#   From: 2010.05.17/outbox.cif.g08.bks.cpg/sg52_1_cif.got.tgz:1580.got - 2010.06.03 12:15:38.
