data_PCOD9412997
_publ_section_title
;
Structure prediction by ZEFSAII (Michael W. Deem and Ramdas Pophale) SiO2 
 PCOD9412997
Probable space group: P N N A
;
_chemical_formula_sum "Si O2"
_cell_formula_units_Z 32
_cell_length_a 8.252676
_cell_length_b 19.626128
_cell_length_c 10.786557
_cell_angle_alpha 90.000000
_cell_angle_beta 90.000000
_cell_angle_gamma 90.000000
_cell_volume 1747.077879
_symmetry_space_group_name_H-M "P N N A"
_symmetry_group_IT_number 52
_symmetry_cell_setting 'orthorhombic'
loop_
_space_group_symop_operation_xyz
x,y,z
1/2-x,-y,z
x,1/2-y,1/2-z
1/2-x,1/2+y,1/2-z
-x,-y,-z
1/2+x,y,-z
-x,1/2+y,1/2+z
1/2+x,1/2-y,1/2+z
loop_
_atom_site_type_symbol
_atom_site_label
_atom_site_fract_x
_atom_site_fract_y
_atom_site_fract_z
Si Si1 0.734770 0.919341 0.844545
Si Si2 0.860419 0.812382 0.660317
Si Si3 0.322470 0.243376 0.575068
Si Si4 0.932282 0.846265 0.065008
O O1 0.810248 0.881551 0.726218
O O2 0.548674 0.894512 0.856330
O O3 0.750000 0.000000 0.840152
O O4 0.831755 0.889910 0.964318
O O5 0.805858 0.750000 0.750000
O O6 0.773080 0.799474 0.529426
O O7 0.054531 0.804417 0.649418
O O8 0.447660 0.295379 0.508195
O O9 0.191412 0.295211 0.633911
#
# Coordination Sequence:
#
# PCOD9412997 Si02
#       4
#     8   8   8   8
#     4  11  21  35  56  85 122 152 177 227 294 342
#     4  11  19  37  56  80 112 143 187 232 280 327
#     4   9  18  34  56  84 104 137 192 238 264 317
#     4   9  17  34  55  84 111 137 185 240 277 321
#
# _framework density 18.316296999999999
#
# number of rings (size 3 to 8) (size 9 to 14) (size 15 to 20)
#    0.000    2.000    7.500    0.750    0.000    0.000 
#    9.000    1.250    0.000    0.000    0.000    0.000 
#    0.000    0.000    0.000    0.000    0.000    0.000 
#
# Total GULP energy -178344.725617 kJ/mol
# GULP energy per Si atom -5573.272676 kJ/mol
# Density = 1.827461 g / cm^3
# Si number density = 18.316297 Si / 1000 Ang^3
#
#
#
# Elastic Constant Matrix: (Units=GPa)
#
#
# Indices 1 2 3 4 5 6 
#
# 1 128.0535 69.7401 35.3326 0.0000 0.0000 0.0000
# 2 69.7401 135.2134 49.8297 0.0000 0.0000 0.0000
# 3 35.3326 49.8297 51.5194 0.0000 0.0000 0.0000
# 4 0.0000 0.0000 0.0000 -14.0275 0.0000 0.0000
# 5 0.0000 0.0000 0.0000 0.0000 38.8638 0.0000
# 6 0.0000 0.0000 0.0000 0.0000 0.0000 21.7334
#
#
#
# Elastic Compliance Matrix: (Units=1/GPa)
#
#
# Indices 1 2 3 4 5 6 
#
# 1 0.011200 -0.004578 -0.003254 0.000000 0.000000 0.000000
# 2 -0.004578 0.013363 -0.009785 0.000000 0.000000 0.000000
# 3 -0.003254 -0.009785 0.031106 0.000000 0.000000 0.000000
# 4 0.000000 0.000000 0.000000 -0.071289 0.000000 0.000000
# 5 0.000000 0.000000 0.000000 0.000000 0.025731 0.000000
# 6 0.000000 0.000000 0.000000 0.000000 0.000000 0.046012
#
#
# Mechanical properties :
#
#
# Convention : Reuss Voigt Hill
#
# Bulk Modulus (GPa) = 48.93373 69.39903 59.16638
# Shear Modulus (GPa) = 50.93307 19.97285 35.45296
#
# Velocity S-wave (km/s) = 5.27900 3.30577 4.40431
# Velocity P-wave (km/s) = 7.99569 7.24860 7.63130
#
# Compressibility (1/GPa) = 0.02043580
#
# Stress axis : x y z
#
# Youngs Moduli (GPa) = 89.28517 74.83407 32.14842
#
# Poissons Ratio (x) = 0.34257 0.10460
# Poissons Ratio (y) = 0.40872 0.31458
# Poissons Ratio (z) = 0.29049 0.73226
#
# Static dielectric constant tensor:
#      x y z
#    x 1.683360 0.000000 0.000000 
#    y 0.000000 1.601180 0.000000 
#    z 0.000000 0.000000 1.681320 
# 
# From -- ./inp_files/16571.got.cif
#   From: 2010.05.17/outbox.cif.g08.bks.cpg/sg52_9_cif.got.tgz:16571.got - 2010.06.03 12:15:38.
