data_PCOD9412276
_publ_section_title
;
Structure prediction by ZEFSAII (Michael W. Deem and Ramdas Pophale) SiO2 
 PCOD9412276
Probable space group: P N N A
;
_chemical_formula_sum "Si O2"
_cell_formula_units_Z 40
_cell_length_a 23.971391
_cell_length_b 12.228325
_cell_length_c 6.023530
_cell_angle_alpha 90.000000
_cell_angle_beta 90.000000
_cell_angle_gamma 90.000000
_cell_volume 1765.677107
_symmetry_space_group_name_H-M "P N N A"
_symmetry_group_IT_number 52
_symmetry_cell_setting 'orthorhombic'
loop_
_space_group_symop_operation_xyz
x,y,z
1/2-x,-y,z
x,1/2-y,1/2-z
1/2-x,1/2+y,1/2-z
-x,-y,-z
1/2+x,y,-z
-x,1/2+y,1/2+z
1/2+x,1/2-y,1/2+z
loop_
_atom_site_type_symbol
_atom_site_label
_atom_site_fract_x
_atom_site_fract_y
_atom_site_fract_z
Si Si1 0.250000 0.500000 0.169411
Si Si2 0.927769 0.444952 0.814274
Si Si3 0.518605 0.326121 0.949163
Si Si4 0.325509 0.133153 0.629188
Si Si5 0.841798 0.963854 0.014895
Si Si6 0.884186 0.750000 0.250000
O O1 0.199427 0.448576 0.310195
O O2 0.275823 0.396241 0.038888
O O3 0.959970 0.557841 0.858901
O O4 0.896268 0.472697 0.584646
O O5 0.881050 0.407179 0.995550
O O6 0.975298 0.354712 0.854618
O O7 0.496086 0.250000 0.750000
O O8 0.574539 0.274862 0.046837
O O9 0.330328 0.250000 0.750000
O O10 0.313952 0.050796 0.826989
O O11 0.852198 0.856494 0.162202
#
# Coordination Sequence:
#
# PCOD9412276 Si02
#       6
#     4   8   8   8   8   4
#     4  10  26  50  70 106 134 182 242 292 378 426
#     4  10  23  40  68  99 146 181 237 285 356 424
#     4  11  22  40  64 106 140 191 232 291 346 425
#     4  11  24  48  71 101 139 184 232 296 360 434
#     4  11  24  48  69 105 138 184 237 303 357 435
#     4  12  24  42  74 100 140 182 242 290 362 414
#
# _framework density 22.654198999999998
#
# number of rings (size 3 to 8) (size 9 to 14) (size 15 to 20)
#    0.000    1.200    4.000    1.200    0.000    7.200 
#   10.800    0.000    0.000    0.000    0.000    0.000 
#    0.000    0.000    0.000    0.000    0.000    0.000 
#
# Total GULP energy -223166.431908 kJ/mol
# GULP energy per Si atom -5579.160798 kJ/mol
# Density = 2.260264 g / cm^3
# Si number density = 22.654199 Si / 1000 Ang^3
#
#
#
# Elastic Constant Matrix: (Units=GPa)
#
#
# Indices 1 2 3 4 5 6 
#
# 1 68.8945 38.9353 13.2788 0.0000 0.0000 0.0000
# 2 38.9353 156.0189 45.0868 0.0000 0.0000 0.0000
# 3 13.2788 45.0868 62.5284 0.0000 0.0000 0.0000
# 4 0.0000 0.0000 0.0000 34.9335 0.0000 0.0000
# 5 0.0000 0.0000 0.0000 0.0000 -192.1724 0.0000
# 6 0.0000 0.0000 0.0000 0.0000 0.0000 24.8415
#
#
#
# Elastic Compliance Matrix: (Units=1/GPa)
#
#
# Indices 1 2 3 4 5 6 
#
# 1 0.016922 -0.004023 -0.000693 0.000000 0.000000 0.000000
# 2 -0.004023 0.009053 -0.005673 0.000000 0.000000 0.000000
# 3 -0.000693 -0.005673 0.020231 0.000000 0.000000 0.000000
# 4 0.000000 0.000000 0.000000 0.028626 0.000000 0.000000
# 5 0.000000 0.000000 0.000000 0.000000 -0.005204 0.000000
# 6 0.000000 0.000000 0.000000 0.000000 0.000000 0.040255
#
#
# Mechanical properties :
#
#
# Convention : Reuss Voigt Hill
#
# Bulk Modulus (GPa) = 39.32773 53.56041 46.44407
# Shear Modulus (GPa) = 35.93582 -13.80342 11.06620
#
# Velocity S-wave (km/s) = 3.98713 -2.47110 2.21256
# Velocity P-wave (km/s) = 6.21240 3.94362 5.20318
#
# Compressibility (1/GPa) = 0.02542735
#
# Stress axis : x y z
#
# Youngs Moduli (GPa) = 59.09499 110.46212 49.42966
#
# Poissons Ratio (x) = 0.44435 0.03426
# Poissons Ratio (y) = 0.23772 0.28043
# Poissons Ratio (z) = 0.04095 0.62670
#
# Static dielectric constant tensor:
#      x y z
#    x 1.866690 0.000000 0.000000 
#    y 0.000000 1.895590 0.000000 
#    z 0.000000 0.000000 1.867550 
# 
# From -- ./inp_files/5654.got.cif
#   From: 2010.05.17/outbox.cif.g08.bks.cpg/sg52_3_cif.got.tgz:5654.got - 2010.06.03 12:15:38.
