data_PCOD9412546
_publ_section_title
;
Structure prediction by ZEFSAII (Michael W. Deem and Ramdas Pophale) SiO2 
 PCOD9412546
Probable space group: P N N A
;
_chemical_formula_sum "Si O2"
_cell_formula_units_Z 36
_cell_length_a 8.525955
_cell_length_b 18.992132
_cell_length_c 10.452605
_cell_angle_alpha 90.000000
_cell_angle_beta 90.000000
_cell_angle_gamma 90.000000
_cell_volume 1692.549174
_symmetry_space_group_name_H-M "P N N A"
_symmetry_group_IT_number 52
_symmetry_cell_setting 'orthorhombic'
loop_
_space_group_symop_operation_xyz
x,y,z
1/2-x,-y,z
x,1/2-y,1/2-z
1/2-x,1/2+y,1/2-z
-x,-y,-z
1/2+x,y,-z
-x,1/2+y,1/2+z
1/2+x,1/2-y,1/2+z
loop_
_atom_site_type_symbol
_atom_site_label
_atom_site_fract_x
_atom_site_fract_y
_atom_site_fract_z
Si Si1 0.348038 0.698821 0.367730
Si Si2 0.923400 0.965155 0.874504
Si Si3 0.750000 0.500000 0.967226
Si Si4 0.528200 0.305774 0.351837
Si Si5 0.965562 0.558181 0.177779
O O1 0.399576 0.750000 0.250000
O O2 0.405737 0.618072 0.362639
O O3 0.159656 0.697901 0.364297
O O4 0.402237 0.716258 0.511568
O O5 0.750000 0.000000 0.865834
O O6 0.037720 0.987125 0.759910
O O7 0.000000 0.000000 0.000000
O O8 0.648801 0.449347 0.058671
O O9 0.860339 0.448356 0.883991
O O10 0.586685 0.250000 0.250000
O O11 0.559831 0.380660 0.281818
#
# Coordination Sequence:
#
# PCOD9412546 Si02
#       5
#     8   8   4   8   8
#     4  11  24  44  67 101 138 181 226 288 352 411
#     4  12  22  40  70  97 133 176 235 286 335 410
#     4  10  24  38  66  94 134 176 216 304 342 414
#     4  11  25  43  66  96 139 184 226 282 345 427
#     4  11  22  42  63  97 133 173 235 277 353 402
#
# _framework density 21.269691999999999
#
# number of rings (size 3 to 8) (size 9 to 14) (size 15 to 20)
#    0.000    0.889    5.556    0.000    1.556    9.778 
#    0.000    0.000    0.000    0.000    0.000    0.000 
#    0.000    0.000    0.000    0.000    0.000    0.000 
#
# Total GULP energy -200719.284892 kJ/mol
# GULP energy per Si atom -5575.535691 kJ/mol
# Density = 2.122128 g / cm^3
# Si number density = 21.269692 Si / 1000 Ang^3
#
#
#
# Elastic Constant Matrix: (Units=GPa)
#
#
# Indices 1 2 3 4 5 6 
#
# 1 32.3900 12.4628 26.9971 0.0000 0.0000 0.0000
# 2 12.4628 115.3559 69.4623 0.0000 0.0000 0.0000
# 3 26.9971 69.4623 175.1150 0.0000 0.0000 0.0000
# 4 0.0000 0.0000 0.0000 43.4160 0.0000 0.0000
# 5 0.0000 0.0000 0.0000 0.0000 0.1402 0.0000
# 6 0.0000 0.0000 0.0000 0.0000 0.0000 16.8593
#
#
#
# Elastic Compliance Matrix: (Units=1/GPa)
#
#
# Indices 1 2 3 4 5 6 
#
# 1 0.035470 -0.000709 -0.005187 0.000000 0.000000 0.000000
# 2 -0.000709 0.011403 -0.004414 0.000000 0.000000 0.000000
# 3 -0.005187 -0.004414 0.008261 0.000000 0.000000 0.000000
# 4 0.000000 0.000000 0.000000 0.023033 0.000000 0.000000
# 5 0.000000 0.000000 0.000000 0.000000 7.131447 0.000000
# 6 0.000000 0.000000 0.000000 0.000000 0.000000 0.059314
#
#
# Mechanical properties :
#
#
# Convention : Reuss Voigt Hill
#
# Bulk Modulus (GPa) = 28.97324 60.07837 44.52580
# Shear Modulus (GPa) = 0.68483 26.34569 13.51526
#
# Velocity S-wave (km/s) = 0.56804 3.52326 2.52350
# Velocity P-wave (km/s) = 3.75255 6.69765 5.42863
#
# Compressibility (1/GPa) = 0.03451461
#
# Stress axis : x y z
#
# Youngs Moduli (GPa) = 28.19292 87.69355 121.04834
#
# Poissons Ratio (x) = 0.06213 0.62791
# Poissons Ratio (y) = 0.01998 0.53432
# Poissons Ratio (z) = 0.14624 0.38709
#
# Static dielectric constant tensor:
#      x y z
#    x 1.841850 0.000000 0.000000 
#    y 0.000000 1.710560 0.000000 
#    z 0.000000 0.000000 1.833620 
# 
# From -- ./inp_files/7312.got.cif
#   From: 2010.05.17/outbox.cif.g08.bks.cpg/sg52_4_cif.got.tgz:7312.got - 2010.06.03 12:15:38.
