data_PCOD9412195
_publ_section_title
;
Structure prediction by ZEFSAII (Michael W. Deem and Ramdas Pophale) SiO2 
 PCOD9412195
Probable space group: P N N A
;
_chemical_formula_sum "Si O2"
_cell_formula_units_Z 28
_cell_length_a 10.957418
_cell_length_b 20.015462
_cell_length_c 4.718166
_cell_angle_alpha 90.000000
_cell_angle_beta 90.000000
_cell_angle_gamma 90.000000
_cell_volume 1034.777710
_symmetry_space_group_name_H-M "P N N A"
_symmetry_group_IT_number 52
_symmetry_cell_setting 'orthorhombic'
loop_
_space_group_symop_operation_xyz
x,y,z
1/2-x,-y,z
x,1/2-y,1/2-z
1/2-x,1/2+y,1/2-z
-x,-y,-z
1/2+x,y,-z
-x,1/2+y,1/2+z
1/2+x,1/2-y,1/2+z
loop_
_atom_site_type_symbol
_atom_site_label
_atom_site_fract_x
_atom_site_fract_y
_atom_site_fract_z
Si Si1 0.620031 0.250000 0.750000
Si Si2 0.050166 0.651693 0.421412
Si Si3 0.750000 0.500000 0.867356
Si Si4 0.285558 0.355045 0.916831
Si Si5 0.000000 0.000000 0.000000
O O1 0.536593 0.291322 0.533236
O O2 0.697110 0.302152 0.939846
O O3 0.088091 0.651323 0.094541
O O4 0.991231 0.581332 0.502680
O O5 0.177555 0.658036 0.595049
O O6 0.757218 0.567897 0.051815
O O7 0.871991 0.494074 0.685161
#
# Coordination Sequence:
#
# PCOD9412195 Si02
#       5
#     4   8   4   8   4
#     4  12  24  50  70 114 144 206 240 332 370 474
#     4  11  26  45  74 106 149 194 252 309 383 456
#     4  10  22  46  72 110 144 198 248 316 366 460
#     4  11  26  45  73 107 148 193 252 311 381 454
#     4  10  22  48  72 110 144 200 252 312 376 454
#
# _framework density 27.058948999999998
#
# number of rings (size 3 to 8) (size 9 to 14) (size 15 to 20)
#    0.000    1.143    2.857    1.714    0.000   13.714 
#    5.143    0.000    0.000    0.000    0.000    0.000 
#    0.000    0.000    0.000    0.000    0.000    0.000 
#
# Total GULP energy -156425.311309 kJ/mol
# GULP energy per Si atom -5586.618261 kJ/mol
# Density = 2.699736 g / cm^3
# Si number density = 27.058949 Si / 1000 Ang^3
#
#
#
# Elastic Constant Matrix: (Units=GPa)
#
#
# Indices 1 2 3 4 5 6 
#
# 1 90.9398 52.3984 29.8750 0.0000 0.0000 0.0000
# 2 52.3984 251.5862 27.5188 0.0000 0.0000 0.0000
# 3 29.8750 27.5188 101.4193 0.0000 0.0000 0.0000
# 4 0.0000 0.0000 0.0000 8.2319 0.0000 0.0000
# 5 0.0000 0.0000 0.0000 0.0000 27.8016 0.0000
# 6 0.0000 0.0000 0.0000 0.0000 0.0000 64.7610
#
#
#
# Elastic Compliance Matrix: (Units=1/GPa)
#
#
# Indices 1 2 3 4 5 6 
#
# 1 0.013495 -0.002448 -0.003311 0.000000 0.000000 0.000000
# 2 -0.002448 0.004541 -0.000511 0.000000 0.000000 0.000000
# 3 -0.003311 -0.000511 0.010974 0.000000 0.000000 0.000000
# 4 0.000000 0.000000 0.000000 0.121478 0.000000 0.000000
# 5 0.000000 0.000000 0.000000 0.000000 0.035969 0.000000
# 6 0.000000 0.000000 0.000000 0.000000 0.000000 0.015441
#
#
# Mechanical properties :
#
#
# Convention : Reuss Voigt Hill
#
# Bulk Modulus (GPa) = 60.71948 73.72554 67.22251
# Shear Modulus (GPa) = 22.73477 42.43578 32.58527
#
# Velocity S-wave (km/s) = 2.90175 3.96444 3.47397
# Velocity P-wave (km/s) = 5.80649 6.94702 6.40220
#
# Compressibility (1/GPa) = 0.01646918
#
# Stress axis : x y z
#
# Youngs Moduli (GPa) = 74.10330 220.23558 91.12522
#
# Poissons Ratio (x) = 0.53923 0.30169
# Poissons Ratio (y) = 0.18144 0.04655
# Poissons Ratio (z) = 0.24534 0.11250
#
# Static dielectric constant tensor:
#      x y z
#    x 2.071170 0.000000 0.000000 
#    y 0.000000 2.114410 0.000000 
#    z 0.000000 0.000000 2.052910 
# 
# From -- ./inp_files/979.got.cif
#   From: 2010.05.17/outbox.cif.g08.bks.cpg/sg52_1_cif.got.tgz:979.got - 2010.06.03 12:15:38.
