data_PCOD9412842
_publ_section_title
;
Structure prediction by ZEFSAII (Michael W. Deem and Ramdas Pophale) SiO2 
 PCOD9412842
Probable space group: P N N A
;
_chemical_formula_sum "Si O2"
_cell_formula_units_Z 56
_cell_length_a 14.853685
_cell_length_b 20.762733
_cell_length_c 8.953303
_cell_angle_alpha 90.000000
_cell_angle_beta 90.000000
_cell_angle_gamma 90.000000
_cell_volume 2761.226362
_symmetry_space_group_name_H-M "P N N A"
_symmetry_group_IT_number 52
_symmetry_cell_setting 'orthorhombic'
loop_
_space_group_symop_operation_xyz
x,y,z
1/2-x,-y,z
x,1/2-y,1/2-z
1/2-x,1/2+y,1/2-z
-x,-y,-z
1/2+x,y,-z
-x,1/2+y,1/2+z
1/2+x,1/2-y,1/2+z
loop_
_atom_site_type_symbol
_atom_site_label
_atom_site_fract_x
_atom_site_fract_y
_atom_site_fract_z
Si Si1 0.440678 0.466459 0.371597
Si Si2 0.839891 0.659867 0.065272
Si Si3 0.673111 0.447300 0.841804
Si Si4 0.741081 0.609715 0.560656
Si Si5 0.816716 0.247602 0.069099
Si Si6 0.597662 0.124396 0.120090
Si Si7 0.523606 0.240340 0.927908
O O1 0.500000 0.500000 0.500000
O O2 0.407150 0.516237 0.245475
O O3 0.351098 0.431105 0.435079
O O4 0.511925 0.413399 0.315610
O O5 0.744392 0.691989 0.024402
O O6 0.855502 0.659696 0.241946
O O7 0.849901 0.590074 0.991771
O O8 0.915105 0.705427 0.998179
O O9 0.750000 0.500000 0.869941
O O10 0.716484 0.396215 0.725294
O O11 0.722064 0.681690 0.501917
O O12 0.821614 0.583303 0.454937
O O13 0.815824 0.250000 0.250000
O O14 0.920610 0.249758 0.023508
O O15 0.560353 0.172629 0.992477
O O16 0.528647 0.250000 0.750000
#
# Coordination Sequence:
#
# PCOD9412842 Si02
#       7
#     8   8   8   8   8   8   8
#     4  11  24  42  71  96 130 178 238 283 331 410
#     4  12  25  43  66  98 141 173 222 285 344 410
#     4  10  25  46  64  96 134 180 235 282 332 409
#     4  11  21  42  67  95 133 174 227 282 339 405
#     4  11  22  40  67 102 136 169 220 282 349 413
#     4  12  23  43  68  99 136 179 222 282 345 407
#     4  11  24  40  68 102 134 177 221 273 346 410
#
# _framework density 20.280843000000001
#
# number of rings (size 3 to 8) (size 9 to 14) (size 15 to 20)
#    0.000    0.857    5.714    1.286    0.000    2.857 
#    5.143    0.000    0.000    0.000    0.000    0.000 
#    0.000    0.000    0.000    0.000    0.000    0.000 
#
# Total GULP energy -312681.069025 kJ/mol
# GULP energy per Si atom -5583.590518 kJ/mol
# Density = 2.023468 g / cm^3
# Si number density = 20.280843 Si / 1000 Ang^3
#
#
#
# Elastic Constant Matrix: (Units=GPa)
#
#
# Indices 1 2 3 4 5 6 
#
# 1 142.2373 22.1222 31.9700 0.0000 0.0000 0.0000
# 2 22.1222 54.6382 24.0107 0.0000 0.0000 0.0000
# 3 31.9700 24.0107 63.0443 0.0000 0.0000 0.0000
# 4 0.0000 0.0000 0.0000 31.9229 0.0000 0.0000
# 5 0.0000 0.0000 0.0000 0.0000 23.2079 0.0000
# 6 0.0000 0.0000 0.0000 0.0000 0.0000 21.0424
#
#
#
# Elastic Compliance Matrix: (Units=1/GPa)
#
#
# Indices 1 2 3 4 5 6 
#
# 1 0.008074 -0.001765 -0.003422 0.000000 0.000000 0.000000
# 2 -0.001765 0.022367 -0.007623 0.000000 0.000000 0.000000
# 3 -0.003422 -0.007623 0.020501 0.000000 0.000000 0.000000
# 4 0.000000 0.000000 0.000000 0.031325 0.000000 0.000000
# 5 0.000000 0.000000 0.000000 0.000000 0.043089 0.000000
# 6 0.000000 0.000000 0.000000 0.000000 0.000000 0.047523
#
#
# Mechanical properties :
#
#
# Convention : Reuss Voigt Hill
#
# Bulk Modulus (GPa) = 39.49409 46.23618 42.86514
# Shear Modulus (GPa) = 24.16147 27.35577 25.75862
#
# Velocity S-wave (km/s) = 3.45533 3.67665 3.56771
# Velocity P-wave (km/s) = 5.95273 6.39305 6.17681
#
# Compressibility (1/GPa) = 0.02532025
#
# Stress axis : x y z
#
# Youngs Moduli (GPa) = 123.85068 44.70861 48.77885
#
# Poissons Ratio (x) = 0.07892 0.16693
# Poissons Ratio (y) = 0.21863 0.37186
# Poissons Ratio (z) = 0.42384 0.34083
#
# Static dielectric constant tensor:
#      x y z
#    x 1.738920 0.000000 0.000000 
#    y 0.000000 1.753970 0.000000 
#    z 0.000000 0.000000 1.739490 
# 
# From -- ./inp_files/10793.got.cif
#   From: 2010.05.17/outbox.cif.g08.bks.cpg/sg52_6_cif.got.tgz:10793.got - 2010.06.03 12:15:38.
