data_PCOD9412149
_publ_section_title
;
Structure prediction by ZEFSAII (Michael W. Deem and Ramdas Pophale) SiO2 
 PCOD9412149
Probable space group: P N N A
;
_chemical_formula_sum "Si O2"
_cell_formula_units_Z 40
_cell_length_a 8.343852
_cell_length_b 17.002377
_cell_length_c 11.013846
_cell_angle_alpha 90.000000
_cell_angle_beta 90.000000
_cell_angle_gamma 90.000000
_cell_volume 1562.482758
_symmetry_space_group_name_H-M "P N N A"
_symmetry_group_IT_number 52
_symmetry_cell_setting 'orthorhombic'
loop_
_space_group_symop_operation_xyz
x,y,z
1/2-x,-y,z
x,1/2-y,1/2-z
1/2-x,1/2+y,1/2-z
-x,-y,-z
1/2+x,y,-z
-x,1/2+y,1/2+z
1/2+x,1/2-y,1/2+z
loop_
_atom_site_type_symbol
_atom_site_label
_atom_site_fract_x
_atom_site_fract_y
_atom_site_fract_z
Si Si1 0.640567 0.638449 0.617220
Si Si2 0.997445 0.377130 0.875225
Si Si3 0.395666 0.250000 0.750000
Si Si4 0.249403 0.801834 0.500719
Si Si5 0.250000 0.500000 0.785278
Si Si6 0.485135 0.595579 0.368712
O O1 0.795080 0.583404 0.640647
O O2 0.937119 0.817046 0.478511
O O3 0.707264 0.722575 0.571253
O O4 0.534842 0.601936 0.509430
O O5 0.819052 0.378390 0.930615
O O6 0.129398 0.445369 0.864096
O O7 0.966297 0.351507 0.736879
O O8 0.294768 0.212163 0.641471
O O9 0.495118 0.319480 0.692593
O O10 0.380579 0.455775 0.700058
#
# Coordination Sequence:
#
# PCOD9412149 Si02
#       6
#     8   8   4   8   4   8
#     4  11  26  46  82 114 152 200 270 330 391 446
#     4  12  28  47  74 113 157 214 250 326 397 478
#     4  10  22  44  74 104 150 196 258 324 376 450
#     4  11  25  45  77 111 154 196 265 325 391 465
#     4  12  28  52  80 114 170 212 260 320 404 484
#     4  11  25  46  75 117 151 205 257 326 382 472
#
# _framework density 25.600283000000001
#
# number of rings (size 3 to 8) (size 9 to 14) (size 15 to 20)
#    0.000    0.800    2.000    4.200   11.200    4.800 
#    0.000    0.000    0.000    0.000    0.000    0.000 
#    0.000    0.000    0.000    0.000    0.000    0.000 
#
# Total GULP energy -223565.542405 kJ/mol
# GULP energy per Si atom -5589.138560 kJ/mol
# Density = 2.554202 g / cm^3
# Si number density = 25.600283 Si / 1000 Ang^3
#
#
#
# Elastic Constant Matrix: (Units=GPa)
#
#
# Indices 1 2 3 4 5 6 
#
# 1 98.6086 54.5516 39.0714 0.0000 0.0000 0.0000
# 2 54.5516 96.6880 39.0691 0.0000 0.0000 0.0000
# 3 39.0714 39.0691 117.7396 0.0000 0.0000 0.0000
# 4 0.0000 0.0000 0.0000 15.8006 0.0000 0.0000
# 5 0.0000 0.0000 0.0000 0.0000 22.5242 0.0000
# 6 0.0000 0.0000 0.0000 0.0000 0.0000 30.1333
#
#
#
# Elastic Compliance Matrix: (Units=1/GPa)
#
#
# Indices 1 2 3 4 5 6 
#
# 1 0.015388 -0.007643 -0.002570 0.000000 0.000000 0.000000
# 2 -0.007643 0.015741 -0.002687 0.000000 0.000000 0.000000
# 3 -0.002570 -0.002687 0.010238 0.000000 0.000000 0.000000
# 4 0.000000 0.000000 0.000000 0.063289 0.000000 0.000000
# 5 0.000000 0.000000 0.000000 0.000000 0.044397 0.000000
# 6 0.000000 0.000000 0.000000 0.000000 0.000000 0.033186
#
#
# Mechanical properties :
#
#
# Convention : Reuss Voigt Hill
#
# Bulk Modulus (GPa) = 64.24355 64.26892 64.25623
# Shear Modulus (GPa) = 23.44927 25.71458 24.58193
#
# Velocity S-wave (km/s) = 3.02979 3.17277 3.10210
# Velocity P-wave (km/s) = 6.11464 6.21138 6.16320
#
# Compressibility (1/GPa) = 0.01556576
#
# Stress axis : x y z
#
# Youngs Moduli (GPa) = 64.98632 63.53012 97.67791
#
# Poissons Ratio (x) = 0.48558 0.25105
# Poissons Ratio (y) = 0.49671 0.26243
# Poissons Ratio (z) = 0.16702 0.17069
#
# Static dielectric constant tensor:
#      x y z
#    x 2.129520 0.000000 0.000000 
#    y 0.000000 2.138030 0.000000 
#    z 0.000000 0.000000 1.951880 
# 
# From -- ./inp_files/24833.got.cif
#   From: 2010.05.17/outbox.cif.g08.bks.cpg/sg52_13_cif.got.tgz:24833.got - 2010.06.03 12:15:38.
