data_PCOD9412163
_publ_section_title
;
Structure prediction by ZEFSAII (Michael W. Deem and Ramdas Pophale) SiO2 
 PCOD9412163
Probable space group: P N N A
;
_chemical_formula_sum "Si O2"
_cell_formula_units_Z 32
_cell_length_a 12.291839
_cell_length_b 9.873012
_cell_length_c 10.798438
_cell_angle_alpha 90.000000
_cell_angle_beta 90.000000
_cell_angle_gamma 90.000000
_cell_volume 1310.471158
_symmetry_space_group_name_H-M "P N N A"
_symmetry_group_IT_number 52
_symmetry_cell_setting 'orthorhombic'
loop_
_space_group_symop_operation_xyz
x,y,z
1/2-x,-y,z
x,1/2-y,1/2-z
1/2-x,1/2+y,1/2-z
-x,-y,-z
1/2+x,y,-z
-x,1/2+y,1/2+z
1/2+x,1/2-y,1/2+z
loop_
_atom_site_type_symbol
_atom_site_label
_atom_site_fract_x
_atom_site_fract_y
_atom_site_fract_z
Si Si1 0.322599 0.878058 0.815946
Si Si2 0.499123 0.979284 0.353865
Si Si3 0.987817 0.803497 0.967177
Si Si4 0.870528 0.445112 0.644113
O O1 0.265383 0.750000 0.750000
O O2 0.250000 0.000000 0.867008
O O3 0.395522 0.957041 0.713242
O O4 0.396616 0.810258 0.923397
O O5 0.487701 0.817170 0.368872
O O6 0.402237 0.065555 0.288380
O O7 0.401722 0.328380 0.453579
O O8 0.956910 0.936891 0.890260
O O9 0.000000 0.500000 0.000000
O O10 0.750000 0.500000 0.635207
#
# Coordination Sequence:
#
# PCOD9412163 Si02
#       4
#     8   8   8   8
#     4  11  24  42  70 101 136 181 231 283 347 415
#     4  11  23  44  67  95 139 177 223 281 342 407
#     4  10  22  45  68  96 139 174 224 291 347 404
#     4  10  23  42  70 103 133 179 230 282 348 418
#
# _framework density 24.418699
#
# number of rings (size 3 to 8) (size 9 to 14) (size 15 to 20)
#    0.000    1.500    2.500    1.500    0.000    9.000 
#    9.000    0.000    0.000    0.000    0.000    0.000 
#    0.000    0.000    0.000    0.000    0.000    0.000 
#
# Total GULP energy -178331.872318 kJ/mol
# GULP energy per Si atom -5572.871010 kJ/mol
# Density = 2.436312 g / cm^3
# Si number density = 24.418699 Si / 1000 Ang^3
#
#
#
# Elastic Constant Matrix: (Units=GPa)
#
#
# Indices 1 2 3 4 5 6 
#
# 1 99.8180 8.2586 24.9629 0.0000 0.0000 0.0000
# 2 8.2586 126.8534 28.1874 0.0000 0.0000 0.0000
# 3 24.9629 28.1874 133.3455 0.0000 0.0000 0.0000
# 4 0.0000 0.0000 0.0000 52.7695 0.0000 0.0000
# 5 0.0000 0.0000 0.0000 0.0000 15.5164 0.0000
# 6 0.0000 0.0000 0.0000 0.0000 0.0000 16.7976
#
#
#
# Elastic Compliance Matrix: (Units=1/GPa)
#
#
# Indices 1 2 3 4 5 6 
#
# 1 0.010518 -0.000259 -0.001914 0.000000 0.000000 0.000000
# 2 -0.000259 0.008278 -0.001701 0.000000 0.000000 0.000000
# 3 -0.001914 -0.001701 0.008217 0.000000 0.000000 0.000000
# 4 0.000000 0.000000 0.000000 0.018950 0.000000 0.000000
# 5 0.000000 0.000000 0.000000 0.000000 0.064448 0.000000
# 6 0.000000 0.000000 0.000000 0.000000 0.000000 0.059532
#
#
# Mechanical properties :
#
#
# Convention : Reuss Voigt Hill
#
# Bulk Modulus (GPa) = 51.91083 53.64830 52.77957
# Shear Modulus (GPa) = 27.15687 36.92391 32.04039
#
# Velocity S-wave (km/s) = 3.33849 3.89281 3.62626
# Velocity P-wave (km/s) = 6.01377 6.49794 6.26054
#
# Compressibility (1/GPa) = 0.01926380
#
# Stress axis : x y z
#
# Youngs Moduli (GPa) = 95.07124 120.80155 121.69437
#
# Poissons Ratio (x) = 0.03134 0.23295
# Poissons Ratio (y) = 0.02466 0.20704
# Poissons Ratio (z) = 0.18199 0.20552
#
# Static dielectric constant tensor:
#      x y z
#    x 1.995110 0.000000 0.000000 
#    y 0.000000 2.435620 0.000000 
#    z 0.000000 0.000000 2.188310 
# 
# From -- ./inp_files/25468.got.cif
#   From: 2010.05.17/outbox.cif.g08.bks.cpg/sg52_13_cif.got.tgz:25468.got - 2010.06.03 12:15:38.
