data_PCOD9412034
_publ_section_title
;
Structure prediction by ZEFSAII (Michael W. Deem and Ramdas Pophale) SiO2 
 PCOD9412034
Probable space group: P N N A
;
_chemical_formula_sum "Si O2"
_cell_formula_units_Z 60
_cell_length_a 11.880040
_cell_length_b 14.615847
_cell_length_c 16.743959
_cell_angle_alpha 90.000000
_cell_angle_beta 90.000000
_cell_angle_gamma 90.000000
_cell_volume 2907.368247
_symmetry_space_group_name_H-M "P N N A"
_symmetry_group_IT_number 52
_symmetry_cell_setting 'orthorhombic'
loop_
_space_group_symop_operation_xyz
x,y,z
1/2-x,-y,z
x,1/2-y,1/2-z
1/2-x,1/2+y,1/2-z
-x,-y,-z
1/2+x,y,-z
-x,1/2+y,1/2+z
1/2+x,1/2-y,1/2+z
loop_
_atom_site_type_symbol
_atom_site_label
_atom_site_fract_x
_atom_site_fract_y
_atom_site_fract_z
Si Si1 0.502352 0.551068 0.373200
Si Si2 0.521891 0.750000 0.750000
Si Si3 0.863866 0.040889 0.571644
Si Si4 0.658753 0.266924 0.104916
Si Si5 0.650225 0.425994 0.482524
Si Si6 0.595451 0.759452 0.157978
Si Si7 0.479195 0.640528 0.030497
Si Si8 0.860645 0.441723 0.742093
O O1 0.556966 0.471569 0.425671
O O2 0.400674 0.587254 0.429075
O O3 0.589468 0.632726 0.360434
O O4 0.459518 0.506474 0.291437
O O5 0.436951 0.731109 0.825275
O O6 0.600120 0.663084 0.723237
O O7 0.909177 0.125556 0.522074
O O8 0.847161 0.065026 0.663142
O O9 0.750000 0.000000 0.537245
O O10 0.951293 0.957162 0.568853
O O11 0.674230 0.169417 0.060470
O O12 0.781375 0.284054 0.143055
O O13 0.615447 0.331450 0.033337
O O14 0.750000 0.500000 0.487444
O O15 0.563412 0.750000 0.250000
O O16 0.506343 0.711617 0.099438
O O17 0.750000 0.500000 0.713930
#
# Coordination Sequence:
#
# PCOD9412034 Si02
#       8
#     8   4   8   8   8   8   8   8
#     4  11  23  40  62  93 136 175 220 285 342 407
#     4  12  24  46  72  96 134 184 226 292 352 414
#     4  10  22  43  67  91 126 171 227 279 338 406
#     4  12  23  43  69  98 134 178 233 276 342 431
#     4  11  22  40  65  94 130 178 223 276 342 415
#     4  12  25  41  65 104 142 176 229 291 350 410
#     4  11  23  43  67  95 132 179 224 286 341 414
#     4  11  24  45  66  97 133 174 231 284 344 417
#
# _framework density 20.637221
#
# number of rings (size 3 to 8) (size 9 to 14) (size 15 to 20)
#    0.000    0.800    6.000    2.000    0.000    0.000 
#    8.400    0.000    0.000    0.000    0.000    0.000 
#    0.000    0.000    0.000    0.000    0.000    0.000 
#
# Total GULP energy -334495.471323 kJ/mol
# GULP energy per Si atom -5574.924522 kJ/mol
# Density = 2.059025 g / cm^3
# Si number density = 20.637221 Si / 1000 Ang^3
#
#
#
# Elastic Constant Matrix: (Units=GPa)
#
#
# Indices 1 2 3 4 5 6 
#
# 1 62.9900 4.5966 7.3120 0.0000 0.0000 0.0000
# 2 4.5966 57.2083 10.5058 0.0000 0.0000 0.0000
# 3 7.3120 10.5058 76.0559 0.0000 0.0000 0.0000
# 4 0.0000 0.0000 0.0000 20.8881 0.0000 0.0000
# 5 0.0000 0.0000 0.0000 0.0000 13.7908 0.0000
# 6 0.0000 0.0000 0.0000 0.0000 0.0000 35.1421
#
#
#
# Elastic Compliance Matrix: (Units=1/GPa)
#
#
# Indices 1 2 3 4 5 6 
#
# 1 0.016114 -0.001037 -0.001406 0.000000 0.000000 0.000000
# 2 -0.001037 0.018002 -0.002387 0.000000 0.000000 0.000000
# 3 -0.001406 -0.002387 0.013613 0.000000 0.000000 0.000000
# 4 0.000000 0.000000 0.000000 0.047874 0.000000 0.000000
# 5 0.000000 0.000000 0.000000 0.000000 0.072512 0.000000
# 6 0.000000 0.000000 0.000000 0.000000 0.000000 0.028456
#
#
# Mechanical properties :
#
#
# Convention : Reuss Voigt Hill
#
# Bulk Modulus (GPa) = 26.26740 26.78699 26.52719
# Shear Modulus (GPa) = 22.83938 25.55354 24.19646
#
# Velocity S-wave (km/s) = 3.33033 3.52266 3.42785
# Velocity P-wave (km/s) = 5.24823 5.43633 5.34311
#
# Compressibility (1/GPa) = 0.03807001
#
# Stress axis : x y z
#
# Youngs Moduli (GPa) = 62.05635 55.55056 73.45854
#
# Poissons Ratio (x) = 0.05758 0.10329
# Poissons Ratio (y) = 0.06432 0.17534
# Poissons Ratio (z) = 0.08725 0.13260
#
# Static dielectric constant tensor:
#      x y z
#    x 1.779150 0.000000 0.000000 
#    y 0.000000 1.739960 0.000000 
#    z 0.000000 0.000000 1.732100 
# 
# From -- ./inp_files/32388.got.cif
#   From: 2010.05.17/outbox.cif.g08.bks.cpg/sg52_17_cif.got.tgz:32388.got - 2010.06.03 12:15:38.
