data_PCOD9412023
_publ_section_title
;
Structure prediction by ZEFSAII (Michael W. Deem and Ramdas Pophale) SiO2 
 PCOD9412023
Probable space group: P N N A
;
_chemical_formula_sum "Si O2"
_cell_formula_units_Z 64
_cell_length_a 19.598490
_cell_length_b 17.420356
_cell_length_c 8.825027
_cell_angle_alpha 90.000000
_cell_angle_beta 90.000000
_cell_angle_gamma 90.000000
_cell_volume 3012.976056
_symmetry_space_group_name_H-M "P N N A"
_symmetry_group_IT_number 52
_symmetry_cell_setting 'orthorhombic'
loop_
_space_group_symop_operation_xyz
x,y,z
1/2-x,-y,z
x,1/2-y,1/2-z
1/2-x,1/2+y,1/2-z
-x,-y,-z
1/2+x,y,-z
-x,1/2+y,1/2+z
1/2+x,1/2-y,1/2+z
loop_
_atom_site_type_symbol
_atom_site_label
_atom_site_fract_x
_atom_site_fract_y
_atom_site_fract_z
Si Si1 0.973457 0.437999 0.619703
Si Si2 0.857030 0.089842 0.067376
Si Si3 0.576448 0.983024 0.563097
Si Si4 0.169575 0.860277 0.587516
Si Si5 0.862808 0.733130 0.585266
Si Si6 0.201078 0.781802 0.091619
Si Si7 0.672556 0.383885 0.070132
Si Si8 0.379815 0.589291 0.614980
O O1 0.928246 0.384152 0.512243
O O2 0.930569 0.474467 0.755895
O O3 0.000000 0.500000 0.500000
O O4 0.044212 0.408034 0.687119
O O5 0.842475 0.118688 0.236682
O O6 0.859467 0.997370 0.069447
O O7 0.805957 0.129392 0.950951
O O8 0.609759 0.904712 0.500354
O O9 0.500000 0.000000 0.500000
O O10 0.630113 0.047108 0.505545
O O11 0.170367 0.770727 0.542599
O O12 0.246254 0.886040 0.533765
O O13 0.893509 0.750000 0.750000
O O14 0.781326 0.729904 0.599839
O O15 0.868013 0.807045 0.477890
O O16 0.883329 0.651802 0.516575
O O17 0.171638 0.750000 0.250000
O O18 0.670956 0.387468 0.251939
#
# Coordination Sequence:
#
# PCOD9412023 Si02
#       8
#     8   8   8   8   8   8   8   8
#     4  10  23  41  63  96 139 179 222 279 340 415
#     4  11  22  40  67  97 130 181 228 286 340 414
#     4  12  22  42  69 101 138 178 224 285 346 411
#     4  11  23  42  69 100 138 178 235 287 347 417
#     4  10  24  42  64  96 135 179 226 291 347 412
#     4  10  22  43  63  95 138 177 228 290 355 406
#     4  11  23  42  71  99 135 182 229 289 349 414
#     4  11  22  43  66  98 136 178 235 283 348 418
#
# _framework density 21.241455999999999
#
# number of rings (size 3 to 8) (size 9 to 14) (size 15 to 20)
#    0.000    1.250    2.500    3.375    3.500    3.500 
#    2.250    0.000    5.500    0.000    0.000    0.000 
#    0.000    0.000    0.000    0.000    0.000    0.000 
#
# Total GULP energy -356698.426832 kJ/mol
# GULP energy per Si atom -5573.412919 kJ/mol
# Density = 2.119311 g / cm^3
# Si number density = 21.241456 Si / 1000 Ang^3
#
#
#
# Elastic Constant Matrix: (Units=GPa)
#
#
# Indices 1 2 3 4 5 6 
#
# 1 59.7584 2.7693 11.0961 0.0000 0.0000 0.0000
# 2 2.7693 98.2537 37.5180 0.0000 0.0000 0.0000
# 3 11.0961 37.5180 121.4666 0.0000 0.0000 0.0000
# 4 0.0000 0.0000 0.0000 30.3124 0.0000 0.0000
# 5 0.0000 0.0000 0.0000 0.0000 33.4602 0.0000
# 6 0.0000 0.0000 0.0000 0.0000 0.0000 10.8881
#
#
#
# Elastic Compliance Matrix: (Units=1/GPa)
#
#
# Indices 1 2 3 4 5 6 
#
# 1 0.017024 0.000129 -0.001595 0.000000 0.000000 0.000000
# 2 0.000129 0.011540 -0.003576 0.000000 0.000000 0.000000
# 3 -0.001595 -0.003576 0.009483 0.000000 0.000000 0.000000
# 4 0.000000 0.000000 0.000000 0.032990 0.000000 0.000000
# 5 0.000000 0.000000 0.000000 0.000000 0.029886 0.000000
# 6 0.000000 0.000000 0.000000 0.000000 0.000000 0.091843
#
#
# Mechanical properties :
#
#
# Convention : Reuss Voigt Hill
#
# Bulk Modulus (GPa) = 35.76160 42.47171 39.11665
# Shear Modulus (GPa) = 23.56588 30.13850 26.85219
#
# Velocity S-wave (km/s) = 3.33442 3.77085 3.55933
# Velocity P-wave (km/s) = 5.62999 6.24478 5.94534
#
# Compressibility (1/GPa) = 0.02796296
#
# Stress axis : x y z
#
# Youngs Moduli (GPa) = 58.73977 86.65792 105.45185
#
# Poissons Ratio (x) = -0.01120 0.16821
# Poissons Ratio (y) = -0.00759 0.37711
# Poissons Ratio (z) = 0.09370 0.30990
#
# Static dielectric constant tensor:
#      x y z
#    x 1.896900 0.000000 0.000000 
#    y 0.000000 1.865200 0.000000 
#    z 0.000000 0.000000 1.814020 
# 
# From -- ./inp_files/13589.got.cif
#   From: 2010.05.17/outbox.cif.g08.bks.cpg/sg52_7_cif.got.tgz:13589.got - 2010.06.03 12:15:38.
