data_PCOD9412967
_publ_section_title
;
Structure prediction by ZEFSAII (Michael W. Deem and Ramdas Pophale) SiO2 
 PCOD9412967
Probable space group: P N N A
;
_chemical_formula_sum "Si O2"
_cell_formula_units_Z 64
_cell_length_a 10.121647
_cell_length_b 30.344317
_cell_length_c 13.121423
_cell_angle_alpha 90.000000
_cell_angle_beta 90.000000
_cell_angle_gamma 90.000000
_cell_volume 4030.041235
_symmetry_space_group_name_H-M "P N N A"
_symmetry_group_IT_number 52
_symmetry_cell_setting 'orthorhombic'
loop_
_space_group_symop_operation_xyz
x,y,z
1/2-x,-y,z
x,1/2-y,1/2-z
1/2-x,1/2+y,1/2-z
-x,-y,-z
1/2+x,y,-z
-x,1/2+y,1/2+z
1/2+x,1/2-y,1/2+z
loop_
_atom_site_type_symbol
_atom_site_label
_atom_site_fract_x
_atom_site_fract_y
_atom_site_fract_z
Si Si1 0.717619 0.774630 0.905704
Si Si2 0.538561 0.722849 0.401016
Si Si3 0.379740 0.524592 0.117875
Si Si4 0.159738 0.819202 0.308137
Si Si5 0.614086 0.366214 0.135896
Si Si6 0.399195 0.625131 0.108285
Si Si7 0.369208 0.531051 0.869791
Si Si8 0.124069 0.817103 0.691283
O O1 0.878657 0.776193 0.918686
O O2 0.676724 0.803511 0.807958
O O3 0.674107 0.724782 0.876863
O O4 0.629311 0.788487 0.002085
O O5 0.587772 0.771406 0.365286
O O6 0.575180 0.690992 0.306668
O O7 0.250000 0.500000 0.153129
O O8 0.394157 0.575159 0.145832
O O9 0.497728 0.494393 0.156215
O O10 0.371278 0.528540 0.993997
O O11 0.283856 0.848745 0.336822
O O12 0.026486 0.846059 0.330963
O O13 0.633753 0.418001 0.164710
O O14 0.725985 0.333440 0.179514
O O15 0.620459 0.368346 0.012750
O O16 0.538757 0.645442 0.137436
O O17 0.250000 0.500000 0.834618
#
# Coordination Sequence:
#
# PCOD9412967 Si02
#       8
#     8   8   8   8   8   8   8   8
#     4  11  23  39  57  74 105 142 169 223 268 303
#     4  11  23  39  57  74 105 138 176 217 269 306
#     4   9  17  27  47  68 100 140 174 205 252 306
#     4  11  22  36  52  78 110 133 185 219 252 306
#     4  11  22  30  53  80 106 147 179 211 252 311
#     4  11  18  34  51  74 108 147 175 214 258 302
#     4   9  17  31  43  70 106 138 174 208 249 304
#     4  11  22  36  52  78 106 137 181 217 251 311
#
# _framework density 15.88073
#
# number of rings (size 3 to 8) (size 9 to 14) (size 15 to 20)
#    0.000    1.500    2.500    4.500    3.500    5.000 
#    0.000    0.000    0.000    0.000    0.000    0.000 
#    0.000   20.000    0.000    0.000    0.000    0.000 
#
# Total GULP energy -356792.234232 kJ/mol
# GULP energy per Si atom -5574.878660 kJ/mol
# Density = 1.584459 g / cm^3
# Si number density = 15.880730 Si / 1000 Ang^3
#
#
#
# Elastic Constant Matrix: (Units=GPa)
#
#
# Indices 1 2 3 4 5 6 
#
# 1 69.7929 -1.4193 13.9689 0.0000 0.0000 0.0000
# 2 -1.4193 62.7397 11.0470 0.0000 0.0000 0.0000
# 3 13.9689 11.0470 59.5584 0.0000 0.0000 0.0000
# 4 0.0000 0.0000 0.0000 11.8234 0.0000 0.0000
# 5 0.0000 0.0000 0.0000 0.0000 21.5712 0.0000
# 6 0.0000 0.0000 0.0000 0.0000 0.0000 4.4252
#
#
#
# Elastic Compliance Matrix: (Units=1/GPa)
#
#
# Indices 1 2 3 4 5 6 
#
# 1 0.015094 0.000997 -0.003725 0.000000 0.000000 0.000000
# 2 0.000997 0.016543 -0.003302 0.000000 0.000000 0.000000
# 3 -0.003725 -0.003302 0.018276 0.000000 0.000000 0.000000
# 4 0.000000 0.000000 0.000000 0.084578 0.000000 0.000000
# 5 0.000000 0.000000 0.000000 0.000000 0.046358 0.000000
# 6 0.000000 0.000000 0.000000 0.000000 0.000000 0.225981
#
#
# Mechanical properties :
#
#
# Convention : Reuss Voigt Hill
#
# Bulk Modulus (GPa) = 26.41792 26.58714 26.50253
# Shear Modulus (GPa) = 11.58728 18.79693 15.19210
#
# Velocity S-wave (km/s) = 2.70412 3.44413 3.09631
# Velocity P-wave (km/s) = 5.14014 5.70913 5.43209
#
# Compressibility (1/GPa) = 0.03785309
#
# Stress axis : x y z
#
# Youngs Moduli (GPa) = 66.25159 60.44893 54.71512
#
# Poissons Ratio (x) = -0.06029 0.20382
# Poissons Ratio (y) = -0.06608 0.18069
# Poissons Ratio (z) = 0.24680 0.19962
#
# Static dielectric constant tensor:
#      x y z
#    x 1.533050 0.000000 0.000000 
#    y 0.000000 1.531170 0.000000 
#    z 0.000000 0.000000 1.523490 
# 
# From -- ./inp_files/17242.got.cif
#   From: 2010.05.17/outbox.cif.g08.bks.cpg/sg52_9_cif.got.tgz:17242.got - 2010.06.03 12:15:38.
