data_PCOD9412932
_publ_section_title
;
Structure prediction by ZEFSAII (Michael W. Deem and Ramdas Pophale) SiO2 
 PCOD9412932
Probable space group: P N N A
;
_chemical_formula_sum "Si O2"
_cell_formula_units_Z 48
_cell_length_a 11.322454
_cell_length_b 21.180147
_cell_length_c 8.794379
_cell_angle_alpha 90.000000
_cell_angle_beta 90.000000
_cell_angle_gamma 90.000000
_cell_volume 2108.990934
_symmetry_space_group_name_H-M "P N N A"
_symmetry_group_IT_number 52
_symmetry_cell_setting 'orthorhombic'
loop_
_space_group_symop_operation_xyz
x,y,z
1/2-x,-y,z
x,1/2-y,1/2-z
1/2-x,1/2+y,1/2-z
-x,-y,-z
1/2+x,y,-z
-x,1/2+y,1/2+z
1/2+x,1/2-y,1/2+z
loop_
_atom_site_type_symbol
_atom_site_label
_atom_site_fract_x
_atom_site_fract_y
_atom_site_fract_z
Si Si1 0.775391 0.124975 0.193917
Si Si2 0.493094 0.088248 0.645787
Si Si3 0.815869 0.686227 0.821676
Si Si4 0.446850 0.945898 0.700398
Si Si5 0.400889 0.766252 0.912612
Si Si6 0.896353 0.145606 0.898805
O O1 0.881297 0.132000 0.314346
O O2 0.686858 0.074564 0.266839
O O3 0.702664 0.186283 0.139028
O O4 0.831133 0.107552 0.031841
O O5 0.608794 0.123736 0.703790
O O6 0.512958 0.074682 0.468289
O O7 0.468984 0.020027 0.718070
O O8 0.867807 0.750000 0.750000
O O9 0.694878 0.675119 0.726209
O O10 0.839429 0.708181 0.997616
O O11 0.522759 0.903727 0.812428
O O12 0.455593 0.750000 0.750000
O O13 0.513942 0.804016 0.979939
#
# Coordination Sequence:
#
# PCOD9412932 Si02
#       6
#     8   8   8   8   8   8
#     4  11  24  46  71 105 145 188 242 305 369 441
#     4  11  26  47  76 105 144 193 249 306 367 449
#     4  12  24  45  71 107 146 193 240 294 369 441
#     4  10  26  50  73 106 143 189 253 306 370 438
#     4  11  25  43  69 107 146 192 244 295 362 438
#     4  11  25  46  74 108 149 192 239 310 371 442
#
# _framework density 22.759699000000001
#
# number of rings (size 3 to 8) (size 9 to 14) (size 15 to 20)
#    0.000    1.000    1.667    4.000    7.000    3.333 
#    3.000    0.000    0.000    0.000    0.000    0.000 
#    0.000    0.000    0.000    0.000    0.000    0.000 
#
# Total GULP energy -267729.471812 kJ/mol
# GULP energy per Si atom -5577.697329 kJ/mol
# Density = 2.270790 g / cm^3
# Si number density = 22.759699 Si / 1000 Ang^3
#
#
#
# Elastic Constant Matrix: (Units=GPa)
#
#
# Indices 1 2 3 4 5 6 
#
# 1 131.8380 39.8468 47.5011 0.0000 0.0000 0.0000
# 2 39.8468 54.2079 5.4659 0.0000 0.0000 0.0000
# 3 47.5011 5.4659 74.5973 0.0000 0.0000 0.0000
# 4 0.0000 0.0000 0.0000 25.7952 0.0000 0.0000
# 5 0.0000 0.0000 0.0000 0.0000 31.2690 0.0000
# 6 0.0000 0.0000 0.0000 0.0000 0.0000 26.8295
#
#
#
# Elastic Compliance Matrix: (Units=1/GPa)
#
#
# Indices 1 2 3 4 5 6 
#
# 1 0.012985 -0.008776 -0.007625 0.000000 0.000000 0.000000
# 2 -0.008776 0.024516 0.003792 0.000000 0.000000 0.000000
# 3 -0.007625 0.003792 0.017983 0.000000 0.000000 0.000000
# 4 0.000000 0.000000 0.000000 0.038767 0.000000 0.000000
# 5 0.000000 0.000000 0.000000 0.000000 0.031981 0.000000
# 6 0.000000 0.000000 0.000000 0.000000 0.000000 0.037272
#
#
# Mechanical properties :
#
#
# Convention : Reuss Voigt Hill
#
# Bulk Modulus (GPa) = 33.04121 49.58564 41.31342
# Shear Modulus (GPa) = 25.14951 27.96738 26.55844
#
# Velocity S-wave (km/s) = 3.32776 3.50924 3.41971
# Velocity P-wave (km/s) = 5.41427 6.18495 5.81240
#
# Compressibility (1/GPa) = 0.03026524
#
# Stress axis : x y z
#
# Youngs Moduli (GPa) = 77.01241 40.78950 55.60797
#
# Poissons Ratio (x) = 0.35797 0.42403
# Poissons Ratio (y) = 0.67586 -0.21086
# Poissons Ratio (z) = 0.58724 -0.15467
#
# Static dielectric constant tensor:
#      x y z
#    x 1.887040 0.000000 0.000000 
#    y 0.000000 1.895260 0.000000 
#    z 0.000000 0.000000 2.067590 
# 
# From -- ./inp_files/8848.got.cif
#   From: 2010.05.17/outbox.cif.g08.bks.cpg/sg52_5_cif.got.tgz:8848.got - 2010.06.03 12:15:38.
