data_PCOD9412411
_publ_section_title
;
Structure prediction by ZEFSAII (Michael W. Deem and Ramdas Pophale) SiO2 
 PCOD9412411
Probable space group: P N N A
;
_chemical_formula_sum "Si O2"
_cell_formula_units_Z 40
_cell_length_a 13.670817
_cell_length_b 15.568364
_cell_length_c 8.797031
_cell_angle_alpha 90.000000
_cell_angle_beta 90.000000
_cell_angle_gamma 90.000000
_cell_volume 1872.291947
_symmetry_space_group_name_H-M "P N N A"
_symmetry_group_IT_number 52
_symmetry_cell_setting 'orthorhombic'
loop_
_space_group_symop_operation_xyz
x,y,z
1/2-x,-y,z
x,1/2-y,1/2-z
1/2-x,1/2+y,1/2-z
-x,-y,-z
1/2+x,y,-z
-x,1/2+y,1/2+z
1/2+x,1/2-y,1/2+z
loop_
_atom_site_type_symbol
_atom_site_label
_atom_site_fract_x
_atom_site_fract_y
_atom_site_fract_z
Si Si1 0.358727 0.159565 0.161965
Si Si2 0.395363 0.018846 0.569690
Si Si3 0.242594 0.125446 0.431365
Si Si4 0.054005 0.440382 0.622921
Si Si5 0.279736 0.703398 0.584828
O O1 0.365645 0.250000 0.250000
O O2 0.272641 0.113126 0.257051
O O3 0.462028 0.114516 0.183231
O O4 0.321607 0.168567 0.988919
O O5 0.343886 0.108097 0.524403
O O6 0.500000 0.000000 0.500000
O O7 0.329709 0.945300 0.493601
O O8 0.400765 0.001222 0.747841
O O9 0.198092 0.217928 0.469340
O O10 0.138785 0.371498 0.581257
O O11 0.000000 0.500000 0.500000
O O12 0.274029 0.750000 0.750000
#
# Coordination Sequence:
#
# PCOD9412411 Si02
#       5
#     8   8   8   8   8
#     4  10  24  45  69 100 135 189 240 286 359 432
#     4  11  23  41  70 100 139 180 234 289 364 423
#     4  10  23  43  71  97 134 189 233 291 352 432
#     4  12  27  42  69 106 143 183 234 305 358 434
#     4  11  24  45  68  96 142 186 232 297 359 428
#
# _framework density 21.364189
#
# number of rings (size 3 to 8) (size 9 to 14) (size 15 to 20)
#    0.000    1.200    4.000    0.600    5.600    0.800 
#    0.000    3.000    0.000    0.000    0.000    0.000 
#    0.000    0.000    0.000    0.000    0.000    0.000 
#
# Total GULP energy -223125.839293 kJ/mol
# GULP energy per Si atom -5578.145982 kJ/mol
# Density = 2.131556 g / cm^3
# Si number density = 21.364189 Si / 1000 Ang^3
#
#
#
# Elastic Constant Matrix: (Units=GPa)
#
#
# Indices 1 2 3 4 5 6 
#
# 1 80.8938 21.1405 38.7046 0.0000 0.0000 0.0000
# 2 21.1405 76.9972 41.0391 0.0000 0.0000 0.0000
# 3 38.7046 41.0391 85.8968 0.0000 0.0000 0.0000
# 4 0.0000 0.0000 0.0000 28.3733 0.0000 0.0000
# 5 0.0000 0.0000 0.0000 0.0000 35.9879 0.0000
# 6 0.0000 0.0000 0.0000 0.0000 0.0000 41.6148
#
#
#
# Elastic Compliance Matrix: (Units=1/GPa)
#
#
# Indices 1 2 3 4 5 6 
#
# 1 0.015790 -0.000729 -0.006767 0.000000 0.000000 0.000000
# 2 -0.000729 0.017458 -0.008013 0.000000 0.000000 0.000000
# 3 -0.006767 -0.008013 0.018519 0.000000 0.000000 0.000000
# 4 0.000000 0.000000 0.000000 0.035244 0.000000 0.000000
# 5 0.000000 0.000000 0.000000 0.000000 0.027787 0.000000
# 6 0.000000 0.000000 0.000000 0.000000 0.000000 0.024030
#
#
# Mechanical properties :
#
#
# Convention : Reuss Voigt Hill
#
# Bulk Modulus (GPa) = 48.19016 49.50625 48.84821
# Shear Modulus (GPa) = 28.28661 30.72212 29.50437
#
# Velocity S-wave (km/s) = 3.64266 3.79624 3.72024
# Velocity P-wave (km/s) = 6.34802 6.51445 6.43178
#
# Compressibility (1/GPa) = 0.02075113
#
# Stress axis : x y z
#
# Youngs Moduli (GPa) = 63.33150 57.27934 53.99814
#
# Poissons Ratio (x) = 0.04174 0.36539
# Poissons Ratio (y) = 0.04615 0.43267
# Poissons Ratio (z) = 0.42854 0.45896
#
# Static dielectric constant tensor:
#      x y z
#    x 1.747610 0.000000 0.000000 
#    y 0.000000 1.845050 0.000000 
#    z 0.000000 0.000000 1.867560 
# 
# From -- ./inp_files/8540.got.cif
#   From: 2010.05.17/outbox.cif.g08.bks.cpg/sg52_5_cif.got.tgz:8540.got - 2010.06.03 12:15:38.
