data_PCOD9412965
_publ_section_title
;
Structure prediction by ZEFSAII (Michael W. Deem and Ramdas Pophale) SiO2 
 PCOD9412965
Probable space group: P N N A
;
_chemical_formula_sum "Si O2"
_cell_formula_units_Z 56
_cell_length_a 16.702371
_cell_length_b 8.422223
_cell_length_c 19.852706
_cell_angle_alpha 90.000000
_cell_angle_beta 90.000000
_cell_angle_gamma 90.000000
_cell_volume 2792.701856
_symmetry_space_group_name_H-M "P N N A"
_symmetry_group_IT_number 52
_symmetry_cell_setting 'orthorhombic'
loop_
_space_group_symop_operation_xyz
x,y,z
1/2-x,-y,z
x,1/2-y,1/2-z
1/2-x,1/2+y,1/2-z
-x,-y,-z
1/2+x,y,-z
-x,1/2+y,1/2+z
1/2+x,1/2-y,1/2+z
loop_
_atom_site_type_symbol
_atom_site_label
_atom_site_fract_x
_atom_site_fract_y
_atom_site_fract_z
Si Si1 0.059655 0.718862 0.586130
Si Si2 0.422404 0.820773 0.324276
Si Si3 0.051719 0.310616 0.964513
Si Si4 0.096494 0.675919 0.130317
Si Si5 0.334156 0.080686 0.502818
Si Si6 0.159090 0.040165 0.951722
Si Si7 0.656338 0.010643 0.887261
O O1 0.141582 0.802752 0.562635
O O2 0.091045 0.542023 0.594135
O O3 0.012036 0.800934 0.645686
O O4 0.000403 0.723178 0.521643
O O5 0.418083 0.750000 0.250000
O O6 0.373415 0.687972 0.367592
O O7 0.396648 0.007050 0.329633
O O8 0.992379 0.328560 0.902033
O O9 0.133686 0.221564 0.947032
O O10 0.087373 0.468555 0.997250
O O11 0.162075 0.659020 0.070415
O O12 0.112138 0.861470 0.150278
O O13 0.250000 0.000000 0.512293
O O14 0.250000 0.000000 0.934331
O O15 0.147119 0.995730 0.031199
O O16 0.750000 0.000000 0.871332
#
# Coordination Sequence:
#
# PCOD9412965 Si02
#       7
#     8   8   8   8   8   8   8
#     4  11  19  36  57  87 121 153 199 246 305 360
#     4  12  26  44  62  84 118 169 220 251 287 354
#     4  11  18  33  56  88 123 158 195 240 310 368
#     4  11  22  39  64  89 122 162 198 254 303 359
#     4  11  20  31  57  94 124 153 184 244 322 377
#     4  11  20  32  59  97 130 152 186 254 322 377
#     4  11  24  40  61  93 126 159 199 250 308 365
#
# _framework density 20.052265999999999
#
# number of rings (size 3 to 8) (size 9 to 14) (size 15 to 20)
#    0.000    0.857    7.143    3.000    4.000    0.571 
#    2.571    0.000    0.000    0.857    0.000    0.000 
#    0.000    0.000    0.000    0.000    0.000    0.000 
#
# Total GULP energy -311878.860919 kJ/mol
# GULP energy per Si atom -5569.265374 kJ/mol
# Density = 2.000663 g / cm^3
# Si number density = 20.052266 Si / 1000 Ang^3
#
#
#
# Elastic Constant Matrix: (Units=GPa)
#
#
# Indices 1 2 3 4 5 6 
#
# 1 90.4985 27.6817 13.3778 0.0000 0.0000 0.0000
# 2 27.6817 90.7750 5.0842 0.0000 0.0000 0.0000
# 3 13.3778 5.0842 28.3274 0.0000 0.0000 0.0000
# 4 0.0000 0.0000 0.0000 20.7905 0.0000 0.0000
# 5 0.0000 0.0000 0.0000 0.0000 4.3748 0.0000
# 6 0.0000 0.0000 0.0000 0.0000 0.0000 42.5994
#
#
#
# Elastic Compliance Matrix: (Units=1/GPa)
#
#
# Indices 1 2 3 4 5 6 
#
# 1 0.012975 -0.003650 -0.005473 0.000000 0.000000 0.000000
# 2 -0.003650 0.012155 -0.000458 0.000000 0.000000 0.000000
# 3 -0.005473 -0.000458 0.037968 0.000000 0.000000 0.000000
# 4 0.000000 0.000000 0.000000 0.048099 0.000000 0.000000
# 5 0.000000 0.000000 0.000000 0.000000 0.228581 0.000000
# 6 0.000000 0.000000 0.000000 0.000000 0.000000 0.023475
#
#
# Mechanical properties :
#
#
# Convention : Reuss Voigt Hill
#
# Bulk Modulus (GPa) = 22.75965 33.54314 28.15139
# Shear Modulus (GPa) = 12.59256 24.45008 18.52132
#
# Velocity S-wave (km/s) = 2.50869 3.49566 3.04246
# Velocity P-wave (km/s) = 4.44591 5.74952 5.13922
#
# Compressibility (1/GPa) = 0.04393741
#
# Stress axis : x y z
#
# Youngs Moduli (GPa) = 77.06861 82.27033 26.33787
#
# Poissons Ratio (x) = 0.30031 0.14414
# Poissons Ratio (y) = 0.28133 0.01206
# Poissons Ratio (z) = 0.42176 0.03766
#
# Static dielectric constant tensor:
#      x y z
#    x 1.707100 0.000000 0.000000 
#    y 0.000000 2.147500 0.000000 
#    z 0.000000 0.000000 1.711740 
# 
# From -- ./inp_files/37646.got.cif
#   From: 2010.05.17/outbox.cif.g08.bks.cpg/sg52_19_cif.got.tgz:37646.got - 2010.06.03 12:15:38.
