data_PCOD9412713
_publ_section_title
;
Structure prediction by ZEFSAII (Michael W. Deem and Ramdas Pophale) SiO2 
 PCOD9412713
Probable space group: P N N A
;
_chemical_formula_sum "Si O2"
_cell_formula_units_Z 20
_cell_length_a 5.097430
_cell_length_b 5.207942
_cell_length_c 33.275833
_cell_angle_alpha 90.000000
_cell_angle_beta 90.000000
_cell_angle_gamma 90.000000
_cell_volume 883.377525
_symmetry_space_group_name_H-M "P N N A"
_symmetry_group_IT_number 52
_symmetry_cell_setting 'orthorhombic'
loop_
_space_group_symop_operation_xyz
x,y,z
1/2-x,-y,z
x,1/2-y,1/2-z
1/2-x,1/2+y,1/2-z
-x,-y,-z
1/2+x,y,-z
-x,1/2+y,1/2+z
1/2+x,1/2-y,1/2+z
loop_
_atom_site_type_symbol
_atom_site_label
_atom_site_fract_x
_atom_site_fract_y
_atom_site_fract_z
Si Si1 0.067032 0.247049 0.295492
Si Si2 0.250000 0.500000 0.415401
Si Si3 0.250000 0.000000 0.471083
Si Si4 0.750000 0.000000 0.140994
O O1 0.250000 0.500000 0.299046
O O2 0.959034 0.250000 0.250000
O O3 0.843114 0.277423 0.328623
O O4 0.250000 0.000000 0.301036
O O5 0.274749 0.749728 0.443207
O O6 0.502096 0.452889 0.387399
O O7 0.500000 0.000000 0.500000
#
# Coordination Sequence:
#
# PCOD9412713 Si02
#       4
#     8   4   4   4
#     4  10  24  45  71 102 147 206 258 304 363 430
#     4  12  28  45  78 113 144 188 236 303 376 431
#     4  12  26  52  78 108 144 186 234 290 366 470
#     4  12  26  49  70 113 154 190 248 315 364 425
#
# _framework density 22.640381000000001
#
# number of rings (size 3 to 8) (size 9 to 14) (size 15 to 20)
#    0.000    0.800    2.000    3.600    2.800    9.600 
#    0.000    0.000    0.000    0.000    0.000    0.000 
#    0.000    0.000    0.000    0.000    0.000    0.000 
#
# Total GULP energy -112098.485929 kJ/mol
# GULP energy per Si atom -5604.924296 kJ/mol
# Density = 2.258885 g / cm^3
# Si number density = 22.640381 Si / 1000 Ang^3
#
#
#
# Elastic Constant Matrix: (Units=GPa)
#
#
# Indices 1 2 3 4 5 6 
#
# 1 193.4826 62.7003 124.9635 0.0000 0.0000 0.0000
# 2 62.7003 206.8973 98.1246 0.0000 0.0000 0.0000
# 3 124.9635 98.1246 226.3518 0.0000 0.0000 0.0000
# 4 0.0000 0.0000 0.0000 22.7984 0.0000 0.0000
# 5 0.0000 0.0000 0.0000 0.0000 267.2557 0.0000
# 6 0.0000 0.0000 0.0000 0.0000 0.0000 33.7693
#
#
#
# Elastic Compliance Matrix: (Units=1/GPa)
#
#
# Indices 1 2 3 4 5 6 
#
# 1 0.008061 -0.000418 -0.004269 0.000000 0.000000 0.000000
# 2 -0.000418 0.006106 -0.002416 0.000000 0.000000 0.000000
# 3 -0.004269 -0.002416 0.007822 0.000000 0.000000 0.000000
# 4 0.000000 0.000000 0.000000 0.043863 0.000000 0.000000
# 5 0.000000 0.000000 0.000000 0.000000 0.003742 0.000000
# 6 0.000000 0.000000 0.000000 0.000000 0.000000 0.029613
#
#
# Mechanical properties :
#
#
# Convention : Reuss Voigt Hill
#
# Bulk Modulus (GPa) = 128.49355 133.14539 130.81947
# Shear Modulus (GPa) = 43.10071 87.49423 65.29747
#
# Velocity S-wave (km/s) = 4.36789 6.22327 5.37622
# Velocity P-wave (km/s) = 9.07278 10.51548 9.82066
#
# Compressibility (1/GPa) = 0.00778249
#
# Stress axis : x y z
#
# Youngs Moduli (GPa) = 124.05075 163.77562 127.84249
#
# Poissons Ratio (x) = 0.06850 0.54577
# Poissons Ratio (y) = 0.05189 0.30887
# Poissons Ratio (z) = 0.52958 0.39569
#
# Static dielectric constant tensor:
#      x y z
#    x 1.812420 0.000000 0.000000 
#    y 0.000000 1.821410 0.000000 
#    z 0.000000 0.000000 1.819650 
# 
# From -- ./inp_files/41313.got.cif
#   From: 2010.05.17/outbox.cif.g08.bks.cpg/sg52_21_cif.got.tgz:41313.got - 2010.06.03 12:15:38.
