data_PCOD9412152
_publ_section_title
;
Structure prediction by ZEFSAII (Michael W. Deem and Ramdas Pophale) SiO2 
 PCOD9412152
Probable space group: P N N A
;
_chemical_formula_sum "Si O2"
_cell_formula_units_Z 60
_cell_length_a 9.601736
_cell_length_b 13.767857
_cell_length_c 21.408788
_cell_angle_alpha 90.000000
_cell_angle_beta 90.000000
_cell_angle_gamma 90.000000
_cell_volume 2830.141756
_symmetry_space_group_name_H-M "P N N A"
_symmetry_group_IT_number 52
_symmetry_cell_setting 'orthorhombic'
loop_
_space_group_symop_operation_xyz
x,y,z
1/2-x,-y,z
x,1/2-y,1/2-z
1/2-x,1/2+y,1/2-z
-x,-y,-z
1/2+x,y,-z
-x,1/2+y,1/2+z
1/2+x,1/2-y,1/2+z
loop_
_atom_site_type_symbol
_atom_site_label
_atom_site_fract_x
_atom_site_fract_y
_atom_site_fract_z
Si Si1 0.412575 0.529700 0.560544
Si Si2 0.427741 0.106558 0.496836
Si Si3 0.218339 0.752077 0.177167
Si Si4 0.943033 0.748433 0.096549
Si Si5 0.439180 0.577862 0.191412
Si Si6 0.043217 0.105395 0.164402
Si Si7 0.642481 0.703995 0.130877
Si Si8 0.250000 0.000000 0.406785
O O1 0.250000 0.500000 0.556306
O O2 0.500000 0.500000 0.500000
O O3 0.420971 0.644277 0.570124
O O4 0.487932 0.475761 0.618045
O O5 0.532123 0.174781 0.459547
O O6 0.395270 0.162268 0.561591
O O7 0.289301 0.086956 0.454570
O O8 0.500000 0.000000 0.500000
O O9 0.179995 0.750000 0.250000
O O10 0.330066 0.664522 0.175015
O O11 0.443012 0.937273 0.234730
O O12 0.080910 0.743650 0.137639
O O13 0.805307 0.721085 0.133937
O O14 0.304792 0.846605 0.154920
O O15 0.589751 0.618008 0.174818
O O16 0.381637 0.501599 0.141157
O O17 0.937942 0.197488 0.152694
#
# Coordination Sequence:
#
# PCOD9412152 Si02
#       8
#     8   8   8   8   8   8   8   4
#     4  12  28  50  72 107 144 195 249 308 373 442
#     4  12  25  44  69 102 147 187 234 295 363 445
#     4   9  21  41  69 104 134 183 239 293 354 425
#     4  12  26  42  72 104 140 182 243 301 356 433
#     4  10  22  44  74  98 146 193 234 301 366 440
#     4  10  23  47  73 100 142 191 246 294 370 435
#     4  11  23  43  69 104 141 191 231 294 373 427
#     4  12  22  44  70 108 144 188 248 294 370 450
#
# _framework density 21.200351999999999
#
# number of rings (size 3 to 8) (size 9 to 14) (size 15 to 20)
#    0.000    1.067    4.000    2.800    1.867    3.200 
#    0.000    0.000    0.000    0.000    0.000    0.000 
#    0.000    0.000    0.000    0.000    0.000    0.000 
#
# Total GULP energy -334933.055981 kJ/mol
# GULP energy per Si atom -5582.217600 kJ/mol
# Density = 2.115210 g / cm^3
# Si number density = 21.200352 Si / 1000 Ang^3
#
#
#
# Elastic Constant Matrix: (Units=GPa)
#
#
# Indices 1 2 3 4 5 6 
#
# 1 130.4934 37.2181 58.2233 0.0000 0.0000 0.0000
# 2 37.2181 89.7678 27.2333 0.0000 0.0000 0.0000
# 3 58.2233 27.2333 88.9043 0.0000 0.0000 0.0000
# 4 0.0000 0.0000 0.0000 27.8580 0.0000 0.0000
# 5 0.0000 0.0000 0.0000 0.0000 28.7695 0.0000
# 6 0.0000 0.0000 0.0000 0.0000 0.0000 26.6233
#
#
#
# Elastic Compliance Matrix: (Units=1/GPa)
#
#
# Indices 1 2 3 4 5 6 
#
# 1 0.011396 -0.002713 -0.006632 0.000000 0.000000 0.000000
# 2 -0.002713 0.012927 -0.002183 0.000000 0.000000 0.000000
# 3 -0.006632 -0.002183 0.016260 0.000000 0.000000 0.000000
# 4 0.000000 0.000000 0.000000 0.035896 0.000000 0.000000
# 5 0.000000 0.000000 0.000000 0.000000 0.034759 0.000000
# 6 0.000000 0.000000 0.000000 0.000000 0.000000 0.037561
#
#
# Mechanical properties :
#
#
# Convention : Reuss Voigt Hill
#
# Bulk Modulus (GPa) = 57.05569 61.61278 59.33423
# Shear Modulus (GPa) = 28.13752 29.08288 28.61020
#
# Velocity S-wave (km/s) = 3.64705 3.70781 3.67756
# Velocity P-wave (km/s) = 6.68623 6.88881 6.78828
#
# Compressibility (1/GPa) = 0.01752674
#
# Stress axis : x y z
#
# Youngs Moduli (GPa) = 87.74907 77.35792 61.49954
#
# Poissons Ratio (x) = 0.20986 0.40788
# Poissons Ratio (y) = 0.23805 0.13426
# Poissons Ratio (z) = 0.58198 0.16889
#
# Static dielectric constant tensor:
#      x y z
#    x 1.770230 0.000000 0.000000 
#    y 0.000000 1.851700 0.000000 
#    z 0.000000 0.000000 1.822870 
# 
# From -- ./inp_files/39620.got.cif
#   From: 2010.05.17/outbox.cif.g08.bks.cpg/sg52_20_cif.got.tgz:39620.got - 2010.06.03 12:15:38.
