data_PCOD9412993
_publ_section_title
;
Structure prediction by ZEFSAII (Michael W. Deem and Ramdas Pophale) SiO2 
 PCOD9412993
Probable space group: P N N A
;
_chemical_formula_sum "Si O2"
_cell_formula_units_Z 48
_cell_length_a 9.651147
_cell_length_b 11.583566
_cell_length_c 24.653681
_cell_angle_alpha 90.000000
_cell_angle_beta 90.000000
_cell_angle_gamma 90.000000
_cell_volume 2756.150828
_symmetry_space_group_name_H-M "P N N A"
_symmetry_group_IT_number 52
_symmetry_cell_setting 'orthorhombic'
loop_
_space_group_symop_operation_xyz
x,y,z
1/2-x,-y,z
x,1/2-y,1/2-z
1/2-x,1/2+y,1/2-z
-x,-y,-z
1/2+x,y,-z
-x,1/2+y,1/2+z
1/2+x,1/2-y,1/2+z
loop_
_atom_site_type_symbol
_atom_site_label
_atom_site_fract_x
_atom_site_fract_y
_atom_site_fract_z
Si Si1 0.989576 0.285009 0.381614
Si Si2 0.887093 0.044534 0.204675
Si Si3 0.997783 0.702056 0.303707
Si Si4 0.712437 0.861674 0.897105
Si Si5 0.223733 0.867332 0.681660
Si Si6 0.125514 0.583560 0.515807
O O1 0.976698 0.381578 0.335100
O O2 0.894660 0.184455 0.357015
O O3 0.921484 0.332034 0.436722
O O4 0.153679 0.279772 0.390190
O O5 0.837981 0.115152 0.257350
O O6 0.750000 0.000000 0.173905
O O7 0.957138 0.924608 0.217969
O O8 0.073002 0.750000 0.250000
O O9 0.860369 0.782582 0.316345
O O10 0.092972 0.680105 0.356002
O O11 0.750000 0.000000 0.888581
O O12 0.667699 0.855314 0.959832
O O13 0.250000 0.000000 0.664615
O O14 0.250000 0.500000 0.533752
O O15 0.000000 0.500000 0.500000
#
# Coordination Sequence:
#
# PCOD9412993 Si02
#       6
#     8   8   8   8   8   8
#     4  12  22  38  61  87 128 158 193 251 309 358
#     4  11  19  35  60  92 117 153 209 251 287 344
#     4  12  21  38  62  87 124 162 198 254 298 350
#     4  11  24  39  56  97 127 147 194 255 317 368
#     4  11  24  38  60  91 121 165 218 238 284 363
#     4  11  21  38  61  94 122 147 194 258 317 366
#
# _framework density 17.415593000000001
#
# number of rings (size 3 to 8) (size 9 to 14) (size 15 to 20)
#    0.000    0.667   10.000    1.000    2.333    1.333 
#    0.000    0.833    0.000    4.000    0.000    0.000 
#    0.000    0.000    0.000    0.000    0.000    0.000 
#
# Total GULP energy -267346.476822 kJ/mol
# GULP energy per Si atom -5569.718267 kJ/mol
# Density = 1.737595 g / cm^3
# Si number density = 17.415593 Si / 1000 Ang^3
#
#
#
# Elastic Constant Matrix: (Units=GPa)
#
#
# Indices 1 2 3 4 5 6 
#
# 1 102.8855 37.7177 59.2195 0.0000 0.0000 0.0000
# 2 37.7177 101.4020 48.9088 0.0000 0.0000 0.0000
# 3 59.2195 48.9088 123.6144 0.0000 0.0000 0.0000
# 4 0.0000 0.0000 0.0000 762.8676 0.0000 0.0000
# 5 0.0000 0.0000 0.0000 0.0000 45.5308 0.0000
# 6 0.0000 0.0000 0.0000 0.0000 0.0000 26.5804
#
#
#
# Elastic Compliance Matrix: (Units=1/GPa)
#
#
# Indices 1 2 3 4 5 6 
#
# 1 0.013884 -0.002417 -0.005695 0.000000 0.000000 0.000000
# 2 -0.002417 0.012608 -0.003830 0.000000 0.000000 0.000000
# 3 -0.005695 -0.003830 0.012333 0.000000 0.000000 0.000000
# 4 0.000000 0.000000 0.000000 0.001311 0.000000 0.000000
# 5 0.000000 0.000000 0.000000 0.000000 0.021963 0.000000
# 6 0.000000 0.000000 0.000000 0.000000 0.000000 0.037622
#
#
# Mechanical properties :
#
#
# Convention : Reuss Voigt Hill
#
# Bulk Modulus (GPa) = 66.93378 68.84378 67.88878
# Shear Modulus (GPa) = 38.88435 179.13282 109.00859
#
# Velocity S-wave (km/s) = 4.73031 10.15288 7.92013
# Velocity P-wave (km/s) = 8.26747 13.30628 11.07719
#
# Compressibility (1/GPa) = 0.01494014
#
# Stress axis : x y z
#
# Youngs Moduli (GPa) = 72.02764 79.31160 81.08098
#
# Poissons Ratio (x) = 0.19173 0.46173
# Poissons Ratio (y) = 0.17413 0.31058
# Poissons Ratio (z) = 0.41017 0.30380
#
# Static dielectric constant tensor:
#      x y z
#    x 1.619260 0.000000 0.000000 
#    y 0.000000 1.605700 0.000000 
#    z 0.000000 0.000000 1.586690 
# 
# From -- ./inp_files/39462.got.cif
#   From: 2010.05.17/outbox.cif.g08.bks.cpg/sg52_20_cif.got.tgz:39462.got - 2010.06.03 12:15:38.
