data_PCOD9412901
_publ_section_title
;
Structure prediction by ZEFSAII (Michael W. Deem and Ramdas Pophale) SiO2 
 PCOD9412901
Probable space group: P N N A
;
_chemical_formula_sum "Si O2"
_cell_formula_units_Z 64
_cell_length_a 11.089547
_cell_length_b 18.216927
_cell_length_c 13.380687
_cell_angle_alpha 90.000000
_cell_angle_beta 90.000000
_cell_angle_gamma 90.000000
_cell_volume 2703.132510
_symmetry_space_group_name_H-M "P N N A"
_symmetry_group_IT_number 52
_symmetry_cell_setting 'orthorhombic'
loop_
_space_group_symop_operation_xyz
x,y,z
1/2-x,-y,z
x,1/2-y,1/2-z
1/2-x,1/2+y,1/2-z
-x,-y,-z
1/2+x,y,-z
-x,1/2+y,1/2+z
1/2+x,1/2-y,1/2+z
loop_
_atom_site_type_symbol
_atom_site_label
_atom_site_fract_x
_atom_site_fract_y
_atom_site_fract_z
Si Si1 0.826216 0.278659 0.859371
Si Si2 0.768199 0.820447 0.320213
Si Si3 0.398835 0.687082 0.036602
Si Si4 0.459360 0.906752 0.811080
Si Si5 0.591828 0.563809 0.081428
Si Si6 0.439203 0.323348 0.501112
Si Si7 0.064809 0.926713 0.373818
Si Si8 0.121908 0.524957 0.558323
O O1 0.849215 0.250000 0.750000
O O2 0.832180 0.214489 0.940055
O O3 0.927531 0.338018 0.886235
O O4 0.697920 0.314676 0.874104
O O5 0.729530 0.750000 0.250000
O O6 0.825366 0.804810 0.431107
O O7 0.873913 0.857302 0.256207
O O8 0.669772 0.883715 0.347172
O O9 0.483579 0.758768 0.049744
O O10 0.474339 0.612651 0.052696
O O11 0.486341 0.861760 0.911456
O O12 0.579156 0.927597 0.747120
O O13 0.389668 0.980009 0.840586
O O14 0.546813 0.484333 0.117759
O O15 0.646115 0.552187 0.969443
O O16 0.388324 0.387940 0.569258
O O17 0.250000 0.500000 0.511220
O O18 0.000000 0.500000 0.500000
#
# Coordination Sequence:
#
# PCOD9412901 Si02
#       8
#     8   8   8   8   8   8   8   8
#     4  12  25  46  75 101 138 197 257 304 384 473
#     4  12  24  43  79 115 142 195 262 317 396 473
#     4  12  24  46  71 109 146 195 242 328 382 461
#     4  11  23  43  75 105 139 193 252 307 380 473
#     4  11  26  44  67 101 152 184 243 319 384 461
#     4  11  23  45  77 104 144 189 251 305 385 468
#     4  11  23  46  67 102 137 193 247 304 378 456
#     4  10  26  46  71 113 157 201 247 315 393 473
#
# _framework density 23.676235999999999
#
# number of rings (size 3 to 8) (size 9 to 14) (size 15 to 20)
#    0.000    0.750    6.250    0.000    5.250    2.000 
#    2.250    0.000    0.000    0.000    0.000    0.000 
#    0.000    0.000    0.000    0.000    0.000    0.000 
#
# Total GULP energy -356488.408311 kJ/mol
# GULP energy per Si atom -5570.131380 kJ/mol
# Density = 2.362235 g / cm^3
# Si number density = 23.676236 Si / 1000 Ang^3
#
#
#
# Elastic Constant Matrix: (Units=GPa)
#
#
# Indices 1 2 3 4 5 6 
#
# 1 72.5091 43.7278 15.3325 0.0000 0.0000 0.0000
# 2 43.7278 147.0194 27.5156 0.0000 0.0000 0.0000
# 3 15.3325 27.5156 48.5544 0.0000 0.0000 0.0000
# 4 0.0000 0.0000 0.0000 46.3339 0.0000 0.0000
# 5 0.0000 0.0000 0.0000 0.0000 24.3097 0.0000
# 6 0.0000 0.0000 0.0000 0.0000 0.0000 37.7457
#
#
#
# Elastic Compliance Matrix: (Units=1/GPa)
#
#
# Indices 1 2 3 4 5 6 
#
# 1 0.017145 -0.004571 -0.002824 0.000000 0.000000 0.000000
# 2 -0.004571 0.008827 -0.003559 0.000000 0.000000 0.000000
# 3 -0.002824 -0.003559 0.023504 0.000000 0.000000 0.000000
# 4 0.000000 0.000000 0.000000 0.021582 0.000000 0.000000
# 5 0.000000 0.000000 0.000000 0.000000 0.041136 0.000000
# 6 0.000000 0.000000 0.000000 0.000000 0.000000 0.026493
#
#
# Mechanical properties :
#
#
# Convention : Reuss Voigt Hill
#
# Bulk Modulus (GPa) = 36.27255 49.02609 42.64932
# Shear Modulus (GPa) = 29.44900 33.77833 31.61367
#
# Velocity S-wave (km/s) = 3.53061 3.78124 3.65807
# Velocity P-wave (km/s) = 5.65454 6.30995 5.99121
#
# Compressibility (1/GPa) = 0.02756906
#
# Stress axis : x y z
#
# Youngs Moduli (GPa) = 58.32580 113.28284 42.54590
#
# Poissons Ratio (x) = 0.51781 0.12014
# Poissons Ratio (y) = 0.26661 0.15142
# Poissons Ratio (z) = 0.16470 0.40318
#
# Static dielectric constant tensor:
#      x y z
#    x 2.005930 0.000000 0.000000 
#    y 0.000000 1.922130 0.000000 
#    z 0.000000 0.000000 1.999240 
# 
# From -- ./inp_files/26348.got.cif
#   From: 2010.05.17/outbox.cif.g08.bks.cpg/sg52_14_cif.got.tgz:26348.got - 2010.06.03 12:15:38.
