data_PCOD9412568
_publ_section_title
;
Structure prediction by ZEFSAII (Michael W. Deem and Ramdas Pophale) SiO2 
 PCOD9412568
Probable space group: P N N A
;
_chemical_formula_sum "Si O2"
_cell_formula_units_Z 40
_cell_length_a 12.641338
_cell_length_b 23.529930
_cell_length_c 6.527312
_cell_angle_alpha 90.000000
_cell_angle_beta 90.000000
_cell_angle_gamma 90.000000
_cell_volume 1941.547637
_symmetry_space_group_name_H-M "P N N A"
_symmetry_group_IT_number 52
_symmetry_cell_setting 'orthorhombic'
loop_
_space_group_symop_operation_xyz
x,y,z
1/2-x,-y,z
x,1/2-y,1/2-z
1/2-x,1/2+y,1/2-z
-x,-y,-z
1/2+x,y,-z
-x,1/2+y,1/2+z
1/2+x,1/2-y,1/2+z
loop_
_atom_site_type_symbol
_atom_site_label
_atom_site_fract_x
_atom_site_fract_y
_atom_site_fract_z
Si Si1 0.853473 0.801282 0.868960
Si Si2 0.750000 0.500000 0.134731
Si Si3 0.990755 0.351931 0.702166
Si Si4 0.343791 0.250000 0.250000
Si Si5 0.560284 0.947803 0.105042
Si Si6 0.385538 0.595741 0.079624
O O1 0.911993 0.750000 0.750000
O O2 0.740065 0.772745 0.919913
O O3 0.834643 0.852783 0.709651
O O4 0.924429 0.822221 0.052625
O O5 0.665808 0.531147 0.282896
O O6 0.693549 0.453607 0.990400
O O7 0.916330 0.303673 0.797750
O O8 0.927837 0.397929 0.563612
O O9 0.058106 0.382242 0.875698
O O10 0.479265 0.926646 0.277194
O O11 0.500000 0.000000 0.000000
#
# Coordination Sequence:
#
# PCOD9412568 Si02
#       6
#     8   4   8   4   8   8
#     4   9  23  44  64 100 130 175 229 275 338 412
#     4  12  26  42  72 100 132 188 222 280 350 410
#     4  11  23  45  68  96 142 175 230 290 339 409
#     4  10  24  40  72  96 132 184 218 282 348 398
#     4  11  26  45  66 101 139 176 230 284 347 410
#     4  11  25  44  67  98 136 178 230 286 339 419
#
# _framework density 20.602122999999999
#
# number of rings (size 3 to 8) (size 9 to 14) (size 15 to 20)
#    0.600    0.800    2.000    1.800    5.600    0.800 
#    0.000    4.000    0.000    0.000    0.000    0.000 
#    0.000    0.000    0.000    0.000    0.000    0.000 
#
# Total GULP energy -223344.394375 kJ/mol
# GULP energy per Si atom -5583.609859 kJ/mol
# Density = 2.055523 g / cm^3
# Si number density = 20.602123 Si / 1000 Ang^3
#
#
#
# Elastic Constant Matrix: (Units=GPa)
#
#
# Indices 1 2 3 4 5 6 
#
# 1 97.3057 71.5256 37.9248 0.0000 0.0000 0.0000
# 2 71.5256 150.7140 61.2855 0.0000 0.0000 0.0000
# 3 37.9248 61.2855 99.4052 0.0000 0.0000 0.0000
# 4 0.0000 0.0000 0.0000 22.3443 0.0000 0.0000
# 5 0.0000 0.0000 0.0000 0.0000 -10.2575 0.0000
# 6 0.0000 0.0000 0.0000 0.0000 0.0000 56.6264
#
#
#
# Elastic Compliance Matrix: (Units=1/GPa)
#
#
# Indices 1 2 3 4 5 6 
#
# 1 0.016048 -0.006842 -0.001905 0.000000 0.000000 0.000000
# 2 -0.006842 0.011772 -0.004647 0.000000 0.000000 0.000000
# 3 -0.001905 -0.004647 0.013652 0.000000 0.000000 0.000000
# 4 0.000000 0.000000 0.000000 0.044754 0.000000 0.000000
# 5 0.000000 0.000000 0.000000 0.000000 -0.097490 0.000000
# 6 0.000000 0.000000 0.000000 0.000000 0.000000 0.017660
#
#
# Mechanical properties :
#
#
# Convention : Reuss Voigt Hill
#
# Bulk Modulus (GPa) = 68.09950 76.54408 72.32179
# Shear Modulus (GPa) = 131.30925 25.52190 78.41557
#
# Velocity S-wave (km/s) = 7.99213 3.52348 6.17613
# Velocity P-wave (km/s) = 10.87621 7.33398 9.27575
#
# Compressibility (1/GPa) = 0.01468440
#
# Stress axis : x y z
#
# Youngs Moduli (GPa) = 62.31202 84.94911 73.25107
#
# Poissons Ratio (x) = 0.58119 0.13952
# Poissons Ratio (y) = 0.42632 0.34042
# Poissons Ratio (z) = 0.11868 0.39479
#
# Static dielectric constant tensor:
#      x y z
#    x 1.735970 0.000000 0.000000 
#    y 0.000000 1.765120 0.000000 
#    z 0.000000 0.000000 1.690130 
# 
# From -- ./inp_files/1408.got.cif
#   From: 2010.05.17/outbox.cif.g08.bks.cpg/sg52_1_cif.got.tgz:1408.got - 2010.06.03 12:15:38.
