data_PCOD9412078
_publ_section_title
;
Structure prediction by ZEFSAII (Michael W. Deem and Ramdas Pophale) SiO2 
 PCOD9412078
Probable space group: P N N A
;
_chemical_formula_sum "Si O2"
_cell_formula_units_Z 28
_cell_length_a 10.486503
_cell_length_b 9.250215
_cell_length_c 11.472565
_cell_angle_alpha 90.000000
_cell_angle_beta 90.000000
_cell_angle_gamma 90.000000
_cell_volume 1112.866423
_symmetry_space_group_name_H-M "P N N A"
_symmetry_group_IT_number 52
_symmetry_cell_setting 'orthorhombic'
loop_
_space_group_symop_operation_xyz
x,y,z
1/2-x,-y,z
x,1/2-y,1/2-z
1/2-x,1/2+y,1/2-z
-x,-y,-z
1/2+x,y,-z
-x,1/2+y,1/2+z
1/2+x,1/2-y,1/2+z
loop_
_atom_site_type_symbol
_atom_site_label
_atom_site_fract_x
_atom_site_fract_y
_atom_site_fract_z
Si Si1 0.334362 0.889812 0.165802
Si Si2 0.569191 0.767399 0.444860
Si Si3 0.491210 0.426124 0.162891
Si Si4 0.221651 0.250000 0.750000
O O1 0.304370 0.750000 0.250000
O O2 0.451316 0.833072 0.088182
O O3 0.250000 0.000000 0.087094
O O4 0.385180 0.015421 0.251324
O O5 0.569395 0.798914 0.582953
O O6 0.690107 0.728179 0.364479
O O7 0.532650 0.928107 0.402032
O O8 0.621584 0.376416 0.222845
#
# Coordination Sequence:
#
# PCOD9412078 Si02
#       4
#     8   8   8   4
#     4  10  22  43  72 105 151 190 254 314 377 467
#     4  10  22  44  71 106 141 199 253 308 383 456
#     4  10  23  42  72 102 144 204 244 309 393 444
#     4  12  22  44  74 108 156 188 260 326 370 476
#
# _framework density 25.160253000000001
#
# number of rings (size 3 to 8) (size 9 to 14) (size 15 to 20)
#    0.000    1.714    4.286    0.857    2.000    6.857 
#    0.000    4.286    0.000    0.000    0.000    0.000 
#    0.000    0.000    0.000    0.000    0.000    0.000 
#
# Total GULP energy -156166.832466 kJ/mol
# GULP energy per Si atom -5577.386874 kJ/mol
# Density = 2.510299 g / cm^3
# Si number density = 25.160253 Si / 1000 Ang^3
#
#
#
# Elastic Constant Matrix: (Units=GPa)
#
#
# Indices 1 2 3 4 5 6 
#
# 1 100.8855 58.2407 36.5352 0.0000 0.0000 0.0000
# 2 58.2407 126.9288 49.4352 0.0000 0.0000 0.0000
# 3 36.5352 49.4352 90.4827 0.0000 0.0000 0.0000
# 4 0.0000 0.0000 0.0000 -2.5541 0.0000 0.0000
# 5 0.0000 0.0000 0.0000 0.0000 16.0483 0.0000
# 6 0.0000 0.0000 0.0000 0.0000 0.0000 165.6539
#
#
#
# Elastic Compliance Matrix: (Units=1/GPa)
#
#
# Indices 1 2 3 4 5 6 
#
# 1 0.013992 -0.005360 -0.002721 0.000000 0.000000 0.000000
# 2 -0.005360 0.012062 -0.004425 0.000000 0.000000 0.000000
# 3 -0.002721 -0.004425 0.014568 0.000000 0.000000 0.000000
# 4 0.000000 0.000000 0.000000 -0.391525 0.000000 0.000000
# 5 0.000000 0.000000 0.000000 0.000000 0.062312 0.000000
# 6 0.000000 0.000000 0.000000 0.000000 0.000000 0.006037
#
#
# Mechanical properties :
#
#
# Convention : Reuss Voigt Hill
#
# Bulk Modulus (GPa) = 64.06859 67.41325 65.74092
# Shear Modulus (GPa) = -19.81470 47.43535 13.81032
#
# Velocity S-wave (km/s) = -2.80936 4.34675 2.34539
# Velocity P-wave (km/s) = 3.87249 7.21415 5.78965
#
# Compressibility (1/GPa) = 0.01560827
#
# Stress axis : x y z
#
# Youngs Moduli (GPa) = 71.46815 82.90745 68.64173
#
# Poissons Ratio (x) = 0.44442 0.18678
# Poissons Ratio (y) = 0.38310 0.30377
# Poissons Ratio (z) = 0.19447 0.36690
#
# Static dielectric constant tensor:
#      x y z
#    x 2.173220 0.000000 0.000000 
#    y 0.000000 1.183400 0.000000 
#    z 0.000000 0.000000 2.037290 
# 
# From -- ./inp_files/24003.got.cif
#   From: 2010.05.17/outbox.cif.g08.bks.cpg/sg52_13_cif.got.tgz:24003.got - 2010.06.03 12:15:38.
