data_PCOD9412450
_publ_section_title
;
Structure prediction by ZEFSAII (Michael W. Deem and Ramdas Pophale) SiO2 
 PCOD9412450
Probable space group: P N N A
;
_chemical_formula_sum "Si O2"
_cell_formula_units_Z 56
_cell_length_a 8.744817
_cell_length_b 16.650025
_cell_length_c 18.830689
_cell_angle_alpha 90.000000
_cell_angle_beta 90.000000
_cell_angle_gamma 90.000000
_cell_volume 2741.775089
_symmetry_space_group_name_H-M "P N N A"
_symmetry_group_IT_number 52
_symmetry_cell_setting 'orthorhombic'
loop_
_space_group_symop_operation_xyz
x,y,z
1/2-x,-y,z
x,1/2-y,1/2-z
1/2-x,1/2+y,1/2-z
-x,-y,-z
1/2+x,y,-z
-x,1/2+y,1/2+z
1/2+x,1/2-y,1/2+z
loop_
_atom_site_type_symbol
_atom_site_label
_atom_site_fract_x
_atom_site_fract_y
_atom_site_fract_z
Si Si1 0.281400 0.276588 0.178283
Si Si2 0.926809 0.466263 0.071945
Si Si3 0.596763 0.547487 0.794384
Si Si4 0.748431 0.189973 0.062309
Si Si5 0.373684 0.445173 0.462463
Si Si6 0.945956 0.784514 0.549197
Si Si7 0.030350 0.139992 0.832883
O O1 0.191796 0.250000 0.250000
O O2 0.340688 0.367299 0.177697
O O3 0.182668 0.268552 0.107974
O O4 0.424110 0.216322 0.181548
O O5 0.750000 0.500000 0.074201
O O6 0.010356 0.500118 0.142777
O O7 0.974701 0.371950 0.061911
O O8 0.000000 0.500000 0.000000
O O9 0.750000 0.500000 0.771483
O O10 0.488587 0.574422 0.728890
O O11 0.695336 0.168846 0.141777
O O12 0.915917 0.225285 0.061691
O O13 0.773392 0.109793 0.015336
O O14 0.634950 0.255872 0.024824
O O15 0.250000 0.500000 0.423214
O O16 0.500000 0.500000 0.500000
O O17 0.461210 0.393349 0.405605
#
# Coordination Sequence:
#
# PCOD9412450 Si02
#       7
#     8   8   8   8   8   8   8
#     4  10  23  44  70  98 130 182 234 282 349 424
#     4  12  28  45  72 106 138 176 230 298 358 417
#     4  11  24  49  72 100 138 182 233 285 365 418
#     4  12  24  42  69 103 135 186 234 287 352 419
#     4  12  22  39  62  98 136 175 230 280 338 402
#     4  12  23  44  71  97 140 174 236 282 345 422
#     4  11  24  44  69  98 139 187 226 287 343 424
#
# _framework density 20.424723
#
# number of rings (size 3 to 8) (size 9 to 14) (size 15 to 20)
#    0.000    0.571    5.714    1.714    6.000    0.000 
#    5.143    0.000    0.000    0.000    0.000    0.000 
#    0.000    0.000    0.000    0.000    0.000    0.000 
#
# Total GULP energy -312220.247919 kJ/mol
# GULP energy per Si atom -5575.361570 kJ/mol
# Density = 2.037824 g / cm^3
# Si number density = 20.424723 Si / 1000 Ang^3
#
#
#
# Elastic Constant Matrix: (Units=GPa)
#
#
# Indices 1 2 3 4 5 6 
#
# 1 71.3617 11.7116 26.1369 0.0000 0.0000 0.0000
# 2 11.7116 90.5376 21.3741 0.0000 0.0000 0.0000
# 3 26.1369 21.3741 101.9160 0.0000 0.0000 0.0000
# 4 0.0000 0.0000 0.0000 36.7064 0.0000 0.0000
# 5 0.0000 0.0000 0.0000 0.0000 22.6526 0.0000
# 6 0.0000 0.0000 0.0000 0.0000 0.0000 33.6252
#
#
#
# Elastic Compliance Matrix: (Units=1/GPa)
#
#
# Indices 1 2 3 4 5 6 
#
# 1 0.015574 -0.001128 -0.003758 0.000000 0.000000 0.000000
# 2 -0.001128 0.011702 -0.002165 0.000000 0.000000 0.000000
# 3 -0.003758 -0.002165 0.011230 0.000000 0.000000 0.000000
# 4 0.000000 0.000000 0.000000 0.027243 0.000000 0.000000
# 5 0.000000 0.000000 0.000000 0.000000 0.044145 0.000000
# 6 0.000000 0.000000 0.000000 0.000000 0.000000 0.029740
#
#
# Mechanical properties :
#
#
# Convention : Reuss Voigt Hill
#
# Bulk Modulus (GPa) = 40.97388 42.47338 41.72363
# Shear Modulus (GPa) = 30.88899 32.23635 31.56267
#
# Velocity S-wave (km/s) = 3.89309 3.97709 3.93532
# Velocity P-wave (km/s) = 6.34923 6.47533 6.41259
#
# Compressibility (1/GPa) = 0.02440580
#
# Stress axis : x y z
#
# Youngs Moduli (GPa) = 64.20775 85.45472 89.04935
#
# Poissons Ratio (x) = 0.09635 0.33462
# Poissons Ratio (y) = 0.07240 0.19280
# Poissons Ratio (z) = 0.24127 0.18501
#
# Static dielectric constant tensor:
#      x y z
#    x 1.841270 0.000000 0.000000 
#    y 0.000000 1.839030 0.000000 
#    z 0.000000 0.000000 1.713360 
# 
# From -- ./inp_files/36016.got.cif
#   From: 2010.05.17/outbox.cif.g08.bks.cpg/sg52_19_cif.got.tgz:36016.got - 2010.06.03 12:15:38.
