data_PCOD9412606
_publ_section_title
;
Structure prediction by ZEFSAII (Michael W. Deem and Ramdas Pophale) SiO2 
 PCOD9412606
Probable space group: P N N A
;
_chemical_formula_sum "Si O2"
_cell_formula_units_Z 12
_cell_length_a 11.138620
_cell_length_b 9.284907
_cell_length_c 4.512937
_cell_angle_alpha 90.000000
_cell_angle_beta 90.000000
_cell_angle_gamma 90.000000
_cell_volume 466.732687
_symmetry_space_group_name_H-M "P N N A"
_symmetry_group_IT_number 52
_symmetry_cell_setting 'orthorhombic'
loop_
_space_group_symop_operation_xyz
x,y,z
1/2-x,-y,z
x,1/2-y,1/2-z
1/2-x,1/2+y,1/2-z
-x,-y,-z
1/2+x,y,-z
-x,1/2+y,1/2+z
1/2+x,1/2-y,1/2+z
loop_
_atom_site_type_symbol
_atom_site_label
_atom_site_fract_x
_atom_site_fract_y
_atom_site_fract_z
Si Si1 0.404074 0.407335 0.824281
Si Si2 0.250000 0.500000 0.298890
O O1 0.451754 0.250000 0.750000
O O2 0.358343 0.492865 0.535123
O O3 0.500000 0.500000 0.000000
O O4 0.291399 0.382661 0.052416
#
# Coordination Sequence:
#
# PCOD9412606 Si02
#       2
#     8   4
#     4  11  24  44  71 107 145 192 245 306 373 441
#     4  10  24  42  66 102 144 188 236 296 366 440
#
# _framework density 25.710643999999998
#
# number of rings (size 3 to 8) (size 9 to 14) (size 15 to 20)
#    0.000    1.333    0.000    4.000    0.000   10.667 
#    0.000    0.000    0.000    0.000    0.000    0.000 
#    0.000    0.000    0.000    0.000    0.000    0.000 
#
# Total GULP energy -66830.681082 kJ/mol
# GULP energy per Si atom -5569.223423 kJ/mol
# Density = 2.565213 g / cm^3
# Si number density = 25.710644 Si / 1000 Ang^3
#
#
#
# Elastic Constant Matrix: (Units=GPa)
#
#
# Indices 1 2 3 4 5 6 
#
# 1 62.0965 49.8568 52.7680 0.0000 0.0000 0.0000
# 2 49.8568 152.8475 49.5703 0.0000 0.0000 0.0000
# 3 52.7680 49.5703 223.4052 0.0000 0.0000 0.0000
# 4 0.0000 0.0000 0.0000 45.8194 0.0000 0.0000
# 5 0.0000 0.0000 0.0000 0.0000 75.0485 0.0000
# 6 0.0000 0.0000 0.0000 0.0000 0.0000 29.7133
#
#
#
# Elastic Compliance Matrix: (Units=1/GPa)
#
#
# Indices 1 2 3 4 5 6 
#
# 1 0.025398 -0.006830 -0.004483 0.000000 0.000000 0.000000
# 2 -0.006830 0.008887 -0.000358 0.000000 0.000000 0.000000
# 3 -0.004483 -0.000358 0.005615 0.000000 0.000000 0.000000
# 4 0.000000 0.000000 0.000000 0.021825 0.000000 0.000000
# 5 0.000000 0.000000 0.000000 0.000000 0.013325 0.000000
# 6 0.000000 0.000000 0.000000 0.000000 0.000000 0.033655
#
#
# Mechanical properties :
#
#
# Convention : Reuss Voigt Hill
#
# Bulk Modulus (GPa) = 60.40574 82.52660 71.46617
# Shear Modulus (GPa) = 36.34598 49.19318 42.76958
#
# Velocity S-wave (km/s) = 3.76394 4.37892 4.08302
# Velocity P-wave (km/s) = 6.51422 7.59832 7.07706
#
# Compressibility (1/GPa) = 0.01655472
#
# Stress axis : x y z
#
# Youngs Moduli (GPa) = 39.37322 112.52726 178.10433
#
# Poissons Ratio (x) = 0.76861 0.79851
# Poissons Ratio (y) = 0.26894 0.06385
# Poissons Ratio (z) = 0.17653 0.04034
#
# Static dielectric constant tensor:
#      x y z
#    x 2.271550 0.000000 0.000000 
#    y 0.000000 1.988630 0.000000 
#    z 0.000000 0.000000 2.013950 
# 
# From -- ./inp_files/475.got.cif
#   From: 2010.05.17/outbox.cif.g08.bks.cpg/sg52_1_cif.got.tgz:475.got - 2010.06.03 12:15:38.
