data_PCOD9412767
_publ_section_title
;
Structure prediction by ZEFSAII (Michael W. Deem and Ramdas Pophale) SiO2 
 PCOD9412767
Probable space group: P N N A
;
_chemical_formula_sum "Si O2"
_cell_formula_units_Z 32
_cell_length_a 11.881500
_cell_length_b 15.984305
_cell_length_c 7.973227
_cell_angle_alpha 90.000000
_cell_angle_beta 90.000000
_cell_angle_gamma 90.000000
_cell_volume 1514.255497
_symmetry_space_group_name_H-M "P N N A"
_symmetry_group_IT_number 52
_symmetry_cell_setting 'orthorhombic'
loop_
_space_group_symop_operation_xyz
x,y,z
1/2-x,-y,z
x,1/2-y,1/2-z
1/2-x,1/2+y,1/2-z
-x,-y,-z
1/2+x,y,-z
-x,1/2+y,1/2+z
1/2+x,1/2-y,1/2+z
loop_
_atom_site_type_symbol
_atom_site_label
_atom_site_fract_x
_atom_site_fract_y
_atom_site_fract_z
Si Si1 0.269468 0.750000 0.250000
Si Si2 0.385314 0.115384 0.073691
Si Si3 0.066991 0.258919 0.940023
Si Si4 0.527616 0.439419 0.148610
Si Si5 0.250000 0.500000 0.683375
O O1 0.196126 0.828696 0.189648
O O2 0.344728 0.768864 0.412384
O O3 0.483560 0.181410 0.020942
O O4 0.448578 0.048033 0.190013
O O5 0.315417 0.068262 0.930975
O O6 0.115928 0.250000 0.750000
O O7 0.003583 0.346474 0.919562
O O8 0.655704 0.452986 0.207276
O O9 0.500000 0.500000 0.000000
#
# Coordination Sequence:
#
# PCOD9412767 Si02
#       5
#     4   8   8   8   4
#     4  12  24  44  80  96 142 198 228 306 362 430
#     4  11  24  49  68 108 143 185 247 295 363 445
#     4  10  24  47  69 105 143 186 250 292 361 446
#     4  11  26  45  67 107 143 185 243 302 356 447
#     4  12  28  42  80 102 150 194 234 316 378 416
#
# _framework density 21.132497000000001
#
# number of rings (size 3 to 8) (size 9 to 14) (size 15 to 20)
#    0.000    1.000    3.750    3.750   10.500    0.000 
#    2.250    0.000    0.000    0.000    0.000    0.000 
#    0.000    0.000    0.000    0.000    0.000    0.000 
#
# Total GULP energy -178761.068104 kJ/mol
# GULP energy per Si atom -5586.283378 kJ/mol
# Density = 2.108440 g / cm^3
# Si number density = 21.132497 Si / 1000 Ang^3
#
#
#
# Elastic Constant Matrix: (Units=GPa)
#
#
# Indices 1 2 3 4 5 6 
#
# 1 86.7306 5.3700 39.7112 0.0000 0.0000 0.0000
# 2 5.3700 70.9662 30.8138 0.0000 0.0000 0.0000
# 3 39.7112 30.8138 65.3254 0.0000 0.0000 0.0000
# 4 0.0000 0.0000 0.0000 26.9558 0.0000 0.0000
# 5 0.0000 0.0000 0.0000 0.0000 61.2672 0.0000
# 6 0.0000 0.0000 0.0000 0.0000 0.0000 23.7753
#
#
#
# Elastic Compliance Matrix: (Units=1/GPa)
#
#
# Indices 1 2 3 4 5 6 
#
# 1 0.016827 0.003984 -0.012109 0.000000 0.000000 0.000000
# 2 0.003984 0.018664 -0.011226 0.000000 0.000000 0.000000
# 3 -0.012109 -0.011226 0.027964 0.000000 0.000000 0.000000
# 4 0.000000 0.000000 0.000000 0.037098 0.000000 0.000000
# 5 0.000000 0.000000 0.000000 0.000000 0.016322 0.000000
# 6 0.000000 0.000000 0.000000 0.000000 0.000000 0.042060
#
#
# Mechanical properties :
#
#
# Convention : Reuss Voigt Hill
#
# Bulk Modulus (GPa) = 40.39584 41.64578 41.02081
# Shear Modulus (GPa) = 24.28505 32.20815 28.24660
#
# Velocity S-wave (km/s) = 3.39363 3.90821 3.65998
# Velocity P-wave (km/s) = 5.87475 6.33366 6.10852
#
# Compressibility (1/GPa) = 0.02475503
#
# Stress axis : x y z
#
# Youngs Moduli (GPa) = 59.42656 53.57907 35.76014
#
# Poissons Ratio (x) = -0.21348 0.43301
# Poissons Ratio (y) = -0.23678 0.40144
# Poissons Ratio (z) = 0.71958 0.60147
#
# Static dielectric constant tensor:
#      x y z
#    x 4.554210 0.000000 0.000000 
#    y 0.000000 1.783820 0.000000 
#    z 0.000000 0.000000 1.785460 
# 
# From -- ./inp_files/8249.got.cif
#   From: 2010.05.17/outbox.cif.g08.bks.cpg/sg52_5_cif.got.tgz:8249.got - 2010.06.03 12:15:38.
