data_PCOD9412231
_publ_section_title
;
Structure prediction by ZEFSAII (Michael W. Deem and Ramdas Pophale) SiO2 
 PCOD9412231
Probable space group: P N N A
;
_chemical_formula_sum "Si O2"
_cell_formula_units_Z 56
_cell_length_a 21.424601
_cell_length_b 13.469247
_cell_length_c 10.388113
_cell_angle_alpha 90.000000
_cell_angle_beta 90.000000
_cell_angle_gamma 90.000000
_cell_volume 2997.731454
_symmetry_space_group_name_H-M "P N N A"
_symmetry_group_IT_number 52
_symmetry_cell_setting 'orthorhombic'
loop_
_space_group_symop_operation_xyz
x,y,z
1/2-x,-y,z
x,1/2-y,1/2-z
1/2-x,1/2+y,1/2-z
-x,-y,-z
1/2+x,y,-z
-x,1/2+y,1/2+z
1/2+x,1/2-y,1/2+z
loop_
_atom_site_type_symbol
_atom_site_label
_atom_site_fract_x
_atom_site_fract_y
_atom_site_fract_z
Si Si1 0.663115 0.313219 0.127662
Si Si2 0.410805 0.749571 0.111459
Si Si3 0.184057 0.944201 0.964995
Si Si4 0.132411 0.537757 0.821946
Si Si5 0.508506 0.447528 0.861153
Si Si6 0.057172 0.474364 0.405165
Si Si7 0.309001 0.223254 0.606984
O O1 0.640384 0.250000 0.250000
O O2 0.640065 0.425837 0.129849
O O3 0.737406 0.307131 0.125944
O O4 0.637604 0.262888 0.001136
O O5 0.378282 0.750000 0.250000
O O6 0.459043 0.658254 0.112943
O O7 0.442750 0.855066 0.095572
O O8 0.170165 0.960785 0.812589
O O9 0.187515 0.823663 0.976175
O O10 0.250000 0.000000 0.995241
O O11 0.123788 0.985910 0.041606
O O12 0.156447 0.620364 0.923140
O O13 0.060258 0.562187 0.801060
O O14 0.546302 0.502495 0.745724
O O15 0.500000 0.500000 0.000000
O O16 0.000000 0.500000 0.500000
O O17 0.334635 0.250000 0.750000
#
# Coordination Sequence:
#
# PCOD9412231 Si02
#       7
#     8   8   8   8   8   8   8
#     4  11  20  36  61  92 118 158 212 263 308 366
#     4  10  23  38  60  84 122 166 203 244 317 379
#     4  11  21  38  63  96 128 161 211 268 315 371
#     4  11  20  35  62  92 126 162 212 261 316 372
#     4  11  23  41  61  89 126 166 204 255 313 373
#     4  11  23  39  64  93 119 161 210 257 307 374
#     4   9  20  33  59  91 125 158 201 261 319 370
#
# _framework density 18.680793000000001
#
# number of rings (size 3 to 8) (size 9 to 14) (size 15 to 20)
#    0.000    1.429    2.857    4.714    2.000    1.714 
#    0.000    0.000    9.429    0.000    0.000    0.000 
#    0.000    0.000    0.000    0.000    0.000    0.000 
#
# Total GULP energy -312087.269065 kJ/mol
# GULP energy per Si atom -5572.986948 kJ/mol
# Density = 1.863827 g / cm^3
# Si number density = 18.680793 Si / 1000 Ang^3
#
#
#
# Elastic Constant Matrix: (Units=GPa)
#
#
# Indices 1 2 3 4 5 6 
#
# 1 93.3973 18.1386 29.7492 0.0000 0.0000 0.0000
# 2 18.1386 81.2240 34.5968 0.0000 0.0000 0.0000
# 3 29.7492 34.5968 97.4594 0.0000 0.0000 0.0000
# 4 0.0000 0.0000 0.0000 18.6386 0.0000 0.0000
# 5 0.0000 0.0000 0.0000 0.0000 1.4492 0.0000
# 6 0.0000 0.0000 0.0000 0.0000 0.0000 -6.7434
#
#
#
# Elastic Compliance Matrix: (Units=1/GPa)
#
#
# Indices 1 2 3 4 5 6 
#
# 1 0.011978 -0.001317 -0.003189 0.000000 0.000000 0.000000
# 2 -0.001317 0.014650 -0.004798 0.000000 0.000000 0.000000
# 3 -0.003189 -0.004798 0.012938 0.000000 0.000000 0.000000
# 4 0.000000 0.000000 0.000000 0.053652 0.000000 0.000000
# 5 0.000000 0.000000 0.000000 0.000000 0.690022 0.000000
# 6 0.000000 0.000000 0.000000 0.000000 0.000000 -0.148292
#
#
# Mechanical properties :
#
#
# Convention : Reuss Voigt Hill
#
# Bulk Modulus (GPa) = 47.71623 48.56110 48.13867
# Shear Modulus (GPa) = 7.56955 15.30862 11.43909
#
# Velocity S-wave (km/s) = 2.01515 2.86577 2.47724
# Velocity P-wave (km/s) = 5.56892 6.08291 5.83158
#
# Compressibility (1/GPa) = 0.02095723
#
# Stress axis : x y z
#
# Youngs Moduli (GPa) = 83.48344 68.26148 77.29467
#
# Poissons Ratio (x) = 0.08988 0.24649
# Poissons Ratio (y) = 0.10992 0.37090
# Poissons Ratio (z) = 0.26623 0.32755
#
# Static dielectric constant tensor:
#      x y z
#    x 1.632950 0.000000 0.000000 
#    y 0.000000 1.705960 0.000000 
#    z 0.000000 0.000000 1.676270 
# 
# From -- ./inp_files/21709.got.cif
#   From: 2010.05.17/outbox.cif.g08.bks.cpg/sg52_11_cif.got.tgz:21709.got - 2010.06.03 12:15:38.
