data_PCOD9412571
_publ_section_title
;
Structure prediction by ZEFSAII (Michael W. Deem and Ramdas Pophale) SiO2 
 PCOD9412571
Probable space group: P N N A
;
_chemical_formula_sum "Si O2"
_cell_formula_units_Z 32
_cell_length_a 11.482065
_cell_length_b 15.193225
_cell_length_c 8.172986
_cell_angle_alpha 90.000000
_cell_angle_beta 90.000000
_cell_angle_gamma 90.000000
_cell_volume 1425.774114
_symmetry_space_group_name_H-M "P N N A"
_symmetry_group_IT_number 52
_symmetry_cell_setting 'orthorhombic'
loop_
_space_group_symop_operation_xyz
x,y,z
1/2-x,-y,z
x,1/2-y,1/2-z
1/2-x,1/2+y,1/2-z
-x,-y,-z
1/2+x,y,-z
-x,1/2+y,1/2+z
1/2+x,1/2-y,1/2+z
loop_
_atom_site_type_symbol
_atom_site_label
_atom_site_fract_x
_atom_site_fract_y
_atom_site_fract_z
Si Si1 0.250000 0.500000 0.301647
Si Si2 0.398967 0.892223 0.937690
Si Si3 0.023701 0.736614 0.929459
Si Si4 0.245151 0.750000 0.750000
Si Si5 0.972745 0.069096 0.638639
O O1 0.330521 0.559963 0.418827
O O2 0.161330 0.558604 0.194047
O O3 0.315705 0.822325 0.848085
O O4 0.448923 0.953906 0.796531
O O5 0.508547 0.833028 0.995274
O O6 0.962617 0.750000 0.750000
O O7 0.154142 0.709351 0.879845
O O8 0.989236 0.663302 0.061515
O O9 0.000000 0.000000 0.500000
#
# Coordination Sequence:
#
# PCOD9412571 Si02
#       5
#     4   8   8   4   8
#     4  12  30  42  80 104 158 192 244 312 382 432
#     4  12  24  49  70 108 145 194 242 305 367 445
#     4  10  24  44  72 103 142 186 247 298 361 446
#     4  10  24  40  76  94 136 188 236 292 354 434
#     4  12  27  45  71 108 145 192 245 308 366 444
#
# _framework density 22.443950000000001
#
# number of rings (size 3 to 8) (size 9 to 14) (size 15 to 20)
#    0.750    0.000    2.500    3.750    7.000    2.000 
#    0.000    0.000    0.000    0.000    0.000    0.000 
#    0.000    0.000    0.000    0.000    0.000    0.000 
#
# Total GULP energy -178541.923003 kJ/mol
# GULP energy per Si atom -5579.435094 kJ/mol
# Density = 2.239287 g / cm^3
# Si number density = 22.443950 Si / 1000 Ang^3
#
#
#
# Elastic Constant Matrix: (Units=GPa)
#
#
# Indices 1 2 3 4 5 6 
#
# 1 41.5686 16.0493 35.7359 0.0000 0.0000 0.0000
# 2 16.0493 90.4145 47.9959 0.0000 0.0000 0.0000
# 3 35.7359 47.9959 131.1406 0.0000 0.0000 0.0000
# 4 0.0000 0.0000 0.0000 53.8866 0.0000 0.0000
# 5 0.0000 0.0000 0.0000 0.0000 72.6297 0.0000
# 6 0.0000 0.0000 0.0000 0.0000 0.0000 32.3599
#
#
#
# Elastic Compliance Matrix: (Units=1/GPa)
#
#
# Indices 1 2 3 4 5 6 
#
# 1 0.031536 -0.001286 -0.008123 0.000000 0.000000 0.000000
# 2 -0.001286 0.013780 -0.004693 0.000000 0.000000 0.000000
# 3 -0.008123 -0.004693 0.011556 0.000000 0.000000 0.000000
# 4 0.000000 0.000000 0.000000 0.018557 0.000000 0.000000
# 5 0.000000 0.000000 0.000000 0.000000 0.013768 0.000000
# 6 0.000000 0.000000 0.000000 0.000000 0.000000 0.030902
#
#
# Mechanical properties :
#
#
# Convention : Reuss Voigt Hill
#
# Bulk Modulus (GPa) = 34.88099 51.40955 43.14527
# Shear Modulus (GPa) = 31.67355 42.66474 37.16915
#
# Velocity S-wave (km/s) = 3.76071 4.36471 4.07392
# Velocity P-wave (km/s) = 5.86791 6.95388 6.43385
#
# Compressibility (1/GPa) = 0.02866891
#
# Stress axis : x y z
#
# Youngs Moduli (GPa) = 31.70946 72.57137 86.53192
#
# Poissons Ratio (x) = 0.09332 0.70290
# Poissons Ratio (y) = 0.04078 0.40607
# Poissons Ratio (z) = 0.25758 0.34056
#
# Static dielectric constant tensor:
#      x y z
#    x 1.865740 0.000000 0.000000 
#    y 0.000000 1.907350 0.000000 
#    z 0.000000 0.000000 1.898440 
# 
# From -- ./inp_files/8282.got.cif
#   From: 2010.05.17/outbox.cif.g08.bks.cpg/sg52_5_cif.got.tgz:8282.got - 2010.06.03 12:15:38.
