data_PCOD9412184
_publ_section_title
;
Structure prediction by ZEFSAII (Michael W. Deem and Ramdas Pophale) SiO2 
 PCOD9412184
Probable space group: P N N A
;
_chemical_formula_sum "Si O2"
_cell_formula_units_Z 36
_cell_length_a 8.511625
_cell_length_b 20.496440
_cell_length_c 8.110612
_cell_angle_alpha 90.000000
_cell_angle_beta 90.000000
_cell_angle_gamma 90.000000
_cell_volume 1414.961238
_symmetry_space_group_name_H-M "P N N A"
_symmetry_group_IT_number 52
_symmetry_cell_setting 'orthorhombic'
loop_
_space_group_symop_operation_xyz
x,y,z
1/2-x,-y,z
x,1/2-y,1/2-z
1/2-x,1/2+y,1/2-z
-x,-y,-z
1/2+x,y,-z
-x,1/2+y,1/2+z
1/2+x,1/2-y,1/2+z
loop_
_atom_site_type_symbol
_atom_site_label
_atom_site_fract_x
_atom_site_fract_y
_atom_site_fract_z
Si Si1 0.671078 0.668624 0.824293
Si Si2 0.579442 0.528856 0.837716
Si Si3 0.750000 0.000000 0.152220
Si Si4 0.676702 0.848663 0.070818
Si Si5 0.942791 0.750000 0.750000
Si Si6 0.406437 0.750000 0.750000
O O1 0.639777 0.599183 0.898026
O O2 0.673337 0.658298 0.626370
O O3 0.824311 0.708714 0.865314
O O4 0.526715 0.713536 0.869793
O O5 0.750000 0.500000 0.776969
O O6 0.426862 0.524026 0.718942
O O7 0.500000 0.500000 0.000000
O O8 0.807202 0.073212 0.095417
O O9 0.535343 0.808529 0.158771
O O10 0.814585 0.807852 0.160216
#
# Coordination Sequence:
#
# PCOD9412184 Si02
#       6
#     8   8   4   8   4   4
#     4  11  24  48  74 109 148 202 260 327 388 474
#     4  12  27  51  74 114 157 208 266 324 417 474
#     4  12  26  50  80 118 156 210 258 342 400 484
#     4  11  24  47  77 110 151 201 261 326 402 469
#     4  10  24  46  70 116 146 204 262 322 396 468
#     4  10  22  46  68 110 150 196 256 316 402 466
#
# _framework density 25.442392000000002
#
# number of rings (size 3 to 8) (size 9 to 14) (size 15 to 20)
#    0.000    0.889    3.333    2.667    1.556    0.889 
#   40.000    0.000    0.000    0.000    0.000    0.000 
#    0.000    0.000    0.000    0.000    0.000    0.000 
#
# Total GULP energy -200448.508670 kJ/mol
# GULP energy per Si atom -5568.014130 kJ/mol
# Density = 2.538448 g / cm^3
# Si number density = 25.442392 Si / 1000 Ang^3
#
#
#
# Elastic Constant Matrix: (Units=GPa)
#
#
# Indices 1 2 3 4 5 6 
#
# 1 216.5186 65.4441 49.3873 0.0000 0.0000 0.0000
# 2 65.4441 249.2052 43.6473 0.0000 0.0000 0.0000
# 3 49.3873 43.6473 59.6807 0.0000 0.0000 0.0000
# 4 0.0000 0.0000 0.0000 32.1784 0.0000 0.0000
# 5 0.0000 0.0000 0.0000 0.0000 -29.7083 0.0000
# 6 0.0000 0.0000 0.0000 0.0000 0.0000 88.8131
#
#
#
# Elastic Compliance Matrix: (Units=1/GPa)
#
#
# Indices 1 2 3 4 5 6 
#
# 1 0.005824 -0.000786 -0.004245 0.000000 0.000000 0.000000
# 2 -0.000786 0.004708 -0.002793 0.000000 0.000000 0.000000
# 3 -0.004245 -0.002793 0.022311 0.000000 0.000000 0.000000
# 4 0.000000 0.000000 0.000000 0.031077 0.000000 0.000000
# 5 0.000000 0.000000 0.000000 0.000000 -0.033661 0.000000
# 6 0.000000 0.000000 0.000000 0.000000 0.000000 0.011260
#
#
# Mechanical properties :
#
#
# Convention : Reuss Voigt Hill
#
# Bulk Modulus (GPa) = 58.15277 93.59575 75.87426
# Shear Modulus (GPa) = 79.49154 42.71836 61.10495
#
# Velocity S-wave (km/s) = 5.59567 4.10203 4.90603
# Velocity P-wave (km/s) = 8.04083 7.70083 7.87267
#
# Compressibility (1/GPa) = 0.01719609
#
# Stress axis : x y z
#
# Youngs Moduli (GPa) = 171.69170 212.38812 44.82040
#
# Poissons Ratio (x) = 0.16695 0.19026
# Poissons Ratio (y) = 0.13496 0.12518
# Poissons Ratio (z) = 0.72882 0.59319
#
# Static dielectric constant tensor:
#      x y z
#    x 2.148540 0.000000 0.000000 
#    y 0.000000 2.133250 0.000000 
#    z 0.000000 0.000000 1.971140 
# 
# From -- ./inp_files/7332.got.cif
#   From: 2010.05.17/outbox.cif.g08.bks.cpg/sg52_4_cif.got.tgz:7332.got - 2010.06.03 12:15:38.
