data_PCOD9412691
_publ_section_title
;
Structure prediction by ZEFSAII (Michael W. Deem and Ramdas Pophale) SiO2 
 PCOD9412691
Probable space group: P N N A
;
_chemical_formula_sum "Si O2"
_cell_formula_units_Z 28
_cell_length_a 28.980414
_cell_length_b 7.521419
_cell_length_c 5.197320
_cell_angle_alpha 90.000000
_cell_angle_beta 90.000000
_cell_angle_gamma 90.000000
_cell_volume 1132.879780
_symmetry_space_group_name_H-M "P N N A"
_symmetry_group_IT_number 52
_symmetry_cell_setting 'orthorhombic'
loop_
_space_group_symop_operation_xyz
x,y,z
1/2-x,-y,z
x,1/2-y,1/2-z
1/2-x,1/2+y,1/2-z
-x,-y,-z
1/2+x,y,-z
-x,1/2+y,1/2+z
1/2+x,1/2-y,1/2+z
loop_
_atom_site_type_symbol
_atom_site_label
_atom_site_fract_x
_atom_site_fract_y
_atom_site_fract_z
Si Si1 0.987543 0.250000 0.250000
Si Si2 0.283651 0.750000 0.750000
Si Si3 0.345181 0.561873 0.101741
Si Si4 0.719194 0.750000 0.750000
Si Si5 0.437218 0.920757 0.622496
O O1 0.956151 0.422944 0.304326
O O2 0.020749 0.175120 0.472275
O O3 0.318178 0.908343 0.668274
O O4 0.251288 0.734646 0.501132
O O5 0.346583 0.750000 0.250000
O O6 0.313862 0.419528 0.242402
O O7 0.397758 0.500552 0.059857
O O8 0.413561 0.750000 0.750000
#
# Coordination Sequence:
#
# PCOD9412691 Si02
#       5
#     4   4   8   4   8
#     4  10  24  44  70 110 148 202 246 316 382 468
#     4  12  28  51  80 111 154 203 260 315 388 460
#     4  12  28  48  75 111 153 200 258 321 385 459
#     4  12  32  49  78 115 154 205 258 319 390 466
#     4  11  23  46  73 107 149 196 256 313 385 455
#
# _framework density 24.715771
#
# number of rings (size 3 to 8) (size 9 to 14) (size 15 to 20)
#    0.000    0.571    4.286    1.714    8.000    3.429 
#   10.286    0.000    0.000    0.000    0.000    0.000 
#    0.000    0.000    0.000    0.000    0.000    0.000 
#
# Total GULP energy -156637.669528 kJ/mol
# GULP energy per Si atom -5594.202483 kJ/mol
# Density = 2.465952 g / cm^3
# Si number density = 24.715771 Si / 1000 Ang^3
#
#
#
# Elastic Constant Matrix: (Units=GPa)
#
#
# Indices 1 2 3 4 5 6 
#
# 1 154.5659 64.3834 46.5077 0.0000 0.0000 0.0000
# 2 64.3834 129.7926 34.4026 0.0000 0.0000 0.0000
# 3 46.5077 34.4026 110.2938 0.0000 0.0000 0.0000
# 4 0.0000 0.0000 0.0000 28.3536 0.0000 0.0000
# 5 0.0000 0.0000 0.0000 0.0000 27.3103 0.0000
# 6 0.0000 0.0000 0.0000 0.0000 0.0000 44.7497
#
#
#
# Elastic Compliance Matrix: (Units=1/GPa)
#
#
# Indices 1 2 3 4 5 6 
#
# 1 0.008767 -0.003673 -0.002551 0.000000 0.000000 0.000000
# 2 -0.003673 0.009938 -0.001551 0.000000 0.000000 0.000000
# 3 -0.002551 -0.001551 0.010626 0.000000 0.000000 0.000000
# 4 0.000000 0.000000 0.000000 0.035269 0.000000 0.000000
# 5 0.000000 0.000000 0.000000 0.000000 0.036616 0.000000
# 6 0.000000 0.000000 0.000000 0.000000 0.000000 0.022347
#
#
# Mechanical properties :
#
#
# Convention : Reuss Voigt Hill
#
# Bulk Modulus (GPa) = 72.56370 76.13774 74.35072
# Shear Modulus (GPa) = 34.79312 36.70663 35.74987
#
# Velocity S-wave (km/s) = 3.75604 3.85795 3.80733
# Velocity P-wave (km/s) = 6.94503 7.12160 7.03387
#
# Compressibility (1/GPa) = 0.01378100
#
# Stress axis : x y z
#
# Youngs Moduli (GPa) = 114.06077 100.62836 94.10622
#
# Poissons Ratio (x) = 0.36958 0.24009
# Poissons Ratio (y) = 0.41891 0.14596
# Poissons Ratio (z) = 0.29100 0.15608
#
# Static dielectric constant tensor:
#      x y z
#    x 1.955020 0.000000 0.000000 
#    y 0.000000 1.995330 0.000000 
#    z 0.000000 0.000000 2.088750 
# 
# From -- ./inp_files/5517.got.cif
#   From: 2010.05.17/outbox.cif.g08.bks.cpg/sg52_3_cif.got.tgz:5517.got - 2010.06.03 12:15:38.
