data_PCOD9412789
_publ_section_title
;
Structure prediction by ZEFSAII (Michael W. Deem and Ramdas Pophale) SiO2 
 PCOD9412789
Probable space group: P N N A
;
_chemical_formula_sum "Si O2"
_cell_formula_units_Z 60
_cell_length_a 26.144747
_cell_length_b 8.715185
_cell_length_c 12.054919
_cell_angle_alpha 90.000000
_cell_angle_beta 90.000000
_cell_angle_gamma 90.000000
_cell_volume 2746.789323
_symmetry_space_group_name_H-M "P N N A"
_symmetry_group_IT_number 52
_symmetry_cell_setting 'orthorhombic'
loop_
_space_group_symop_operation_xyz
x,y,z
1/2-x,-y,z
x,1/2-y,1/2-z
1/2-x,1/2+y,1/2-z
-x,-y,-z
1/2+x,y,-z
-x,1/2+y,1/2+z
1/2+x,1/2-y,1/2+z
loop_
_atom_site_type_symbol
_atom_site_label
_atom_site_fract_x
_atom_site_fract_y
_atom_site_fract_z
Si Si1 0.616039 0.074326 0.051444
Si Si2 0.209005 0.871003 0.653192
Si Si3 0.066548 0.410579 0.314823
Si Si4 0.854874 0.464132 0.842158
Si Si5 0.692410 0.677056 0.550238
Si Si6 0.539602 0.433953 0.252169
Si Si7 0.882800 0.578601 0.072069
Si Si8 0.250000 0.500000 0.265007
O O1 0.582373 0.019985 0.156071
O O2 0.633403 0.244400 0.089392
O O3 0.578468 0.098306 0.945568
O O4 0.661203 0.960560 0.010535
O O5 0.201834 0.750000 0.750000
O O6 0.222201 0.774182 0.542825
O O7 0.250000 0.000000 0.681492
O O8 0.157944 0.963308 0.624249
O O9 0.072453 0.250000 0.250000
O O10 0.109958 0.521035 0.264220
O O11 0.011653 0.478986 0.284175
O O12 0.845908 0.295700 0.890683
O O13 0.799286 0.532872 0.810513
O O14 0.881787 0.554211 0.941247
O O15 0.730044 0.626400 0.648189
O O16 0.530874 0.250000 0.250000
O O17 0.563894 0.460735 0.131144
#
# Coordination Sequence:
#
# PCOD9412789 Si02
#       8
#     8   8   8   8   8   8   8   4
#     4  11  23  45  72 104 138 185 240 299 356 434
#     4  11  27  45  72 105 143 190 245 297 358 427
#     4  12  25  43  69 105 142 184 238 295 364 428
#     4  11  26  45  67 104 140 185 238 291 357 433
#     4  11  27  43  71 103 141 193 234 293 370 423
#     4  10  25  45  71  99 137 183 237 296 365 429
#     4  10  24  48  70  99 140 185 236 300 355 432
#     4  12  26  42  72 102 146 184 238 288 368 424
#
# _framework density 21.843684
#
# number of rings (size 3 to 8) (size 9 to 14) (size 15 to 20)
#    0.000    1.067    2.667    1.600    8.400    6.933 
#    0.000    0.000    0.000    0.000    0.000    0.000 
#    0.000    0.000    0.000    0.000    0.000    0.000 
#
# Total GULP energy -335414.274342 kJ/mol
# GULP energy per Si atom -5590.237906 kJ/mol
# Density = 2.179397 g / cm^3
# Si number density = 21.843684 Si / 1000 Ang^3
#
#
#
# Elastic Constant Matrix: (Units=GPa)
#
#
# Indices 1 2 3 4 5 6 
#
# 1 56.9411 24.2031 55.8952 0.0000 0.0000 0.0000
# 2 24.2031 86.0346 33.2846 0.0000 0.0000 0.0000
# 3 55.8952 33.2846 120.4795 0.0000 0.0000 0.0000
# 4 0.0000 0.0000 0.0000 42.1704 0.0000 0.0000
# 5 0.0000 0.0000 0.0000 0.0000 37.2874 0.0000
# 6 0.0000 0.0000 0.0000 0.0000 0.0000 34.1979
#
#
#
# Elastic Compliance Matrix: (Units=1/GPa)
#
#
# Indices 1 2 3 4 5 6 
#
# 1 0.033322 -0.003799 -0.014410 0.000000 0.000000 0.000000
# 2 -0.003799 0.013447 -0.001952 0.000000 0.000000 0.000000
# 3 -0.014410 -0.001952 0.015525 0.000000 0.000000 0.000000
# 4 0.000000 0.000000 0.000000 0.023713 0.000000 0.000000
# 5 0.000000 0.000000 0.000000 0.000000 0.026819 0.000000
# 6 0.000000 0.000000 0.000000 0.000000 0.000000 0.029242
#
#
# Mechanical properties :
#
#
# Convention : Reuss Voigt Hill
#
# Bulk Modulus (GPa) = 45.51414 54.46901 49.99158
# Shear Modulus (GPa) = 26.35538 32.73597 29.54567
#
# Velocity S-wave (km/s) = 3.47730 3.87544 3.68176
# Velocity P-wave (km/s) = 6.08307 6.70934 6.40387
#
# Compressibility (1/GPa) = 0.02197120
#
# Stress axis : x y z
#
# Youngs Moduli (GPa) = 30.01017 74.36384 64.41287
#
# Poissons Ratio (x) = 0.28253 0.92818
# Poissons Ratio (y) = 0.11402 0.12576
# Poissons Ratio (z) = 0.43244 0.14519
#
# Static dielectric constant tensor:
#      x y z
#    x 1.777320 0.000000 0.000000 
#    y 0.000000 1.847870 0.000000 
#    z 0.000000 0.000000 1.806440 
# 
# From -- ./inp_files/22913.got.cif
#   From: 2010.05.17/outbox.cif.g08.bks.cpg/sg52_12_cif.got.tgz:22913.got - 2010.06.03 12:15:38.
