data_PCOD9412186
_publ_section_title
;
Structure prediction by ZEFSAII (Michael W. Deem and Ramdas Pophale) SiO2 
 PCOD9412186
Probable space group: P N N A
;
_chemical_formula_sum "Si O2"
_cell_formula_units_Z 40
_cell_length_a 23.326634
_cell_length_b 5.682234
_cell_length_c 13.885220
_cell_angle_alpha 90.000000
_cell_angle_beta 90.000000
_cell_angle_gamma 90.000000
_cell_volume 1840.449710
_symmetry_space_group_name_H-M "P N N A"
_symmetry_group_IT_number 52
_symmetry_cell_setting 'orthorhombic'
loop_
_space_group_symop_operation_xyz
x,y,z
1/2-x,-y,z
x,1/2-y,1/2-z
1/2-x,1/2+y,1/2-z
-x,-y,-z
1/2+x,y,-z
-x,1/2+y,1/2+z
1/2+x,1/2-y,1/2+z
loop_
_atom_site_type_symbol
_atom_site_label
_atom_site_fract_x
_atom_site_fract_y
_atom_site_fract_z
Si Si1 0.250000 0.000000 0.160037
Si Si2 0.944438 0.597293 0.402351
Si Si3 0.851127 0.250000 0.750000
Si Si4 0.914772 0.250000 0.250000
Si Si5 0.635452 0.466713 0.078899
Si Si6 0.750000 0.000000 0.542363
Si Si7 0.437346 0.226993 0.428720
O O1 0.192941 0.962710 0.224813
O O2 0.251973 0.752725 0.099842
O O3 0.953853 0.420308 0.314247
O O4 0.881890 0.708226 0.387526
O O5 0.939062 0.460834 0.503895
O O6 0.996753 0.781905 0.396594
O O7 0.892816 0.230362 0.658647
O O8 0.875141 0.373565 0.170940
O O9 0.694444 0.501418 0.025259
O O10 0.586794 0.528743 0.999343
#
# Coordination Sequence:
#
# PCOD9412186 Si02
#       7
#     4   8   4   4   8   4   8
#     4  12  27  50  69 112 146 200 241 312 351 450
#     4  10  22  46  69 102 148 181 239 301 374 436
#     4  12  24  44  73 107 150 188 256 290 382 434
#     4  10  24  42  67 103 138 182 240 308 362 436
#     4  11  23  45  70 100 138 192 237 304 365 437
#     4  12  27  50  79  98 156 196 245 306 375 432
#     4  10  23  42  69 107 139 188 233 299 368 447
#
# _framework density 21.733816999999998
#
# number of rings (size 3 to 8) (size 9 to 14) (size 15 to 20)
#    0.000    1.200    2.000    3.000    5.600    0.000 
#    7.200    0.000    0.000    0.000    0.000    0.000 
#    0.000    0.000    0.000    0.000    0.000    0.000 
#
# Total GULP energy -223129.762427 kJ/mol
# GULP energy per Si atom -5578.244061 kJ/mol
# Density = 2.168435 g / cm^3
# Si number density = 21.733817 Si / 1000 Ang^3
#
#
#
# Elastic Constant Matrix: (Units=GPa)
#
#
# Indices 1 2 3 4 5 6 
#
# 1 146.4335 30.6939 66.0291 0.0000 0.0000 0.0000
# 2 30.6939 46.1677 36.0260 0.0000 0.0000 0.0000
# 3 66.0291 36.0260 150.8177 0.0000 0.0000 0.0000
# 4 0.0000 0.0000 0.0000 16.3213 0.0000 0.0000
# 5 0.0000 0.0000 0.0000 0.0000 13.2772 0.0000
# 6 0.0000 0.0000 0.0000 0.0000 0.0000 19.6051
#
#
#
# Elastic Compliance Matrix: (Units=1/GPa)
#
#
# Indices 1 2 3 4 5 6 
#
# 1 0.008961 -0.003560 -0.003073 0.000000 0.000000 0.000000
# 2 -0.003560 0.028037 -0.005139 0.000000 0.000000 0.000000
# 3 -0.003073 -0.005139 0.009203 0.000000 0.000000 0.000000
# 4 0.000000 0.000000 0.000000 0.061270 0.000000 0.000000
# 5 0.000000 0.000000 0.000000 0.000000 0.075317 0.000000
# 6 0.000000 0.000000 0.000000 0.000000 0.000000 0.051007
#
#
# Mechanical properties :
#
#
# Convention : Reuss Voigt Hill
#
# Bulk Modulus (GPa) = 44.13372 67.65743 55.89557
# Shear Modulus (GPa) = 18.87576 23.88536 21.38056
#
# Velocity S-wave (km/s) = 2.95023 3.31871 3.13988
# Velocity P-wave (km/s) = 5.65293 6.77368 6.23852
#
# Compressibility (1/GPa) = 0.02265841
#
# Stress axis : x y z
#
# Youngs Moduli (GPa) = 111.59802 35.66762 108.65667
#
# Poissons Ratio (x) = 0.12696 0.33388
# Poissons Ratio (y) = 0.39725 0.55836
# Poissons Ratio (z) = 0.34292 0.18329
#
# Static dielectric constant tensor:
#      x y z
#    x 1.768400 0.000000 0.000000 
#    y 0.000000 1.894250 0.000000 
#    z 0.000000 0.000000 1.807110 
# 
# From -- ./inp_files/29093.got.cif
#   From: 2010.05.17/outbox.cif.g08.bks.cpg/sg52_15_cif.got.tgz:29093.got - 2010.06.03 12:15:38.
