data_PCOD9412442
_publ_section_title
;
Structure prediction by ZEFSAII (Michael W. Deem and Ramdas Pophale) SiO2 
 PCOD9412442
Probable space group: P N N A
;
_chemical_formula_sum "Si O2"
_cell_formula_units_Z 24
_cell_length_a 8.318689
_cell_length_b 5.579139
_cell_length_c 21.169116
_cell_angle_alpha 90.000000
_cell_angle_beta 90.000000
_cell_angle_gamma 90.000000
_cell_volume 982.482430
_symmetry_space_group_name_H-M "P N N A"
_symmetry_group_IT_number 52
_symmetry_cell_setting 'orthorhombic'
loop_
_space_group_symop_operation_xyz
x,y,z
1/2-x,-y,z
x,1/2-y,1/2-z
1/2-x,1/2+y,1/2-z
-x,-y,-z
1/2+x,y,-z
-x,1/2+y,1/2+z
1/2+x,1/2-y,1/2+z
loop_
_atom_site_type_symbol
_atom_site_label
_atom_site_fract_x
_atom_site_fract_y
_atom_site_fract_z
Si Si1 0.003911 0.183170 0.557454
Si Si2 0.250000 0.000000 0.989395
Si Si3 0.750000 0.000000 0.210562
Si Si4 0.908100 0.343960 0.678878
O O1 0.884532 0.393483 0.534890
O O2 0.941057 0.131915 0.627572
O O3 0.181909 0.290315 0.554301
O O4 0.000000 0.000000 0.500000
O O5 0.750932 0.250000 0.250000
O O6 0.576114 0.007839 0.176174
O O7 0.750000 0.500000 0.665139
O O8 0.889824 0.250000 0.750000
#
# Coordination Sequence:
#
# PCOD9412442 Si02
#       4
#     8   4   4   8
#     4  11  23  45  72 104 146 196 251 316 388 469
#     4  10  23  44  68  98 146 189 246 304 378 471
#     4  10  23  48  74 114 158 209 260 322 398 481
#     4  11  24  46  75 113 152 198 258 324 400 473
#
# _framework density 24.427916
#
# number of rings (size 3 to 8) (size 9 to 14) (size 15 to 20)
#    0.000    1.333    1.667    3.000    0.000    2.667 
#   48.000    0.000    0.000    0.000    0.000    0.000 
#    0.000    0.000    0.000    0.000    0.000    0.000 
#
# Total GULP energy -133915.096263 kJ/mol
# GULP energy per Si atom -5579.795678 kJ/mol
# Density = 2.437232 g / cm^3
# Si number density = 24.427916 Si / 1000 Ang^3
#
#
#
# Elastic Constant Matrix: (Units=GPa)
#
#
# Indices 1 2 3 4 5 6 
#
# 1 161.3999 22.8896 22.4663 0.0000 0.0000 0.0000
# 2 22.8896 71.9277 31.5585 0.0000 0.0000 0.0000
# 3 22.4663 31.5585 184.9157 0.0000 0.0000 0.0000
# 4 0.0000 0.0000 0.0000 27.9245 0.0000 0.0000
# 5 0.0000 0.0000 0.0000 0.0000 19.1917 0.0000
# 6 0.0000 0.0000 0.0000 0.0000 0.0000 35.2988
#
#
#
# Elastic Compliance Matrix: (Units=1/GPa)
#
#
# Indices 1 2 3 4 5 6 
#
# 1 0.006527 -0.001869 -0.000474 0.000000 0.000000 0.000000
# 2 -0.001869 0.015563 -0.002429 0.000000 0.000000 0.000000
# 3 -0.000474 -0.002429 0.005880 0.000000 0.000000 0.000000
# 4 0.000000 0.000000 0.000000 0.035811 0.000000 0.000000
# 5 0.000000 0.000000 0.000000 0.000000 0.052106 0.000000
# 6 0.000000 0.000000 0.000000 0.000000 0.000000 0.028330
#
#
# Mechanical properties :
#
#
# Convention : Reuss Voigt Hill
#
# Bulk Modulus (GPa) = 54.27102 63.56354 58.91728
# Shear Modulus (GPa) = 31.26902 39.23827 35.25364
#
# Velocity S-wave (km/s) = 3.58166 4.01220 3.80303
# Velocity P-wave (km/s) = 6.27451 6.89500 6.59206
#
# Compressibility (1/GPa) = 0.01842604
#
# Stress axis : x y z
#
# Youngs Moduli (GPa) = 153.21354 64.25337 170.06783
#
# Poissons Ratio (x) = 0.12009 0.08061
# Poissons Ratio (y) = 0.28637 0.41310
# Poissons Ratio (z) = 0.07262 0.15607
#
# Static dielectric constant tensor:
#      x y z
#    x 1.975310 0.000000 0.000000 
#    y 0.000000 1.974120 0.000000 
#    z 0.000000 0.000000 2.080800 
# 
# From -- ./inp_files/39044.got.cif
#   From: 2010.05.17/outbox.cif.g08.bks.cpg/sg52_20_cif.got.tgz:39044.got - 2010.06.03 12:15:38.
