data_PCOD9412866
_publ_section_title
;
Structure prediction by ZEFSAII (Michael W. Deem and Ramdas Pophale) SiO2 
 PCOD9412866
Probable space group: P N N A
;
_chemical_formula_sum "Si O2"
_cell_formula_units_Z 52
_cell_length_a 9.467869
_cell_length_b 28.009814
_cell_length_c 6.856756
_cell_angle_alpha 90.000000
_cell_angle_beta 90.000000
_cell_angle_gamma 90.000000
_cell_volume 1818.365406
_symmetry_space_group_name_H-M "P N N A"
_symmetry_group_IT_number 52
_symmetry_cell_setting 'orthorhombic'
loop_
_space_group_symop_operation_xyz
x,y,z
1/2-x,-y,z
x,1/2-y,1/2-z
1/2-x,1/2+y,1/2-z
-x,-y,-z
1/2+x,y,-z
-x,1/2+y,1/2+z
1/2+x,1/2-y,1/2+z
loop_
_atom_site_type_symbol
_atom_site_label
_atom_site_fract_x
_atom_site_fract_y
_atom_site_fract_z
Si Si1 0.578642 0.041692 0.226242
Si Si2 0.675737 0.323986 0.321546
Si Si3 0.038227 0.750000 0.250000
Si Si4 0.775449 0.431064 0.625409
Si Si5 0.758528 0.830227 0.634149
Si Si6 0.515361 0.844456 0.131479
Si Si7 0.009295 0.441880 0.146649
O O1 0.430186 0.047073 0.112772
O O2 0.703253 0.058492 0.085243
O O3 0.543514 0.070395 0.423877
O O4 0.586848 0.987936 0.316666
O O5 0.579458 0.278218 0.374153
O O6 0.573502 0.359228 0.440241
O O7 0.833752 0.320733 0.404704
O O8 0.702735 0.334180 0.094672
O O9 0.136712 0.790514 0.344188
O O10 0.780420 0.378741 0.741189
O O11 0.661304 0.455240 0.765353
O O12 0.906037 0.815549 0.735326
O O13 0.542735 0.893460 0.250352
#
# Coordination Sequence:
#
# PCOD9412866 Si02
#       7
#     8   8   4   8   8   8   8
#     4  11  25  50  83 126 175 229 292 356 416 511
#     4  12  28  52  82 120 165 216 278 355 430 522
#     4  12  30  54  86 118 156 210 282 352 440 522
#     4  11  26  49  80 118 169 226 289 345 433 503
#     4  11  28  53  82 118 163 215 277 357 431 517
#     4  11  27  50  84 122 169 224 279 347 442 512
#     4  10  25  47  81 126 175 229 289 347 421 509
#
# _framework density 28.597114000000001
#
# number of rings (size 3 to 8) (size 9 to 14) (size 15 to 20)
#    0.000    0.923    0.000    3.692    4.308   16.615 
#    0.000    6.154    0.000    0.000    0.000    0.000 
#    0.000    0.000    0.000    0.000    0.000    0.000 
#
# Total GULP energy -290905.673053 kJ/mol
# GULP energy per Si atom -5594.339866 kJ/mol
# Density = 2.853203 g / cm^3
# Si number density = 28.597114 Si / 1000 Ang^3
#
#
#
# Elastic Constant Matrix: (Units=GPa)
#
#
# Indices 1 2 3 4 5 6 
#
# 1 266.8960 63.9434 92.4481 0.0000 0.0000 0.0000
# 2 63.9434 129.6569 40.0800 0.0000 0.0000 0.0000
# 3 92.4481 40.0800 237.9018 0.0000 0.0000 0.0000
# 4 0.0000 0.0000 0.0000 11.9913 0.0000 0.0000
# 5 0.0000 0.0000 0.0000 0.0000 39.2179 0.0000
# 6 0.0000 0.0000 0.0000 0.0000 0.0000 54.8554
#
#
#
# Elastic Compliance Matrix: (Units=1/GPa)
#
#
# Indices 1 2 3 4 5 6 
#
# 1 0.004718 -0.001857 -0.001521 0.000000 0.000000 0.000000
# 2 -0.001857 0.008867 -0.000772 0.000000 0.000000 0.000000
# 3 -0.001521 -0.000772 0.004924 0.000000 0.000000 0.000000
# 4 0.000000 0.000000 0.000000 0.083394 0.000000 0.000000
# 5 0.000000 0.000000 0.000000 0.000000 0.025499 0.000000
# 6 0.000000 0.000000 0.000000 0.000000 0.000000 0.018230
#
#
# Mechanical properties :
#
#
# Convention : Reuss Voigt Hill
#
# Bulk Modulus (GPa) = 97.94109 114.15530 106.04820
# Shear Modulus (GPa) = 31.77917 50.41178 41.09548
#
# Velocity S-wave (km/s) = 3.33719 4.20316 3.79496
# Velocity P-wave (km/s) = 7.01228 7.97249 7.50775
#
# Compressibility (1/GPa) = 0.01021022
#
# Stress axis : x y z
#
# Youngs Moduli (GPa) = 211.93574 112.77549 203.06733
#
# Poissons Ratio (x) = 0.20941 0.30881
# Poissons Ratio (y) = 0.39354 0.15683
# Poissons Ratio (z) = 0.32230 0.08710
#
# Static dielectric constant tensor:
#      x y z
#    x 2.180660 0.000000 0.000000 
#    y 0.000000 2.768840 0.000000 
#    z 0.000000 0.000000 2.364360 
# 
# From -- ./inp_files/25174.got.cif
#   From: 2010.05.17/outbox.cif.g08.bks.cpg/sg52_13_cif.got.tgz:25174.got - 2010.06.03 12:15:38.
