data_PCOD9412768
_publ_section_title
;
Structure prediction by ZEFSAII (Michael W. Deem and Ramdas Pophale) SiO2 
 PCOD9412768
Probable space group: P N N A
;
_chemical_formula_sum "Si O2"
_cell_formula_units_Z 32
_cell_length_a 17.328659
_cell_length_b 10.862128
_cell_length_c 7.645268
_cell_angle_alpha 90.000000
_cell_angle_beta 90.000000
_cell_angle_gamma 90.000000
_cell_volume 1439.039072
_symmetry_space_group_name_H-M "P N N A"
_symmetry_group_IT_number 52
_symmetry_cell_setting 'orthorhombic'
loop_
_space_group_symop_operation_xyz
x,y,z
1/2-x,-y,z
x,1/2-y,1/2-z
1/2-x,1/2+y,1/2-z
-x,-y,-z
1/2+x,y,-z
-x,1/2+y,1/2+z
1/2+x,1/2-y,1/2+z
loop_
_atom_site_type_symbol
_atom_site_label
_atom_site_fract_x
_atom_site_fract_y
_atom_site_fract_z
Si Si1 0.941815 0.250000 0.750000
Si Si2 0.813614 0.184184 0.972072
Si Si3 0.166653 0.250000 0.250000
Si Si4 0.942774 0.885383 0.479097
Si Si5 0.673980 0.557782 0.160923
O O1 0.880316 0.152375 0.831312
O O2 0.001080 0.217959 0.595585
O O3 0.728911 0.189445 0.884733
O O4 0.839721 0.319443 0.046397
O O5 0.813426 0.100910 0.142003
O O6 0.109506 0.160850 0.359791
O O7 0.884757 0.944904 0.339772
O O8 0.000000 0.000000 0.500000
O O9 0.750000 0.500000 0.079554
#
# Coordination Sequence:
#
# PCOD9412768 Si02
#       5
#     4   8   4   8   8
#     4  11  26  44  66 103 138 182 230 287 348 418
#     4  10  24  47  70  98 139 181 245 279 339 430
#     4  11  26  46  70 101 140 188 230 287 342 430
#     4  12  27  44  68 101 144 178 230 290 355 404
#     4  11  23  44  70 100 134 185 229 291 345 412
#
# _framework density 22.237062000000002
#
# number of rings (size 3 to 8) (size 9 to 14) (size 15 to 20)
#    0.000    1.000    5.000    0.000    7.000    3.000 
#    0.000    0.000    0.000    0.000    0.000    0.000 
#    0.000    0.000    0.000    0.000    0.000    0.000 
#
# Total GULP energy -178304.908307 kJ/mol
# GULP energy per Si atom -5572.028385 kJ/mol
# Density = 2.218645 g / cm^3
# Si number density = 22.237062 Si / 1000 Ang^3
#
#
#
# Elastic Constant Matrix: (Units=GPa)
#
#
# Indices 1 2 3 4 5 6 
#
# 1 165.8283 39.3473 53.8852 0.0000 0.0000 0.0000
# 2 39.3473 52.8846 34.5409 0.0000 0.0000 0.0000
# 3 53.8852 34.5409 131.3592 0.0000 0.0000 0.0000
# 4 0.0000 0.0000 0.0000 21.1978 0.0000 0.0000
# 5 0.0000 0.0000 0.0000 0.0000 33.4142 0.0000
# 6 0.0000 0.0000 0.0000 0.0000 0.0000 250.2328
#
#
#
# Elastic Compliance Matrix: (Units=1/GPa)
#
#
# Indices 1 2 3 4 5 6 
#
# 1 0.007737 -0.004447 -0.002004 0.000000 0.000000 0.000000
# 2 -0.004447 0.025386 -0.004851 0.000000 0.000000 0.000000
# 3 -0.002004 -0.004851 0.009710 0.000000 0.000000 0.000000
# 4 0.000000 0.000000 0.000000 0.047175 0.000000 0.000000
# 5 0.000000 0.000000 0.000000 0.000000 0.029927 0.000000
# 6 0.000000 0.000000 0.000000 0.000000 0.000000 0.003996
#
#
# Mechanical properties :
#
#
# Convention : Reuss Voigt Hill
#
# Bulk Modulus (GPa) = 49.43539 67.29098 58.36319
# Shear Modulus (GPa) = 32.62000 75.78888 54.20444
#
# Velocity S-wave (km/s) = 3.83420 5.84433 4.94253
# Velocity P-wave (km/s) = 6.47153 8.71023 7.67297
#
# Compressibility (1/GPa) = 0.02022842
#
# Stress axis : x y z
#
# Youngs Moduli (GPa) = 129.25113 39.39127 102.98137
#
# Poissons Ratio (x) = 0.17518 0.20641
# Poissons Ratio (y) = 0.57482 0.49956
# Poissons Ratio (z) = 0.25906 0.19109
#
# Static dielectric constant tensor:
#      x y z
#    x 1.613490 0.000000 0.000000 
#    y 0.000000 1.935410 0.000000 
#    z 0.000000 0.000000 1.860680 
# 
# From -- ./inp_files/9596.got.cif
#   From: 2010.05.17/outbox.cif.g08.bks.cpg/sg52_5_cif.got.tgz:9596.got - 2010.06.03 12:15:38.
